LNI.pdb
     RDKit          3D

 25 24  0  0  1  0  0  0  0  0999 V2000
    9.5697  -13.3472   19.6515 C   0  0  0  0  0  0  0  0  0  0  0  0
    8.2537  -13.4161   18.9077 C   0  0  2  0  0  0  0  0  0  0  0  0
    7.6708  -12.0148   18.9311 C   0  0  0  0  0  0  0  0  0  0  0  0
    7.2831  -14.3668   19.5438 C   0  0  0  0  0  0  0  0  0  0  0  0
    7.8725  -15.7025   19.8463 C   0  0  2  0  0  0  0  0  0  0  0  0
    7.5967  -16.6838   18.8278 N   0  0  0  0  0  0  0  0  0  0  0  0
    7.3540  -16.2288   21.1669 C   0  0  0  0  0  0  0  0  0  0  0  0
    6.1155  -16.3717   21.3297 O   0  0  0  0  0  0  0  0  0  0  0  0
    6.1842  -18.6655   25.7418 N   0  0  0  0  0  0  0  0  0  0  0  0
    7.4979  -18.7130   25.2281 C   0  0  0  0  0  0  0  0  0  0  0  0
    8.4363  -18.9864   26.0592 O   0  0  0  0  0  0  0  0  0  0  0  0
    7.8066  -18.4599   23.7870 C   0  0  0  0  0  0  0  0  0  0  0  0
    7.9331  -16.9743   23.5365 C   0  0  2  0  0  0  0  0  0  0  0  0
    8.2258  -16.5615   22.2163 N   0  0  0  0  0  0  0  0  0  0  0  0
    8.5846  -16.2134   24.6032 C   0  0  0  0  0  0  0  0  0  0  0  0
    9.8462  -16.1835   24.5928 O   0  0  0  0  0  0  0  0  0  0  0  0
    6.2933  -11.6770   26.3893 C   0  0  0  0  0  0  0  0  0  0  0  0
    7.2690  -12.7281   25.9280 C   0  0  0  0  0  0  0  0  0  0  0  0
    7.8973  -13.4901   27.0648 C   0  0  2  0  0  0  0  0  0  0  0  0
    8.7469  -12.5746   27.9364 C   0  0  0  0  0  0  0  0  0  0  0  0
    8.6266  -14.7188   26.6481 C   0  0  2  0  0  0  0  0  0  0  0  0
    7.9533  -15.5030   25.6505 N   0  0  0  0  0  0  0  0  0  0  0  0
    9.1745  -15.4954   27.7650 C   0  0  0  0  0  0  0  0  0  0  0  0
   10.4004  -15.2586   28.3621 O   0  0  0  0  0  0  0  0  0  0  0  0
    8.4987  -16.4570   28.2343 O   0  0  0  0  0  0  0  0  0  0  0  0
  2  1  1  1
  3  2  1  0
  4  2  1  0
  5  4  1  0
  5  6  1  6
  7  5  1  0
  7  8  2  0
 10 12  1  0
 10  9  1  0
 11 10  2  0
 13 12  1  6
 13 14  1  0
 14  7  1  0
 15 13  1  0
 16 15  2  0
 18 19  1  0
 18 17  1  0
 19 21  1  0
 19 20  1  6
 21 22  1  1
 21 23  1  0
 22 15  1  0
 23 24  1  0
 25 23  2  0
M  END
$$$$
