EVG.pdb
     RDKit          3D

 21 20  0  0  1  0  0  0  0  0999 V2000
    7.4672  -17.0274   22.8144 N   0  0  0  0  0  0  0  0  0  0  0  0
    8.8533  -16.7291   22.9561 C   0  0  1  0  0  0  0  0  0  0  0  0
    9.6610  -16.7361   21.7143 C   0  0  0  0  0  0  0  0  0  0  0  0
    9.0125  -17.2177   20.4741 C   0  0  0  0  0  0  0  0  0  0  0  0
    9.8467  -17.1705   19.2563 C   0  0  0  0  0  0  0  0  0  0  0  0
   10.8539  -17.9191   19.1756 O   0  0  0  0  0  0  0  0  0  0  0  0
    9.0418  -15.4975   23.7736 C   0  0  0  0  0  0  0  0  0  0  0  0
   10.1763  -14.9787   23.8047 O   0  0  0  0  0  0  0  0  0  0  0  0
    9.5987  -16.3453   18.1711 O   0  0  0  0  0  0  0  0  0  0  0  0
    5.8025  -13.5920   26.0760 C   0  0  0  0  0  0  0  0  0  0  0  0
    6.9493  -12.8583   25.3921 C   0  0  1  0  0  0  0  0  0  0  0  0
    7.1621  -11.5957   26.1944 C   0  0  0  0  0  0  0  0  0  0  0  0
    8.1633  -13.7302   25.3408 C   0  0  2  0  0  0  0  0  0  0  0  0
    7.9910  -14.8932   24.5145 N   0  0  0  0  0  0  0  0  0  0  0  0
    8.6276  -14.0969   26.7137 C   0  0  0  0  0  0  0  0  0  0  0  0
    8.9412  -13.1951   27.5649 O   0  0  0  0  0  0  0  0  0  0  0  0
    8.7425  -15.4476   27.1375 N   0  0  0  0  0  0  0  0  0  0  0  0
    9.1005  -15.7875   28.5189 C   0  0  0  0  0  0  0  0  0  0  0  0
   10.4902  -16.3081   28.4874 C   0  0  0  0  0  0  0  0  0  0  0  0
   11.1698  -16.7864   29.5924 O   0  0  0  0  0  0  0  0  0  0  0  0
   11.0869  -16.3133   27.3818 O   0  0  0  0  0  0  0  0  0  0  0  0
  2  1  1  6
  3  2  1  0
  3  4  1  0
  4  5  1  0
  5  9  1  0
  5  6  2  0
  7  2  1  0
  8  7  2  0
 11 12  1  1
 11 10  1  0
 13 11  1  0
 13 14  1  6
 14  7  1  0
 15 17  1  0
 15 13  1  0
 16 15  2  0
 18 17  1  0
 19 18  1  0
 20 19  1  0
 21 19  2  0
M  END
$$$$
