EVG.pdb
     RDKit          3D

 21 20  0  0  1  0  0  0  0  0999 V2000
    9.7539  -17.6783   16.3301 N   0  0  0  0  0  0  0  0  0  0  0  0
    8.6417  -17.3385   17.1535 C   0  0  1  0  0  0  0  0  0  0  0  0
    7.7677  -18.4567   17.5779 C   0  0  0  0  0  0  0  0  0  0  0  0
    8.3560  -19.8142   17.6153 C   0  0  0  0  0  0  0  0  0  0  0  0
    7.5157  -20.8586   18.2351 C   0  0  0  0  0  0  0  0  0  0  0  0
    7.6349  -21.0893   19.4656 O   0  0  0  0  0  0  0  0  0  0  0  0
    9.0747  -16.4686   18.2834 C   0  0  0  0  0  0  0  0  0  0  0  0
   10.2462  -16.5809   18.6982 O   0  0  0  0  0  0  0  0  0  0  0  0
    6.5846  -21.6215   17.5485 O   0  0  0  0  0  0  0  0  0  0  0  0
    6.4015  -13.6761   20.4721 C   0  0  0  0  0  0  0  0  0  0  0  0
    7.8395  -13.3946   20.0553 C   0  0  1  0  0  0  0  0  0  0  0  0
    8.3798  -12.4260   21.0815 C   0  0  0  0  0  0  0  0  0  0  0  0
    8.6175  -14.6702   19.9886 C   0  0  2  0  0  0  0  0  0  0  0  0
    8.2153  -15.5230   18.9043 N   0  0  0  0  0  0  0  0  0  0  0  0
    8.5873  -15.3943   21.2961 C   0  0  0  0  0  0  0  0  0  0  0  0
    7.5399  -16.0225   21.6761 O   0  0  0  0  0  0  0  0  0  0  0  0
    9.7053  -15.4216   22.1714 N   0  0  0  0  0  0  0  0  0  0  0  0
    9.6586  -16.1410   23.4490 C   0  0  0  0  0  0  0  0  0  0  0  0
   10.9486  -15.8818   24.1361 C   0  0  0  0  0  0  0  0  0  0  0  0
   11.2455  -16.2960   25.4214 O   0  0  0  0  0  0  0  0  0  0  0  0
   11.8280  -15.2432   23.5057 O   0  0  0  0  0  0  0  0  0  0  0  0
  2  1  1  1
  3  2  1  0
  3  4  1  0
  4  5  1  0
  5  9  1  0
  5  6  2  0
  7  2  1  0
  8  7  2  0
 11 12  1  1
 11 10  1  0
 13 11  1  0
 13 14  1  6
 14  7  1  0
 15 17  1  0
 15 13  1  0
 16 15  2  0
 18 17  1  0
 19 18  1  0
 20 19  1  0
 21 19  2  0
M  END
$$$$
