EVG.pdb
     RDKit          3D

 21 20  0  0  1  0  0  0  0  0999 V2000
    8.7020  -14.8284   21.0184 N   0  0  0  0  0  0  0  0  0  0  0  0
    8.0053  -15.3759   22.1344 C   0  0  1  0  0  0  0  0  0  0  0  0
    7.8769  -16.8511   22.1741 C   0  0  0  0  0  0  0  0  0  0  0  0
    7.3103  -17.5250   20.9845 C   0  0  0  0  0  0  0  0  0  0  0  0
    7.2658  -18.9999   21.0456 C   0  0  0  0  0  0  0  0  0  0  0  0
    8.3426  -19.6403   21.1545 O   0  0  0  0  0  0  0  0  0  0  0  0
    8.5194  -14.7955   23.4071 C   0  0  0  0  0  0  0  0  0  0  0  0
    9.7531  -14.6609   23.5374 O   0  0  0  0  0  0  0  0  0  0  0  0
    6.1015  -19.7493   20.9904 O   0  0  0  0  0  0  0  0  0  0  0  0
    7.3890  -11.6367   25.2678 C   0  0  0  0  0  0  0  0  0  0  0  0
    7.3918  -12.7705   26.2854 C   0  0  1  0  0  0  0  0  0  0  0  0
    5.9378  -13.0794   26.5563 C   0  0  0  0  0  0  0  0  0  0  0  0
    8.1490  -13.9438   25.7498 C   0  0  2  0  0  0  0  0  0  0  0  0
    7.6695  -14.3917   24.4714 N   0  0  0  0  0  0  0  0  0  0  0  0
    8.1922  -15.0616   26.7416 C   0  0  0  0  0  0  0  0  0  0  0  0
    7.1328  -15.7085   27.0503 O   0  0  0  0  0  0  0  0  0  0  0  0
    9.3959  -15.4571   27.3832 N   0  0  0  0  0  0  0  0  0  0  0  0
    9.4198  -16.5589   28.3513 C   0  0  0  0  0  0  0  0  0  0  0  0
   10.8209  -16.6848   28.8253 C   0  0  0  0  0  0  0  0  0  0  0  0
   11.2387  -17.5732   29.7988 O   0  0  0  0  0  0  0  0  0  0  0  0
   11.6828  -15.9326   28.3058 O   0  0  0  0  0  0  0  0  0  0  0  0
  2  1  1  6
  3  2  1  0
  3  4  1  0
  4  5  1  0
  5  9  1  0
  5  6  2  0
  7  2  1  0
  8  7  2  0
 11 12  1  6
 11 10  1  0
 13 11  1  0
 13 14  1  6
 14  7  1  0
 15 17  1  0
 15 13  1  0
 16 15  2  0
 18 17  1  0
 19 18  1  0
 20 19  1  0
 21 19  2  0
M  END
$$$$
