EVG.pdb
     RDKit          3D

 21 20  0  0  1  0  0  0  0  0999 V2000
    9.2747  -17.4729   16.4488 N   0  0  0  0  0  0  0  0  0  0  0  0
    8.4668  -17.5564   17.6196 C   0  0  1  0  0  0  0  0  0  0  0  0
    8.2777  -18.9074   18.1970 C   0  0  0  0  0  0  0  0  0  0  0  0
    9.4347  -19.5349   18.8737 C   0  0  0  0  0  0  0  0  0  0  0  0
    9.1419  -20.1931   20.1629 C   0  0  0  0  0  0  0  0  0  0  0  0
    7.9616  -20.1901   20.5970 O   0  0  0  0  0  0  0  0  0  0  0  0
    8.8957  -16.5421   18.6237 C   0  0  0  0  0  0  0  0  0  0  0  0
   10.1129  -16.2840   18.7176 O   0  0  0  0  0  0  0  0  0  0  0  0
   10.0901  -20.8282   20.9490 O   0  0  0  0  0  0  0  0  0  0  0  0
    7.8327  -12.7058   21.5425 C   0  0  0  0  0  0  0  0  0  0  0  0
    7.3312  -13.7788   20.5842 C   0  0  1  0  0  0  0  0  0  0  0  0
    6.9980  -13.0557   19.3000 C   0  0  0  0  0  0  0  0  0  0  0  0
    8.3709  -14.8390   20.4055 C   0  0  2  0  0  0  0  0  0  0  0  0
    7.9829  -15.8613   19.4732 N   0  0  0  0  0  0  0  0  0  0  0  0
    8.7838  -15.4223   21.7186 C   0  0  0  0  0  0  0  0  0  0  0  0
    8.0414  -16.2694   22.3246 O   0  0  0  0  0  0  0  0  0  0  0  0
   10.0054  -15.0703   22.3517 N   0  0  0  0  0  0  0  0  0  0  0  0
   10.3914  -15.6489   23.6432 C   0  0  0  0  0  0  0  0  0  0  0  0
   11.7891  -16.1277   23.4995 C   0  0  0  0  0  0  0  0  0  0  0  0
   12.5396  -16.6657   24.5285 O   0  0  0  0  0  0  0  0  0  0  0  0
   12.3239  -16.0367   22.3663 O   0  0  0  0  0  0  0  0  0  0  0  0
  2  1  1  6
  3  2  1  0
  3  4  1  0
  4  5  1  0
  5  9  1  0
  5  6  2  0
  7  2  1  0
  8  7  2  0
 11 12  1  6
 11 10  1  0
 13 11  1  0
 13 14  1  6
 14  7  1  0
 15 17  1  0
 15 13  1  0
 16 15  2  0
 18 17  1  0
 19 18  1  0
 20 19  1  0
 21 19  2  0
M  END
$$$$
