EVG.pdb
     RDKit          3D

 21 20  0  0  1  0  0  0  0  0999 V2000
    7.9784  -15.5192   20.9694 N   0  0  0  0  0  0  0  0  0  0  0  0
    7.0462  -15.7060   22.0308 C   0  0  1  0  0  0  0  0  0  0  0  0
    6.4011  -17.0367   22.1172 C   0  0  0  0  0  0  0  0  0  0  0  0
    6.1186  -17.7482   20.8505 C   0  0  0  0  0  0  0  0  0  0  0  0
    5.3970  -19.0298   20.9841 C   0  0  0  0  0  0  0  0  0  0  0  0
    5.0872  -19.6684   19.9460 O   0  0  0  0  0  0  0  0  0  0  0  0
    7.6288  -15.2494   23.3242 C   0  0  0  0  0  0  0  0  0  0  0  0
    8.8574  -15.3831   23.4970 O   0  0  0  0  0  0  0  0  0  0  0  0
    5.0263  -19.5952   22.1938 O   0  0  0  0  0  0  0  0  0  0  0  0
    7.3790  -12.8256   27.6120 C   0  0  0  0  0  0  0  0  0  0  0  0
    6.7028  -13.1708   26.2911 C   0  0  1  0  0  0  0  0  0  0  0  0
    6.8035  -11.9243   25.4430 C   0  0  0  0  0  0  0  0  0  0  0  0
    7.3642  -14.3580   25.6665 C   0  0  2  0  0  0  0  0  0  0  0  0
    6.8493  -14.6722   24.3623 N   0  0  0  0  0  0  0  0  0  0  0  0
    7.3200  -15.5450   26.5742 C   0  0  0  0  0  0  0  0  0  0  0  0
    6.2042  -16.0520   26.9403 O   0  0  0  0  0  0  0  0  0  0  0  0
    8.4991  -16.1623   27.0697 N   0  0  0  0  0  0  0  0  0  0  0  0
    8.4379  -17.3610   27.9132 C   0  0  0  0  0  0  0  0  0  0  0  0
    9.8290  -17.6619   28.3346 C   0  0  0  0  0  0  0  0  0  0  0  0
   10.1737  -18.6440   29.2447 O   0  0  0  0  0  0  0  0  0  0  0  0
   10.7533  -16.9772   27.8294 O   0  0  0  0  0  0  0  0  0  0  0  0
  2  1  1  6
  3  2  1  0
  3  4  1  0
  4  5  1  0
  5  9  1  0
  5  6  2  0
  7  2  1  0
  8  7  2  0
 11 12  1  6
 11 10  1  0
 13 11  1  0
 13 14  1  6
 14  7  1  0
 15 17  1  0
 15 13  1  0
 16 15  2  0
 18 17  1  0
 19 18  1  0
 20 19  1  0
 21 19  2  0
M  END
$$$$
