EVG.pdb
     RDKit          3D

 21 20  0  0  1  0  0  0  0  0999 V2000
    7.9160  -18.0576   18.0653 N   0  0  0  0  0  0  0  0  0  0  0  0
    9.3078  -17.8806   18.3140 C   0  0  1  0  0  0  0  0  0  0  0  0
   10.2113  -18.0288   17.1495 C   0  0  0  0  0  0  0  0  0  0  0  0
    9.6722  -18.6894   15.9397 C   0  0  0  0  0  0  0  0  0  0  0  0
    9.8558  -17.9524   14.6731 C   0  0  0  0  0  0  0  0  0  0  0  0
   10.9910  -17.9388   14.1324 O   0  0  0  0  0  0  0  0  0  0  0  0
    9.5452  -16.6290   19.0874 C   0  0  0  0  0  0  0  0  0  0  0  0
   10.7217  -16.2378   19.2287 O   0  0  0  0  0  0  0  0  0  0  0  0
    8.8495  -17.2585   14.0202 O   0  0  0  0  0  0  0  0  0  0  0  0
    8.0157  -12.4946   21.2961 C   0  0  0  0  0  0  0  0  0  0  0  0
    7.6885  -13.6691   20.3826 C   0  0  1  0  0  0  0  0  0  0  0  0
    7.6471  -13.0991   18.9838 C   0  0  0  0  0  0  0  0  0  0  0  0
    8.7100  -14.7495   20.5437 C   0  0  2  0  0  0  0  0  0  0  0  0
    8.4952  -15.8675   19.6669 N   0  0  0  0  0  0  0  0  0  0  0  0
    8.8211  -15.1844   21.9697 C   0  0  0  0  0  0  0  0  0  0  0  0
    7.8661  -15.8147   22.5415 O   0  0  0  0  0  0  0  0  0  0  0  0
    9.9773  -14.9235   22.7520 N   0  0  0  0  0  0  0  0  0  0  0  0
   10.0681  -15.3573   24.1504 C   0  0  0  0  0  0  0  0  0  0  0  0
   11.4355  -15.9013   24.3441 C   0  0  0  0  0  0  0  0  0  0  0  0
   11.9378  -16.3370   25.5563 O   0  0  0  0  0  0  0  0  0  0  0  0
   12.1849  -15.9693   23.3379 O   0  0  0  0  0  0  0  0  0  0  0  0
  2  1  1  6
  3  2  1  0
  3  4  1  0
  4  5  1  0
  5  9  1  0
  5  6  2  0
  7  2  1  0
  8  7  2  0
 11 12  1  6
 11 10  1  0
 13 11  1  0
 13 14  1  6
 14  7  1  0
 15 17  1  0
 15 13  1  0
 16 15  2  0
 18 17  1  0
 19 18  1  0
 20 19  1  0
 21 19  2  0
M  END
$$$$
