EVG.pdb
     RDKit          3D

 21 20  0  0  1  0  0  0  0  0999 V2000
    9.8892  -17.5630   19.1061 N   0  0  0  0  0  0  0  0  0  0  0  0
   10.6931  -17.7212   20.2720 C   0  0  1  0  0  0  0  0  0  0  0  0
   12.1143  -18.0762   20.0515 C   0  0  0  0  0  0  0  0  0  0  0  0
   12.4164  -19.1054   19.0318 C   0  0  0  0  0  0  0  0  0  0  0  0
   13.8140  -19.5817   18.9985 C   0  0  0  0  0  0  0  0  0  0  0  0
   14.1562  -20.4126   18.1188 O   0  0  0  0  0  0  0  0  0  0  0  0
   10.5117  -16.5634   21.1926 C   0  0  0  0  0  0  0  0  0  0  0  0
   11.1831  -15.5328   20.9826 O   0  0  0  0  0  0  0  0  0  0  0  0
   14.7996  -19.1739   19.8832 O   0  0  0  0  0  0  0  0  0  0  0  0
    7.4363  -14.6006   21.6779 C   0  0  0  0  0  0  0  0  0  0  0  0
    7.8433  -15.0782   23.0662 C   0  0  1  0  0  0  0  0  0  0  0  0
    6.9473  -16.2559   23.3715 C   0  0  0  0  0  0  0  0  0  0  0  0
    9.2971  -15.4286   23.0868 C   0  0  2  0  0  0  0  0  0  0  0  0
    9.6126  -16.5837   22.2923 N   0  0  0  0  0  0  0  0  0  0  0  0
    9.8021  -15.5712   24.4865 C   0  0  0  0  0  0  0  0  0  0  0  0
    9.6840  -14.6160   25.3290 O   0  0  0  0  0  0  0  0  0  0  0  0
   10.4306  -16.7589   24.9464 N   0  0  0  0  0  0  0  0  0  0  0  0
   10.8434  -16.9128   26.3456 C   0  0  0  0  0  0  0  0  0  0  0  0
   10.2448  -18.1804   26.8337 C   0  0  0  0  0  0  0  0  0  0  0  0
   10.3833  -18.6640   28.1215 O   0  0  0  0  0  0  0  0  0  0  0  0
    9.5676  -18.8576   26.0204 O   0  0  0  0  0  0  0  0  0  0  0  0
  2  1  1  6
  3  2  1  0
  3  4  1  0
  4  5  1  0
  5  9  1  0
  5  6  2  0
  7  2  1  0
  8  7  2  0
 11 12  1  6
 11 10  1  0
 13 11  1  0
 13 14  1  6
 14  7  1  0
 15 17  1  0
 15 13  1  0
 16 15  2  0
 18 17  1  0
 19 18  1  0
 20 19  1  0
 21 19  2  0
M  END
$$$$
