EVG.pdb
     RDKit          3D

 21 20  0  0  1  0  0  0  0  0999 V2000
    6.3516  -17.0129   22.6872 N   0  0  0  0  0  0  0  0  0  0  0  0
    6.4671  -16.8772   24.1009 C   0  0  1  0  0  0  0  0  0  0  0  0
    6.9051  -18.0799   24.8466 C   0  0  0  0  0  0  0  0  0  0  0  0
    6.2649  -19.3707   24.5081 C   0  0  0  0  0  0  0  0  0  0  0  0
    6.7795  -20.5495   25.2338 C   0  0  0  0  0  0  0  0  0  0  0  0
    7.7165  -21.2183   24.7276 O   0  0  0  0  0  0  0  0  0  0  0  0
    7.2461  -15.6546   24.4464 C   0  0  0  0  0  0  0  0  0  0  0  0
    8.2303  -15.3629   23.7370 O   0  0  0  0  0  0  0  0  0  0  0  0
    6.2974  -20.9852   26.4578 O   0  0  0  0  0  0  0  0  0  0  0  0
    6.2616  -12.0671   24.8192 C   0  0  0  0  0  0  0  0  0  0  0  0
    6.9473  -12.4355   26.1289 C   0  0  1  0  0  0  0  0  0  0  0  0
    5.8404  -12.5487   27.1512 C   0  0  0  0  0  0  0  0  0  0  0  0
    7.7252  -13.7025   25.9666 C   0  0  2  0  0  0  0  0  0  0  0  0
    6.9174  -14.8128   25.5425 N   0  0  0  0  0  0  0  0  0  0  0  0
    8.4986  -14.0279   27.2038 C   0  0  0  0  0  0  0  0  0  0  0  0
    7.9431  -13.9916   28.3554 O   0  0  0  0  0  0  0  0  0  0  0  0
    9.8714  -14.3893   27.1643 N   0  0  0  0  0  0  0  0  0  0  0  0
   10.6383  -14.6151   28.3943 C   0  0  0  0  0  0  0  0  0  0  0  0
   11.9883  -15.0738   27.9815 C   0  0  0  0  0  0  0  0  0  0  0  0
   12.9213  -15.6259   28.8396 O   0  0  0  0  0  0  0  0  0  0  0  0
   12.3019  -14.9510   26.7711 O   0  0  0  0  0  0  0  0  0  0  0  0
  2  1  1  6
  3  2  1  0
  3  4  1  0
  4  5  1  0
  5  9  1  0
  5  6  2  0
  7  2  1  0
  8  7  2  0
 11 12  1  1
 11 10  1  0
 13 11  1  0
 13 14  1  1
 14  7  1  0
 15 17  1  0
 15 13  1  0
 16 15  2  0
 18 17  1  0
 19 18  1  0
 20 19  1  0
 21 19  2  0
M  END
$$$$
