EVG.pdb
     RDKit          3D

 21 20  0  0  1  0  0  0  0  0999 V2000
    8.6886  -15.6851   21.5533 N   0  0  0  0  0  0  0  0  0  0  0  0
    8.4661  -15.9718   22.9312 C   0  0  1  0  0  0  0  0  0  0  0  0
    9.1702  -17.1528   23.4825 C   0  0  0  0  0  0  0  0  0  0  0  0
    9.0978  -18.4170   22.7164 C   0  0  0  0  0  0  0  0  0  0  0  0
    9.8695  -19.5468   23.2723 C   0  0  0  0  0  0  0  0  0  0  0  0
   10.4537  -19.4038   24.3767 O   0  0  0  0  0  0  0  0  0  0  0  0
    8.6434  -14.7431   23.7557 C   0  0  0  0  0  0  0  0  0  0  0  0
    9.5462  -13.9436   23.4353 O   0  0  0  0  0  0  0  0  0  0  0  0
   10.0024  -20.7806   22.6556 O   0  0  0  0  0  0  0  0  0  0  0  0
    5.6265  -13.3832   26.5460 C   0  0  0  0  0  0  0  0  0  0  0  0
    6.6085  -12.5176   25.7665 C   0  0  1  0  0  0  0  0  0  0  0  0
    6.7098  -11.2212   26.5360 C   0  0  0  0  0  0  0  0  0  0  0  0
    7.9215  -13.2206   25.6297 C   0  0  2  0  0  0  0  0  0  0  0  0
    7.8330  -14.4458   24.8840 N   0  0  0  0  0  0  0  0  0  0  0  0
    8.5648  -13.4347   26.9620 C   0  0  0  0  0  0  0  0  0  0  0  0
    8.8047  -12.4502   27.7426 O   0  0  0  0  0  0  0  0  0  0  0  0
    8.9376  -14.7253   27.4230 N   0  0  0  0  0  0  0  0  0  0  0  0
    9.4135  -14.9393   28.7941 C   0  0  0  0  0  0  0  0  0  0  0  0
   10.8035  -15.4500   28.6921 C   0  0  0  0  0  0  0  0  0  0  0  0
   11.5883  -15.7991   29.7755 O   0  0  0  0  0  0  0  0  0  0  0  0
   11.2979  -15.5722   27.5435 O   0  0  0  0  0  0  0  0  0  0  0  0
  2  1  1  6
  3  2  1  0
  3  4  1  0
  4  5  1  0
  5  9  1  0
  5  6  2  0
  7  2  1  0
  8  7  2  0
 11 12  1  1
 11 10  1  0
 13 11  1  0
 13 14  1  1
 14  7  1  0
 15 17  1  0
 15 13  1  0
 16 15  2  0
 18 17  1  0
 19 18  1  0
 20 19  1  0
 21 19  2  0
M  END
$$$$
