EVG.pdb
     RDKit          3D

 21 20  0  0  1  0  0  0  0  0999 V2000
   -5.0519  -25.1729   32.4884 N   0  0  0  0  0  0  0  0  0  0  0  0
   -4.6948  -25.3760   31.1240 C   0  0  1  0  0  0  0  0  0  0  0  0
   -4.8868  -26.7433   30.5872 C   0  0  0  0  0  0  0  0  0  0  0  0
   -6.1101  -27.4741   30.9868 C   0  0  0  0  0  0  0  0  0  0  0  0
   -6.2852  -28.8086   30.3788 C   0  0  0  0  0  0  0  0  0  0  0  0
   -6.2085  -28.9261   29.1291 O   0  0  0  0  0  0  0  0  0  0  0  0
   -5.2939  -24.3167   30.2640 C   0  0  0  0  0  0  0  0  0  0  0  0
   -6.3040  -23.7170   30.6851 O   0  0  0  0  0  0  0  0  0  0  0  0
   -6.5335  -29.9676   31.0966 O   0  0  0  0  0  0  0  0  0  0  0  0
   -4.7561  -21.0531   26.5854 C   0  0  0  0  0  0  0  0  0  0  0  0
   -4.1746  -22.2068   27.3928 C   0  0  1  0  0  0  0  0  0  0  0  0
   -3.0741  -21.6026   28.2337 C   0  0  0  0  0  0  0  0  0  0  0  0
   -5.2451  -22.8569   28.2102 C   0  0  2  0  0  0  0  0  0  0  0  0
   -4.7670  -23.9632   28.9929 N   0  0  0  0  0  0  0  0  0  0  0  0
   -6.4133  -23.2483   27.3636 C   0  0  0  0  0  0  0  0  0  0  0  0
   -6.3132  -24.1828   26.4959 O   0  0  0  0  0  0  0  0  0  0  0  0
   -7.6774  -22.6112   27.4781 N   0  0  0  0  0  0  0  0  0  0  0  0
   -8.8497  -23.1013   26.7449 C   0  0  0  0  0  0  0  0  0  0  0  0
   -9.3693  -24.2708   27.4970 C   0  0  0  0  0  0  0  0  0  0  0  0
  -10.0894  -24.1847   28.6742 O   0  0  0  0  0  0  0  0  0  0  0  0
   -9.1381  -25.4144   27.0309 O   0  0  0  0  0  0  0  0  0  0  0  0
  2  1  1  1
  3  2  1  0
  3  4  1  0
  4  5  1  0
  5  9  1  0
  5  6  2  0
  7  2  1  0
  8  7  2  0
 11 12  1  1
 11 10  1  0
 13 11  1  0
 13 14  1  6
 14  7  1  0
 15 17  1  0
 15 13  1  0
 16 15  2  0
 18 17  1  0
 19 18  1  0
 20 19  1  0
 21 19  2  0
M  END
$$$$
