EKS.pdb
     RDKit          3D

 25 24  0  0  1  0  0  0  0  0999 V2000
    9.0481  -15.9561   15.1293 N   0  0  0  0  0  0  0  0  0  0  0  0
    8.3727  -16.5277   16.2488 C   0  0  1  0  0  0  0  0  0  0  0  0
    8.1125  -17.9990   16.1439 C   0  0  0  0  0  0  0  0  0  0  0  0
    9.3153  -18.8750   16.3280 C   0  0  0  0  0  0  0  0  0  0  0  0
    9.0150  -20.3063   16.1694 C   0  0  0  0  0  0  0  0  0  0  0  0
    9.9253  -21.1750   16.3418 O   0  0  0  0  0  0  0  0  0  0  0  0
    8.9707  -16.1632   17.5760 C   0  0  0  0  0  0  0  0  0  0  0  0
   10.1661  -16.4901   17.8174 O   0  0  0  0  0  0  0  0  0  0  0  0
    7.7583  -20.7863   15.8350 O   0  0  0  0  0  0  0  0  0  0  0  0
    8.2478  -15.4671   18.5711 N   0  0  0  0  0  0  0  0  0  0  0  0
    8.6074  -15.2506   19.9280 C   0  0  1  0  0  0  0  0  0  0  0  0
    7.5738  -14.5739   20.8057 C   0  0  0  0  0  0  0  0  0  0  0  0
    8.0956  -14.3035   22.1937 C   0  0  0  0  0  0  0  0  0  0  0  0
    7.0818  -13.6854   23.1126 C   0  0  0  0  0  0  0  0  0  0  0  0
    7.7062  -13.3286   24.4348 C   0  0  0  0  0  0  0  0  0  0  0  0
    6.6633  -12.7064   25.2602 N   0  0  0  0  0  0  0  0  0  0  0  0
    9.3475  -16.3285   20.5902 C   0  0  0  0  0  0  0  0  0  0  0  0
    8.8316  -17.4719   20.6275 O   0  0  0  0  0  0  0  0  0  0  0  0
   13.3100  -15.8853   21.8178 O   0  0  0  0  0  0  0  0  0  0  0  0
   12.8262  -17.1385   21.5294 C   0  0  0  0  0  0  0  0  0  0  0  0
   11.3524  -17.1912   21.8769 C   0  0  2  0  0  0  0  0  0  0  0  0
   10.6112  -16.1512   21.1895 N   0  0  0  0  0  0  0  0  0  0  0  0
   11.1482  -17.0544   23.3420 C   0  0  0  0  0  0  0  0  0  0  0  0
   10.4438  -16.1301   23.8018 O   0  0  0  0  0  0  0  0  0  0  0  0
   11.7346  -17.9474   24.2124 O   0  0  0  0  0  0  0  0  0  0  0  0
  2  7  1  0
  2  1  1  6
  3  2  1  0
  4  3  1  0
  5  4  1  0
  6  5  2  0
  7  8  2  0
  9  5  1  0
 10 11  1  0
 10  7  1  0
 11 12  1  1
 13 12  1  0
 13 14  1  0
 14 15  1  0
 15 16  1  0
 17 18  2  0
 17 11  1  0
 19 20  1  0
 21 20  1  1
 21 22  1  0
 21 23  1  0
 22 17  1  0
 23 25  1  0
 24 23  2  0
M  END
$$$$
