EKS.pdb
     RDKit          3D

 25 24  0  0  1  0  0  0  0  0999 V2000
   13.1434  -17.3446   17.8226 N   0  0  0  0  0  0  0  0  0  0  0  0
   12.2912  -18.0339   18.7363 C   0  0  1  0  0  0  0  0  0  0  0  0
   12.7001  -19.4426   19.0392 C   0  0  0  0  0  0  0  0  0  0  0  0
   14.1560  -19.6338   19.3426 C   0  0  0  0  0  0  0  0  0  0  0  0
   14.5170  -21.0419   19.5687 C   0  0  0  0  0  0  0  0  0  0  0  0
   13.6234  -21.9440   19.5471 O   0  0  0  0  0  0  0  0  0  0  0  0
   11.9846  -17.2639   19.9873 C   0  0  0  0  0  0  0  0  0  0  0  0
   12.9407  -16.7915   20.6631 O   0  0  0  0  0  0  0  0  0  0  0  0
   15.8153  -21.4639   19.8094 O   0  0  0  0  0  0  0  0  0  0  0  0
   10.6645  -17.0458   20.4424 N   0  0  0  0  0  0  0  0  0  0  0  0
   10.2378  -16.3027   21.5753 C   0  0  1  0  0  0  0  0  0  0  0  0
    8.9089  -15.5840   21.4558 C   0  0  0  0  0  0  0  0  0  0  0  0
    8.8870  -14.6179   20.2991 C   0  0  0  0  0  0  0  0  0  0  0  0
    7.5454  -13.9870   20.0617 C   0  0  0  0  0  0  0  0  0  0  0  0
    7.5806  -13.0962   18.8490 C   0  0  0  0  0  0  0  0  0  0  0  0
    6.2446  -12.5062   18.6976 N   0  0  0  0  0  0  0  0  0  0  0  0
   10.4782  -16.9108   22.8869 C   0  0  0  0  0  0  0  0  0  0  0  0
   10.4088  -18.1598   22.9878 O   0  0  0  0  0  0  0  0  0  0  0  0
   11.6172  -16.2601   27.5823 O   0  0  0  0  0  0  0  0  0  0  0  0
   11.2670  -15.6674   26.3932 C   0  0  0  0  0  0  0  0  0  0  0  0
   11.0547  -16.7440   25.3485 C   0  0  2  0  0  0  0  0  0  0  0  0
   10.7842  -16.1678   24.0452 N   0  0  0  0  0  0  0  0  0  0  0  0
    9.9342  -17.6409   25.7319 C   0  0  0  0  0  0  0  0  0  0  0  0
    8.8107  -17.5179   25.1984 O   0  0  0  0  0  0  0  0  0  0  0  0
   10.1217  -18.6209   26.6824 O   0  0  0  0  0  0  0  0  0  0  0  0
  2  7  1  0
  2  1  1  1
  3  2  1  0
  4  3  1  0
  5  4  1  0
  6  5  2  0
  7  8  2  0
  9  5  1  0
 10 11  1  0
 10  7  1  0
 11 12  1  6
 13 12  1  0
 13 14  1  0
 14 15  1  0
 15 16  1  0
 17 18  2  0
 17 11  1  0
 19 20  1  0
 21 20  1  1
 21 22  1  0
 21 23  1  0
 22 17  1  0
 23 25  1  0
 24 23  2  0
M  END
$$$$
