EKS.pdb
     RDKit          3D

 25 24  0  0  1  0  0  0  0  0999 V2000
    9.6187  -18.1119   18.5108 N   0  0  0  0  0  0  0  0  0  0  0  0
    9.9481  -19.1484   19.4345 C   0  0  1  0  0  0  0  0  0  0  0  0
   11.3977  -19.5237   19.4700 C   0  0  0  0  0  0  0  0  0  0  0  0
   12.0086  -19.8388   18.1375 C   0  0  0  0  0  0  0  0  0  0  0  0
   13.4483  -20.1304   18.2184 C   0  0  0  0  0  0  0  0  0  0  0  0
   13.8754  -21.3098   18.0200 O   0  0  0  0  0  0  0  0  0  0  0  0
    9.3956  -18.9377   20.8137 C   0  0  0  0  0  0  0  0  0  0  0  0
    9.5604  -17.8178   21.3729 O   0  0  0  0  0  0  0  0  0  0  0  0
   14.4034  -19.1673   18.5041 O   0  0  0  0  0  0  0  0  0  0  0  0
    8.6964  -19.9455   21.5156 N   0  0  0  0  0  0  0  0  0  0  0  0
    8.1086  -19.8700   22.8066 C   0  0  1  0  0  0  0  0  0  0  0  0
    7.0408  -20.8961   23.1284 C   0  0  0  0  0  0  0  0  0  0  0  0
    5.8280  -20.7507   22.2454 C   0  0  0  0  0  0  0  0  0  0  0  0
    4.8199  -21.8504   22.4143 C   0  0  0  0  0  0  0  0  0  0  0  0
    3.6363  -21.6343   21.5100 C   0  0  0  0  0  0  0  0  0  0  0  0
    2.7447  -22.7901   21.6684 N   0  0  0  0  0  0  0  0  0  0  0  0
    9.0112  -19.5696   23.9214 C   0  0  0  0  0  0  0  0  0  0  0  0
   10.0921  -20.2022   24.0019 O   0  0  0  0  0  0  0  0  0  0  0  0
    8.2870  -16.3328   26.3527 O   0  0  0  0  0  0  0  0  0  0  0  0
    9.5978  -16.7188   26.2096 C   0  0  0  0  0  0  0  0  0  0  0  0
    9.6488  -18.2130   25.9641 C   0  0  2  0  0  0  0  0  0  0  0  0
    8.7314  -18.6059   24.9116 N   0  0  0  0  0  0  0  0  0  0  0  0
    9.3261  -18.9650   27.2040 C   0  0  0  0  0  0  0  0  0  0  0  0
   10.0429  -18.8504   28.2214 O   0  0  0  0  0  0  0  0  0  0  0  0
    8.2300  -19.7992   27.2462 O   0  0  0  0  0  0  0  0  0  0  0  0
  2  7  1  0
  2  1  1  6
  3  2  1  0
  4  3  1  0
  5  4  1  0
  6  5  2  0
  7  8  2  0
  9  5  1  0
 10 11  1  0
 10  7  1  0
 11 12  1  1
 13 12  1  0
 13 14  1  0
 14 15  1  0
 15 16  1  0
 17 18  2  0
 17 11  1  0
 19 20  1  0
 21 20  1  1
 21 22  1  0
 21 23  1  0
 22 17  1  0
 23 25  1  0
 24 23  2  0
M  END
$$$$
