EKS.pdb
     RDKit          3D

 25 24  0  0  1  0  0  0  0  0999 V2000
   13.0293  -20.3074   19.3997 N   0  0  0  0  0  0  0  0  0  0  0  0
   12.8472  -18.9032   19.5763 C   0  0  1  0  0  0  0  0  0  0  0  0
   12.6662  -18.1268   18.3083 C   0  0  0  0  0  0  0  0  0  0  0  0
   13.1427  -18.8152   17.0644 C   0  0  0  0  0  0  0  0  0  0  0  0
   12.8783  -18.0421   15.8411 C   0  0  0  0  0  0  0  0  0  0  0  0
   13.8225  -17.7761   15.0345 O   0  0  0  0  0  0  0  0  0  0  0  0
   11.8100  -18.5443   20.5996 C   0  0  0  0  0  0  0  0  0  0  0  0
   11.5475  -17.3259   20.8013 O   0  0  0  0  0  0  0  0  0  0  0  0
   11.6208  -17.5707   15.4973 O   0  0  0  0  0  0  0  0  0  0  0  0
   11.1128  -19.5177   21.3505 N   0  0  0  0  0  0  0  0  0  0  0  0
   10.1005  -19.3149   22.3261 C   0  0  1  0  0  0  0  0  0  0  0  0
    9.3474  -20.5455   22.7902 C   0  0  0  0  0  0  0  0  0  0  0  0
    8.1677  -20.1955   23.6605 C   0  0  0  0  0  0  0  0  0  0  0  0
    7.3747  -21.3868   24.1144 C   0  0  0  0  0  0  0  0  0  0  0  0
    6.2624  -20.9684   25.0380 C   0  0  0  0  0  0  0  0  0  0  0  0
    5.5347  -22.1824   25.4286 N   0  0  0  0  0  0  0  0  0  0  0  0
   10.3996  -18.3540   23.3915 C   0  0  0  0  0  0  0  0  0  0  0  0
   11.4705  -18.4868   24.0322 O   0  0  0  0  0  0  0  0  0  0  0  0
    7.6803  -15.3907   24.5246 O   0  0  0  0  0  0  0  0  0  0  0  0
    9.0075  -15.0357   24.5402 C   0  0  0  0  0  0  0  0  0  0  0  0
    9.8494  -16.2796   24.7383 C   0  0  2  0  0  0  0  0  0  0  0  0
    9.5479  -17.2851   23.7373 N   0  0  0  0  0  0  0  0  0  0  0  0
    9.6364  -16.8536   26.0918 C   0  0  0  0  0  0  0  0  0  0  0  0
    9.1025  -17.9752   26.2296 O   0  0  0  0  0  0  0  0  0  0  0  0
   10.0262  -16.1540   27.2133 O   0  0  0  0  0  0  0  0  0  0  0  0
  2  7  1  0
  2  1  1  6
  3  2  1  0
  4  3  1  0
  5  4  1  0
  6  5  2  0
  7  8  2  0
  9  5  1  0
 10 11  1  0
 10  7  1  0
 11 12  1  1
 13 12  1  0
 13 14  1  0
 14 15  1  0
 15 16  1  0
 17 18  2  0
 17 11  1  0
 19 20  1  0
 21 20  1  6
 21 22  1  0
 21 23  1  0
 22 17  1  0
 23 25  1  0
 24 23  2  0
M  END
$$$$
