EKS.pdb
     RDKit          3D

 25 24  0  0  1  0  0  0  0  0999 V2000
    8.4701  -18.7611   17.8144 N   0  0  0  0  0  0  0  0  0  0  0  0
    8.8962  -19.2826   19.0724 C   0  0  1  0  0  0  0  0  0  0  0  0
   10.3807  -19.3260   19.2664 C   0  0  0  0  0  0  0  0  0  0  0  0
   11.1341  -20.1327   18.2516 C   0  0  0  0  0  0  0  0  0  0  0  0
   12.5565  -20.2984   18.5883 C   0  0  0  0  0  0  0  0  0  0  0  0
   13.3127  -21.0005   17.8480 O   0  0  0  0  0  0  0  0  0  0  0  0
    8.1996  -18.6751   20.2546 C   0  0  0  0  0  0  0  0  0  0  0  0
    8.3285  -17.4377   20.4695 O   0  0  0  0  0  0  0  0  0  0  0  0
   13.1472  -19.7153   19.6986 O   0  0  0  0  0  0  0  0  0  0  0  0
    7.4030  -19.4343   21.1414 N   0  0  0  0  0  0  0  0  0  0  0  0
    6.7609  -19.0034   22.3329 C   0  0  1  0  0  0  0  0  0  0  0  0
    5.4219  -19.6378   22.6512 C   0  0  0  0  0  0  0  0  0  0  0  0
    4.3768  -19.3100   21.6158 C   0  0  0  0  0  0  0  0  0  0  0  0
    3.1047  -20.0925   21.7697 C   0  0  0  0  0  0  0  0  0  0  0  0
    2.0757  -19.6425   20.7676 C   0  0  0  0  0  0  0  0  0  0  0  0
    0.8332  -20.3697   21.0561 N   0  0  0  0  0  0  0  0  0  0  0  0
    7.6201  -18.7914   23.5010 C   0  0  0  0  0  0  0  0  0  0  0  0
    8.5396  -19.6160   23.7236 O   0  0  0  0  0  0  0  0  0  0  0  0
    6.7139  -15.8385   26.1976 O   0  0  0  0  0  0  0  0  0  0  0  0
    8.0567  -16.1279   26.1674 C   0  0  0  0  0  0  0  0  0  0  0  0
    8.2495  -17.5195   25.6000 C   0  0  2  0  0  0  0  0  0  0  0  0
    7.4705  -17.7085   24.3912 N   0  0  0  0  0  0  0  0  0  0  0  0
    7.8712  -18.5548   26.5959 C   0  0  0  0  0  0  0  0  0  0  0  0
    6.9372  -19.3513   26.3610 O   0  0  0  0  0  0  0  0  0  0  0  0
    8.5478  -18.6488   27.7928 O   0  0  0  0  0  0  0  0  0  0  0  0
  2  7  1  0
  2  1  1  6
  3  2  1  0
  4  3  1  0
  5  4  1  0
  6  5  2  0
  7  8  2  0
  9  5  1  0
 10 11  1  0
 10  7  1  0
 11 12  1  1
 13 12  1  0
 13 14  1  0
 14 15  1  0
 15 16  1  0
 17 18  2  0
 17 11  1  0
 19 20  1  0
 21 20  1  1
 21 22  1  0
 21 23  1  0
 22 17  1  0
 23 25  1  0
 24 23  2  0
M  END
$$$$
