EKS.pdb
     RDKit          3D

 25 24  0  0  1  0  0  0  0  0999 V2000
    5.7715  -15.7802   20.9010 N   0  0  0  0  0  0  0  0  0  0  0  0
    6.9465  -15.1299   21.3833 C   0  0  1  0  0  0  0  0  0  0  0  0
    7.0178  -13.6619   21.0947 C   0  0  0  0  0  0  0  0  0  0  0  0
    8.2976  -13.1955   20.4682 C   0  0  0  0  0  0  0  0  0  0  0  0
    8.7281  -14.0384   19.3420 C   0  0  0  0  0  0  0  0  0  0  0  0
    9.4417  -15.0684   19.5485 O   0  0  0  0  0  0  0  0  0  0  0  0
    7.2668  -15.4295   22.8184 C   0  0  0  0  0  0  0  0  0  0  0  0
    6.8907  -14.6185   23.7100 O   0  0  0  0  0  0  0  0  0  0  0  0
    8.3913  -13.7743   18.0235 O   0  0  0  0  0  0  0  0  0  0  0  0
    7.9757  -16.5862   23.2145 N   0  0  0  0  0  0  0  0  0  0  0  0
    8.4455  -16.9272   24.5109 C   0  0  1  0  0  0  0  0  0  0  0  0
    8.9364  -18.3479   24.7042 C   0  0  0  0  0  0  0  0  0  0  0  0
    8.0810  -19.1176   25.6776 C   0  0  0  0  0  0  0  0  0  0  0  0
    7.5768  -20.4252   25.1391 C   0  0  0  0  0  0  0  0  0  0  0  0
    6.7214  -21.1289   26.1583 C   0  0  0  0  0  0  0  0  0  0  0  0
    6.2537  -22.3812   25.5508 N   0  0  0  0  0  0  0  0  0  0  0  0
    9.2437  -15.9139   25.2066 C   0  0  0  0  0  0  0  0  0  0  0  0
    9.6838  -14.9426   24.5450 O   0  0  0  0  0  0  0  0  0  0  0  0
    8.4170  -13.5953   27.8786 O   0  0  0  0  0  0  0  0  0  0  0  0
    9.5918  -13.5925   27.1661 C   0  0  0  0  0  0  0  0  0  0  0  0
   10.2623  -14.9431   27.3136 C   0  0  2  0  0  0  0  0  0  0  0  0
    9.5452  -15.9703   26.5826 N   0  0  0  0  0  0  0  0  0  0  0  0
   10.3587  -15.3335   28.7437 C   0  0  0  0  0  0  0  0  0  0  0  0
   10.9541  -14.6018   29.5634 O   0  0  0  0  0  0  0  0  0  0  0  0
    9.7912  -16.5099   29.1834 O   0  0  0  0  0  0  0  0  0  0  0  0
  2  7  1  0
  2  1  1  1
  3  2  1  0
  4  3  1  0
  5  4  1  0
  6  5  2  0
  7  8  2  0
  9  5  1  0
 10 11  1  0
 10  7  1  0
 11 12  1  6
 13 12  1  0
 13 14  1  0
 14 15  1  0
 15 16  1  0
 17 18  2  0
 17 11  1  0
 19 20  1  0
 21 20  1  1
 21 22  1  0
 21 23  1  0
 22 17  1  0
 23 25  1  0
 24 23  2  0
M  END
$$$$
