EKS.pdb
     RDKit          3D

 25 24  0  0  1  0  0  0  0  0999 V2000
   10.4493  -15.9153   19.3074 N   0  0  0  0  0  0  0  0  0  0  0  0
    9.4465  -16.4684   20.1586 C   0  0  1  0  0  0  0  0  0  0  0  0
    9.2946  -17.9558   20.0696 C   0  0  0  0  0  0  0  0  0  0  0  0
    7.8804  -18.4516   20.0198 C   0  0  0  0  0  0  0  0  0  0  0  0
    7.7428  -19.7289   19.3033 C   0  0  0  0  0  0  0  0  0  0  0  0
    6.6122  -20.3023   19.2270 O   0  0  0  0  0  0  0  0  0  0  0  0
    9.5277  -16.0031   21.5829 C   0  0  0  0  0  0  0  0  0  0  0  0
   10.5867  -16.2180   22.2359 O   0  0  0  0  0  0  0  0  0  0  0  0
    8.8034  -20.3690   18.6812 O   0  0  0  0  0  0  0  0  0  0  0  0
    8.4630  -15.3325   22.2264 N   0  0  0  0  0  0  0  0  0  0  0  0
    8.3849  -14.9030   23.5780 C   0  0  1  0  0  0  0  0  0  0  0  0
    7.3556  -13.8365   23.8941 C   0  0  0  0  0  0  0  0  0  0  0  0
    7.3426  -13.4746   25.3572 C   0  0  0  0  0  0  0  0  0  0  0  0
    6.3572  -12.3970   25.7063 C   0  0  0  0  0  0  0  0  0  0  0  0
    6.4027  -12.0875   27.1786 C   0  0  0  0  0  0  0  0  0  0  0  0
    5.3912  -11.0565   27.4429 N   0  0  0  0  0  0  0  0  0  0  0  0
    8.5113  -15.9414   24.6044 C   0  0  0  0  0  0  0  0  0  0  0  0
    7.5314  -16.6972   24.8132 O   0  0  0  0  0  0  0  0  0  0  0  0
   11.9228  -17.8102   25.3483 O   0  0  0  0  0  0  0  0  0  0  0  0
   10.7116  -18.3279   25.7392 C   0  0  0  0  0  0  0  0  0  0  0  0
    9.8652  -17.2163   26.3252 C   0  0  2  0  0  0  0  0  0  0  0  0
    9.6768  -16.1390   25.3726 N   0  0  0  0  0  0  0  0  0  0  0  0
   10.4836  -16.6758   27.5631 C   0  0  0  0  0  0  0  0  0  0  0  0
   10.8058  -15.4706   27.6385 O   0  0  0  0  0  0  0  0  0  0  0  0
   10.7094  -17.4993   28.6447 O   0  0  0  0  0  0  0  0  0  0  0  0
  2  7  1  0
  2  1  1  6
  3  2  1  0
  4  3  1  0
  5  4  1  0
  6  5  2  0
  7  8  2  0
  9  5  1  0
 10 11  1  0
 10  7  1  0
 11 12  1  6
 13 12  1  0
 13 14  1  0
 14 15  1  0
 15 16  1  0
 17 18  2  0
 17 11  1  0
 19 20  1  0
 21 20  1  6
 21 22  1  0
 21 23  1  0
 22 17  1  0
 23 25  1  0
 24 23  2  0
M  END
$$$$
