EKS.pdb
     RDKit          3D

 25 24  0  0  1  0  0  0  0  0999 V2000
   10.3803  -16.2220   19.7440 N   0  0  0  0  0  0  0  0  0  0  0  0
   10.2370  -17.0372   20.9063 C   0  0  1  0  0  0  0  0  0  0  0  0
   11.1557  -18.2188   20.9646 C   0  0  0  0  0  0  0  0  0  0  0  0
   12.5474  -17.9230   21.4376 C   0  0  0  0  0  0  0  0  0  0  0  0
   13.4137  -19.1118   21.4578 C   0  0  0  0  0  0  0  0  0  0  0  0
   14.3452  -19.2404   20.6042 O   0  0  0  0  0  0  0  0  0  0  0  0
   10.2373  -16.2699   22.1960 C   0  0  0  0  0  0  0  0  0  0  0  0
   11.3184  -15.7604   22.6029 O   0  0  0  0  0  0  0  0  0  0  0  0
   13.2768  -20.1357   22.3821 O   0  0  0  0  0  0  0  0  0  0  0  0
    9.0729  -16.0944   22.9774 N   0  0  0  0  0  0  0  0  0  0  0  0
    8.9156  -15.3190   24.1571 C   0  0  1  0  0  0  0  0  0  0  0  0
    7.5335  -14.7564   24.4217 C   0  0  0  0  0  0  0  0  0  0  0  0
    7.5282  -13.7764   25.5668 C   0  0  0  0  0  0  0  0  0  0  0  0
    6.1827  -13.1674   25.8371 C   0  0  0  0  0  0  0  0  0  0  0  0
    6.2895  -12.0665   26.8579 C   0  0  0  0  0  0  0  0  0  0  0  0
    4.9333  -11.5590   27.1012 N   0  0  0  0  0  0  0  0  0  0  0  0
    9.6102  -15.7992   25.3549 C   0  0  0  0  0  0  0  0  0  0  0  0
    9.7050  -17.0377   25.5340 O   0  0  0  0  0  0  0  0  0  0  0  0
    9.9445  -13.6200   28.6730 O   0  0  0  0  0  0  0  0  0  0  0  0
   11.1418  -14.2613   28.4660 C   0  0  0  0  0  0  0  0  0  0  0  0
   10.9332  -15.3895   27.4765 C   0  0  2  0  0  0  0  0  0  0  0  0
   10.1798  -14.9439   26.3200 N   0  0  0  0  0  0  0  0  0  0  0  0
   10.2266  -16.5299   28.1144 C   0  0  0  0  0  0  0  0  0  0  0  0
    9.1315  -16.9306   27.6648 O   0  0  0  0  0  0  0  0  0  0  0  0
   10.7721  -17.1603   29.2118 O   0  0  0  0  0  0  0  0  0  0  0  0
  2  7  1  0
  2  1  1  6
  3  2  1  0
  4  3  1  0
  5  4  1  0
  6  5  2  0
  7  8  2  0
  9  5  1  0
 10 11  1  0
 10  7  1  0
 11 12  1  1
 13 12  1  0
 13 14  1  0
 14 15  1  0
 15 16  1  0
 17 18  2  0
 17 11  1  0
 19 20  1  0
 21 20  1  1
 21 22  1  0
 21 23  1  0
 22 17  1  0
 23 25  1  0
 24 23  2  0
M  END
$$$$
