EKS.pdb
     RDKit          3D

 25 24  0  0  1  0  0  0  0  0999 V2000
    6.7012  -18.5632   17.6678 N   0  0  0  0  0  0  0  0  0  0  0  0
    6.9907  -19.5799   18.6263 C   0  0  1  0  0  0  0  0  0  0  0  0
    8.3166  -20.2539   18.4491 C   0  0  0  0  0  0  0  0  0  0  0  0
    9.5004  -19.4715   18.9335 C   0  0  0  0  0  0  0  0  0  0  0  0
   10.7757  -20.1798   18.7433 C   0  0  0  0  0  0  0  0  0  0  0  0
   10.7923  -21.3458   18.2401 O   0  0  0  0  0  0  0  0  0  0  0  0
    6.7670  -19.1610   20.0497 C   0  0  0  0  0  0  0  0  0  0  0  0
    7.0468  -17.9774   20.3889 O   0  0  0  0  0  0  0  0  0  0  0  0
   12.0043  -19.6375   19.0867 O   0  0  0  0  0  0  0  0  0  0  0  0
    6.2549  -20.0404   21.0304 N   0  0  0  0  0  0  0  0  0  0  0  0
    5.9022  -19.7470   22.3747 C   0  0  1  0  0  0  0  0  0  0  0  0
    4.6684  -20.4378   22.9201 C   0  0  0  0  0  0  0  0  0  0  0  0
    4.9446  -21.8656   23.3164 C   0  0  0  0  0  0  0  0  0  0  0  0
    3.7297  -22.6084   23.7920 C   0  0  0  0  0  0  0  0  0  0  0  0
    4.1042  -23.9731   24.3047 C   0  0  0  0  0  0  0  0  0  0  0  0
    2.8667  -24.6368   24.7336 N   0  0  0  0  0  0  0  0  0  0  0  0
    7.0053  -19.6384   23.3334 C   0  0  0  0  0  0  0  0  0  0  0  0
    7.9952  -20.3970   23.1932 O   0  0  0  0  0  0  0  0  0  0  0  0
    6.9632  -16.7315   26.2680 O   0  0  0  0  0  0  0  0  0  0  0  0
    8.2054  -17.1454   25.8517 C   0  0  0  0  0  0  0  0  0  0  0  0
    8.1082  -18.5716   25.3496 C   0  0  2  0  0  0  0  0  0  0  0  0
    7.0161  -18.7256   24.4077 N   0  0  0  0  0  0  0  0  0  0  0  0
    7.9217  -19.5192   26.4783 C   0  0  0  0  0  0  0  0  0  0  0  0
    8.7797  -19.6068   27.3828 O   0  0  0  0  0  0  0  0  0  0  0  0
    6.7978  -20.3142   26.5407 O   0  0  0  0  0  0  0  0  0  0  0  0
  2  7  1  0
  2  1  1  6
  3  2  1  0
  4  3  1  0
  5  4  1  0
  6  5  2  0
  7  8  2  0
  9  5  1  0
 10 11  1  0
 10  7  1  0
 11 12  1  1
 13 12  1  0
 13 14  1  0
 14 15  1  0
 15 16  1  0
 17 18  2  0
 17 11  1  0
 19 20  1  0
 21 20  1  1
 21 22  1  0
 21 23  1  0
 22 17  1  0
 23 25  1  0
 24 23  2  0
M  END
$$$$
