EKS.pdb
     RDKit          3D

 25 24  0  0  1  0  0  0  0  0999 V2000
   10.7042  -18.4403   20.7910 N   0  0  0  0  0  0  0  0  0  0  0  0
   10.6904  -18.4754   22.2174 C   0  0  1  0  0  0  0  0  0  0  0  0
   11.8669  -19.1600   22.8423 C   0  0  0  0  0  0  0  0  0  0  0  0
   13.2081  -18.6585   22.3974 C   0  0  0  0  0  0  0  0  0  0  0  0
   14.3279  -19.4103   22.9848 C   0  0  0  0  0  0  0  0  0  0  0  0
   14.8744  -20.3562   22.3371 O   0  0  0  0  0  0  0  0  0  0  0  0
   10.4153  -17.1475   22.8599 C   0  0  0  0  0  0  0  0  0  0  0  0
   11.3867  -16.4628   23.2862 O   0  0  0  0  0  0  0  0  0  0  0  0
   14.8461  -19.1424   24.2422 O   0  0  0  0  0  0  0  0  0  0  0  0
    9.1086  -16.6302   23.0090 N   0  0  0  0  0  0  0  0  0  0  0  0
    8.7199  -15.3526   23.4930 C   0  0  1  0  0  0  0  0  0  0  0  0
    7.8546  -14.5124   22.5753 C   0  0  0  0  0  0  0  0  0  0  0  0
    8.4988  -14.2918   21.2307 C   0  0  0  0  0  0  0  0  0  0  0  0
    7.6625  -13.4807   20.2837 C   0  0  0  0  0  0  0  0  0  0  0  0
    8.3428  -13.3498   18.9474 C   0  0  0  0  0  0  0  0  0  0  0  0
    7.4312  -12.6174   18.0595 N   0  0  0  0  0  0  0  0  0  0  0  0
    8.3515  -15.2722   24.9092 C   0  0  0  0  0  0  0  0  0  0  0  0
    7.4441  -16.0278   25.3341 O   0  0  0  0  0  0  0  0  0  0  0  0
   10.6031  -15.0419   27.8648 O   0  0  0  0  0  0  0  0  0  0  0  0
    9.6963  -14.0455   28.1342 C   0  0  0  0  0  0  0  0  0  0  0  0
    8.5201  -14.1789   27.1886 C   0  0  2  0  0  0  0  0  0  0  0  0
    8.9624  -14.3900   25.8236 N   0  0  0  0  0  0  0  0  0  0  0  0
    7.6556  -12.9722   27.2446 C   0  0  0  0  0  0  0  0  0  0  0  0
    7.1185  -12.6245   28.3182 O   0  0  0  0  0  0  0  0  0  0  0  0
    7.4357  -12.2208   26.1105 O   0  0  0  0  0  0  0  0  0  0  0  0
  2  7  1  0
  2  1  1  6
  3  2  1  0
  4  3  1  0
  5  4  1  0
  6  5  2  0
  7  8  2  0
  9  5  1  0
 10 11  1  0
 10  7  1  0
 11 12  1  6
 13 12  1  0
 13 14  1  0
 14 15  1  0
 15 16  1  0
 17 18  2  0
 17 11  1  0
 19 20  1  0
 21 20  1  1
 21 22  1  0
 21 23  1  0
 22 17  1  0
 23 25  1  0
 24 23  2  0
M  END
$$$$
