EKS.pdb
     RDKit          3D

 25 24  0  0  1  0  0  0  0  0999 V2000
    8.8067  -12.6506   19.1128 N   0  0  0  0  0  0  0  0  0  0  0  0
    9.3232  -13.9356   19.4564 C   0  0  1  0  0  0  0  0  0  0  0  0
   10.8169  -14.0143   19.5336 C   0  0  0  0  0  0  0  0  0  0  0  0
   11.4990  -14.4576   18.2741 C   0  0  0  0  0  0  0  0  0  0  0  0
   12.9573  -14.5822   18.4221 C   0  0  0  0  0  0  0  0  0  0  0  0
   13.7133  -13.5919   18.1762 O   0  0  0  0  0  0  0  0  0  0  0  0
    8.6720  -14.5560   20.6576 C   0  0  0  0  0  0  0  0  0  0  0  0
    8.5232  -13.8588   21.6996 O   0  0  0  0  0  0  0  0  0  0  0  0
   13.5824  -15.7504   18.8298 O   0  0  0  0  0  0  0  0  0  0  0  0
    8.2174  -15.8941   20.6708 N   0  0  0  0  0  0  0  0  0  0  0  0
    7.6207  -16.6082   21.7439 C   0  0  1  0  0  0  0  0  0  0  0  0
    6.8606  -17.8686   21.3825 C   0  0  0  0  0  0  0  0  0  0  0  0
    6.3709  -18.6067   22.6020 C   0  0  0  0  0  0  0  0  0  0  0  0
    5.8043  -19.9642   22.3019 C   0  0  0  0  0  0  0  0  0  0  0  0
    5.3121  -20.6281   23.5598 C   0  0  0  0  0  0  0  0  0  0  0  0
    4.9788  -22.0178   23.2225 N   0  0  0  0  0  0  0  0  0  0  0  0
    8.4026  -16.7094   22.9793 C   0  0  0  0  0  0  0  0  0  0  0  0
    9.5712  -17.1618   22.9110 O   0  0  0  0  0  0  0  0  0  0  0  0
    8.8652  -15.5418   27.6651 O   0  0  0  0  0  0  0  0  0  0  0  0
    8.0899  -15.4722   26.5328 C   0  0  0  0  0  0  0  0  0  0  0  0
    8.6717  -16.3918   25.4786 C   0  0  2  0  0  0  0  0  0  0  0  0
    7.9129  -16.3253   24.2443 N   0  0  0  0  0  0  0  0  0  0  0  0
    8.7047  -17.7966   25.9606 C   0  0  0  0  0  0  0  0  0  0  0  0
    7.9061  -18.6435   25.5055 O   0  0  0  0  0  0  0  0  0  0  0  0
    9.6186  -18.1825   26.9171 O   0  0  0  0  0  0  0  0  0  0  0  0
  2  7  1  0
  2  1  1  1
  3  2  1  0
  4  3  1  0
  5  4  1  0
  6  5  2  0
  7  8  2  0
  9  5  1  0
 10 11  1  0
 10  7  1  0
 11 12  1  6
 13 12  1  0
 13 14  1  0
 14 15  1  0
 15 16  1  0
 17 18  2  0
 17 11  1  0
 19 20  1  0
 21 20  1  1
 21 22  1  0
 21 23  1  0
 22 17  1  0
 23 25  1  0
 24 23  2  0
M  END
$$$$
