EKS.pdb
     RDKit          3D

 25 24  0  0  1  0  0  0  0  0999 V2000
   11.6886  -16.9114   16.0192 N   0  0  0  0  0  0  0  0  0  0  0  0
   10.6245  -16.8976   16.9697 C   0  0  1  0  0  0  0  0  0  0  0  0
    9.8059  -18.1511   17.0176 C   0  0  0  0  0  0  0  0  0  0  0  0
   10.5284  -19.3670   17.5152 C   0  0  0  0  0  0  0  0  0  0  0  0
    9.6569  -20.5461   17.6345 C   0  0  0  0  0  0  0  0  0  0  0  0
    9.6735  -21.4484   16.7409 O   0  0  0  0  0  0  0  0  0  0  0  0
   11.0351  -16.4502   18.3419 C   0  0  0  0  0  0  0  0  0  0  0  0
   12.2166  -16.6717   18.7281 O   0  0  0  0  0  0  0  0  0  0  0  0
    8.7901  -20.7455   18.6978 O   0  0  0  0  0  0  0  0  0  0  0  0
   10.1500  -15.7895   19.2236 N   0  0  0  0  0  0  0  0  0  0  0  0
   10.3867  -15.3827   20.5638 C   0  0  1  0  0  0  0  0  0  0  0  0
    9.2633  -14.6378   21.2566 C   0  0  0  0  0  0  0  0  0  0  0  0
    8.8283  -13.4187   20.4844 C   0  0  0  0  0  0  0  0  0  0  0  0
    7.9182  -13.7252   19.3304 C   0  0  0  0  0  0  0  0  0  0  0  0
    7.4027  -12.4570   18.7046 C   0  0  0  0  0  0  0  0  0  0  0  0
    6.4143  -12.8382   17.6879 N   0  0  0  0  0  0  0  0  0  0  0  0
   11.0980  -16.3342   21.4220 C   0  0  0  0  0  0  0  0  0  0  0  0
   10.6077  -17.4787   21.5793 O   0  0  0  0  0  0  0  0  0  0  0  0
   14.8081  -15.3985   23.0318 O   0  0  0  0  0  0  0  0  0  0  0  0
   14.5563  -16.7220   22.7624 C   0  0  0  0  0  0  0  0  0  0  0  0
   13.0674  -16.9757   22.8814 C   0  0  2  0  0  0  0  0  0  0  0  0
   12.3067  -16.0339   22.0827 N   0  0  0  0  0  0  0  0  0  0  0  0
   12.6264  -16.8887   24.2973 C   0  0  0  0  0  0  0  0  0  0  0  0
   11.7619  -16.0552   24.6435 O   0  0  0  0  0  0  0  0  0  0  0  0
   13.1670  -17.7282   25.2471 O   0  0  0  0  0  0  0  0  0  0  0  0
  2  7  1  0
  2  1  1  6
  3  2  1  0
  4  3  1  0
  5  4  1  0
  6  5  2  0
  7  8  2  0
  9  5  1  0
 10 11  1  0
 10  7  1  0
 11 12  1  1
 13 12  1  0
 13 14  1  0
 14 15  1  0
 15 16  1  0
 17 18  2  0
 17 11  1  0
 19 20  1  0
 21 20  1  1
 21 22  1  0
 21 23  1  0
 22 17  1  0
 23 25  1  0
 24 23  2  0
M  END
$$$$
