EKS.pdb
     RDKit          3D

 25 24  0  0  1  0  0  0  0  0999 V2000
    9.8290  -17.4117   16.7341 N   0  0  0  0  0  0  0  0  0  0  0  0
   10.1012  -18.6242   17.4355 C   0  0  1  0  0  0  0  0  0  0  0  0
   11.4995  -19.1394   17.2845 C   0  0  0  0  0  0  0  0  0  0  0  0
   12.1860  -18.7585   16.0071 C   0  0  0  0  0  0  0  0  0  0  0  0
   13.5424  -19.3163   15.8937 C   0  0  0  0  0  0  0  0  0  0  0  0
   13.7113  -20.5219   15.5320 O   0  0  0  0  0  0  0  0  0  0  0  0
    9.6666  -18.6114   18.8718 C   0  0  0  0  0  0  0  0  0  0  0  0
    9.7138  -17.5254   19.5142 O   0  0  0  0  0  0  0  0  0  0  0  0
   14.6892  -18.5855   16.1625 O   0  0  0  0  0  0  0  0  0  0  0  0
    9.2058  -19.7695   19.5379 N   0  0  0  0  0  0  0  0  0  0  0  0
    8.7495  -19.8888   20.8777 C   0  0  1  0  0  0  0  0  0  0  0  0
    7.8583  -21.0744   21.1893 C   0  0  0  0  0  0  0  0  0  0  0  0
    7.4206  -21.0931   22.6315 C   0  0  0  0  0  0  0  0  0  0  0  0
    6.6385  -22.3170   23.0116 C   0  0  0  0  0  0  0  0  0  0  0  0
    6.0929  -22.1903   24.4087 C   0  0  0  0  0  0  0  0  0  0  0  0
    5.4048  -23.4475   24.7280 N   0  0  0  0  0  0  0  0  0  0  0  0
    9.7171  -19.5690   21.9309 C   0  0  0  0  0  0  0  0  0  0  0  0
   10.8275  -20.1536   21.9192 O   0  0  0  0  0  0  0  0  0  0  0  0
   11.4879  -16.3796   24.9702 O   0  0  0  0  0  0  0  0  0  0  0  0
   10.6099  -16.7213   23.9702 C   0  0  0  0  0  0  0  0  0  0  0  0
   10.4409  -18.2269   23.9543 C   0  0  2  0  0  0  0  0  0  0  0  0
    9.4685  -18.6378   22.9597 N   0  0  0  0  0  0  0  0  0  0  0  0
   10.0213  -18.7272   25.2887 C   0  0  0  0  0  0  0  0  0  0  0  0
   10.7801  -18.6178   26.2757 O   0  0  0  0  0  0  0  0  0  0  0  0
    8.7877  -19.3189   25.4533 O   0  0  0  0  0  0  0  0  0  0  0  0
  2  7  1  0
  2  1  1  1
  3  2  1  0
  4  3  1  0
  5  4  1  0
  6  5  2  0
  7  8  2  0
  9  5  1  0
 10 11  1  0
 10  7  1  0
 11 12  1  1
 13 12  1  0
 13 14  1  0
 14 15  1  0
 15 16  1  0
 17 18  2  0
 17 11  1  0
 19 20  1  0
 21 20  1  1
 21 22  1  0
 21 23  1  0
 22 17  1  0
 23 25  1  0
 24 23  2  0
M  END
$$$$
