EKS.pdb
     RDKit          3D

 25 24  0  0  1  0  0  0  0  0999 V2000
   11.6400  -18.0574   16.3869 N   0  0  0  0  0  0  0  0  0  0  0  0
   11.1669  -18.5747   17.6298 C   0  0  1  0  0  0  0  0  0  0  0  0
   11.5206  -20.0063   17.8920 C   0  0  0  0  0  0  0  0  0  0  0  0
   11.5277  -20.8941   16.6838 C   0  0  0  0  0  0  0  0  0  0  0  0
   11.2056  -22.2950   16.9965 C   0  0  0  0  0  0  0  0  0  0  0  0
   11.8354  -22.9081   17.9130 O   0  0  0  0  0  0  0  0  0  0  0  0
   11.4721  -17.7022   18.8119 C   0  0  0  0  0  0  0  0  0  0  0  0
   12.6751  -17.5493   19.1635 O   0  0  0  0  0  0  0  0  0  0  0  0
   10.2225  -23.0142   16.3347 O   0  0  0  0  0  0  0  0  0  0  0  0
   10.4644  -17.0427   19.5514 N   0  0  0  0  0  0  0  0  0  0  0  0
   10.6137  -16.2214   20.7006 C   0  0  1  0  0  0  0  0  0  0  0  0
    9.4985  -15.2341   20.9803 C   0  0  0  0  0  0  0  0  0  0  0  0
    9.1653  -14.3957   19.7729 C   0  0  0  0  0  0  0  0  0  0  0  0
    7.9743  -13.5021   19.9655 C   0  0  0  0  0  0  0  0  0  0  0  0
    7.7297  -12.6654   18.7385 C   0  0  0  0  0  0  0  0  0  0  0  0
    6.4878  -11.9137   18.9588 N   0  0  0  0  0  0  0  0  0  0  0  0
   11.1651  -16.8626   21.8976 C   0  0  0  0  0  0  0  0  0  0  0  0
   10.4456  -17.6785   22.5232 O   0  0  0  0  0  0  0  0  0  0  0  0
   14.6809  -18.2156   22.0276 O   0  0  0  0  0  0  0  0  0  0  0  0
   13.8035  -18.5595   23.0274 C   0  0  0  0  0  0  0  0  0  0  0  0
   13.0774  -17.3154   23.4969 C   0  0  2  0  0  0  0  0  0  0  0  0
   12.4636  -16.6126   22.3865 N   0  0  0  0  0  0  0  0  0  0  0  0
   14.0041  -16.3976   24.2081 C   0  0  0  0  0  0  0  0  0  0  0  0
   14.2297  -15.2519   23.7628 O   0  0  0  0  0  0  0  0  0  0  0  0
   14.6267  -16.8004   25.3697 O   0  0  0  0  0  0  0  0  0  0  0  0
  2  7  1  0
  2  1  1  6
  3  2  1  0
  4  3  1  0
  5  4  1  0
  6  5  2  0
  7  8  2  0
  9  5  1  0
 10 11  1  0
 10  7  1  0
 11 12  1  1
 13 12  1  0
 13 14  1  0
 14 15  1  0
 15 16  1  0
 17 18  2  0
 17 11  1  0
 19 20  1  0
 21 20  1  6
 21 22  1  0
 21 23  1  0
 22 17  1  0
 23 25  1  0
 24 23  2  0
M  END
$$$$
