LKT.pdb
     RDKit          3D

 25 24  0  0  1  0  0  0  0  0999 V2000
    9.3541  -14.4088   19.5539 C   0  0  0  0  0  0  0  0  0  0  0  0
    7.9246  -13.9271   19.5301 C   0  0  2  0  0  0  0  0  0  0  0  0
    7.9528  -12.4233   19.4062 C   0  0  0  0  0  0  0  0  0  0  0  0
    7.2325  -14.2890   20.8281 C   0  0  0  0  0  0  0  0  0  0  0  0
    7.1858  -15.7852   21.0322 C   0  0  2  0  0  0  0  0  0  0  0  0
    6.0731  -16.2919   20.2628 N   0  0  0  0  0  0  0  0  0  0  0  0
    6.9613  -15.9912   22.5115 C   0  0  0  0  0  0  0  0  0  0  0  0
    5.9860  -15.3768   22.9927 O   0  0  0  0  0  0  0  0  0  0  0  0
    7.8006  -16.8180   23.2709 N   0  0  0  0  0  0  0  0  0  0  0  0
    7.5423  -17.0459   24.6945 C   0  0  1  0  0  0  0  0  0  0  0  0
    7.7281  -18.5044   24.9341 C   0  0  0  0  0  0  0  0  0  0  0  0
    7.5923  -18.9868   26.3369 C   0  0  0  0  0  0  0  0  0  0  0  0
    7.9302  -20.4477   26.5164 C   0  0  0  0  0  0  0  0  0  0  0  0
    7.7397  -20.7822   27.9901 C   0  0  0  0  0  0  0  0  0  0  0  0
    8.9944  -20.5976   28.6962 N   0  0  0  0  0  0  0  0  0  0  0  0
    8.4202  -16.1459   25.4766 C   0  0  0  0  0  0  0  0  0  0  0  0
    9.6141  -15.9442   25.0363 O   0  0  0  0  0  0  0  0  0  0  0  0
    8.0468  -12.3856   26.5809 C   0  0  0  0  0  0  0  0  0  0  0  0
    8.4091  -13.2848   27.7153 C   0  0  1  0  0  0  0  0  0  0  0  0
    7.2485  -13.6051   28.4183 O   0  0  0  0  0  0  0  0  0  0  0  0
    9.0471  -14.5820   27.2813 C   0  0  2  0  0  0  0  0  0  0  0  0
    8.0860  -15.4767   26.6610 N   0  0  0  0  0  0  0  0  0  0  0  0
    9.6196  -15.2562   28.4610 C   0  0  0  0  0  0  0  0  0  0  0  0
   10.5830  -14.6129   29.2132 O   0  0  0  0  0  0  0  0  0  0  0  0
    9.2038  -16.4196   28.7508 O   0  0  0  0  0  0  0  0  0  0  0  0
  2  1  1  1
  2  3  1  0
  4  5  1  0
  4  2  1  0
  5  7  1  0
  5  6  1  6
  7  8  2  0
  9 10  1  0
  9  7  1  0
 11 12  1  0
 10 11  1  1
 13 14  1  0
 13 12  1  0
 15 14  1  0
 16 10  1  0
 17 16  2  0
 19 18  1  6
 19 21  1  0
 20 19  1  0
 21 23  1  0
 21 22  1  1
 22 16  1  0
 23 24  1  0
 25 23  2  0
M  END
$$$$
