LKT.pdb
     RDKit          3D

 25 24  0  0  1  0  0  0  0  0999 V2000
    5.9934  -12.1754   26.3904 C   0  0  0  0  0  0  0  0  0  0  0  0
    6.6777  -13.0841   27.3814 C   0  0  2  0  0  0  0  0  0  0  0  0
    7.8026  -12.3023   28.0147 C   0  0  0  0  0  0  0  0  0  0  0  0
    7.2684  -14.2819   26.6664 C   0  0  0  0  0  0  0  0  0  0  0  0
    6.2687  -14.9145   25.7270 C   0  0  2  0  0  0  0  0  0  0  0  0
    5.6261  -15.9929   26.4420 N   0  0  0  0  0  0  0  0  0  0  0  0
    7.0744  -15.4396   24.5624 C   0  0  0  0  0  0  0  0  0  0  0  0
    7.5044  -16.6049   24.6948 O   0  0  0  0  0  0  0  0  0  0  0  0
    7.3103  -14.6571   23.4237 N   0  0  0  0  0  0  0  0  0  0  0  0
    7.9855  -15.2202   22.2523 C   0  0  1  0  0  0  0  0  0  0  0  0
    7.7820  -14.2540   21.1367 C   0  0  0  0  0  0  0  0  0  0  0  0
    8.3823  -14.6001   19.8181 C   0  0  0  0  0  0  0  0  0  0  0  0
    8.0094  -13.6470   18.7076 C   0  0  0  0  0  0  0  0  0  0  0  0
    8.6430  -14.1706   17.4252 C   0  0  0  0  0  0  0  0  0  0  0  0
    8.3036  -13.2911   16.3216 N   0  0  0  0  0  0  0  0  0  0  0  0
    9.3933  -15.4993   22.6161 C   0  0  0  0  0  0  0  0  0  0  0  0
   10.0066  -14.6303   23.3432 O   0  0  0  0  0  0  0  0  0  0  0  0
   13.2991  -18.4404   23.3047 C   0  0  0  0  0  0  0  0  0  0  0  0
   11.8683  -18.2287   22.9378 C   0  0  1  0  0  0  0  0  0  0  0  0
   11.0668  -18.7234   23.9658 O   0  0  0  0  0  0  0  0  0  0  0  0
   11.5017  -16.7784   22.7369 C   0  0  2  0  0  0  0  0  0  0  0  0
   10.1413  -16.6264   22.2519 N   0  0  0  0  0  0  0  0  0  0  0  0
   12.4196  -16.1814   21.7495 C   0  0  0  0  0  0  0  0  0  0  0  0
   13.5293  -15.4838   22.1848 O   0  0  0  0  0  0  0  0  0  0  0  0
   12.1572  -16.3294   20.5168 O   0  0  0  0  0  0  0  0  0  0  0  0
  2  1  1  6
  2  3  1  0
  4  5  1  0
  4  2  1  0
  5  7  1  0
  5  6  1  1
  7  8  2  0
  9 10  1  0
  9  7  1  0
 11 12  1  0
 10 11  1  6
 13 14  1  0
 13 12  1  0
 15 14  1  0
 16 10  1  0
 17 16  2  0
 19 18  1  1
 19 21  1  0
 20 19  1  0
 21 23  1  0
 21 22  1  6
 22 16  1  0
 23 24  1  0
 25 23  2  0
M  END
$$$$
