LKT.pdb
     RDKit          3D

 25 24  0  0  1  0  0  0  0  0999 V2000
    9.5789  -14.2631   19.3453 C   0  0  0  0  0  0  0  0  0  0  0  0
    8.1289  -14.0622   18.9801 C   0  0  2  0  0  0  0  0  0  0  0  0
    7.9279  -12.5919   18.7061 C   0  0  0  0  0  0  0  0  0  0  0  0
    7.2407  -14.4601   20.1410 C   0  0  0  0  0  0  0  0  0  0  0  0
    7.4926  -15.8874   20.5671 C   0  0  2  0  0  0  0  0  0  0  0  0
    6.6443  -16.7352   19.7617 N   0  0  0  0  0  0  0  0  0  0  0  0
    7.1020  -15.9562   22.0244 C   0  0  0  0  0  0  0  0  0  0  0  0
    5.9209  -15.6356   22.2748 O   0  0  0  0  0  0  0  0  0  0  0  0
    8.0165  -16.3543   23.0092 N   0  0  0  0  0  0  0  0  0  0  0  0
    7.5866  -16.5602   24.3941 C   0  0  1  0  0  0  0  0  0  0  0  0
    8.0684  -17.9119   24.7943 C   0  0  0  0  0  0  0  0  0  0  0  0
    7.7854  -18.3502   26.1896 C   0  0  0  0  0  0  0  0  0  0  0  0
    8.2806  -19.7414   26.5056 C   0  0  0  0  0  0  0  0  0  0  0  0
    7.8132  -20.0828   27.9145 C   0  0  0  0  0  0  0  0  0  0  0  0
    8.3246  -21.3875   28.2931 N   0  0  0  0  0  0  0  0  0  0  0  0
    8.0854  -15.4293   25.2093 C   0  0  0  0  0  0  0  0  0  0  0  0
    9.2898  -15.0241   24.9962 O   0  0  0  0  0  0  0  0  0  0  0  0
    6.6027  -11.7069   26.2491 C   0  0  0  0  0  0  0  0  0  0  0  0
    7.0355  -12.6037   27.3604 C   0  0  1  0  0  0  0  0  0  0  0  0
    5.9133  -13.2563   27.8689 O   0  0  0  0  0  0  0  0  0  0  0  0
    8.0212  -13.6647   26.9349 C   0  0  2  0  0  0  0  0  0  0  0  0
    7.3764  -14.7391   26.2009 N   0  0  0  0  0  0  0  0  0  0  0  0
    8.6618  -14.2362   28.1336 C   0  0  0  0  0  0  0  0  0  0  0  0
    9.3624  -13.4109   28.9913 O   0  0  0  0  0  0  0  0  0  0  0  0
    8.5474  -15.4829   28.3412 O   0  0  0  0  0  0  0  0  0  0  0  0
  2  1  1  1
  2  3  1  0
  4  5  1  0
  4  2  1  0
  5  7  1  0
  5  6  1  6
  7  8  2  0
  9 10  1  0
  9  7  1  0
 11 12  1  0
 10 11  1  1
 13 14  1  0
 13 12  1  0
 15 14  1  0
 16 10  1  0
 17 16  2  0
 19 18  1  6
 19 21  1  0
 20 19  1  0
 21 23  1  0
 21 22  1  1
 22 16  1  0
 23 24  1  0
 25 23  2  0
M  END
$$$$
