LKT.pdb
     RDKit          3D

 25 24  0  0  1  0  0  0  0  0999 V2000
    9.3571  -13.1979   19.1182 C   0  0  0  0  0  0  0  0  0  0  0  0
    7.9348  -13.6210   19.3909 C   0  0  2  0  0  0  0  0  0  0  0  0
    7.0440  -12.4384   19.0985 C   0  0  0  0  0  0  0  0  0  0  0  0
    7.7743  -13.9938   20.8504 C   0  0  0  0  0  0  0  0  0  0  0  0
    8.6394  -15.1765   21.2181 C   0  0  2  0  0  0  0  0  0  0  0  0
    8.2952  -16.2582   20.3247 N   0  0  0  0  0  0  0  0  0  0  0  0
    8.2836  -15.5176   22.6458 C   0  0  0  0  0  0  0  0  0  0  0  0
    7.7518  -14.5940   23.2973 O   0  0  0  0  0  0  0  0  0  0  0  0
    8.5410  -16.7874   23.1807 N   0  0  0  0  0  0  0  0  0  0  0  0
    8.1438  -17.1198   24.5507 C   0  0  1  0  0  0  0  0  0  0  0  0
    7.9016  -18.5893   24.5805 C   0  0  0  0  0  0  0  0  0  0  0  0
    7.5594  -19.1966   25.8969 C   0  0  0  0  0  0  0  0  0  0  0  0
    7.2911  -20.6814   25.8340 C   0  0  0  0  0  0  0  0  0  0  0  0
    6.9267  -21.1391   27.2404 C   0  0  0  0  0  0  0  0  0  0  0  0
    6.6891  -22.5710   27.2389 N   0  0  0  0  0  0  0  0  0  0  0  0
    9.1886  -16.6187   25.4726 C   0  0  0  0  0  0  0  0  0  0  0  0
   10.4191  -16.7905   25.1318 O   0  0  0  0  0  0  0  0  0  0  0  0
    9.7423  -13.0241   27.1770 C   0  0  0  0  0  0  0  0  0  0  0  0
    9.8333  -14.1681   28.1307 C   0  0  1  0  0  0  0  0  0  0  0  0
    8.6156  -14.2891   28.7989 O   0  0  0  0  0  0  0  0  0  0  0  0
   10.1165  -15.4925   27.4641 C   0  0  2  0  0  0  0  0  0  0  0  0
    8.9796  -15.9643   26.6935 N   0  0  0  0  0  0  0  0  0  0  0  0
   10.4290  -16.4957   28.4985 C   0  0  0  0  0  0  0  0  0  0  0  0
   11.4989  -16.2894   29.3471 O   0  0  0  0  0  0  0  0  0  0  0  0
    9.6960  -17.5287   28.5765 O   0  0  0  0  0  0  0  0  0  0  0  0
  2  1  1  1
  2  3  1  0
  4  5  1  0
  4  2  1  0
  5  7  1  0
  5  6  1  6
  7  8  2  0
  9 10  1  0
  9  7  1  0
 11 12  1  0
 10 11  1  6
 13 14  1  0
 13 12  1  0
 15 14  1  0
 16 10  1  0
 17 16  2  0
 19 18  1  6
 19 21  1  0
 20 19  1  0
 21 23  1  0
 21 22  1  1
 22 16  1  0
 23 24  1  0
 25 23  2  0
M  END
$$$$
