LKT.pdb
     RDKit          3D

 25 24  0  0  1  0  0  0  0  0999 V2000
    5.5490  -12.2983   25.8764 C   0  0  0  0  0  0  0  0  0  0  0  0
    6.2941  -12.9389   27.0212 C   0  0  2  0  0  0  0  0  0  0  0  0
    7.2127  -11.8949   27.6075 C   0  0  0  0  0  0  0  0  0  0  0  0
    7.1378  -14.0899   26.5130 C   0  0  0  0  0  0  0  0  0  0  0  0
    6.3211  -15.0491   25.6791 C   0  0  2  0  0  0  0  0  0  0  0  0
    5.8517  -16.0947   26.5584 N   0  0  0  0  0  0  0  0  0  0  0  0
    7.2686  -15.5990   24.6394 C   0  0  0  0  0  0  0  0  0  0  0  0
    7.8889  -16.6295   24.9762 O   0  0  0  0  0  0  0  0  0  0  0  0
    7.4248  -14.9802   23.3914 N   0  0  0  0  0  0  0  0  0  0  0  0
    8.2486  -15.5934   22.3470 C   0  0  1  0  0  0  0  0  0  0  0  0
    8.0810  -14.7576   21.1253 C   0  0  0  0  0  0  0  0  0  0  0  0
    8.7272  -15.2432   19.8741 C   0  0  0  0  0  0  0  0  0  0  0  0
    8.6418  -16.7387   19.6826 C   0  0  0  0  0  0  0  0  0  0  0  0
    9.2245  -17.0570   18.3118 C   0  0  0  0  0  0  0  0  0  0  0  0
    9.1385  -18.4852   18.0672 N   0  0  0  0  0  0  0  0  0  0  0  0
    9.6323  -15.7183   22.8592 C   0  0  0  0  0  0  0  0  0  0  0  0
   10.2306  -14.6406   23.2342 O   0  0  0  0  0  0  0  0  0  0  0  0
   11.5056  -17.6297   25.8659 C   0  0  0  0  0  0  0  0  0  0  0  0
   12.0010  -17.9446   24.4941 C   0  0  1  0  0  0  0  0  0  0  0  0
   11.3585  -19.0964   24.0418 O   0  0  0  0  0  0  0  0  0  0  0  0
   11.7334  -16.8527   23.4869 C   0  0  2  0  0  0  0  0  0  0  0  0
   10.3714  -16.9016   22.9852 N   0  0  0  0  0  0  0  0  0  0  0  0
   12.6570  -17.0100   22.3484 C   0  0  0  0  0  0  0  0  0  0  0  0
   14.0160  -16.8668   22.5482 O   0  0  0  0  0  0  0  0  0  0  0  0
   12.1675  -17.2750   21.2080 O   0  0  0  0  0  0  0  0  0  0  0  0
  2  1  1  6
  2  3  1  0
  4  5  1  0
  4  2  1  0
  5  7  1  0
  5  6  1  1
  7  8  2  0
  9 10  1  0
  9  7  1  0
 11 12  1  0
 10 11  1  6
 13 14  1  0
 13 12  1  0
 15 14  1  0
 16 10  1  0
 17 16  2  0
 19 18  1  1
 19 21  1  0
 20 19  1  0
 21 23  1  0
 21 22  1  6
 22 16  1  0
 23 24  1  0
 25 23  2  0
M  END
$$$$
