LKT.pdb
     RDKit          3D

 25 24  0  0  1  0  0  0  0  0999 V2000
    9.3797  -13.4269   19.0087 C   0  0  0  0  0  0  0  0  0  0  0  0
    8.0022  -13.4962   19.6201 C   0  0  2  0  0  0  0  0  0  0  0  0
    7.5510  -12.0811   19.8874 C   0  0  0  0  0  0  0  0  0  0  0  0
    8.0556  -14.2402   20.9386 C   0  0  0  0  0  0  0  0  0  0  0  0
    8.5738  -15.6480   20.7594 C   0  0  2  0  0  0  0  0  0  0  0  0
    7.5285  -16.4156   20.1229 N   0  0  0  0  0  0  0  0  0  0  0  0
    8.8544  -16.1628   22.1513 C   0  0  0  0  0  0  0  0  0  0  0  0
    7.8447  -16.3603   22.8596 O   0  0  0  0  0  0  0  0  0  0  0  0
   10.1634  -16.3953   22.5954 N   0  0  0  0  0  0  0  0  0  0  0  0
   10.4149  -17.0723   23.8696 C   0  0  1  0  0  0  0  0  0  0  0  0
   11.6028  -17.9468   23.6613 C   0  0  0  0  0  0  0  0  0  0  0  0
   12.0604  -18.7616   24.8213 C   0  0  0  0  0  0  0  0  0  0  0  0
   11.3869  -20.1093   24.9254 C   0  0  0  0  0  0  0  0  0  0  0  0
   11.9812  -20.8242   26.1320 C   0  0  0  0  0  0  0  0  0  0  0  0
   11.3834  -22.1407   26.2595 N   0  0  0  0  0  0  0  0  0  0  0  0
   10.5482  -16.0427   24.9253 C   0  0  0  0  0  0  0  0  0  0  0  0
   11.4024  -15.0973   24.7339 O   0  0  0  0  0  0  0  0  0  0  0  0
    8.6990  -13.0703   26.3866 C   0  0  0  0  0  0  0  0  0  0  0  0
    8.9866  -14.0888   27.4385 C   0  0  1  0  0  0  0  0  0  0  0  0
    7.8706  -14.9127   27.5780 O   0  0  0  0  0  0  0  0  0  0  0  0
   10.1657  -14.9752   27.1184 C   0  0  2  0  0  0  0  0  0  0  0  0
    9.8316  -15.9829   26.1275 N   0  0  0  0  0  0  0  0  0  0  0  0
   10.6042  -15.6576   28.3497 C   0  0  0  0  0  0  0  0  0  0  0  0
   10.6074  -17.0378   28.4000 O   0  0  0  0  0  0  0  0  0  0  0  0
   10.9689  -14.9462   29.3352 O   0  0  0  0  0  0  0  0  0  0  0  0
  2  1  1  1
  2  3  1  0
  4  5  1  0
  4  2  1  0
  5  7  1  0
  5  6  1  1
  7  8  2  0
  9 10  1  0
  9  7  1  0
 11 12  1  0
 10 11  1  6
 13 14  1  0
 13 12  1  0
 15 14  1  0
 16 10  1  0
 17 16  2  0
 19 18  1  6
 19 21  1  0
 20 19  1  0
 21 23  1  0
 21 22  1  6
 22 16  1  0
 23 24  1  0
 25 23  2  0
M  END
$$$$
