LKT.pdb
     RDKit          3D

 25 24  0  0  1  0  0  0  0  0999 V2000
    5.4873  -12.5625   26.2017 C   0  0  0  0  0  0  0  0  0  0  0  0
    6.3904  -13.3081   27.1529 C   0  0  2  0  0  0  0  0  0  0  0  0
    7.2672  -12.2903   27.8404 C   0  0  0  0  0  0  0  0  0  0  0  0
    7.2778  -14.2655   26.3843 C   0  0  0  0  0  0  0  0  0  0  0  0
    6.4658  -15.1945   25.5126 C   0  0  2  0  0  0  0  0  0  0  0  0
    6.2012  -16.3881   26.2820 N   0  0  0  0  0  0  0  0  0  0  0  0
    7.3361  -15.5014   24.3169 C   0  0  0  0  0  0  0  0  0  0  0  0
    8.0174  -16.5443   24.4080 O   0  0  0  0  0  0  0  0  0  0  0  0
    7.3615  -14.6611   23.1953 N   0  0  0  0  0  0  0  0  0  0  0  0
    8.0799  -15.0520   21.9802 C   0  0  1  0  0  0  0  0  0  0  0  0
    7.9397  -13.9223   21.0193 C   0  0  0  0  0  0  0  0  0  0  0  0
    8.6664  -14.0361   19.7239 C   0  0  0  0  0  0  0  0  0  0  0  0
    7.8412  -13.6388   18.5231 C   0  0  0  0  0  0  0  0  0  0  0  0
    8.6800  -13.9143   17.2819 C   0  0  0  0  0  0  0  0  0  0  0  0
    7.9944  -13.4030   16.1091 N   0  0  0  0  0  0  0  0  0  0  0  0
    9.4662  -15.4128   22.3550 C   0  0  0  0  0  0  0  0  0  0  0  0
   10.1067  -14.6040   23.1266 O   0  0  0  0  0  0  0  0  0  0  0  0
   11.3729  -18.4830   24.2186 C   0  0  0  0  0  0  0  0  0  0  0  0
   11.7893  -18.1863   22.8167 C   0  0  1  0  0  0  0  0  0  0  0  0
   11.0668  -19.0092   21.9537 O   0  0  0  0  0  0  0  0  0  0  0  0
   11.5356  -16.7586   22.3977 C   0  0  2  0  0  0  0  0  0  0  0  0
   10.1663  -16.5591   21.9573 N   0  0  0  0  0  0  0  0  0  0  0  0
   12.4395  -16.4149   21.2847 C   0  0  0  0  0  0  0  0  0  0  0  0
   13.8004  -16.3427   21.5090 O   0  0  0  0  0  0  0  0  0  0  0  0
   11.9319  -16.1939   20.1428 O   0  0  0  0  0  0  0  0  0  0  0  0
  2  1  1  6
  2  3  1  0
  4  5  1  0
  4  2  1  0
  5  7  1  0
  5  6  1  1
  7  8  2  0
  9 10  1  0
  9  7  1  0
 11 12  1  0
 10 11  1  6
 13 14  1  0
 13 12  1  0
 15 14  1  0
 16 10  1  0
 17 16  2  0
 19 18  1  1
 19 21  1  0
 20 19  1  0
 21 23  1  0
 21 22  1  6
 22 16  1  0
 23 24  1  0
 25 23  2  0
M  END
$$$$
