LKT.pdb
     RDKit          3D

 25 24  0  0  1  0  0  0  0  0999 V2000
    9.4190  -14.2368   19.1220 C   0  0  0  0  0  0  0  0  0  0  0  0
    7.9673  -13.8408   19.2315 C   0  0  2  0  0  0  0  0  0  0  0  0
    7.9003  -12.3344   19.1683 C   0  0  0  0  0  0  0  0  0  0  0  0
    7.4049  -14.2909   20.5642 C   0  0  0  0  0  0  0  0  0  0  0  0
    7.5505  -15.7829   20.7511 C   0  0  2  0  0  0  0  0  0  0  0  0
    6.3813  -16.4067   20.1760 N   0  0  0  0  0  0  0  0  0  0  0  0
    7.6062  -16.0065   22.2438 C   0  0  0  0  0  0  0  0  0  0  0  0
    6.5142  -15.8949   22.8400 O   0  0  0  0  0  0  0  0  0  0  0  0
    8.8092  -16.3164   22.8930 N   0  0  0  0  0  0  0  0  0  0  0  0
    8.8282  -16.6531   24.3183 C   0  0  1  0  0  0  0  0  0  0  0  0
    9.8583  -17.7150   24.4924 C   0  0  0  0  0  0  0  0  0  0  0  0
   10.0876  -18.2213   25.8745 C   0  0  0  0  0  0  0  0  0  0  0  0
   11.0903  -19.3477   25.9544 C   0  0  0  0  0  0  0  0  0  0  0  0
   11.1801  -19.7758   27.4134 C   0  0  0  0  0  0  0  0  0  0  0  0
   12.0330  -20.9450   27.5250 N   0  0  0  0  0  0  0  0  0  0  0  0
    9.0485  -15.4074   25.0878 C   0  0  0  0  0  0  0  0  0  0  0  0
   10.0078  -14.6340   24.7117 O   0  0  0  0  0  0  0  0  0  0  0  0
    7.1727  -11.9894   25.8885 C   0  0  0  0  0  0  0  0  0  0  0  0
    7.4974  -12.8303   27.0776 C   0  0  1  0  0  0  0  0  0  0  0  0
    6.3978  -13.6376   27.3659 O   0  0  0  0  0  0  0  0  0  0  0  0
    8.6842  -13.7399   26.8717 C   0  0  2  0  0  0  0  0  0  0  0  0
    8.3120  -14.9705   26.1965 N   0  0  0  0  0  0  0  0  0  0  0  0
    9.2621  -14.0830   28.1841 C   0  0  0  0  0  0  0  0  0  0  0  0
    9.3851  -15.4094   28.5491 O   0  0  0  0  0  0  0  0  0  0  0  0
    9.6322  -13.1373   28.9450 O   0  0  0  0  0  0  0  0  0  0  0  0
  2  1  1  1
  2  3  1  0
  4  5  1  0
  4  2  1  0
  5  7  1  0
  5  6  1  1
  7  8  2  0
  9 10  1  0
  9  7  1  0
 11 12  1  0
 10 11  1  6
 13 14  1  0
 13 12  1  0
 15 14  1  0
 16 10  1  0
 17 16  2  0
 19 18  1  6
 19 21  1  0
 20 19  1  0
 21 23  1  0
 21 22  1  1
 22 16  1  0
 23 24  1  0
 25 23  2  0
M  END
$$$$
