LKT.pdb
     RDKit          3D

 25 24  0  0  1  0  0  0  0  0999 V2000
    2.3086  -26.2218   22.2403 C   0  0  0  0  0  0  0  0  0  0  0  0
    3.4663  -26.8555   21.5092 C   0  0  2  0  0  0  0  0  0  0  0  0
    4.4779  -27.2847   22.5436 C   0  0  0  0  0  0  0  0  0  0  0  0
    4.1185  -25.8423   20.5912 C   0  0  0  0  0  0  0  0  0  0  0  0
    3.1581  -25.3570   19.5307 C   0  0  2  0  0  0  0  0  0  0  0  0
    2.8902  -26.4693   18.6486 N   0  0  0  0  0  0  0  0  0  0  0  0
    3.8776  -24.2472   18.8016 C   0  0  0  0  0  0  0  0  0  0  0  0
    4.7410  -24.6218   17.9803 O   0  0  0  0  0  0  0  0  0  0  0  0
    3.5812  -22.8990   19.0454 N   0  0  0  0  0  0  0  0  0  0  0  0
    4.1939  -21.8383   18.2424 C   0  0  1  0  0  0  0  0  0  0  0  0
    3.1599  -20.7793   18.0735 C   0  0  0  0  0  0  0  0  0  0  0  0
    2.0380  -21.0662   17.1364 C   0  0  0  0  0  0  0  0  0  0  0  0
    1.0825  -19.9109   16.9549 C   0  0  0  0  0  0  0  0  0  0  0  0
   -0.0569  -20.3964   16.0683 C   0  0  0  0  0  0  0  0  0  0  0  0
   -1.0452  -19.3428   15.9271 N   0  0  0  0  0  0  0  0  0  0  0  0
    5.4477  -21.4164   18.9075 C   0  0  0  0  0  0  0  0  0  0  0  0
    5.4886  -21.4683   20.1942 O   0  0  0  0  0  0  0  0  0  0  0  0
    9.2647  -20.3854   17.0502 C   0  0  0  0  0  0  0  0  0  0  0  0
    9.0638  -21.0809   18.3550 C   0  0  1  0  0  0  0  0  0  0  0  0
   10.1336  -20.7718   19.1940 O   0  0  0  0  0  0  0  0  0  0  0  0
    7.7974  -20.6759   19.0696 C   0  0  2  0  0  0  0  0  0  0  0  0
    6.6142  -20.9631   18.2780 N   0  0  0  0  0  0  0  0  0  0  0  0
    7.8386  -19.2271   19.3401 C   0  0  0  0  0  0  0  0  0  0  0  0
    8.7182  -18.7346   20.2842 O   0  0  0  0  0  0  0  0  0  0  0  0
    7.0553  -18.4703   18.6890 O   0  0  0  0  0  0  0  0  0  0  0  0
  2  1  1  1
  2  3  1  0
  4  5  1  0
  4  2  1  0
  5  7  1  0
  5  6  1  6
  7  8  2  0
  9 10  1  0
  9  7  1  0
 11 12  1  0
 10 11  1  1
 13 14  1  0
 13 12  1  0
 15 14  1  0
 16 10  1  0
 17 16  2  0
 19 18  1  6
 19 21  1  0
 20 19  1  0
 21 23  1  0
 21 22  1  6
 22 16  1  0
 23 24  1  0
 25 23  2  0
M  END
$$$$
