LKT.pdb
     RDKit          3D

 25 24  0  0  1  0  0  0  0  0999 V2000
    7.2063  -13.0821   20.9743 C   0  0  0  0  0  0  0  0  0  0  0  0
    7.9491  -13.9146   19.9587 C   0  0  2  0  0  0  0  0  0  0  0  0
    8.4690  -12.9784   18.8952 C   0  0  0  0  0  0  0  0  0  0  0  0
    7.0050  -14.9043   19.3074 C   0  0  0  0  0  0  0  0  0  0  0  0
    7.7465  -15.8715   18.4146 C   0  0  2  0  0  0  0  0  0  0  0  0
    6.7852  -16.8335   17.9271 N   0  0  0  0  0  0  0  0  0  0  0  0
    8.7790  -16.5345   19.2952 C   0  0  0  0  0  0  0  0  0  0  0  0
    8.3186  -17.2526   20.2077 O   0  0  0  0  0  0  0  0  0  0  0  0
   10.1515  -16.3433   19.0849 N   0  0  0  0  0  0  0  0  0  0  0  0
   11.1398  -17.1813   19.7678 C   0  0  1  0  0  0  0  0  0  0  0  0
   12.2706  -17.3695   18.8164 C   0  0  0  0  0  0  0  0  0  0  0  0
   13.3554  -18.3051   19.2245 C   0  0  0  0  0  0  0  0  0  0  0  0
   14.4470  -18.4628   18.1928 C   0  0  0  0  0  0  0  0  0  0  0  0
   15.4755  -19.4317   18.7615 C   0  0  0  0  0  0  0  0  0  0  0  0
   16.5755  -19.5768   17.8256 N   0  0  0  0  0  0  0  0  0  0  0  0
   11.4814  -16.5403   21.0581 C   0  0  0  0  0  0  0  0  0  0  0  0
   12.0222  -15.3714   21.0204 O   0  0  0  0  0  0  0  0  0  0  0  0
    9.6227  -15.6942   24.5957 C   0  0  0  0  0  0  0  0  0  0  0  0
   10.8606  -16.5220   24.6907 C   0  0  1  0  0  0  0  0  0  0  0  0
   10.4937  -17.8646   24.7714 O   0  0  0  0  0  0  0  0  0  0  0  0
   11.7809  -16.3756   23.5033 C   0  0  2  0  0  0  0  0  0  0  0  0
   11.2734  -17.0750   22.3361 N   0  0  0  0  0  0  0  0  0  0  0  0
   13.1019  -16.9341   23.8453 C   0  0  0  0  0  0  0  0  0  0  0  0
   13.8648  -16.3294   24.8250 O   0  0  0  0  0  0  0  0  0  0  0  0
   13.5000  -17.9648   23.2211 O   0  0  0  0  0  0  0  0  0  0  0  0
  2  1  1  1
  2  3  1  0
  4  5  1  0
  4  2  1  0
  5  7  1  0
  5  6  1  1
  7  8  2  0
  9 10  1  0
  9  7  1  0
 11 12  1  0
 10 11  1  6
 13 14  1  0
 13 12  1  0
 15 14  1  0
 16 10  1  0
 17 16  2  0
 19 18  1  6
 19 21  1  0
 20 19  1  0
 21 23  1  0
 21 22  1  6
 22 16  1  0
 23 24  1  0
 25 23  2  0
M  END
$$$$
