LKT.pdb
     RDKit          3D

 25 24  0  0  1  0  0  0  0  0999 V2000
    8.2237  -20.6781   20.0714 C   0  0  0  0  0  0  0  0  0  0  0  0
    8.5493  -19.2685   19.6432 C   0  0  2  0  0  0  0  0  0  0  0  0
    9.6456  -19.3486   18.6091 C   0  0  0  0  0  0  0  0  0  0  0  0
    9.0615  -18.4715   20.8253 C   0  0  0  0  0  0  0  0  0  0  0  0
    9.0216  -16.9864   20.5508 C   0  0  2  0  0  0  0  0  0  0  0  0
   10.0223  -16.7052   19.5476 N   0  0  0  0  0  0  0  0  0  0  0  0
    9.3635  -16.3172   21.8609 C   0  0  0  0  0  0  0  0  0  0  0  0
   10.5818  -16.1252   22.0589 O   0  0  0  0  0  0  0  0  0  0  0  0
    8.3676  -15.9463   22.7750 N   0  0  0  0  0  0  0  0  0  0  0  0
    8.7093  -15.2434   24.0137 C   0  0  1  0  0  0  0  0  0  0  0  0
    7.5259  -14.4136   24.3742 C   0  0  0  0  0  0  0  0  0  0  0  0
    7.5891  -13.6579   25.6564 C   0  0  0  0  0  0  0  0  0  0  0  0
    6.3584  -12.8297   25.9392 C   0  0  0  0  0  0  0  0  0  0  0  0
    6.5710  -12.1400   27.2805 C   0  0  0  0  0  0  0  0  0  0  0  0
    5.4502  -11.2603   27.5574 N   0  0  0  0  0  0  0  0  0  0  0  0
    9.1243  -16.2479   25.0194 C   0  0  0  0  0  0  0  0  0  0  0  0
    8.2812  -17.1738   25.3228 O   0  0  0  0  0  0  0  0  0  0  0  0
   11.7451  -18.8216   24.7787 C   0  0  0  0  0  0  0  0  0  0  0  0
   11.8884  -18.1702   26.1135 C   0  0  1  0  0  0  0  0  0  0  0  0
   12.9342  -17.2504   26.0504 O   0  0  0  0  0  0  0  0  0  0  0  0
   10.6553  -17.4227   26.5593 C   0  0  2  0  0  0  0  0  0  0  0  0
   10.3558  -16.3027   25.6847 N   0  0  0  0  0  0  0  0  0  0  0  0
   10.8715  -16.9059   27.9232 C   0  0  0  0  0  0  0  0  0  0  0  0
   10.8851  -15.5422   28.1414 O   0  0  0  0  0  0  0  0  0  0  0  0
   11.0402  -17.7408   28.8639 O   0  0  0  0  0  0  0  0  0  0  0  0
  2  1  1  1
  2  3  1  0
  4  5  1  0
  4  2  1  0
  5  7  1  0
  5  6  1  6
  7  8  2  0
  9 10  1  0
  9  7  1  0
 11 12  1  0
 10 11  1  1
 13 14  1  0
 13 12  1  0
 15 14  1  0
 16 10  1  0
 17 16  2  0
 19 18  1  6
 19 21  1  0
 20 19  1  0
 21 23  1  0
 21 22  1  6
 22 16  1  0
 23 24  1  0
 25 23  2  0
M  END
$$$$
