LKT.pdb
     RDKit          3D

 25 24  0  0  1  0  0  0  0  0999 V2000
    5.8572  -12.2660   26.4317 C   0  0  0  0  0  0  0  0  0  0  0  0
    6.6742  -13.1528   27.3385 C   0  0  2  0  0  0  0  0  0  0  0  0
    7.7266  -12.2904   27.9913 C   0  0  0  0  0  0  0  0  0  0  0  0
    7.3691  -14.2267   26.5267 C   0  0  0  0  0  0  0  0  0  0  0  0
    6.3795  -15.0523   25.7385 C   0  0  2  0  0  0  0  0  0  0  0  0
    5.9785  -16.1604   26.5742 N   0  0  0  0  0  0  0  0  0  0  0  0
    7.1272  -15.5355   24.5184 C   0  0  0  0  0  0  0  0  0  0  0  0
    7.4580  -16.7399   24.5390 O   0  0  0  0  0  0  0  0  0  0  0  0
    7.4183  -14.6757   23.4504 N   0  0  0  0  0  0  0  0  0  0  0  0
    8.0842  -15.1743   22.2449 C   0  0  1  0  0  0  0  0  0  0  0  0
    7.8572  -14.1574   21.1802 C   0  0  0  0  0  0  0  0  0  0  0  0
    8.3974  -14.4582   19.8249 C   0  0  0  0  0  0  0  0  0  0  0  0
    8.0231  -13.4371   18.7771 C   0  0  0  0  0  0  0  0  0  0  0  0
    8.4937  -13.9717   17.4307 C   0  0  0  0  0  0  0  0  0  0  0  0
    8.1996  -13.0005   16.3929 N   0  0  0  0  0  0  0  0  0  0  0  0
    9.4993  -15.4560   22.5777 C   0  0  0  0  0  0  0  0  0  0  0  0
   10.1245  -14.5970   23.3065 O   0  0  0  0  0  0  0  0  0  0  0  0
   11.6670  -18.2676   24.4854 C   0  0  0  0  0  0  0  0  0  0  0  0
   12.0004  -18.0525   23.0469 C   0  0  1  0  0  0  0  0  0  0  0  0
   11.2874  -18.9745   22.2817 O   0  0  0  0  0  0  0  0  0  0  0  0
   11.6458  -16.6752   22.5413 C   0  0  2  0  0  0  0  0  0  0  0  0
   10.2423  -16.5756   22.1819 N   0  0  0  0  0  0  0  0  0  0  0  0
   12.4567  -16.3767   21.3467 C   0  0  0  0  0  0  0  0  0  0  0  0
   13.8298  -16.2813   21.4611 O   0  0  0  0  0  0  0  0  0  0  0  0
   11.8598  -16.2150   20.2386 O   0  0  0  0  0  0  0  0  0  0  0  0
  2  1  1  6
  2  3  1  0
  4  5  1  0
  4  2  1  0
  5  7  1  0
  5  6  1  1
  7  8  2  0
  9 10  1  0
  9  7  1  0
 11 12  1  0
 10 11  1  6
 13 14  1  0
 13 12  1  0
 15 14  1  0
 16 10  1  0
 17 16  2  0
 19 18  1  1
 19 21  1  0
 20 19  1  0
 21 23  1  0
 21 22  1  6
 22 16  1  0
 23 24  1  0
 25 23  2  0
M  END
$$$$
