LKT.pdb
     RDKit          3D

 25 24  0  0  1  0  0  0  0  0999 V2000
    9.1247  -13.3414   19.2623 C   0  0  0  0  0  0  0  0  0  0  0  0
    7.7867  -13.5652   19.9226 C   0  0  2  0  0  0  0  0  0  0  0  0
    7.2084  -12.2104   20.2504 C   0  0  0  0  0  0  0  0  0  0  0  0
    7.9671  -14.3356   21.2144 C   0  0  0  0  0  0  0  0  0  0  0  0
    8.4570  -15.7414   20.9570 C   0  0  2  0  0  0  0  0  0  0  0  0
    7.3598  -16.4823   20.3788 N   0  0  0  0  0  0  0  0  0  0  0  0
    8.8355  -16.2986   22.3088 C   0  0  0  0  0  0  0  0  0  0  0  0
    7.8752  -16.6180   23.0409 O   0  0  0  0  0  0  0  0  0  0  0  0
   10.1761  -16.4384   22.6933 N   0  0  0  0  0  0  0  0  0  0  0  0
   10.5299  -17.0632   23.9699 C   0  0  1  0  0  0  0  0  0  0  0  0
   11.7748  -17.8459   23.7317 C   0  0  0  0  0  0  0  0  0  0  0  0
   12.3489  -18.5823   24.8924 C   0  0  0  0  0  0  0  0  0  0  0  0
   11.5864  -19.8328   25.2607 C   0  0  0  0  0  0  0  0  0  0  0  0
   12.2890  -20.4593   26.4582 C   0  0  0  0  0  0  0  0  0  0  0  0
   11.5590  -21.6380   26.8876 N   0  0  0  0  0  0  0  0  0  0  0  0
   10.6213  -16.0017   24.9981 C   0  0  0  0  0  0  0  0  0  0  0  0
   11.4819  -15.0612   24.8117 O   0  0  0  0  0  0  0  0  0  0  0  0
    8.7887  -12.9587   26.2322 C   0  0  0  0  0  0  0  0  0  0  0  0
    8.9760  -13.9395   27.3411 C   0  0  1  0  0  0  0  0  0  0  0  0
    7.8315  -14.7301   27.4347 O   0  0  0  0  0  0  0  0  0  0  0  0
   10.1502  -14.8663   27.1393 C   0  0  2  0  0  0  0  0  0  0  0  0
    9.8579  -15.9064   26.1689 N   0  0  0  0  0  0  0  0  0  0  0  0
   10.4853  -15.5067   28.4244 C   0  0  0  0  0  0  0  0  0  0  0  0
   10.8802  -14.7257   29.4929 O   0  0  0  0  0  0  0  0  0  0  0  0
   10.3991  -16.7700   28.5084 O   0  0  0  0  0  0  0  0  0  0  0  0
  2  1  1  1
  2  3  1  0
  4  5  1  0
  4  2  1  0
  5  7  1  0
  5  6  1  1
  7  8  2  0
  9 10  1  0
  9  7  1  0
 11 12  1  0
 10 11  1  6
 13 14  1  0
 13 12  1  0
 15 14  1  0
 16 10  1  0
 17 16  2  0
 19 18  1  6
 19 21  1  0
 20 19  1  0
 21 23  1  0
 21 22  1  6
 22 16  1  0
 23 24  1  0
 25 23  2  0
M  END
$$$$
