LKT.pdb
     RDKit          3D

 25 24  0  0  1  0  0  0  0  0999 V2000
    6.0542  -12.3574   26.0152 C   0  0  0  0  0  0  0  0  0  0  0  0
    6.6731  -13.2006   27.1024 C   0  0  2  0  0  0  0  0  0  0  0  0
    7.7598  -12.3796   27.7524 C   0  0  0  0  0  0  0  0  0  0  0  0
    7.3023  -14.4415   26.5030 C   0  0  0  0  0  0  0  0  0  0  0  0
    6.3296  -15.1819   25.6153 C   0  0  2  0  0  0  0  0  0  0  0  0
    5.9277  -16.3784   26.3181 N   0  0  0  0  0  0  0  0  0  0  0  0
    7.0965  -15.5219   24.3594 C   0  0  0  0  0  0  0  0  0  0  0  0
    7.5970  -16.6660   24.3344 O   0  0  0  0  0  0  0  0  0  0  0  0
    7.2245  -14.6029   23.3088 N   0  0  0  0  0  0  0  0  0  0  0  0
    7.9824  -14.9424   22.1023 C   0  0  1  0  0  0  0  0  0  0  0  0
    7.8358  -13.7913   21.1680 C   0  0  0  0  0  0  0  0  0  0  0  0
    8.6384  -13.8260   19.9136 C   0  0  0  0  0  0  0  0  0  0  0  0
    7.8054  -13.9159   18.6571 C   0  0  0  0  0  0  0  0  0  0  0  0
    8.7647  -13.9327   17.4741 C   0  0  0  0  0  0  0  0  0  0  0  0
    8.0082  -13.9380   16.2354 N   0  0  0  0  0  0  0  0  0  0  0  0
    9.3682  -15.2772   22.5021 C   0  0  0  0  0  0  0  0  0  0  0  0
    9.9512  -14.4989   23.3473 O   0  0  0  0  0  0  0  0  0  0  0  0
   11.2534  -18.2700   24.3416 C   0  0  0  0  0  0  0  0  0  0  0  0
   11.7490  -17.9656   22.9675 C   0  0  1  0  0  0  0  0  0  0  0  0
   11.1028  -18.8081   22.0639 O   0  0  0  0  0  0  0  0  0  0  0  0
   11.4863  -16.5455   22.5285 C   0  0  2  0  0  0  0  0  0  0  0  0
   10.1246  -16.3685   22.0558 N   0  0  0  0  0  0  0  0  0  0  0  0
   12.4102  -16.2009   21.4323 C   0  0  0  0  0  0  0  0  0  0  0  0
   13.7642  -16.1044   21.6869 O   0  0  0  0  0  0  0  0  0  0  0  0
   11.9257  -16.0018   20.2765 O   0  0  0  0  0  0  0  0  0  0  0  0
  2  1  1  6
  2  3  1  0
  4  5  1  0
  4  2  1  0
  5  7  1  0
  5  6  1  1
  7  8  2  0
  9 10  1  0
  9  7  1  0
 11 12  1  0
 10 11  1  6
 13 14  1  0
 13 12  1  0
 15 14  1  0
 16 10  1  0
 17 16  2  0
 19 18  1  1
 19 21  1  0
 20 19  1  0
 21 23  1  0
 21 22  1  6
 22 16  1  0
 23 24  1  0
 25 23  2  0
M  END
$$$$
