LKT.pdb
     RDKit          3D

 25 24  0  0  1  0  0  0  0  0999 V2000
    9.5383  -13.7057   18.8971 C   0  0  0  0  0  0  0  0  0  0  0  0
    8.0317  -13.6370   18.9380 C   0  0  2  0  0  0  0  0  0  0  0  0
    7.6400  -12.1817   18.8601 C   0  0  0  0  0  0  0  0  0  0  0  0
    7.5211  -14.2023   20.2474 C   0  0  0  0  0  0  0  0  0  0  0  0
    7.9222  -15.6485   20.4200 C   0  0  2  0  0  0  0  0  0  0  0  0
    6.9737  -16.4511   19.6831 N   0  0  0  0  0  0  0  0  0  0  0  0
    7.8320  -15.9258   21.9020 C   0  0  0  0  0  0  0  0  0  0  0  0
    6.6811  -15.8730   22.3845 O   0  0  0  0  0  0  0  0  0  0  0  0
    8.9724  -16.2195   22.6623 N   0  0  0  0  0  0  0  0  0  0  0  0
    8.8571  -16.6060   24.0703 C   0  0  1  0  0  0  0  0  0  0  0  0
    9.8982  -17.6431   24.3150 C   0  0  0  0  0  0  0  0  0  0  0  0
   10.0194  -18.1723   25.7022 C   0  0  0  0  0  0  0  0  0  0  0  0
   11.1604  -19.1440   25.8882 C   0  0  0  0  0  0  0  0  0  0  0  0
   11.1127  -19.6328   27.3300 C   0  0  0  0  0  0  0  0  0  0  0  0
   12.2414  -20.5096   27.5832 N   0  0  0  0  0  0  0  0  0  0  0  0
    8.9572  -15.3826   24.8984 C   0  0  0  0  0  0  0  0  0  0  0  0
    9.8952  -14.5453   24.6172 O   0  0  0  0  0  0  0  0  0  0  0  0
    6.9765  -12.0865   25.6664 C   0  0  0  0  0  0  0  0  0  0  0  0
    7.2116  -12.9384   26.8688 C   0  0  1  0  0  0  0  0  0  0  0  0
    6.0979  -13.7548   27.0610 O   0  0  0  0  0  0  0  0  0  0  0  0
    8.4168  -13.8391   26.7480 C   0  0  2  0  0  0  0  0  0  0  0  0
    8.1262  -15.0302   25.9696 N   0  0  0  0  0  0  0  0  0  0  0  0
    8.8453  -14.2546   28.0962 C   0  0  0  0  0  0  0  0  0  0  0  0
    9.2143  -13.2964   29.0198 O   0  0  0  0  0  0  0  0  0  0  0  0
    8.8613  -15.4941   28.3677 O   0  0  0  0  0  0  0  0  0  0  0  0
  2  1  1  1
  2  3  1  0
  4  5  1  0
  4  2  1  0
  5  7  1  0
  5  6  1  6
  7  8  2  0
  9 10  1  0
  9  7  1  0
 11 12  1  0
 10 11  1  1
 13 14  1  0
 13 12  1  0
 15 14  1  0
 16 10  1  0
 17 16  2  0
 19 18  1  6
 19 21  1  0
 20 19  1  0
 21 23  1  0
 21 22  1  6
 22 16  1  0
 23 24  1  0
 25 23  2  0
M  END
$$$$
