LDV.pdb
     RDKit          3D

 24 23  0  0  1  0  0  0  0  0999 V2000
   28.8995  -21.6754  -13.1511 C   0  0  0  0  0  0  0  0  0  0  0  0
   28.5637  -20.5106  -12.2677 C   0  0  2  0  0  0  0  0  0  0  0  0
   28.6480  -20.8796  -10.7967 C   0  0  0  0  0  0  0  0  0  0  0  0
   27.1654  -20.0320  -12.6043 C   0  0  0  0  0  0  0  0  0  0  0  0
   27.0133  -19.6286  -14.0371 C   0  0  2  0  0  0  0  0  0  0  0  0
   27.8007  -18.4956  -14.4315 N   0  0  0  0  0  0  0  0  0  0  0  0
   25.5520  -19.4200  -14.3004 C   0  0  0  0  0  0  0  0  0  0  0  0
   25.0618  -18.3387  -13.8769 O   0  0  0  0  0  0  0  0  0  0  0  0
   24.7703  -20.3722  -14.9796 N   0  0  0  0  0  0  0  0  0  0  0  0
   23.3368  -20.0127  -15.2459 C   0  0  1  0  0  0  0  0  0  0  0  0
   23.0490  -20.5955  -16.6090 C   0  0  0  0  0  0  0  0  0  0  0  0
   23.7657  -19.9719  -17.6906 C   0  0  0  0  0  0  0  0  0  0  0  0
   24.0045  -18.7705  -17.9240 O   0  0  0  0  0  0  0  0  0  0  0  0
   22.5418  -20.6080  -14.1668 C   0  0  0  0  0  0  0  0  0  0  0  0
   22.8953  -21.7653  -13.7411 O   0  0  0  0  0  0  0  0  0  0  0  0
   24.3082  -20.8439  -18.6812 O   0  0  0  0  0  0  0  0  0  0  0  0
   20.5322  -18.4232  -11.3547 C   0  0  0  0  0  0  0  0  0  0  0  0
   20.9553  -19.8494  -11.1626 C   0  0  1  0  0  0  0  0  0  0  0  0
   20.2592  -20.4328   -9.9715 C   0  0  0  0  0  0  0  0  0  0  0  0
   20.7772  -20.6937  -12.3977 C   0  0  2  0  0  0  0  0  0  0  0  0
   21.4385  -20.0411  -13.5454 N   0  0  0  0  0  0  0  0  0  0  0  0
   19.3223  -20.7540  -12.7532 C   0  0  0  0  0  0  0  0  0  0  0  0
   18.9057  -19.9983  -13.6579 O   0  0  0  0  0  0  0  0  0  0  0  0
   18.4276  -21.5981  -12.1328 O   0  0  0  0  0  0  0  0  0  0  0  0
  2  1  1  6
  3  2  1  0
  4  5  1  0
  4  2  1  0
  5  6  1  1
  5  7  1  0
  7  8  2  0
  9  7  1  0
  9 10  1  0
 10 14  1  0
 10 11  1  6
 12 16  1  0
 12 11  1  0
 13 12  2  0
 14 15  2  0
 18 17  1  6
 18 20  1  0
 19 18  1  0
 20 22  1  0
 20 21  1  6
 21 14  1  0
 22 23  2  0
 22 24  1  0
M  END
$$$$
