LDV.pdb
     RDKit          3D

 24 23  0  0  1  0  0  0  0  0999 V2000
   19.3833  -12.4711  -19.4629 C   0  0  0  0  0  0  0  0  0  0  0  0
   17.9753  -12.4708  -18.9459 C   0  0  2  0  0  0  0  0  0  0  0  0
   16.9698  -12.2222  -20.0569 C   0  0  0  0  0  0  0  0  0  0  0  0
   17.8484  -11.4000  -17.8806 C   0  0  0  0  0  0  0  0  0  0  0  0
   18.8319  -11.5640  -16.7650 C   0  0  2  0  0  0  0  0  0  0  0  0
   18.6332  -12.7300  -15.9525 N   0  0  0  0  0  0  0  0  0  0  0  0
   18.8186  -10.3023  -15.9550 C   0  0  0  0  0  0  0  0  0  0  0  0
   17.8837  -10.1921  -15.1167 O   0  0  0  0  0  0  0  0  0  0  0  0
   19.7902   -9.2979  -16.1178 N   0  0  0  0  0  0  0  0  0  0  0  0
   19.6584   -8.0757  -15.2553 C   0  0  1  0  0  0  0  0  0  0  0  0
   21.0451   -7.8553  -14.6994 C   0  0  0  0  0  0  0  0  0  0  0  0
   21.1819   -6.6800  -13.8795 C   0  0  0  0  0  0  0  0  0  0  0  0
   20.3967   -6.1614  -13.0613 O   0  0  0  0  0  0  0  0  0  0  0  0
   19.1885   -6.9913  -16.1237 C   0  0  0  0  0  0  0  0  0  0  0  0
   19.7900   -6.8290  -17.2450 O   0  0  0  0  0  0  0  0  0  0  0  0
   22.4095   -5.9620  -13.9958 O   0  0  0  0  0  0  0  0  0  0  0  0
   16.1494   -6.1929  -18.1886 C   0  0  0  0  0  0  0  0  0  0  0  0
   16.3952   -5.0836  -17.2093 C   0  0  1  0  0  0  0  0  0  0  0  0
   15.4494   -5.2033  -16.0539 C   0  0  0  0  0  0  0  0  0  0  0  0
   17.8314   -4.9914  -16.7638 C   0  0  2  0  0  0  0  0  0  0  0  0
   18.1446   -6.1164  -15.8600 N   0  0  0  0  0  0  0  0  0  0  0  0
   18.0187   -3.7518  -15.9422 C   0  0  0  0  0  0  0  0  0  0  0  0
   18.0221   -2.6495  -16.5322 O   0  0  0  0  0  0  0  0  0  0  0  0
   18.1867   -3.7701  -14.5749 O   0  0  0  0  0  0  0  0  0  0  0  0
  2  1  1  6
  3  2  1  0
  4  5  1  0
  4  2  1  0
  5  6  1  1
  5  7  1  0
  7  8  2  0
  9  7  1  0
  9 10  1  0
 10 14  1  0
 10 11  1  6
 12 16  1  0
 12 11  1  0
 13 12  2  0
 14 15  2  0
 18 17  1  6
 18 20  1  0
 19 18  1  0
 20 22  1  0
 20 21  1  1
 21 14  1  0
 22 23  2  0
 22 24  1  0
M  END
$$$$
