LDV.pdb
     RDKit          3D

 24 23  0  0  1  0  0  0  0  0999 V2000
   16.9359  -13.9911  -14.9282 C   0  0  0  0  0  0  0  0  0  0  0  0
   17.6566  -12.9886  -15.7799 C   0  0  2  0  0  0  0  0  0  0  0  0
   19.0199  -13.4985  -16.2144 C   0  0  0  0  0  0  0  0  0  0  0  0
   17.8094  -11.7021  -14.9931 C   0  0  0  0  0  0  0  0  0  0  0  0
   16.5046  -11.1536  -14.5079 C   0  0  2  0  0  0  0  0  0  0  0  0
   15.5796  -10.7927  -15.5440 N   0  0  0  0  0  0  0  0  0  0  0  0
   16.8039  -10.0043  -13.5927 C   0  0  0  0  0  0  0  0  0  0  0  0
   17.5108  -10.2698  -12.5833 O   0  0  0  0  0  0  0  0  0  0  0  0
   16.3259   -8.7049  -13.8416 N   0  0  0  0  0  0  0  0  0  0  0  0
   16.7501   -7.6276  -12.8853 C   0  0  1  0  0  0  0  0  0  0  0  0
   17.0569   -6.4404  -13.7669 C   0  0  0  0  0  0  0  0  0  0  0  0
   17.3295   -5.2197  -13.0542 C   0  0  0  0  0  0  0  0  0  0  0  0
   16.6586   -4.1746  -12.9418 O   0  0  0  0  0  0  0  0  0  0  0  0
   15.6284   -7.4092  -11.9662 C   0  0  0  0  0  0  0  0  0  0  0  0
   14.4428   -7.5178  -12.4438 O   0  0  0  0  0  0  0  0  0  0  0  0
   18.5664   -5.1589  -12.3455 O   0  0  0  0  0  0  0  0  0  0  0  0
   15.9956   -6.7781   -7.7804 C   0  0  0  0  0  0  0  0  0  0  0  0
   14.7360   -7.3148   -8.3931 C   0  0  1  0  0  0  0  0  0  0  0  0
   13.5687   -7.0208   -7.5017 C   0  0  0  0  0  0  0  0  0  0  0  0
   14.5109   -6.8369   -9.8041 C   0  0  2  0  0  0  0  0  0  0  0  0
   15.7155   -7.1009  -10.6163 N   0  0  0  0  0  0  0  0  0  0  0  0
   14.3449   -5.3472   -9.8039 C   0  0  0  0  0  0  0  0  0  0  0  0
   15.3628   -4.6415   -9.9745 O   0  0  0  0  0  0  0  0  0  0  0  0
   13.1301   -4.7226   -9.6252 O   0  0  0  0  0  0  0  0  0  0  0  0
  2  1  1  1
  3  2  1  0
  4  5  1  0
  4  2  1  0
  5  6  1  6
  5  7  1  0
  7  8  2  0
  9  7  1  0
  9 10  1  0
 10 14  1  0
 10 11  1  6
 12 16  1  0
 12 11  1  0
 13 12  2  0
 14 15  2  0
 18 17  1  1
 18 20  1  0
 19 18  1  0
 20 22  1  0
 20 21  1  6
 21 14  1  0
 22 23  2  0
 22 24  1  0
M  END
$$$$
