LDV.pdb
     RDKit          3D

 24 23  0  0  1  0  0  0  0  0999 V2000
   17.8320  -16.6116  -14.9113 C   0  0  0  0  0  0  0  0  0  0  0  0
   18.1263  -16.7985  -16.3701 C   0  0  2  0  0  0  0  0  0  0  0  0
   19.3072  -17.7285  -16.5894 C   0  0  0  0  0  0  0  0  0  0  0  0
   18.4103  -15.4433  -16.9867 C   0  0  0  0  0  0  0  0  0  0  0  0
   17.2641  -14.4900  -16.8595 C   0  0  2  0  0  0  0  0  0  0  0  0
   16.0893  -14.8576  -17.5971 N   0  0  0  0  0  0  0  0  0  0  0  0
   17.7611  -13.1254  -17.2325 C   0  0  0  0  0  0  0  0  0  0  0  0
   17.6249  -12.7979  -18.4420 O   0  0  0  0  0  0  0  0  0  0  0  0
   18.3458  -12.2586  -16.2913 N   0  0  0  0  0  0  0  0  0  0  0  0
   18.7543  -10.8983  -16.7790 C   0  0  1  0  0  0  0  0  0  0  0  0
   17.4530  -10.2174  -17.1307 C   0  0  0  0  0  0  0  0  0  0  0  0
   17.5925   -8.8619  -17.5949 C   0  0  0  0  0  0  0  0  0  0  0  0
   18.6041   -8.2175  -17.9359 O   0  0  0  0  0  0  0  0  0  0  0  0
   19.4825  -10.2541  -15.6810 C   0  0  0  0  0  0  0  0  0  0  0  0
   18.9364  -10.2689  -14.5204 O   0  0  0  0  0  0  0  0  0  0  0  0
   16.3925   -8.0964  -17.6941 O   0  0  0  0  0  0  0  0  0  0  0  0
   23.0253  -11.0743  -14.2961 C   0  0  0  0  0  0  0  0  0  0  0  0
   22.8626   -9.6151  -14.6034 C   0  0  1  0  0  0  0  0  0  0  0  0
   23.5234   -9.2910  -15.9079 C   0  0  0  0  0  0  0  0  0  0  0  0
   21.4286   -9.1550  -14.5603 C   0  0  2  0  0  0  0  0  0  0  0  0
   20.7183   -9.6290  -15.7650 N   0  0  0  0  0  0  0  0  0  0  0  0
   21.3842   -7.6584  -14.6304 C   0  0  0  0  0  0  0  0  0  0  0  0
   21.0866   -7.1289  -15.7232 O   0  0  0  0  0  0  0  0  0  0  0  0
   21.6549   -6.8435  -13.5531 O   0  0  0  0  0  0  0  0  0  0  0  0
  2  1  1  1
  3  2  1  0
  4  5  1  0
  4  2  1  0
  5  6  1  6
  5  7  1  0
  7  8  2  0
  9  7  1  0
  9 10  1  0
 10 14  1  0
 10 11  1  1
 12 16  1  0
 12 11  1  0
 13 12  2  0
 14 15  2  0
 18 17  1  6
 18 20  1  0
 19 18  1  0
 20 22  1  0
 20 21  1  6
 21 14  1  0
 22 23  2  0
 22 24  1  0
M  END
$$$$
