LDV.pdb
     RDKit          3D

 24 23  0  0  1  0  0  0  0  0999 V2000
   17.7553  -14.9578  -16.3731 C   0  0  0  0  0  0  0  0  0  0  0  0
   16.4558  -14.2089  -16.3911 C   0  0  2  0  0  0  0  0  0  0  0  0
   15.4880  -14.7894  -17.4078 C   0  0  0  0  0  0  0  0  0  0  0  0
   16.7368  -12.7545  -16.7123 C   0  0  0  0  0  0  0  0  0  0  0  0
   17.6111  -12.0886  -15.6970 C   0  0  2  0  0  0  0  0  0  0  0  0
   17.1268  -12.1550  -14.3478 N   0  0  0  0  0  0  0  0  0  0  0  0
   17.8393  -10.6764  -16.1462 C   0  0  0  0  0  0  0  0  0  0  0  0
   18.2999  -10.5333  -17.3108 O   0  0  0  0  0  0  0  0  0  0  0  0
   17.5576   -9.5732  -15.3200 N   0  0  0  0  0  0  0  0  0  0  0  0
   17.8103   -8.2090  -15.8946 C   0  0  1  0  0  0  0  0  0  0  0  0
   16.4998   -7.4785  -15.7217 C   0  0  0  0  0  0  0  0  0  0  0  0
   16.5501   -6.0751  -16.0380 C   0  0  0  0  0  0  0  0  0  0  0  0
   16.8486   -5.0911  -15.3327 O   0  0  0  0  0  0  0  0  0  0  0  0
   18.9192   -7.6255  -15.1325 C   0  0  0  0  0  0  0  0  0  0  0  0
   18.9261   -7.8103  -13.8631 O   0  0  0  0  0  0  0  0  0  0  0  0
   16.2071   -5.7110  -17.3743 O   0  0  0  0  0  0  0  0  0  0  0  0
   22.3847   -6.1494  -16.9587 C   0  0  0  0  0  0  0  0  0  0  0  0
   22.4114   -6.7405  -15.5803 C   0  0  1  0  0  0  0  0  0  0  0  0
   23.6159   -6.2500  -14.8373 C   0  0  0  0  0  0  0  0  0  0  0  0
   21.1356   -6.5140  -14.8116 C   0  0  2  0  0  0  0  0  0  0  0  0
   19.9782   -6.8918  -15.6472 N   0  0  0  0  0  0  0  0  0  0  0  0
   20.9730   -5.0491  -14.5386 C   0  0  0  0  0  0  0  0  0  0  0  0
   20.1783   -4.4016  -15.2544 O   0  0  0  0  0  0  0  0  0  0  0  0
   21.6548   -4.3864  -13.5416 O   0  0  0  0  0  0  0  0  0  0  0  0
  2  1  1  6
  3  2  1  0
  4  5  1  0
  4  2  1  0
  5  6  1  1
  5  7  1  0
  7  8  2  0
  9  7  1  0
  9 10  1  0
 10 14  1  0
 10 11  1  1
 12 16  1  0
 12 11  1  0
 13 12  2  0
 14 15  2  0
 18 17  1  6
 18 20  1  0
 19 18  1  0
 20 22  1  0
 20 21  1  6
 21 14  1  0
 22 23  2  0
 22 24  1  0
M  END
$$$$
