LDV.pdb
     RDKit          3D

 24 23  0  0  1  0  0  0  0  0999 V2000
   27.2884  -18.1765  -18.3597 C   0  0  0  0  0  0  0  0  0  0  0  0
   27.1803  -16.7863  -17.8071 C   0  0  2  0  0  0  0  0  0  0  0  0
   28.5173  -16.2819  -17.2921 C   0  0  0  0  0  0  0  0  0  0  0  0
   26.1582  -16.7858  -16.6878 C   0  0  0  0  0  0  0  0  0  0  0  0
   24.8355  -17.3493  -17.1019 C   0  0  2  0  0  0  0  0  0  0  0  0
   24.0160  -16.4594  -17.8738 N   0  0  0  0  0  0  0  0  0  0  0  0
   24.1368  -17.8313  -15.8659 C   0  0  0  0  0  0  0  0  0  0  0  0
   23.5974  -16.9430  -15.1526 O   0  0  0  0  0  0  0  0  0  0  0  0
   24.0842  -19.1936  -15.5188 N   0  0  0  0  0  0  0  0  0  0  0  0
   23.3645  -19.5462  -14.2488 C   0  0  1  0  0  0  0  0  0  0  0  0
   22.1017  -20.2343  -14.7098 C   0  0  0  0  0  0  0  0  0  0  0  0
   21.2803  -20.7530  -13.6475 C   0  0  0  0  0  0  0  0  0  0  0  0
   20.8131  -21.8941  -13.4618 O   0  0  0  0  0  0  0  0  0  0  0  0
   24.2631  -20.4110  -13.4772 C   0  0  0  0  0  0  0  0  0  0  0  0
   24.6361  -21.5113  -14.0210 O   0  0  0  0  0  0  0  0  0  0  0  0
   20.9200  -19.8358  -12.6156 O   0  0  0  0  0  0  0  0  0  0  0  0
   27.7684  -20.0312  -12.2418 C   0  0  0  0  0  0  0  0  0  0  0  0
   26.9092  -20.4526  -11.0866 C   0  0  1  0  0  0  0  0  0  0  0  0
   26.6594  -19.2846  -10.1829 C   0  0  0  0  0  0  0  0  0  0  0  0
   25.6317  -21.1286  -11.5117 C   0  0  2  0  0  0  0  0  0  0  0  0
   24.7639  -20.1580  -12.2083 N   0  0  0  0  0  0  0  0  0  0  0  0
   24.8650  -21.5527  -10.2956 C   0  0  0  0  0  0  0  0  0  0  0  0
   23.8429  -20.9019   -9.9875 O   0  0  0  0  0  0  0  0  0  0  0  0
   25.2320  -22.6200   -9.5055 O   0  0  0  0  0  0  0  0  0  0  0  0
  2  1  1  1
  3  2  1  0
  4  5  1  0
  4  2  1  0
  5  6  1  1
  5  7  1  0
  7  8  2  0
  9  7  1  0
  9 10  1  0
 10 14  1  0
 10 11  1  6
 12 16  1  0
 12 11  1  0
 13 12  2  0
 14 15  2  0
 18 17  1  6
 18 20  1  0
 19 18  1  0
 20 22  1  0
 20 21  1  1
 21 14  1  0
 22 23  2  0
 22 24  1  0
M  END
$$$$
