LDV.pdb
     RDKit          3D

 24 23  0  0  1  0  0  0  0  0999 V2000
   14.7732  -12.0787  -18.6129 C   0  0  0  0  0  0  0  0  0  0  0  0
   15.7704  -12.9906  -17.9619 C   0  0  2  0  0  0  0  0  0  0  0  0
   15.2019  -13.6440  -16.7140 C   0  0  0  0  0  0  0  0  0  0  0  0
   17.0072  -12.1876  -17.6109 C   0  0  0  0  0  0  0  0  0  0  0  0
   17.9631  -12.0541  -18.7541 C   0  0  2  0  0  0  0  0  0  0  0  0
   18.5176  -13.2915  -19.2241 N   0  0  0  0  0  0  0  0  0  0  0  0
   19.0257  -11.0766  -18.3497 C   0  0  0  0  0  0  0  0  0  0  0  0
   20.1718  -11.5586  -18.1429 O   0  0  0  0  0  0  0  0  0  0  0  0
   18.7632   -9.7018  -18.2079 N   0  0  0  0  0  0  0  0  0  0  0  0
   19.9314   -8.8143  -17.8873 C   0  0  1  0  0  0  0  0  0  0  0  0
   19.6797   -7.5570  -18.6852 C   0  0  0  0  0  0  0  0  0  0  0  0
   20.6789   -6.5336  -18.5215 C   0  0  0  0  0  0  0  0  0  0  0  0
   21.7135   -6.5088  -17.8260 O   0  0  0  0  0  0  0  0  0  0  0  0
   19.9219   -8.6069  -16.4355 C   0  0  0  0  0  0  0  0  0  0  0  0
   18.7863   -8.4035  -15.8747 O   0  0  0  0  0  0  0  0  0  0  0  0
   20.4861   -5.3311  -19.2650 O   0  0  0  0  0  0  0  0  0  0  0  0
   23.2396   -9.2813  -13.9195 C   0  0  0  0  0  0  0  0  0  0  0  0
   21.8286   -9.3689  -13.4181 C   0  0  1  0  0  0  0  0  0  0  0  0
   21.8010   -9.1726  -11.9334 C   0  0  0  0  0  0  0  0  0  0  0  0
   20.8845   -8.4385  -14.1342 C   0  0  2  0  0  0  0  0  0  0  0  0
   21.0246   -8.6148  -15.5936 N   0  0  0  0  0  0  0  0  0  0  0  0
   21.2823   -7.0194  -13.8609 C   0  0  0  0  0  0  0  0  0  0  0  0
   21.0578   -6.5540  -12.7224 O   0  0  0  0  0  0  0  0  0  0  0  0
   21.8799   -6.2081  -14.8004 O   0  0  0  0  0  0  0  0  0  0  0  0
  2  1  1  1
  3  2  1  0
  4  5  1  0
  4  2  1  0
  5  6  1  1
  5  7  1  0
  7  8  2  0
  9  7  1  0
  9 10  1  0
 10 14  1  0
 10 11  1  6
 12 16  1  0
 12 11  1  0
 13 12  2  0
 14 15  2  0
 18 17  1  6
 18 20  1  0
 19 18  1  0
 20 22  1  0
 20 21  1  6
 21 14  1  0
 22 23  2  0
 22 24  1  0
M  END
$$$$
