LDV.pdb
     RDKit          3D

 24 23  0  0  1  0  0  0  0  0999 V2000
   28.1179  -18.7820  -14.0539 C   0  0  0  0  0  0  0  0  0  0  0  0
   27.6936  -18.8528  -15.4908 C   0  0  2  0  0  0  0  0  0  0  0  0
   28.0491  -17.5823  -16.2438 C   0  0  0  0  0  0  0  0  0  0  0  0
   26.1972  -19.0879  -15.5452 C   0  0  0  0  0  0  0  0  0  0  0  0
   25.7739  -20.3352  -14.8355 C   0  0  2  0  0  0  0  0  0  0  0  0
   26.3021  -21.5508  -15.3856 N   0  0  0  0  0  0  0  0  0  0  0  0
   24.2756  -20.3441  -14.7811 C   0  0  0  0  0  0  0  0  0  0  0  0
   23.6954  -21.0841  -15.6205 O   0  0  0  0  0  0  0  0  0  0  0  0
   23.5556  -19.5733  -13.8501 N   0  0  0  0  0  0  0  0  0  0  0  0
   22.0717  -19.7939  -13.7849 C   0  0  1  0  0  0  0  0  0  0  0  0
   21.7186  -19.5559  -12.3360 C   0  0  0  0  0  0  0  0  0  0  0  0
   20.3358  -19.7884  -12.0104 C   0  0  0  0  0  0  0  0  0  0  0  0
   19.3776  -20.1383  -12.7276 O   0  0  0  0  0  0  0  0  0  0  0  0
   21.4584  -18.8351  -14.7097 C   0  0  0  0  0  0  0  0  0  0  0  0
   21.7818  -17.6004  -14.5818 O   0  0  0  0  0  0  0  0  0  0  0  0
   19.9617  -19.5960  -10.6470 O   0  0  0  0  0  0  0  0  0  0  0  0
   21.6170  -18.3553  -18.4733 C   0  0  0  0  0  0  0  0  0  0  0  0
   20.1852  -18.4302  -18.0322 C   0  0  1  0  0  0  0  0  0  0  0  0
   19.6188  -19.7770  -18.3620 C   0  0  0  0  0  0  0  0  0  0  0  0
   19.9902  -18.0686  -16.5826 C   0  0  2  0  0  0  0  0  0  0  0  0
   20.5597  -19.1275  -15.7254 N   0  0  0  0  0  0  0  0  0  0  0  0
   18.5247  -18.0427  -16.2694 C   0  0  0  0  0  0  0  0  0  0  0  0
   17.8335  -17.1247  -16.7622 O   0  0  0  0  0  0  0  0  0  0  0  0
   17.9069  -18.9776  -15.4680 O   0  0  0  0  0  0  0  0  0  0  0  0
  2  1  1  1
  3  2  1  0
  4  5  1  0
  4  2  1  0
  5  6  1  6
  5  7  1  0
  7  8  2  0
  9  7  1  0
  9 10  1  0
 10 14  1  0
 10 11  1  1
 12 16  1  0
 12 11  1  0
 13 12  2  0
 14 15  2  0
 18 17  1  1
 18 20  1  0
 19 18  1  0
 20 22  1  0
 20 21  1  1
 21 14  1  0
 22 23  2  0
 22 24  1  0
M  END
$$$$
