LDV.pdb
     RDKit          3D

 24 23  0  0  1  0  0  0  0  0999 V2000
   28.8980  -17.1517  -16.2032 C   0  0  0  0  0  0  0  0  0  0  0  0
   28.2861  -18.1695  -17.1194 C   0  0  2  0  0  0  0  0  0  0  0  0
   27.6278  -17.5170  -18.3228 C   0  0  0  0  0  0  0  0  0  0  0  0
   27.2645  -18.9737  -16.3403 C   0  0  0  0  0  0  0  0  0  0  0  0
   27.8687  -20.1183  -15.5896 C   0  0  2  0  0  0  0  0  0  0  0  0
   28.4630  -21.1326  -16.4126 N   0  0  0  0  0  0  0  0  0  0  0  0
   26.8152  -20.6750  -14.6795 C   0  0  0  0  0  0  0  0  0  0  0  0
   26.1553  -21.6508  -15.1279 O   0  0  0  0  0  0  0  0  0  0  0  0
   26.5739  -20.1426  -13.3999 N   0  0  0  0  0  0  0  0  0  0  0  0
   25.5139  -20.8108  -12.5722 C   0  0  1  0  0  0  0  0  0  0  0  0
   25.9165  -20.5281  -11.1444 C   0  0  0  0  0  0  0  0  0  0  0  0
   25.0170  -21.0568  -10.1526 C   0  0  0  0  0  0  0  0  0  0  0  0
   23.9928  -21.7578  -10.2725 O   0  0  0  0  0  0  0  0  0  0  0  0
   24.2326  -20.2100  -12.9569 C   0  0  0  0  0  0  0  0  0  0  0  0
   24.1267  -18.9348  -12.8667 O   0  0  0  0  0  0  0  0  0  0  0  0
   25.3161  -20.7469   -8.7923 O   0  0  0  0  0  0  0  0  0  0  0  0
   22.5874  -19.6340  -16.1167 C   0  0  0  0  0  0  0  0  0  0  0  0
   21.5870  -20.3295  -15.2417 C   0  0  1  0  0  0  0  0  0  0  0  0
   21.4721  -21.7686  -15.6412 C   0  0  0  0  0  0  0  0  0  0  0  0
   21.8690  -20.1665  -13.7708 C   0  0  2  0  0  0  0  0  0  0  0  0
   23.1116  -20.8832  -13.4205 N   0  0  0  0  0  0  0  0  0  0  0  0
   20.7841  -20.8327  -12.9796 C   0  0  0  0  0  0  0  0  0  0  0  0
   19.6656  -20.2763  -12.9296 O   0  0  0  0  0  0  0  0  0  0  0  0
   20.9609  -22.0228  -12.3084 O   0  0  0  0  0  0  0  0  0  0  0  0
  2  1  1  1
  3  2  1  0
  4  5  1  0
  4  2  1  0
  5  6  1  6
  5  7  1  0
  7  8  2  0
  9  7  1  0
  9 10  1  0
 10 14  1  0
 10 11  1  1
 12 16  1  0
 12 11  1  0
 13 12  2  0
 14 15  2  0
 18 17  1  6
 18 20  1  0
 19 18  1  0
 20 22  1  0
 20 21  1  6
 21 14  1  0
 22 23  2  0
 22 24  1  0
M  END
$$$$
