LDV.pdb
     RDKit          3D

 24 23  0  0  1  0  0  0  0  0999 V2000
   26.6405  -21.3443   -7.0304 C   0  0  0  0  0  0  0  0  0  0  0  0
   27.3835  -20.3338   -7.8530 C   0  0  2  0  0  0  0  0  0  0  0  0
   27.7447  -19.1037   -7.0384 C   0  0  0  0  0  0  0  0  0  0  0  0
   26.5206  -19.9395   -9.0352 C   0  0  0  0  0  0  0  0  0  0  0  0
   26.1814  -21.0943   -9.9240 C   0  0  2  0  0  0  0  0  0  0  0  0
   27.3129  -21.7856  -10.4728 N   0  0  0  0  0  0  0  0  0  0  0  0
   25.2540  -20.5933  -10.9903 C   0  0  0  0  0  0  0  0  0  0  0  0
   24.4423  -19.6946  -10.6409 O   0  0  0  0  0  0  0  0  0  0  0  0
   25.2843  -21.0942  -12.3046 N   0  0  0  0  0  0  0  0  0  0  0  0
   24.4183  -20.4025  -13.3179 C   0  0  1  0  0  0  0  0  0  0  0  0
   24.9718  -20.8449  -14.6515 C   0  0  0  0  0  0  0  0  0  0  0  0
   24.3354  -20.2426  -15.7937 C   0  0  0  0  0  0  0  0  0  0  0  0
   23.3849  -19.4389  -15.8672 O   0  0  0  0  0  0  0  0  0  0  0  0
   23.0413  -20.8433  -13.0719 C   0  0  0  0  0  0  0  0  0  0  0  0
   22.8574  -22.0826  -12.7968 O   0  0  0  0  0  0  0  0  0  0  0  0
   24.8527  -20.6024  -17.0739 O   0  0  0  0  0  0  0  0  0  0  0  0
   20.2288  -19.2610  -10.6817 C   0  0  0  0  0  0  0  0  0  0  0  0
   19.7479  -19.5523  -12.0724 C   0  0  1  0  0  0  0  0  0  0  0  0
   19.6531  -18.2800  -12.8571 C   0  0  0  0  0  0  0  0  0  0  0  0
   20.5705  -20.5983  -12.7788 C   0  0  2  0  0  0  0  0  0  0  0  0
   21.9036  -20.0498  -13.0986 N   0  0  0  0  0  0  0  0  0  0  0  0
   19.9398  -20.9179  -14.1005 C   0  0  0  0  0  0  0  0  0  0  0  0
   18.9268  -21.6507  -14.1074 O   0  0  0  0  0  0  0  0  0  0  0  0
   20.4217  -20.4450  -15.3014 O   0  0  0  0  0  0  0  0  0  0  0  0
  2  1  1  1
  3  2  1  0
  4  5  1  0
  4  2  1  0
  5  6  1  6
  5  7  1  0
  7  8  2  0
  9  7  1  0
  9 10  1  0
 10 14  1  0
 10 11  1  6
 12 16  1  0
 12 11  1  0
 13 12  2  0
 14 15  2  0
 18 17  1  1
 18 20  1  0
 19 18  1  0
 20 22  1  0
 20 21  1  6
 21 14  1  0
 22 23  2  0
 22 24  1  0
M  END
$$$$
