LDV.pdb
     RDKit          3D

 24 23  0  0  1  0  0  0  0  0999 V2000
   18.7587  -10.9132  -19.2307 C   0  0  0  0  0  0  0  0  0  0  0  0
   18.0218  -11.5151  -18.0712 C   0  0  2  0  0  0  0  0  0  0  0  0
   16.5607  -11.7644  -18.4036 C   0  0  0  0  0  0  0  0  0  0  0  0
   18.1324  -10.5779  -16.8850 C   0  0  0  0  0  0  0  0  0  0  0  0
   19.5482  -10.2849  -16.4998 C   0  0  2  0  0  0  0  0  0  0  0  0
   20.2505  -11.3846  -15.9024 N   0  0  0  0  0  0  0  0  0  0  0  0
   19.5402   -9.0733  -15.6167 C   0  0  0  0  0  0  0  0  0  0  0  0
   18.9529   -9.1995  -14.5086 O   0  0  0  0  0  0  0  0  0  0  0  0
   20.1507   -7.8647  -15.9984 N   0  0  0  0  0  0  0  0  0  0  0  0
   20.0700   -6.7232  -15.0260 C   0  0  1  0  0  0  0  0  0  0  0  0
   21.5047   -6.4582  -14.6360 C   0  0  0  0  0  0  0  0  0  0  0  0
   21.6884   -5.3326  -13.7575 C   0  0  0  0  0  0  0  0  0  0  0  0
   20.8589   -4.6448  -13.1301 O   0  0  0  0  0  0  0  0  0  0  0  0
   19.4319   -5.6075  -15.7322 C   0  0  0  0  0  0  0  0  0  0  0  0
   19.9062   -5.2853  -16.8797 O   0  0  0  0  0  0  0  0  0  0  0  0
   23.0326   -4.9036  -13.5451 O   0  0  0  0  0  0  0  0  0  0  0  0
   15.9528   -5.0656  -17.1492 C   0  0  0  0  0  0  0  0  0  0  0  0
   16.3159   -3.9217  -16.2494 C   0  0  1  0  0  0  0  0  0  0  0  0
   15.6124   -4.0627  -14.9346 C   0  0  0  0  0  0  0  0  0  0  0  0
   17.8029   -3.7439  -16.0847 C   0  0  2  0  0  0  0  0  0  0  0  0
   18.3515   -4.8593  -15.2876 N   0  0  0  0  0  0  0  0  0  0  0  0
   18.0699   -2.5067  -15.2817 C   0  0  0  0  0  0  0  0  0  0  0  0
   17.9175   -1.3984  -15.8399 O   0  0  0  0  0  0  0  0  0  0  0  0
   18.4734   -2.5335  -13.9647 O   0  0  0  0  0  0  0  0  0  0  0  0
  2  1  1  6
  3  2  1  0
  4  5  1  0
  4  2  1  0
  5  6  1  1
  5  7  1  0
  7  8  2  0
  9  7  1  0
  9 10  1  0
 10 14  1  0
 10 11  1  6
 12 16  1  0
 12 11  1  0
 13 12  2  0
 14 15  2  0
 18 17  1  6
 18 20  1  0
 19 18  1  0
 20 22  1  0
 20 21  1  1
 21 14  1  0
 22 23  2  0
 22 24  1  0
M  END
$$$$
