LDV.pdb
     RDKit          3D

 24 23  0  0  1  0  0  0  0  0999 V2000
   29.0374  -19.7879  -14.8876 C   0  0  0  0  0  0  0  0  0  0  0  0
   27.8588  -18.8758  -15.0580 C   0  0  2  0  0  0  0  0  0  0  0  0
   28.2779  -17.5064  -15.5642 C   0  0  0  0  0  0  0  0  0  0  0  0
   27.1500  -18.7427  -13.7248 C   0  0  0  0  0  0  0  0  0  0  0  0
   26.8119  -20.0627  -13.1066 C   0  0  2  0  0  0  0  0  0  0  0  0
   25.9382  -20.8891  -13.8896 N   0  0  0  0  0  0  0  0  0  0  0  0
   26.2621  -19.7984  -11.7369 C   0  0  0  0  0  0  0  0  0  0  0  0
   25.6385  -18.7129  -11.5904 O   0  0  0  0  0  0  0  0  0  0  0  0
   26.4302  -20.7057  -10.6749 N   0  0  0  0  0  0  0  0  0  0  0  0
   25.7146  -20.3937   -9.3921 C   0  0  1  0  0  0  0  0  0  0  0  0
   24.4969  -21.2866   -9.4129 C   0  0  0  0  0  0  0  0  0  0  0  0
   23.3924  -20.7754  -10.1818 C   0  0  0  0  0  0  0  0  0  0  0  0
   22.6484  -19.7941   -9.9861 O   0  0  0  0  0  0  0  0  0  0  0  0
   26.6489  -20.6907   -8.3012 C   0  0  0  0  0  0  0  0  0  0  0  0
   27.3819  -21.7368   -8.4188 O   0  0  0  0  0  0  0  0  0  0  0  0
   23.0647  -21.4857  -11.3751 O   0  0  0  0  0  0  0  0  0  0  0  0
   29.6169  -18.8194   -6.6409 C   0  0  0  0  0  0  0  0  0  0  0  0
   28.5980  -19.2361   -5.6218 C   0  0  1  0  0  0  0  0  0  0  0  0
   27.7781  -18.0535   -5.2060 C   0  0  0  0  0  0  0  0  0  0  0  0
   27.7440  -20.3921   -6.0736 C   0  0  2  0  0  0  0  0  0  0  0  0
   26.8305  -19.9463   -7.1447 N   0  0  0  0  0  0  0  0  0  0  0  0
   26.8583  -20.8268   -4.9451 C   0  0  0  0  0  0  0  0  0  0  0  0
   27.3992  -21.2846   -3.9151 O   0  0  0  0  0  0  0  0  0  0  0  0
   25.4837  -20.7465   -4.9898 O   0  0  0  0  0  0  0  0  0  0  0  0
  2  1  1  1
  3  2  1  0
  4  5  1  0
  4  2  1  0
  5  6  1  6
  5  7  1  0
  7  8  2  0
  9  7  1  0
  9 10  1  0
 10 14  1  0
 10 11  1  1
 12 16  1  0
 12 11  1  0
 13 12  2  0
 14 15  2  0
 18 17  1  6
 18 20  1  0
 19 18  1  0
 20 22  1  0
 20 21  1  6
 21 14  1  0
 22 23  2  0
 22 24  1  0
M  END
$$$$
