LDV.pdb
     RDKit          3D

 24 23  0  0  1  0  0  0  0  0999 V2000
   25.5963  -19.4995  -19.3607 C   0  0  0  0  0  0  0  0  0  0  0  0
   24.6121  -18.4250  -19.0050 C   0  0  2  0  0  0  0  0  0  0  0  0
   24.7189  -17.2341  -19.9417 C   0  0  0  0  0  0  0  0  0  0  0  0
   24.8654  -17.9870  -17.5762 C   0  0  0  0  0  0  0  0  0  0  0  0
   24.8452  -19.1230  -16.6027 C   0  0  2  0  0  0  0  0  0  0  0  0
   24.7789  -20.4267  -17.1987 N   0  0  0  0  0  0  0  0  0  0  0  0
   23.7183  -18.8827  -15.6432 C   0  0  0  0  0  0  0  0  0  0  0  0
   23.7138  -17.7635  -15.0634 O   0  0  0  0  0  0  0  0  0  0  0  0
   22.7228  -19.8467  -15.4011 N   0  0  0  0  0  0  0  0  0  0  0  0
   21.6698  -19.4997  -14.3883 C   0  0  1  0  0  0  0  0  0  0  0  0
   20.3721  -19.5585  -15.1585 C   0  0  0  0  0  0  0  0  0  0  0  0
   19.1908  -19.3737  -14.3568 C   0  0  0  0  0  0  0  0  0  0  0  0
   18.9916  -18.6645  -13.3507 O   0  0  0  0  0  0  0  0  0  0  0  0
   21.7678  -20.4946  -13.3152 C   0  0  0  0  0  0  0  0  0  0  0  0
   21.9653  -21.7152  -13.6567 O   0  0  0  0  0  0  0  0  0  0  0  0
   18.0333  -20.1099  -14.7495 O   0  0  0  0  0  0  0  0  0  0  0  0
   24.0012  -20.7917  -10.1116 C   0  0  0  0  0  0  0  0  0  0  0  0
   22.5456  -20.9430   -9.7821 C   0  0  1  0  0  0  0  0  0  0  0  0
   22.0374  -19.6948   -9.1285 C   0  0  0  0  0  0  0  0  0  0  0  0
   21.7073  -21.3489  -10.9663 C   0  0  2  0  0  0  0  0  0  0  0  0
   21.6755  -20.2505  -11.9526 N   0  0  0  0  0  0  0  0  0  0  0  0
   20.2862  -21.5371  -10.5284 C   0  0  0  0  0  0  0  0  0  0  0  0
   19.4598  -20.6423  -10.8107 O   0  0  0  0  0  0  0  0  0  0  0  0
   19.8504  -22.6436   -9.8328 O   0  0  0  0  0  0  0  0  0  0  0  0
  2  1  1  6
  3  2  1  0
  4  5  1  0
  4  2  1  0
  5  6  1  6
  5  7  1  0
  7  8  2  0
  9  7  1  0
  9 10  1  0
 10 14  1  0
 10 11  1  6
 12 16  1  0
 12 11  1  0
 13 12  2  0
 14 15  2  0
 18 17  1  6
 18 20  1  0
 19 18  1  0
 20 22  1  0
 20 21  1  6
 21 14  1  0
 22 23  2  0
 22 24  1  0
M  END
$$$$
