TNR.pdb
     RDKit          3D

 27 26  0  0  1  0  0  0  0  0999 V2000
    6.0205  -20.7173   21.4104 C   0  0  0  0  0  0  0  0  0  0  0  0
    4.7704  -21.1664   22.1365 C   0  0  1  0  0  0  0  0  0  0  0  0
    4.2356  -22.2104   21.3511 O   0  0  0  0  0  0  0  0  0  0  0  0
    5.1662  -21.7923   23.4568 C   0  0  2  0  0  0  0  0  0  0  0  0
    4.0894  -22.5444   24.0436 N   0  0  0  0  0  0  0  0  0  0  0  0
    5.6265  -20.7808   24.4342 C   0  0  0  0  0  0  0  0  0  0  0  0
    4.8299  -20.0433   25.0892 O   0  0  0  0  0  0  0  0  0  0  0  0
    7.1679  -19.8426   28.3613 N   0  0  0  0  0  0  0  0  0  0  0  0
    8.3243  -20.4156   27.7626 C   0  0  0  0  0  0  0  0  0  0  0  0
    9.1058  -21.0477   28.4992 O   0  0  0  0  0  0  0  0  0  0  0  0
    8.5904  -20.2715   26.3446 C   0  0  0  0  0  0  0  0  0  0  0  0
    7.5732  -19.5639   25.5183 C   0  0  2  0  0  0  0  0  0  0  0  0
    6.9931  -20.6175   24.6587 N   0  0  0  0  0  0  0  0  0  0  0  0
    8.1983  -18.5865   24.6115 C   0  0  0  0  0  0  0  0  0  0  0  0
    9.1017  -19.0460   23.8150 O   0  0  0  0  0  0  0  0  0  0  0  0
    6.7244  -12.5612   18.7195 N   0  0  0  0  0  0  0  0  0  0  0  0
    8.0781  -12.9981   18.7895 C   0  0  0  0  0  0  0  0  0  0  0  0
    8.7720  -13.0803   17.7122 N   0  0  0  0  0  0  0  0  0  0  0  0
    8.6007  -13.3233   20.0628 N   0  0  0  0  0  0  0  0  0  0  0  0
    7.8266  -14.0731   21.0209 C   0  0  0  0  0  0  0  0  0  0  0  0
    8.6369  -14.2687   22.3007 C   0  0  0  0  0  0  0  0  0  0  0  0
    7.8996  -15.1157   23.2888 C   0  0  0  0  0  0  0  0  0  0  0  0
    8.5892  -16.4123   23.5267 C   0  0  2  0  0  0  0  0  0  0  0  0
    7.8834  -17.1977   24.5439 N   0  0  0  0  0  0  0  0  0  0  0  0
    9.9757  -16.2233   23.9658 C   0  0  0  0  0  0  0  0  0  0  0  0
   10.9137  -15.7978   23.2286 O   0  0  0  0  0  0  0  0  0  0  0  0
   10.3436  -16.5218   25.2919 O   0  0  0  0  0  0  0  0  0  0  0  0
  2  1  1  6
  2  4  1  0
  3  2  1  0
  4  6  1  0
  4  5  1  1
  6  7  2  0
  8  9  1  0
  9 11  1  0
 10  9  2  0
 12 11  1  1
 13 12  1  0
 13  6  1  0
 14 15  2  0
 14 12  1  0
 16 17  1  0
 17 19  1  0
 18 17  2  0
 19 20  1  0
 21 20  1  0
 21 22  1  0
 23 22  1  1
 23 25  1  0
 23 24  1  0
 24 14  1  0
 25 27  1  0
 26 25  2  0
M  END
$$$$
