TNR.pdb
     RDKit          3D

 27 26  0  0  1  0  0  0  0  0999 V2000
    8.6797  -15.9766   17.0438 C   0  0  0  0  0  0  0  0  0  0  0  0
    8.7481  -14.4703   16.9084 C   0  0  1  0  0  0  0  0  0  0  0  0
    8.0519  -14.1693   15.7178 O   0  0  0  0  0  0  0  0  0  0  0  0
    7.9545  -13.8387   18.0321 C   0  0  2  0  0  0  0  0  0  0  0  0
    7.7766  -12.4241   17.8404 N   0  0  0  0  0  0  0  0  0  0  0  0
    8.5863  -14.0631   19.3514 C   0  0  0  0  0  0  0  0  0  0  0  0
    9.5762  -13.3875   19.7652 O   0  0  0  0  0  0  0  0  0  0  0  0
    9.4036  -16.7991   23.9219 N   0  0  0  0  0  0  0  0  0  0  0  0
    8.2134  -17.1728   23.2380 C   0  0  0  0  0  0  0  0  0  0  0  0
    7.5286  -18.0923   23.7262 O   0  0  0  0  0  0  0  0  0  0  0  0
    7.8065  -16.5110   22.0138 C   0  0  0  0  0  0  0  0  0  0  0  0
    8.6736  -15.4150   21.4988 C   0  0  2  0  0  0  0  0  0  0  0  0
    8.0843  -15.0569   20.1911 N   0  0  0  0  0  0  0  0  0  0  0  0
   10.0392  -15.8910   21.2217 C   0  0  0  0  0  0  0  0  0  0  0  0
   10.1499  -16.8139   20.3286 O   0  0  0  0  0  0  0  0  0  0  0  0
   17.0719  -14.2552   17.1543 N   0  0  0  0  0  0  0  0  0  0  0  0
   15.6695  -14.1599   16.9250 C   0  0  0  0  0  0  0  0  0  0  0  0
   15.2167  -14.2621   15.7278 N   0  0  0  0  0  0  0  0  0  0  0  0
   14.8309  -13.9560   18.0454 N   0  0  0  0  0  0  0  0  0  0  0  0
   15.3105  -14.1693   19.3885 C   0  0  0  0  0  0  0  0  0  0  0  0
   14.5293  -15.3078   20.0417 C   0  0  0  0  0  0  0  0  0  0  0  0
   13.2290  -14.8254   20.6020 C   0  0  0  0  0  0  0  0  0  0  0  0
   12.4985  -15.9096   21.3122 C   0  0  2  0  0  0  0  0  0  0  0  0
   11.2273  -15.4147   21.8495 N   0  0  0  0  0  0  0  0  0  0  0  0
   13.2843  -16.4669   22.4180 C   0  0  0  0  0  0  0  0  0  0  0  0
   14.4415  -16.9680   22.2993 O   0  0  0  0  0  0  0  0  0  0  0  0
   12.7606  -16.4702   23.7252 O   0  0  0  0  0  0  0  0  0  0  0  0
  2  1  1  1
  2  4  1  0
  3  2  1  0
  4  6  1  0
  4  5  1  6
  6  7  2  0
  8  9  1  0
  9 11  1  0
 10  9  2  0
 12 11  1  6
 13 12  1  0
 13  6  1  0
 14 15  2  0
 14 12  1  0
 16 17  1  0
 17 19  1  0
 18 17  2  0
 19 20  1  0
 21 20  1  0
 21 22  1  0
 23 22  1  1
 23 25  1  0
 23 24  1  0
 24 14  1  0
 25 27  1  0
 26 25  2  0
M  END
$$$$
