TNR.pdb
     RDKit          3D

 27 26  0  0  1  0  0  0  0  0999 V2000
    7.0375  -12.2989   18.9977 C   0  0  0  0  0  0  0  0  0  0  0  0
    8.1650  -13.0885   19.6279 C   0  0  1  0  0  0  0  0  0  0  0  0
    7.5363  -14.0440   20.4553 O   0  0  0  0  0  0  0  0  0  0  0  0
    8.8808  -13.8716   18.5482 C   0  0  2  0  0  0  0  0  0  0  0  0
    7.9670  -14.6158   17.7233 N   0  0  0  0  0  0  0  0  0  0  0  0
    9.8807  -14.8061   19.1114 C   0  0  0  0  0  0  0  0  0  0  0  0
    9.7991  -16.0644   18.9788 O   0  0  0  0  0  0  0  0  0  0  0  0
   15.1401  -16.0345   19.8646 N   0  0  0  0  0  0  0  0  0  0  0  0
   14.6187  -14.7779   20.2805 C   0  0  0  0  0  0  0  0  0  0  0  0
   15.3199  -14.0818   21.0398 O   0  0  0  0  0  0  0  0  0  0  0  0
   13.3161  -14.3179   19.8402 C   0  0  0  0  0  0  0  0  0  0  0  0
   12.1254  -15.1088   20.2584 C   0  0  2  0  0  0  0  0  0  0  0  0
   10.9681  -14.2990   19.8220 N   0  0  0  0  0  0  0  0  0  0  0  0
   12.0314  -15.2101   21.7244 C   0  0  0  0  0  0  0  0  0  0  0  0
   12.9751  -15.8632   22.3114 O   0  0  0  0  0  0  0  0  0  0  0  0
    8.3376  -20.1347   24.4267 N   0  0  0  0  0  0  0  0  0  0  0  0
    7.0149  -19.6069   24.4082 C   0  0  0  0  0  0  0  0  0  0  0  0
    6.0137  -20.4106   24.4273 N   0  0  0  0  0  0  0  0  0  0  0  0
    6.8668  -18.2009   24.3714 N   0  0  0  0  0  0  0  0  0  0  0  0
    7.2563  -17.4369   23.2120 C   0  0  0  0  0  0  0  0  0  0  0  0
    8.7514  -17.6143   22.9545 C   0  0  0  0  0  0  0  0  0  0  0  0
    9.3380  -16.4066   22.2951 C   0  0  0  0  0  0  0  0  0  0  0  0
   10.1372  -15.5911   23.2488 C   0  0  2  0  0  0  0  0  0  0  0  0
   10.9990  -14.6471   22.5305 N   0  0  0  0  0  0  0  0  0  0  0  0
   10.9804  -16.4256   24.1110 C   0  0  0  0  0  0  0  0  0  0  0  0
   10.8177  -16.5672   25.3592 O   0  0  0  0  0  0  0  0  0  0  0  0
   12.0618  -17.1414   23.5623 O   0  0  0  0  0  0  0  0  0  0  0  0
  2  1  1  6
  2  4  1  0
  3  2  1  0
  4  6  1  0
  4  5  1  1
  6  7  2  0
  8  9  1  0
  9 11  1  0
 10  9  2  0
 12 11  1  1
 13 12  1  0
 13  6  1  0
 14 15  2  0
 14 12  1  0
 16 17  1  0
 17 19  1  0
 18 17  2  0
 19 20  1  0
 21 20  1  0
 21 22  1  0
 23 22  1  6
 23 25  1  0
 23 24  1  0
 24 14  1  0
 25 27  1  0
 26 25  2  0
M  END
$$$$
