TNR.pdb
     RDKit          3D

 27 26  0  0  1  0  0  0  0  0999 V2000
    9.6710  -13.6169   17.9091 C   0  0  0  0  0  0  0  0  0  0  0  0
    9.2509  -14.8465   17.1324 C   0  0  1  0  0  0  0  0  0  0  0  0
    8.2543  -14.4016   16.2370 O   0  0  0  0  0  0  0  0  0  0  0  0
   10.4111  -15.3080   16.2764 C   0  0  2  0  0  0  0  0  0  0  0  0
   10.0394  -16.3820   15.3945 N   0  0  0  0  0  0  0  0  0  0  0  0
   11.5650  -15.7433   17.0945 C   0  0  0  0  0  0  0  0  0  0  0  0
   11.6221  -16.8785   17.6563 O   0  0  0  0  0  0  0  0  0  0  0  0
   16.2867  -15.0229   19.6117 N   0  0  0  0  0  0  0  0  0  0  0  0
   16.0853  -14.1791   18.4841 C   0  0  0  0  0  0  0  0  0  0  0  0
   17.0384  -13.4656   18.1163 O   0  0  0  0  0  0  0  0  0  0  0  0
   14.8164  -14.1454   17.7834 C   0  0  0  0  0  0  0  0  0  0  0  0
   13.7834  -15.1445   18.1744 C   0  0  2  0  0  0  0  0  0  0  0  0
   12.6473  -14.8808   17.2661 N   0  0  0  0  0  0  0  0  0  0  0  0
   13.2874  -14.9031   19.5397 C   0  0  0  0  0  0  0  0  0  0  0  0
   12.7687  -13.7438   19.7600 O   0  0  0  0  0  0  0  0  0  0  0  0
    6.2160  -13.9603   21.0481 N   0  0  0  0  0  0  0  0  0  0  0  0
    7.4048  -13.2508   20.7138 C   0  0  0  0  0  0  0  0  0  0  0  0
    7.3317  -12.2178   19.9548 N   0  0  0  0  0  0  0  0  0  0  0  0
    8.6268  -13.7254   21.2445 N   0  0  0  0  0  0  0  0  0  0  0  0
    8.6878  -14.9481   22.0067 C   0  0  0  0  0  0  0  0  0  0  0  0
   10.1207  -15.1949   22.4743 C   0  0  0  0  0  0  0  0  0  0  0  0
   11.0491  -15.3742   21.3152 C   0  0  0  0  0  0  0  0  0  0  0  0
   12.4561  -15.5636   21.7600 C   0  0  2  0  0  0  0  0  0  0  0  0
   13.3308  -15.8376   20.6156 N   0  0  0  0  0  0  0  0  0  0  0  0
   12.5847  -16.6674   22.7171 C   0  0  0  0  0  0  0  0  0  0  0  0
   13.2682  -17.7156   22.5210 O   0  0  0  0  0  0  0  0  0  0  0  0
   11.9208  -16.6077   23.9575 O   0  0  0  0  0  0  0  0  0  0  0  0
  2  1  1  1
  2  4  1  0
  3  2  1  0
  4  6  1  0
  4  5  1  1
  6  7  2  0
  8  9  1  0
  9 11  1  0
 10  9  2  0
 12 11  1  6
 13 12  1  0
 13  6  1  0
 14 15  2  0
 14 12  1  0
 16 17  1  0
 17 19  1  0
 18 17  2  0
 19 20  1  0
 21 20  1  0
 21 22  1  0
 23 22  1  6
 23 25  1  0
 23 24  1  0
 24 14  1  0
 25 27  1  0
 26 25  2  0
M  END
$$$$
