TNR.pdb
     RDKit          3D

 27 26  0  0  1  0  0  0  0  0999 V2000
    7.2386  -12.2150   19.8797 C   0  0  0  0  0  0  0  0  0  0  0  0
    8.3616  -13.2282   19.9436 C   0  0  1  0  0  0  0  0  0  0  0  0
    7.7613  -14.4249   20.3914 O   0  0  0  0  0  0  0  0  0  0  0  0
    8.8558  -13.5041   18.5396 C   0  0  2  0  0  0  0  0  0  0  0  0
    7.8039  -13.9733   17.6779 N   0  0  0  0  0  0  0  0  0  0  0  0
    9.9582  -14.4914   18.5238 C   0  0  0  0  0  0  0  0  0  0  0  0
    9.8404  -15.6476   18.0172 O   0  0  0  0  0  0  0  0  0  0  0  0
   15.9604  -13.9670   19.4327 N   0  0  0  0  0  0  0  0  0  0  0  0
   14.8573  -14.7004   18.9138 C   0  0  0  0  0  0  0  0  0  0  0  0
   15.0723  -15.8563   18.5009 O   0  0  0  0  0  0  0  0  0  0  0  0
   13.5263  -14.1276   18.8635 C   0  0  0  0  0  0  0  0  0  0  0  0
   12.3714  -15.0402   19.0909 C   0  0  2  0  0  0  0  0  0  0  0  0
   11.1889  -14.1531   19.0858 N   0  0  0  0  0  0  0  0  0  0  0  0
   12.4230  -15.6546   20.4281 C   0  0  0  0  0  0  0  0  0  0  0  0
   12.2909  -14.8524   21.4284 O   0  0  0  0  0  0  0  0  0  0  0  0
    9.1710  -23.0729   21.0017 N   0  0  0  0  0  0  0  0  0  0  0  0
    8.4771  -21.9291   20.5132 C   0  0  0  0  0  0  0  0  0  0  0  0
    7.3747  -22.0845   19.8734 N   0  0  0  0  0  0  0  0  0  0  0  0
    9.0443  -20.6579   20.7626 N   0  0  0  0  0  0  0  0  0  0  0  0
   10.3261  -20.5236   21.4096 C   0  0  0  0  0  0  0  0  0  0  0  0
   10.7488  -19.0559   21.4199 C   0  0  0  0  0  0  0  0  0  0  0  0
   12.0066  -18.8563   22.2045 C   0  0  0  0  0  0  0  0  0  0  0  0
   12.5058  -17.4588   22.0999 C   0  0  2  0  0  0  0  0  0  0  0  0
   12.5991  -17.0436   20.6968 N   0  0  0  0  0  0  0  0  0  0  0  0
   13.8256  -17.3002   22.7195 C   0  0  0  0  0  0  0  0  0  0  0  0
   14.0575  -17.4100   23.9599 O   0  0  0  0  0  0  0  0  0  0  0  0
   14.9487  -17.0038   21.9234 O   0  0  0  0  0  0  0  0  0  0  0  0
  2  1  1  6
  2  4  1  0
  3  2  1  0
  4  6  1  0
  4  5  1  6
  6  7  2  0
  8  9  1  0
  9 11  1  0
 10  9  2  0
 12 11  1  1
 13 12  1  0
 13  6  1  0
 14 15  2  0
 14 12  1  0
 16 17  1  0
 17 19  1  0
 18 17  2  0
 19 20  1  0
 21 20  1  0
 21 22  1  0
 23 22  1  6
 23 25  1  0
 23 24  1  0
 24 14  1  0
 25 27  1  0
 26 25  2  0
M  END
$$$$
