TNR.pdb
     RDKit          3D

 27 26  0  0  1  0  0  0  0  0999 V2000
    8.6692  -12.4168   20.0489 C   0  0  0  0  0  0  0  0  0  0  0  0
    7.9576  -13.1463   18.9294 C   0  0  1  0  0  0  0  0  0  0  0  0
    7.5856  -12.1447   18.0066 O   0  0  0  0  0  0  0  0  0  0  0  0
    8.9513  -14.0337   18.2106 C   0  0  2  0  0  0  0  0  0  0  0  0
    8.4015  -14.5974   17.0067 N   0  0  0  0  0  0  0  0  0  0  0  0
    9.4357  -15.1351   19.0723 C   0  0  0  0  0  0  0  0  0  0  0  0
    9.2549  -16.3586   18.7933 O   0  0  0  0  0  0  0  0  0  0  0  0
   12.6812  -14.3038   19.7645 N   0  0  0  0  0  0  0  0  0  0  0  0
   12.7555  -15.7244   19.7473 C   0  0  0  0  0  0  0  0  0  0  0  0
   13.7333  -16.2470   19.1784 O   0  0  0  0  0  0  0  0  0  0  0  0
   11.7311  -16.5417   20.3677 C   0  0  0  0  0  0  0  0  0  0  0  0
   10.6823  -15.8482   21.1660 C   0  0  2  0  0  0  0  0  0  0  0  0
   10.1243  -14.8337   20.2469 N   0  0  0  0  0  0  0  0  0  0  0  0
   11.2654  -15.1071   22.2969 C   0  0  0  0  0  0  0  0  0  0  0  0
   12.4762  -14.6929   22.1420 O   0  0  0  0  0  0  0  0  0  0  0  0
    6.1240  -20.4981   25.9783 N   0  0  0  0  0  0  0  0  0  0  0  0
    7.0693  -20.1285   26.9774 C   0  0  0  0  0  0  0  0  0  0  0  0
    6.9369  -20.5827   28.1711 N   0  0  0  0  0  0  0  0  0  0  0  0
    8.1253  -19.2672   26.5992 N   0  0  0  0  0  0  0  0  0  0  0  0
    8.2313  -18.7581   25.2541 C   0  0  0  0  0  0  0  0  0  0  0  0
    9.5887  -18.0848   25.0616 C   0  0  0  0  0  0  0  0  0  0  0  0
    9.4680  -16.8389   24.2428 C   0  0  0  0  0  0  0  0  0  0  0  0
   10.5721  -15.8831   24.5272 C   0  0  2  0  0  0  0  0  0  0  0  0
   10.6044  -14.8130   23.5254 N   0  0  0  0  0  0  0  0  0  0  0  0
   11.8806  -16.5453   24.5412 C   0  0  0  0  0  0  0  0  0  0  0  0
   12.1161  -17.6648   25.0849 O   0  0  0  0  0  0  0  0  0  0  0  0
   12.9877  -15.9354   23.9205 O   0  0  0  0  0  0  0  0  0  0  0  0
  2  1  1  1
  2  4  1  0
  3  2  1  0
  4  6  1  0
  4  5  1  6
  6  7  2  0
  8  9  1  0
  9 11  1  0
 10  9  2  0
 12 11  1  6
 13 12  1  0
 13  6  1  0
 14 15  2  0
 14 12  1  0
 16 17  1  0
 17 19  1  0
 18 17  2  0
 19 20  1  0
 21 20  1  0
 21 22  1  0
 23 22  1  6
 23 25  1  0
 23 24  1  0
 24 14  1  0
 25 27  1  0
 26 25  2  0
M  END
$$$$
