TNR.pdb
     RDKit          3D

 27 26  0  0  1  0  0  0  0  0999 V2000
    8.6305  -19.6804   16.3572 C   0  0  0  0  0  0  0  0  0  0  0  0
    9.0108  -18.7872   17.5188 C   0  0  1  0  0  0  0  0  0  0  0  0
   10.3127  -19.1882   17.8891 O   0  0  0  0  0  0  0  0  0  0  0  0
    9.1334  -17.3618   17.0241 C   0  0  2  0  0  0  0  0  0  0  0  0
   10.0633  -17.2459   15.9327 N   0  0  0  0  0  0  0  0  0  0  0  0
    9.5474  -16.4348   18.1009 C   0  0  0  0  0  0  0  0  0  0  0  0
   10.7613  -16.1692   18.3524 O   0  0  0  0  0  0  0  0  0  0  0  0
    8.6348  -12.5736   18.4950 N   0  0  0  0  0  0  0  0  0  0  0  0
    7.5811  -12.9317   19.3812 C   0  0  0  0  0  0  0  0  0  0  0  0
    6.5760  -12.1958   19.4142 O   0  0  0  0  0  0  0  0  0  0  0  0
    7.6681  -14.1107   20.2205 C   0  0  0  0  0  0  0  0  0  0  0  0
    8.8669  -14.9813   20.0683 C   0  0  2  0  0  0  0  0  0  0  0  0
    8.5734  -15.8157   18.8838 N   0  0  0  0  0  0  0  0  0  0  0  0
    9.0095  -15.9083   21.2034 C   0  0  0  0  0  0  0  0  0  0  0  0
    8.4090  -17.0432   21.0902 O   0  0  0  0  0  0  0  0  0  0  0  0
   14.0657  -21.8517   21.6955 N   0  0  0  0  0  0  0  0  0  0  0  0
   13.3159  -22.0849   22.8837 C   0  0  0  0  0  0  0  0  0  0  0  0
   13.3419  -23.2470   23.4293 N   0  0  0  0  0  0  0  0  0  0  0  0
   12.5693  -21.0073   23.4140 N   0  0  0  0  0  0  0  0  0  0  0  0
   12.4774  -19.7465   22.7200 C   0  0  0  0  0  0  0  0  0  0  0  0
   11.4742  -18.8384   23.4283 C   0  0  0  0  0  0  0  0  0  0  0  0
   11.0697  -17.6903   22.5589 C   0  0  0  0  0  0  0  0  0  0  0  0
   10.0708  -16.8156   23.2301 C   0  0  2  0  0  0  0  0  0  0  0  0
    9.7516  -15.6542   22.3940 N   0  0  0  0  0  0  0  0  0  0  0  0
   10.5494  -16.3340   24.5300 C   0  0  0  0  0  0  0  0  0  0  0  0
   10.9587  -17.0795   25.4688 O   0  0  0  0  0  0  0  0  0  0  0  0
   10.5761  -14.9534   24.8057 O   0  0  0  0  0  0  0  0  0  0  0  0
  2  1  1  6
  2  4  1  0
  3  2  1  0
  4  6  1  0
  4  5  1  6
  6  7  2  0
  8  9  1  0
  9 11  1  0
 10  9  2  0
 12 11  1  1
 13 12  1  0
 13  6  1  0
 14 15  2  0
 14 12  1  0
 16 17  1  0
 17 19  1  0
 18 17  2  0
 19 20  1  0
 21 20  1  0
 21 22  1  0
 23 22  1  6
 23 25  1  0
 23 24  1  0
 24 14  1  0
 25 27  1  0
 26 25  2  0
M  END
$$$$
