TNR.pdb
     RDKit          3D

 27 26  0  0  1  0  0  0  0  0999 V2000
   10.7226  -18.5970   15.4087 C   0  0  0  0  0  0  0  0  0  0  0  0
    9.8714  -17.8771   16.4329 C   0  0  1  0  0  0  0  0  0  0  0  0
   10.4027  -18.2464   17.6877 O   0  0  0  0  0  0  0  0  0  0  0  0
   10.0986  -16.3863   16.3011 C   0  0  2  0  0  0  0  0  0  0  0  0
   11.1581  -16.0798   15.3777 N   0  0  0  0  0  0  0  0  0  0  0  0
   10.4068  -15.7550   17.6037 C   0  0  0  0  0  0  0  0  0  0  0  0
   11.5562  -15.3083   17.8980 O   0  0  0  0  0  0  0  0  0  0  0  0
    8.5884  -12.5165   18.4710 N   0  0  0  0  0  0  0  0  0  0  0  0
    7.7318  -13.1881   19.3871 C   0  0  0  0  0  0  0  0  0  0  0  0
    6.5850  -12.7292   19.5516 O   0  0  0  0  0  0  0  0  0  0  0  0
    8.1727  -14.3660   20.1084 C   0  0  0  0  0  0  0  0  0  0  0  0
    9.5417  -14.8791   19.8242 C   0  0  2  0  0  0  0  0  0  0  0  0
    9.4011  -15.6368   18.5626 N   0  0  0  0  0  0  0  0  0  0  0  0
    9.9781  -15.8482   20.8434 C   0  0  0  0  0  0  0  0  0  0  0  0
    9.1602  -16.8108   21.1005 O   0  0  0  0  0  0  0  0  0  0  0  0
   14.1013  -22.6353   19.5284 N   0  0  0  0  0  0  0  0  0  0  0  0
   14.5158  -21.3001   19.8000 C   0  0  0  0  0  0  0  0  0  0  0  0
   15.7564  -20.9885   19.6878 N   0  0  0  0  0  0  0  0  0  0  0  0
   13.5245  -20.3675   20.1840 N   0  0  0  0  0  0  0  0  0  0  0  0
   13.8517  -18.9844   20.4281 C   0  0  0  0  0  0  0  0  0  0  0  0
   12.5862  -18.2099   20.7906 C   0  0  0  0  0  0  0  0  0  0  0  0
   12.6644  -17.6563   22.1780 C   0  0  0  0  0  0  0  0  0  0  0  0
   11.4482  -16.8747   22.5292 C   0  0  2  0  0  0  0  0  0  0  0  0
   11.2152  -15.8078   21.5508 N   0  0  0  0  0  0  0  0  0  0  0  0
   11.5514  -16.2689   23.8608 C   0  0  0  0  0  0  0  0  0  0  0  0
   11.5789  -15.0227   24.0856 O   0  0  0  0  0  0  0  0  0  0  0  0
   11.6287  -17.0865   25.0047 O   0  0  0  0  0  0  0  0  0  0  0  0
  2  1  1  6
  2  4  1  0
  3  2  1  0
  4  6  1  0
  4  5  1  6
  6  7  2  0
  8  9  1  0
  9 11  1  0
 10  9  2  0
 12 11  1  1
 13 12  1  0
 13  6  1  0
 14 15  2  0
 14 12  1  0
 16 17  1  0
 17 19  1  0
 18 17  2  0
 19 20  1  0
 21 20  1  0
 21 22  1  0
 23 22  1  6
 23 25  1  0
 23 24  1  0
 24 14  1  0
 25 27  1  0
 26 25  2  0
M  END
$$$$
