TNR.pdb
     RDKit          3D

 27 26  0  0  1  0  0  0  0  0999 V2000
    9.3764  -12.7477   19.3904 C   0  0  0  0  0  0  0  0  0  0  0  0
    8.3097  -13.3015   18.4700 C   0  0  1  0  0  0  0  0  0  0  0  0
    8.3123  -12.4541   17.3409 O   0  0  0  0  0  0  0  0  0  0  0  0
    8.7456  -14.6642   17.9754 C   0  0  2  0  0  0  0  0  0  0  0  0
    7.8587  -15.1839   16.9691 N   0  0  0  0  0  0  0  0  0  0  0  0
    8.8434  -15.6485   19.0762 C   0  0  0  0  0  0  0  0  0  0  0  0
    7.8439  -16.2944   19.5136 O   0  0  0  0  0  0  0  0  0  0  0  0
   11.4609  -18.8130   22.5503 N   0  0  0  0  0  0  0  0  0  0  0  0
   12.2600  -18.2766   21.5026 C   0  0  0  0  0  0  0  0  0  0  0  0
   13.4413  -18.6644   21.4178 O   0  0  0  0  0  0  0  0  0  0  0  0
   11.7244  -17.3107   20.5633 C   0  0  0  0  0  0  0  0  0  0  0  0
   10.3084  -16.8847   20.7410 C   0  0  2  0  0  0  0  0  0  0  0  0
   10.0813  -15.8904   19.6709 N   0  0  0  0  0  0  0  0  0  0  0  0
   10.1136  -16.1738   22.0157 C   0  0  0  0  0  0  0  0  0  0  0  0
   10.7730  -15.0758   22.1613 O   0  0  0  0  0  0  0  0  0  0  0  0
    6.0014  -10.4119   27.5015 N   0  0  0  0  0  0  0  0  0  0  0  0
    6.1254  -11.6891   26.8835 C   0  0  0  0  0  0  0  0  0  0  0  0
    5.2564  -12.6001   27.1360 N   0  0  0  0  0  0  0  0  0  0  0  0
    7.2158  -11.8938   26.0066 N   0  0  0  0  0  0  0  0  0  0  0  0
    7.1372  -12.8414   24.9224 C   0  0  0  0  0  0  0  0  0  0  0  0
    7.5017  -14.2361   25.4273 C   0  0  0  0  0  0  0  0  0  0  0  0
    7.6918  -15.1937   24.2940 C   0  0  0  0  0  0  0  0  0  0  0  0
    9.1002  -15.6637   24.1996 C   0  0  2  0  0  0  0  0  0  0  0  0
    9.2635  -16.5956   23.0796 N   0  0  0  0  0  0  0  0  0  0  0  0
    9.5382  -16.3337   25.4285 C   0  0  0  0  0  0  0  0  0  0  0  0
    9.7646  -17.5757   25.5309 O   0  0  0  0  0  0  0  0  0  0  0  0
    9.7355  -15.5890   26.6073 O   0  0  0  0  0  0  0  0  0  0  0  0
  2  1  1  1
  2  4  1  0
  3  2  1  0
  4  6  1  0
  4  5  1  6
  6  7  2  0
  8  9  1  0
  9 11  1  0
 10  9  2  0
 12 11  1  1
 13 12  1  0
 13  6  1  0
 14 15  2  0
 14 12  1  0
 16 17  1  0
 17 19  1  0
 18 17  2  0
 19 20  1  0
 21 20  1  0
 21 22  1  0
 23 22  1  1
 23 25  1  0
 23 24  1  0
 24 14  1  0
 25 27  1  0
 26 25  2  0
M  END
$$$$
