TNR.pdb
     RDKit          3D

 27 26  0  0  1  0  0  0  0  0999 V2000
   13.4494  -17.4351   15.8437 C   0  0  0  0  0  0  0  0  0  0  0  0
   12.0845  -17.7188   15.2535 C   0  0  1  0  0  0  0  0  0  0  0  0
   12.2218  -17.4935   13.8667 O   0  0  0  0  0  0  0  0  0  0  0  0
   11.7760  -19.1922   15.4128 C   0  0  2  0  0  0  0  0  0  0  0  0
   10.5974  -19.5801   14.6850 N   0  0  0  0  0  0  0  0  0  0  0  0
   11.6036  -19.5723   16.8327 C   0  0  0  0  0  0  0  0  0  0  0  0
   10.4735  -19.5981   17.4067 O   0  0  0  0  0  0  0  0  0  0  0  0
   14.9400  -23.0660   18.2499 N   0  0  0  0  0  0  0  0  0  0  0  0
   13.8571  -22.4369   18.9247 C   0  0  0  0  0  0  0  0  0  0  0  0
   12.8604  -23.1334   19.1969 O   0  0  0  0  0  0  0  0  0  0  0  0
   13.9052  -21.0333   19.2852 C   0  0  0  0  0  0  0  0  0  0  0  0
   12.6867  -20.2134   19.0377 C   0  0  2  0  0  0  0  0  0  0  0  0
   12.7221  -19.9215   17.5889 N   0  0  0  0  0  0  0  0  0  0  0  0
   12.7614  -18.9131   19.7246 C   0  0  0  0  0  0  0  0  0  0  0  0
   13.1848  -17.9205   19.0194 O   0  0  0  0  0  0  0  0  0  0  0  0
    7.4420  -13.3424   18.7701 N   0  0  0  0  0  0  0  0  0  0  0  0
    8.3445  -12.6525   19.6290 C   0  0  0  0  0  0  0  0  0  0  0  0
    8.2959  -11.3712   19.6985 N   0  0  0  0  0  0  0  0  0  0  0  0
    9.2634  -13.4249   20.3768 N   0  0  0  0  0  0  0  0  0  0  0  0
    9.5445  -14.7964   20.0310 C   0  0  0  0  0  0  0  0  0  0  0  0
   10.6473  -15.3421   20.9360 C   0  0  0  0  0  0  0  0  0  0  0  0
   11.0093  -16.7461   20.5684 C   0  0  0  0  0  0  0  0  0  0  0  0
   12.0865  -17.2845   21.4419 C   0  0  2  0  0  0  0  0  0  0  0  0
   12.4030  -18.6704   21.0830 N   0  0  0  0  0  0  0  0  0  0  0  0
   11.7133  -17.2459   22.8597 C   0  0  0  0  0  0  0  0  0  0  0  0
   11.2519  -18.2297   23.5107 O   0  0  0  0  0  0  0  0  0  0  0  0
   11.8582  -16.0544   23.5961 O   0  0  0  0  0  0  0  0  0  0  0  0
  2  1  1  1
  2  4  1  0
  3  2  1  0
  4  6  1  0
  4  5  1  6
  6  7  2  0
  8  9  1  0
  9 11  1  0
 10  9  2  0
 12 11  1  1
 13 12  1  0
 13  6  1  0
 14 15  2  0
 14 12  1  0
 16 17  1  0
 17 19  1  0
 18 17  2  0
 19 20  1  0
 21 20  1  0
 21 22  1  0
 23 22  1  6
 23 25  1  0
 23 24  1  0
 24 14  1  0
 25 27  1  0
 26 25  2  0
M  END
$$$$
