TNR.pdb
     RDKit          3D

 27 26  0  0  1  0  0  0  0  0999 V2000
   10.5686  -13.9266   19.0213 C   0  0  0  0  0  0  0  0  0  0  0  0
    9.6716  -14.0500   17.8080 C   0  0  1  0  0  0  0  0  0  0  0  0
    9.9426  -15.3268   17.2702 O   0  0  0  0  0  0  0  0  0  0  0  0
    8.2286  -14.0823   18.2642 C   0  0  2  0  0  0  0  0  0  0  0  0
    7.7793  -12.7975   18.7299 N   0  0  0  0  0  0  0  0  0  0  0  0
    8.0078  -15.0792   19.3355 C   0  0  0  0  0  0  0  0  0  0  0  0
    8.1234  -14.8035   20.5676 O   0  0  0  0  0  0  0  0  0  0  0  0
    5.2947  -20.0767   20.4124 N   0  0  0  0  0  0  0  0  0  0  0  0
    6.5885  -19.8322   19.8736 C   0  0  0  0  0  0  0  0  0  0  0  0
    7.4547  -20.7157   20.0219 O   0  0  0  0  0  0  0  0  0  0  0  0
    6.8952  -18.5988   19.1759 C   0  0  0  0  0  0  0  0  0  0  0  0
    7.4594  -17.4747   19.9736 C   0  0  2  0  0  0  0  0  0  0  0  0
    7.6556  -16.3847   18.9944 N   0  0  0  0  0  0  0  0  0  0  0  0
    8.7942  -17.8030   20.5016 C   0  0  0  0  0  0  0  0  0  0  0  0
    9.6552  -18.2333   19.6442 O   0  0  0  0  0  0  0  0  0  0  0  0
   13.8265  -15.9264   19.1822 N   0  0  0  0  0  0  0  0  0  0  0  0
   13.3421  -14.5891   19.2557 C   0  0  0  0  0  0  0  0  0  0  0  0
   13.4827  -13.8099   18.2448 N   0  0  0  0  0  0  0  0  0  0  0  0
   12.7182  -14.1791   20.4568 N   0  0  0  0  0  0  0  0  0  0  0  0
   12.6309  -15.0611   21.5943 C   0  0  0  0  0  0  0  0  0  0  0  0
   11.6111  -16.1637   21.3165 C   0  0  0  0  0  0  0  0  0  0  0  0
   11.4768  -17.0889   22.4841 C   0  0  0  0  0  0  0  0  0  0  0  0
   10.5296  -18.2006   22.2007 C   0  0  2  0  0  0  0  0  0  0  0  0
    9.2019  -17.6789   21.8621 N   0  0  0  0  0  0  0  0  0  0  0  0
   10.3934  -19.1096   23.3435 C   0  0  0  0  0  0  0  0  0  0  0  0
    9.3408  -19.2458   24.0349 O   0  0  0  0  0  0  0  0  0  0  0  0
   11.4808  -19.9105   23.7426 O   0  0  0  0  0  0  0  0  0  0  0  0
  2  1  1  1
  2  4  1  0
  3  2  1  0
  4  6  1  0
  4  5  1  1
  6  7  2  0
  8  9  1  0
  9 11  1  0
 10  9  2  0
 12 11  1  6
 13 12  1  0
 13  6  1  0
 14 15  2  0
 14 12  1  0
 16 17  1  0
 17 19  1  0
 18 17  2  0
 19 20  1  0
 21 20  1  0
 21 22  1  0
 23 22  1  1
 23 25  1  0
 23 24  1  0
 24 14  1  0
 25 27  1  0
 26 25  2  0
M  END
$$$$
