TNR.pdb
     RDKit          3D

 27 26  0  0  1  0  0  0  0  0999 V2000
    9.2062  -16.2614   19.6148 C   0  0  0  0  0  0  0  0  0  0  0  0
    8.7361  -17.6798   19.3718 C   0  0  1  0  0  0  0  0  0  0  0  0
    8.0308  -17.6366   18.1497 O   0  0  0  0  0  0  0  0  0  0  0  0
    9.9416  -18.5634   19.1318 C   0  0  2  0  0  0  0  0  0  0  0  0
    9.5719  -19.8560   18.6199 N   0  0  0  0  0  0  0  0  0  0  0  0
   10.7448  -18.7515   20.3606 C   0  0  0  0  0  0  0  0  0  0  0  0
   10.5495  -19.7060   21.1719 O   0  0  0  0  0  0  0  0  0  0  0  0
   15.2553  -19.2028   20.6974 N   0  0  0  0  0  0  0  0  0  0  0  0
   14.7288  -17.8998   20.4758 C   0  0  0  0  0  0  0  0  0  0  0  0
   15.0148  -17.3336   19.4033 O   0  0  0  0  0  0  0  0  0  0  0  0
   13.8885  -17.2474   21.4609 C   0  0  0  0  0  0  0  0  0  0  0  0
   12.6261  -17.9321   21.8556 C   0  0  2  0  0  0  0  0  0  0  0  0
   11.7665  -17.8495   20.6557 N   0  0  0  0  0  0  0  0  0  0  0  0
   11.9230  -17.1976   22.9207 C   0  0  0  0  0  0  0  0  0  0  0  0
   12.4210  -17.2978   24.1054 O   0  0  0  0  0  0  0  0  0  0  0  0
    8.0612  -12.0156   19.6734 N   0  0  0  0  0  0  0  0  0  0  0  0
    7.5430  -13.3196   19.4291 C   0  0  0  0  0  0  0  0  0  0  0  0
    7.4822  -13.7597   18.2244 N   0  0  0  0  0  0  0  0  0  0  0  0
    7.1159  -14.0785   20.5434 N   0  0  0  0  0  0  0  0  0  0  0  0
    7.6422  -13.8322   21.8633 C   0  0  0  0  0  0  0  0  0  0  0  0
    8.7197  -14.8640   22.1910 C   0  0  0  0  0  0  0  0  0  0  0  0
    9.2579  -14.6700   23.5731 C   0  0  0  0  0  0  0  0  0  0  0  0
   10.2257  -15.7376   23.9428 C   0  0  2  0  0  0  0  0  0  0  0  0
   10.7583  -16.3943   22.7450 N   0  0  0  0  0  0  0  0  0  0  0  0
    9.6143  -16.7594   24.7991 C   0  0  0  0  0  0  0  0  0  0  0  0
    9.2849  -17.9201   24.4136 O   0  0  0  0  0  0  0  0  0  0  0  0
    9.3530  -16.4810   26.1545 O   0  0  0  0  0  0  0  0  0  0  0  0
  2  1  1  6
  2  4  1  0
  3  2  1  0
  4  6  1  0
  4  5  1  1
  6  7  2  0
  8  9  1  0
  9 11  1  0
 10  9  2  0
 12 11  1  6
 13 12  1  0
 13  6  1  0
 14 15  2  0
 14 12  1  0
 16 17  1  0
 17 19  1  0
 18 17  2  0
 19 20  1  0
 21 20  1  0
 21 22  1  0
 23 22  1  6
 23 25  1  0
 23 24  1  0
 24 14  1  0
 25 27  1  0
 26 25  2  0
M  END
$$$$
