TNR.pdb
     RDKit          3D

 27 26  0  0  1  0  0  0  0  0999 V2000
    7.7265  -18.0615   17.3801 C   0  0  0  0  0  0  0  0  0  0  0  0
    8.9348  -17.4900   16.6693 C   0  0  1  0  0  0  0  0  0  0  0  0
    9.3426  -16.3876   17.4511 O   0  0  0  0  0  0  0  0  0  0  0  0
   10.0652  -18.4947   16.7350 C   0  0  2  0  0  0  0  0  0  0  0  0
    9.8481  -19.6119   15.8552 N   0  0  0  0  0  0  0  0  0  0  0  0
   10.2739  -19.0055   18.1082 C   0  0  0  0  0  0  0  0  0  0  0  0
    9.3192  -19.3534   18.8665 O   0  0  0  0  0  0  0  0  0  0  0  0
   12.1473  -22.3807   19.2176 N   0  0  0  0  0  0  0  0  0  0  0  0
   13.3190  -21.5873   19.3648 C   0  0  0  0  0  0  0  0  0  0  0  0
   14.4134  -22.1113   19.0812 O   0  0  0  0  0  0  0  0  0  0  0  0
   13.2486  -20.2157   19.8295 C   0  0  0  0  0  0  0  0  0  0  0  0
   11.8994  -19.5999   19.9659 C   0  0  2  0  0  0  0  0  0  0  0  0
   11.5711  -19.1170   18.6078 N   0  0  0  0  0  0  0  0  0  0  0  0
   11.9334  -18.4097   20.8322 C   0  0  0  0  0  0  0  0  0  0  0  0
   12.6195  -17.4088   20.3973 O   0  0  0  0  0  0  0  0  0  0  0  0
    6.4091  -13.4278   20.2190 N   0  0  0  0  0  0  0  0  0  0  0  0
    7.5978  -13.3228   19.4417 C   0  0  0  0  0  0  0  0  0  0  0  0
    7.5802  -12.6499   18.3482 N   0  0  0  0  0  0  0  0  0  0  0  0
    8.7584  -13.9735   19.9210 N   0  0  0  0  0  0  0  0  0  0  0  0
    8.7223  -14.7906   21.1087 C   0  0  0  0  0  0  0  0  0  0  0  0
   10.1071  -15.3777   21.3746 C   0  0  0  0  0  0  0  0  0  0  0  0
   10.1177  -16.2074   22.6192 C   0  0  0  0  0  0  0  0  0  0  0  0
   11.3824  -16.9785   22.7570 C   0  0  2  0  0  0  0  0  0  0  0  0
   11.2737  -18.2793   22.0894 N   0  0  0  0  0  0  0  0  0  0  0  0
   11.7354  -17.2061   24.1622 C   0  0  0  0  0  0  0  0  0  0  0  0
   11.6714  -18.3267   24.7491 O   0  0  0  0  0  0  0  0  0  0  0  0
   12.1828  -16.1358   24.9604 O   0  0  0  0  0  0  0  0  0  0  0  0
  2  1  1  1
  2  4  1  0
  3  2  1  0
  4  6  1  0
  4  5  1  6
  6  7  2  0
  8  9  1  0
  9 11  1  0
 10  9  2  0
 12 11  1  6
 13 12  1  0
 13  6  1  0
 14 15  2  0
 14 12  1  0
 16 17  1  0
 17 19  1  0
 18 17  2  0
 19 20  1  0
 21 20  1  0
 21 22  1  0
 23 22  1  1
 23 25  1  0
 23 24  1  0
 24 14  1  0
 25 27  1  0
 26 25  2  0
M  END
$$$$
