TNR.pdb
     RDKit          3D

 27 26  0  0  1  0  0  0  0  0999 V2000
    6.8387  -14.4362   17.6602 C   0  0  0  0  0  0  0  0  0  0  0  0
    7.4301  -14.6898   19.0305 C   0  0  1  0  0  0  0  0  0  0  0  0
    8.6849  -15.2909   18.7916 O   0  0  0  0  0  0  0  0  0  0  0  0
    7.7189  -13.3609   19.6955 C   0  0  2  0  0  0  0  0  0  0  0  0
    8.5310  -12.5077   18.8697 N   0  0  0  0  0  0  0  0  0  0  0  0
    8.3872  -13.5298   21.0051 C   0  0  0  0  0  0  0  0  0  0  0  0
    9.6468  -13.4937   21.1455 O   0  0  0  0  0  0  0  0  0  0  0  0
    7.8532  -12.7494   26.6170 N   0  0  0  0  0  0  0  0  0  0  0  0
    7.2045  -13.7459   25.8359 C   0  0  0  0  0  0  0  0  0  0  0  0
    6.8099  -14.7740   26.4192 O   0  0  0  0  0  0  0  0  0  0  0  0
    7.0073  -13.5773   24.4094 C   0  0  0  0  0  0  0  0  0  0  0  0
    8.1655  -13.8508   23.5139 C   0  0  2  0  0  0  0  0  0  0  0  0
    7.6141  -13.7383   22.1468 N   0  0  0  0  0  0  0  0  0  0  0  0
    8.6430  -15.2365   23.6556 C   0  0  0  0  0  0  0  0  0  0  0  0
    7.8322  -16.1603   23.2675 O   0  0  0  0  0  0  0  0  0  0  0  0
   11.9079  -15.7161   18.8727 N   0  0  0  0  0  0  0  0  0  0  0  0
   12.5159  -15.0359   19.9664 C   0  0  0  0  0  0  0  0  0  0  0  0
   13.1336  -13.9297   19.7578 N   0  0  0  0  0  0  0  0  0  0  0  0
   12.4059  -15.6206   21.2494 N   0  0  0  0  0  0  0  0  0  0  0  0
   12.4199  -17.0520   21.4238 C   0  0  0  0  0  0  0  0  0  0  0  0
   11.1530  -17.4966   22.1519 C   0  0  0  0  0  0  0  0  0  0  0  0
   11.3525  -17.5102   23.6343 C   0  0  0  0  0  0  0  0  0  0  0  0
   10.1317  -17.0656   24.3591 C   0  0  2  0  0  0  0  0  0  0  0  0
    9.9120  -15.6278   24.1745 N   0  0  0  0  0  0  0  0  0  0  0  0
   10.2169  -17.3412   25.7970 C   0  0  0  0  0  0  0  0  0  0  0  0
   10.1346  -16.4625   26.7056 O   0  0  0  0  0  0  0  0  0  0  0  0
   10.4035  -18.6602   26.2536 O   0  0  0  0  0  0  0  0  0  0  0  0
  2  1  1  6
  2  4  1  0
  3  2  1  0
  4  6  1  0
  4  5  1  6
  6  7  2  0
  8  9  1  0
  9 11  1  0
 10  9  2  0
 12 11  1  1
 13 12  1  0
 13  6  1  0
 14 15  2  0
 14 12  1  0
 16 17  1  0
 17 19  1  0
 18 17  2  0
 19 20  1  0
 21 20  1  0
 21 22  1  0
 23 22  1  6
 23 25  1  0
 23 24  1  0
 24 14  1  0
 25 27  1  0
 26 25  2  0
M  END
$$$$
