TNR.pdb
     RDKit          3D

 27 26  0  0  1  0  0  0  0  0999 V2000
    7.8192  -12.1317   20.6134 C   0  0  0  0  0  0  0  0  0  0  0  0
    8.8164  -13.2329   20.9049 C   0  0  1  0  0  0  0  0  0  0  0  0
    8.1735  -14.0857   21.8281 O   0  0  0  0  0  0  0  0  0  0  0  0
    9.0258  -14.0521   19.6493 C   0  0  2  0  0  0  0  0  0  0  0  0
    7.7927  -14.5953   19.1456 N   0  0  0  0  0  0  0  0  0  0  0  0
    9.9808  -15.1621   19.8643 C   0  0  0  0  0  0  0  0  0  0  0  0
    9.6290  -16.3801   19.8807 O   0  0  0  0  0  0  0  0  0  0  0  0
   13.8504  -14.1063   17.4404 N   0  0  0  0  0  0  0  0  0  0  0  0
   13.6378  -15.3139   18.1617 C   0  0  0  0  0  0  0  0  0  0  0  0
   13.4911  -16.3631   17.5055 O   0  0  0  0  0  0  0  0  0  0  0  0
   13.5915  -15.3298   19.6108 C   0  0  0  0  0  0  0  0  0  0  0  0
   12.3777  -15.9010   20.2579 C   0  0  2  0  0  0  0  0  0  0  0  0
   11.3316  -14.8756   20.0586 N   0  0  0  0  0  0  0  0  0  0  0  0
   12.5540  -16.0360   21.7135 C   0  0  0  0  0  0  0  0  0  0  0  0
   13.0552  -15.0168   22.3230 O   0  0  0  0  0  0  0  0  0  0  0  0
   11.7615  -20.1100   30.5427 N   0  0  0  0  0  0  0  0  0  0  0  0
   11.4242  -20.2760   29.1690 C   0  0  0  0  0  0  0  0  0  0  0  0
   10.6741  -21.2569   28.8168 N   0  0  0  0  0  0  0  0  0  0  0  0
   11.9384  -19.3361   28.2458 N   0  0  0  0  0  0  0  0  0  0  0  0
   11.5683  -19.3753   26.8526 C   0  0  0  0  0  0  0  0  0  0  0  0
   12.2345  -18.2199   26.1081 C   0  0  0  0  0  0  0  0  0  0  0  0
   11.8612  -18.2173   24.6596 C   0  0  0  0  0  0  0  0  0  0  0  0
   12.5736  -17.1489   23.9085 C   0  0  2  0  0  0  0  0  0  0  0  0
   12.2142  -17.1841   22.4875 N   0  0  0  0  0  0  0  0  0  0  0  0
   14.0302  -17.2769   24.0221 C   0  0  0  0  0  0  0  0  0  0  0  0
   14.7569  -17.9597   23.2410 O   0  0  0  0  0  0  0  0  0  0  0  0
   14.7191  -16.6138   25.0559 O   0  0  0  0  0  0  0  0  0  0  0  0
  2  1  1  6
  2  4  1  0
  3  2  1  0
  4  6  1  0
  4  5  1  1
  6  7  2  0
  8  9  1  0
  9 11  1  0
 10  9  2  0
 12 11  1  6
 13 12  1  0
 13  6  1  0
 14 15  2  0
 14 12  1  0
 16 17  1  0
 17 19  1  0
 18 17  2  0
 19 20  1  0
 21 20  1  0
 21 22  1  0
 23 22  1  1
 23 25  1  0
 23 24  1  0
 24 14  1  0
 25 27  1  0
 26 25  2  0
M  END
$$$$
