TYN.pdb
     RDKit          3D

 28 28  0  0  1  0  0  0  0  0999 V2000
    6.7397  -14.5205   18.2191 C   0  0  0  0  0  0  0  0  0  0  0  0
    7.4585  -14.7714   19.5283 C   0  0  1  0  0  0  0  0  0  0  0  0
    8.7916  -15.0424   19.1969 O   0  0  0  0  0  0  0  0  0  0  0  0
    7.4694  -13.4863   20.3303 C   0  0  2  0  0  0  0  0  0  0  0  0
    7.9772  -12.4424   19.4781 N   0  0  0  0  0  0  0  0  0  0  0  0
    8.2527  -13.6247   21.5830 C   0  0  0  0  0  0  0  0  0  0  0  0
    9.4962  -13.4539   21.5593 O   0  0  0  0  0  0  0  0  0  0  0  0
   10.5189  -14.9719   29.9832 O   0  0  0  0  0  0  0  0  0  0  0  0
    9.7951  -14.7520   28.8334 C   0  0  0  0  0  0  0  0  0  0  0  0
    9.1898  -15.8499   28.2498 C   0  0  0  0  0  0  0  0  0  0  0  0
    8.4516  -15.6935   27.0972 C   0  0  0  0  0  0  0  0  0  0  0  0
    8.2863  -14.4670   26.4876 C   0  0  0  0  0  0  0  0  0  0  0  0
    7.4846  -14.3247   25.2433 C   0  0  0  0  0  0  0  0  0  0  0  0
    8.3922  -14.3078   24.0183 C   0  0  2  0  0  0  0  0  0  0  0  0
    7.6634  -13.9470   22.8367 N   0  0  0  0  0  0  0  0  0  0  0  0
    9.0438  -15.6309   23.9222 C   0  0  0  0  0  0  0  0  0  0  0  0
    8.4959  -16.5521   23.2628 O   0  0  0  0  0  0  0  0  0  0  0  0
    8.9004  -13.3688   27.0843 C   0  0  0  0  0  0  0  0  0  0  0  0
    9.6394  -13.5190   28.2364 C   0  0  0  0  0  0  0  0  0  0  0  0
   12.2865  -19.1852   22.2261 N   0  0  0  0  0  0  0  0  0  0  0  0
   12.8117  -17.9102   22.5528 C   0  0  0  0  0  0  0  0  0  0  0  0
   14.0375  -17.7221   22.4832 O   0  0  0  0  0  0  0  0  0  0  0  0
   11.8936  -16.8529   22.9626 C   0  0  0  0  0  0  0  0  0  0  0  0
   11.0646  -17.1433   24.1896 C   0  0  2  0  0  0  0  0  0  0  0  0
   10.2804  -15.9405   24.5413 N   0  0  0  0  0  0  0  0  0  0  0  0
   11.8781  -17.4264   25.3820 C   0  0  0  0  0  0  0  0  0  0  0  0
   12.9787  -16.6573   25.6847 O   0  0  0  0  0  0  0  0  0  0  0  0
   11.5936  -18.3648   26.1451 O   0  0  0  0  0  0  0  0  0  0  0  0
  2  1  1  6
  2  4  1  0
  3  2  1  0
  4  5  1  6
  6  4  1  0
  7  6  2  0
  9  8  1  0
  9 10  2  0
 10 11  1  0
 12 13  1  0
 12 11  2  0
 14 15  1  0
 14 13  1  1
 15  6  1  0
 16 14  1  0
 17 16  2  0
 18 12  1  0
 19 18  2  0
 19  9  1  0
 20 21  1  0
 21 22  2  0
 23 21  1  0
 24 23  1  6
 24 25  1  0
 25 16  1  0
 26 24  1  0
 26 27  1  0
 28 26  2  0
M  END
$$$$
