TYN.pdb
     RDKit          3D

 28 28  0  0  1  0  0  0  0  0999 V2000
    9.3683  -20.4995   17.3207 C   0  0  0  0  0  0  0  0  0  0  0  0
   10.0800  -19.6285   18.3347 C   0  0  1  0  0  0  0  0  0  0  0  0
   11.3848  -19.4576   17.8564 O   0  0  0  0  0  0  0  0  0  0  0  0
    9.4393  -18.2557   18.3305 C   0  0  2  0  0  0  0  0  0  0  0  0
    9.4776  -17.7586   16.9796 N   0  0  0  0  0  0  0  0  0  0  0  0
   10.0991  -17.3363   19.2903 C   0  0  0  0  0  0  0  0  0  0  0  0
   11.1901  -16.7968   18.9828 O   0  0  0  0  0  0  0  0  0  0  0  0
    7.1945  -11.8323   18.0273 O   0  0  0  0  0  0  0  0  0  0  0  0
    7.7445  -12.6104   19.0204 C   0  0  0  0  0  0  0  0  0  0  0  0
    6.9543  -13.6184   19.5420 C   0  0  0  0  0  0  0  0  0  0  0  0
    7.4491  -14.4308   20.5384 C   0  0  0  0  0  0  0  0  0  0  0  0
    8.7220  -14.2808   21.0489 C   0  0  0  0  0  0  0  0  0  0  0  0
    9.2324  -15.1710   22.1252 C   0  0  0  0  0  0  0  0  0  0  0  0
   10.1964  -16.2054   21.5549 C   0  0  2  0  0  0  0  0  0  0  0  0
    9.5552  -17.0240   20.5669 N   0  0  0  0  0  0  0  0  0  0  0  0
   10.7481  -16.9791   22.6869 C   0  0  0  0  0  0  0  0  0  0  0  0
    9.9716  -17.6013   23.4574 O   0  0  0  0  0  0  0  0  0  0  0  0
    9.5083  -13.2626   20.5160 C   0  0  0  0  0  0  0  0  0  0  0  0
    9.0192  -12.4473   19.5199 C   0  0  0  0  0  0  0  0  0  0  0  0
   13.8625  -18.5337   21.5627 N   0  0  0  0  0  0  0  0  0  0  0  0
   13.3208  -19.6295   22.2798 C   0  0  0  0  0  0  0  0  0  0  0  0
   13.4307  -20.7752   21.8127 O   0  0  0  0  0  0  0  0  0  0  0  0
   12.6479  -19.3780   23.5497 C   0  0  0  0  0  0  0  0  0  0  0  0
   12.6701  -17.9483   24.0319 C   0  0  2  0  0  0  0  0  0  0  0  0
   12.1335  -17.0699   22.9708 N   0  0  0  0  0  0  0  0  0  0  0  0
   14.0290  -17.4462   24.2872 C   0  0  0  0  0  0  0  0  0  0  0  0
   14.5432  -16.3984   23.5578 O   0  0  0  0  0  0  0  0  0  0  0  0
   14.7462  -17.9538   25.1656 O   0  0  0  0  0  0  0  0  0  0  0  0
  2  1  1  6
  2  4  1  0
  3  2  1  0
  4  5  1  6
  6  4  1  0
  7  6  2  0
  9  8  1  0
  9 10  2  0
 10 11  1  0
 12 13  1  0
 12 11  2  0
 14 15  1  0
 14 13  1  1
 15  6  1  0
 16 14  1  0
 17 16  2  0
 18 12  1  0
 19 18  2  0
 19  9  1  0
 20 21  1  0
 21 22  2  0
 23 21  1  0
 24 23  1  6
 24 25  1  0
 25 16  1  0
 26 24  1  0
 26 27  1  0
 28 26  2  0
M  END
$$$$
