TYN.pdb
     RDKit          3D

 28 28  0  0  1  0  0  0  0  0999 V2000
    7.1783  -14.1035   17.5375 C   0  0  0  0  0  0  0  0  0  0  0  0
    7.7584  -14.6316   18.8329 C   0  0  1  0  0  0  0  0  0  0  0  0
    9.0646  -15.0409   18.5386 O   0  0  0  0  0  0  0  0  0  0  0  0
    7.8802  -13.4838   19.8141 C   0  0  2  0  0  0  0  0  0  0  0  0
    8.6523  -12.4463   19.1807 N   0  0  0  0  0  0  0  0  0  0  0  0
    8.4704  -13.9208   21.1034 C   0  0  0  0  0  0  0  0  0  0  0  0
    9.7124  -13.8508   21.2727 O   0  0  0  0  0  0  0  0  0  0  0  0
    6.2332  -10.5321   27.5308 O   0  0  0  0  0  0  0  0  0  0  0  0
    6.5149  -11.6524   26.7825 C   0  0  0  0  0  0  0  0  0  0  0  0
    5.4403  -12.4039   26.3434 C   0  0  0  0  0  0  0  0  0  0  0  0
    5.6584  -13.5366   25.5902 C   0  0  0  0  0  0  0  0  0  0  0  0
    6.9251  -13.9626   25.2480 C   0  0  0  0  0  0  0  0  0  0  0  0
    7.1338  -15.1895   24.4341 C   0  0  0  0  0  0  0  0  0  0  0  0
    8.2298  -14.9670   23.3978 C   0  0  2  0  0  0  0  0  0  0  0  0
    7.6936  -14.4256   22.1826 N   0  0  0  0  0  0  0  0  0  0  0  0
    8.9345  -16.2517   23.2047 C   0  0  0  0  0  0  0  0  0  0  0  0
    8.3758  -17.1828   22.5687 O   0  0  0  0  0  0  0  0  0  0  0  0
    7.9993  -13.1979   25.6958 C   0  0  0  0  0  0  0  0  0  0  0  0
    7.7875  -12.0648   26.4490 C   0  0  0  0  0  0  0  0  0  0  0  0
   14.2957  -17.1162   23.5578 N   0  0  0  0  0  0  0  0  0  0  0  0
   13.0897  -16.6380   22.9875 C   0  0  0  0  0  0  0  0  0  0  0  0
   12.9163  -15.4135   22.8713 O   0  0  0  0  0  0  0  0  0  0  0  0
   12.0844  -17.6017   22.5525 C   0  0  0  0  0  0  0  0  0  0  0  0
   10.9211  -17.8053   23.4918 C   0  0  2  0  0  0  0  0  0  0  0  0
   10.2355  -16.5126   23.7025 N   0  0  0  0  0  0  0  0  0  0  0  0
   11.3334  -18.2381   24.8359 C   0  0  0  0  0  0  0  0  0  0  0  0
   11.0414  -17.4755   25.9438 O   0  0  0  0  0  0  0  0  0  0  0  0
   11.9546  -19.3007   25.0055 O   0  0  0  0  0  0  0  0  0  0  0  0
  2  1  1  6
  2  4  1  0
  3  2  1  0
  4  5  1  6
  6  4  1  0
  7  6  2  0
  9  8  1  0
  9 10  2  0
 10 11  1  0
 12 13  1  0
 12 11  2  0
 14 15  1  0
 14 13  1  1
 15  6  1  0
 16 14  1  0
 17 16  2  0
 18 12  1  0
 19 18  2  0
 19  9  1  0
 20 21  1  0
 21 22  2  0
 23 21  1  0
 24 23  1  6
 24 25  1  0
 25 16  1  0
 26 24  1  0
 26 27  1  0
 28 26  2  0
M  END
$$$$
