TYN.pdb
     RDKit          3D

 28 28  0  0  1  0  0  0  0  0999 V2000
    6.3256  -14.2002   18.3832 C   0  0  0  0  0  0  0  0  0  0  0  0
    7.0360  -14.5611   19.6711 C   0  0  1  0  0  0  0  0  0  0  0  0
    8.1727  -15.2895   19.3000 O   0  0  0  0  0  0  0  0  0  0  0  0
    7.5368  -13.2885   20.3226 C   0  0  2  0  0  0  0  0  0  0  0  0
    8.3060  -12.5677   19.3416 N   0  0  0  0  0  0  0  0  0  0  0  0
    8.3132  -13.5689   21.5556 C   0  0  0  0  0  0  0  0  0  0  0  0
    9.5563  -13.7288   21.4831 O   0  0  0  0  0  0  0  0  0  0  0  0
   10.3686  -15.3078   29.9608 O   0  0  0  0  0  0  0  0  0  0  0  0
    9.6984  -14.9074   28.8273 C   0  0  0  0  0  0  0  0  0  0  0  0
    8.9714  -15.8703   28.1515 C   0  0  0  0  0  0  0  0  0  0  0  0
    8.2791  -15.5306   27.0099 C   0  0  0  0  0  0  0  0  0  0  0  0
    8.2788  -14.2482   26.5012 C   0  0  0  0  0  0  0  0  0  0  0  0
    7.5234  -13.9073   25.2665 C   0  0  0  0  0  0  0  0  0  0  0  0
    8.3985  -14.0947   24.0321 C   0  0  2  0  0  0  0  0  0  0  0  0
    7.7177  -13.6692   22.8434 N   0  0  0  0  0  0  0  0  0  0  0  0
    8.8199  -15.5106   23.9896 C   0  0  0  0  0  0  0  0  0  0  0  0
    8.0302  -16.3859   23.5492 O   0  0  0  0  0  0  0  0  0  0  0  0
    9.0142  -13.2873   27.1901 C   0  0  0  0  0  0  0  0  0  0  0  0
    9.7082  -13.6208   28.3317 C   0  0  0  0  0  0  0  0  0  0  0  0
   11.3314  -18.9831   20.7560 N   0  0  0  0  0  0  0  0  0  0  0  0
   11.2084  -18.7607   22.1502 C   0  0  0  0  0  0  0  0  0  0  0  0
   11.5345  -19.6620   22.9403 O   0  0  0  0  0  0  0  0  0  0  0  0
   10.7006  -17.4752   22.6174 C   0  0  0  0  0  0  0  0  0  0  0  0
   10.6018  -17.3139   24.1146 C   0  0  2  0  0  0  0  0  0  0  0  0
   10.0911  -15.9616   24.4243 N   0  0  0  0  0  0  0  0  0  0  0  0
   11.9061  -17.3896   24.7905 C   0  0  0  0  0  0  0  0  0  0  0  0
   12.4290  -16.2949   25.4406 O   0  0  0  0  0  0  0  0  0  0  0  0
   12.5680  -18.4410   24.7922 O   0  0  0  0  0  0  0  0  0  0  0  0
  2  1  1  6
  2  4  1  0
  3  2  1  0
  4  5  1  6
  6  4  1  0
  7  6  2  0
  9  8  1  0
  9 10  2  0
 10 11  1  0
 12 13  1  0
 12 11  2  0
 14 15  1  0
 14 13  1  1
 15  6  1  0
 16 14  1  0
 17 16  2  0
 18 12  1  0
 19 18  2  0
 19  9  1  0
 20 21  1  0
 21 22  2  0
 23 21  1  0
 24 23  1  6
 24 25  1  0
 25 16  1  0
 26 24  1  0
 26 27  1  0
 28 26  2  0
M  END
$$$$
