TYN.pdb
     RDKit          3D

 28 28  0  0  1  0  0  0  0  0999 V2000
    7.1921  -17.2750   18.8436 C   0  0  0  0  0  0  0  0  0  0  0  0
    7.9207  -17.0715   20.1556 C   0  0  1  0  0  0  0  0  0  0  0  0
    9.1949  -17.6264   19.9857 O   0  0  0  0  0  0  0  0  0  0  0  0
    8.1259  -15.5862   20.3718 C   0  0  2  0  0  0  0  0  0  0  0  0
    8.7860  -15.0608   19.2048 N   0  0  0  0  0  0  0  0  0  0  0  0
    8.8789  -15.3095   21.6201 C   0  0  0  0  0  0  0  0  0  0  0  0
   10.1316  -15.2338   21.5852 O   0  0  0  0  0  0  0  0  0  0  0  0
   10.7249  -14.5508   30.2274 O   0  0  0  0  0  0  0  0  0  0  0  0
   10.0718  -14.5319   29.0161 C   0  0  0  0  0  0  0  0  0  0  0  0
    9.4765  -15.7096   28.6024 C   0  0  0  0  0  0  0  0  0  0  0  0
    8.8078  -15.7535   27.3987 C   0  0  0  0  0  0  0  0  0  0  0  0
    8.7037  -14.6540   26.5720 C   0  0  0  0  0  0  0  0  0  0  0  0
    7.9765  -14.7276   25.2769 C   0  0  0  0  0  0  0  0  0  0  0  0
    8.9347  -15.0690   24.1412 C   0  0  2  0  0  0  0  0  0  0  0  0
    8.2500  -15.1211   22.8818 N   0  0  0  0  0  0  0  0  0  0  0  0
    9.6141  -16.3343   24.4901 C   0  0  0  0  0  0  0  0  0  0  0  0
    8.9976  -17.4261   24.3831 O   0  0  0  0  0  0  0  0  0  0  0  0
    9.3071  -13.4739   26.9990 C   0  0  0  0  0  0  0  0  0  0  0  0
    9.9768  -13.4240   28.2011 C   0  0  0  0  0  0  0  0  0  0  0  0
   12.5818  -18.5225   22.3938 N   0  0  0  0  0  0  0  0  0  0  0  0
   13.0496  -17.5037   23.2607 C   0  0  0  0  0  0  0  0  0  0  0  0
   13.5025  -16.4538   22.7754 O   0  0  0  0  0  0  0  0  0  0  0  0
   12.9849  -17.7193   24.7022 C   0  0  0  0  0  0  0  0  0  0  0  0
   11.6044  -17.6793   25.3101 C   0  0  2  0  0  0  0  0  0  0  0  0
   10.9527  -16.4020   24.9506 N   0  0  0  0  0  0  0  0  0  0  0  0
   11.6207  -17.6947   26.7809 C   0  0  0  0  0  0  0  0  0  0  0  0
   11.6580  -18.8831   27.4742 O   0  0  0  0  0  0  0  0  0  0  0  0
   11.6013  -16.6379   27.4340 O   0  0  0  0  0  0  0  0  0  0  0  0
  2  1  1  6
  2  4  1  0
  3  2  1  0
  4  5  1  6
  6  4  1  0
  7  6  2  0
  9  8  1  0
  9 10  2  0
 10 11  1  0
 12 13  1  0
 12 11  2  0
 14 15  1  0
 14 13  1  1
 15  6  1  0
 16 14  1  0
 17 16  2  0
 18 12  1  0
 19 18  2  0
 19  9  1  0
 20 21  1  0
 21 22  2  0
 23 21  1  0
 24 23  1  6
 24 25  1  0
 25 16  1  0
 26 24  1  0
 26 27  1  0
 28 26  2  0
M  END
$$$$
