TYN.pdb
     RDKit          3D

 28 28  0  0  1  0  0  0  0  0999 V2000
    8.3273  -19.0936   20.3305 C   0  0  0  0  0  0  0  0  0  0  0  0
    9.3410  -18.4532   19.4055 C   0  0  1  0  0  0  0  0  0  0  0  0
    9.1920  -19.0845   18.1646 O   0  0  0  0  0  0  0  0  0  0  0  0
    8.9590  -17.0022   19.1962 C   0  0  2  0  0  0  0  0  0  0  0  0
    9.7323  -16.5009   18.0897 N   0  0  0  0  0  0  0  0  0  0  0  0
    9.1490  -16.1987   20.4291 C   0  0  0  0  0  0  0  0  0  0  0  0
   10.3092  -15.9894   20.8606 O   0  0  0  0  0  0  0  0  0  0  0  0
    7.4052  -11.9858   27.9881 O   0  0  0  0  0  0  0  0  0  0  0  0
    7.2426  -12.6221   26.7786 C   0  0  0  0  0  0  0  0  0  0  0  0
    7.7563  -11.9912   25.6603 C   0  0  0  0  0  0  0  0  0  0  0  0
    7.6248  -12.5786   24.4211 C   0  0  0  0  0  0  0  0  0  0  0  0
    6.9915  -13.7911   24.2427 C   0  0  0  0  0  0  0  0  0  0  0  0
    6.8623  -14.4040   22.8940 C   0  0  0  0  0  0  0  0  0  0  0  0
    8.1912  -15.0023   22.4461 C   0  0  2  0  0  0  0  0  0  0  0  0
    8.0691  -15.6394   21.1667 N   0  0  0  0  0  0  0  0  0  0  0  0
    8.6563  -15.9148   23.5117 C   0  0  0  0  0  0  0  0  0  0  0  0
    8.0449  -16.9944   23.7224 O   0  0  0  0  0  0  0  0  0  0  0  0
    6.4784  -14.4169   25.3759 C   0  0  0  0  0  0  0  0  0  0  0  0
    6.6067  -13.8347   26.6171 C   0  0  0  0  0  0  0  0  0  0  0  0
   11.5008  -18.8584   24.0035 N   0  0  0  0  0  0  0  0  0  0  0  0
   12.3857  -17.8491   24.4582 C   0  0  0  0  0  0  0  0  0  0  0  0
   13.6066  -17.9833   24.2733 O   0  0  0  0  0  0  0  0  0  0  0  0
   11.8340  -16.6787   25.1322 C   0  0  0  0  0  0  0  0  0  0  0  0
   10.3317  -16.6492   25.2712 C   0  0  2  0  0  0  0  0  0  0  0  0
    9.7775  -15.6473   24.3361 N   0  0  0  0  0  0  0  0  0  0  0  0
    9.8838  -16.2125   26.6025 C   0  0  0  0  0  0  0  0  0  0  0  0
    9.9323  -17.0681   27.6796 O   0  0  0  0  0  0  0  0  0  0  0  0
    9.4510  -15.0629   26.7889 O   0  0  0  0  0  0  0  0  0  0  0  0
  2  1  1  1
  2  4  1  0
  3  2  1  0
  4  5  1  6
  6  4  1  0
  7  6  2  0
  9  8  1  0
  9 10  2  0
 10 11  1  0
 12 13  1  0
 12 11  2  0
 14 15  1  0
 14 13  1  1
 15  6  1  0
 16 14  1  0
 17 16  2  0
 18 12  1  0
 19 18  2  0
 19  9  1  0
 20 21  1  0
 21 22  2  0
 23 21  1  0
 24 23  1  1
 24 25  1  0
 25 16  1  0
 26 24  1  0
 26 27  1  0
 28 26  2  0
M  END
$$$$
