TYN.pdb
     RDKit          3D

 28 28  0  0  1  0  0  0  0  0999 V2000
    7.3329  -16.5082   20.0457 C   0  0  0  0  0  0  0  0  0  0  0  0
    7.9156  -15.2426   19.4522 C   0  0  1  0  0  0  0  0  0  0  0  0
    7.2424  -15.0316   18.2428 O   0  0  0  0  0  0  0  0  0  0  0  0
    7.5584  -14.0760   20.3502 C   0  0  2  0  0  0  0  0  0  0  0  0
    7.7796  -12.8647   19.6034 N   0  0  0  0  0  0  0  0  0  0  0  0
    8.3233  -14.1043   21.6214 C   0  0  0  0  0  0  0  0  0  0  0  0
    9.5468  -13.8231   21.6158 O   0  0  0  0  0  0  0  0  0  0  0  0
   10.4345  -14.8894   30.1472 O   0  0  0  0  0  0  0  0  0  0  0  0
    9.7215  -14.8754   28.9701 C   0  0  0  0  0  0  0  0  0  0  0  0
    9.4567  -13.6399   28.4081 C   0  0  0  0  0  0  0  0  0  0  0  0
    8.7471  -13.5608   27.2299 C   0  0  0  0  0  0  0  0  0  0  0  0
    8.2799  -14.6806   26.5734 C   0  0  0  0  0  0  0  0  0  0  0  0
    7.5156  -14.5683   25.3027 C   0  0  0  0  0  0  0  0  0  0  0  0
    8.4590  -14.5838   24.1050 C   0  0  2  0  0  0  0  0  0  0  0  0
    7.7377  -14.4388   22.8737 N   0  0  0  0  0  0  0  0  0  0  0  0
    9.2540  -15.8278   24.1740 C   0  0  0  0  0  0  0  0  0  0  0  0
    8.7127  -16.9323   23.9076 O   0  0  0  0  0  0  0  0  0  0  0  0
    8.5526  -15.9190   27.1487 C   0  0  0  0  0  0  0  0  0  0  0  0
    9.2614  -16.0043   28.3261 C   0  0  0  0  0  0  0  0  0  0  0  0
   13.4274  -18.4810   22.2044 N   0  0  0  0  0  0  0  0  0  0  0  0
   13.7310  -17.3357   22.9818 C   0  0  0  0  0  0  0  0  0  0  0  0
   14.8980  -17.1548   23.3670 O   0  0  0  0  0  0  0  0  0  0  0  0
   12.6599  -16.4000   23.3075 C   0  0  0  0  0  0  0  0  0  0  0  0
   11.5238  -16.9627   24.1259 C   0  0  2  0  0  0  0  0  0  0  0  0
   10.6251  -15.8610   24.5306 N   0  0  0  0  0  0  0  0  0  0  0  0
   11.9685  -17.5715   25.3890 C   0  0  0  0  0  0  0  0  0  0  0  0
   12.0364  -16.8284   26.5455 O   0  0  0  0  0  0  0  0  0  0  0  0
   12.2936  -18.7694   25.4446 O   0  0  0  0  0  0  0  0  0  0  0  0
  2  1  1  1
  2  4  1  0
  3  2  1  0
  4  5  1  6
  6  4  1  0
  7  6  2  0
  9  8  1  0
  9 10  2  0
 10 11  1  0
 12 13  1  0
 12 11  2  0
 14 15  1  0
 14 13  1  1
 15  6  1  0
 16 14  1  0
 17 16  2  0
 18 12  1  0
 19 18  2  0
 19  9  1  0
 20 21  1  0
 21 22  2  0
 23 21  1  0
 24 23  1  1
 24 25  1  0
 25 16  1  0
 26 24  1  0
 26 27  1  0
 28 26  2  0
M  END
$$$$
