TYN.pdb
     RDKit          3D

 28 28  0  0  1  0  0  0  0  0999 V2000
    7.0256  -18.3887   19.6830 C   0  0  0  0  0  0  0  0  0  0  0  0
    8.3943  -18.1312   19.0881 C   0  0  1  0  0  0  0  0  0  0  0  0
    8.3752  -18.6922   17.8054 O   0  0  0  0  0  0  0  0  0  0  0  0
    8.5689  -16.6381   18.8998 C   0  0  2  0  0  0  0  0  0  0  0  0
    9.5652  -16.4390   17.8794 N   0  0  0  0  0  0  0  0  0  0  0  0
    8.9188  -15.9592   20.1720 C   0  0  0  0  0  0  0  0  0  0  0  0
   10.0928  -16.0307   20.6110 O   0  0  0  0  0  0  0  0  0  0  0  0
    7.7287  -12.4627   28.2113 O   0  0  0  0  0  0  0  0  0  0  0  0
    7.5915  -12.8028   26.8847 C   0  0  0  0  0  0  0  0  0  0  0  0
    6.6187  -13.7339   26.5699 C   0  0  0  0  0  0  0  0  0  0  0  0
    6.4335  -14.1150   25.2591 C   0  0  0  0  0  0  0  0  0  0  0  0
    7.1897  -13.5993   24.2268 C   0  0  0  0  0  0  0  0  0  0  0  0
    6.9701  -14.0276   22.8198 C   0  0  0  0  0  0  0  0  0  0  0  0
    8.1759  -14.8023   22.2995 C   0  0  2  0  0  0  0  0  0  0  0  0
    7.9806  -15.2156   20.9399 N   0  0  0  0  0  0  0  0  0  0  0  0
    8.4202  -15.9293   23.2239 C   0  0  0  0  0  0  0  0  0  0  0  0
    7.6258  -16.9050   23.2453 O   0  0  0  0  0  0  0  0  0  0  0  0
    8.1661  -12.6627   24.5559 C   0  0  0  0  0  0  0  0  0  0  0  0
    8.3559  -12.2779   25.8643 C   0  0  0  0  0  0  0  0  0  0  0  0
   12.5607  -18.5778   26.3498 N   0  0  0  0  0  0  0  0  0  0  0  0
   11.7798  -18.8118   25.1905 C   0  0  0  0  0  0  0  0  0  0  0  0
   11.5672  -19.9804   24.8270 O   0  0  0  0  0  0  0  0  0  0  0  0
   11.2472  -17.6691   24.4563 C   0  0  0  0  0  0  0  0  0  0  0  0
    9.8702  -17.2090   24.8677 C   0  0  2  0  0  0  0  0  0  0  0  0
    9.5217  -15.9862   24.1138 N   0  0  0  0  0  0  0  0  0  0  0  0
    9.7920  -16.8160   26.2831 C   0  0  0  0  0  0  0  0  0  0  0  0
    9.4943  -17.7414   27.2575 O   0  0  0  0  0  0  0  0  0  0  0  0
    9.9920  -15.6413   26.6349 O   0  0  0  0  0  0  0  0  0  0  0  0
  2  1  1  6
  2  4  1  0
  3  2  1  0
  4  5  1  6
  6  4  1  0
  7  6  2  0
  9  8  1  0
  9 10  2  0
 10 11  1  0
 12 13  1  0
 12 11  2  0
 14 15  1  0
 14 13  1  1
 15  6  1  0
 16 14  1  0
 17 16  2  0
 18 12  1  0
 19 18  2  0
 19  9  1  0
 20 21  1  0
 21 22  2  0
 23 21  1  0
 24 23  1  6
 24 25  1  0
 25 16  1  0
 26 24  1  0
 26 27  1  0
 28 26  2  0
M  END
$$$$
