TYN.pdb
     RDKit          3D

 28 28  0  0  1  0  0  0  0  0999 V2000
    7.1068  -20.6187   20.1199 C   0  0  0  0  0  0  0  0  0  0  0  0
    7.5184  -19.6977   21.2495 C   0  0  1  0  0  0  0  0  0  0  0  0
    8.3942  -20.4347   22.0559 O   0  0  0  0  0  0  0  0  0  0  0  0
    8.3273  -18.5538   20.6731 C   0  0  2  0  0  0  0  0  0  0  0  0
    9.4136  -19.1224   19.9180 N   0  0  0  0  0  0  0  0  0  0  0  0
    8.7985  -17.6244   21.7296 C   0  0  0  0  0  0  0  0  0  0  0  0
   10.0068  -17.6333   22.0699 O   0  0  0  0  0  0  0  0  0  0  0  0
    7.8213  -12.1428   18.2476 O   0  0  0  0  0  0  0  0  0  0  0  0
    7.8152  -12.6966   19.5075 C   0  0  0  0  0  0  0  0  0  0  0  0
    6.6669  -13.3606   19.8987 C   0  0  0  0  0  0  0  0  0  0  0  0
    6.6002  -13.9360   21.1487 C   0  0  0  0  0  0  0  0  0  0  0  0
    7.6478  -13.8783   22.0445 C   0  0  0  0  0  0  0  0  0  0  0  0
    7.5505  -14.5074   23.3883 C   0  0  0  0  0  0  0  0  0  0  0  0
    8.3506  -15.8045   23.4337 C   0  0  2  0  0  0  0  0  0  0  0  0
    7.9416  -16.7037   22.3937 N   0  0  0  0  0  0  0  0  0  0  0  0
    8.2074  -16.3748   24.7896 C   0  0  0  0  0  0  0  0  0  0  0  0
    8.3655  -15.6389   25.7982 O   0  0  0  0  0  0  0  0  0  0  0  0
    8.7987  -13.2071   21.6394 C   0  0  0  0  0  0  0  0  0  0  0  0
    8.8712  -12.6300   20.3914 C   0  0  0  0  0  0  0  0  0  0  0  0
    7.5477  -19.8740   28.7002 N   0  0  0  0  0  0  0  0  0  0  0  0
    6.7398  -20.2484   27.5978 C   0  0  0  0  0  0  0  0  0  0  0  0
    5.9775  -21.2231   27.7065 O   0  0  0  0  0  0  0  0  0  0  0  0
    6.8280  -19.4751   26.3637 C   0  0  0  0  0  0  0  0  0  0  0  0
    7.7471  -18.2789   26.4036 C   0  0  2  0  0  0  0  0  0  0  0  0
    7.8949  -17.7347   25.0371 N   0  0  0  0  0  0  0  0  0  0  0  0
    9.1151  -18.6160   26.8265 C   0  0  0  0  0  0  0  0  0  0  0  0
    9.4490  -18.6681   28.1607 O   0  0  0  0  0  0  0  0  0  0  0  0
   10.0025  -18.8618   25.9923 O   0  0  0  0  0  0  0  0  0  0  0  0
  2  1  1  6
  2  4  1  0
  3  2  1  0
  4  5  1  1
  6  4  1  0
  7  6  2  0
  9  8  1  0
  9 10  2  0
 10 11  1  0
 12 13  1  0
 12 11  2  0
 14 15  1  0
 14 13  1  1
 15  6  1  0
 16 14  1  0
 17 16  2  0
 18 12  1  0
 19 18  2  0
 19  9  1  0
 20 21  1  0
 21 22  2  0
 23 21  1  0
 24 23  1  6
 24 25  1  0
 25 16  1  0
 26 24  1  0
 26 27  1  0
 28 26  2  0
M  END
$$$$
