TYN.pdb
     RDKit          3D

 28 28  0  0  1  0  0  0  0  0999 V2000
    7.0814  -18.3305   20.1916 C   0  0  0  0  0  0  0  0  0  0  0  0
    8.3745  -18.0904   19.4408 C   0  0  1  0  0  0  0  0  0  0  0  0
    8.1609  -18.5517   18.1362 O   0  0  0  0  0  0  0  0  0  0  0  0
    8.6043  -16.5968   19.3345 C   0  0  2  0  0  0  0  0  0  0  0  0
    9.6849  -16.3848   18.4066 N   0  0  0  0  0  0  0  0  0  0  0  0
    8.8685  -15.9839   20.6598 C   0  0  0  0  0  0  0  0  0  0  0  0
   10.0071  -16.0917   21.1774 O   0  0  0  0  0  0  0  0  0  0  0  0
    7.7060  -12.0157   28.4302 O   0  0  0  0  0  0  0  0  0  0  0  0
    7.4206  -12.5284   27.1853 C   0  0  0  0  0  0  0  0  0  0  0  0
    8.4854  -12.7241   26.3248 C   0  0  0  0  0  0  0  0  0  0  0  0
    8.2632  -13.2347   25.0647 C   0  0  0  0  0  0  0  0  0  0  0  0
    7.0019  -13.5658   24.6145 C   0  0  0  0  0  0  0  0  0  0  0  0
    6.7887  -14.1152   23.2492 C   0  0  0  0  0  0  0  0  0  0  0  0
    8.0860  -14.6917   22.6932 C   0  0  2  0  0  0  0  0  0  0  0  0
    7.8848  -15.2654   21.3941 N   0  0  0  0  0  0  0  0  0  0  0  0
    8.6112  -15.6554   23.6831 C   0  0  0  0  0  0  0  0  0  0  0  0
    9.5654  -15.3243   24.4338 O   0  0  0  0  0  0  0  0  0  0  0  0
    5.9377  -13.3645   25.4897 C   0  0  0  0  0  0  0  0  0  0  0  0
    6.1535  -12.8544   26.7504 C   0  0  0  0  0  0  0  0  0  0  0  0
   11.0294  -19.8154   25.0209 N   0  0  0  0  0  0  0  0  0  0  0  0
   11.1938  -19.1087   23.8036 C   0  0  0  0  0  0  0  0  0  0  0  0
   12.2304  -19.2752   23.1398 O   0  0  0  0  0  0  0  0  0  0  0  0
   10.1369  -18.2036   23.3650 C   0  0  0  0  0  0  0  0  0  0  0  0
    8.9405  -18.1005   24.2789 C   0  0  2  0  0  0  0  0  0  0  0  0
    8.0970  -16.9656   23.8480 N   0  0  0  0  0  0  0  0  0  0  0  0
    9.3027  -17.7952   25.6716 C   0  0  0  0  0  0  0  0  0  0  0  0
    9.7151  -16.5329   26.0333 O   0  0  0  0  0  0  0  0  0  0  0  0
    9.2460  -18.6668   26.5553 O   0  0  0  0  0  0  0  0  0  0  0  0
  2  1  1  1
  2  4  1  0
  3  2  1  0
  4  5  1  6
  6  4  1  0
  7  6  2  0
  9  8  1  0
  9 10  2  0
 10 11  1  0
 12 13  1  0
 12 11  2  0
 14 15  1  0
 14 13  1  1
 15  6  1  0
 16 14  1  0
 17 16  2  0
 18 12  1  0
 19 18  2  0
 19  9  1  0
 20 21  1  0
 21 22  2  0
 23 21  1  0
 24 23  1  6
 24 25  1  0
 25 16  1  0
 26 24  1  0
 26 27  1  0
 28 26  2  0
M  END
$$$$
