TYN.pdb
     RDKit          3D

 28 28  0  0  1  0  0  0  0  0999 V2000
    8.2339  -20.8335   18.0055 C   0  0  0  0  0  0  0  0  0  0  0  0
    8.9788  -20.0237   19.0462 C   0  0  1  0  0  0  0  0  0  0  0  0
   10.3398  -20.1582   18.7461 O   0  0  0  0  0  0  0  0  0  0  0  0
    8.6410  -18.5593   18.8552 C   0  0  2  0  0  0  0  0  0  0  0  0
    9.0663  -18.1807   17.5326 N   0  0  0  0  0  0  0  0  0  0  0  0
    9.2496  -17.7110   19.9095 C   0  0  0  0  0  0  0  0  0  0  0  0
   10.3967  -17.2315   19.7348 O   0  0  0  0  0  0  0  0  0  0  0  0
    7.1189  -11.6564   18.8114 O   0  0  0  0  0  0  0  0  0  0  0  0
    7.3225  -12.6460   19.7460 C   0  0  0  0  0  0  0  0  0  0  0  0
    8.4457  -12.5367   20.5454 C   0  0  0  0  0  0  0  0  0  0  0  0
    8.7037  -13.4964   21.4996 C   0  0  0  0  0  0  0  0  0  0  0  0
    7.8758  -14.5821   21.6968 C   0  0  0  0  0  0  0  0  0  0  0  0
    8.1770  -15.6048   22.7335 C   0  0  0  0  0  0  0  0  0  0  0  0
    9.1674  -16.6344   22.2010 C   0  0  2  0  0  0  0  0  0  0  0  0
    8.5946  -17.4028   21.1338 N   0  0  0  0  0  0  0  0  0  0  0  0
    9.6149  -17.4607   23.3417 C   0  0  0  0  0  0  0  0  0  0  0  0
    8.8180  -18.2756   23.8752 O   0  0  0  0  0  0  0  0  0  0  0  0
    6.7481  -14.6815   20.8860 C   0  0  0  0  0  0  0  0  0  0  0  0
    6.4849  -13.7254   19.9307 C   0  0  0  0  0  0  0  0  0  0  0  0
   12.6639  -19.8140   23.0716 N   0  0  0  0  0  0  0  0  0  0  0  0
   13.4684  -18.9891   23.8966 C   0  0  0  0  0  0  0  0  0  0  0  0
   14.6734  -18.8524   23.6283 O   0  0  0  0  0  0  0  0  0  0  0  0
   12.8548  -18.3228   25.0404 C   0  0  0  0  0  0  0  0  0  0  0  0
   11.3479  -18.2439   25.0227 C   0  0  2  0  0  0  0  0  0  0  0  0
   10.9197  -17.3948   23.8909 N   0  0  0  0  0  0  0  0  0  0  0  0
   10.7901  -17.5913   26.2173 C   0  0  0  0  0  0  0  0  0  0  0  0
   10.3596  -16.2848   26.1719 O   0  0  0  0  0  0  0  0  0  0  0  0
   10.6935  -18.2010   27.2955 O   0  0  0  0  0  0  0  0  0  0  0  0
  2  1  1  6
  2  4  1  0
  3  2  1  0
  4  5  1  6
  6  4  1  0
  7  6  2  0
  9  8  1  0
  9 10  2  0
 10 11  1  0
 12 13  1  0
 12 11  2  0
 14 15  1  0
 14 13  1  1
 15  6  1  0
 16 14  1  0
 17 16  2  0
 18 12  1  0
 19 18  2  0
 19  9  1  0
 20 21  1  0
 21 22  2  0
 23 21  1  0
 24 23  1  1
 24 25  1  0
 25 16  1  0
 26 24  1  0
 26 27  1  0
 28 26  2  0
M  END
$$$$
