TYN.pdb
     RDKit          3D

 28 28  0  0  1  0  0  0  0  0999 V2000
   14.1390  -17.5703   18.9152 C   0  0  0  0  0  0  0  0  0  0  0  0
   14.6492  -16.2282   18.4335 C   0  0  1  0  0  0  0  0  0  0  0  0
   15.0975  -16.4278   17.1222 O   0  0  0  0  0  0  0  0  0  0  0  0
   13.4810  -15.2678   18.3451 C   0  0  2  0  0  0  0  0  0  0  0  0
   13.9502  -14.0650   17.7074 N   0  0  0  0  0  0  0  0  0  0  0  0
   12.8813  -15.0049   19.6766 C   0  0  0  0  0  0  0  0  0  0  0  0
   13.4794  -14.2590   20.4902 O   0  0  0  0  0  0  0  0  0  0  0  0
    7.3582  -11.7597   17.7487 O   0  0  0  0  0  0  0  0  0  0  0  0
    7.8899  -12.7197   18.5794 C   0  0  0  0  0  0  0  0  0  0  0  0
    8.1701  -12.3429   19.8801 C   0  0  0  0  0  0  0  0  0  0  0  0
    8.7037  -13.2595   20.7593 C   0  0  0  0  0  0  0  0  0  0  0  0
    8.9760  -14.5614   20.3928 C   0  0  0  0  0  0  0  0  0  0  0  0
    9.5526  -15.5317   21.3610 C   0  0  0  0  0  0  0  0  0  0  0  0
   11.0719  -15.4114   21.4023 C   0  0  2  0  0  0  0  0  0  0  0  0
   11.6406  -15.5613   20.0940 N   0  0  0  0  0  0  0  0  0  0  0  0
   11.5759  -16.4025   22.3760 C   0  0  0  0  0  0  0  0  0  0  0  0
   11.5692  -17.6265   22.0839 O   0  0  0  0  0  0  0  0  0  0  0  0
    8.6897  -14.9292   19.0807 C   0  0  0  0  0  0  0  0  0  0  0  0
    8.1564  -14.0174   18.1974 C   0  0  0  0  0  0  0  0  0  0  0  0
   14.8197  -16.5209   22.7651 N   0  0  0  0  0  0  0  0  0  0  0  0
   15.0573  -16.2142   24.1281 C   0  0  0  0  0  0  0  0  0  0  0  0
   16.1585  -15.7471   24.4627 O   0  0  0  0  0  0  0  0  0  0  0  0
   13.9974  -16.4573   25.1009 C   0  0  0  0  0  0  0  0  0  0  0  0
   12.7217  -17.0438   24.5482 C   0  0  2  0  0  0  0  0  0  0  0  0
   12.0810  -16.0562   23.6541 N   0  0  0  0  0  0  0  0  0  0  0  0
   11.7171  -17.3219   25.5862 C   0  0  0  0  0  0  0  0  0  0  0  0
   11.9024  -18.3404   26.4932 O   0  0  0  0  0  0  0  0  0  0  0  0
   10.6778  -16.6463   25.6709 O   0  0  0  0  0  0  0  0  0  0  0  0
  2  1  1  6
  2  4  1  0
  3  2  1  0
  4  5  1  1
  6  4  1  0
  7  6  2  0
  9  8  1  0
  9 10  2  0
 10 11  1  0
 12 13  1  0
 12 11  2  0
 14 15  1  0
 14 13  1  6
 15  6  1  0
 16 14  1  0
 17 16  2  0
 18 12  1  0
 19 18  2  0
 19  9  1  0
 20 21  1  0
 21 22  2  0
 23 21  1  0
 24 23  1  1
 24 25  1  0
 25 16  1  0
 26 24  1  0
 26 27  1  0
 28 26  2  0
M  END
$$$$
