TYN.pdb
     RDKit          3D

 28 28  0  0  1  0  0  0  0  0999 V2000
    6.6897  -14.4754   18.3122 C   0  0  0  0  0  0  0  0  0  0  0  0
    7.4118  -14.7275   19.6193 C   0  0  1  0  0  0  0  0  0  0  0  0
    8.6995  -15.1585   19.2781 O   0  0  0  0  0  0  0  0  0  0  0  0
    7.5800  -13.4077   20.3437 C   0  0  2  0  0  0  0  0  0  0  0  0
    8.1985  -12.4824   19.4300 N   0  0  0  0  0  0  0  0  0  0  0  0
    8.3530  -13.5632   21.6007 C   0  0  0  0  0  0  0  0  0  0  0  0
    9.6049  -13.4736   21.5744 O   0  0  0  0  0  0  0  0  0  0  0  0
   10.4631  -15.2553   29.9953 O   0  0  0  0  0  0  0  0  0  0  0  0
    9.7369  -15.0294   28.8482 C   0  0  0  0  0  0  0  0  0  0  0  0
    9.7464  -13.7437   28.3390 C   0  0  0  0  0  0  0  0  0  0  0  0
    9.0383  -13.4554   27.1929 C   0  0  0  0  0  0  0  0  0  0  0  0
    8.3064  -14.4102   26.5179 C   0  0  0  0  0  0  0  0  0  0  0  0
    7.5501  -14.0731   25.2826 C   0  0  0  0  0  0  0  0  0  0  0  0
    8.4498  -14.1781   24.0562 C   0  0  2  0  0  0  0  0  0  0  0  0
    7.7444  -13.8133   22.8617 N   0  0  0  0  0  0  0  0  0  0  0  0
    8.9977  -15.5502   24.0157 C   0  0  0  0  0  0  0  0  0  0  0  0
    8.2769  -16.5006   23.6147 O   0  0  0  0  0  0  0  0  0  0  0  0
    8.3043  -15.7011   27.0400 C   0  0  0  0  0  0  0  0  0  0  0  0
    9.0101  -15.9954   28.1852 C   0  0  0  0  0  0  0  0  0  0  0  0
   10.7408  -19.1896   22.2193 N   0  0  0  0  0  0  0  0  0  0  0  0
   11.7616  -18.2182   22.0684 C   0  0  0  0  0  0  0  0  0  0  0  0
   12.5201  -18.2815   21.0867 O   0  0  0  0  0  0  0  0  0  0  0  0
   11.8914  -17.1692   23.0740 C   0  0  0  0  0  0  0  0  0  0  0  0
   10.8979  -17.2218   24.2087 C   0  0  2  0  0  0  0  0  0  0  0  0
   10.3193  -15.8765   24.4099 N   0  0  0  0  0  0  0  0  0  0  0  0
   11.5139  -17.5655   25.4996 C   0  0  0  0  0  0  0  0  0  0  0  0
   11.8027  -16.5896   26.4262 O   0  0  0  0  0  0  0  0  0  0  0  0
   11.7888  -18.7428   25.7863 O   0  0  0  0  0  0  0  0  0  0  0  0
  2  1  1  6
  2  4  1  0
  3  2  1  0
  4  5  1  6
  6  4  1  0
  7  6  2  0
  9  8  1  0
  9 10  2  0
 10 11  1  0
 12 13  1  0
 12 11  2  0
 14 15  1  0
 14 13  1  1
 15  6  1  0
 16 14  1  0
 17 16  2  0
 18 12  1  0
 19 18  2  0
 19  9  1  0
 20 21  1  0
 21 22  2  0
 23 21  1  0
 24 23  1  6
 24 25  1  0
 25 16  1  0
 26 24  1  0
 26 27  1  0
 28 26  2  0
M  END
$$$$
