WPN.pdb
     RDKit          3D

 30 32  0  0  1  0  0  0  0  0999 V2000
   21.1351  -21.9671  -14.2460 N   0  0  0  0  0  0  0  0  0  0  0  0
   20.8043  -21.2025  -13.0913 C   0  0  1  0  0  0  0  0  0  0  0  0
   19.4433  -20.5949  -13.2233 C   0  0  0  0  0  0  0  0  0  0  0  0
   19.2504  -19.6922  -14.3615 C   0  0  0  0  0  0  0  0  0  0  0  0
   20.1401  -18.7002  -14.7219 C   0  0  0  0  0  0  0  0  0  0  0  0
   19.6816  -18.0937  -15.8069 N   0  0  0  0  0  0  0  0  0  0  0  0
   18.5137  -18.6383  -16.1942 C   0  0  0  0  0  0  0  0  0  0  0  0
   17.6689  -18.3481  -17.2397 C   0  0  0  0  0  0  0  0  0  0  0  0
   16.5021  -19.0896  -17.3867 C   0  0  0  0  0  0  0  0  0  0  0  0
   16.2049  -20.0873  -16.5052 C   0  0  0  0  0  0  0  0  0  0  0  0
   17.0821  -20.3466  -15.4678 C   0  0  0  0  0  0  0  0  0  0  0  0
   18.2364  -19.6556  -15.2758 C   0  0  0  0  0  0  0  0  0  0  0  0
   20.8660  -21.9425  -11.8061 C   0  0  0  0  0  0  0  0  0  0  0  0
   20.4607  -23.1626  -11.8316 O   0  0  0  0  0  0  0  0  0  0  0  0
   21.3157  -21.4539  -10.5760 N   0  0  0  0  0  0  0  0  0  0  0  0
   21.8192  -20.1292  -10.3110 C   0  0  0  0  0  0  0  0  0  0  0  0
   21.9156  -19.9950   -8.7944 C   0  0  0  0  0  0  0  0  0  0  0  0
   22.3168  -21.4249   -8.4358 C   0  0  0  0  0  0  0  0  0  0  0  0
   21.3584  -22.1926   -9.3399 C   0  0  1  0  0  0  0  0  0  0  0  0
   20.0226  -22.2645   -8.6888 C   0  0  0  0  0  0  0  0  0  0  0  0
   19.0986  -21.5174   -9.0995 O   0  0  0  0  0  0  0  0  0  0  0  0
   15.9644  -25.3484   -9.4325 N   0  0  0  0  0  0  0  0  0  0  0  0
   17.0830  -25.6467   -8.6129 C   0  0  0  0  0  0  0  0  0  0  0  0
   17.0098  -26.6121   -7.8156 O   0  0  0  0  0  0  0  0  0  0  0  0
   18.3293  -24.8640   -8.6634 C   0  0  0  0  0  0  0  0  0  0  0  0
   18.5089  -23.9154   -7.5101 C   0  0  2  0  0  0  0  0  0  0  0  0
   19.7231  -23.1391   -7.6165 N   0  0  0  0  0  0  0  0  0  0  0  0
   18.3477  -24.5584   -6.2066 C   0  0  0  0  0  0  0  0  0  0  0  0
   19.2412  -25.1404   -5.5702 O   0  0  0  0  0  0  0  0  0  0  0  0
   17.0687  -24.5164   -5.6171 O   0  0  0  0  0  0  0  0  0  0  0  0
  2  1  1  6
  2  3  1  0
  3  4  1  0
  4 12  1  0
  4  5  2  0
  5  6  1  0
  7  8  2  0
  7  6  1  0
  9  8  1  0
 10  9  2  0
 11 10  1  0
 11 12  2  0
 12  7  1  0
 13 15  1  0
 13  2  1  0
 14 13  2  0
 15 19  1  0
 16 17  1  0
 16 15  1  0
 17 18  1  0
 18 19  1  0
 19 20  1  1
 20 21  2  0
 22 23  1  0
 23 24  2  0
 23 25  1  0
 26 25  1  6
 26 28  1  0
 27 26  1  0
 27 20  1  0
 28 29  2  0
 28 30  1  0
M  END
$$$$
