WPN.pdb
     RDKit          3D

 30 32  0  0  1  0  0  0  0  0999 V2000
   27.5734  -21.4606   -9.7620 N   0  0  0  0  0  0  0  0  0  0  0  0
   26.4731  -21.0761   -8.9441 C   0  0  1  0  0  0  0  0  0  0  0  0
   26.5289  -19.6157   -8.6236 C   0  0  0  0  0  0  0  0  0  0  0  0
   27.3508  -19.2423   -7.4692 C   0  0  0  0  0  0  0  0  0  0  0  0
   27.8389  -17.9705   -7.2457 C   0  0  0  0  0  0  0  0  0  0  0  0
   28.5115  -17.9694   -6.1042 N   0  0  0  0  0  0  0  0  0  0  0  0
   28.4972  -19.1940   -5.5467 C   0  0  0  0  0  0  0  0  0  0  0  0
   29.0533  -19.6796   -4.3867 C   0  0  0  0  0  0  0  0  0  0  0  0
   28.8768  -21.0211   -4.0670 C   0  0  0  0  0  0  0  0  0  0  0  0
   28.1631  -21.8377   -4.8943 C   0  0  0  0  0  0  0  0  0  0  0  0
   27.6204  -21.3087   -6.0513 C   0  0  0  0  0  0  0  0  0  0  0  0
   27.7596  -20.0063   -6.4135 C   0  0  0  0  0  0  0  0  0  0  0  0
   25.1333  -21.3834   -9.5044 C   0  0  0  0  0  0  0  0  0  0  0  0
   25.0867  -21.6315  -10.7653 O   0  0  0  0  0  0  0  0  0  0  0  0
   23.9221  -21.4304   -8.8081 N   0  0  0  0  0  0  0  0  0  0  0  0
   23.6904  -20.9811   -7.4579 C   0  0  0  0  0  0  0  0  0  0  0  0
   22.1788  -20.9821   -7.2517 C   0  0  0  0  0  0  0  0  0  0  0  0
   21.8065  -22.2021   -8.0925 C   0  0  0  0  0  0  0  0  0  0  0  0
   22.6756  -21.9417   -9.3181 C   0  0  1  0  0  0  0  0  0  0  0  0
   21.9926  -20.9599  -10.2030 C   0  0  0  0  0  0  0  0  0  0  0  0
   22.0865  -19.7328   -9.9461 O   0  0  0  0  0  0  0  0  0  0  0  0
   22.5633  -21.7336  -14.7910 N   0  0  0  0  0  0  0  0  0  0  0  0
   21.9171  -20.6307  -14.1762 C   0  0  0  0  0  0  0  0  0  0  0  0
   22.5237  -19.5352  -14.1057 O   0  0  0  0  0  0  0  0  0  0  0  0
   20.5581  -20.7240  -13.6166 C   0  0  0  0  0  0  0  0  0  0  0  0
   20.4723  -20.4055  -12.1492 C   0  0  2  0  0  0  0  0  0  0  0  0
   21.2305  -21.3298  -11.3374 N   0  0  0  0  0  0  0  0  0  0  0  0
   19.0996  -20.2183  -11.6810 C   0  0  0  0  0  0  0  0  0  0  0  0
   18.5305  -20.9007  -10.8135 O   0  0  0  0  0  0  0  0  0  0  0  0
   18.3535  -19.1739  -12.2619 O   0  0  0  0  0  0  0  0  0  0  0  0
  2  1  1  6
  2  3  1  0
  3  4  1  0
  4 12  1  0
  4  5  2  0
  5  6  1  0
  7  8  2  0
  7  6  1  0
  9  8  1  0
 10  9  2  0
 11 10  1  0
 11 12  2  0
 12  7  1  0
 13 15  1  0
 13  2  1  0
 14 13  2  0
 15 19  1  0
 16 17  1  0
 16 15  1  0
 17 18  1  0
 18 19  1  0
 19 20  1  6
 20 21  2  0
 22 23  1  0
 23 24  2  0
 23 25  1  0
 26 25  1  6
 26 28  1  0
 27 26  1  0
 27 20  1  0
 28 29  2  0
 28 30  1  0
M  END
$$$$
