WPN.pdb
     RDKit          3D

 30 32  0  0  1  0  0  0  0  0999 V2000
   29.3005  -35.5822   -8.5038 N   0  0  0  0  0  0  0  0  0  0  0  0
   29.5884  -34.8276   -7.3311 C   0  0  1  0  0  0  0  0  0  0  0  0
   28.3325  -34.3000   -6.7122 C   0  0  0  0  0  0  0  0  0  0  0  0
   27.5286  -33.4073   -7.5515 C   0  0  0  0  0  0  0  0  0  0  0  0
   27.9668  -32.8604   -8.7408 C   0  0  0  0  0  0  0  0  0  0  0  0
   26.9887  -32.1316   -9.2578 N   0  0  0  0  0  0  0  0  0  0  0  0
   25.9042  -32.1644   -8.4620 C   0  0  0  0  0  0  0  0  0  0  0  0
   24.6692  -31.5695   -8.5704 C   0  0  0  0  0  0  0  0  0  0  0  0
   23.7310  -31.7807   -7.5664 C   0  0  0  0  0  0  0  0  0  0  0  0
   24.0359  -32.5658   -6.4934 C   0  0  0  0  0  0  0  0  0  0  0  0
   25.2897  -33.1456   -6.4235 C   0  0  0  0  0  0  0  0  0  0  0  0
   26.2450  -32.9752   -7.3749 C   0  0  0  0  0  0  0  0  0  0  0  0
   30.3579  -35.5517   -6.2886 C   0  0  0  0  0  0  0  0  0  0  0  0
   29.7816  -36.5739   -5.7625 O   0  0  0  0  0  0  0  0  0  0  0  0
   31.6374  -35.2396   -5.8200 N   0  0  0  0  0  0  0  0  0  0  0  0
   32.4363  -34.1010   -6.1995 C   0  0  0  0  0  0  0  0  0  0  0  0
   33.6108  -34.0494   -5.2273 C   0  0  0  0  0  0  0  0  0  0  0  0
   33.8410  -35.5459   -5.0241 C   0  0  0  0  0  0  0  0  0  0  0  0
   32.3961  -36.0067   -4.8654 C   0  0  1  0  0  0  0  0  0  0  0  0
   31.9515  -35.7521   -3.4686 C   0  0  0  0  0  0  0  0  0  0  0  0
   31.4688  -34.6295   -3.1731 O   0  0  0  0  0  0  0  0  0  0  0  0
   29.4587  -37.9871    1.4790 N   0  0  0  0  0  0  0  0  0  0  0  0
   30.7520  -37.7229    0.9597 C   0  0  0  0  0  0  0  0  0  0  0  0
   31.6672  -37.3933    1.7513 O   0  0  0  0  0  0  0  0  0  0  0  0
   31.0608  -37.8215   -0.4769 C   0  0  0  0  0  0  0  0  0  0  0  0
   31.5151  -36.5302   -1.1000 C   0  0  2  0  0  0  0  0  0  0  0  0
   32.0397  -36.7143   -2.4338 N   0  0  0  0  0  0  0  0  0  0  0  0
   32.4015  -35.7545   -0.2334 C   0  0  0  0  0  0  0  0  0  0  0  0
   32.0489  -35.0879    0.7533 O   0  0  0  0  0  0  0  0  0  0  0  0
   33.7765  -35.7608   -0.5405 O   0  0  0  0  0  0  0  0  0  0  0  0
  2  1  1  6
  2  3  1  0
  3  4  1  0
  4 12  1  0
  4  5  2  0
  5  6  1  0
  7  8  2  0
  7  6  1  0
  9  8  1  0
 10  9  2  0
 11 10  1  0
 11 12  2  0
 12  7  1  0
 13 15  1  0
 13  2  1  0
 14 13  2  0
 15 19  1  0
 16 17  1  0
 16 15  1  0
 17 18  1  0
 18 19  1  0
 19 20  1  1
 20 21  2  0
 22 23  1  0
 23 24  2  0
 23 25  1  0
 26 25  1  1
 26 28  1  0
 27 26  1  0
 27 20  1  0
 28 29  2  0
 28 30  1  0
M  END
$$$$
