WPN.pdb
     RDKit          3D

 30 32  0  0  1  0  0  0  0  0999 V2000
   26.6579  -22.7568  -12.5857 N   0  0  0  0  0  0  0  0  0  0  0  0
   25.9573  -21.8295  -11.7630 C   0  0  1  0  0  0  0  0  0  0  0  0
   26.7687  -20.5923  -11.5399 C   0  0  0  0  0  0  0  0  0  0  0  0
   27.8289  -20.6922  -10.5331 C   0  0  0  0  0  0  0  0  0  0  0  0
   29.1415  -21.0084  -10.8203 C   0  0  0  0  0  0  0  0  0  0  0  0
   29.8396  -20.9827   -9.6945 N   0  0  0  0  0  0  0  0  0  0  0  0
   29.0476  -20.6614   -8.6552 C   0  0  0  0  0  0  0  0  0  0  0  0
   29.3091  -20.5200   -7.3127 C   0  0  0  0  0  0  0  0  0  0  0  0
   28.2667  -20.1835   -6.4566 C   0  0  0  0  0  0  0  0  0  0  0  0
   27.0069  -19.9981   -6.9457 C   0  0  0  0  0  0  0  0  0  0  0  0
   26.7871  -20.1498   -8.3028 C   0  0  0  0  0  0  0  0  0  0  0  0
   27.7671  -20.4764   -9.1859 C   0  0  0  0  0  0  0  0  0  0  0  0
   24.6182  -21.4295  -12.2629 C   0  0  0  0  0  0  0  0  0  0  0  0
   24.4678  -21.4160  -13.5399 O   0  0  0  0  0  0  0  0  0  0  0  0
   23.5084  -21.0665  -11.4943 N   0  0  0  0  0  0  0  0  0  0  0  0
   23.4926  -20.8163  -10.0745 C   0  0  0  0  0  0  0  0  0  0  0  0
   22.1374  -20.1916   -9.7573 C   0  0  0  0  0  0  0  0  0  0  0  0
   21.2661  -20.9479  -10.7586 C   0  0  0  0  0  0  0  0  0  0  0  0
   22.1678  -20.8761  -11.9862 C   0  0  1  0  0  0  0  0  0  0  0  0
   21.9990  -19.5509  -12.6410 C   0  0  0  0  0  0  0  0  0  0  0  0
   22.7152  -18.5868  -12.2692 O   0  0  0  0  0  0  0  0  0  0  0  0
   23.3121  -19.8708  -17.8887 N   0  0  0  0  0  0  0  0  0  0  0  0
   23.1862  -18.9921  -16.7823 C   0  0  0  0  0  0  0  0  0  0  0  0
   23.4581  -17.7778  -16.9389 O   0  0  0  0  0  0  0  0  0  0  0  0
   22.7473  -19.4532  -15.4544 C   0  0  0  0  0  0  0  0  0  0  0  0
   21.4194  -18.8987  -15.0169 C   0  0  2  0  0  0  0  0  0  0  0  0
   21.0650  -19.3051  -13.6763 N   0  0  0  0  0  0  0  0  0  0  0  0
   20.3522  -19.1276  -15.9902 C   0  0  0  0  0  0  0  0  0  0  0  0
   19.8582  -20.2300  -16.2780 O   0  0  0  0  0  0  0  0  0  0  0  0
   19.8362  -18.0023  -16.6628 O   0  0  0  0  0  0  0  0  0  0  0  0
  2  1  1  6
  2  3  1  0
  3  4  1  0
  4 12  1  0
  4  5  2  0
  5  6  1  0
  7  8  2  0
  7  6  1  0
  9  8  1  0
 10  9  2  0
 11 10  1  0
 11 12  2  0
 12  7  1  0
 13 15  1  0
 13  2  1  0
 14 13  2  0
 15 19  1  0
 16 17  1  0
 16 15  1  0
 17 18  1  0
 18 19  1  0
 19 20  1  1
 20 21  2  0
 22 23  1  0
 23 24  2  0
 23 25  1  0
 26 25  1  6
 26 28  1  0
 27 26  1  0
 27 20  1  0
 28 29  2  0
 28 30  1  0
M  END
$$$$
