WPN.pdb
     RDKit          3D

 30 32  0  0  1  0  0  0  0  0999 V2000
   29.6588  -21.7626   -0.8089 N   0  0  0  0  0  0  0  0  0  0  0  0
   31.0137  -22.1553   -0.6146 C   0  0  1  0  0  0  0  0  0  0  0  0
   31.9529  -21.0979   -1.1030 C   0  0  0  0  0  0  0  0  0  0  0  0
   31.4116  -20.1673   -2.0973 C   0  0  0  0  0  0  0  0  0  0  0  0
   31.3568  -18.7985   -1.9269 C   0  0  0  0  0  0  0  0  0  0  0  0
   30.8433  -18.2557   -3.0209 N   0  0  0  0  0  0  0  0  0  0  0  0
   30.5478  -19.2067   -3.9258 C   0  0  0  0  0  0  0  0  0  0  0  0
   30.0000  -19.1354   -5.1850 C   0  0  0  0  0  0  0  0  0  0  0  0
   29.7973  -20.3120   -5.8974 C   0  0  0  0  0  0  0  0  0  0  0  0
   30.1378  -21.5147   -5.3513 C   0  0  0  0  0  0  0  0  0  0  0  0
   30.6864  -21.5417   -4.0819 C   0  0  0  0  0  0  0  0  0  0  0  0
   30.9080  -20.4245   -3.3405 C   0  0  0  0  0  0  0  0  0  0  0  0
   31.3768  -22.4971    0.7835 C   0  0  0  0  0  0  0  0  0  0  0  0
   31.0036  -21.6634    1.6887 O   0  0  0  0  0  0  0  0  0  0  0  0
   32.0797  -23.6249    1.2172 N   0  0  0  0  0  0  0  0  0  0  0  0
   32.8220  -24.5438    0.3907 C   0  0  0  0  0  0  0  0  0  0  0  0
   33.6267  -25.4289    1.3376 C   0  0  0  0  0  0  0  0  0  0  0  0
   32.6354  -25.5330    2.4953 C   0  0  0  0  0  0  0  0  0  0  0  0
   32.1894  -24.0773    2.5806 C   0  0  1  0  0  0  0  0  0  0  0  0
   33.2014  -23.2990    3.3447 C   0  0  0  0  0  0  0  0  0  0  0  0
   34.1852  -22.8071    2.7358 O   0  0  0  0  0  0  0  0  0  0  0  0
   33.6390  -23.1998    8.8845 N   0  0  0  0  0  0  0  0  0  0  0  0
   32.9813  -22.7935    7.6952 C   0  0  0  0  0  0  0  0  0  0  0  0
   31.8745  -23.3089    7.4084 O   0  0  0  0  0  0  0  0  0  0  0  0
   33.5504  -21.7870    6.7832 C   0  0  0  0  0  0  0  0  0  0  0  0
   34.1127  -22.3566    5.5097 C   0  0  2  0  0  0  0  0  0  0  0  0
   33.1221  -23.0741    4.7402 N   0  0  0  0  0  0  0  0  0  0  0  0
   35.3452  -23.1164    5.7149 C   0  0  0  0  0  0  0  0  0  0  0  0
   35.5093  -24.3175    5.4456 O   0  0  0  0  0  0  0  0  0  0  0  0
   36.4454  -22.4302    6.2660 O   0  0  0  0  0  0  0  0  0  0  0  0
  2  1  1  1
  2  3  1  0
  3  4  1  0
  4 12  1  0
  4  5  2  0
  5  6  1  0
  7  8  2  0
  7  6  1  0
  9  8  1  0
 10  9  2  0
 11 10  1  0
 11 12  2  0
 12  7  1  0
 13 15  1  0
 13  2  1  0
 14 13  2  0
 15 19  1  0
 16 17  1  0
 16 15  1  0
 17 18  1  0
 18 19  1  0
 19 20  1  1
 20 21  2  0
 22 23  1  0
 23 24  2  0
 23 25  1  0
 26 25  1  1
 26 28  1  0
 27 26  1  0
 27 20  1  0
 28 29  2  0
 28 30  1  0
M  END
$$$$
