WPN.pdb
     RDKit          3D

 30 32  0  0  1  0  0  0  0  0999 V2000
   24.0390  -19.8950   -9.5678 N   0  0  0  0  0  0  0  0  0  0  0  0
   25.3786  -19.8164  -10.0439 C   0  0  1  0  0  0  0  0  0  0  0  0
   26.3092  -20.5763   -9.1521 C   0  0  0  0  0  0  0  0  0  0  0  0
   26.8314  -19.8438   -7.9951 C   0  0  0  0  0  0  0  0  0  0  0  0
   26.4984  -18.5393   -7.6906 C   0  0  0  0  0  0  0  0  0  0  0  0
   27.1162  -18.1949   -6.5703 N   0  0  0  0  0  0  0  0  0  0  0  0
   27.8558  -19.2183   -6.1053 C   0  0  0  0  0  0  0  0  0  0  0  0
   28.6647  -19.3366   -4.9996 C   0  0  0  0  0  0  0  0  0  0  0  0
   29.3258  -20.5390   -4.7761 C   0  0  0  0  0  0  0  0  0  0  0  0
   29.1712  -21.5810   -5.6427 C   0  0  0  0  0  0  0  0  0  0  0  0
   28.3480  -21.4199   -6.7425 C   0  0  0  0  0  0  0  0  0  0  0  0
   27.6769  -20.2690   -7.0104 C   0  0  0  0  0  0  0  0  0  0  0  0
   25.5803  -20.2816  -11.4390 C   0  0  0  0  0  0  0  0  0  0  0  0
   24.6693  -21.0514  -11.9198 O   0  0  0  0  0  0  0  0  0  0  0  0
   26.6525  -19.9725  -12.2810 N   0  0  0  0  0  0  0  0  0  0  0  0
   27.9042  -19.3724  -11.8916 C   0  0  0  0  0  0  0  0  0  0  0  0
   28.8374  -19.4928  -13.0924 C   0  0  0  0  0  0  0  0  0  0  0  0
   27.8255  -19.3103  -14.2224 C   0  0  0  0  0  0  0  0  0  0  0  0
   26.7005  -20.1991  -13.7029 C   0  0  1  0  0  0  0  0  0  0  0  0
   27.0067  -21.6179  -14.0297 C   0  0  0  0  0  0  0  0  0  0  0  0
   27.6791  -22.3034  -13.2181 O   0  0  0  0  0  0  0  0  0  0  0  0
   24.3481  -25.9090  -13.9835 N   0  0  0  0  0  0  0  0  0  0  0  0
   23.8081  -24.6215  -14.2342 C   0  0  0  0  0  0  0  0  0  0  0  0
   22.5767  -24.5114  -14.4454 O   0  0  0  0  0  0  0  0  0  0  0  0
   24.6408  -23.4071  -14.2556 C   0  0  0  0  0  0  0  0  0  0  0  0
   25.7592  -23.4440  -15.2606 C   0  0  2  0  0  0  0  0  0  0  0  0
   26.5789  -22.2546  -15.2196 N   0  0  0  0  0  0  0  0  0  0  0  0
   25.3094  -23.7885  -16.6088 C   0  0  0  0  0  0  0  0  0  0  0  0
   24.6566  -23.0511  -17.3653 O   0  0  0  0  0  0  0  0  0  0  0  0
   25.6432  -25.0674  -17.0963 O   0  0  0  0  0  0  0  0  0  0  0  0
  2  1  1  1
  2  3  1  0
  3  4  1  0
  4 12  1  0
  4  5  2  0
  5  6  1  0
  7  8  2  0
  7  6  1  0
  9  8  1  0
 10  9  2  0
 11 10  1  0
 11 12  2  0
 12  7  1  0
 13 15  1  0
 13  2  1  0
 14 13  2  0
 15 19  1  0
 16 17  1  0
 16 15  1  0
 17 18  1  0
 18 19  1  0
 19 20  1  1
 20 21  2  0
 22 23  1  0
 23 24  2  0
 23 25  1  0
 26 25  1  1
 26 28  1  0
 27 26  1  0
 27 20  1  0
 28 29  2  0
 28 30  1  0
M  END
$$$$
