WPN.pdb
     RDKit          3D

 30 32  0  0  1  0  0  0  0  0999 V2000
   24.4778  -19.4534   -9.6233 N   0  0  0  0  0  0  0  0  0  0  0  0
   25.8180  -19.7139  -10.0279 C   0  0  1  0  0  0  0  0  0  0  0  0
   26.3965  -20.8591   -9.2582 C   0  0  0  0  0  0  0  0  0  0  0  0
   26.4164  -20.7087   -7.8006 C   0  0  0  0  0  0  0  0  0  0  0  0
   25.3428  -20.9880   -6.9791 C   0  0  0  0  0  0  0  0  0  0  0  0
   25.7048  -20.7769   -5.7222 N   0  0  0  0  0  0  0  0  0  0  0  0
   26.9842  -20.3643   -5.6625 C   0  0  0  0  0  0  0  0  0  0  0  0
   27.7876  -20.0196   -4.6011 C   0  0  0  0  0  0  0  0  0  0  0  0
   29.0934  -19.6129   -4.8509 C   0  0  0  0  0  0  0  0  0  0  0  0
   29.5646  -19.5582   -6.1298 C   0  0  0  0  0  0  0  0  0  0  0  0
   28.7234  -19.9138   -7.1684 C   0  0  0  0  0  0  0  0  0  0  0  0
   27.4396  -20.3195   -6.9838 C   0  0  0  0  0  0  0  0  0  0  0  0
   25.9984  -19.9824  -11.4765 C   0  0  0  0  0  0  0  0  0  0  0  0
   24.9377  -20.2903  -12.1350 O   0  0  0  0  0  0  0  0  0  0  0  0
   27.1957  -19.9366  -12.1967 N   0  0  0  0  0  0  0  0  0  0  0  0
   28.5265  -19.8710  -11.6460 C   0  0  0  0  0  0  0  0  0  0  0  0
   29.4894  -20.1204  -12.8027 C   0  0  0  0  0  0  0  0  0  0  0  0
   28.7212  -19.4306  -13.9288 C   0  0  0  0  0  0  0  0  0  0  0  0
   27.3170  -19.9461  -13.6322 C   0  0  1  0  0  0  0  0  0  0  0  0
   27.1695  -21.3160  -14.1935 C   0  0  0  0  0  0  0  0  0  0  0  0
   27.6288  -22.2949  -13.5521 O   0  0  0  0  0  0  0  0  0  0  0  0
   23.1827  -24.2691  -15.6860 N   0  0  0  0  0  0  0  0  0  0  0  0
   23.2912  -23.3473  -14.6134 C   0  0  0  0  0  0  0  0  0  0  0  0
   22.3762  -23.3038  -13.7568 O   0  0  0  0  0  0  0  0  0  0  0  0
   24.4402  -22.4378  -14.4678 C   0  0  0  0  0  0  0  0  0  0  0  0
   25.4355  -22.5166  -15.5928 C   0  0  2  0  0  0  0  0  0  0  0  0
   26.5314  -21.5894  -15.4274 N   0  0  0  0  0  0  0  0  0  0  0  0
   24.8149  -22.4465  -16.9151 C   0  0  0  0  0  0  0  0  0  0  0  0
   24.2703  -21.4451  -17.4077 O   0  0  0  0  0  0  0  0  0  0  0  0
   24.8342  -23.6144  -17.7027 O   0  0  0  0  0  0  0  0  0  0  0  0
  2  1  1  6
  2  3  1  0
  3  4  1  0
  4 12  1  0
  4  5  2  0
  5  6  1  0
  7  8  2  0
  7  6  1  0
  9  8  1  0
 10  9  2  0
 11 10  1  0
 11 12  2  0
 12  7  1  0
 13 15  1  0
 13  2  1  0
 14 13  2  0
 15 19  1  0
 16 17  1  0
 16 15  1  0
 17 18  1  0
 18 19  1  0
 19 20  1  1
 20 21  2  0
 22 23  1  0
 23 24  2  0
 23 25  1  0
 26 25  1  1
 26 28  1  0
 27 26  1  0
 27 20  1  0
 28 29  2  0
 28 30  1  0
M  END
$$$$
