WPN.pdb
     RDKit          3D

 30 32  0  0  1  0  0  0  0  0999 V2000
   21.7818  -13.0465  -16.9575 N   0  0  0  0  0  0  0  0  0  0  0  0
   21.0448  -11.8623  -17.2440 C   0  0  1  0  0  0  0  0  0  0  0  0
   19.5752  -12.1411  -17.2769 C   0  0  0  0  0  0  0  0  0  0  0  0
   19.1740  -13.3992  -17.9124 C   0  0  0  0  0  0  0  0  0  0  0  0
   19.5948  -13.8027  -19.1636 C   0  0  0  0  0  0  0  0  0  0  0  0
   19.0757  -14.9941  -19.4214 N   0  0  0  0  0  0  0  0  0  0  0  0
   18.3182  -15.4119  -18.3907 C   0  0  0  0  0  0  0  0  0  0  0  0
   17.5836  -16.5583  -18.1985 C   0  0  0  0  0  0  0  0  0  0  0  0
   16.8782  -16.7133  -17.0107 C   0  0  0  0  0  0  0  0  0  0  0  0
   16.9174  -15.7409  -16.0549 C   0  0  0  0  0  0  0  0  0  0  0  0
   17.6688  -14.6034  -16.2883 C   0  0  0  0  0  0  0  0  0  0  0  0
   18.3785  -14.3987  -17.4290 C   0  0  0  0  0  0  0  0  0  0  0  0
   21.2875  -10.7288  -16.3169 C   0  0  0  0  0  0  0  0  0  0  0  0
   21.3390  -11.0182  -15.0650 O   0  0  0  0  0  0  0  0  0  0  0  0
   21.4643   -9.3854  -16.6604 N   0  0  0  0  0  0  0  0  0  0  0  0
   21.4829   -8.8357  -17.9932 C   0  0  0  0  0  0  0  0  0  0  0  0
   21.4242   -7.3190  -17.8397 C   0  0  0  0  0  0  0  0  0  0  0  0
   22.2487   -7.1586  -16.5636 C   0  0  0  0  0  0  0  0  0  0  0  0
   21.6625   -8.2978  -15.7367 C   0  0  1  0  0  0  0  0  0  0  0  0
   20.3834   -7.8497  -15.1230 C   0  0  0  0  0  0  0  0  0  0  0  0
   19.3059   -8.0386  -15.7427 O   0  0  0  0  0  0  0  0  0  0  0  0
   16.8451   -6.0767  -11.5740 N   0  0  0  0  0  0  0  0  0  0  0  0
   17.8158   -6.9584  -11.0334 C   0  0  0  0  0  0  0  0  0  0  0  0
   17.6209   -7.4508   -9.8965 O   0  0  0  0  0  0  0  0  0  0  0  0
   19.0460   -7.3181  -11.7586 C   0  0  0  0  0  0  0  0  0  0  0  0
   19.0684   -6.8710  -13.1945 C   0  0  2  0  0  0  0  0  0  0  0  0
   20.3041   -7.2130  -13.8609 N   0  0  0  0  0  0  0  0  0  0  0  0
   18.6892   -5.4691  -13.3660 C   0  0  0  0  0  0  0  0  0  0  0  0
   19.4699   -4.5295  -13.5895 O   0  0  0  0  0  0  0  0  0  0  0  0
   17.3199   -5.1517  -13.2701 O   0  0  0  0  0  0  0  0  0  0  0  0
  2  1  1  1
  2  3  1  0
  3  4  1  0
  4 12  1  0
  4  5  2  0
  5  6  1  0
  7  8  2  0
  7  6  1  0
  9  8  1  0
 10  9  2  0
 11 10  1  0
 11 12  2  0
 12  7  1  0
 13 15  1  0
 13  2  1  0
 14 13  2  0
 15 19  1  0
 16 17  1  0
 16 15  1  0
 17 18  1  0
 18 19  1  0
 19 20  1  6
 20 21  2  0
 22 23  1  0
 23 24  2  0
 23 25  1  0
 26 25  1  1
 26 28  1  0
 27 26  1  0
 27 20  1  0
 28 29  2  0
 28 30  1  0
M  END
$$$$
