WPN.pdb
     RDKit          3D

 30 32  0  0  1  0  0  0  0  0999 V2000
   24.9685  -18.9403   -8.8172 N   0  0  0  0  0  0  0  0  0  0  0  0
   26.0463  -19.6334   -9.4381 C   0  0  1  0  0  0  0  0  0  0  0  0
   26.2615  -20.9698   -8.8005 C   0  0  0  0  0  0  0  0  0  0  0  0
   26.4618  -20.9642   -7.3488 C   0  0  0  0  0  0  0  0  0  0  0  0
   25.6423  -21.6199   -6.4521 C   0  0  0  0  0  0  0  0  0  0  0  0
   26.1207  -21.4383   -5.2300 N   0  0  0  0  0  0  0  0  0  0  0  0
   27.2338  -20.6831   -5.2661 C   0  0  0  0  0  0  0  0  0  0  0  0
   28.0656  -20.2281   -4.2702 C   0  0  0  0  0  0  0  0  0  0  0  0
   29.1582  -19.4405   -4.6147 C   0  0  0  0  0  0  0  0  0  0  0  0
   29.3964  -19.1271   -5.9207 C   0  0  0  0  0  0  0  0  0  0  0  0
   28.5350  -19.6055   -6.8913 C   0  0  0  0  0  0  0  0  0  0  0  0
   27.4530  -20.3795   -6.6134 C   0  0  0  0  0  0  0  0  0  0  0  0
   25.9100  -19.8281  -10.9032 C   0  0  0  0  0  0  0  0  0  0  0  0
   24.7227  -19.7165  -11.3844 O   0  0  0  0  0  0  0  0  0  0  0  0
   26.9325  -20.1199  -11.8108 N   0  0  0  0  0  0  0  0  0  0  0  0
   28.2961  -20.4582  -11.4875 C   0  0  0  0  0  0  0  0  0  0  0  0
   28.9397  -20.9544  -12.7786 C   0  0  0  0  0  0  0  0  0  0  0  0
   28.2318  -20.0465  -13.7830 C   0  0  0  0  0  0  0  0  0  0  0  0
   26.8074  -20.1344  -13.2459 C   0  0  1  0  0  0  0  0  0  0  0  0
   26.1757  -21.3891  -13.7361 C   0  0  0  0  0  0  0  0  0  0  0  0
   26.3604  -22.4582  -13.1008 O   0  0  0  0  0  0  0  0  0  0  0  0
   21.2779  -22.7746  -14.8226 N   0  0  0  0  0  0  0  0  0  0  0  0
   21.8012  -21.9858  -13.7662 C   0  0  0  0  0  0  0  0  0  0  0  0
   21.0520  -21.6837  -12.8069 O   0  0  0  0  0  0  0  0  0  0  0  0
   23.1940  -21.5076  -13.7537 C   0  0  0  0  0  0  0  0  0  0  0  0
   24.0180  -21.9780  -14.9208 C   0  0  2  0  0  0  0  0  0  0  0  0
   25.3642  -21.4534  -14.8944 N   0  0  0  0  0  0  0  0  0  0  0  0
   23.3506  -21.7900  -16.2084 C   0  0  0  0  0  0  0  0  0  0  0  0
   22.9801  -20.7028  -16.6805 O   0  0  0  0  0  0  0  0  0  0  0  0
   23.1044  -22.9396  -16.9846 O   0  0  0  0  0  0  0  0  0  0  0  0
  2  1  1  1
  2  3  1  0
  3  4  1  0
  4 12  1  0
  4  5  2  0
  5  6  1  0
  7  8  2  0
  7  6  1  0
  9  8  1  0
 10  9  2  0
 11 10  1  0
 11 12  2  0
 12  7  1  0
 13 15  1  0
 13  2  1  0
 14 13  2  0
 15 19  1  0
 16 17  1  0
 16 15  1  0
 17 18  1  0
 18 19  1  0
 19 20  1  1
 20 21  2  0
 22 23  1  0
 23 24  2  0
 23 25  1  0
 26 25  1  1
 26 28  1  0
 27 26  1  0
 27 20  1  0
 28 29  2  0
 28 30  1  0
M  END
$$$$
