WPN.pdb
     RDKit          3D

 30 32  0  0  1  0  0  0  0  0999 V2000
   27.1387  -19.9420  -17.6485 N   0  0  0  0  0  0  0  0  0  0  0  0
   27.1258  -19.5476  -16.2803 C   0  0  1  0  0  0  0  0  0  0  0  0
   26.7260  -18.1125  -16.1406 C   0  0  0  0  0  0  0  0  0  0  0  0
   27.5951  -17.1361  -16.8031 C   0  0  0  0  0  0  0  0  0  0  0  0
   27.1487  -15.9530  -17.3567 C   0  0  0  0  0  0  0  0  0  0  0  0
   28.1899  -15.2933  -17.8427 N   0  0  0  0  0  0  0  0  0  0  0  0
   29.3249  -15.9866  -17.6390 C   0  0  0  0  0  0  0  0  0  0  0  0
   30.6335  -15.7195  -17.9662 C   0  0  0  0  0  0  0  0  0  0  0  0
   31.6132  -16.6467  -17.6296 C   0  0  0  0  0  0  0  0  0  0  0  0
   31.2763  -17.8010  -16.9856 C   0  0  0  0  0  0  0  0  0  0  0  0
   29.9482  -18.0304  -16.6747 C   0  0  0  0  0  0  0  0  0  0  0  0
   28.9494  -17.1602  -16.9779 C   0  0  0  0  0  0  0  0  0  0  0  0
   26.2579  -20.3654  -15.3966 C   0  0  0  0  0  0  0  0  0  0  0  0
   25.2962  -20.9979  -15.9700 O   0  0  0  0  0  0  0  0  0  0  0  0
   26.3752  -20.5188  -14.0120 N   0  0  0  0  0  0  0  0  0  0  0  0
   27.3416  -19.8764  -13.1564 C   0  0  0  0  0  0  0  0  0  0  0  0
   26.8948  -20.1382  -11.7213 C   0  0  0  0  0  0  0  0  0  0  0  0
   26.3212  -21.5448  -11.8842 C   0  0  0  0  0  0  0  0  0  0  0  0
   25.5449  -21.3545  -13.1829 C   0  0  1  0  0  0  0  0  0  0  0  0
   24.2363  -20.7138  -12.8818 C   0  0  0  0  0  0  0  0  0  0  0  0
   24.1947  -19.4766  -12.6623 O   0  0  0  0  0  0  0  0  0  0  0  0
   19.1112  -19.7078  -12.3031 N   0  0  0  0  0  0  0  0  0  0  0  0
   19.3175  -20.7660  -13.2249 C   0  0  0  0  0  0  0  0  0  0  0  0
   18.3403  -21.1953  -13.8834 O   0  0  0  0  0  0  0  0  0  0  0  0
   20.6388  -21.3803  -13.4382 C   0  0  0  0  0  0  0  0  0  0  0  0
   21.7275  -20.8202  -12.5645 C   0  0  2  0  0  0  0  0  0  0  0  0
   23.0134  -21.4250  -12.8271 N   0  0  0  0  0  0  0  0  0  0  0  0
   21.3755  -20.8065  -11.1452 C   0  0  0  0  0  0  0  0  0  0  0  0
   21.7101  -21.6598  -10.3074 O   0  0  0  0  0  0  0  0  0  0  0  0
   20.5882  -19.7333  -10.6832 O   0  0  0  0  0  0  0  0  0  0  0  0
  2  1  1  6
  2  3  1  0
  3  4  1  0
  4 12  1  0
  4  5  2  0
  5  6  1  0
  7  8  2  0
  7  6  1  0
  9  8  1  0
 10  9  2  0
 11 10  1  0
 11 12  2  0
 12  7  1  0
 13 15  1  0
 13  2  1  0
 14 13  2  0
 15 19  1  0
 16 17  1  0
 16 15  1  0
 17 18  1  0
 18 19  1  0
 19 20  1  1
 20 21  2  0
 22 23  1  0
 23 24  2  0
 23 25  1  0
 26 25  1  6
 26 28  1  0
 27 26  1  0
 27 20  1  0
 28 29  2  0
 28 30  1  0
M  END
$$$$
