WPN.pdb
     RDKit          3D

 30 32  0  0  1  0  0  0  0  0999 V2000
   25.2321  -21.3742  -15.2287 N   0  0  0  0  0  0  0  0  0  0  0  0
   26.0686  -20.6031  -14.3724 C   0  0  1  0  0  0  0  0  0  0  0  0
   25.4003  -19.3225  -13.9824 C   0  0  0  0  0  0  0  0  0  0  0  0
   25.1444  -18.3742  -15.0701 C   0  0  0  0  0  0  0  0  0  0  0  0
   23.8838  -17.9906  -15.4817 C   0  0  0  0  0  0  0  0  0  0  0  0
   24.0086  -17.1039  -16.4583 N   0  0  0  0  0  0  0  0  0  0  0  0
   25.3075  -16.8734  -16.7234 C   0  0  0  0  0  0  0  0  0  0  0  0
   25.9249  -16.0551  -17.6399 C   0  0  0  0  0  0  0  0  0  0  0  0
   27.3140  -16.0314  -17.6914 C   0  0  0  0  0  0  0  0  0  0  0  0
   28.0476  -16.8093  -16.8446 C   0  0  0  0  0  0  0  0  0  0  0  0
   27.3869  -17.6180  -15.9376 C   0  0  0  0  0  0  0  0  0  0  0  0
   26.0328  -17.6809  -15.8417 C   0  0  0  0  0  0  0  0  0  0  0  0
   26.5156  -21.2949  -13.1376 C   0  0  0  0  0  0  0  0  0  0  0  0
   25.6659  -22.0907  -12.5914 O   0  0  0  0  0  0  0  0  0  0  0  0
   27.7578  -21.1718  -12.5084 N   0  0  0  0  0  0  0  0  0  0  0  0
   28.9394  -20.5531  -13.0556 C   0  0  0  0  0  0  0  0  0  0  0  0
   29.9334  -20.4194  -11.9060 C   0  0  0  0  0  0  0  0  0  0  0  0
   29.6079  -21.6982  -11.1360 C   0  0  0  0  0  0  0  0  0  0  0  0
   28.0848  -21.6461  -11.1880 C   0  0  1  0  0  0  0  0  0  0  0  0
   27.5899  -20.7262  -10.1285 C   0  0  0  0  0  0  0  0  0  0  0  0
   27.3388  -19.5299  -10.4225 O   0  0  0  0  0  0  0  0  0  0  0  0
   23.5103  -21.7901   -5.8612 N   0  0  0  0  0  0  0  0  0  0  0  0
   24.1317  -21.0043   -6.8655 C   0  0  0  0  0  0  0  0  0  0  0  0
   23.7537  -19.8196   -7.0284 O   0  0  0  0  0  0  0  0  0  0  0  0
   25.2062  -21.5285   -7.7253 C   0  0  0  0  0  0  0  0  0  0  0  0
   26.3558  -20.5792   -7.9236 C   0  0  2  0  0  0  0  0  0  0  0  0
   27.3799  -21.1232   -8.7859 N   0  0  0  0  0  0  0  0  0  0  0  0
   26.8826  -20.0444   -6.6686 C   0  0  0  0  0  0  0  0  0  0  0  0
   27.4394  -20.7049   -5.7765 O   0  0  0  0  0  0  0  0  0  0  0  0
   26.7491  -18.6593   -6.4476 O   0  0  0  0  0  0  0  0  0  0  0  0
  2  1  1  1
  2  3  1  0
  3  4  1  0
  4 12  1  0
  4  5  2  0
  5  6  1  0
  7  8  2  0
  7  6  1  0
  9  8  1  0
 10  9  2  0
 11 10  1  0
 11 12  2  0
 12  7  1  0
 13 15  1  0
 13  2  1  0
 14 13  2  0
 15 19  1  0
 16 17  1  0
 16 15  1  0
 17 18  1  0
 18 19  1  0
 19 20  1  1
 20 21  2  0
 22 23  1  0
 23 24  2  0
 23 25  1  0
 26 25  1  1
 26 28  1  0
 27 26  1  0
 27 20  1  0
 28 29  2  0
 28 30  1  0
M  END
$$$$
