WPN.pdb
     RDKit          3D

 30 32  0  0  1  0  0  0  0  0999 V2000
   23.7662  -20.5280  -11.9033 N   0  0  0  0  0  0  0  0  0  0  0  0
   25.1516  -20.2880  -12.1282 C   0  0  1  0  0  0  0  0  0  0  0  0
   25.9942  -21.1087  -11.2034 C   0  0  0  0  0  0  0  0  0  0  0  0
   25.9541  -20.7272   -9.7890 C   0  0  0  0  0  0  0  0  0  0  0  0
   24.8010  -20.6845   -9.0314 C   0  0  0  0  0  0  0  0  0  0  0  0
   25.1197  -20.3341   -7.7941 N   0  0  0  0  0  0  0  0  0  0  0  0
   26.4465  -20.1374   -7.6861 C   0  0  0  0  0  0  0  0  0  0  0  0
   27.2342  -19.7631   -6.6230 C   0  0  0  0  0  0  0  0  0  0  0  0
   28.6041  -19.6271   -6.8167 C   0  0  0  0  0  0  0  0  0  0  0  0
   29.1526  -19.8622   -8.0433 C   0  0  0  0  0  0  0  0  0  0  0  0
   28.3245  -20.2370   -9.0857 C   0  0  0  0  0  0  0  0  0  0  0  0
   26.9801  -20.3864   -8.9544 C   0  0  0  0  0  0  0  0  0  0  0  0
   25.6146  -20.5228  -13.5188 C   0  0  0  0  0  0  0  0  0  0  0  0
   24.9361  -21.3691  -14.2095 O   0  0  0  0  0  0  0  0  0  0  0  0
   26.7067  -19.9237  -14.1532 N   0  0  0  0  0  0  0  0  0  0  0  0
   27.6854  -19.0589  -13.5426 C   0  0  0  0  0  0  0  0  0  0  0  0
   28.8127  -18.8921  -14.5569 C   0  0  0  0  0  0  0  0  0  0  0  0
   27.9982  -18.9047  -15.8493 C   0  0  0  0  0  0  0  0  0  0  0  0
   27.0543  -20.0628  -15.5443 C   0  0  1  0  0  0  0  0  0  0  0  0
   27.7520  -21.3482  -15.8171 C   0  0  0  0  0  0  0  0  0  0  0  0
   28.4944  -21.8436  -14.9317 O   0  0  0  0  0  0  0  0  0  0  0  0
   25.3246  -26.0670  -15.8597 N   0  0  0  0  0  0  0  0  0  0  0  0
   26.6318  -25.5173  -15.8897 C   0  0  0  0  0  0  0  0  0  0  0  0
   27.6142  -26.2936  -15.9621 O   0  0  0  0  0  0  0  0  0  0  0  0
   26.8790  -24.0664  -15.8391 C   0  0  0  0  0  0  0  0  0  0  0  0
   27.3881  -23.4823  -17.1283 C   0  0  2  0  0  0  0  0  0  0  0  0
   27.6281  -22.0605  -17.0344 N   0  0  0  0  0  0  0  0  0  0  0  0
   26.5786  -23.8555  -18.2876 C   0  0  0  0  0  0  0  0  0  0  0  0
   25.4256  -23.4596  -18.5239 O   0  0  0  0  0  0  0  0  0  0  0  0
   27.1527  -24.7413  -19.2208 O   0  0  0  0  0  0  0  0  0  0  0  0
  2  1  1  6
  2  3  1  0
  3  4  1  0
  4 12  1  0
  4  5  2  0
  5  6  1  0
  7  8  2  0
  7  6  1  0
  9  8  1  0
 10  9  2  0
 11 10  1  0
 11 12  2  0
 12  7  1  0
 13 15  1  0
 13  2  1  0
 14 13  2  0
 15 19  1  0
 16 17  1  0
 16 15  1  0
 17 18  1  0
 18 19  1  0
 19 20  1  1
 20 21  2  0
 22 23  1  0
 23 24  2  0
 23 25  1  0
 26 25  1  1
 26 28  1  0
 27 26  1  0
 27 20  1  0
 28 29  2  0
 28 30  1  0
M  END
$$$$
