WPN.pdb
     RDKit          3D

 30 32  0  0  1  0  0  0  0  0999 V2000
   28.2149  -21.0857  -14.0205 N   0  0  0  0  0  0  0  0  0  0  0  0
   27.0125  -21.3478  -13.3041 C   0  0  1  0  0  0  0  0  0  0  0  0
   26.8750  -20.4262  -12.1335 C   0  0  0  0  0  0  0  0  0  0  0  0
   27.8398  -20.6189  -11.0474 C   0  0  0  0  0  0  0  0  0  0  0  0
   29.1916  -20.8216  -11.2400 C   0  0  0  0  0  0  0  0  0  0  0  0
   29.7772  -20.9265  -10.0562 N   0  0  0  0  0  0  0  0  0  0  0  0
   28.8714  -20.8027   -9.0689 C   0  0  0  0  0  0  0  0  0  0  0  0
   28.9954  -20.8475   -7.7002 C   0  0  0  0  0  0  0  0  0  0  0  0
   27.8571  -20.6946   -6.9168 C   0  0  0  0  0  0  0  0  0  0  0  0
   26.6396  -20.5039   -7.5016 C   0  0  0  0  0  0  0  0  0  0  0  0
   26.5591  -20.4651   -8.8818 C   0  0  0  0  0  0  0  0  0  0  0  0
   27.6373  -20.6074   -9.6967 C   0  0  0  0  0  0  0  0  0  0  0  0
   25.7688  -21.2718  -14.1107 C   0  0  0  0  0  0  0  0  0  0  0  0
   25.5971  -20.1950  -14.7925 O   0  0  0  0  0  0  0  0  0  0  0  0
   24.7683  -22.2434  -14.2057 N   0  0  0  0  0  0  0  0  0  0  0  0
   24.7593  -23.5320  -13.5592 C   0  0  0  0  0  0  0  0  0  0  0  0
   23.3555  -24.1009  -13.7409 C   0  0  0  0  0  0  0  0  0  0  0  0
   23.0372  -23.5576  -15.1328 C   0  0  0  0  0  0  0  0  0  0  0  0
   23.5550  -22.1321  -14.9745 C   0  0  1  0  0  0  0  0  0  0  0  0
   22.5279  -21.3127  -14.2765 C   0  0  0  0  0  0  0  0  0  0  0  0
   22.7511  -20.9171  -13.1042 O   0  0  0  0  0  0  0  0  0  0  0  0
   19.8813  -16.8863  -14.8850 N   0  0  0  0  0  0  0  0  0  0  0  0
   21.2509  -17.1780  -15.1113 C   0  0  0  0  0  0  0  0  0  0  0  0
   22.0379  -16.2345  -15.3633 O   0  0  0  0  0  0  0  0  0  0  0  0
   21.7842  -18.5498  -15.0614 C   0  0  0  0  0  0  0  0  0  0  0  0
   20.7410  -19.6091  -14.8336 C   0  0  2  0  0  0  0  0  0  0  0  0
   21.2930  -20.9442  -14.8626 N   0  0  0  0  0  0  0  0  0  0  0  0
   19.5658  -19.4519  -15.6897 C   0  0  0  0  0  0  0  0  0  0  0  0
   19.5258  -19.6673  -16.9120 O   0  0  0  0  0  0  0  0  0  0  0  0
   18.3724  -19.0186  -15.0790 O   0  0  0  0  0  0  0  0  0  0  0  0
  2  1  1  6
  2  3  1  0
  3  4  1  0
  4 12  1  0
  4  5  2  0
  5  6  1  0
  7  8  2  0
  7  6  1  0
  9  8  1  0
 10  9  2  0
 11 10  1  0
 11 12  2  0
 12  7  1  0
 13 15  1  0
 13  2  1  0
 14 13  2  0
 15 19  1  0
 16 17  1  0
 16 15  1  0
 17 18  1  0
 18 19  1  0
 19 20  1  1
 20 21  2  0
 22 23  1  0
 23 24  2  0
 23 25  1  0
 26 25  1  6
 26 28  1  0
 27 26  1  0
 27 20  1  0
 28 29  2  0
 28 30  1  0
M  END
$$$$
