WPN.pdb
     RDKit          3D

 30 32  0  0  1  0  0  0  0  0999 V2000
   24.1722  -20.3950   -9.4013 N   0  0  0  0  0  0  0  0  0  0  0  0
   25.4291  -20.0629   -9.9822 C   0  0  1  0  0  0  0  0  0  0  0  0
   26.5497  -20.7376   -9.2558 C   0  0  0  0  0  0  0  0  0  0  0  0
   27.1127  -20.0035   -8.1193 C   0  0  0  0  0  0  0  0  0  0  0  0
   26.9074  -18.6581   -7.8888 C   0  0  0  0  0  0  0  0  0  0  0  0
   27.5267  -18.3211   -6.7670 N   0  0  0  0  0  0  0  0  0  0  0  0
   28.1444  -19.3889   -6.2297 C   0  0  0  0  0  0  0  0  0  0  0  0
   28.9065  -19.5318   -5.0941 C   0  0  0  0  0  0  0  0  0  0  0  0
   29.4344  -20.7819   -4.7918 C   0  0  0  0  0  0  0  0  0  0  0  0
   29.1972  -21.8459   -5.6118 C   0  0  0  0  0  0  0  0  0  0  0  0
   28.4250  -21.6588   -6.7440 C   0  0  0  0  0  0  0  0  0  0  0  0
   27.8831  -20.4611   -7.0885 C   0  0  0  0  0  0  0  0  0  0  0  0
   25.5554  -20.3687  -11.4292 C   0  0  0  0  0  0  0  0  0  0  0  0
   24.5342  -20.9165  -11.9866 O   0  0  0  0  0  0  0  0  0  0  0  0
   26.6637  -20.1255  -12.2457 N   0  0  0  0  0  0  0  0  0  0  0  0
   28.0047  -19.8295  -11.8066 C   0  0  0  0  0  0  0  0  0  0  0  0
   28.8972  -19.9206  -13.0404 C   0  0  0  0  0  0  0  0  0  0  0  0
   27.9324  -19.3811  -14.0949 C   0  0  0  0  0  0  0  0  0  0  0  0
   26.6660  -20.1259  -13.6863 C   0  0  1  0  0  0  0  0  0  0  0  0
   26.7084  -21.5054  -14.2417 C   0  0  0  0  0  0  0  0  0  0  0  0
   27.7507  -21.9015  -14.8227 O   0  0  0  0  0  0  0  0  0  0  0  0
   24.9629  -25.7088  -14.2801 N   0  0  0  0  0  0  0  0  0  0  0  0
   23.7420  -24.9908  -14.3565 C   0  0  0  0  0  0  0  0  0  0  0  0
   22.6973  -25.5225  -13.9104 O   0  0  0  0  0  0  0  0  0  0  0  0
   23.6551  -23.6418  -14.9408 C   0  0  0  0  0  0  0  0  0  0  0  0
   24.9859  -23.0346  -15.2909 C   0  0  2  0  0  0  0  0  0  0  0  0
   25.6278  -22.4158  -14.1537 N   0  0  0  0  0  0  0  0  0  0  0  0
   24.9298  -22.1652  -16.4654 C   0  0  0  0  0  0  0  0  0  0  0  0
   25.5174  -22.3622  -17.5415 O   0  0  0  0  0  0  0  0  0  0  0  0
   24.1415  -21.0011  -16.3729 O   0  0  0  0  0  0  0  0  0  0  0  0
  2  1  1  1
  2  3  1  0
  3  4  1  0
  4 12  1  0
  4  5  2  0
  5  6  1  0
  7  8  2  0
  7  6  1  0
  9  8  1  0
 10  9  2  0
 11 10  1  0
 11 12  2  0
 12  7  1  0
 13 15  1  0
 13  2  1  0
 14 13  2  0
 15 19  1  0
 16 17  1  0
 16 15  1  0
 17 18  1  0
 18 19  1  0
 19 20  1  1
 20 21  2  0
 22 23  1  0
 23 24  2  0
 23 25  1  0
 26 25  1  1
 26 28  1  0
 27 26  1  0
 27 20  1  0
 28 29  2  0
 28 30  1  0
M  END
$$$$
