WPN.pdb
     RDKit          3D

 30 32  0  0  1  0  0  0  0  0999 V2000
   20.0084  -21.0357  -13.0692 N   0  0  0  0  0  0  0  0  0  0  0  0
   20.3064  -20.5685  -11.7575 C   0  0  1  0  0  0  0  0  0  0  0  0
   19.2765  -19.5882  -11.2916 C   0  0  0  0  0  0  0  0  0  0  0  0
   19.1521  -18.3617  -12.0840 C   0  0  0  0  0  0  0  0  0  0  0  0
   20.0165  -17.2894  -11.9912 C   0  0  0  0  0  0  0  0  0  0  0  0
   19.6397  -16.3650  -12.8623 N   0  0  0  0  0  0  0  0  0  0  0  0
   18.5516  -16.7718  -13.5413 C   0  0  0  0  0  0  0  0  0  0  0  0
   17.8053  -16.1662  -14.5247 C   0  0  0  0  0  0  0  0  0  0  0  0
   16.7044  -16.8386  -15.0431 C   0  0  0  0  0  0  0  0  0  0  0  0
   16.3743  -18.0784  -14.5800 C   0  0  0  0  0  0  0  0  0  0  0  0
   17.1519  -18.6517  -13.5902 C   0  0  0  0  0  0  0  0  0  0  0  0
   18.2386  -18.0421  -13.0477 C   0  0  0  0  0  0  0  0  0  0  0  0
   20.4466  -21.6281  -10.7275 C   0  0  0  0  0  0  0  0  0  0  0  0
   19.8502  -22.7411  -10.9707 O   0  0  0  0  0  0  0  0  0  0  0  0
   21.1552  -21.5428   -9.5255 N   0  0  0  0  0  0  0  0  0  0  0  0
   21.9173  -20.4122   -9.0569 C   0  0  0  0  0  0  0  0  0  0  0  0
   22.2633  -20.6945   -7.5982 C   0  0  0  0  0  0  0  0  0  0  0  0
   22.4570  -22.2083   -7.6692 C   0  0  0  0  0  0  0  0  0  0  0  0
   21.2537  -22.5789   -8.5294 C   0  0  1  0  0  0  0  0  0  0  0  0
   20.0396  -22.6426   -7.6719 C   0  0  0  0  0  0  0  0  0  0  0  0
   19.2799  -21.6429   -7.6082 O   0  0  0  0  0  0  0  0  0  0  0  0
   15.1118  -23.3861   -6.3363 N   0  0  0  0  0  0  0  0  0  0  0  0
   15.9421  -24.2678   -7.0746 C   0  0  0  0  0  0  0  0  0  0  0  0
   15.5026  -25.4027   -7.3777 O   0  0  0  0  0  0  0  0  0  0  0  0
   17.3033  -23.8998   -7.4993 C   0  0  0  0  0  0  0  0  0  0  0  0
   18.3466  -24.0532   -6.4268 C   0  0  2  0  0  0  0  0  0  0  0  0
   19.6808  -23.7810   -6.9103 N   0  0  0  0  0  0  0  0  0  0  0  0
   18.2429  -25.3184   -5.7009 C   0  0  0  0  0  0  0  0  0  0  0  0
   17.5818  -25.5086   -4.6670 O   0  0  0  0  0  0  0  0  0  0  0  0
   18.9533  -26.4209   -6.2155 O   0  0  0  0  0  0  0  0  0  0  0  0
  2  1  1  6
  2  3  1  0
  3  4  1  0
  4 12  1  0
  4  5  2  0
  5  6  1  0
  7  8  2  0
  7  6  1  0
  9  8  1  0
 10  9  2  0
 11 10  1  0
 11 12  2  0
 12  7  1  0
 13 15  1  0
 13  2  1  0
 14 13  2  0
 15 19  1  0
 16 17  1  0
 16 15  1  0
 17 18  1  0
 18 19  1  0
 19 20  1  1
 20 21  2  0
 22 23  1  0
 23 24  2  0
 23 25  1  0
 26 25  1  6
 26 28  1  0
 27 26  1  0
 27 20  1  0
 28 29  2  0
 28 30  1  0
M  END
$$$$
