SWN.pdb
     RDKit          3D

 29 30  0  0  1  0  0  0  0  0999 V2000
    8.6293  -16.1453   19.3319 O   0  0  0  0  0  0  0  0  0  0  0  0
    7.3795  -16.2743   19.9422 C   0  0  0  0  0  0  0  0  0  0  0  0
    7.1351  -15.0203   20.7609 C   0  0  2  0  0  0  0  0  0  0  0  0
    7.2179  -13.8310   19.9398 N   0  0  0  0  0  0  0  0  0  0  0  0
    8.1554  -14.9148   21.8302 C   0  0  0  0  0  0  0  0  0  0  0  0
    9.1026  -14.0852   21.6734 O   0  0  0  0  0  0  0  0  0  0  0  0
    8.0801  -15.7097   22.9879 N   0  0  0  0  0  0  0  0  0  0  0  0
    9.1318  -15.5777   24.0071 C   0  0  1  0  0  0  0  0  0  0  0  0
    8.4391  -15.7712   25.3085 C   0  0  0  0  0  0  0  0  0  0  0  0
    7.4075  -14.7903   25.6579 C   0  0  0  0  0  0  0  0  0  0  0  0
    6.0307  -15.0170   25.6688 C   0  0  0  0  0  0  0  0  0  0  0  0
    5.3994  -13.8822   26.0106 N   0  0  0  0  0  0  0  0  0  0  0  0
    6.3103  -12.9201   26.2247 C   0  0  0  0  0  0  0  0  0  0  0  0
    6.1453  -11.5892   26.6083 C   0  0  0  0  0  0  0  0  0  0  0  0
    7.2354  -10.7677   26.7896 C   0  0  0  0  0  0  0  0  0  0  0  0
    8.4739  -11.3184   26.5763 C   0  0  0  0  0  0  0  0  0  0  0  0
    8.6311  -12.6339   26.1966 C   0  0  0  0  0  0  0  0  0  0  0  0
    7.5626  -13.4719   26.0090 C   0  0  0  0  0  0  0  0  0  0  0  0
   10.2047  -16.5053   23.6681 C   0  0  0  0  0  0  0  0  0  0  0  0
    9.9960  -17.6918   23.3202 O   0  0  0  0  0  0  0  0  0  0  0  0
   13.0619  -16.5286   20.7975 N   0  0  0  0  0  0  0  0  0  0  0  0
   13.7849  -15.8609   21.8203 C   0  0  0  0  0  0  0  0  0  0  0  0
   14.3388  -14.7746   21.4654 O   0  0  0  0  0  0  0  0  0  0  0  0
   13.8982  -16.3620   23.1913 C   0  0  0  0  0  0  0  0  0  0  0  0
   12.6271  -17.0829   23.6081 C   0  0  2  0  0  0  0  0  0  0  0  0
   11.5542  -16.0774   23.7243 N   0  0  0  0  0  0  0  0  0  0  0  0
   12.8214  -17.5996   24.9797 C   0  0  0  0  0  0  0  0  0  0  0  0
   12.0818  -17.1000   26.0270 O   0  0  0  0  0  0  0  0  0  0  0  0
   13.6620  -18.4952   25.1882 O   0  0  0  0  0  0  0  0  0  0  0  0
  2  1  1  0
  3  5  1  0
  3  2  1  0
  3  4  1  6
  5  6  2  0
  7  8  1  0
  7  5  1  0
  8  9  1  1
 10 18  1  0
 10  9  1  0
 11 10  2  0
 12 11  1  0
 12 13  1  0
 13 18  2  0
 14 13  1  0
 14 15  2  0
 15 16  1  0
 16 17  2  0
 18 17  1  0
 19 26  1  0
 19  8  1  0
 20 19  2  0
 22 21  1  0
 23 22  2  0
 24 22  1  0
 25 24  1  1
 25 26  1  0
 27 25  1  0
 27 28  1  0
 29 27  2  0
M  END
$$$$
