SWN.pdb
     RDKit          3D

 29 30  0  0  1  0  0  0  0  0999 V2000
   10.4991  -18.4724   18.7998 O   0  0  0  0  0  0  0  0  0  0  0  0
    9.1641  -18.1325   18.5692 C   0  0  0  0  0  0  0  0  0  0  0  0
    9.0730  -16.6181   18.5393 C   0  0  2  0  0  0  0  0  0  0  0  0
   10.1115  -16.0443   17.7101 N   0  0  0  0  0  0  0  0  0  0  0  0
    9.2286  -16.0809   19.9116 C   0  0  0  0  0  0  0  0  0  0  0  0
   10.3742  -15.6653   20.2649 O   0  0  0  0  0  0  0  0  0  0  0  0
    8.1401  -16.0312   20.8005 N   0  0  0  0  0  0  0  0  0  0  0  0
    8.3636  -15.5351   22.1666 C   0  0  1  0  0  0  0  0  0  0  0  0
    7.0086  -15.2268   22.6954 C   0  0  0  0  0  0  0  0  0  0  0  0
    6.9130  -14.9244   24.1265 C   0  0  0  0  0  0  0  0  0  0  0  0
    6.5885  -15.8313   25.1362 C   0  0  0  0  0  0  0  0  0  0  0  0
    6.5695  -15.1899   26.3157 N   0  0  0  0  0  0  0  0  0  0  0  0
    6.8699  -13.8969   26.1177 C   0  0  0  0  0  0  0  0  0  0  0  0
    6.9859  -12.8467   27.0283 C   0  0  0  0  0  0  0  0  0  0  0  0
    7.3247  -11.5810   26.6051 C   0  0  0  0  0  0  0  0  0  0  0  0
    7.5392  -11.4093   25.2609 C   0  0  0  0  0  0  0  0  0  0  0  0
    7.4226  -12.4504   24.3652 C   0  0  0  0  0  0  0  0  0  0  0  0
    7.0860  -13.7190   24.7609 C   0  0  0  0  0  0  0  0  0  0  0  0
    9.1578  -16.5281   22.8806 C   0  0  0  0  0  0  0  0  0  0  0  0
    9.1029  -17.7552   22.6283 O   0  0  0  0  0  0  0  0  0  0  0  0
   13.0127  -18.5919   25.6988 N   0  0  0  0  0  0  0  0  0  0  0  0
   13.3674  -17.4770   24.8950 C   0  0  0  0  0  0  0  0  0  0  0  0
   14.6154  -17.2723   24.7807 O   0  0  0  0  0  0  0  0  0  0  0  0
   12.3890  -16.6122   24.2326 C   0  0  0  0  0  0  0  0  0  0  0  0
   10.9747  -17.1083   24.4830 C   0  0  2  0  0  0  0  0  0  0  0  0
   10.0409  -16.1202   23.9109 N   0  0  0  0  0  0  0  0  0  0  0  0
   10.7276  -17.0736   25.9403 C   0  0  0  0  0  0  0  0  0  0  0  0
   10.8987  -18.2039   26.7062 O   0  0  0  0  0  0  0  0  0  0  0  0
   10.3616  -16.0114   26.4788 O   0  0  0  0  0  0  0  0  0  0  0  0
  2  1  1  0
  3  5  1  0
  3  2  1  0
  3  4  1  6
  5  6  2  0
  7  8  1  0
  7  5  1  0
  8  9  1  1
 10 18  1  0
 10  9  1  0
 11 10  2  0
 12 11  1  0
 12 13  1  0
 13 18  2  0
 14 13  1  0
 14 15  2  0
 15 16  1  0
 16 17  2  0
 18 17  1  0
 19 26  1  0
 19  8  1  0
 20 19  2  0
 22 21  1  0
 23 22  2  0
 24 22  1  0
 25 24  1  1
 25 26  1  0
 27 25  1  0
 27 28  1  0
 29 27  2  0
M  END
$$$$
