SWN.pdb
     RDKit          3D

 29 30  0  0  1  0  0  0  0  0999 V2000
    8.6257  -17.4096   19.4629 O   0  0  0  0  0  0  0  0  0  0  0  0
    7.4808  -17.5997   20.2401 C   0  0  0  0  0  0  0  0  0  0  0  0
    7.0977  -16.2562   20.8323 C   0  0  2  0  0  0  0  0  0  0  0  0
    6.9378  -15.2526   19.8014 N   0  0  0  0  0  0  0  0  0  0  0  0
    8.1579  -15.7989   21.7611 C   0  0  0  0  0  0  0  0  0  0  0  0
    9.0125  -14.9661   21.3298 O   0  0  0  0  0  0  0  0  0  0  0  0
    8.2189  -16.2717   23.0841 N   0  0  0  0  0  0  0  0  0  0  0  0
    9.2893  -15.7787   23.9637 C   0  0  1  0  0  0  0  0  0  0  0  0
    8.7662  -15.9467   25.3453 C   0  0  0  0  0  0  0  0  0  0  0  0
    7.6769  -15.0534   25.7504 C   0  0  0  0  0  0  0  0  0  0  0  0
    6.3272  -15.3956   25.8424 C   0  0  0  0  0  0  0  0  0  0  0  0
    5.6228  -14.3152   26.2159 N   0  0  0  0  0  0  0  0  0  0  0  0
    6.4595  -13.2776   26.3729 C   0  0  0  0  0  0  0  0  0  0  0  0
    6.2047  -11.9622   26.7603 C   0  0  0  0  0  0  0  0  0  0  0  0
    7.2298  -11.0499   26.8745 C   0  0  0  0  0  0  0  0  0  0  0  0
    8.4961  -11.4959   26.5916 C   0  0  0  0  0  0  0  0  0  0  0  0
    8.7422  -12.7967   26.2085 C   0  0  0  0  0  0  0  0  0  0  0  0
    7.7397  -13.7236   26.0867 C   0  0  0  0  0  0  0  0  0  0  0  0
   10.5171  -16.4841   23.6155 C   0  0  0  0  0  0  0  0  0  0  0  0
   10.5245  -17.6290   23.1038 O   0  0  0  0  0  0  0  0  0  0  0  0
   15.5467  -17.6075   22.8914 N   0  0  0  0  0  0  0  0  0  0  0  0
   15.3628  -16.2001   22.9056 C   0  0  0  0  0  0  0  0  0  0  0  0
   16.4028  -15.5196   22.6447 O   0  0  0  0  0  0  0  0  0  0  0  0
   14.0810  -15.5536   23.1932 C   0  0  0  0  0  0  0  0  0  0  0  0
   13.0005  -16.5905   23.4511 C   0  0  2  0  0  0  0  0  0  0  0  0
   11.7745  -15.8758   23.8534 N   0  0  0  0  0  0  0  0  0  0  0  0
   13.3947  -17.3782   24.6385 C   0  0  0  0  0  0  0  0  0  0  0  0
   13.9804  -18.6151   24.4950 O   0  0  0  0  0  0  0  0  0  0  0  0
   13.1949  -16.9174   25.7787 O   0  0  0  0  0  0  0  0  0  0  0  0
  2  1  1  0
  3  5  1  0
  3  2  1  0
  3  4  1  6
  5  6  2  0
  7  8  1  0
  7  5  1  0
  8  9  1  1
 10 18  1  0
 10  9  1  0
 11 10  2  0
 12 11  1  0
 12 13  1  0
 13 18  2  0
 14 13  1  0
 14 15  2  0
 15 16  1  0
 16 17  2  0
 18 17  1  0
 19 26  1  0
 19  8  1  0
 20 19  2  0
 22 21  1  0
 23 22  2  0
 24 22  1  0
 25 24  1  1
 25 26  1  0
 27 25  1  0
 27 28  1  0
 29 27  2  0
M  END
$$$$
