SWN.pdb
     RDKit          3D

 29 30  0  0  1  0  0  0  0  0999 V2000
    8.4698  -17.0149   19.6483 O   0  0  0  0  0  0  0  0  0  0  0  0
    7.2459  -16.7849   20.2808 C   0  0  0  0  0  0  0  0  0  0  0  0
    7.2923  -15.3923   20.8816 C   0  0  2  0  0  0  0  0  0  0  0  0
    7.5456  -14.3899   19.8684 N   0  0  0  0  0  0  0  0  0  0  0  0
    8.3787  -15.3175   21.8865 C   0  0  0  0  0  0  0  0  0  0  0  0
    9.4055  -14.6264   21.6070 O   0  0  0  0  0  0  0  0  0  0  0  0
    8.2788  -15.9916   23.1166 N   0  0  0  0  0  0  0  0  0  0  0  0
    9.3149  -15.7641   24.1350 C   0  0  1  0  0  0  0  0  0  0  0  0
    8.6217  -15.9318   25.4397 C   0  0  0  0  0  0  0  0  0  0  0  0
    7.5311  -14.9969   25.7313 C   0  0  0  0  0  0  0  0  0  0  0  0
    6.1743  -15.3156   25.7997 C   0  0  0  0  0  0  0  0  0  0  0  0
    5.4720  -14.2010   26.0593 N   0  0  0  0  0  0  0  0  0  0  0  0
    6.3169  -13.1636   26.1642 C   0  0  0  0  0  0  0  0  0  0  0  0
    6.0667  -11.8185   26.4356 C   0  0  0  0  0  0  0  0  0  0  0  0
    7.0996  -10.9114   26.5150 C   0  0  0  0  0  0  0  0  0  0  0  0
    8.3690  -11.3927   26.3162 C   0  0  0  0  0  0  0  0  0  0  0  0
    8.6106  -12.7227   26.0475 C   0  0  0  0  0  0  0  0  0  0  0  0
    7.6002  -13.6452   25.9626 C   0  0  0  0  0  0  0  0  0  0  0  0
   10.4331  -16.6537   23.8445 C   0  0  0  0  0  0  0  0  0  0  0  0
   10.2810  -17.8325   23.4448 O   0  0  0  0  0  0  0  0  0  0  0  0
   14.0127  -14.4250   21.7236 N   0  0  0  0  0  0  0  0  0  0  0  0
   13.8631  -15.8029   22.0300 C   0  0  0  0  0  0  0  0  0  0  0  0
   13.5150  -16.5358   21.0532 O   0  0  0  0  0  0  0  0  0  0  0  0
   14.0895  -16.3655   23.3627 C   0  0  0  0  0  0  0  0  0  0  0  0
   12.8744  -17.1492   23.8301 C   0  0  2  0  0  0  0  0  0  0  0  0
   11.7636  -16.1958   24.0113 N   0  0  0  0  0  0  0  0  0  0  0  0
   13.1585  -17.6718   25.1836 C   0  0  0  0  0  0  0  0  0  0  0  0
   12.3832  -17.2952   26.2562 O   0  0  0  0  0  0  0  0  0  0  0  0
   14.1081  -18.4603   25.3538 O   0  0  0  0  0  0  0  0  0  0  0  0
  2  1  1  0
  3  5  1  0
  3  2  1  0
  3  4  1  6
  5  6  2  0
  7  8  1  0
  7  5  1  0
  8  9  1  1
 10 18  1  0
 10  9  1  0
 11 10  2  0
 12 11  1  0
 12 13  1  0
 13 18  2  0
 14 13  1  0
 14 15  2  0
 15 16  1  0
 16 17  2  0
 18 17  1  0
 19 26  1  0
 19  8  1  0
 20 19  2  0
 22 21  1  0
 23 22  2  0
 24 22  1  0
 25 24  1  1
 25 26  1  0
 27 25  1  0
 27 28  1  0
 29 27  2  0
M  END
$$$$
