SWN.pdb
     RDKit          3D

 29 30  0  0  1  0  0  0  0  0999 V2000
    7.1183  -18.8344   21.0262 O   0  0  0  0  0  0  0  0  0  0  0  0
    6.0986  -17.8887   21.1557 C   0  0  0  0  0  0  0  0  0  0  0  0
    6.6035  -16.5835   20.5690 C   0  0  2  0  0  0  0  0  0  0  0  0
    6.7689  -16.6803   19.1341 N   0  0  0  0  0  0  0  0  0  0  0  0
    7.9178  -16.2438   21.1632 C   0  0  0  0  0  0  0  0  0  0  0  0
    8.9609  -16.4701   20.4771 O   0  0  0  0  0  0  0  0  0  0  0  0
    8.0111  -15.6861   22.4507 N   0  0  0  0  0  0  0  0  0  0  0  0
    9.3376  -15.3208   22.9697 C   0  0  1  0  0  0  0  0  0  0  0  0
    9.1131  -14.0985   23.7861 C   0  0  0  0  0  0  0  0  0  0  0  0
    7.9298  -14.0924   24.6512 C   0  0  0  0  0  0  0  0  0  0  0  0
    7.1245  -15.1929   24.9467 C   0  0  0  0  0  0  0  0  0  0  0  0
    6.1195  -14.8019   25.7468 N   0  0  0  0  0  0  0  0  0  0  0  0
    6.2356  -13.4867   25.9876 C   0  0  0  0  0  0  0  0  0  0  0  0
    5.4472  -12.6374   26.7637 C   0  0  0  0  0  0  0  0  0  0  0  0
    5.7612  -11.3025   26.8884 C   0  0  0  0  0  0  0  0  0  0  0  0
    6.8735  -10.8582   26.2193 C   0  0  0  0  0  0  0  0  0  0  0  0
    7.6488  -11.7017   25.4531 C   0  0  0  0  0  0  0  0  0  0  0  0
    7.3574  -13.0337   25.3124 C   0  0  0  0  0  0  0  0  0  0  0  0
    9.8944  -16.4892   23.6413 C   0  0  0  0  0  0  0  0  0  0  0  0
    9.2254  -17.5230   23.8787 O   0  0  0  0  0  0  0  0  0  0  0  0
   13.9355  -20.0714   22.9294 N   0  0  0  0  0  0  0  0  0  0  0  0
   14.0831  -18.8757   23.6799 C   0  0  0  0  0  0  0  0  0  0  0  0
   14.9857  -18.9096   24.5726 O   0  0  0  0  0  0  0  0  0  0  0  0
   13.2718  -17.6767   23.4611 C   0  0  0  0  0  0  0  0  0  0  0  0
   11.9509  -17.7768   24.2057 C   0  0  2  0  0  0  0  0  0  0  0  0
   11.2490  -16.4880   24.0568 N   0  0  0  0  0  0  0  0  0  0  0  0
   12.2459  -17.8905   25.6500 C   0  0  0  0  0  0  0  0  0  0  0  0
   12.5678  -19.1079   26.2048 O   0  0  0  0  0  0  0  0  0  0  0  0
   12.2028  -16.8749   26.3703 O   0  0  0  0  0  0  0  0  0  0  0  0
  2  1  1  0
  3  5  1  0
  3  2  1  0
  3  4  1  6
  5  6  2  0
  7  8  1  0
  7  5  1  0
  8  9  1  1
 10 18  1  0
 10  9  1  0
 11 10  2  0
 12 11  1  0
 12 13  1  0
 13 18  2  0
 14 13  1  0
 14 15  2  0
 15 16  1  0
 16 17  2  0
 18 17  1  0
 19 26  1  0
 19  8  1  0
 20 19  2  0
 22 21  1  0
 23 22  2  0
 24 22  1  0
 25 24  1  6
 25 26  1  0
 27 25  1  0
 27 28  1  0
 29 27  2  0
M  END
$$$$
