SWN.pdb
     RDKit          3D

 29 30  0  0  1  0  0  0  0  0999 V2000
    8.8451  -15.8678   19.2447 O   0  0  0  0  0  0  0  0  0  0  0  0
    7.6174  -16.1395   19.8528 C   0  0  0  0  0  0  0  0  0  0  0  0
    7.2881  -14.9741   20.7671 C   0  0  2  0  0  0  0  0  0  0  0  0
    7.3419  -13.7148   20.0552 N   0  0  0  0  0  0  0  0  0  0  0  0
    8.2672  -14.9184   21.8780 C   0  0  0  0  0  0  0  0  0  0  0  0
    9.1219  -13.9806   21.8756 O   0  0  0  0  0  0  0  0  0  0  0  0
    8.2531  -15.8756   22.9081 N   0  0  0  0  0  0  0  0  0  0  0  0
    9.2332  -15.7576   23.9980 C   0  0  1  0  0  0  0  0  0  0  0  0
    8.4680  -16.0376   25.2417 C   0  0  0  0  0  0  0  0  0  0  0  0
    7.4150  -15.0817   25.5965 C   0  0  0  0  0  0  0  0  0  0  0  0
    6.0438  -15.3405   25.6112 C   0  0  0  0  0  0  0  0  0  0  0  0
    5.3875  -14.2214   25.9574 N   0  0  0  0  0  0  0  0  0  0  0  0
    6.2763  -13.2388   26.1709 C   0  0  0  0  0  0  0  0  0  0  0  0
    6.0817  -11.9130   26.5580 C   0  0  0  0  0  0  0  0  0  0  0  0
    7.1529  -11.0667   26.7377 C   0  0  0  0  0  0  0  0  0  0  0  0
    8.4032  -11.5879   26.5194 C   0  0  0  0  0  0  0  0  0  0  0  0
    8.5898  -12.8987   26.1363 C   0  0  0  0  0  0  0  0  0  0  0  0
    7.5405  -13.7608   25.9501 C   0  0  0  0  0  0  0  0  0  0  0  0
   10.3589  -16.6306   23.6860 C   0  0  0  0  0  0  0  0  0  0  0  0
   10.2357  -17.6976   23.0388 O   0  0  0  0  0  0  0  0  0  0  0  0
   14.0681  -16.4359   21.5944 N   0  0  0  0  0  0  0  0  0  0  0  0
   14.2931  -15.8803   22.8811 C   0  0  0  0  0  0  0  0  0  0  0  0
   14.7149  -14.6825   22.8829 O   0  0  0  0  0  0  0  0  0  0  0  0
   14.0620  -16.6092   24.1297 C   0  0  0  0  0  0  0  0  0  0  0  0
   12.7176  -17.3170   24.0994 C   0  0  2  0  0  0  0  0  0  0  0  0
   11.6631  -16.2858   24.1194 N   0  0  0  0  0  0  0  0  0  0  0  0
   12.5590  -18.0552   25.3704 C   0  0  0  0  0  0  0  0  0  0  0  0
   13.3583  -19.1387   25.6548 O   0  0  0  0  0  0  0  0  0  0  0  0
   11.6943  -17.6926   26.1908 O   0  0  0  0  0  0  0  0  0  0  0  0
  2  1  1  0
  3  5  1  0
  3  2  1  0
  3  4  1  6
  5  6  2  0
  7  8  1  0
  7  5  1  0
  8  9  1  1
 10 18  1  0
 10  9  1  0
 11 10  2  0
 12 11  1  0
 12 13  1  0
 13 18  2  0
 14 13  1  0
 14 15  2  0
 15 16  1  0
 16 17  2  0
 18 17  1  0
 19 26  1  0
 19  8  1  0
 20 19  2  0
 22 21  1  0
 23 22  2  0
 24 22  1  0
 25 24  1  1
 25 26  1  0
 27 25  1  0
 27 28  1  0
 29 27  2  0
M  END
$$$$
