SWN.pdb
     RDKit          3D

 29 30  0  0  1  0  0  0  0  0999 V2000
    8.2268  -16.7032   19.2601 O   0  0  0  0  0  0  0  0  0  0  0  0
    6.9603  -16.5482   19.8282 C   0  0  0  0  0  0  0  0  0  0  0  0
    6.9442  -15.2203   20.5624 C   0  0  2  0  0  0  0  0  0  0  0  0
    7.1831  -14.1156   19.6580 N   0  0  0  0  0  0  0  0  0  0  0  0
    8.0056  -15.2080   21.5964 C   0  0  0  0  0  0  0  0  0  0  0  0
    9.0758  -14.5735   21.3475 O   0  0  0  0  0  0  0  0  0  0  0  0
    7.8358  -15.8793   22.8204 N   0  0  0  0  0  0  0  0  0  0  0  0
    8.9257  -15.8400   23.8067 C   0  0  1  0  0  0  0  0  0  0  0  0
    8.2612  -15.9951   25.1277 C   0  0  0  0  0  0  0  0  0  0  0  0
    7.2975  -14.9576   25.5061 C   0  0  0  0  0  0  0  0  0  0  0  0
    5.9094  -15.0982   25.5324 C   0  0  0  0  0  0  0  0  0  0  0  0
    5.3548  -13.9319   25.9000 N   0  0  0  0  0  0  0  0  0  0  0  0
    6.3267  -13.0320   26.1165 C   0  0  0  0  0  0  0  0  0  0  0  0
    6.2503  -11.6998   26.5227 C   0  0  0  0  0  0  0  0  0  0  0  0
    7.3918  -10.9509   26.7017 C   0  0  0  0  0  0  0  0  0  0  0  0
    8.5906  -11.5743   26.4632 C   0  0  0  0  0  0  0  0  0  0  0  0
    8.6604  -12.8908   26.0612 C   0  0  0  0  0  0  0  0  0  0  0  0
    7.5393  -13.6573   25.8753 C   0  0  0  0  0  0  0  0  0  0  0  0
    9.9131  -16.8430   23.4249 C   0  0  0  0  0  0  0  0  0  0  0  0
    9.7880  -17.5726   22.4127 O   0  0  0  0  0  0  0  0  0  0  0  0
   15.0743  -16.6633   21.5415 N   0  0  0  0  0  0  0  0  0  0  0  0
   13.9051  -17.4194   21.8170 C   0  0  0  0  0  0  0  0  0  0  0  0
   13.9720  -18.6473   21.5000 O   0  0  0  0  0  0  0  0  0  0  0  0
   12.6986  -16.8531   22.4233 C   0  0  0  0  0  0  0  0  0  0  0  0
   12.2488  -17.6890   23.6099 C   0  0  2  0  0  0  0  0  0  0  0  0
   11.0769  -17.0258   24.2121 N   0  0  0  0  0  0  0  0  0  0  0  0
   13.3032  -17.6224   24.6441 C   0  0  0  0  0  0  0  0  0  0  0  0
   13.0432  -17.0619   25.8736 O   0  0  0  0  0  0  0  0  0  0  0  0
   14.4367  -18.0782   24.3997 O   0  0  0  0  0  0  0  0  0  0  0  0
  2  1  1  0
  3  5  1  0
  3  2  1  0
  3  4  1  6
  5  6  2  0
  7  8  1  0
  7  5  1  0
  8  9  1  1
 10 18  1  0
 10  9  1  0
 11 10  2  0
 12 11  1  0
 12 13  1  0
 13 18  2  0
 14 13  1  0
 14 15  2  0
 15 16  1  0
 16 17  2  0
 18 17  1  0
 19 26  1  0
 19  8  1  0
 20 19  2  0
 22 21  1  0
 23 22  2  0
 24 22  1  0
 25 24  1  6
 25 26  1  0
 27 25  1  0
 27 28  1  0
 29 27  2  0
M  END
$$$$
