SWN.pdb
     RDKit          3D

 29 30  0  0  1  0  0  0  0  0999 V2000
    8.4450  -15.6596   18.9353 O   0  0  0  0  0  0  0  0  0  0  0  0
    7.1899  -15.6456   19.5480 C   0  0  0  0  0  0  0  0  0  0  0  0
    7.1346  -14.4318   20.4570 C   0  0  2  0  0  0  0  0  0  0  0  0
    7.3967  -13.2119   19.7230 N   0  0  0  0  0  0  0  0  0  0  0  0
    8.1570  -14.5581   21.5222 C   0  0  0  0  0  0  0  0  0  0  0  0
    9.2743  -13.9818   21.3502 O   0  0  0  0  0  0  0  0  0  0  0  0
    7.9005  -15.2947   22.6923 N   0  0  0  0  0  0  0  0  0  0  0  0
    8.9736  -15.4400   23.6871 C   0  0  1  0  0  0  0  0  0  0  0  0
    8.2790  -15.7286   24.9696 C   0  0  0  0  0  0  0  0  0  0  0  0
    7.2703  -14.7585   25.4054 C   0  0  0  0  0  0  0  0  0  0  0  0
    5.8907  -14.9661   25.4319 C   0  0  0  0  0  0  0  0  0  0  0  0
    5.2845  -13.8475   25.8612 N   0  0  0  0  0  0  0  0  0  0  0  0
    6.2145  -12.9144   26.1177 C   0  0  0  0  0  0  0  0  0  0  0  0
    6.0784  -11.6096   26.5914 C   0  0  0  0  0  0  0  0  0  0  0  0
    7.1846  -10.8172   26.8019 C   0  0  0  0  0  0  0  0  0  0  0  0
    8.4096  -11.3700   26.5257 C   0  0  0  0  0  0  0  0  0  0  0  0
    8.5384  -12.6598   26.0571 C   0  0  0  0  0  0  0  0  0  0  0  0
    7.4533  -13.4684   25.8387 C   0  0  0  0  0  0  0  0  0  0  0  0
    9.9153  -16.4360   23.1895 C   0  0  0  0  0  0  0  0  0  0  0  0
    9.8549  -16.9133   22.0314 O   0  0  0  0  0  0  0  0  0  0  0  0
   14.4446  -17.8604   21.6206 N   0  0  0  0  0  0  0  0  0  0  0  0
   14.1081  -16.5568   22.0703 C   0  0  0  0  0  0  0  0  0  0  0  0
   15.0333  -15.6943   21.9585 O   0  0  0  0  0  0  0  0  0  0  0  0
   12.7991  -16.2036   22.6232 C   0  0  0  0  0  0  0  0  0  0  0  0
   12.2162  -17.3646   23.4115 C   0  0  2  0  0  0  0  0  0  0  0  0
   10.9568  -16.9060   24.0274 N   0  0  0  0  0  0  0  0  0  0  0  0
   13.1198  -17.6479   24.5469 C   0  0  0  0  0  0  0  0  0  0  0  0
   12.7013  -17.4448   25.8419 O   0  0  0  0  0  0  0  0  0  0  0  0
   14.2699  -18.0744   24.3285 O   0  0  0  0  0  0  0  0  0  0  0  0
  2  1  1  0
  3  5  1  0
  3  2  1  0
  3  4  1  6
  5  6  2  0
  7  8  1  0
  7  5  1  0
  8  9  1  1
 10 18  1  0
 10  9  1  0
 11 10  2  0
 12 11  1  0
 12 13  1  0
 13 18  2  0
 14 13  1  0
 14 15  2  0
 15 16  1  0
 16 17  2  0
 18 17  1  0
 19 26  1  0
 19  8  1  0
 20 19  2  0
 22 21  1  0
 23 22  2  0
 24 22  1  0
 25 24  1  6
 25 26  1  0
 27 25  1  0
 27 28  1  0
 29 27  2  0
M  END
$$$$
