SWN.pdb
     RDKit          3D

 29 30  0  0  1  0  0  0  0  0999 V2000
    8.9436  -16.7671   19.7247 O   0  0  0  0  0  0  0  0  0  0  0  0
    7.6345  -16.9621   20.1710 C   0  0  0  0  0  0  0  0  0  0  0  0
    7.2023  -15.7011   20.8960 C   0  0  2  0  0  0  0  0  0  0  0  0
    7.1851  -14.5607   20.0044 N   0  0  0  0  0  0  0  0  0  0  0  0
    8.1477  -15.4100   21.9992 C   0  0  0  0  0  0  0  0  0  0  0  0
    8.9806  -14.4661   21.8399 O   0  0  0  0  0  0  0  0  0  0  0  0
    8.1260  -16.1561   23.1910 N   0  0  0  0  0  0  0  0  0  0  0  0
    9.1187  -15.8549   24.2333 C   0  0  1  0  0  0  0  0  0  0  0  0
    8.3685  -15.9187   25.5154 C   0  0  0  0  0  0  0  0  0  0  0  0
    7.3608  -14.8785   25.7416 C   0  0  0  0  0  0  0  0  0  0  0  0
    5.9772  -15.0575   25.7140 C   0  0  0  0  0  0  0  0  0  0  0  0
    5.3754  -13.8780   25.9366 N   0  0  0  0  0  0  0  0  0  0  0  0
    6.3119  -12.9324   26.1095 C   0  0  0  0  0  0  0  0  0  0  0  0
    6.1813  -11.5698   26.3772 C   0  0  0  0  0  0  0  0  0  0  0  0
    7.2929  -10.7730   26.5362 C   0  0  0  0  0  0  0  0  0  0  0  0
    8.5177  -11.3804   26.4194 C   0  0  0  0  0  0  0  0  0  0  0  0
    8.6411  -12.7272   26.1541 C   0  0  0  0  0  0  0  0  0  0  0  0
    7.5506  -13.5416   25.9910 C   0  0  0  0  0  0  0  0  0  0  0  0
   10.2419  -16.7688   24.0612 C   0  0  0  0  0  0  0  0  0  0  0  0
   10.1087  -17.9405   23.6347 O   0  0  0  0  0  0  0  0  0  0  0  0
   13.1187  -16.4815   21.6462 N   0  0  0  0  0  0  0  0  0  0  0  0
   14.0105  -16.0592   22.6666 C   0  0  0  0  0  0  0  0  0  0  0  0
   14.8881  -15.2183   22.2990 O   0  0  0  0  0  0  0  0  0  0  0  0
   13.9450  -16.5382   24.0487 C   0  0  0  0  0  0  0  0  0  0  0  0
   12.6615  -17.3154   24.2892 C   0  0  2  0  0  0  0  0  0  0  0  0
   11.5552  -16.3442   24.3813 N   0  0  0  0  0  0  0  0  0  0  0  0
   12.7442  -17.9339   25.6295 C   0  0  0  0  0  0  0  0  0  0  0  0
   13.5857  -18.9983   25.8584 O   0  0  0  0  0  0  0  0  0  0  0  0
   12.0457  -17.4870   26.5594 O   0  0  0  0  0  0  0  0  0  0  0  0
  2  1  1  0
  3  5  1  0
  3  2  1  0
  3  4  1  6
  5  6  2  0
  7  8  1  0
  7  5  1  0
  8  9  1  1
 10 18  1  0
 10  9  1  0
 11 10  2  0
 12 11  1  0
 12 13  1  0
 13 18  2  0
 14 13  1  0
 14 15  2  0
 15 16  1  0
 16 17  2  0
 18 17  1  0
 19 26  1  0
 19  8  1  0
 20 19  2  0
 22 21  1  0
 23 22  2  0
 24 22  1  0
 25 24  1  1
 25 26  1  0
 27 25  1  0
 27 28  1  0
 29 27  2  0
M  END
$$$$
