SWN.pdb
     RDKit          3D

 29 30  0  0  1  0  0  0  0  0999 V2000
   10.5975  -17.4097   16.1971 O   0  0  0  0  0  0  0  0  0  0  0  0
   10.4294  -16.8132   17.4488 C   0  0  0  0  0  0  0  0  0  0  0  0
   10.6805  -17.8755   18.5028 C   0  0  2  0  0  0  0  0  0  0  0  0
    9.5567  -18.7808   18.6162 N   0  0  0  0  0  0  0  0  0  0  0  0
   10.8895  -17.2319   19.8211 C   0  0  0  0  0  0  0  0  0  0  0  0
   11.8647  -16.4301   19.9475 O   0  0  0  0  0  0  0  0  0  0  0  0
   10.0335  -17.4992   20.9044 N   0  0  0  0  0  0  0  0  0  0  0  0
   10.2822  -16.8239   22.1868 C   0  0  1  0  0  0  0  0  0  0  0  0
    8.9383  -16.6352   22.7944 C   0  0  0  0  0  0  0  0  0  0  0  0
    7.9395  -15.9365   21.9803 C   0  0  0  0  0  0  0  0  0  0  0  0
    6.7458  -16.4791   21.5030 C   0  0  0  0  0  0  0  0  0  0  0  0
    6.1020  -15.5545   20.7724 N   0  0  0  0  0  0  0  0  0  0  0  0
    6.8282  -14.4260   20.7530 C   0  0  0  0  0  0  0  0  0  0  0  0
    6.5726  -13.1977   20.1437 C   0  0  0  0  0  0  0  0  0  0  0  0
    7.4597  -12.1517   20.2666 C   0  0  0  0  0  0  0  0  0  0  0  0
    8.5913  -12.3776   21.0088 C   0  0  0  0  0  0  0  0  0  0  0  0
    8.8393  -13.5936   21.6083 C   0  0  0  0  0  0  0  0  0  0  0  0
    7.9728  -14.6503   21.5006 C   0  0  0  0  0  0  0  0  0  0  0  0
   11.2548  -17.6162   22.9303 C   0  0  0  0  0  0  0  0  0  0  0  0
   12.2180  -18.2033   22.3825 O   0  0  0  0  0  0  0  0  0  0  0  0
   15.2990  -17.4111   23.3754 N   0  0  0  0  0  0  0  0  0  0  0  0
   14.6704  -17.2973   24.6429 C   0  0  0  0  0  0  0  0  0  0  0  0
   15.3821  -17.6597   25.6302 O   0  0  0  0  0  0  0  0  0  0  0  0
   13.3058  -16.7998   24.8284 C   0  0  0  0  0  0  0  0  0  0  0  0
   12.3539  -17.9420   25.1419 C   0  0  2  0  0  0  0  0  0  0  0  0
   11.1339  -17.7481   24.3358 N   0  0  0  0  0  0  0  0  0  0  0  0
   11.9145  -17.8007   26.5464 C   0  0  0  0  0  0  0  0  0  0  0  0
   12.4147  -18.6310   27.5231 O   0  0  0  0  0  0  0  0  0  0  0  0
   11.0843  -16.9219   26.8477 O   0  0  0  0  0  0  0  0  0  0  0  0
  2  1  1  0
  3  5  1  0
  3  2  1  0
  3  4  1  1
  5  6  2  0
  7  8  1  0
  7  5  1  0
  8  9  1  1
 10 18  1  0
 10  9  1  0
 11 10  2  0
 12 11  1  0
 12 13  1  0
 13 18  2  0
 14 13  1  0
 14 15  2  0
 15 16  1  0
 16 17  2  0
 18 17  1  0
 19 26  1  0
 19  8  1  0
 20 19  2  0
 22 21  1  0
 23 22  2  0
 24 22  1  0
 25 24  1  6
 25 26  1  0
 27 25  1  0
 27 28  1  0
 29 27  2  0
M  END
$$$$
