SWN.pdb
     RDKit          3D

 29 30  0  0  1  0  0  0  0  0999 V2000
    8.4417  -15.1719   18.5762 O   0  0  0  0  0  0  0  0  0  0  0  0
    7.2132  -15.2435   19.2369 C   0  0  0  0  0  0  0  0  0  0  0  0
    7.1474  -14.0844   20.2139 C   0  0  2  0  0  0  0  0  0  0  0  0
    7.5105  -12.8367   19.5760 N   0  0  0  0  0  0  0  0  0  0  0  0
    8.0882  -14.3209   21.3341 C   0  0  0  0  0  0  0  0  0  0  0  0
    9.1803  -13.6751   21.3444 O   0  0  0  0  0  0  0  0  0  0  0  0
    7.7833  -15.2343   22.3590 N   0  0  0  0  0  0  0  0  0  0  0  0
    8.7061  -15.3551   23.4974 C   0  0  1  0  0  0  0  0  0  0  0  0
    7.8687  -15.8361   24.6280 C   0  0  0  0  0  0  0  0  0  0  0  0
    6.9955  -14.8479   25.2680 C   0  0  0  0  0  0  0  0  0  0  0  0
    5.6303  -14.9978   25.5146 C   0  0  0  0  0  0  0  0  0  0  0  0
    5.1601  -13.8782   26.0878 N   0  0  0  0  0  0  0  0  0  0  0  0
    6.1655  -13.0001   26.2269 C   0  0  0  0  0  0  0  0  0  0  0  0
    6.1751  -11.7170   26.7738 C   0  0  0  0  0  0  0  0  0  0  0  0
    7.3395  -10.9843   26.8320 C   0  0  0  0  0  0  0  0  0  0  0  0
    8.4730  -11.5736   26.3316 C   0  0  0  0  0  0  0  0  0  0  0  0
    8.4578  -12.8416   25.7916 C   0  0  0  0  0  0  0  0  0  0  0  0
    7.3121  -13.5910   25.7213 C   0  0  0  0  0  0  0  0  0  0  0  0
    9.8252  -16.1924   23.0814 C   0  0  0  0  0  0  0  0  0  0  0  0
    9.8712  -16.7652   21.9668 O   0  0  0  0  0  0  0  0  0  0  0  0
   14.5392  -17.2484   21.2413 N   0  0  0  0  0  0  0  0  0  0  0  0
   14.3576  -16.6855   22.5317 C   0  0  0  0  0  0  0  0  0  0  0  0
   15.3663  -16.7643   23.2991 O   0  0  0  0  0  0  0  0  0  0  0  0
   13.1127  -16.0524   22.9712 C   0  0  0  0  0  0  0  0  0  0  0  0
   12.1172  -17.0961   23.4496 C   0  0  2  0  0  0  0  0  0  0  0  0
   10.9255  -16.3873   23.9527 N   0  0  0  0  0  0  0  0  0  0  0  0
   12.6926  -17.7705   24.6328 C   0  0  0  0  0  0  0  0  0  0  0  0
   12.7205  -17.1378   25.8544 O   0  0  0  0  0  0  0  0  0  0  0  0
   13.1559  -18.9218   24.5221 O   0  0  0  0  0  0  0  0  0  0  0  0
  2  1  1  0
  3  5  1  0
  3  2  1  0
  3  4  1  6
  5  6  2  0
  7  8  1  0
  7  5  1  0
  8  9  1  1
 10 18  1  0
 10  9  1  0
 11 10  2  0
 12 11  1  0
 12 13  1  0
 13 18  2  0
 14 13  1  0
 14 15  2  0
 15 16  1  0
 16 17  2  0
 18 17  1  0
 19 26  1  0
 19  8  1  0
 20 19  2  0
 22 21  1  0
 23 22  2  0
 24 22  1  0
 25 24  1  1
 25 26  1  0
 27 25  1  0
 27 28  1  0
 29 27  2  0
M  END
$$$$
