SWN.pdb
     RDKit          3D

 29 30  0  0  1  0  0  0  0  0999 V2000
   11.2772  -19.8840   23.1185 O   0  0  0  0  0  0  0  0  0  0  0  0
   11.7836  -19.5098   21.8717 C   0  0  0  0  0  0  0  0  0  0  0  0
   10.7998  -18.5374   21.2479 C   0  0  2  0  0  0  0  0  0  0  0  0
   11.2640  -18.0740   19.9575 N   0  0  0  0  0  0  0  0  0  0  0  0
   10.6353  -17.3581   22.1299 C   0  0  0  0  0  0  0  0  0  0  0  0
   11.4560  -16.3986   22.0049 O   0  0  0  0  0  0  0  0  0  0  0  0
    9.6003  -17.2997   23.0801 N   0  0  0  0  0  0  0  0  0  0  0  0
    9.4759  -16.0983   23.9188 C   0  0  1  0  0  0  0  0  0  0  0  0
    8.0485  -16.0589   24.3332 C   0  0  0  0  0  0  0  0  0  0  0  0
    7.4255  -14.7353   24.4249 C   0  0  0  0  0  0  0  0  0  0  0  0
    6.6582  -14.1199   23.4350 C   0  0  0  0  0  0  0  0  0  0  0  0
    6.2801  -12.9043   23.8621 N   0  0  0  0  0  0  0  0  0  0  0  0
    6.7698  -12.6995   25.0947 C   0  0  0  0  0  0  0  0  0  0  0  0
    6.6380  -11.6047   25.9488 C   0  0  0  0  0  0  0  0  0  0  0  0
    7.2190  -11.6106   27.1972 C   0  0  0  0  0  0  0  0  0  0  0  0
    7.9237  -12.7331   27.5519 C   0  0  0  0  0  0  0  0  0  0  0  0
    8.0514  -13.8120   26.7037 C   0  0  0  0  0  0  0  0  0  0  0  0
    7.4836  -13.8306   25.4562 C   0  0  0  0  0  0  0  0  0  0  0  0
   10.4829  -16.1786   24.9704 C   0  0  0  0  0  0  0  0  0  0  0  0
   10.8977  -15.1738   25.5958 O   0  0  0  0  0  0  0  0  0  0  0  0
   11.8666  -15.8060   28.7869 N   0  0  0  0  0  0  0  0  0  0  0  0
   10.8745  -16.8210   28.7829 C   0  0  0  0  0  0  0  0  0  0  0  0
   10.1172  -16.8363   29.8022 O   0  0  0  0  0  0  0  0  0  0  0  0
   10.7111  -17.7896   27.6971 C   0  0  0  0  0  0  0  0  0  0  0  0
   11.7489  -17.5613   26.6108 C   0  0  2  0  0  0  0  0  0  0  0  0
   11.0373  -17.4333   25.3252 N   0  0  0  0  0  0  0  0  0  0  0  0
   12.5577  -18.7922   26.4830 C   0  0  0  0  0  0  0  0  0  0  0  0
   12.1835  -19.7879   25.6100 O   0  0  0  0  0  0  0  0  0  0  0  0
   13.5869  -18.9285   27.1717 O   0  0  0  0  0  0  0  0  0  0  0  0
  2  1  1  0
  3  5  1  0
  3  2  1  0
  3  4  1  6
  5  6  2  0
  7  8  1  0
  7  5  1  0
  8  9  1  1
 10 18  1  0
 10  9  1  0
 11 10  2  0
 12 11  1  0
 12 13  1  0
 13 18  2  0
 14 13  1  0
 14 15  2  0
 15 16  1  0
 16 17  2  0
 18 17  1  0
 19 26  1  0
 19  8  1  0
 20 19  2  0
 22 21  1  0
 23 22  2  0
 24 22  1  0
 25 24  1  1
 25 26  1  0
 27 25  1  0
 27 28  1  0
 29 27  2  0
M  END
$$$$
