RYL.pdb
     RDKit          3D

 32 32  0  0  1  0  0  0  0  0999 V2000
    7.9115  -12.3931   18.6230 N   0  0  0  0  0  0  0  0  0  0  0  0
    8.2925  -13.4115   17.6942 C   0  0  0  0  0  0  0  0  0  0  0  0
    9.3267  -13.2273   16.9725 N   0  0  0  0  0  0  0  0  0  0  0  0
    7.5385  -14.6172   17.5674 N   0  0  0  0  0  0  0  0  0  0  0  0
    6.4300  -14.9080   18.4997 C   0  0  0  0  0  0  0  0  0  0  0  0
    7.0571  -15.1912   19.8197 C   0  0  0  0  0  0  0  0  0  0  0  0
    6.1473  -15.6377   20.9050 C   0  0  0  0  0  0  0  0  0  0  0  0
    6.2621  -17.0840   21.2340 C   0  0  2  0  0  0  0  0  0  0  0  0
    5.0816  -17.8576   20.8825 N   0  0  0  0  0  0  0  0  0  0  0  0
    6.4554  -17.3112   22.6981 C   0  0  0  0  0  0  0  0  0  0  0  0
    5.4827  -17.0603   23.4472 O   0  0  0  0  0  0  0  0  0  0  0  0
    9.7237  -13.8732   16.2714 O   0  0  0  0  0  0  0  0  0  0  0  0
    8.7385  -19.3167   30.8585 C   0  0  0  0  0  0  0  0  0  0  0  0
    8.6463  -19.2488   29.4770 C   0  0  0  0  0  0  0  0  0  0  0  0
    7.4202  -19.3264   28.8519 C   0  0  0  0  0  0  0  0  0  0  0  0
    7.3629  -19.2543   27.4538 C   0  0  0  0  0  0  0  0  0  0  0  0
    8.5060  -19.1084   26.7051 C   0  0  0  0  0  0  0  0  0  0  0  0
    8.4560  -19.0323   25.2525 C   0  0  2  0  0  0  0  0  0  0  0  0
    7.7950  -17.8182   24.6944 N   0  0  0  0  0  0  0  0  0  0  0  0
    7.6492  -17.7844   23.2840 C   0  0  0  0  0  0  0  0  0  0  0  0
    8.5451  -16.6205   25.2005 O   0  0  0  0  0  0  0  0  0  0  0  0
    9.6925  -16.4179   24.7555 C   0  0  0  0  0  0  0  0  0  0  0  0
    9.7094  -19.0346   27.3619 C   0  0  0  0  0  0  0  0  0  0  0  0
    9.7974  -19.1032   28.7489 C   0  0  0  0  0  0  0  0  0  0  0  0
    6.9745  -12.5453   24.7293 C   0  0  1  0  0  0  0  0  0  0  0  0
    6.6148  -13.1350   26.0386 C   0  0  0  0  0  0  0  0  0  0  0  0
    5.6459  -12.2367   26.8174 C   0  0  0  0  0  0  0  0  0  0  0  0
    7.7108  -13.4989   26.9414 C   0  0  2  0  0  0  0  0  0  0  0  0
    8.7322  -14.4729   26.5197 N   0  0  0  0  0  0  0  0  0  0  0  0
    7.9991  -15.7349   26.1474 C   0  0  0  0  0  0  0  0  0  0  0  0
    9.7574  -14.9251   27.4463 O   0  0  0  0  0  0  0  0  0  0  0  0
   10.9113  -14.1717   27.7486 O   0  0  0  0  0  0  0  0  0  0  0  0
  2  3  2  0
  2  1  1  0
  4  2  1  0
  5  4  1  0
  6  5  1  0
  7  6  1  0
  8 10  1  0
  8  7  1  0
  8  9  1  1
 10 11  2  0
 13 14  2  0
 13 12  1  0
 15 14  1  0
 16 15  2  0
 17 16  1  0
 18 17  1  1
 18 20  1  0
 19 10  1  0
 19 18  1  0
 20 29  1  0
 20 21  2  0
 22 16  1  0
 22 23  2  0
 23 13  1  0
 25 24  1  6
 25 27  1  0
 26 25  1  0
 28 27  1  6
 28 30  1  0
 29 28  1  0
 30 32  2  0
 30 31  1  0
M  END
$$$$
