RYL.pdb
     RDKit          3D

 32 32  0  0  1  0  0  0  0  0999 V2000
    6.8695  -13.9059   18.1323 N   0  0  0  0  0  0  0  0  0  0  0  0
    8.1741  -13.7180   17.5775 C   0  0  0  0  0  0  0  0  0  0  0  0
    8.4971  -12.5621   17.1485 N   0  0  0  0  0  0  0  0  0  0  0  0
    9.1075  -14.7953   17.4998 N   0  0  0  0  0  0  0  0  0  0  0  0
    9.0555  -15.9024   18.4767 C   0  0  0  0  0  0  0  0  0  0  0  0
   10.2530  -15.7484   19.3474 C   0  0  0  0  0  0  0  0  0  0  0  0
   10.3876  -16.7131   20.4682 C   0  0  0  0  0  0  0  0  0  0  0  0
   10.3788  -16.0809   21.8149 C   0  0  2  0  0  0  0  0  0  0  0  0
   11.5478  -15.2571   22.0802 N   0  0  0  0  0  0  0  0  0  0  0  0
   10.3613  -17.0973   22.9100 C   0  0  0  0  0  0  0  0  0  0  0  0
    9.4242  -17.9290   22.9009 O   0  0  0  0  0  0  0  0  0  0  0  0
    9.3959  -12.2804   16.7253 O   0  0  0  0  0  0  0  0  0  0  0  0
   10.8141  -14.6186   31.2604 C   0  0  0  0  0  0  0  0  0  0  0  0
   10.9573  -14.8156   29.8957 C   0  0  0  0  0  0  0  0  0  0  0  0
   11.8755  -14.0827   29.1746 C   0  0  0  0  0  0  0  0  0  0  0  0
   11.9945  -14.3070   27.7966 C   0  0  0  0  0  0  0  0  0  0  0  0
   11.2125  -15.2417   27.1615 C   0  0  0  0  0  0  0  0  0  0  0  0
   11.3295  -15.4816   25.7307 C   0  0  2  0  0  0  0  0  0  0  0  0
   10.9720  -16.8562   25.2776 N   0  0  0  0  0  0  0  0  0  0  0  0
   11.3214  -17.1792   23.9416 C   0  0  0  0  0  0  0  0  0  0  0  0
    9.5041  -17.0479   25.5259 O   0  0  0  0  0  0  0  0  0  0  0  0
    9.1557  -17.9685   26.2919 C   0  0  0  0  0  0  0  0  0  0  0  0
   10.3090  -15.9528   27.9118 C   0  0  0  0  0  0  0  0  0  0  0  0
   10.1685  -15.7520   29.2815 C   0  0  0  0  0  0  0  0  0  0  0  0
    7.2196  -13.4337   26.9597 C   0  0  2  0  0  0  0  0  0  0  0  0
    7.1438  -13.6940   25.5044 C   0  0  0  0  0  0  0  0  0  0  0  0
    6.4556  -12.5441   24.7584 C   0  0  0  0  0  0  0  0  0  0  0  0
    6.5164  -14.9463   25.0723 C   0  0  2  0  0  0  0  0  0  0  0  0
    7.1098  -16.2434   25.4399 N   0  0  0  0  0  0  0  0  0  0  0  0
    8.5264  -16.2317   24.9284 C   0  0  0  0  0  0  0  0  0  0  0  0
    6.5617  -17.4865   24.9218 O   0  0  0  0  0  0  0  0  0  0  0  0
    7.2235  -18.2810   23.9619 O   0  0  0  0  0  0  0  0  0  0  0  0
  2  3  2  0
  2  1  1  0
  4  2  1  0
  5  4  1  0
  6  5  1  0
  7  6  1  0
  8 10  1  0
  8  7  1  0
  8  9  1  1
 10 11  2  0
 13 14  2  0
 13 12  1  0
 15 14  1  0
 16 15  2  0
 17 16  1  0
 18 17  1  1
 18 20  1  0
 19 10  1  0
 19 18  1  0
 20 29  1  0
 20 21  2  0
 22 16  1  0
 22 23  2  0
 23 13  1  0
 25 24  1  6
 25 27  1  0
 26 25  1  0
 28 27  1  1
 28 30  1  0
 29 28  1  0
 30 32  2  0
 30 31  1  0
M  END
$$$$
