RYL.pdb
     RDKit          3D

 32 32  0  0  1  0  0  0  0  0999 V2000
   14.4331  -19.0217   21.0402 N   0  0  0  0  0  0  0  0  0  0  0  0
   14.9270  -19.2149   19.7121 C   0  0  0  0  0  0  0  0  0  0  0  0
   15.8964  -20.0221   19.5299 N   0  0  0  0  0  0  0  0  0  0  0  0
   14.3546  -18.5238   18.6017 N   0  0  0  0  0  0  0  0  0  0  0  0
   13.2827  -17.5290   18.8114 C   0  0  0  0  0  0  0  0  0  0  0  0
   12.0046  -18.2916   18.8411 C   0  0  0  0  0  0  0  0  0  0  0  0
   10.7552  -17.4914   18.9031 C   0  0  0  0  0  0  0  0  0  0  0  0
    9.7788  -17.9719   19.9176 C   0  0  2  0  0  0  0  0  0  0  0  0
    8.5079  -18.3938   19.3499 N   0  0  0  0  0  0  0  0  0  0  0  0
    9.4300  -16.9075   20.9065 C   0  0  0  0  0  0  0  0  0  0  0  0
    9.2723  -15.7464   20.4624 O   0  0  0  0  0  0  0  0  0  0  0  0
   16.3293  -20.2873   18.6307 O   0  0  0  0  0  0  0  0  0  0  0  0
    6.2089  -11.5753   26.8302 C   0  0  0  0  0  0  0  0  0  0  0  0
    6.5165  -12.5965   25.9447 C   0  0  0  0  0  0  0  0  0  0  0  0
    6.0894  -13.8849   26.1853 C   0  0  0  0  0  0  0  0  0  0  0  0
    6.4180  -14.8933   25.2696 C   0  0  0  0  0  0  0  0  0  0  0  0
    7.1552  -14.6145   24.1440 C   0  0  0  0  0  0  0  0  0  0  0  0
    7.5009  -15.6555   23.1873 C   0  0  1  0  0  0  0  0  0  0  0  0
    8.9387  -16.0479   23.1551 N   0  0  0  0  0  0  0  0  0  0  0  0
    9.2688  -17.1238   22.2920 C   0  0  0  0  0  0  0  0  0  0  0  0
    9.3654  -16.3228   24.5678 O   0  0  0  0  0  0  0  0  0  0  0  0
    8.6734  -17.1088   25.2454 C   0  0  0  0  0  0  0  0  0  0  0  0
    7.5635  -13.3200   23.9372 C   0  0  0  0  0  0  0  0  0  0  0  0
    7.2524  -12.2979   24.8286 C   0  0  0  0  0  0  0  0  0  0  0  0
    8.8672  -13.9006   29.3662 C   0  0  1  0  0  0  0  0  0  0  0  0
    9.8404  -14.8343   28.7558 C   0  0  0  0  0  0  0  0  0  0  0  0
   11.2594  -14.6021   29.2894 C   0  0  0  0  0  0  0  0  0  0  0  0
    9.9140  -14.8744   27.2924 C   0  0  2  0  0  0  0  0  0  0  0  0
   10.7727  -15.8616   26.6157 N   0  0  0  0  0  0  0  0  0  0  0  0
   10.5050  -15.7282   25.1395 C   0  0  0  0  0  0  0  0  0  0  0  0
   10.6162  -17.2842   26.8719 O   0  0  0  0  0  0  0  0  0  0  0  0
    9.4240  -17.9901   26.6051 O   0  0  0  0  0  0  0  0  0  0  0  0
  2  3  2  0
  2  1  1  0
  4  2  1  0
  5  4  1  0
  6  5  1  0
  7  6  1  0
  8 10  1  0
  8  7  1  0
  8  9  1  6
 10 11  2  0
 13 14  2  0
 13 12  1  0
 15 14  1  0
 16 15  2  0
 17 16  1  0
 18 17  1  6
 18 20  1  0
 19 10  1  0
 19 18  1  0
 20 29  1  0
 20 21  2  0
 22 16  1  0
 22 23  2  0
 23 13  1  0
 25 24  1  1
 25 27  1  0
 26 25  1  0
 28 27  1  6
 28 30  1  0
 29 28  1  0
 30 32  2  0
 30 31  1  0
M  END
$$$$
