RYL.pdb
     RDKit          3D

 32 32  0  0  1  0  0  0  0  0999 V2000
    8.7460  -12.6006   17.0780 N   0  0  0  0  0  0  0  0  0  0  0  0
    8.2703  -13.5079   16.0803 C   0  0  0  0  0  0  0  0  0  0  0  0
    7.9087  -13.0421   14.9503 N   0  0  0  0  0  0  0  0  0  0  0  0
    8.1968  -14.9115   16.3309 N   0  0  0  0  0  0  0  0  0  0  0  0
    8.1214  -15.4214   17.7154 C   0  0  0  0  0  0  0  0  0  0  0  0
    9.1506  -16.4915   17.8234 C   0  0  0  0  0  0  0  0  0  0  0  0
   10.3220  -16.2014   18.6887 C   0  0  0  0  0  0  0  0  0  0  0  0
   10.4046  -17.0580   19.9023 C   0  0  2  0  0  0  0  0  0  0  0  0
    9.4784  -18.1794   19.8888 N   0  0  0  0  0  0  0  0  0  0  0  0
   10.0787  -16.2980   21.1468 C   0  0  0  0  0  0  0  0  0  0  0  0
   10.8192  -15.3286   21.4332 O   0  0  0  0  0  0  0  0  0  0  0  0
    7.5282  -13.5701   14.1486 O   0  0  0  0  0  0  0  0  0  0  0  0
    5.9510  -11.7519   27.2916 C   0  0  0  0  0  0  0  0  0  0  0  0
    6.2556  -12.7061   26.3332 C   0  0  0  0  0  0  0  0  0  0  0  0
    6.0157  -14.0421   26.5737 C   0  0  0  0  0  0  0  0  0  0  0  0
    6.3354  -14.9803   25.5834 C   0  0  0  0  0  0  0  0  0  0  0  0
    6.8809  -14.5867   24.3851 C   0  0  0  0  0  0  0  0  0  0  0  0
    7.2158  -15.5542   23.3506 C   0  0  2  0  0  0  0  0  0  0  0  0
    8.6713  -15.7266   23.0779 N   0  0  0  0  0  0  0  0  0  0  0  0
    9.0030  -16.5989   22.0100 C   0  0  0  0  0  0  0  0  0  0  0  0
    9.3256  -16.1508   24.3606 O   0  0  0  0  0  0  0  0  0  0  0  0
    9.7897  -17.3066   24.4261 C   0  0  0  0  0  0  0  0  0  0  0  0
    7.1059  -13.2478   24.1807 C   0  0  0  0  0  0  0  0  0  0  0  0
    6.7986  -12.2932   25.1453 C   0  0  0  0  0  0  0  0  0  0  0  0
   12.0349  -15.7670   28.9514 C   0  0  1  0  0  0  0  0  0  0  0  0
   11.3299  -14.5013   28.6475 C   0  0  0  0  0  0  0  0  0  0  0  0
   10.4943  -14.0180   29.8394 C   0  0  0  0  0  0  0  0  0  0  0  0
   10.4720  -14.4726   27.4592 C   0  0  1  0  0  0  0  0  0  0  0  0
   10.2559  -15.6947   26.6657 N   0  0  0  0  0  0  0  0  0  0  0  0
    9.4281  -15.2952   25.4725 C   0  0  0  0  0  0  0  0  0  0  0  0
    9.5376  -16.8283   27.2253 O   0  0  0  0  0  0  0  0  0  0  0  0
   10.1784  -17.9014   27.8799 O   0  0  0  0  0  0  0  0  0  0  0  0
  2  3  2  0
  2  1  1  0
  4  2  1  0
  5  4  1  0
  6  5  1  0
  7  6  1  0
  8 10  1  0
  8  7  1  0
  8  9  1  6
 10 11  2  0
 13 14  2  0
 13 12  1  0
 15 14  1  0
 16 15  2  0
 17 16  1  0
 18 17  1  6
 18 20  1  0
 19 10  1  0
 19 18  1  0
 20 29  1  0
 20 21  2  0
 22 16  1  0
 22 23  2  0
 23 13  1  0
 25 24  1  1
 25 27  1  0
 26 25  1  0
 28 27  1  6
 28 30  1  0
 29 28  1  0
 30 32  2  0
 30 31  1  0
M  END
$$$$
