RYL.pdb
     RDKit          3D

 32 32  0  0  1  0  0  0  0  0999 V2000
    7.7807  -22.5771   18.5847 N   0  0  0  0  0  0  0  0  0  0  0  0
    8.8968  -22.5758   17.6907 C   0  0  0  0  0  0  0  0  0  0  0  0
    8.7915  -23.1879   16.5777 N   0  0  0  0  0  0  0  0  0  0  0  0
   10.1120  -21.9051   18.0248 N   0  0  0  0  0  0  0  0  0  0  0  0
   10.2677  -21.2494   19.3395 C   0  0  0  0  0  0  0  0  0  0  0  0
   10.0422  -19.7958   19.1110 C   0  0  0  0  0  0  0  0  0  0  0  0
   10.8551  -18.8610   19.9297 C   0  0  0  0  0  0  0  0  0  0  0  0
   10.3921  -18.7304   21.3375 C   0  0  2  0  0  0  0  0  0  0  0  0
    8.9904  -19.0708   21.5245 N   0  0  0  0  0  0  0  0  0  0  0  0
   10.5240  -17.3303   21.8424 C   0  0  0  0  0  0  0  0  0  0  0  0
   11.6528  -16.7944   21.7483 O   0  0  0  0  0  0  0  0  0  0  0  0
    9.4976  -23.2464   15.8265 O   0  0  0  0  0  0  0  0  0  0  0  0
    5.5097  -13.5844   27.4272 C   0  0  0  0  0  0  0  0  0  0  0  0
    6.2682  -13.7430   26.2777 C   0  0  0  0  0  0  0  0  0  0  0  0
    6.9341  -12.6705   25.7242 C   0  0  0  0  0  0  0  0  0  0  0  0
    7.6919  -12.8658   24.5619 C   0  0  0  0  0  0  0  0  0  0  0  0
    7.7779  -14.1043   23.9727 C   0  0  0  0  0  0  0  0  0  0  0  0
    8.5630  -14.3165   22.7656 C   0  0  1  0  0  0  0  0  0  0  0  0
    9.7014  -15.2698   22.8980 N   0  0  0  0  0  0  0  0  0  0  0  0
    9.4712  -16.5820   22.4116 C   0  0  0  0  0  0  0  0  0  0  0  0
   10.1181  -15.2809   24.3400 O   0  0  0  0  0  0  0  0  0  0  0  0
   10.4967  -14.2065   24.8478 C   0  0  0  0  0  0  0  0  0  0  0  0
    7.1014  -15.1492   24.5520 C   0  0  0  0  0  0  0  0  0  0  0  0
    6.3411  -14.9856   25.7058 C   0  0  0  0  0  0  0  0  0  0  0  0
    9.4662  -13.5933   28.9230 C   0  0  1  0  0  0  0  0  0  0  0  0
   10.3761  -14.4879   28.1725 C   0  0  0  0  0  0  0  0  0  0  0  0
   11.4041  -13.6947   27.3562 C   0  0  0  0  0  0  0  0  0  0  0  0
    9.7674  -15.4803   27.2818 C   0  0  2  0  0  0  0  0  0  0  0  0
   10.6112  -16.4301   26.5363 N   0  0  0  0  0  0  0  0  0  0  0  0
   10.0941  -16.4503   25.1218 C   0  0  0  0  0  0  0  0  0  0  0  0
   10.6606  -17.8343   26.9101 O   0  0  0  0  0  0  0  0  0  0  0  0
    9.6933  -18.7765   26.5009 O   0  0  0  0  0  0  0  0  0  0  0  0
  2  3  2  0
  2  1  1  0
  4  2  1  0
  5  4  1  0
  6  5  1  0
  7  6  1  0
  8 10  1  0
  8  7  1  0
  8  9  1  6
 10 11  2  0
 13 14  2  0
 13 12  1  0
 15 14  1  0
 16 15  2  0
 17 16  1  0
 18 17  1  6
 18 20  1  0
 19 10  1  0
 19 18  1  0
 20 29  1  0
 20 21  2  0
 22 16  1  0
 22 23  2  0
 23 13  1  0
 25 24  1  1
 25 27  1  0
 26 25  1  0
 28 27  1  6
 28 30  1  0
 29 28  1  0
 30 32  2  0
 30 31  1  0
M  END
$$$$
