RYL.pdb
     RDKit          3D

 32 32  0  0  1  0  0  0  0  0999 V2000
   15.7297  -19.8267   19.4495 N   0  0  0  0  0  0  0  0  0  0  0  0
   15.4118  -20.2777   18.1303 C   0  0  0  0  0  0  0  0  0  0  0  0
   15.8388  -21.4177   17.7526 N   0  0  0  0  0  0  0  0  0  0  0  0
   14.6313  -19.4773   17.2424 N   0  0  0  0  0  0  0  0  0  0  0  0
   14.0569  -18.1953   17.6999 C   0  0  0  0  0  0  0  0  0  0  0  0
   13.3928  -18.4759   19.0023 C   0  0  0  0  0  0  0  0  0  0  0  0
   12.8040  -17.3119   19.7118 C   0  0  0  0  0  0  0  0  0  0  0  0
   11.3590  -17.4655   20.0307 C   0  0  2  0  0  0  0  0  0  0  0  0
   10.4846  -17.2669   18.8855 N   0  0  0  0  0  0  0  0  0  0  0  0
   10.9017  -16.4709   21.0477 C   0  0  0  0  0  0  0  0  0  0  0  0
   11.4545  -15.3465   21.0341 O   0  0  0  0  0  0  0  0  0  0  0  0
   15.7105  -21.8590   16.8278 O   0  0  0  0  0  0  0  0  0  0  0  0
    6.9748  -12.7300   17.7748 C   0  0  0  0  0  0  0  0  0  0  0  0
    7.2555  -13.3208   18.9970 C   0  0  0  0  0  0  0  0  0  0  0  0
    7.8785  -12.6031   19.9955 C   0  0  0  0  0  0  0  0  0  0  0  0
    8.1476  -13.2309   21.2189 C   0  0  0  0  0  0  0  0  0  0  0  0
    7.8002  -14.5433   21.4325 C   0  0  0  0  0  0  0  0  0  0  0  0
    8.0755  -15.2034   22.7001 C   0  0  2  0  0  0  0  0  0  0  0  0
    9.4752  -15.6816   22.8858 N   0  0  0  0  0  0  0  0  0  0  0  0
    9.8989  -16.7143   22.0109 C   0  0  0  0  0  0  0  0  0  0  0  0
    9.6314  -16.0788   24.3249 O   0  0  0  0  0  0  0  0  0  0  0  0
    9.8371  -17.2821   24.5806 C   0  0  0  0  0  0  0  0  0  0  0  0
    7.1812  -15.2268   20.4153 C   0  0  0  0  0  0  0  0  0  0  0  0
    6.9012  -14.6299   19.1900 C   0  0  0  0  0  0  0  0  0  0  0  0
   11.8542  -14.8624   28.6657 C   0  0  1  0  0  0  0  0  0  0  0  0
   10.6349  -14.0244   28.6155 C   0  0  0  0  0  0  0  0  0  0  0  0
    9.9655  -13.9153   29.9911 C   0  0  0  0  0  0  0  0  0  0  0  0
    9.6011  -14.3908   27.6430 C   0  0  2  0  0  0  0  0  0  0  0  0
    9.7604  -15.5889   26.8010 N   0  0  0  0  0  0  0  0  0  0  0  0
    9.5533  -15.1470   25.3760 C   0  0  0  0  0  0  0  0  0  0  0  0
    8.8661  -16.7260   26.9473 O   0  0  0  0  0  0  0  0  0  0  0  0
    9.1993  -17.8797   27.6881 O   0  0  0  0  0  0  0  0  0  0  0  0
  2  3  2  0
  2  1  1  0
  4  2  1  0
  5  4  1  0
  6  5  1  0
  7  6  1  0
  8 10  1  0
  8  7  1  0
  8  9  1  6
 10 11  2  0
 13 14  2  0
 13 12  1  0
 15 14  1  0
 16 15  2  0
 17 16  1  0
 18 17  1  6
 18 20  1  0
 19 10  1  0
 19 18  1  0
 20 29  1  0
 20 21  2  0
 22 16  1  0
 22 23  2  0
 23 13  1  0
 25 24  1  1
 25 27  1  0
 26 25  1  0
 28 27  1  6
 28 30  1  0
 29 28  1  0
 30 32  2  0
 30 31  1  0
M  END
$$$$
