RYL.pdb
     RDKit          3D

 32 32  0  0  1  0  0  0  0  0999 V2000
    7.2844  -18.1852   15.4919 N   0  0  0  0  0  0  0  0  0  0  0  0
    7.4062  -19.5303   15.9617 C   0  0  0  0  0  0  0  0  0  0  0  0
    6.4388  -20.3373   15.7681 N   0  0  0  0  0  0  0  0  0  0  0  0
    8.5833  -19.9751   16.6361 N   0  0  0  0  0  0  0  0  0  0  0  0
    9.6582  -19.0196   16.9742 C   0  0  0  0  0  0  0  0  0  0  0  0
    9.1964  -18.2809   18.1813 C   0  0  0  0  0  0  0  0  0  0  0  0
   10.0526  -18.3831   19.3902 C   0  0  0  0  0  0  0  0  0  0  0  0
    9.3117  -18.2289   20.6710 C   0  0  2  0  0  0  0  0  0  0  0  0
    7.8778  -18.0569   20.4983 N   0  0  0  0  0  0  0  0  0  0  0  0
    9.7596  -17.0255   21.4351 C   0  0  0  0  0  0  0  0  0  0  0  0
   10.9841  -16.9311   21.6835 O   0  0  0  0  0  0  0  0  0  0  0  0
    6.4009  -21.3394   16.0147 O   0  0  0  0  0  0  0  0  0  0  0  0
    8.2639  -12.8524   16.5792 C   0  0  0  0  0  0  0  0  0  0  0  0
    8.4392  -13.0217   17.9439 C   0  0  0  0  0  0  0  0  0  0  0  0
    9.7031  -13.0147   18.4941 C   0  0  0  0  0  0  0  0  0  0  0  0
    9.8445  -13.1885   19.8772 C   0  0  0  0  0  0  0  0  0  0  0  0
    8.7464  -13.3645   20.6845 C   0  0  0  0  0  0  0  0  0  0  0  0
    8.8837  -13.5454   22.1221 C   0  0  2  0  0  0  0  0  0  0  0  0
    9.4272  -14.8642   22.5554 N   0  0  0  0  0  0  0  0  0  0  0  0
    8.9017  -16.0007   21.8894 C   0  0  0  0  0  0  0  0  0  0  0  0
    9.2457  -14.9629   24.0422 O   0  0  0  0  0  0  0  0  0  0  0  0
    9.9532  -14.2356   24.7675 C   0  0  0  0  0  0  0  0  0  0  0  0
    7.5033  -13.3658   20.1015 C   0  0  0  0  0  0  0  0  0  0  0  0
    7.3318  -13.1955   18.7312 C   0  0  0  0  0  0  0  0  0  0  0  0
    7.4697  -12.7889   26.9551 C   0  0  2  0  0  0  0  0  0  0  0  0
    6.6607  -13.6868   26.1003 C   0  0  0  0  0  0  0  0  0  0  0  0
    5.1697  -13.3318   26.1576 C   0  0  0  0  0  0  0  0  0  0  0  0
    6.7856  -15.1299   26.3251 C   0  0  2  0  0  0  0  0  0  0  0  0
    8.0768  -15.8079   26.1176 N   0  0  0  0  0  0  0  0  0  0  0  0
    8.3152  -15.8388   24.6307 C   0  0  0  0  0  0  0  0  0  0  0  0
    8.2674  -17.1889   26.5306 O   0  0  0  0  0  0  0  0  0  0  0  0
    8.5444  -18.2343   25.6244 O   0  0  0  0  0  0  0  0  0  0  0  0
  2  3  2  0
  2  1  1  0
  4  2  1  0
  5  4  1  0
  6  5  1  0
  7  6  1  0
  8 10  1  0
  8  7  1  0
  8  9  1  6
 10 11  2  0
 13 14  2  0
 13 12  1  0
 15 14  1  0
 16 15  2  0
 17 16  1  0
 18 17  1  6
 18 20  1  0
 19 10  1  0
 19 18  1  0
 20 29  1  0
 20 21  2  0
 22 16  1  0
 22 23  2  0
 23 13  1  0
 25 24  1  6
 25 27  1  0
 26 25  1  0
 28 27  1  1
 28 30  1  0
 29 28  1  0
 30 32  2  0
 30 31  1  0
M  END
$$$$
