RYL.pdb
     RDKit          3D

 32 32  0  0  1  0  0  0  0  0999 V2000
    9.1070  -24.4855   20.5499 N   0  0  0  0  0  0  0  0  0  0  0  0
    8.5677  -24.0415   21.7976 C   0  0  0  0  0  0  0  0  0  0  0  0
    7.7941  -24.8219   22.4436 N   0  0  0  0  0  0  0  0  0  0  0  0
    8.8815  -22.7515   22.3226 N   0  0  0  0  0  0  0  0  0  0  0  0
    9.7084  -21.8075   21.5431 C   0  0  0  0  0  0  0  0  0  0  0  0
    8.7615  -20.8603   20.8933 C   0  0  0  0  0  0  0  0  0  0  0  0
    8.6529  -19.5092   21.4996 C   0  0  0  0  0  0  0  0  0  0  0  0
    8.5584  -18.4060   20.5060 C   0  0  2  0  0  0  0  0  0  0  0  0
    9.2468  -18.6865   19.2558 N   0  0  0  0  0  0  0  0  0  0  0  0
    9.1718  -17.1416   21.0137 C   0  0  0  0  0  0  0  0  0  0  0  0
   10.3722  -16.9328   20.7210 O   0  0  0  0  0  0  0  0  0  0  0  0
    7.3810  -24.6623   23.3764 O   0  0  0  0  0  0  0  0  0  0  0  0
    7.4143  -12.8682   16.2745 C   0  0  0  0  0  0  0  0  0  0  0  0
    7.6216  -13.0932   17.6265 C   0  0  0  0  0  0  0  0  0  0  0  0
    6.8474  -14.0050   18.3118 C   0  0  0  0  0  0  0  0  0  0  0  0
    7.0835  -14.2082   19.6779 C   0  0  0  0  0  0  0  0  0  0  0  0
    8.0699  -13.5143   20.3366 C   0  0  0  0  0  0  0  0  0  0  0  0
    8.3224  -13.7192   21.7553 C   0  0  2  0  0  0  0  0  0  0  0  0
    9.1082  -14.9385   22.0993 N   0  0  0  0  0  0  0  0  0  0  0  0
    8.4936  -16.1793   21.7924 C   0  0  0  0  0  0  0  0  0  0  0  0
    9.4728  -14.8477   23.5526 O   0  0  0  0  0  0  0  0  0  0  0  0
   10.1852  -13.8915   23.9183 C   0  0  0  0  0  0  0  0  0  0  0  0
    8.8212  -12.6144   19.6219 C   0  0  0  0  0  0  0  0  0  0  0  0
    8.6098  -12.3916   18.2648 C   0  0  0  0  0  0  0  0  0  0  0  0
    5.9469  -13.1691   27.1575 C   0  0  1  0  0  0  0  0  0  0  0  0
    7.3436  -13.6581   27.1228 C   0  0  0  0  0  0  0  0  0  0  0  0
    8.3401  -12.5530   27.4941 C   0  0  0  0  0  0  0  0  0  0  0  0
    7.8114  -14.2837   25.8824 C   0  0  2  0  0  0  0  0  0  0  0  0
    8.7880  -15.3856   25.9252 N   0  0  0  0  0  0  0  0  0  0  0  0
    9.0406  -15.7956   24.4980 C   0  0  0  0  0  0  0  0  0  0  0  0
    8.4710  -16.6357   26.5967 O   0  0  0  0  0  0  0  0  0  0  0  0
    7.8967  -17.7425   25.9366 O   0  0  0  0  0  0  0  0  0  0  0  0
  2  3  2  0
  2  1  1  0
  4  2  1  0
  5  4  1  0
  6  5  1  0
  7  6  1  0
  8 10  1  0
  8  7  1  0
  8  9  1  6
 10 11  2  0
 13 14  2  0
 13 12  1  0
 15 14  1  0
 16 15  2  0
 17 16  1  0
 18 17  1  6
 18 20  1  0
 19 10  1  0
 19 18  1  0
 20 29  1  0
 20 21  2  0
 22 16  1  0
 22 23  2  0
 23 13  1  0
 25 24  1  1
 25 27  1  0
 26 25  1  0
 28 27  1  6
 28 30  1  0
 29 28  1  0
 30 32  2  0
 30 31  1  0
M  END
$$$$
