RYL.pdb
     RDKit          3D

 32 32  0  0  1  0  0  0  0  0999 V2000
    7.7880  -12.5177   16.2664 N   0  0  0  0  0  0  0  0  0  0  0  0
    8.5374  -13.6777   16.6375 C   0  0  0  0  0  0  0  0  0  0  0  0
    8.9159  -14.4814   15.7235 N   0  0  0  0  0  0  0  0  0  0  0  0
    8.8631  -13.9432   18.0019 N   0  0  0  0  0  0  0  0  0  0  0  0
    8.0994  -13.3021   19.0920 C   0  0  0  0  0  0  0  0  0  0  0  0
    6.9362  -14.1899   19.3658 C   0  0  0  0  0  0  0  0  0  0  0  0
    7.1201  -15.2190   20.4203 C   0  0  0  0  0  0  0  0  0  0  0  0
    8.1807  -16.2163   20.1139 C   0  0  2  0  0  0  0  0  0  0  0  0
    7.6709  -17.5603   19.8919 N   0  0  0  0  0  0  0  0  0  0  0  0
    9.1618  -16.3513   21.2328 C   0  0  0  0  0  0  0  0  0  0  0  0
    8.9632  -17.2740   22.0570 O   0  0  0  0  0  0  0  0  0  0  0  0
    9.4902  -15.3321   15.8368 O   0  0  0  0  0  0  0  0  0  0  0  0
   14.7658  -15.4068   17.2437 C   0  0  0  0  0  0  0  0  0  0  0  0
   14.2199  -15.3605   18.5171 C   0  0  0  0  0  0  0  0  0  0  0  0
   14.3785  -16.4187   19.3862 C   0  0  0  0  0  0  0  0  0  0  0  0
   13.8138  -16.3391   20.6661 C   0  0  0  0  0  0  0  0  0  0  0  0
   13.1095  -15.2271   21.0611 C   0  0  0  0  0  0  0  0  0  0  0  0
   12.5198  -15.1356   22.3886 C   0  0  2  0  0  0  0  0  0  0  0  0
   11.1502  -15.7084   22.5250 N   0  0  0  0  0  0  0  0  0  0  0  0
   10.2845  -15.5159   21.4182 C   0  0  0  0  0  0  0  0  0  0  0  0
   10.5557  -15.1650   23.7917 O   0  0  0  0  0  0  0  0  0  0  0  0
   10.5573  -13.9286   23.9553 C   0  0  0  0  0  0  0  0  0  0  0  0
   12.9719  -14.1927   20.1689 C   0  0  0  0  0  0  0  0  0  0  0  0
   13.5215  -14.2432   18.8916 C   0  0  0  0  0  0  0  0  0  0  0  0
    6.0934  -13.8799   26.4798 C   0  0  1  0  0  0  0  0  0  0  0  0
    7.5626  -13.7686   26.6231 C   0  0  0  0  0  0  0  0  0  0  0  0
    8.0156  -12.3050   26.6933 C   0  0  0  0  0  0  0  0  0  0  0  0
    8.3937  -14.4464   25.6238 C   0  0  2  0  0  0  0  0  0  0  0  0
    9.4317  -15.4039   26.0427 N   0  0  0  0  0  0  0  0  0  0  0  0
   10.0060  -15.9979   24.7833 C   0  0  0  0  0  0  0  0  0  0  0  0
    9.0922  -16.5631   26.8522 O   0  0  0  0  0  0  0  0  0  0  0  0
    8.7807  -17.8244   26.3019 O   0  0  0  0  0  0  0  0  0  0  0  0
  2  3  2  0
  2  1  1  0
  4  2  1  0
  5  4  1  0
  6  5  1  0
  7  6  1  0
  8 10  1  0
  8  7  1  0
  8  9  1  1
 10 11  2  0
 13 14  2  0
 13 12  1  0
 15 14  1  0
 16 15  2  0
 17 16  1  0
 18 17  1  6
 18 20  1  0
 19 10  1  0
 19 18  1  0
 20 29  1  0
 20 21  2  0
 22 16  1  0
 22 23  2  0
 23 13  1  0
 25 24  1  1
 25 27  1  0
 26 25  1  0
 28 27  1  6
 28 30  1  0
 29 28  1  0
 30 32  2  0
 30 31  1  0
M  END
$$$$
