RYL.pdb
     RDKit          3D

 32 32  0  0  1  0  0  0  0  0999 V2000
    9.8035  -13.3397   17.4382 N   0  0  0  0  0  0  0  0  0  0  0  0
    8.4757  -13.4909   16.9290 C   0  0  0  0  0  0  0  0  0  0  0  0
    7.7532  -12.4511   16.7826 N   0  0  0  0  0  0  0  0  0  0  0  0
    7.9562  -14.7757   16.5865 N   0  0  0  0  0  0  0  0  0  0  0  0
    8.0729  -15.9060   17.5306 C   0  0  0  0  0  0  0  0  0  0  0  0
    6.9775  -15.7358   18.5241 C   0  0  0  0  0  0  0  0  0  0  0  0
    7.3440  -15.0980   19.8140 C   0  0  0  0  0  0  0  0  0  0  0  0
    8.4816  -15.7552   20.5120 C   0  0  2  0  0  0  0  0  0  0  0  0
    8.8700  -17.0278   19.9242 N   0  0  0  0  0  0  0  0  0  0  0  0
    8.1590  -16.0664   21.9374 C   0  0  0  0  0  0  0  0  0  0  0  0
    7.3996  -15.2701   22.5369 O   0  0  0  0  0  0  0  0  0  0  0  0
    6.7872  -12.4063   16.4205 O   0  0  0  0  0  0  0  0  0  0  0  0
    7.0865  -19.5416   29.9092 C   0  0  0  0  0  0  0  0  0  0  0  0
    7.4893  -19.3381   28.5985 C   0  0  0  0  0  0  0  0  0  0  0  0
    8.8105  -19.0776   28.3039 C   0  0  0  0  0  0  0  0  0  0  0  0
    9.1835  -18.8767   26.9684 C   0  0  0  0  0  0  0  0  0  0  0  0
    8.2547  -18.9359   25.9574 C   0  0  0  0  0  0  0  0  0  0  0  0
    8.6332  -18.7289   24.5673 C   0  0  2  0  0  0  0  0  0  0  0  0
    8.2997  -17.3903   24.0023 N   0  0  0  0  0  0  0  0  0  0  0  0
    8.6492  -17.1863   22.6430 C   0  0  0  0  0  0  0  0  0  0  0  0
    8.9214  -16.3545   24.8934 O   0  0  0  0  0  0  0  0  0  0  0  0
   10.1353  -16.1088   24.7462 C   0  0  0  0  0  0  0  0  0  0  0  0
    6.9481  -19.1976   26.2882 C   0  0  0  0  0  0  0  0  0  0  0  0
    6.5480  -19.4014   27.6053 C   0  0  0  0  0  0  0  0  0  0  0  0
    7.9407  -12.4331   24.4838 C   0  0  2  0  0  0  0  0  0  0  0  0
    7.1072  -12.9782   25.5790 C   0  0  0  0  0  0  0  0  0  0  0  0
    6.0514  -11.9676   26.0441 C   0  0  0  0  0  0  0  0  0  0  0  0
    7.7983  -13.4826   26.7692 C   0  0  2  0  0  0  0  0  0  0  0  0
    8.8183  -14.5384   26.6479 N   0  0  0  0  0  0  0  0  0  0  0  0
    8.1852  -15.6647   25.8738 C   0  0  0  0  0  0  0  0  0  0  0  0
    9.3608  -15.1887   27.8298 O   0  0  0  0  0  0  0  0  0  0  0  0
   10.3039  -14.5775   28.6828 O   0  0  0  0  0  0  0  0  0  0  0  0
  2  3  2  0
  2  1  1  0
  4  2  1  0
  5  4  1  0
  6  5  1  0
  7  6  1  0
  8 10  1  0
  8  7  1  0
  8  9  1  6
 10 11  2  0
 13 14  2  0
 13 12  1  0
 15 14  1  0
 16 15  2  0
 17 16  1  0
 18 17  1  6
 18 20  1  0
 19 10  1  0
 19 18  1  0
 20 29  1  0
 20 21  2  0
 22 16  1  0
 22 23  2  0
 23 13  1  0
 25 24  1  6
 25 27  1  0
 26 25  1  0
 28 27  1  6
 28 30  1  0
 29 28  1  0
 30 32  2  0
 30 31  1  0
M  END
$$$$
