RYL.pdb
     RDKit          3D

 32 32  0  0  1  0  0  0  0  0999 V2000
   10.2811  -19.6953   15.2918 N   0  0  0  0  0  0  0  0  0  0  0  0
   11.4095  -20.1039   16.0693 C   0  0  0  0  0  0  0  0  0  0  0  0
   12.3661  -20.7135   15.4881 N   0  0  0  0  0  0  0  0  0  0  0  0
   11.4773  -19.8403   17.4708 N   0  0  0  0  0  0  0  0  0  0  0  0
   10.2518  -19.8586   18.2957 C   0  0  0  0  0  0  0  0  0  0  0  0
   10.1085  -18.4893   18.8620 C   0  0  0  0  0  0  0  0  0  0  0  0
   11.0875  -18.0974   19.9074 C   0  0  0  0  0  0  0  0  0  0  0  0
   10.6558  -18.4235   21.2932 C   0  0  2  0  0  0  0  0  0  0  0  0
    9.4775  -19.2743   21.3521 N   0  0  0  0  0  0  0  0  0  0  0  0
   10.2918  -17.1992   22.0686 C   0  0  0  0  0  0  0  0  0  0  0  0
   11.1492  -16.2875   22.1300 O   0  0  0  0  0  0  0  0  0  0  0  0
   13.2245  -21.0889   15.9224 O   0  0  0  0  0  0  0  0  0  0  0  0
    6.2480  -10.6182   26.2141 C   0  0  0  0  0  0  0  0  0  0  0  0
    6.5484  -11.8431   25.6389 C   0  0  0  0  0  0  0  0  0  0  0  0
    7.3159  -11.9110   24.4958 C   0  0  0  0  0  0  0  0  0  0  0  0
    7.6008  -13.1654   23.9404 C   0  0  0  0  0  0  0  0  0  0  0  0
    7.1274  -14.3191   24.5178 C   0  0  0  0  0  0  0  0  0  0  0  0
    7.4186  -15.6264   23.9481 C   0  0  2  0  0  0  0  0  0  0  0  0
    8.8179  -15.8240   23.4732 N   0  0  0  0  0  0  0  0  0  0  0  0
    9.0589  -17.0066   22.7284 C   0  0  0  0  0  0  0  0  0  0  0  0
    9.7199  -15.7319   24.6696 O   0  0  0  0  0  0  0  0  0  0  0  0
   10.2573  -14.6332   24.9137 C   0  0  0  0  0  0  0  0  0  0  0  0
    6.3663  -14.2130   25.6556 C   0  0  0  0  0  0  0  0  0  0  0  0
    6.0671  -12.9814   26.2297 C   0  0  0  0  0  0  0  0  0  0  0  0
   11.0319  -13.7947   27.5018 C   0  0  2  0  0  0  0  0  0  0  0  0
    9.8402  -14.4418   28.0954 C   0  0  0  0  0  0  0  0  0  0  0  0
    9.9523  -14.5441   29.6216 C   0  0  0  0  0  0  0  0  0  0  0  0
    9.4624  -15.7631   27.5853 C   0  0  2  0  0  0  0  0  0  0  0  0
   10.4594  -16.6178   26.9180 N   0  0  0  0  0  0  0  0  0  0  0  0
    9.9719  -16.8322   25.5091 C   0  0  0  0  0  0  0  0  0  0  0  0
   10.7310  -17.9618   27.4019 O   0  0  0  0  0  0  0  0  0  0  0  0
   11.8607  -18.2878   28.1818 O   0  0  0  0  0  0  0  0  0  0  0  0
  2  3  2  0
  2  1  1  0
  4  2  1  0
  5  4  1  0
  6  5  1  0
  7  6  1  0
  8 10  1  0
  8  7  1  0
  8  9  1  6
 10 11  2  0
 13 14  2  0
 13 12  1  0
 15 14  1  0
 16 15  2  0
 17 16  1  0
 18 17  1  6
 18 20  1  0
 19 10  1  0
 19 18  1  0
 20 29  1  0
 20 21  2  0
 22 16  1  0
 22 23  2  0
 23 13  1  0
 25 24  1  1
 25 27  1  0
 26 25  1  0
 28 27  1  6
 28 30  1  0
 29 28  1  0
 30 32  2  0
 30 31  1  0
M  END
$$$$
