RYL.pdb
     RDKit          3D

 32 32  0  0  1  0  0  0  0  0999 V2000
    9.1810  -13.2473   19.3540 N   0  0  0  0  0  0  0  0  0  0  0  0
    8.1533  -13.5252   18.3993 C   0  0  0  0  0  0  0  0  0  0  0  0
    8.1975  -12.9459   17.2648 N   0  0  0  0  0  0  0  0  0  0  0  0
    7.0920  -14.4325   18.6972 N   0  0  0  0  0  0  0  0  0  0  0  0
    6.4913  -14.4641   20.0465 C   0  0  0  0  0  0  0  0  0  0  0  0
    7.3161  -15.4083   20.8493 C   0  0  0  0  0  0  0  0  0  0  0  0
    7.2691  -16.8372   20.4483 C   0  0  0  0  0  0  0  0  0  0  0  0
    8.6081  -17.4686   20.3011 C   0  0  2  0  0  0  0  0  0  0  0  0
    8.5527  -18.8915   20.0049 N   0  0  0  0  0  0  0  0  0  0  0  0
    9.4176  -17.3620   21.5524 C   0  0  0  0  0  0  0  0  0  0  0  0
    9.3771  -18.3340   22.3422 O   0  0  0  0  0  0  0  0  0  0  0  0
    7.4971  -12.9982   16.5078 O   0  0  0  0  0  0  0  0  0  0  0  0
   14.6437  -14.2648   18.0526 C   0  0  0  0  0  0  0  0  0  0  0  0
   14.0248  -14.5067   19.2692 C   0  0  0  0  0  0  0  0  0  0  0  0
   12.8267  -13.8994   19.5788 C   0  0  0  0  0  0  0  0  0  0  0  0
   12.2283  -14.1659   20.8174 C   0  0  0  0  0  0  0  0  0  0  0  0
   12.8177  -15.0189   21.7194 C   0  0  0  0  0  0  0  0  0  0  0  0
   12.2031  -15.3019   23.0080 C   0  0  2  0  0  0  0  0  0  0  0  0
   11.1147  -16.3205   22.9918 N   0  0  0  0  0  0  0  0  0  0  0  0
   10.2154  -16.2497   21.8975 C   0  0  0  0  0  0  0  0  0  0  0  0
   10.3934  -16.2341   24.3054 O   0  0  0  0  0  0  0  0  0  0  0  0
   11.0733  -16.0540   25.3354 C   0  0  0  0  0  0  0  0  0  0  0  0
   14.0107  -15.6057   21.3768 C   0  0  0  0  0  0  0  0  0  0  0  0
   14.6285  -15.3602   20.1544 C   0  0  0  0  0  0  0  0  0  0  0  0
    8.4808  -13.3416   26.9172 C   0  0  2  0  0  0  0  0  0  0  0  0
    7.7611  -13.8203   25.7154 C   0  0  0  0  0  0  0  0  0  0  0  0
    6.5371  -12.9502   25.4041 C   0  0  0  0  0  0  0  0  0  0  0  0
    7.3299  -15.2212   25.6976 C   0  0  2  0  0  0  0  0  0  0  0  0
    8.3230  -16.3078   25.7529 N   0  0  0  0  0  0  0  0  0  0  0  0
    8.9949  -16.3489   24.4055 C   0  0  0  0  0  0  0  0  0  0  0  0
    7.9096  -17.6833   25.9791 O   0  0  0  0  0  0  0  0  0  0  0  0
    8.0022  -18.6891   24.9939 O   0  0  0  0  0  0  0  0  0  0  0  0
  2  3  2  0
  2  1  1  0
  4  2  1  0
  5  4  1  0
  6  5  1  0
  7  6  1  0
  8 10  1  0
  8  7  1  0
  8  9  1  1
 10 11  2  0
 13 14  2  0
 13 12  1  0
 15 14  1  0
 16 15  2  0
 17 16  1  0
 18 17  1  6
 18 20  1  0
 19 10  1  0
 19 18  1  0
 20 29  1  0
 20 21  2  0
 22 16  1  0
 22 23  2  0
 23 13  1  0
 25 24  1  6
 25 27  1  0
 26 25  1  0
 28 27  1  1
 28 30  1  0
 29 28  1  0
 30 32  2  0
 30 31  1  0
M  END
$$$$
