VFI.pdb
     RDKit          3D

 27 27  0  0  1  0  0  0  0  0999 V2000
   24.9003  -18.3749  -18.4184 C   0  0  0  0  0  0  0  0  0  0  0  0
   25.2250  -18.8726  -17.0359 C   0  0  1  0  0  0  0  0  0  0  0  0
   24.0029  -19.5277  -16.4404 C   0  0  0  0  0  0  0  0  0  0  0  0
   26.4030  -19.8235  -17.1474 C   0  0  2  0  0  0  0  0  0  0  0  0
   26.1614  -20.8027  -18.1645 N   0  0  0  0  0  0  0  0  0  0  0  0
   26.7730  -20.4070  -15.8475 C   0  0  0  0  0  0  0  0  0  0  0  0
   26.1442  -21.3956  -15.4276 O   0  0  0  0  0  0  0  0  0  0  0  0
   27.8301  -19.8426  -15.0983 N   0  0  0  0  0  0  0  0  0  0  0  0
   28.1976  -20.1634  -13.7604 C   0  0  1  0  0  0  0  0  0  0  0  0
   29.5861  -19.7949  -13.3445 C   0  0  0  0  0  0  0  0  0  0  0  0
   29.8840  -20.2122  -11.9437 C   0  0  0  0  0  0  0  0  0  0  0  0
   30.4569  -21.4064  -11.6142 C   0  0  0  0  0  0  0  0  0  0  0  0
   30.6942  -21.8040  -10.2890 C   0  0  0  0  0  0  0  0  0  0  0  0
   30.3003  -20.8853   -9.3190 C   0  0  0  0  0  0  0  0  0  0  0  0
   29.7253  -19.6819   -9.6446 C   0  0  0  0  0  0  0  0  0  0  0  0
   29.5054  -19.3226  -10.9462 C   0  0  0  0  0  0  0  0  0  0  0  0
   27.1355  -19.8092  -12.8041 C   0  0  0  0  0  0  0  0  0  0  0  0
   26.6472  -18.6385  -12.7679 O   0  0  0  0  0  0  0  0  0  0  0  0
   22.3850  -20.4534  -13.0730 C   0  0  0  0  0  0  0  0  0  0  0  0
   23.7416  -19.9275  -12.6232 C   0  0  0  0  0  0  0  0  0  0  0  0
   24.1519  -20.6576  -11.3526 C   0  0  2  0  0  0  0  0  0  0  0  0
   23.1759  -20.2814  -10.2495 C   0  0  0  0  0  0  0  0  0  0  0  0
   25.5361  -20.3301  -10.9262 C   0  0  2  0  0  0  0  0  0  0  0  0
   26.5741  -20.7281  -11.8545 N   0  0  0  0  0  0  0  0  0  0  0  0
   25.8264  -20.9016   -9.5626 C   0  0  0  0  0  0  0  0  0  0  0  0
   26.3879  -22.0204   -9.5243 O   0  0  0  0  0  0  0  0  0  0  0  0
   25.5089  -20.2662   -8.4023 O   0  0  0  0  0  0  0  0  0  0  0  0
  2  3  1  6
  2  1  1  0
  4  2  1  0
  4  5  1  6
  6  7  2  0
  6  4  1  0
  8  6  1  0
  9  8  1  0
  9 10  1  1
 10 11  1  0
 11 12  2  0
 11 16  1  0
 12 13  1  0
 13 14  2  0
 15 14  1  0
 16 15  2  0
 17 18  2  0
 17  9  1  0
 20 19  1  0
 20 21  1  0
 21 23  1  0
 21 22  1  1
 23 24  1  6
 24 17  1  0
 25 23  1  0
 26 25  2  0
 27 25  1  0
M  END
$$$$
