VFI.pdb
     RDKit          3D

 27 27  0  0  1  0  0  0  0  0999 V2000
   29.2030  -19.9563  -15.8723 C   0  0  0  0  0  0  0  0  0  0  0  0
   28.3711  -19.6346  -14.6602 C   0  0  1  0  0  0  0  0  0  0  0  0
   28.4254  -18.1499  -14.3961 C   0  0  0  0  0  0  0  0  0  0  0  0
   26.9602  -20.1320  -14.9176 C   0  0  2  0  0  0  0  0  0  0  0  0
   26.5026  -19.6964  -16.2032 N   0  0  0  0  0  0  0  0  0  0  0  0
   26.0400  -19.7901  -13.8206 C   0  0  0  0  0  0  0  0  0  0  0  0
   25.6254  -18.6207  -13.7216 O   0  0  0  0  0  0  0  0  0  0  0  0
   25.6409  -20.7860  -12.9009 N   0  0  0  0  0  0  0  0  0  0  0  0
   24.7934  -20.6160  -11.7692 C   0  0  1  0  0  0  0  0  0  0  0  0
   23.3697  -21.0441  -11.9328 C   0  0  0  0  0  0  0  0  0  0  0  0
   22.7058  -20.3644  -13.0827 C   0  0  0  0  0  0  0  0  0  0  0  0
   22.0422  -19.1761  -12.9803 C   0  0  0  0  0  0  0  0  0  0  0  0
   21.3864  -18.5676  -14.0621 C   0  0  0  0  0  0  0  0  0  0  0  0
   21.4593  -19.2676  -15.2641 C   0  0  0  0  0  0  0  0  0  0  0  0
   22.1268  -20.4622  -15.3734 C   0  0  0  0  0  0  0  0  0  0  0  0
   22.7558  -21.0315  -14.3001 C   0  0  0  0  0  0  0  0  0  0  0  0
   25.4484  -21.0583  -10.5269 C   0  0  0  0  0  0  0  0  0  0  0  0
   26.0295  -22.1842  -10.4552 O   0  0  0  0  0  0  0  0  0  0  0  0
   28.0784  -17.9311   -6.7633 C   0  0  0  0  0  0  0  0  0  0  0  0
   27.6993  -19.0518   -7.7223 C   0  0  0  0  0  0  0  0  0  0  0  0
   26.5380  -19.8336   -7.1256 C   0  0  2  0  0  0  0  0  0  0  0  0
   27.0323  -20.5425   -5.8749 C   0  0  0  0  0  0  0  0  0  0  0  0
   25.9721  -20.8286   -8.0716 C   0  0  2  0  0  0  0  0  0  0  0  0
   25.4872  -20.2800   -9.3212 N   0  0  0  0  0  0  0  0  0  0  0  0
   24.8831  -21.6352   -7.4131 C   0  0  0  0  0  0  0  0  0  0  0  0
   23.7027  -21.2756   -7.6272 O   0  0  0  0  0  0  0  0  0  0  0  0
   25.1266  -22.7096   -6.6150 O   0  0  0  0  0  0  0  0  0  0  0  0
  2  3  1  6
  2  1  1  0
  4  2  1  0
  4  5  1  6
  6  7  2  0
  6  4  1  0
  8  6  1  0
  9  8  1  0
  9 10  1  6
 10 11  1  0
 11 12  2  0
 11 16  1  0
 12 13  1  0
 13 14  2  0
 15 14  1  0
 16 15  2  0
 17 18  2  0
 17  9  1  0
 20 19  1  0
 20 21  1  0
 21 23  1  0
 21 22  1  1
 23 24  1  6
 24 17  1  0
 25 23  1  0
 26 25  2  0
 27 25  1  0
M  END
$$$$
