VFI.pdb
     RDKit          3D

 27 27  0  0  1  0  0  0  0  0999 V2000
   25.6913  -19.3400  -18.1123 C   0  0  0  0  0  0  0  0  0  0  0  0
   26.2089  -20.5750  -18.7989 C   0  0  1  0  0  0  0  0  0  0  0  0
   26.9334  -20.1786  -20.0619 C   0  0  0  0  0  0  0  0  0  0  0  0
   27.1025  -21.3135  -17.8188 C   0  0  2  0  0  0  0  0  0  0  0  0
   27.6001  -22.5211  -18.4070 N   0  0  0  0  0  0  0  0  0  0  0  0
   26.4488  -21.5215  -16.5164 C   0  0  0  0  0  0  0  0  0  0  0  0
   25.4797  -22.2992  -16.4436 O   0  0  0  0  0  0  0  0  0  0  0  0
   26.9260  -20.8416  -15.3731 N   0  0  0  0  0  0  0  0  0  0  0  0
   26.3842  -20.8946  -14.0572 C   0  0  1  0  0  0  0  0  0  0  0  0
   27.3358  -20.6316  -12.9339 C   0  0  0  0  0  0  0  0  0  0  0  0
   26.6596  -20.6591  -11.6046 C   0  0  0  0  0  0  0  0  0  0  0  0
   26.2638  -21.8059  -10.9791 C   0  0  0  0  0  0  0  0  0  0  0  0
   25.5914  -21.8151   -9.7470 C   0  0  0  0  0  0  0  0  0  0  0  0
   25.3516  -20.5579   -9.1974 C   0  0  0  0  0  0  0  0  0  0  0  0
   25.7490  -19.4012   -9.8211 C   0  0  0  0  0  0  0  0  0  0  0  0
   26.4019  -19.4242  -11.0231 C   0  0  0  0  0  0  0  0  0  0  0  0
   25.0935  -20.1912  -13.9710 C   0  0  0  0  0  0  0  0  0  0  0  0
   25.0079  -18.9450  -14.1945 O   0  0  0  0  0  0  0  0  0  0  0  0
   20.2884  -21.4933  -16.2146 C   0  0  0  0  0  0  0  0  0  0  0  0
   21.1953  -21.5443  -14.9922 C   0  0  0  0  0  0  0  0  0  0  0  0
   21.7418  -20.1483  -14.7305 C   0  0  2  0  0  0  0  0  0  0  0  0
   22.5289  -19.7066  -15.9538 C   0  0  0  0  0  0  0  0  0  0  0  0
   22.6134  -20.0910  -13.5296 C   0  0  2  0  0  0  0  0  0  0  0  0
   23.8532  -20.8319  -13.6358 N   0  0  0  0  0  0  0  0  0  0  0  0
   21.8615  -20.5304  -12.3001 C   0  0  0  0  0  0  0  0  0  0  0  0
   22.1175  -21.6735  -11.8571 O   0  0  0  0  0  0  0  0  0  0  0  0
   20.9386  -19.7541  -11.6704 O   0  0  0  0  0  0  0  0  0  0  0  0
  2  3  1  6
  2  1  1  0
  4  2  1  0
  4  5  1  6
  6  7  2  0
  6  4  1  0
  8  6  1  0
  9  8  1  0
  9 10  1  1
 10 11  1  0
 11 12  2  0
 11 16  1  0
 12 13  1  0
 13 14  2  0
 15 14  1  0
 16 15  2  0
 17 18  2  0
 17  9  1  0
 20 19  1  0
 20 21  1  0
 21 23  1  0
 21 22  1  6
 23 24  1  6
 24 17  1  0
 25 23  1  0
 26 25  2  0
 27 25  1  0
M  END
$$$$
