VFI.pdb
     RDKit          3D

 27 27  0  0  1  0  0  0  0  0999 V2000
   27.5350  -19.2493  -18.6191 C   0  0  0  0  0  0  0  0  0  0  0  0
   26.8197  -20.3256  -17.8480 C   0  0  1  0  0  0  0  0  0  0  0  0
   26.0177  -21.1757  -18.8025 C   0  0  0  0  0  0  0  0  0  0  0  0
   27.8620  -21.1247  -17.0868 C   0  0  2  0  0  0  0  0  0  0  0  0
   28.2255  -22.3002  -17.8203 N   0  0  0  0  0  0  0  0  0  0  0  0
   27.4489  -21.4022  -15.7014 C   0  0  0  0  0  0  0  0  0  0  0  0
   26.9193  -22.4969  -15.4361 O   0  0  0  0  0  0  0  0  0  0  0  0
   27.6578  -20.4303  -14.6969 N   0  0  0  0  0  0  0  0  0  0  0  0
   27.2595  -20.5105  -13.3320 C   0  0  1  0  0  0  0  0  0  0  0  0
   28.1196  -19.7893  -12.3437 C   0  0  0  0  0  0  0  0  0  0  0  0
   27.6359  -19.9633  -10.9434 C   0  0  0  0  0  0  0  0  0  0  0  0
   28.1217  -20.9073  -10.0855 C   0  0  0  0  0  0  0  0  0  0  0  0
   27.6289  -21.0872   -8.7835 C   0  0  0  0  0  0  0  0  0  0  0  0
   26.5963  -20.2259   -8.4204 C   0  0  0  0  0  0  0  0  0  0  0  0
   26.1049  -19.2735   -9.2784 C   0  0  0  0  0  0  0  0  0  0  0  0
   26.6051  -19.1228  -10.5427 C   0  0  0  0  0  0  0  0  0  0  0  0
   25.8095  -20.3086  -13.1751 C   0  0  0  0  0  0  0  0  0  0  0  0
   25.2526  -19.2291  -13.5425 O   0  0  0  0  0  0  0  0  0  0  0  0
   22.3110  -23.4206  -15.3357 C   0  0  0  0  0  0  0  0  0  0  0  0
   22.9890  -22.1864  -14.7557 C   0  0  0  0  0  0  0  0  0  0  0  0
   22.6858  -22.1170  -13.2660 C   0  0  2  0  0  0  0  0  0  0  0  0
   21.2054  -21.8175  -13.0935 C   0  0  0  0  0  0  0  0  0  0  0  0
   23.4884  -21.0817  -12.5665 C   0  0  2  0  0  0  0  0  0  0  0  0
   24.9217  -21.2846  -12.6090 N   0  0  0  0  0  0  0  0  0  0  0  0
   23.0380  -20.9298  -11.1367 C   0  0  0  0  0  0  0  0  0  0  0  0
   22.3273  -19.9340  -10.8688 O   0  0  0  0  0  0  0  0  0  0  0  0
   23.3663  -21.8088  -10.1516 O   0  0  0  0  0  0  0  0  0  0  0  0
  2  3  1  6
  2  1  1  0
  4  2  1  0
  4  5  1  6
  6  7  2  0
  6  4  1  0
  8  6  1  0
  9  8  1  0
  9 10  1  1
 10 11  1  0
 11 12  2  0
 11 16  1  0
 12 13  1  0
 13 14  2  0
 15 14  1  0
 16 15  2  0
 17 18  2  0
 17  9  1  0
 20 19  1  0
 20 21  1  0
 21 23  1  0
 21 22  1  6
 23 24  1  1
 24 17  1  0
 25 23  1  0
 26 25  2  0
 27 25  1  0
M  END
$$$$
