VFI.pdb
     RDKit          3D

 27 27  0  0  1  0  0  0  0  0999 V2000
   28.5608  -19.1858  -16.9111 C   0  0  0  0  0  0  0  0  0  0  0  0
   27.8343  -19.5483  -15.6441 C   0  0  1  0  0  0  0  0  0  0  0  0
   26.3729  -19.7667  -15.9506 C   0  0  0  0  0  0  0  0  0  0  0  0
   28.5006  -20.7813  -15.0610 C   0  0  2  0  0  0  0  0  0  0  0  0
   28.4490  -21.8668  -15.9942 N   0  0  0  0  0  0  0  0  0  0  0  0
   27.9703  -21.1251  -13.7314 C   0  0  0  0  0  0  0  0  0  0  0  0
   27.0697  -21.9795  -13.6421 O   0  0  0  0  0  0  0  0  0  0  0  0
   28.4868  -20.4865  -12.5814 N   0  0  0  0  0  0  0  0  0  0  0  0
   28.0090  -20.6112  -11.2456 C   0  0  1  0  0  0  0  0  0  0  0  0
   28.9384  -20.1668  -10.1615 C   0  0  0  0  0  0  0  0  0  0  0  0
   28.2631  -20.0989   -8.8333 C   0  0  0  0  0  0  0  0  0  0  0  0
   28.0869  -21.1781   -8.0165 C   0  0  0  0  0  0  0  0  0  0  0  0
   27.4130  -21.1082   -6.7871 C   0  0  0  0  0  0  0  0  0  0  0  0
   26.9292  -19.8459   -6.4516 C   0  0  0  0  0  0  0  0  0  0  0  0
   27.1050  -18.7565   -7.2683 C   0  0  0  0  0  0  0  0  0  0  0  0
   27.7655  -18.8561   -8.4622 C   0  0  0  0  0  0  0  0  0  0  0  0
   26.6188  -20.1429  -11.1187 C   0  0  0  0  0  0  0  0  0  0  0  0
   26.2777  -18.9836  -11.5061 O   0  0  0  0  0  0  0  0  0  0  0  0
   23.2373  -21.4386  -14.2600 C   0  0  0  0  0  0  0  0  0  0  0  0
   24.0040  -20.7154  -13.1607 C   0  0  0  0  0  0  0  0  0  0  0  0
   23.4300  -21.1270  -11.8127 C   0  0  2  0  0  0  0  0  0  0  0  0
   21.9740  -20.6928  -11.7611 C   0  0  0  0  0  0  0  0  0  0  0  0
   24.1684  -20.5310  -10.6704 C   0  0  2  0  0  0  0  0  0  0  0  0
   25.5561  -20.9311  -10.5615 N   0  0  0  0  0  0  0  0  0  0  0  0
   23.4564  -20.8039   -9.3709 C   0  0  0  0  0  0  0  0  0  0  0  0
   23.8202  -21.8142   -8.7262 O   0  0  0  0  0  0  0  0  0  0  0  0
   22.4591  -20.0166   -8.8848 O   0  0  0  0  0  0  0  0  0  0  0  0
  2  3  1  6
  2  1  1  0
  4  2  1  0
  4  5  1  6
  6  7  2  0
  6  4  1  0
  8  6  1  0
  9  8  1  0
  9 10  1  1
 10 11  1  0
 11 12  2  0
 11 16  1  0
 12 13  1  0
 13 14  2  0
 15 14  1  0
 16 15  2  0
 17 18  2  0
 17  9  1  0
 20 19  1  0
 20 21  1  0
 21 23  1  0
 21 22  1  6
 23 24  1  1
 24 17  1  0
 25 23  1  0
 26 25  2  0
 27 25  1  0
M  END
$$$$
