VFI.pdb
     RDKit          3D

 27 27  0  0  1  0  0  0  0  0999 V2000
   20.9353  -20.0397  -18.0551 C   0  0  0  0  0  0  0  0  0  0  0  0
   21.1620  -18.6920  -18.6851 C   0  0  1  0  0  0  0  0  0  0  0  0
   19.8333  -18.0922  -19.0747 C   0  0  0  0  0  0  0  0  0  0  0  0
   21.9222  -17.8340  -17.6900 C   0  0  2  0  0  0  0  0  0  0  0  0
   22.1963  -16.5436  -18.2483 N   0  0  0  0  0  0  0  0  0  0  0  0
   23.1193  -18.5138  -17.1684 C   0  0  0  0  0  0  0  0  0  0  0  0
   24.0976  -18.6774  -17.9204 O   0  0  0  0  0  0  0  0  0  0  0  0
   23.1435  -18.9680  -15.8304 N   0  0  0  0  0  0  0  0  0  0  0  0
   24.2166  -19.6330  -15.1714 C   0  0  1  0  0  0  0  0  0  0  0  0
   24.5791  -19.1269  -13.8116 C   0  0  0  0  0  0  0  0  0  0  0  0
   25.7149  -19.8858  -13.2124 C   0  0  0  0  0  0  0  0  0  0  0  0
   25.5565  -20.9290  -12.3465 C   0  0  0  0  0  0  0  0  0  0  0  0
   26.6347  -21.6082  -11.7579 C   0  0  0  0  0  0  0  0  0  0  0  0
   27.8950  -21.1398  -12.1215 C   0  0  0  0  0  0  0  0  0  0  0  0
   28.0604  -20.0921  -12.9933 C   0  0  0  0  0  0  0  0  0  0  0  0
   26.9894  -19.4486  -13.5503 C   0  0  0  0  0  0  0  0  0  0  0  0
   24.1076  -21.0963  -15.2937 C   0  0  0  0  0  0  0  0  0  0  0  0
   23.1145  -21.7239  -14.8139 O   0  0  0  0  0  0  0  0  0  0  0  0
   24.3184  -24.0795  -19.6434 C   0  0  0  0  0  0  0  0  0  0  0  0
   23.9887  -23.5747  -18.2449 C   0  0  0  0  0  0  0  0  0  0  0  0
   25.1049  -23.9926  -17.2987 C   0  0  2  0  0  0  0  0  0  0  0  0
   25.0702  -25.5059  -17.1583 C   0  0  0  0  0  0  0  0  0  0  0  0
   24.9837  -23.3648  -15.9584 C   0  0  2  0  0  0  0  0  0  0  0  0
   25.0856  -21.9202  -15.9463 N   0  0  0  0  0  0  0  0  0  0  0  0
   25.9844  -23.9538  -14.9983 C   0  0  0  0  0  0  0  0  0  0  0  0
   27.1662  -23.5500  -15.0923 O   0  0  0  0  0  0  0  0  0  0  0  0
   25.6621  -24.8836  -14.0589 O   0  0  0  0  0  0  0  0  0  0  0  0
  2  3  1  1
  2  1  1  0
  4  2  1  0
  4  5  1  6
  6  7  2  0
  6  4  1  0
  8  6  1  0
  9  8  1  0
  9 10  1  1
 10 11  1  0
 11 12  2  0
 11 16  1  0
 12 13  1  0
 13 14  2  0
 15 14  1  0
 16 15  2  0
 17 18  2  0
 17  9  1  0
 20 19  1  0
 20 21  1  0
 21 23  1  0
 21 22  1  1
 23 24  1  6
 24 17  1  0
 25 23  1  0
 26 25  2  0
 27 25  1  0
M  END
$$$$
