VFI.pdb
     RDKit          3D

 27 27  0  0  1  0  0  0  0  0999 V2000
   26.5703  -19.8989  -16.4975 C   0  0  0  0  0  0  0  0  0  0  0  0
   27.4883  -21.0804  -16.6591 C   0  0  1  0  0  0  0  0  0  0  0  0
   28.5210  -20.7705  -17.7149 C   0  0  0  0  0  0  0  0  0  0  0  0
   28.1067  -21.3789  -15.3053 C   0  0  2  0  0  0  0  0  0  0  0  0
   28.9691  -22.5197  -15.3894 N   0  0  0  0  0  0  0  0  0  0  0  0
   27.0946  -21.4860  -14.2417 C   0  0  0  0  0  0  0  0  0  0  0  0
   26.4250  -22.5310  -14.1472 O   0  0  0  0  0  0  0  0  0  0  0  0
   26.8974  -20.4097  -13.3473 N   0  0  0  0  0  0  0  0  0  0  0  0
   25.9339  -20.3312  -12.3016 C   0  0  1  0  0  0  0  0  0  0  0  0
   26.2516  -19.4048  -11.1713 C   0  0  0  0  0  0  0  0  0  0  0  0
   27.0685  -20.0666  -10.1132 C   0  0  0  0  0  0  0  0  0  0  0  0
   28.1797  -20.8161  -10.3714 C   0  0  0  0  0  0  0  0  0  0  0  0
   28.9158  -21.4675   -9.3693 C   0  0  0  0  0  0  0  0  0  0  0  0
   28.4296  -21.2955   -8.0754 C   0  0  0  0  0  0  0  0  0  0  0  0
   27.3136  -20.5414   -7.8096 C   0  0  0  0  0  0  0  0  0  0  0  0
   26.6158  -19.9190   -8.8083 C   0  0  0  0  0  0  0  0  0  0  0  0
   24.5629  -20.2375  -12.8303 C   0  0  0  0  0  0  0  0  0  0  0  0
   24.2321  -19.3183  -13.6403 O   0  0  0  0  0  0  0  0  0  0  0  0
   22.2132  -23.3173  -16.0185 C   0  0  0  0  0  0  0  0  0  0  0  0
   22.6515  -22.1332  -15.1669 C   0  0  0  0  0  0  0  0  0  0  0  0
   21.7267  -22.0283  -13.9628 C   0  0  2  0  0  0  0  0  0  0  0  0
   20.3273  -21.7067  -14.4622 C   0  0  0  0  0  0  0  0  0  0  0  0
   22.1620  -20.9886  -12.9961 C   0  0  2  0  0  0  0  0  0  0  0  0
   23.5084  -21.1494  -12.4873 N   0  0  0  0  0  0  0  0  0  0  0  0
   21.1926  -20.8855  -11.8472 C   0  0  0  0  0  0  0  0  0  0  0  0
   21.4097  -21.6175  -10.8545 O   0  0  0  0  0  0  0  0  0  0  0  0
   20.1183  -20.0508  -11.8476 O   0  0  0  0  0  0  0  0  0  0  0  0
  2  3  1  6
  2  1  1  0
  4  2  1  0
  4  5  1  6
  6  7  2  0
  6  4  1  0
  8  6  1  0
  9  8  1  0
  9 10  1  6
 10 11  1  0
 11 12  2  0
 11 16  1  0
 12 13  1  0
 13 14  2  0
 15 14  1  0
 16 15  2  0
 17 18  2  0
 17  9  1  0
 20 19  1  0
 20 21  1  0
 21 23  1  0
 21 22  1  6
 23 24  1  1
 24 17  1  0
 25 23  1  0
 26 25  2  0
 27 25  1  0
M  END
$$$$
