VFI.pdb
     RDKit          3D

 27 27  0  0  1  0  0  0  0  0999 V2000
   23.9478  -19.8020  -13.8426 C   0  0  0  0  0  0  0  0  0  0  0  0
   24.1392  -20.2258  -12.4114 C   0  0  1  0  0  0  0  0  0  0  0  0
   23.0037  -21.1313  -12.0018 C   0  0  0  0  0  0  0  0  0  0  0  0
   25.4945  -20.9007  -12.3023 C   0  0  2  0  0  0  0  0  0  0  0  0
   25.5499  -22.0527  -13.1518 N   0  0  0  0  0  0  0  0  0  0  0  0
   25.8655  -21.1831  -10.9060 C   0  0  0  0  0  0  0  0  0  0  0  0
   25.5161  -22.2625  -10.3940 O   0  0  0  0  0  0  0  0  0  0  0  0
   26.6089  -20.2332  -10.1697 N   0  0  0  0  0  0  0  0  0  0  0  0
   26.9741  -20.3108   -8.7954 C   0  0  1  0  0  0  0  0  0  0  0  0
   28.1586  -19.5006   -8.3742 C   0  0  0  0  0  0  0  0  0  0  0  0
   28.4669  -19.6653   -6.9241 C   0  0  0  0  0  0  0  0  0  0  0  0
   29.0194  -20.7934   -6.3901 C   0  0  0  0  0  0  0  0  0  0  0  0
   29.2665  -20.9511   -5.0173 C   0  0  0  0  0  0  0  0  0  0  0  0
   28.9051  -19.8639   -4.2252 C   0  0  0  0  0  0  0  0  0  0  0  0
   28.3507  -18.7260   -4.7570 C   0  0  0  0  0  0  0  0  0  0  0  0
   28.1205  -18.6022   -6.0998 C   0  0  0  0  0  0  0  0  0  0  0  0
   25.7986  -20.2189   -7.9135 C   0  0  0  0  0  0  0  0  0  0  0  0
   24.9343  -19.3020   -8.0637 O   0  0  0  0  0  0  0  0  0  0  0  0
   21.4987  -22.6465   -7.6721 C   0  0  0  0  0  0  0  0  0  0  0  0
   22.5744  -21.5866   -7.4752 C   0  0  0  0  0  0  0  0  0  0  0  0
   23.2637  -21.8318   -6.1407 C   0  0  2  0  0  0  0  0  0  0  0  0
   22.2445  -21.6252   -5.0319 C   0  0  0  0  0  0  0  0  0  0  0  0
   24.4257  -20.9331   -5.9233 C   0  0  2  0  0  0  0  0  0  0  0  0
   25.5325  -21.1300   -6.8363 N   0  0  0  0  0  0  0  0  0  0  0  0
   24.9160  -21.0253   -4.5016 C   0  0  0  0  0  0  0  0  0  0  0  0
   25.9164  -21.7492   -4.2925 O   0  0  0  0  0  0  0  0  0  0  0  0
   24.3283  -20.3708   -3.4638 O   0  0  0  0  0  0  0  0  0  0  0  0
  2  3  1  6
  2  1  1  0
  4  2  1  0
  4  5  1  6
  6  7  2  0
  6  4  1  0
  8  6  1  0
  9  8  1  0
  9 10  1  1
 10 11  1  0
 11 12  2  0
 11 16  1  0
 12 13  1  0
 13 14  2  0
 15 14  1  0
 16 15  2  0
 17 18  2  0
 17  9  1  0
 20 19  1  0
 20 21  1  0
 21 23  1  0
 21 22  1  1
 23 24  1  6
 24 17  1  0
 25 23  1  0
 26 25  2  0
 27 25  1  0
M  END
$$$$
