VFI.pdb
     RDKit          3D

 27 27  0  0  1  0  0  0  0  0999 V2000
   26.9794  -23.3539  -16.6554 C   0  0  0  0  0  0  0  0  0  0  0  0
   27.7294  -22.7411  -17.8071 C   0  0  1  0  0  0  0  0  0  0  0  0
   27.6089  -23.6368  -19.0156 C   0  0  0  0  0  0  0  0  0  0  0  0
   27.1618  -21.3540  -18.0478 C   0  0  2  0  0  0  0  0  0  0  0  0
   27.8347  -20.7208  -19.1425 N   0  0  0  0  0  0  0  0  0  0  0  0
   27.1418  -20.5396  -16.8217 C   0  0  0  0  0  0  0  0  0  0  0  0
   28.2044  -20.0374  -16.4119 O   0  0  0  0  0  0  0  0  0  0  0  0
   25.9257  -20.3388  -16.1303 N   0  0  0  0  0  0  0  0  0  0  0  0
   25.7264  -19.5533  -14.9593 C   0  0  1  0  0  0  0  0  0  0  0  0
   25.0034  -18.2569  -15.1418 C   0  0  0  0  0  0  0  0  0  0  0  0
   25.8326  -17.2459  -15.8598 C   0  0  0  0  0  0  0  0  0  0  0  0
   25.7320  -16.9951  -17.1977 C   0  0  0  0  0  0  0  0  0  0  0  0
   26.5471  -16.0699  -17.8685 C   0  0  0  0  0  0  0  0  0  0  0  0
   27.4788  -15.4155  -17.0661 C   0  0  0  0  0  0  0  0  0  0  0  0
   27.5833  -15.6623  -15.7196 C   0  0  0  0  0  0  0  0  0  0  0  0
   26.7750  -16.5715  -15.0938 C   0  0  0  0  0  0  0  0  0  0  0  0
   25.2760  -20.3745  -13.8230 C   0  0  0  0  0  0  0  0  0  0  0  0
   24.4767  -21.3458  -13.9900 O   0  0  0  0  0  0  0  0  0  0  0  0
   25.8329  -21.1503   -7.6186 C   0  0  0  0  0  0  0  0  0  0  0  0
   25.1640  -21.5193   -8.9361 C   0  0  0  0  0  0  0  0  0  0  0  0
   25.7541  -20.6566  -10.0422 C   0  0  2  0  0  0  0  0  0  0  0  0
   25.5511  -19.1970   -9.6689 C   0  0  0  0  0  0  0  0  0  0  0  0
   25.1367  -20.9228  -11.3663 C   0  0  2  0  0  0  0  0  0  0  0  0
   25.6875  -20.1566  -12.4649 N   0  0  0  0  0  0  0  0  0  0  0  0
   23.6434  -20.7305  -11.3098 C   0  0  0  0  0  0  0  0  0  0  0  0
   23.2024  -19.6099  -11.6540 O   0  0  0  0  0  0  0  0  0  0  0  0
   22.7788  -21.7012  -10.9084 O   0  0  0  0  0  0  0  0  0  0  0  0
  2  3  1  6
  2  1  1  0
  4  2  1  0
  4  5  1  6
  6  7  2  0
  6  4  1  0
  8  6  1  0
  9  8  1  0
  9 10  1  6
 10 11  1  0
 11 12  2  0
 11 16  1  0
 12 13  1  0
 13 14  2  0
 15 14  1  0
 16 15  2  0
 17 18  2  0
 17  9  1  0
 20 19  1  0
 20 21  1  0
 21 23  1  0
 21 22  1  1
 23 24  1  6
 24 17  1  0
 25 23  1  0
 26 25  2  0
 27 25  1  0
M  END
$$$$
