VFI.pdb
     RDKit          3D

 27 27  0  0  1  0  0  0  0  0999 V2000
   23.9103  -19.7464  -11.6538 C   0  0  0  0  0  0  0  0  0  0  0  0
   24.3904  -20.9188  -12.4660 C   0  0  1  0  0  0  0  0  0  0  0  0
   24.1205  -20.6585  -13.9277 C   0  0  0  0  0  0  0  0  0  0  0  0
   25.8657  -21.1183  -12.1698 C   0  0  2  0  0  0  0  0  0  0  0  0
   26.4035  -22.1643  -12.9875 N   0  0  0  0  0  0  0  0  0  0  0  0
   26.1253  -21.3050  -10.7328 C   0  0  0  0  0  0  0  0  0  0  0  0
   25.7297  -22.3461  -10.1772 O   0  0  0  0  0  0  0  0  0  0  0  0
   26.8158  -20.3080  -10.0074 N   0  0  0  0  0  0  0  0  0  0  0  0
   27.1131  -20.3139   -8.6146 C   0  0  1  0  0  0  0  0  0  0  0  0
   28.2690  -19.4721   -8.1767 C   0  0  0  0  0  0  0  0  0  0  0  0
   28.4999  -19.5538   -6.7053 C   0  0  0  0  0  0  0  0  0  0  0  0
   29.1057  -20.6113   -6.0907 C   0  0  0  0  0  0  0  0  0  0  0  0
   29.2798  -20.6940   -4.7003 C   0  0  0  0  0  0  0  0  0  0  0  0
   28.7861  -19.6093   -3.9794 C   0  0  0  0  0  0  0  0  0  0  0  0
   28.1775  -18.5422   -4.5923 C   0  0  0  0  0  0  0  0  0  0  0  0
   28.0211  -18.4906   -5.9504 C   0  0  0  0  0  0  0  0  0  0  0  0
   25.8946  -20.1901   -7.7973 C   0  0  0  0  0  0  0  0  0  0  0  0
   25.0747  -19.2388   -7.9795 O   0  0  0  0  0  0  0  0  0  0  0  0
   20.8585  -22.5999   -6.1735 C   0  0  0  0  0  0  0  0  0  0  0  0
   21.9409  -21.6924   -5.6041 C   0  0  0  0  0  0  0  0  0  0  0  0
   23.2311  -21.9268   -6.3762 C   0  0  2  0  0  0  0  0  0  0  0  0
   23.6996  -23.3471   -6.1031 C   0  0  0  0  0  0  0  0  0  0  0  0
   24.3027  -20.9685   -6.0041 C   0  0  2  0  0  0  0  0  0  0  0  0
   25.5353  -21.1061   -6.7518 N   0  0  0  0  0  0  0  0  0  0  0  0
   24.5930  -21.0360   -4.5271 C   0  0  0  0  0  0  0  0  0  0  0  0
   23.6440  -20.7815   -3.7504 O   0  0  0  0  0  0  0  0  0  0  0  0
   25.8143  -21.3530   -4.0186 O   0  0  0  0  0  0  0  0  0  0  0  0
  2  3  1  6
  2  1  1  0
  4  2  1  0
  4  5  1  6
  6  7  2  0
  6  4  1  0
  8  6  1  0
  9  8  1  0
  9 10  1  6
 10 11  1  0
 11 12  2  0
 11 16  1  0
 12 13  1  0
 13 14  2  0
 15 14  1  0
 16 15  2  0
 17 18  2  0
 17  9  1  0
 20 19  1  0
 20 21  1  0
 21 23  1  0
 21 22  1  1
 23 24  1  6
 24 17  1  0
 25 23  1  0
 26 25  2  0
 27 25  1  0
M  END
$$$$
