VFI.pdb
     RDKit          3D

 27 27  0  0  1  0  0  0  0  0999 V2000
   27.7330  -19.6448  -19.0291 C   0  0  0  0  0  0  0  0  0  0  0  0
   26.8951  -19.9579  -17.8189 C   0  0  1  0  0  0  0  0  0  0  0  0
   25.4891  -20.2884  -18.2561 C   0  0  0  0  0  0  0  0  0  0  0  0
   27.5605  -21.1011  -17.0743 C   0  0  2  0  0  0  0  0  0  0  0  0
   27.7541  -22.2211  -17.9462 N   0  0  0  0  0  0  0  0  0  0  0  0
   26.8524  -21.4423  -15.8296 C   0  0  0  0  0  0  0  0  0  0  0  0
   25.9582  -22.3076  -15.8604 O   0  0  0  0  0  0  0  0  0  0  0  0
   27.1943  -20.7891  -14.6240 N   0  0  0  0  0  0  0  0  0  0  0  0
   26.5283  -20.9023  -13.3703 C   0  0  1  0  0  0  0  0  0  0  0  0
   27.3334  -20.5660  -12.1556 C   0  0  0  0  0  0  0  0  0  0  0  0
   26.5225  -20.6351  -10.9055 C   0  0  0  0  0  0  0  0  0  0  0  0
   26.2142  -21.8006  -10.2655 C   0  0  0  0  0  0  0  0  0  0  0  0
   25.4156  -21.8548   -9.1124 C   0  0  0  0  0  0  0  0  0  0  0  0
   24.9521  -20.6222   -8.6585 C   0  0  0  0  0  0  0  0  0  0  0  0
   25.2604  -19.4467   -9.2971 C   0  0  0  0  0  0  0  0  0  0  0  0
   26.0407  -19.4258  -10.4206 C   0  0  0  0  0  0  0  0  0  0  0  0
   25.1778  -20.3174  -13.4163 C   0  0  0  0  0  0  0  0  0  0  0  0
   24.9982  -19.1025  -13.7360 O   0  0  0  0  0  0  0  0  0  0  0  0
   21.7423  -20.4847  -16.8402 C   0  0  0  0  0  0  0  0  0  0  0  0
   22.5830  -20.1258  -15.6221 C   0  0  0  0  0  0  0  0  0  0  0  0
   21.8875  -20.6535  -14.3756 C   0  0  2  0  0  0  0  0  0  0  0  0
   20.5348  -19.9698  -14.2581 C   0  0  0  0  0  0  0  0  0  0  0  0
   22.6742  -20.4179  -13.1384 C   0  0  2  0  0  0  0  0  0  0  0  0
   23.9788  -21.0461  -13.1122 N   0  0  0  0  0  0  0  0  0  0  0  0
   21.8890  -20.8243  -11.9184 C   0  0  0  0  0  0  0  0  0  0  0  0
   21.8539  -22.0466  -11.6477 O   0  0  0  0  0  0  0  0  0  0  0  0
   21.2329  -19.9380  -11.1216 O   0  0  0  0  0  0  0  0  0  0  0  0
  2  3  1  6
  2  1  1  0
  4  2  1  0
  4  5  1  6
  6  7  2  0
  6  4  1  0
  8  6  1  0
  9  8  1  0
  9 10  1  1
 10 11  1  0
 11 12  2  0
 11 16  1  0
 12 13  1  0
 13 14  2  0
 15 14  1  0
 16 15  2  0
 17 18  2  0
 17  9  1  0
 20 19  1  0
 20 21  1  0
 21 23  1  0
 21 22  1  1
 23 24  1  6
 24 17  1  0
 25 23  1  0
 26 25  2  0
 27 25  1  0
M  END
$$$$
