VFI.pdb
     RDKit          3D

 27 27  0  0  1  0  0  0  0  0999 V2000
   24.3803  -18.2609  -19.8281 C   0  0  0  0  0  0  0  0  0  0  0  0
   24.7625  -18.7571  -18.4598 C   0  0  1  0  0  0  0  0  0  0  0  0
   26.0005  -19.6134  -18.5662 C   0  0  0  0  0  0  0  0  0  0  0  0
   24.9626  -17.5477  -17.5644 C   0  0  2  0  0  0  0  0  0  0  0  0
   25.8205  -16.5918  -18.1985 N   0  0  0  0  0  0  0  0  0  0  0  0
   25.4024  -17.9234  -16.2107 C   0  0  0  0  0  0  0  0  0  0  0  0
   26.6207  -17.9565  -15.9582 O   0  0  0  0  0  0  0  0  0  0  0  0
   24.4434  -18.2385  -15.2216 N   0  0  0  0  0  0  0  0  0  0  0  0
   24.6984  -18.6500  -13.8823 C   0  0  1  0  0  0  0  0  0  0  0  0
   23.6145  -18.3854  -12.8864 C   0  0  0  0  0  0  0  0  0  0  0  0
   23.9796  -18.8549  -11.5185 C   0  0  0  0  0  0  0  0  0  0  0  0
   23.4936  -19.9992  -10.9550 C   0  0  0  0  0  0  0  0  0  0  0  0
   23.8134  -20.4083   -9.6509 C   0  0  0  0  0  0  0  0  0  0  0  0
   24.6721  -19.5563   -8.9603 C   0  0  0  0  0  0  0  0  0  0  0  0
   25.1654  -18.4050   -9.5225 C   0  0  0  0  0  0  0  0  0  0  0  0
   24.8344  -18.0318  -10.7964 C   0  0  0  0  0  0  0  0  0  0  0  0
   25.2910  -19.9969  -13.8299 C   0  0  0  0  0  0  0  0  0  0  0  0
   24.8063  -20.9550  -14.5062 O   0  0  0  0  0  0  0  0  0  0  0  0
   30.6013  -21.2891  -11.7926 C   0  0  0  0  0  0  0  0  0  0  0  0
   29.0862  -21.1402  -11.7493 C   0  0  0  0  0  0  0  0  0  0  0  0
   28.5034  -21.6968  -13.0402 C   0  0  2  0  0  0  0  0  0  0  0  0
   29.0470  -20.8792  -14.2009 C   0  0  0  0  0  0  0  0  0  0  0  0
   27.0189  -21.6629  -13.0590 C   0  0  2  0  0  0  0  0  0  0  0  0
   26.4353  -20.3377  -13.0327 N   0  0  0  0  0  0  0  0  0  0  0  0
   26.4496  -22.4922  -11.9372 C   0  0  0  0  0  0  0  0  0  0  0  0
   25.8941  -21.8740  -11.0004 O   0  0  0  0  0  0  0  0  0  0  0  0
   26.5156  -23.8506  -11.9033 O   0  0  0  0  0  0  0  0  0  0  0  0
  2  3  1  6
  2  1  1  0
  4  2  1  0
  4  5  1  6
  6  7  2  0
  6  4  1  0
  8  6  1  0
  9  8  1  0
  9 10  1  1
 10 11  1  0
 11 12  2  0
 11 16  1  0
 12 13  1  0
 13 14  2  0
 15 14  1  0
 16 15  2  0
 17 18  2  0
 17  9  1  0
 20 19  1  0
 20 21  1  0
 21 23  1  0
 21 22  1  6
 23 24  1  1
 24 17  1  0
 25 23  1  0
 26 25  2  0
 27 25  1  0
M  END
$$$$
