GVV.pdb
     RDKit          3D

 19 18  0  0  1  0  0  0  0  0999 V2000
    6.7204  -18.7653   18.4861 N   0  0  0  0  0  0  0  0  0  0  0  0
    6.0495  -17.8857   19.4176 C   0  0  0  0  0  0  0  0  0  0  0  0
    7.0592  -16.9624   20.0746 C   0  0  0  0  0  0  0  0  0  0  0  0
    8.0926  -17.5035   20.4643 O   0  0  0  0  0  0  0  0  0  0  0  0
    7.2869  -13.0024   19.1158 C   0  0  0  0  0  0  0  0  0  0  0  0
    7.2745  -13.1703   20.6024 C   0  0  2  0  0  0  0  0  0  0  0  0
    8.3578  -12.3348   21.2005 C   0  0  0  0  0  0  0  0  0  0  0  0
    7.4643  -14.6140   20.9656 C   0  0  2  0  0  0  0  0  0  0  0  0
    6.7825  -15.5921   20.2033 N   0  0  0  0  0  0  0  0  0  0  0  0
    7.5289  -14.8920   22.4091 C   0  0  0  0  0  0  0  0  0  0  0  0
    6.5980  -14.6274   23.2307 O   0  0  0  0  0  0  0  0  0  0  0  0
    8.3674  -17.4655   26.1830 C   0  0  0  0  0  0  0  0  0  0  0  0
    8.1548  -17.0882   24.7500 C   0  0  1  0  0  0  0  0  0  0  0  0
    6.6708  -16.9820   24.4792 C   0  0  0  0  0  0  0  0  0  0  0  0
    8.7983  -15.7630   24.4010 C   0  0  2  0  0  0  0  0  0  0  0  0
    8.6774  -15.4936   22.9779 N   0  0  0  0  0  0  0  0  0  0  0  0
   10.2137  -15.7952   24.8288 C   0  0  0  0  0  0  0  0  0  0  0  0
   11.2179  -15.7831   23.8973 O   0  0  0  0  0  0  0  0  0  0  0  0
   10.4991  -15.8337   26.0467 O   0  0  0  0  0  0  0  0  0  0  0  0
  1  2  1  0
  3  2  1  0
  3  4  2  0
  6  5  1  6
  6  8  1  0
  7  6  1  0
  8  9  1  1
  9  3  1  0
 10  8  1  0
 11 10  2  0
 13 12  1  1
 13 14  1  0
 15 16  1  6
 15 13  1  0
 16 10  1  0
 17 15  1  0
 18 17  1  0
 19 17  2  0
M  END
$$$$
