GVV.pdb
     RDKit          3D

 19 18  0  0  1  0  0  0  0  0999 V2000
    7.8235  -19.5020   21.1126 N   0  0  0  0  0  0  0  0  0  0  0  0
    6.9154  -18.5070   21.6388 C   0  0  0  0  0  0  0  0  0  0  0  0
    7.7019  -17.3685   22.2624 C   0  0  0  0  0  0  0  0  0  0  0  0
    8.7799  -17.6849   22.7629 O   0  0  0  0  0  0  0  0  0  0  0  0
    7.6961  -13.6685   20.6916 C   0  0  0  0  0  0  0  0  0  0  0  0
    7.4371  -13.5726   22.1619 C   0  0  2  0  0  0  0  0  0  0  0  0
    8.2966  -12.4992   22.7435 C   0  0  0  0  0  0  0  0  0  0  0  0
    7.7181  -14.8880   22.8277 C   0  0  2  0  0  0  0  0  0  0  0  0
    7.1881  -16.0622   22.2421 N   0  0  0  0  0  0  0  0  0  0  0  0
    7.6851  -14.8637   24.2985 C   0  0  0  0  0  0  0  0  0  0  0  0
    6.6205  -14.8580   24.9900 O   0  0  0  0  0  0  0  0  0  0  0  0
   10.6038  -16.6796   26.5296 C   0  0  0  0  0  0  0  0  0  0  0  0
   10.2485  -15.3102   27.0187 C   0  0  1  0  0  0  0  0  0  0  0  0
   11.3025  -14.3289   26.5571 C   0  0  0  0  0  0  0  0  0  0  0  0
    8.9046  -14.8436   26.5009 C   0  0  2  0  0  0  0  0  0  0  0  0
    8.8864  -14.8457   25.0475 N   0  0  0  0  0  0  0  0  0  0  0  0
    8.6277  -13.4965   27.0448 C   0  0  0  0  0  0  0  0  0  0  0  0
    8.7134  -12.3935   26.2371 O   0  0  0  0  0  0  0  0  0  0  0  0
    8.3134  -13.3596   28.2485 O   0  0  0  0  0  0  0  0  0  0  0  0
  1  2  1  0
  3  2  1  0
  3  4  2  0
  6  5  1  6
  6  8  1  0
  7  6  1  0
  8  9  1  6
  9  3  1  0
 10  8  1  0
 11 10  2  0
 13 12  1  6
 13 14  1  0
 15 16  1  6
 15 13  1  0
 16 10  1  0
 17 15  1  0
 18 17  1  0
 19 17  2  0
M  END
$$$$
