GVV.pdb
     RDKit          3D

 19 18  0  0  1  0  0  0  0  0999 V2000
    8.4274  -15.8181   20.9254 N   0  0  0  0  0  0  0  0  0  0  0  0
    7.4871  -15.7807   22.0235 C   0  0  0  0  0  0  0  0  0  0  0  0
    8.1244  -15.1093   23.2263 C   0  0  0  0  0  0  0  0  0  0  0  0
    9.3526  -15.0491   23.2068 O   0  0  0  0  0  0  0  0  0  0  0  0
    6.6034  -11.9415   25.2505 C   0  0  0  0  0  0  0  0  0  0  0  0
    6.8465  -13.0813   26.1886 C   0  0  2  0  0  0  0  0  0  0  0  0
    7.5011  -12.5668   27.4280 C   0  0  0  0  0  0  0  0  0  0  0  0
    7.7078  -14.1211   25.5334 C   0  0  2  0  0  0  0  0  0  0  0  0
    7.3205  -14.6084   24.2625 N   0  0  0  0  0  0  0  0  0  0  0  0
    8.2592  -15.1388   26.4419 C   0  0  0  0  0  0  0  0  0  0  0  0
    7.5713  -16.0494   26.9979 O   0  0  0  0  0  0  0  0  0  0  0  0
   11.4281  -17.2765   25.7561 C   0  0  0  0  0  0  0  0  0  0  0  0
   11.5618  -16.6211   27.0953 C   0  0  1  0  0  0  0  0  0  0  0  0
   12.4810  -15.4264   26.9742 C   0  0  0  0  0  0  0  0  0  0  0  0
   10.2318  -16.1449   27.6397 C   0  0  2  0  0  0  0  0  0  0  0  0
    9.6401  -15.1558   26.7541 N   0  0  0  0  0  0  0  0  0  0  0  0
   10.4425  -15.5996   28.9982 C   0  0  0  0  0  0  0  0  0  0  0  0
   10.3260  -14.2545   29.2292 O   0  0  0  0  0  0  0  0  0  0  0  0
   10.7288  -16.3678   29.9438 O   0  0  0  0  0  0  0  0  0  0  0  0
  1  2  1  0
  3  2  1  0
  3  4  2  0
  6  5  1  6
  6  8  1  0
  7  6  1  0
  8  9  1  6
  9  3  1  0
 10  8  1  0
 11 10  2  0
 13 12  1  6
 13 14  1  0
 15 16  1  6
 15 13  1  0
 16 10  1  0
 17 15  1  0
 18 17  1  0
 19 17  2  0
M  END
$$$$
