GVV.pdb
     RDKit          3D

 19 18  0  0  1  0  0  0  0  0999 V2000
    9.1771  -17.9425   16.5074 N   0  0  0  0  0  0  0  0  0  0  0  0
    8.1183  -17.3134   17.2655 C   0  0  0  0  0  0  0  0  0  0  0  0
    8.7099  -16.5053   18.4059 C   0  0  0  0  0  0  0  0  0  0  0  0
    9.9110  -16.6778   18.6064 O   0  0  0  0  0  0  0  0  0  0  0  0
    7.4062  -12.7713   19.3851 C   0  0  0  0  0  0  0  0  0  0  0  0
    7.4396  -13.6457   20.5986 C   0  0  2  0  0  0  0  0  0  0  0  0
    8.0589  -12.8933   21.7298 C   0  0  0  0  0  0  0  0  0  0  0  0
    8.2141  -14.8998   20.3163 C   0  0  2  0  0  0  0  0  0  0  0  0
    7.8972  -15.6349   19.1493 N   0  0  0  0  0  0  0  0  0  0  0  0
    8.5253  -15.7212   21.4968 C   0  0  0  0  0  0  0  0  0  0  0  0
    7.6883  -16.4718   22.0866 O   0  0  0  0  0  0  0  0  0  0  0  0
   12.1657  -17.6070   24.3375 C   0  0  0  0  0  0  0  0  0  0  0  0
   11.7143  -16.6008   23.3251 C   0  0  1  0  0  0  0  0  0  0  0  0
   12.3442  -16.9237   21.9888 C   0  0  0  0  0  0  0  0  0  0  0  0
   10.2103  -16.5914   23.1525 C   0  0  2  0  0  0  0  0  0  0  0  0
    9.8256  -15.7173   22.0568 N   0  0  0  0  0  0  0  0  0  0  0  0
    9.5887  -16.1699   24.4266 C   0  0  0  0  0  0  0  0  0  0  0  0
    9.0676  -17.1028   25.2836 O   0  0  0  0  0  0  0  0  0  0  0  0
    9.5367  -14.9560   24.7265 O   0  0  0  0  0  0  0  0  0  0  0  0
  1  2  1  0
  3  2  1  0
  3  4  2  0
  6  5  1  6
  6  8  1  0
  7  6  1  0
  8  9  1  6
  9  3  1  0
 10  8  1  0
 11 10  2  0
 13 12  1  1
 13 14  1  0
 15 16  1  6
 15 13  1  0
 16 10  1  0
 17 15  1  0
 18 17  1  0
 19 17  2  0
M  END
$$$$
