GVV.pdb
     RDKit          3D

 19 18  0  0  1  0  0  0  0  0999 V2000
    6.8042  -14.2114   20.2221 N   0  0  0  0  0  0  0  0  0  0  0  0
    6.1478  -14.4762   21.4833 C   0  0  0  0  0  0  0  0  0  0  0  0
    7.1192  -14.2528   22.6279 C   0  0  0  0  0  0  0  0  0  0  0  0
    8.3103  -14.3219   22.3292 O   0  0  0  0  0  0  0  0  0  0  0  0
    6.4964  -11.6635   25.6477 C   0  0  0  0  0  0  0  0  0  0  0  0
    6.8299  -13.0072   26.2147 C   0  0  2  0  0  0  0  0  0  0  0  0
    7.8429  -12.8453   27.2995 C   0  0  0  0  0  0  0  0  0  0  0  0
    7.3541  -13.9119   25.1381 C   0  0  2  0  0  0  0  0  0  0  0  0
    6.6380  -13.9889   23.9200 N   0  0  0  0  0  0  0  0  0  0  0  0
    7.9059  -15.1914   25.6108 C   0  0  0  0  0  0  0  0  0  0  0  0
    7.2074  -16.1411   26.0818 O   0  0  0  0  0  0  0  0  0  0  0  0
   11.7615  -18.2983   25.3820 C   0  0  0  0  0  0  0  0  0  0  0  0
   11.1040  -16.9972   25.0414 C   0  0  1  0  0  0  0  0  0  0  0  0
   10.6828  -17.0187   23.5892 C   0  0  0  0  0  0  0  0  0  0  0  0
    9.8777  -16.7316   25.8886 C   0  0  2  0  0  0  0  0  0  0  0  0
    9.2990  -15.4391   25.5617 N   0  0  0  0  0  0  0  0  0  0  0  0
   10.2603  -16.8095   27.3152 C   0  0  0  0  0  0  0  0  0  0  0  0
   10.1202  -17.9843   28.0055 O   0  0  0  0  0  0  0  0  0  0  0  0
   10.7146  -15.7993   27.8977 O   0  0  0  0  0  0  0  0  0  0  0  0
  1  2  1  0
  3  2  1  0
  3  4  2  0
  6  5  1  6
  6  8  1  0
  7  6  1  0
  8  9  1  6
  9  3  1  0
 10  8  1  0
 11 10  2  0
 13 12  1  1
 13 14  1  0
 15 16  1  6
 15 13  1  0
 16 10  1  0
 17 15  1  0
 18 17  1  0
 19 17  2  0
M  END
$$$$
