GVV.pdb
     RDKit          3D

 19 18  0  0  1  0  0  0  0  0999 V2000
    5.1673  -17.6056   22.5256 N   0  0  0  0  0  0  0  0  0  0  0  0
    5.0791  -17.1121   23.8822 C   0  0  0  0  0  0  0  0  0  0  0  0
    6.2406  -16.1778   24.1682 C   0  0  0  0  0  0  0  0  0  0  0  0
    7.1909  -16.2657   23.3924 O   0  0  0  0  0  0  0  0  0  0  0  0
    6.0464  -12.4486   25.8367 C   0  0  0  0  0  0  0  0  0  0  0  0
    6.9054  -13.3527   26.6632 C   0  0  2  0  0  0  0  0  0  0  0  0
    8.1534  -12.6289   27.0476 C   0  0  0  0  0  0  0  0  0  0  0  0
    7.2370  -14.6002   25.8977 C   0  0  2  0  0  0  0  0  0  0  0  0
    6.1828  -15.2935   25.2570 N   0  0  0  0  0  0  0  0  0  0  0  0
    8.2542  -15.4629   26.5190 C   0  0  0  0  0  0  0  0  0  0  0  0
    8.0235  -16.2671   27.4738 O   0  0  0  0  0  0  0  0  0  0  0  0
   12.8030  -17.4300   25.9136 C   0  0  0  0  0  0  0  0  0  0  0  0
   11.7756  -16.4054   25.5453 C   0  0  1  0  0  0  0  0  0  0  0  0
   11.2951  -16.6680   24.1358 C   0  0  0  0  0  0  0  0  0  0  0  0
   10.5769  -16.4327   26.4696 C   0  0  2  0  0  0  0  0  0  0  0  0
    9.5951  -15.4402   26.0651 N   0  0  0  0  0  0  0  0  0  0  0  0
   11.0404  -16.2039   27.8553 C   0  0  0  0  0  0  0  0  0  0  0  0
   11.3003  -17.2650   28.6816 O   0  0  0  0  0  0  0  0  0  0  0  0
   11.1971  -15.0365   28.2785 O   0  0  0  0  0  0  0  0  0  0  0  0
  1  2  1  0
  3  2  1  0
  3  4  2  0
  6  5  1  6
  6  8  1  0
  7  6  1  0
  8  9  1  1
  9  3  1  0
 10  8  1  0
 11 10  2  0
 13 12  1  1
 13 14  1  0
 15 16  1  6
 15 13  1  0
 16 10  1  0
 17 15  1  0
 18 17  1  0
 19 17  2  0
M  END
$$$$
