GVV.pdb
     RDKit          3D

 19 18  0  0  1  0  0  0  0  0999 V2000
    8.6987  -15.2242   20.4219 N   0  0  0  0  0  0  0  0  0  0  0  0
    7.6858  -15.3369   21.4480 C   0  0  0  0  0  0  0  0  0  0  0  0
    8.2131  -14.7794   22.7575 C   0  0  0  0  0  0  0  0  0  0  0  0
    9.4273  -14.5871   22.7974 O   0  0  0  0  0  0  0  0  0  0  0  0
    6.0911  -12.1811   25.1184 C   0  0  0  0  0  0  0  0  0  0  0  0
    6.5690  -13.3617   25.9034 C   0  0  2  0  0  0  0  0  0  0  0  0
    7.1046  -12.8947   27.2165 C   0  0  0  0  0  0  0  0  0  0  0  0
    7.6268  -14.1025   25.1388 C   0  0  2  0  0  0  0  0  0  0  0  0
    7.3320  -14.5189   23.8188 N   0  0  0  0  0  0  0  0  0  0  0  0
    8.4097  -15.0660   25.9287 C   0  0  0  0  0  0  0  0  0  0  0  0
    8.2591  -16.3254   25.8742 O   0  0  0  0  0  0  0  0  0  0  0  0
   10.5347  -14.0372   29.4465 C   0  0  0  0  0  0  0  0  0  0  0  0
   11.2879  -14.7666   28.3781 C   0  0  1  0  0  0  0  0  0  0  0  0
   12.2297  -15.7585   29.0232 C   0  0  0  0  0  0  0  0  0  0  0  0
   10.3711  -15.5220   27.4395 C   0  0  2  0  0  0  0  0  0  0  0  0
    9.4112  -14.6203   26.8248 N   0  0  0  0  0  0  0  0  0  0  0  0
    9.6964  -16.5974   28.1982 C   0  0  0  0  0  0  0  0  0  0  0  0
   10.2971  -17.8192   28.3485 O   0  0  0  0  0  0  0  0  0  0  0  0
    8.5711  -16.3938   28.7067 O   0  0  0  0  0  0  0  0  0  0  0  0
  1  2  1  0
  3  2  1  0
  3  4  2  0
  6  5  1  6
  6  8  1  0
  7  6  1  0
  8  9  1  6
  9  3  1  0
 10  8  1  0
 11 10  2  0
 13 12  1  1
 13 14  1  0
 15 16  1  1
 15 13  1  0
 16 10  1  0
 17 15  1  0
 18 17  1  0
 19 17  2  0
M  END
$$$$
