GVV.pdb
     RDKit          3D

 19 18  0  0  1  0  0  0  0  0999 V2000
    8.3549  -15.2679   20.6853 N   0  0  0  0  0  0  0  0  0  0  0  0
    7.4164  -15.4008   21.7776 C   0  0  0  0  0  0  0  0  0  0  0  0
    8.0528  -14.9152   23.0671 C   0  0  0  0  0  0  0  0  0  0  0  0
    9.2820  -14.8751   23.0656 O   0  0  0  0  0  0  0  0  0  0  0  0
    6.3298  -12.1181   25.4869 C   0  0  0  0  0  0  0  0  0  0  0  0
    6.7174  -13.3279   26.2769 C   0  0  2  0  0  0  0  0  0  0  0  0
    7.3834  -12.8966   27.5416 C   0  0  0  0  0  0  0  0  0  0  0  0
    7.6340  -14.2036   25.4736 C   0  0  2  0  0  0  0  0  0  0  0  0
    7.2471  -14.5493   24.1569 N   0  0  0  0  0  0  0  0  0  0  0  0
    8.2857  -15.2853   26.2287 C   0  0  0  0  0  0  0  0  0  0  0  0
    7.7001  -16.3455   26.6090 O   0  0  0  0  0  0  0  0  0  0  0  0
   12.2682  -16.1582   25.7024 C   0  0  0  0  0  0  0  0  0  0  0  0
   11.8462  -16.1131   27.1380 C   0  0  1  0  0  0  0  0  0  0  0  0
   12.2713  -14.7924   27.7394 C   0  0  0  0  0  0  0  0  0  0  0  0
   10.3476  -16.2507   27.3031 C   0  0  2  0  0  0  0  0  0  0  0  0
    9.6536  -15.1961   26.5828 N   0  0  0  0  0  0  0  0  0  0  0  0
   10.0245  -16.2254   28.7461 C   0  0  0  0  0  0  0  0  0  0  0  0
   10.2105  -17.3429   29.5161 O   0  0  0  0  0  0  0  0  0  0  0  0
    9.5789  -15.1797   29.2698 O   0  0  0  0  0  0  0  0  0  0  0  0
  1  2  1  0
  3  2  1  0
  3  4  2  0
  6  5  1  6
  6  8  1  0
  7  6  1  0
  8  9  1  6
  9  3  1  0
 10  8  1  0
 11 10  2  0
 13 12  1  6
 13 14  1  0
 15 16  1  6
 15 13  1  0
 16 10  1  0
 17 15  1  0
 18 17  1  0
 19 17  2  0
M  END
$$$$
