GVV.pdb
     RDKit          3D

 19 18  0  0  1  0  0  0  0  0999 V2000
    6.9684  -15.5675   20.9195 N   0  0  0  0  0  0  0  0  0  0  0  0
    6.3543  -15.2964   22.2005 C   0  0  0  0  0  0  0  0  0  0  0  0
    7.3968  -14.7758   23.1730 C   0  0  0  0  0  0  0  0  0  0  0  0
    8.5664  -14.9574   22.8388 O   0  0  0  0  0  0  0  0  0  0  0  0
    6.0759  -12.6560   26.8634 C   0  0  0  0  0  0  0  0  0  0  0  0
    7.3667  -12.4224   26.1441 C   0  0  2  0  0  0  0  0  0  0  0  0
    7.1939  -11.2986   25.1764 C   0  0  0  0  0  0  0  0  0  0  0  0
    7.7978  -13.6692   25.4286 C   0  0  2  0  0  0  0  0  0  0  0  0
    6.9990  -14.1382   24.3588 N   0  0  0  0  0  0  0  0  0  0  0  0
    8.3545  -14.7237   26.2906 C   0  0  0  0  0  0  0  0  0  0  0  0
    7.6626  -15.6284   26.8515 O   0  0  0  0  0  0  0  0  0  0  0  0
   12.4206  -17.2620   27.5424 C   0  0  0  0  0  0  0  0  0  0  0  0
   11.7610  -16.1383   26.8053 C   0  0  1  0  0  0  0  0  0  0  0  0
   11.6899  -16.4830   25.3346 C   0  0  0  0  0  0  0  0  0  0  0  0
   10.3554  -15.8707   27.2999 C   0  0  2  0  0  0  0  0  0  0  0  0
    9.7452  -14.7866   26.5481 N   0  0  0  0  0  0  0  0  0  0  0  0
   10.4111  -15.5640   28.7456 C   0  0  0  0  0  0  0  0  0  0  0  0
   10.4617  -16.5773   29.6659 O   0  0  0  0  0  0  0  0  0  0  0  0
   10.4121  -14.3742   29.1338 O   0  0  0  0  0  0  0  0  0  0  0  0
  1  2  1  0
  3  2  1  0
  3  4  2  0
  6  5  1  6
  6  8  1  0
  7  6  1  0
  8  9  1  1
  9  3  1  0
 10  8  1  0
 11 10  2  0
 13 12  1  1
 13 14  1  0
 15 16  1  6
 15 13  1  0
 16 10  1  0
 17 15  1  0
 18 17  1  0
 19 17  2  0
M  END
$$$$
