GVV.pdb
     RDKit          3D

 19 18  0  0  1  0  0  0  0  0999 V2000
   12.4024  -17.8955   20.2462 N   0  0  0  0  0  0  0  0  0  0  0  0
   11.0235  -17.9565   20.6778 C   0  0  0  0  0  0  0  0  0  0  0  0
   10.5767  -16.5931   21.1731 C   0  0  0  0  0  0  0  0  0  0  0  0
   11.4820  -15.7917   21.3984 O   0  0  0  0  0  0  0  0  0  0  0  0
    7.0663  -13.2518   21.7761 C   0  0  0  0  0  0  0  0  0  0  0  0
    7.3989  -14.5960   21.2099 C   0  0  2  0  0  0  0  0  0  0  0  0
    6.2205  -15.4998   21.3643 C   0  0  0  0  0  0  0  0  0  0  0  0
    8.5971  -15.1728   21.9056 C   0  0  2  0  0  0  0  0  0  0  0  0
    9.2109  -16.3180   21.3449 N   0  0  0  0  0  0  0  0  0  0  0  0
    8.5292  -15.1670   23.3754 C   0  0  0  0  0  0  0  0  0  0  0  0
    8.8206  -16.1615   24.1088 O   0  0  0  0  0  0  0  0  0  0  0  0
    5.9038  -12.8127   25.7520 C   0  0  0  0  0  0  0  0  0  0  0  0
    7.3763  -12.6956   25.9948 C   0  0  1  0  0  0  0  0  0  0  0  0
    7.6232  -12.5220   27.4765 C   0  0  0  0  0  0  0  0  0  0  0  0
    8.1370  -13.9176   25.5255 C   0  0  2  0  0  0  0  0  0  0  0  0
    8.1203  -14.0059   24.0748 N   0  0  0  0  0  0  0  0  0  0  0  0
    7.5386  -15.1178   26.1490 C   0  0  0  0  0  0  0  0  0  0  0  0
    8.1090  -15.6761   27.2621 O   0  0  0  0  0  0  0  0  0  0  0  0
    6.5060  -15.6287   25.6599 O   0  0  0  0  0  0  0  0  0  0  0  0
  1  2  1  0
  3  2  1  0
  3  4  2  0
  6  5  1  1
  6  8  1  0
  7  6  1  0
  8  9  1  6
  9  3  1  0
 10  8  1  0
 11 10  2  0
 13 12  1  1
 13 14  1  0
 15 16  1  6
 15 13  1  0
 16 10  1  0
 17 15  1  0
 18 17  1  0
 19 17  2  0
M  END
$$$$
