GVV.pdb
     RDKit          3D

 19 18  0  0  1  0  0  0  0  0999 V2000
    8.2189  -12.6931   18.2589 N   0  0  0  0  0  0  0  0  0  0  0  0
    9.0153  -13.4274   19.2172 C   0  0  0  0  0  0  0  0  0  0  0  0
    8.1921  -13.7160   20.4593 C   0  0  0  0  0  0  0  0  0  0  0  0
    7.2466  -12.9538   20.6537 O   0  0  0  0  0  0  0  0  0  0  0  0
    6.5453  -16.9124   21.1294 C   0  0  0  0  0  0  0  0  0  0  0  0
    7.3151  -16.6860   22.3921 C   0  0  2  0  0  0  0  0  0  0  0  0
    6.4246  -16.9406   23.5632 C   0  0  0  0  0  0  0  0  0  0  0  0
    7.8481  -15.2837   22.4334 C   0  0  2  0  0  0  0  0  0  0  0  0
    8.5301  -14.7921   21.2951 N   0  0  0  0  0  0  0  0  0  0  0  0
    8.4246  -14.8719   23.7230 C   0  0  0  0  0  0  0  0  0  0  0  0
    9.6121  -15.1299   24.0906 O   0  0  0  0  0  0  0  0  0  0  0  0
    7.3925  -11.3607   25.7345 C   0  0  0  0  0  0  0  0  0  0  0  0
    7.3246  -12.6206   26.5402 C   0  0  1  0  0  0  0  0  0  0  0  0
    5.8909  -13.0982   26.5955 C   0  0  0  0  0  0  0  0  0  0  0  0
    8.1727  -13.7279   25.9514 C   0  0  2  0  0  0  0  0  0  0  0  0
    7.6545  -14.1370   24.6565 N   0  0  0  0  0  0  0  0  0  0  0  0
    8.2057  -14.8585   26.9043 C   0  0  0  0  0  0  0  0  0  0  0  0
    9.0969  -14.8604   27.9445 O   0  0  0  0  0  0  0  0  0  0  0  0
    7.4170  -15.8199   26.7628 O   0  0  0  0  0  0  0  0  0  0  0  0
  1  2  1  0
  3  2  1  0
  3  4  2  0
  6  5  1  6
  6  8  1  0
  7  6  1  0
  8  9  1  6
  9  3  1  0
 10  8  1  0
 11 10  2  0
 13 12  1  6
 13 14  1  0
 15 16  1  6
 15 13  1  0
 16 10  1  0
 17 15  1  0
 18 17  1  0
 19 17  2  0
M  END
$$$$
