GVV.pdb
     RDKit          3D

 19 18  0  0  1  0  0  0  0  0999 V2000
   12.5368  -16.6798   20.0944 N   0  0  0  0  0  0  0  0  0  0  0  0
   11.2989  -17.1609   20.6670 C   0  0  0  0  0  0  0  0  0  0  0  0
   10.8707  -16.2547   21.8067 C   0  0  0  0  0  0  0  0  0  0  0  0
   11.7644  -15.5668   22.2973 O   0  0  0  0  0  0  0  0  0  0  0  0
    7.3955  -14.2917   21.8320 C   0  0  0  0  0  0  0  0  0  0  0  0
    7.5378  -15.0238   23.1289 C   0  0  2  0  0  0  0  0  0  0  0  0
    7.1670  -14.1119   24.2515 C   0  0  0  0  0  0  0  0  0  0  0  0
    8.9450  -15.5177   23.2971 C   0  0  2  0  0  0  0  0  0  0  0  0
    9.5331  -16.2412   22.2326 N   0  0  0  0  0  0  0  0  0  0  0  0
    9.2747  -16.0201   24.6403 C   0  0  0  0  0  0  0  0  0  0  0  0
    9.3602  -17.2501   24.9427 O   0  0  0  0  0  0  0  0  0  0  0  0
   10.9950  -13.3651   27.5555 C   0  0  0  0  0  0  0  0  0  0  0  0
   10.0022  -14.3989   27.9874 C   0  0  1  0  0  0  0  0  0  0  0  0
    8.6306  -13.7673   28.0678 C   0  0  0  0  0  0  0  0  0  0  0  0
    9.9324  -15.5678   27.0278 C   0  0  2  0  0  0  0  0  0  0  0  0
    9.5242  -15.1221   25.7059 N   0  0  0  0  0  0  0  0  0  0  0  0
    8.9970  -16.5749   27.5736 C   0  0  0  0  0  0  0  0  0  0  0  0
    9.4202  -17.4711   28.5191 O   0  0  0  0  0  0  0  0  0  0  0  0
    7.8122  -16.6117   27.1720 O   0  0  0  0  0  0  0  0  0  0  0  0
  1  2  1  0
  3  2  1  0
  3  4  2  0
  6  5  1  6
  6  8  1  0
  7  6  1  0
  8  9  1  6
  9  3  1  0
 10  8  1  0
 11 10  2  0
 13 12  1  6
 13 14  1  0
 15 16  1  6
 15 13  1  0
 16 10  1  0
 17 15  1  0
 18 17  1  0
 19 17  2  0
M  END
$$$$
