GVV.pdb
     RDKit          3D

 19 18  0  0  1  0  0  0  0  0999 V2000
   11.9755  -16.9748   19.8452 N   0  0  0  0  0  0  0  0  0  0  0  0
   11.0871  -17.5579   20.8262 C   0  0  0  0  0  0  0  0  0  0  0  0
   10.7718  -16.5400   21.9069 C   0  0  0  0  0  0  0  0  0  0  0  0
   11.7444  -15.9520   22.3769 O   0  0  0  0  0  0  0  0  0  0  0  0
    7.3716  -14.2895   21.8885 C   0  0  0  0  0  0  0  0  0  0  0  0
    7.5532  -14.9568   23.2150 C   0  0  2  0  0  0  0  0  0  0  0  0
    7.2733  -13.9730   24.3027 C   0  0  0  0  0  0  0  0  0  0  0  0
    8.9484  -15.4953   23.3410 C   0  0  2  0  0  0  0  0  0  0  0  0
    9.4433  -16.3232   22.3056 N   0  0  0  0  0  0  0  0  0  0  0  0
    9.3396  -15.9059   24.6988 C   0  0  0  0  0  0  0  0  0  0  0  0
    9.3319  -17.1059   25.1132 O   0  0  0  0  0  0  0  0  0  0  0  0
    9.0525  -13.3912   28.0340 C   0  0  0  0  0  0  0  0  0  0  0  0
   10.3648  -14.0885   27.8539 C   0  0  1  0  0  0  0  0  0  0  0  0
   10.8844  -14.5261   29.2050 C   0  0  0  0  0  0  0  0  0  0  0  0
   10.2512  -15.3116   26.9689 C   0  0  2  0  0  0  0  0  0  0  0  0
    9.7622  -14.9461   25.6498 N   0  0  0  0  0  0  0  0  0  0  0  0
    9.3595  -16.2918   27.6256 C   0  0  0  0  0  0  0  0  0  0  0  0
    9.8767  -17.2456   28.4616 O   0  0  0  0  0  0  0  0  0  0  0  0
    8.1257  -16.2527   27.4189 O   0  0  0  0  0  0  0  0  0  0  0  0
  1  2  1  0
  3  2  1  0
  3  4  2  0
  6  5  1  6
  6  8  1  0
  7  6  1  0
  8  9  1  6
  9  3  1  0
 10  8  1  0
 11 10  2  0
 13 12  1  1
 13 14  1  0
 15 16  1  6
 15 13  1  0
 16 10  1  0
 17 15  1  0
 18 17  1  0
 19 17  2  0
M  END
$$$$
