GVV.pdb
     RDKit          3D

 19 18  0  0  1  0  0  0  0  0999 V2000
    8.1701  -18.2164   17.5200 N   0  0  0  0  0  0  0  0  0  0  0  0
    8.0977  -17.7331   18.8812 C   0  0  0  0  0  0  0  0  0  0  0  0
    8.0002  -16.2185   18.8869 C   0  0  0  0  0  0  0  0  0  0  0  0
    7.1668  -15.7413   18.1185 O   0  0  0  0  0  0  0  0  0  0  0  0
    7.5091  -12.9341   19.7898 C   0  0  0  0  0  0  0  0  0  0  0  0
    7.4197  -13.8205   20.9916 C   0  0  2  0  0  0  0  0  0  0  0  0
    7.5145  -12.9860   22.2261 C   0  0  0  0  0  0  0  0  0  0  0  0
    8.5155  -14.8457   20.9660 C   0  0  2  0  0  0  0  0  0  0  0  0
    8.8282  -15.4617   19.7309 N   0  0  0  0  0  0  0  0  0  0  0  0
    8.5589  -15.7434   22.1310 C   0  0  0  0  0  0  0  0  0  0  0  0
    7.5790  -16.4449   22.5302 O   0  0  0  0  0  0  0  0  0  0  0  0
   12.2877  -17.1327   23.5745 C   0  0  0  0  0  0  0  0  0  0  0  0
   10.9615  -17.7919   23.7922 C   0  0  1  0  0  0  0  0  0  0  0  0
   11.0473  -18.6924   25.0040 C   0  0  0  0  0  0  0  0  0  0  0  0
    9.8502  -16.7898   24.0219 C   0  0  2  0  0  0  0  0  0  0  0  0
    9.7427  -15.8767   22.8961 N   0  0  0  0  0  0  0  0  0  0  0  0
   10.1168  -16.0659   25.2838 C   0  0  0  0  0  0  0  0  0  0  0  0
    9.7940  -16.6335   26.4879 O   0  0  0  0  0  0  0  0  0  0  0  0
   10.6397  -14.9292   25.2552 O   0  0  0  0  0  0  0  0  0  0  0  0
  1  2  1  0
  3  2  1  0
  3  4  2  0
  6  5  1  6
  6  8  1  0
  7  6  1  0
  8  9  1  6
  9  3  1  0
 10  8  1  0
 11 10  2  0
 13 12  1  1
 13 14  1  0
 15 16  1  6
 15 13  1  0
 16 10  1  0
 17 15  1  0
 18 17  1  0
 19 17  2  0
M  END
$$$$
