IWL.pdb
     RDKit          3D

 31 32  0  0  1  0  0  0  0  0999 V2000
   29.6538  -18.6912  -16.3602 C   0  0  0  0  0  0  0  0  0  0  0  0
   28.5521  -19.6772  -15.9538 C   0  0  0  0  0  0  0  0  0  0  0  0
   28.0151  -19.2609  -14.6030 C   0  0  2  0  0  0  0  0  0  0  0  0
   29.1212  -18.8767  -13.6540 C   0  0  0  0  0  0  0  0  0  0  0  0
   27.0390  -20.2343  -14.0334 C   0  0  2  0  0  0  0  0  0  0  0  0
   26.0204  -20.4853  -15.0470 N   0  0  0  0  0  0  0  0  0  0  0  0
   26.4635  -19.8687  -12.7390 C   0  0  0  0  0  0  0  0  0  0  0  0
   25.9180  -18.7350  -12.6368 O   0  0  0  0  0  0  0  0  0  0  0  0
   26.4651  -20.6778  -11.5871 N   0  0  0  0  0  0  0  0  0  0  0  0
   25.7599  -20.2874  -10.3464 C   0  0  1  0  0  0  0  0  0  0  0  0
   24.5622  -21.1841  -10.1875 C   0  0  0  0  0  0  0  0  0  0  0  0
   23.3632  -20.7843  -10.9245 C   0  0  0  0  0  0  0  0  0  0  0  0
   23.1625  -20.7268  -12.2969 C   0  0  0  0  0  0  0  0  0  0  0  0
   21.9254  -20.2876  -12.5596 N   0  0  0  0  0  0  0  0  0  0  0  0
   21.2830  -20.0462  -11.4048 C   0  0  0  0  0  0  0  0  0  0  0  0
   20.0047  -19.5871  -11.1646 C   0  0  0  0  0  0  0  0  0  0  0  0
   19.6143  -19.4342   -9.8546 C   0  0  0  0  0  0  0  0  0  0  0  0
   20.4792  -19.7326   -8.8206 C   0  0  0  0  0  0  0  0  0  0  0  0
   21.7450  -20.1873   -9.0722 C   0  0  0  0  0  0  0  0  0  0  0  0
   22.1658  -20.3509  -10.3682 C   0  0  0  0  0  0  0  0  0  0  0  0
   26.7023  -20.5693   -9.2319 C   0  0  0  0  0  0  0  0  0  0  0  0
   27.4622  -21.5795   -9.3028 O   0  0  0  0  0  0  0  0  0  0  0  0
   28.1379  -19.6994   -3.9900 C   0  0  0  0  0  0  0  0  0  0  0  0
   28.8493  -18.8810   -5.0605 C   0  0  2  0  0  0  0  0  0  0  0  0
   29.3577  -17.6160   -4.4923 C   0  0  0  0  0  0  0  0  0  0  0  0
   28.1140  -18.8361   -6.3401 C   0  0  0  0  0  0  0  0  0  0  0  0
   27.6615  -20.0949   -6.9699 C   0  0  2  0  0  0  0  0  0  0  0  0
   26.7795  -19.7476   -8.1014 N   0  0  0  0  0  0  0  0  0  0  0  0
   26.9586  -21.0682   -6.1398 C   0  0  0  0  0  0  0  0  0  0  0  0
   25.7017  -21.0507   -5.9617 O   0  0  0  0  0  0  0  0  0  0  0  0
   27.6949  -22.0817   -5.4967 O   0  0  0  0  0  0  0  0  0  0  0  0
  2  1  1  0
  3  2  1  0
  3  4  1  1
  5  3  1  0
  5  6  1  6
  7  5  1  0
  8  7  2  0
  9  7  1  0
 10 21  1  0
 10  9  1  0
 10 11  1  1
 12 11  1  0
 13 12  2  0
 14 13  1  0
 15 14  1  0
 15 20  2  0
 16 15  1  0
 17 16  2  0
 17 18  1  0
 18 19  2  0
 19 20  1  0
 20 12  1  0
 21 28  1  0
 22 21  2  0
 24 23  1  1
 24 25  1  0
 24 26  1  0
 27 26  1  1
 27 29  1  0
 28 27  1  0
 29 30  2  0
 29 31  1  0
M  END
$$$$
