IWL.pdb
     RDKit          3D

 31 32  0  0  1  0  0  0  0  0999 V2000
   27.8595  -18.1074  -17.0531 C   0  0  0  0  0  0  0  0  0  0  0  0
   28.4399  -19.3337  -16.3387 C   0  0  0  0  0  0  0  0  0  0  0  0
   27.5600  -19.6539  -15.1515 C   0  0  2  0  0  0  0  0  0  0  0  0
   27.2735  -18.4303  -14.3196 C   0  0  0  0  0  0  0  0  0  0  0  0
   28.0415  -20.8242  -14.3620 C   0  0  2  0  0  0  0  0  0  0  0  0
   28.0758  -21.9773  -15.2547 N   0  0  0  0  0  0  0  0  0  0  0  0
   27.3109  -21.0954  -13.1238 C   0  0  0  0  0  0  0  0  0  0  0  0
   26.2511  -21.7765  -13.2032 O   0  0  0  0  0  0  0  0  0  0  0  0
   27.6897  -20.6592  -11.8401 N   0  0  0  0  0  0  0  0  0  0  0  0
   26.8911  -20.9673  -10.6333 C   0  0  1  0  0  0  0  0  0  0  0  0
   27.6789  -20.5320   -9.4278 C   0  0  0  0  0  0  0  0  0  0  0  0
   26.9782  -20.6083   -8.1456 C   0  0  0  0  0  0  0  0  0  0  0  0
   25.7014  -21.0824   -7.8772 C   0  0  0  0  0  0  0  0  0  0  0  0
   25.4325  -20.9563   -6.5718 N   0  0  0  0  0  0  0  0  0  0  0  0
   26.4903  -20.4107   -5.9489 C   0  0  0  0  0  0  0  0  0  0  0  0
   26.6870  -20.0902   -4.6218 C   0  0  0  0  0  0  0  0  0  0  0  0
   27.8938  -19.5327   -4.2693 C   0  0  0  0  0  0  0  0  0  0  0  0
   28.8704  -19.3047   -5.2183 C   0  0  0  0  0  0  0  0  0  0  0  0
   28.6630  -19.6271   -6.5317 C   0  0  0  0  0  0  0  0  0  0  0  0
   27.4697  -20.1850   -6.9167 C   0  0  0  0  0  0  0  0  0  0  0  0
   25.6712  -20.1224  -10.7211 C   0  0  0  0  0  0  0  0  0  0  0  0
   25.7924  -18.8749  -10.8993 O   0  0  0  0  0  0  0  0  0  0  0  0
   22.5259  -18.3658  -13.9962 C   0  0  0  0  0  0  0  0  0  0  0  0
   22.7745  -19.8683  -13.9464 C   0  0  2  0  0  0  0  0  0  0  0  0
   21.5045  -20.6082  -14.0914 C   0  0  0  0  0  0  0  0  0  0  0  0
   23.7061  -20.2666  -12.8723 C   0  0  0  0  0  0  0  0  0  0  0  0
   23.2808  -20.1689  -11.4597 C   0  0  2  0  0  0  0  0  0  0  0  0
   24.3852  -20.6650  -10.6154 N   0  0  0  0  0  0  0  0  0  0  0  0
   22.0636  -20.8658  -11.0556 C   0  0  0  0  0  0  0  0  0  0  0  0
   20.9526  -20.2777  -10.8779 O   0  0  0  0  0  0  0  0  0  0  0  0
   22.1061  -22.2577  -10.8469 O   0  0  0  0  0  0  0  0  0  0  0  0
  2  1  1  0
  3  2  1  0
  3  4  1  1
  5  3  1  0
  5  6  1  6
  7  5  1  0
  8  7  2  0
  9  7  1  0
 10 21  1  0
 10  9  1  0
 10 11  1  1
 12 11  1  0
 13 12  2  0
 14 13  1  0
 15 14  1  0
 15 20  2  0
 16 15  1  0
 17 16  2  0
 17 18  1  0
 18 19  2  0
 19 20  1  0
 20 12  1  0
 21 28  1  0
 22 21  2  0
 24 23  1  1
 24 25  1  0
 24 26  1  0
 27 26  1  6
 27 29  1  0
 28 27  1  0
 29 30  2  0
 29 31  1  0
M  END
$$$$
