IWL.pdb
     RDKit          3D

 31 32  0  0  1  0  0  0  0  0999 V2000
   23.2892  -16.4124  -18.5801 C   0  0  0  0  0  0  0  0  0  0  0  0
   22.9388  -15.5285  -17.3772 C   0  0  0  0  0  0  0  0  0  0  0  0
   22.3714  -14.2254  -17.8931 C   0  0  2  0  0  0  0  0  0  0  0  0
   23.1644  -13.6905  -19.0577 C   0  0  0  0  0  0  0  0  0  0  0  0
   22.1269  -13.2235  -16.8154 C   0  0  2  0  0  0  0  0  0  0  0  0
   21.3034  -13.8623  -15.7948 N   0  0  0  0  0  0  0  0  0  0  0  0
   21.5780  -11.9412  -17.2569 C   0  0  0  0  0  0  0  0  0  0  0  0
   22.2097  -11.3056  -18.1458 O   0  0  0  0  0  0  0  0  0  0  0  0
   20.3965  -11.3488  -16.7725 N   0  0  0  0  0  0  0  0  0  0  0  0
   19.8838  -10.0642  -17.2980 C   0  0  1  0  0  0  0  0  0  0  0  0
   18.4535  -10.2684  -17.7177 C   0  0  0  0  0  0  0  0  0  0  0  0
   18.2548  -10.9470  -18.9986 C   0  0  0  0  0  0  0  0  0  0  0  0
   18.1908  -12.3082  -19.2630 C   0  0  0  0  0  0  0  0  0  0  0  0
   18.0184  -12.5110  -20.5751 N   0  0  0  0  0  0  0  0  0  0  0  0
   17.9639  -11.3265  -21.2063 C   0  0  0  0  0  0  0  0  0  0  0  0
   17.7996  -11.0250  -22.5422 C   0  0  0  0  0  0  0  0  0  0  0  0
   17.7828   -9.6977  -22.9022 C   0  0  0  0  0  0  0  0  0  0  0  0
   17.9263   -8.7064  -21.9519 C   0  0  0  0  0  0  0  0  0  0  0  0
   18.0886   -9.0187  -20.6297 C   0  0  0  0  0  0  0  0  0  0  0  0
   18.1099  -10.3335  -20.2371 C   0  0  0  0  0  0  0  0  0  0  0  0
   19.9013   -9.1157  -16.1536 C   0  0  0  0  0  0  0  0  0  0  0  0
   19.6159   -9.5372  -14.9944 O   0  0  0  0  0  0  0  0  0  0  0  0
   22.9254   -4.1495  -14.5328 C   0  0  0  0  0  0  0  0  0  0  0  0
   21.7563   -5.0546  -14.1642 C   0  0  2  0  0  0  0  0  0  0  0  0
   21.8051   -5.4052  -12.7303 C   0  0  0  0  0  0  0  0  0  0  0  0
   21.5239   -6.1311  -15.1478 C   0  0  0  0  0  0  0  0  0  0  0  0
   20.2265   -6.8396  -15.1660 C   0  0  2  0  0  0  0  0  0  0  0  0
   20.2279   -7.7644  -16.3165 N   0  0  0  0  0  0  0  0  0  0  0  0
   19.0058   -6.0426  -15.2368 C   0  0  0  0  0  0  0  0  0  0  0  0
   18.5044   -5.6350  -16.3297 O   0  0  0  0  0  0  0  0  0  0  0  0
   18.3398   -5.6986  -14.0448 O   0  0  0  0  0  0  0  0  0  0  0  0
  2  1  1  0
  3  2  1  0
  3  4  1  6
  5  3  1  0
  5  6  1  1
  7  5  1  0
  8  7  2  0
  9  7  1  0
 10 21  1  0
 10  9  1  0
 10 11  1  1
 12 11  1  0
 13 12  2  0
 14 13  1  0
 15 14  1  0
 15 20  2  0
 16 15  1  0
 17 16  2  0
 17 18  1  0
 18 19  2  0
 19 20  1  0
 20 12  1  0
 21 28  1  0
 22 21  2  0
 24 23  1  6
 24 25  1  0
 24 26  1  0
 27 26  1  6
 27 29  1  0
 28 27  1  0
 29 30  2  0
 29 31  1  0
M  END
$$$$
