IWL.pdb
     RDKit          3D

 31 32  0  0  1  0  0  0  0  0999 V2000
   29.3255  -18.0190  -16.6450 C   0  0  0  0  0  0  0  0  0  0  0  0
   28.2204  -19.0583  -16.4219 C   0  0  0  0  0  0  0  0  0  0  0  0
   27.6428  -18.8500  -15.0402 C   0  0  2  0  0  0  0  0  0  0  0  0
   28.7213  -18.6911  -13.9996 C   0  0  0  0  0  0  0  0  0  0  0  0
   26.5988  -19.8535  -14.6825 C   0  0  2  0  0  0  0  0  0  0  0  0
   25.6070  -19.8620  -15.7521 N   0  0  0  0  0  0  0  0  0  0  0  0
   25.9950  -19.6936  -13.3595 C   0  0  0  0  0  0  0  0  0  0  0  0
   25.3605  -18.6274  -13.1273 O   0  0  0  0  0  0  0  0  0  0  0  0
   26.0606  -20.6331  -12.3132 N   0  0  0  0  0  0  0  0  0  0  0  0
   25.3403  -20.4436  -11.0348 C   0  0  1  0  0  0  0  0  0  0  0  0
   24.1848  -21.4067  -11.0021 C   0  0  0  0  0  0  0  0  0  0  0  0
   22.9921  -20.9982  -11.7444 C   0  0  0  0  0  0  0  0  0  0  0  0
   22.6826  -21.2095  -13.0811 C   0  0  0  0  0  0  0  0  0  0  0  0
   21.4988  -20.6545  -13.3690 N   0  0  0  0  0  0  0  0  0  0  0  0
   20.9981  -20.0737  -12.2661 C   0  0  0  0  0  0  0  0  0  0  0  0
   19.8200  -19.3844  -12.0673 C   0  0  0  0  0  0  0  0  0  0  0  0
   19.5695  -18.8938  -10.8071 C   0  0  0  0  0  0  0  0  0  0  0  0
   20.4722  -19.0892   -9.7808 C   0  0  0  0  0  0  0  0  0  0  0  0
   21.6374  -19.7749   -9.9909 C   0  0  0  0  0  0  0  0  0  0  0  0
   21.9178  -20.2774  -11.2368 C   0  0  0  0  0  0  0  0  0  0  0  0
   26.2963  -20.8283   -9.9635 C   0  0  0  0  0  0  0  0  0  0  0  0
   26.8986  -21.9393  -10.0395 O   0  0  0  0  0  0  0  0  0  0  0  0
   29.0338  -18.2708   -5.0609 C   0  0  0  0  0  0  0  0  0  0  0  0
   28.7084  -19.5714   -5.7851 C   0  0  2  0  0  0  0  0  0  0  0  0
   29.8847  -20.4645   -5.7990 C   0  0  0  0  0  0  0  0  0  0  0  0
   27.9635  -19.3638   -7.0430 C   0  0  0  0  0  0  0  0  0  0  0  0
   27.2731  -20.5040   -7.6827 C   0  0  2  0  0  0  0  0  0  0  0  0
   26.5559  -19.9959   -8.8686 N   0  0  0  0  0  0  0  0  0  0  0  0
   26.3238  -21.2724   -6.8835 C   0  0  0  0  0  0  0  0  0  0  0  0
   26.6712  -22.2191   -6.1121 O   0  0  0  0  0  0  0  0  0  0  0  0
   24.9522  -20.9633   -6.9608 O   0  0  0  0  0  0  0  0  0  0  0  0
  2  1  1  0
  3  2  1  0
  3  4  1  1
  5  3  1  0
  5  6  1  6
  7  5  1  0
  8  7  2  0
  9  7  1  0
 10 21  1  0
 10  9  1  0
 10 11  1  6
 12 11  1  0
 13 12  2  0
 14 13  1  0
 15 14  1  0
 15 20  2  0
 16 15  1  0
 17 16  2  0
 17 18  1  0
 18 19  2  0
 19 20  1  0
 20 12  1  0
 21 28  1  0
 22 21  2  0
 24 23  1  6
 24 25  1  0
 24 26  1  0
 27 26  1  1
 27 29  1  0
 28 27  1  0
 29 30  2  0
 29 31  1  0
M  END
$$$$
