IWL.pdb
     RDKit          3D

 31 32  0  0  1  0  0  0  0  0999 V2000
   33.6669  -22.1727  -10.4989 C   0  0  0  0  0  0  0  0  0  0  0  0
   32.6575  -22.6195  -11.5631 C   0  0  0  0  0  0  0  0  0  0  0  0
   31.4131  -21.7719  -11.4247 C   0  0  2  0  0  0  0  0  0  0  0  0
   30.8732  -21.7938  -10.0177 C   0  0  0  0  0  0  0  0  0  0  0  0
   30.3890  -22.0564  -12.4711 C   0  0  2  0  0  0  0  0  0  0  0  0
   31.0157  -21.8511  -13.7722 N   0  0  0  0  0  0  0  0  0  0  0  0
   29.1273  -21.3283  -12.3356 C   0  0  0  0  0  0  0  0  0  0  0  0
   29.1314  -20.0918  -12.5890 O   0  0  0  0  0  0  0  0  0  0  0  0
   27.8980  -21.8912  -11.9436 N   0  0  0  0  0  0  0  0  0  0  0  0
   26.7017  -21.0645  -11.6705 C   0  0  1  0  0  0  0  0  0  0  0  0
   25.5702  -21.5867  -12.5135 C   0  0  0  0  0  0  0  0  0  0  0  0
   24.3014  -20.8678  -12.3950 C   0  0  0  0  0  0  0  0  0  0  0  0
   23.2420  -21.1064  -11.5302 C   0  0  0  0  0  0  0  0  0  0  0  0
   22.2572  -20.2296  -11.7616 N   0  0  0  0  0  0  0  0  0  0  0  0
   22.6193  -19.4044  -12.7578 C   0  0  0  0  0  0  0  0  0  0  0  0
   21.9478  -18.3518  -13.3440 C   0  0  0  0  0  0  0  0  0  0  0  0
   22.5793  -17.6761  -14.3620 C   0  0  0  0  0  0  0  0  0  0  0  0
   23.8432  -18.0456  -14.7772 C   0  0  0  0  0  0  0  0  0  0  0  0
   24.4988  -19.0918  -14.1874 C   0  0  0  0  0  0  0  0  0  0  0  0
   23.8966  -19.7869  -13.1689 C   0  0  0  0  0  0  0  0  0  0  0  0
   26.3611  -21.2939  -10.2419 C   0  0  0  0  0  0  0  0  0  0  0  0
   26.2258  -22.4796   -9.8193 O   0  0  0  0  0  0  0  0  0  0  0  0
   28.2424  -20.9314   -6.0124 C   0  0  0  0  0  0  0  0  0  0  0  0
   27.9797  -19.6043   -6.7136 C   0  0  2  0  0  0  0  0  0  0  0  0
   28.6458  -18.4987   -5.9958 C   0  0  0  0  0  0  0  0  0  0  0  0
   26.5715  -19.4341   -7.1238 C   0  0  0  0  0  0  0  0  0  0  0  0
   25.9061  -20.4902   -7.9162 C   0  0  2  0  0  0  0  0  0  0  0  0
   26.1870  -20.2353   -9.3428 N   0  0  0  0  0  0  0  0  0  0  0  0
   24.4637  -20.6578   -7.7693 C   0  0  0  0  0  0  0  0  0  0  0  0
   23.6163  -20.0529   -8.4959 O   0  0  0  0  0  0  0  0  0  0  0  0
   23.9706  -21.5275   -6.7777 O   0  0  0  0  0  0  0  0  0  0  0  0
  2  1  1  0
  3  2  1  0
  3  4  1  1
  5  3  1  0
  5  6  1  6
  7  5  1  0
  8  7  2  0
  9  7  1  0
 10 21  1  0
 10  9  1  0
 10 11  1  6
 12 11  1  0
 13 12  2  0
 14 13  1  0
 15 14  1  0
 15 20  2  0
 16 15  1  0
 17 16  2  0
 17 18  1  0
 18 19  2  0
 19 20  1  0
 20 12  1  0
 21 28  1  0
 22 21  2  0
 24 23  1  1
 24 25  1  0
 24 26  1  0
 27 26  1  1
 27 29  1  0
 28 27  1  0
 29 30  2  0
 29 31  1  0
M  END
$$$$
