IWL.pdb
     RDKit          3D

 31 32  0  0  1  0  0  0  0  0999 V2000
   28.9331  -22.4279  -15.8078 C   0  0  0  0  0  0  0  0  0  0  0  0
   29.3163  -20.9642  -16.0564 C   0  0  0  0  0  0  0  0  0  0  0  0
   28.1915  -20.0860  -15.5565 C   0  0  2  0  0  0  0  0  0  0  0  0
   27.9157  -20.3077  -14.0915 C   0  0  0  0  0  0  0  0  0  0  0  0
   26.9749  -20.1426  -16.4175 C   0  0  2  0  0  0  0  0  0  0  0  0
   27.3790  -19.8083  -17.7786 N   0  0  0  0  0  0  0  0  0  0  0  0
   25.8377  -19.3447  -15.9585 C   0  0  0  0  0  0  0  0  0  0  0  0
   26.0802  -18.2243  -15.4300 O   0  0  0  0  0  0  0  0  0  0  0  0
   24.4846  -19.7206  -16.0552 N   0  0  0  0  0  0  0  0  0  0  0  0
   23.3870  -18.8518  -15.5760 C   0  0  1  0  0  0  0  0  0  0  0  0
   22.7412  -18.2106  -16.7741 C   0  0  0  0  0  0  0  0  0  0  0  0
   23.4553  -17.0713  -17.3509 C   0  0  0  0  0  0  0  0  0  0  0  0
   23.9217  -16.9008  -18.6472 C   0  0  0  0  0  0  0  0  0  0  0  0
   24.5421  -15.7196  -18.7577 N   0  0  0  0  0  0  0  0  0  0  0  0
   24.5091  -15.0857  -17.5738 C   0  0  0  0  0  0  0  0  0  0  0  0
   25.0094  -13.8571  -17.1961 C   0  0  0  0  0  0  0  0  0  0  0  0
   24.8219  -13.4622  -15.8920 C   0  0  0  0  0  0  0  0  0  0  0  0
   24.1542  -14.2746  -14.9973 C   0  0  0  0  0  0  0  0  0  0  0  0
   23.6626  -15.4914  -15.3844 C   0  0  0  0  0  0  0  0  0  0  0  0
   23.8328  -15.9152  -16.6786 C   0  0  0  0  0  0  0  0  0  0  0  0
   22.3934  -19.7573  -14.9416 C   0  0  0  0  0  0  0  0  0  0  0  0
   22.2941  -20.9519  -15.3489 O   0  0  0  0  0  0  0  0  0  0  0  0
   19.6715  -20.1421   -9.4836 C   0  0  0  0  0  0  0  0  0  0  0  0
   19.7323  -20.7202  -10.8921 C   0  0  2  0  0  0  0  0  0  0  0  0
   19.8819  -22.1888  -10.8429 C   0  0  0  0  0  0  0  0  0  0  0  0
   20.6084  -19.9502  -11.7975 C   0  0  0  0  0  0  0  0  0  0  0  0
   20.6291  -20.2666  -13.2416 C   0  0  2  0  0  0  0  0  0  0  0  0
   21.5611  -19.3303  -13.9003 N   0  0  0  0  0  0  0  0  0  0  0  0
   19.3675  -20.2286  -13.9746 C   0  0  0  0  0  0  0  0  0  0  0  0
   18.8626  -19.1581  -14.4339 O   0  0  0  0  0  0  0  0  0  0  0  0
   18.6622  -21.4281  -14.1907 O   0  0  0  0  0  0  0  0  0  0  0  0
  2  1  1  0
  3  2  1  0
  3  4  1  1
  5  3  1  0
  5  6  1  6
  7  5  1  0
  8  7  2  0
  9  7  1  0
 10 21  1  0
 10  9  1  0
 10 11  1  6
 12 11  1  0
 13 12  2  0
 14 13  1  0
 15 14  1  0
 15 20  2  0
 16 15  1  0
 17 16  2  0
 17 18  1  0
 18 19  2  0
 19 20  1  0
 20 12  1  0
 21 28  1  0
 22 21  2  0
 24 23  1  1
 24 25  1  0
 24 26  1  0
 27 26  1  1
 27 29  1  0
 28 27  1  0
 29 30  2  0
 29 31  1  0
M  END
$$$$
