IWL.pdb
     RDKit          3D

 31 32  0  0  1  0  0  0  0  0999 V2000
   27.5028  -18.7329  -17.4008 C   0  0  0  0  0  0  0  0  0  0  0  0
   28.1065  -19.8564  -16.5497 C   0  0  0  0  0  0  0  0  0  0  0  0
   27.2734  -20.0049  -15.2967 C   0  0  2  0  0  0  0  0  0  0  0  0
   27.0744  -18.6855  -14.5960 C   0  0  0  0  0  0  0  0  0  0  0  0
   27.7474  -21.1005  -14.4025 C   0  0  2  0  0  0  0  0  0  0  0  0
   27.7375  -22.3383  -15.1742 N   0  0  0  0  0  0  0  0  0  0  0  0
   27.0387  -21.2283  -13.1289 C   0  0  0  0  0  0  0  0  0  0  0  0
   25.9222  -21.8171  -13.1334 O   0  0  0  0  0  0  0  0  0  0  0  0
   27.4972  -20.7477  -11.8877 N   0  0  0  0  0  0  0  0  0  0  0  0
   26.7385  -20.9487  -10.6335 C   0  0  1  0  0  0  0  0  0  0  0  0
   27.5568  -20.3960   -9.4985 C   0  0  0  0  0  0  0  0  0  0  0  0
   26.9370  -20.4593   -8.1746 C   0  0  0  0  0  0  0  0  0  0  0  0
   25.6827  -20.9379   -7.8216 C   0  0  0  0  0  0  0  0  0  0  0  0
   25.4939  -20.7957   -6.5039 N   0  0  0  0  0  0  0  0  0  0  0  0
   26.5840  -20.2349   -5.9548 C   0  0  0  0  0  0  0  0  0  0  0  0
   26.8597  -19.8950   -4.6467 C   0  0  0  0  0  0  0  0  0  0  0  0
   28.0819  -19.3248   -4.3768 C   0  0  0  0  0  0  0  0  0  0  0  0
   28.9965  -19.1035   -5.3872 C   0  0  0  0  0  0  0  0  0  0  0  0
   28.7109  -19.4452   -6.6809 C   0  0  0  0  0  0  0  0  0  0  0  0
   27.5002  -20.0160   -6.9841 C   0  0  0  0  0  0  0  0  0  0  0  0
   25.5069  -20.1263  -10.7620 C   0  0  0  0  0  0  0  0  0  0  0  0
   25.6013  -18.9242  -11.1477 O   0  0  0  0  0  0  0  0  0  0  0  0
   22.4454  -20.4153  -14.9897 C   0  0  0  0  0  0  0  0  0  0  0  0
   22.1966  -19.9113  -13.5734 C   0  0  2  0  0  0  0  0  0  0  0  0
   21.7459  -18.5049  -13.5960 C   0  0  0  0  0  0  0  0  0  0  0  0
   23.2606  -20.2975  -12.6252 C   0  0  0  0  0  0  0  0  0  0  0  0
   23.0383  -20.1434  -11.1717 C   0  0  2  0  0  0  0  0  0  0  0  0
   24.2384  -20.6418  -10.4714 N   0  0  0  0  0  0  0  0  0  0  0  0
   21.8742  -20.7942  -10.5787 C   0  0  0  0  0  0  0  0  0  0  0  0
   20.8781  -20.1537  -10.1210 O   0  0  0  0  0  0  0  0  0  0  0  0
   21.8382  -22.1997  -10.5009 O   0  0  0  0  0  0  0  0  0  0  0  0
  2  1  1  0
  3  2  1  0
  3  4  1  1
  5  3  1  0
  5  6  1  6
  7  5  1  0
  8  7  2  0
  9  7  1  0
 10 21  1  0
 10  9  1  0
 10 11  1  1
 12 11  1  0
 13 12  2  0
 14 13  1  0
 15 14  1  0
 15 20  2  0
 16 15  1  0
 17 16  2  0
 17 18  1  0
 18 19  2  0
 19 20  1  0
 20 12  1  0
 21 28  1  0
 22 21  2  0
 24 23  1  6
 24 25  1  0
 24 26  1  0
 27 26  1  6
 27 29  1  0
 28 27  1  0
 29 30  2  0
 29 31  1  0
M  END
$$$$
