IWL.pdb
     RDKit          3D

 31 32  0  0  1  0  0  0  0  0999 V2000
   31.5890  -22.4240  -19.8322 C   0  0  0  0  0  0  0  0  0  0  0  0
   30.6297  -23.1202  -18.8595 C   0  0  0  0  0  0  0  0  0  0  0  0
   29.6706  -22.0860  -18.3146 C   0  0  2  0  0  0  0  0  0  0  0  0
   30.3952  -20.8876  -17.7576 C   0  0  0  0  0  0  0  0  0  0  0  0
   28.6500  -22.6602  -17.3910 C   0  0  2  0  0  0  0  0  0  0  0  0
   27.9873  -23.7564  -18.0888 N   0  0  0  0  0  0  0  0  0  0  0  0
   27.7011  -21.7024  -16.8229 C   0  0  0  0  0  0  0  0  0  0  0  0
   28.1644  -20.7609  -16.1213 O   0  0  0  0  0  0  0  0  0  0  0  0
   26.3041  -21.7393  -16.9917 N   0  0  0  0  0  0  0  0  0  0  0  0
   25.4010  -20.7818  -16.3159 C   0  0  1  0  0  0  0  0  0  0  0  0
   24.0998  -20.7539  -17.0707 C   0  0  0  0  0  0  0  0  0  0  0  0
   23.0269  -19.9652  -16.4645 C   0  0  0  0  0  0  0  0  0  0  0  0
   23.0935  -18.7088  -15.8779 C   0  0  0  0  0  0  0  0  0  0  0  0
   21.8854  -18.3518  -15.4248 N   0  0  0  0  0  0  0  0  0  0  0  0
   21.0032  -19.3300  -15.6876 C   0  0  0  0  0  0  0  0  0  0  0  0
   19.6538  -19.4222  -15.4168 C   0  0  0  0  0  0  0  0  0  0  0  0
   18.9977  -20.5648  -15.8112 C   0  0  0  0  0  0  0  0  0  0  0  0
   19.6744  -21.5808  -16.4562 C   0  0  0  0  0  0  0  0  0  0  0  0
   21.0132  -21.4772  -16.7191 C   0  0  0  0  0  0  0  0  0  0  0  0
   21.6976  -20.3502  -16.3387 C   0  0  0  0  0  0  0  0  0  0  0  0
   25.1423  -21.3444  -14.9646 C   0  0  0  0  0  0  0  0  0  0  0  0
   25.0448  -22.5988  -14.8234 O   0  0  0  0  0  0  0  0  0  0  0  0
   24.4757  -20.9215   -9.5123 C   0  0  0  0  0  0  0  0  0  0  0  0
   25.8143  -21.1733  -10.1953 C   0  0  2  0  0  0  0  0  0  0  0  0
   26.9291  -20.7752   -9.3121 C   0  0  0  0  0  0  0  0  0  0  0  0
   25.8376  -20.7342  -11.6049 C   0  0  0  0  0  0  0  0  0  0  0  0
   24.7287  -21.1095  -12.5078 C   0  0  2  0  0  0  0  0  0  0  0  0
   25.0051  -20.5279  -13.8360 N   0  0  0  0  0  0  0  0  0  0  0  0
   23.3713  -20.7294  -12.1290 C   0  0  0  0  0  0  0  0  0  0  0  0
   22.9449  -19.5346  -12.1784 O   0  0  0  0  0  0  0  0  0  0  0  0
   22.4787  -21.7232  -11.6833 O   0  0  0  0  0  0  0  0  0  0  0  0
  2  1  1  0
  3  2  1  0
  3  4  1  1
  5  3  1  0
  5  6  1  6
  7  5  1  0
  8  7  2  0
  9  7  1  0
 10 21  1  0
 10  9  1  0
 10 11  1  6
 12 11  1  0
 13 12  2  0
 14 13  1  0
 15 14  1  0
 15 20  2  0
 16 15  1  0
 17 16  2  0
 17 18  1  0
 18 19  2  0
 19 20  1  0
 20 12  1  0
 21 28  1  0
 22 21  2  0
 24 23  1  1
 24 25  1  0
 24 26  1  0
 27 26  1  1
 27 29  1  0
 28 27  1  0
 29 30  2  0
 29 31  1  0
M  END
$$$$
