IWL.pdb
     RDKit          3D

 31 32  0  0  1  0  0  0  0  0999 V2000
   30.8045  -20.1220  -20.9139 C   0  0  0  0  0  0  0  0  0  0  0  0
   29.8311  -20.9669  -20.0835 C   0  0  0  0  0  0  0  0  0  0  0  0
   29.4051  -20.1572  -18.8797 C   0  0  2  0  0  0  0  0  0  0  0  0
   30.5839  -19.5333  -18.1779 C   0  0  0  0  0  0  0  0  0  0  0  0
   28.4810  -20.8963  -17.9717 C   0  0  2  0  0  0  0  0  0  0  0  0
   27.7889  -21.9038  -18.7677 N   0  0  0  0  0  0  0  0  0  0  0  0
   27.5602  -20.0663  -17.1946 C   0  0  0  0  0  0  0  0  0  0  0  0
   28.0572  -19.1896  -16.4345 O   0  0  0  0  0  0  0  0  0  0  0  0
   26.1559  -20.1610  -17.2204 N   0  0  0  0  0  0  0  0  0  0  0  0
   25.2889  -19.2649  -16.4240 C   0  0  1  0  0  0  0  0  0  0  0  0
   24.1499  -18.8172  -17.2992 C   0  0  0  0  0  0  0  0  0  0  0  0
   23.1616  -17.9450  -16.6643 C   0  0  0  0  0  0  0  0  0  0  0  0
   23.3506  -16.9873  -15.6774 C   0  0  0  0  0  0  0  0  0  0  0  0
   22.1791  -16.4238  -15.3575 N   0  0  0  0  0  0  0  0  0  0  0  0
   21.2027  -16.9723  -16.0993 C   0  0  0  0  0  0  0  0  0  0  0  0
   19.8463  -16.7233  -16.1285 C   0  0  0  0  0  0  0  0  0  0  0  0
   19.0797  -17.4529  -17.0069 C   0  0  0  0  0  0  0  0  0  0  0  0
   19.6563  -18.4008  -17.8286 C   0  0  0  0  0  0  0  0  0  0  0  0
   21.0033  -18.6384  -17.7900 C   0  0  0  0  0  0  0  0  0  0  0  0
   21.7966  -17.9277  -16.9247 C   0  0  0  0  0  0  0  0  0  0  0  0
   24.7318  -20.0998  -15.3275 C   0  0  0  0  0  0  0  0  0  0  0  0
   24.4393  -21.3100  -15.5570 O   0  0  0  0  0  0  0  0  0  0  0  0
   26.2491  -22.1613  -11.9935 C   0  0  0  0  0  0  0  0  0  0  0  0
   26.1187  -20.6900  -11.6191 C   0  0  2  0  0  0  0  0  0  0  0  0
   26.8766  -20.4008  -10.3849 C   0  0  0  0  0  0  0  0  0  0  0  0
   24.7371  -20.1824  -11.7358 C   0  0  0  0  0  0  0  0  0  0  0  0
   23.9642  -20.4378  -12.9700 C   0  0  2  0  0  0  0  0  0  0  0  0
   24.5218  -19.5892  -14.0413 N   0  0  0  0  0  0  0  0  0  0  0  0
   22.5209  -20.2229  -12.9373 C   0  0  0  0  0  0  0  0  0  0  0  0
   21.9626  -19.1824  -13.4038 O   0  0  0  0  0  0  0  0  0  0  0  0
   21.6927  -21.2063  -12.3630 O   0  0  0  0  0  0  0  0  0  0  0  0
  2  1  1  0
  3  2  1  0
  3  4  1  1
  5  3  1  0
  5  6  1  6
  7  5  1  0
  8  7  2  0
  9  7  1  0
 10 21  1  0
 10  9  1  0
 10 11  1  6
 12 11  1  0
 13 12  2  0
 14 13  1  0
 15 14  1  0
 15 20  2  0
 16 15  1  0
 17 16  2  0
 17 18  1  0
 18 19  2  0
 19 20  1  0
 20 12  1  0
 21 28  1  0
 22 21  2  0
 24 23  1  1
 24 25  1  0
 24 26  1  0
 27 26  1  1
 27 29  1  0
 28 27  1  0
 29 30  2  0
 29 31  1  0
M  END
$$$$
