IWL.pdb
     RDKit          3D

 31 32  0  0  1  0  0  0  0  0999 V2000
   24.4916  -19.4508  -16.0420 C   0  0  0  0  0  0  0  0  0  0  0  0
   25.6574  -19.6516  -15.0664 C   0  0  0  0  0  0  0  0  0  0  0  0
   25.1093  -20.2329  -13.7827 C   0  0  2  0  0  0  0  0  0  0  0  0
   23.8823  -19.4950  -13.3120 C   0  0  0  0  0  0  0  0  0  0  0  0
   26.1490  -20.4140  -12.7287 C   0  0  2  0  0  0  0  0  0  0  0  0
   27.2282  -21.2100  -13.3027 N   0  0  0  0  0  0  0  0  0  0  0  0
   25.6713  -20.9528  -11.4552 C   0  0  0  0  0  0  0  0  0  0  0  0
   25.3744  -22.1788  -11.4093 O   0  0  0  0  0  0  0  0  0  0  0  0
   25.5121  -20.2169  -10.2657 N   0  0  0  0  0  0  0  0  0  0  0  0
   25.0591  -20.8429   -9.0040 C   0  0  1  0  0  0  0  0  0  0  0  0
   25.6557  -20.0710   -7.8586 C   0  0  0  0  0  0  0  0  0  0  0  0
   27.0804  -20.2943   -7.6117 C   0  0  0  0  0  0  0  0  0  0  0  0
   28.0071  -20.9633   -8.3997 C   0  0  0  0  0  0  0  0  0  0  0  0
   29.2039  -20.9596   -7.7998 N   0  0  0  0  0  0  0  0  0  0  0  0
   29.1143  -20.3075   -6.6289 C   0  0  0  0  0  0  0  0  0  0  0  0
   30.0692  -20.0460   -5.6685 C   0  0  0  0  0  0  0  0  0  0  0  0
   29.6797  -19.3434   -4.5522 C   0  0  0  0  0  0  0  0  0  0  0  0
   28.3745  -18.9177   -4.4055 C   0  0  0  0  0  0  0  0  0  0  0  0
   27.4365  -19.1835   -5.3655 C   0  0  0  0  0  0  0  0  0  0  0  0
   27.7924  -19.8825   -6.4916 C   0  0  0  0  0  0  0  0  0  0  0  0
   23.5836  -20.6667   -8.9644 C   0  0  0  0  0  0  0  0  0  0  0  0
   23.0774  -19.5816   -9.3758 O   0  0  0  0  0  0  0  0  0  0  0  0
   19.5107  -23.0016  -11.8966 C   0  0  0  0  0  0  0  0  0  0  0  0
   19.6356  -22.2193  -10.5950 C   0  0  2  0  0  0  0  0  0  0  0  0
   18.8763  -20.9551  -10.6759 C   0  0  0  0  0  0  0  0  0  0  0  0
   21.0154  -22.1829  -10.0706 C   0  0  0  0  0  0  0  0  0  0  0  0
   21.2765  -21.6078   -8.7338 C   0  0  2  0  0  0  0  0  0  0  0  0
   22.7306  -21.6685   -8.4871 N   0  0  0  0  0  0  0  0  0  0  0  0
   20.6043  -22.2031   -7.5831 C   0  0  0  0  0  0  0  0  0  0  0  0
   19.4191  -21.9046   -7.2396 O   0  0  0  0  0  0  0  0  0  0  0  0
   21.2894  -23.1553   -6.8042 O   0  0  0  0  0  0  0  0  0  0  0  0
  2  1  1  0
  3  2  1  0
  3  4  1  1
  5  3  1  0
  5  6  1  6
  7  5  1  0
  8  7  2  0
  9  7  1  0
 10 21  1  0
 10  9  1  0
 10 11  1  1
 12 11  1  0
 13 12  2  0
 14 13  1  0
 15 14  1  0
 15 20  2  0
 16 15  1  0
 17 16  2  0
 17 18  1  0
 18 19  2  0
 19 20  1  0
 20 12  1  0
 21 28  1  0
 22 21  2  0
 24 23  1  6
 24 25  1  0
 24 26  1  0
 27 26  1  6
 27 29  1  0
 28 27  1  0
 29 30  2  0
 29 31  1  0
M  END
$$$$
