IWL.pdb
     RDKit          3D

 31 32  0  0  1  0  0  0  0  0999 V2000
   26.6132  -18.9375  -19.6732 C   0  0  0  0  0  0  0  0  0  0  0  0
   26.6284  -17.4829  -19.1886 C   0  0  0  0  0  0  0  0  0  0  0  0
   25.8709  -17.4082  -17.8822 C   0  0  2  0  0  0  0  0  0  0  0  0
   26.5194  -18.2448  -16.8094 C   0  0  0  0  0  0  0  0  0  0  0  0
   24.4073  -17.6498  -18.0370 C   0  0  2  0  0  0  0  0  0  0  0  0
   23.9062  -16.7118  -19.0354 N   0  0  0  0  0  0  0  0  0  0  0  0
   23.6272  -17.6209  -16.7996 C   0  0  0  0  0  0  0  0  0  0  0  0
   23.6670  -16.5687  -16.1035 O   0  0  0  0  0  0  0  0  0  0  0  0
   22.8292  -18.6735  -16.3129 N   0  0  0  0  0  0  0  0  0  0  0  0
   22.1200  -18.5932  -15.0169 C   0  0  1  0  0  0  0  0  0  0  0  0
   20.6510  -18.7909  -15.2748 C   0  0  0  0  0  0  0  0  0  0  0  0
   19.8867  -17.5797  -15.5739 C   0  0  0  0  0  0  0  0  0  0  0  0
   19.4600  -17.1002  -16.8048 C   0  0  0  0  0  0  0  0  0  0  0  0
   18.8056  -15.9437  -16.6424 N   0  0  0  0  0  0  0  0  0  0  0  0
   18.7770  -15.6265  -15.3374 C   0  0  0  0  0  0  0  0  0  0  0  0
   18.2241  -14.5436  -14.6860 C   0  0  0  0  0  0  0  0  0  0  0  0
   18.3533  -14.4844  -13.3180 C   0  0  0  0  0  0  0  0  0  0  0  0
   19.0157  -15.4798  -12.6275 C   0  0  0  0  0  0  0  0  0  0  0  0
   19.5599  -16.5489  -13.2855 C   0  0  0  0  0  0  0  0  0  0  0  0
   19.4487  -16.6382  -14.6504 C   0  0  0  0  0  0  0  0  0  0  0  0
   22.6086  -19.7416  -14.2092 C   0  0  0  0  0  0  0  0  0  0  0  0
   22.8124  -20.8556  -14.7751 O   0  0  0  0  0  0  0  0  0  0  0  0
   24.3102  -21.8751   -9.3963 C   0  0  0  0  0  0  0  0  0  0  0  0
   25.2624  -21.1999  -10.3756 C   0  0  2  0  0  0  0  0  0  0  0  0
   26.4679  -20.7141   -9.6740 C   0  0  0  0  0  0  0  0  0  0  0  0
   24.5778  -20.2912  -11.3168 C   0  0  0  0  0  0  0  0  0  0  0  0
   23.3964  -20.7676  -12.0671 C   0  0  2  0  0  0  0  0  0  0  0  0
   22.8549  -19.6297  -12.8359 N   0  0  0  0  0  0  0  0  0  0  0  0
   22.2950  -21.3617  -11.3158 C   0  0  0  0  0  0  0  0  0  0  0  0
   21.4226  -20.6740  -10.7010 O   0  0  0  0  0  0  0  0  0  0  0  0
   22.1803  -22.7639  -11.2581 O   0  0  0  0  0  0  0  0  0  0  0  0
  2  1  1  0
  3  2  1  0
  3  4  1  1
  5  3  1  0
  5  6  1  6
  7  5  1  0
  8  7  2  0
  9  7  1  0
 10 21  1  0
 10  9  1  0
 10 11  1  6
 12 11  1  0
 13 12  2  0
 14 13  1  0
 15 14  1  0
 15 20  2  0
 16 15  1  0
 17 16  2  0
 17 18  1  0
 18 19  2  0
 19 20  1  0
 20 12  1  0
 21 28  1  0
 22 21  2  0
 24 23  1  1
 24 25  1  0
 24 26  1  0
 27 26  1  1
 27 29  1  0
 28 27  1  0
 29 30  2  0
 29 31  1  0
M  END
$$$$
