IWL.pdb
     RDKit          3D

 31 32  0  0  1  0  0  0  0  0999 V2000
   29.5944  -20.5609  -18.5169 C   0  0  0  0  0  0  0  0  0  0  0  0
   28.5374  -19.9777  -17.5716 C   0  0  0  0  0  0  0  0  0  0  0  0
   27.2005  -20.0047  -18.2774 C   0  0  2  0  0  0  0  0  0  0  0  0
   27.2669  -19.3429  -19.6298 C   0  0  0  0  0  0  0  0  0  0  0  0
   26.0754  -19.5260  -17.4232 C   0  0  2  0  0  0  0  0  0  0  0  0
   26.2182  -18.0825  -17.2698 N   0  0  0  0  0  0  0  0  0  0  0  0
   25.9181  -20.2131  -16.1412 C   0  0  0  0  0  0  0  0  0  0  0  0
   25.6853  -21.4535  -16.1631 O   0  0  0  0  0  0  0  0  0  0  0  0
   26.0043  -19.6065  -14.8738 N   0  0  0  0  0  0  0  0  0  0  0  0
   25.6908  -20.3362  -13.6255 C   0  0  1  0  0  0  0  0  0  0  0  0
   26.6810  -19.9126  -12.5751 C   0  0  0  0  0  0  0  0  0  0  0  0
   26.6849  -20.7048  -11.3450 C   0  0  0  0  0  0  0  0  0  0  0  0
   26.8171  -22.0783  -11.1934 C   0  0  0  0  0  0  0  0  0  0  0  0
   26.7467  -22.4035   -9.8967 N   0  0  0  0  0  0  0  0  0  0  0  0
   26.5708  -21.2900   -9.1662 C   0  0  0  0  0  0  0  0  0  0  0  0
   26.4428  -21.1179   -7.8036 C   0  0  0  0  0  0  0  0  0  0  0  0
   26.2704  -19.8371   -7.3329 C   0  0  0  0  0  0  0  0  0  0  0  0
   26.2278  -18.7651   -8.2020 C   0  0  0  0  0  0  0  0  0  0  0  0
   26.3559  -18.9492   -9.5517 C   0  0  0  0  0  0  0  0  0  0  0  0
   26.5293  -20.2145  -10.0541 C   0  0  0  0  0  0  0  0  0  0  0  0
   24.3419  -19.8729  -13.2064 C   0  0  0  0  0  0  0  0  0  0  0  0
   24.0843  -18.6334  -13.2063 O   0  0  0  0  0  0  0  0  0  0  0  0
   21.2390  -19.8877  -16.1287 C   0  0  0  0  0  0  0  0  0  0  0  0
   21.1003  -20.6108  -14.7946 C   0  0  2  0  0  0  0  0  0  0  0  0
   19.8966  -21.4666  -14.7922 C   0  0  0  0  0  0  0  0  0  0  0  0
   21.3472  -19.7347  -13.6320 C   0  0  0  0  0  0  0  0  0  0  0  0
   22.0006  -20.2849  -12.4253 C   0  0  2  0  0  0  0  0  0  0  0  0
   23.3407  -20.7681  -12.8123 N   0  0  0  0  0  0  0  0  0  0  0  0
   21.3284  -21.3636  -11.7076 C   0  0  0  0  0  0  0  0  0  0  0  0
   21.7785  -22.5495  -11.6553 O   0  0  0  0  0  0  0  0  0  0  0  0
   20.1203  -21.0937  -11.0363 O   0  0  0  0  0  0  0  0  0  0  0  0
  2  1  1  0
  3  2  1  0
  3  4  1  6
  5  3  1  0
  5  6  1  1
  7  5  1  0
  8  7  2  0
  9  7  1  0
 10 21  1  0
 10  9  1  0
 10 11  1  1
 12 11  1  0
 13 12  2  0
 14 13  1  0
 15 14  1  0
 15 20  2  0
 16 15  1  0
 17 16  2  0
 17 18  1  0
 18 19  2  0
 19 20  1  0
 20 12  1  0
 21 28  1  0
 22 21  2  0
 24 23  1  6
 24 25  1  0
 24 26  1  0
 27 26  1  6
 27 29  1  0
 28 27  1  0
 29 30  2  0
 29 31  1  0
M  END
$$$$
