IWL.pdb
     RDKit          3D

 31 32  0  0  1  0  0  0  0  0999 V2000
   24.1234  -17.4655  -19.9827 C   0  0  0  0  0  0  0  0  0  0  0  0
   25.5015  -17.6064  -19.3254 C   0  0  0  0  0  0  0  0  0  0  0  0
   25.3549  -18.4688  -18.0921 C   0  0  2  0  0  0  0  0  0  0  0  0
   24.1494  -18.0796  -17.2757 C   0  0  0  0  0  0  0  0  0  0  0  0
   26.6135  -18.5794  -17.2995 C   0  0  2  0  0  0  0  0  0  0  0  0
   27.6667  -19.0336  -18.2008 N   0  0  0  0  0  0  0  0  0  0  0  0
   26.5268  -19.3905  -16.0850 C   0  0  0  0  0  0  0  0  0  0  0  0
   26.0480  -20.5539  -16.1874 O   0  0  0  0  0  0  0  0  0  0  0  0
   26.9340  -18.9833  -14.8005 N   0  0  0  0  0  0  0  0  0  0  0  0
   26.8765  -19.8864  -13.6300 C   0  0  1  0  0  0  0  0  0  0  0  0
   27.8386  -19.3713  -12.5943 C   0  0  0  0  0  0  0  0  0  0  0  0
   28.0262  -20.2214  -11.4184 C   0  0  0  0  0  0  0  0  0  0  0  0
   28.6223  -21.4722  -11.3334 C   0  0  0  0  0  0  0  0  0  0  0  0
   28.5707  -21.9179  -10.0721 N   0  0  0  0  0  0  0  0  0  0  0  0
   27.9571  -21.0051   -9.3009 C   0  0  0  0  0  0  0  0  0  0  0  0
   27.6713  -21.0122   -7.9515 C   0  0  0  0  0  0  0  0  0  0  0  0
   27.0221  -19.9184   -7.4283 C   0  0  0  0  0  0  0  0  0  0  0  0
   26.6718  -18.8531   -8.2336 C   0  0  0  0  0  0  0  0  0  0  0  0
   26.9609  -18.8582   -9.5710 C   0  0  0  0  0  0  0  0  0  0  0  0
   27.6080  -19.9344  -10.1247 C   0  0  0  0  0  0  0  0  0  0  0  0
   25.4988  -19.7657  -13.0851 C   0  0  0  0  0  0  0  0  0  0  0  0
   24.9459  -18.6276  -13.0436 O   0  0  0  0  0  0  0  0  0  0  0  0
   20.7333  -21.9122  -11.2686 C   0  0  0  0  0  0  0  0  0  0  0  0
   21.0488  -21.4611  -12.6895 C   0  0  2  0  0  0  0  0  0  0  0  0
   20.1374  -22.1107  -13.6533 C   0  0  0  0  0  0  0  0  0  0  0  0
   22.4954  -21.4450  -12.9849 C   0  0  0  0  0  0  0  0  0  0  0  0
   23.4205  -20.7306  -12.0795 C   0  0  2  0  0  0  0  0  0  0  0  0
   24.7877  -20.8765  -12.6163 N   0  0  0  0  0  0  0  0  0  0  0  0
   23.4499  -21.1221  -10.6737 C   0  0  0  0  0  0  0  0  0  0  0  0
   22.6915  -20.6100   -9.7937 O   0  0  0  0  0  0  0  0  0  0  0  0
   24.3584  -22.1134  -10.2555 O   0  0  0  0  0  0  0  0  0  0  0  0
  2  1  1  0
  3  2  1  0
  3  4  1  1
  5  3  1  0
  5  6  1  6
  7  5  1  0
  8  7  2  0
  9  7  1  0
 10 21  1  0
 10  9  1  0
 10 11  1  1
 12 11  1  0
 13 12  2  0
 14 13  1  0
 15 14  1  0
 15 20  2  0
 16 15  1  0
 17 16  2  0
 17 18  1  0
 18 19  2  0
 19 20  1  0
 20 12  1  0
 21 28  1  0
 22 21  2  0
 24 23  1  1
 24 25  1  0
 24 26  1  0
 27 26  1  6
 27 29  1  0
 28 27  1  0
 29 30  2  0
 29 31  1  0
M  END
$$$$
