IWL.pdb
     RDKit          3D

 31 32  0  0  1  0  0  0  0  0999 V2000
   15.8977  -14.2462  -21.3235 C   0  0  0  0  0  0  0  0  0  0  0  0
   17.0192  -14.3739  -20.2857 C   0  0  0  0  0  0  0  0  0  0  0  0
   16.5390  -15.2800  -19.1747 C   0  0  2  0  0  0  0  0  0  0  0  0
   15.2395  -14.7997  -18.5814 C   0  0  0  0  0  0  0  0  0  0  0  0
   17.5934  -15.5785  -18.1628 C   0  0  2  0  0  0  0  0  0  0  0  0
   18.7350  -16.1508  -18.8676 N   0  0  0  0  0  0  0  0  0  0  0  0
   17.1670  -16.3978  -17.0281 C   0  0  0  0  0  0  0  0  0  0  0  0
   17.0725  -17.6440  -17.2049 O   0  0  0  0  0  0  0  0  0  0  0  0
   16.8500  -15.9135  -15.7449 N   0  0  0  0  0  0  0  0  0  0  0  0
   16.4098  -16.8060  -14.6501 C   0  0  1  0  0  0  0  0  0  0  0  0
   17.1608  -16.4228  -13.4040 C   0  0  0  0  0  0  0  0  0  0  0  0
   18.4497  -17.0862  -13.2061 C   0  0  0  0  0  0  0  0  0  0  0  0
   19.6626  -16.8395  -13.8348 C   0  0  0  0  0  0  0  0  0  0  0  0
   20.5939  -17.6861  -13.3787 N   0  0  0  0  0  0  0  0  0  0  0  0
   20.0468  -18.4987  -12.4596 C   0  0  0  0  0  0  0  0  0  0  0  0
   20.6007  -19.5213  -11.7180 C   0  0  0  0  0  0  0  0  0  0  0  0
   19.7826  -20.1906  -10.8380 C   0  0  0  0  0  0  0  0  0  0  0  0
   18.4525  -19.8443  -10.7075 C   0  0  0  0  0  0  0  0  0  0  0  0
   17.9149  -18.8278  -11.4491 C   0  0  0  0  0  0  0  0  0  0  0  0
   18.7041  -18.1398  -12.3363 C   0  0  0  0  0  0  0  0  0  0  0  0
   14.9691  -16.5109  -14.4335 C   0  0  0  0  0  0  0  0  0  0  0  0
   14.5859  -15.3061  -14.3674 O   0  0  0  0  0  0  0  0  0  0  0  0
    9.6503  -19.2754  -15.5934 C   0  0  0  0  0  0  0  0  0  0  0  0
   10.3293  -18.0675  -14.9597 C   0  0  2  0  0  0  0  0  0  0  0  0
    9.7586  -16.8139  -15.4929 C   0  0  0  0  0  0  0  0  0  0  0  0
   11.7980  -18.2005  -14.8858 C   0  0  0  0  0  0  0  0  0  0  0  0
   12.5862  -17.2091  -14.1231 C   0  0  2  0  0  0  0  0  0  0  0  0
   14.0163  -17.5279  -14.3023 N   0  0  0  0  0  0  0  0  0  0  0  0
   12.3345  -17.0814  -12.6911 C   0  0  0  0  0  0  0  0  0  0  0  0
   13.0872  -17.5914  -11.8050 O   0  0  0  0  0  0  0  0  0  0  0  0
   11.2057  -16.3622  -12.2534 O   0  0  0  0  0  0  0  0  0  0  0  0
  2  1  1  0
  3  2  1  0
  3  4  1  1
  5  3  1  0
  5  6  1  6
  7  5  1  0
  8  7  2  0
  9  7  1  0
 10 21  1  0
 10  9  1  0
 10 11  1  1
 12 11  1  0
 13 12  2  0
 14 13  1  0
 15 14  1  0
 15 20  2  0
 16 15  1  0
 17 16  2  0
 17 18  1  0
 18 19  2  0
 19 20  1  0
 20 12  1  0
 21 28  1  0
 22 21  2  0
 24 23  1  6
 24 25  1  0
 24 26  1  0
 27 26  1  1
 27 29  1  0
 28 27  1  0
 29 30  2  0
 29 31  1  0
M  END
$$$$
