IWL.pdb
     RDKit          3D

 31 32  0  0  1  0  0  0  0  0999 V2000
   26.3070  -21.8409  -19.3601 C   0  0  0  0  0  0  0  0  0  0  0  0
   27.1568  -22.2549  -18.1528 C   0  0  0  0  0  0  0  0  0  0  0  0
   26.2809  -22.2238  -16.9208 C   0  0  2  0  0  0  0  0  0  0  0  0
   25.4803  -20.9499  -16.8339 C   0  0  0  0  0  0  0  0  0  0  0  0
   27.0162  -22.5639  -15.6684 C   0  0  2  0  0  0  0  0  0  0  0  0
   27.5627  -23.9072  -15.8260 N   0  0  0  0  0  0  0  0  0  0  0  0
   26.2567  -22.4099  -14.4275 C   0  0  0  0  0  0  0  0  0  0  0  0
   25.3938  -23.2893  -14.1528 O   0  0  0  0  0  0  0  0  0  0  0  0
   26.4050  -21.3571  -13.5049 N   0  0  0  0  0  0  0  0  0  0  0  0
   25.6131  -21.2824  -12.2573 C   0  0  1  0  0  0  0  0  0  0  0  0
   26.2529  -20.2598  -11.3581 C   0  0  0  0  0  0  0  0  0  0  0  0
   27.4748  -20.6855  -10.6753 C   0  0  0  0  0  0  0  0  0  0  0  0
   28.5609  -21.3828  -11.1864 C   0  0  0  0  0  0  0  0  0  0  0  0
   29.4648  -21.5916  -10.2211 N   0  0  0  0  0  0  0  0  0  0  0  0
   29.0220  -21.0558   -9.0716 C   0  0  0  0  0  0  0  0  0  0  0  0
   29.5946  -21.0162   -7.8174 C   0  0  0  0  0  0  0  0  0  0  0  0
   28.8958  -20.3871   -6.8136 C   0  0  0  0  0  0  0  0  0  0  0  0
   27.6631  -19.8168   -7.0615 C   0  0  0  0  0  0  0  0  0  0  0  0
   27.1059  -19.8629   -8.3103 C   0  0  0  0  0  0  0  0  0  0  0  0
   27.7770  -20.4831   -9.3341 C   0  0  0  0  0  0  0  0  0  0  0  0
   24.2711  -20.7793  -12.6520 C   0  0  0  0  0  0  0  0  0  0  0  0
   24.1805  -19.6912  -13.2928 O   0  0  0  0  0  0  0  0  0  0  0  0
   18.9798  -23.4722  -14.0235 C   0  0  0  0  0  0  0  0  0  0  0  0
   19.6877  -22.1354  -13.8400 C   0  0  2  0  0  0  0  0  0  0  0  0
   19.5760  -21.3180  -15.0650 C   0  0  0  0  0  0  0  0  0  0  0  0
   21.0089  -22.2630  -13.1932 C   0  0  0  0  0  0  0  0  0  0  0  0
   21.7943  -21.0489  -12.8848 C   0  0  2  0  0  0  0  0  0  0  0  0
   23.0977  -21.4752  -12.3388 N   0  0  0  0  0  0  0  0  0  0  0  0
   21.2226  -20.0731  -11.9621 C   0  0  0  0  0  0  0  0  0  0  0  0
   20.4836  -19.1115  -12.3378 O   0  0  0  0  0  0  0  0  0  0  0  0
   21.4950  -20.1878  -10.5854 O   0  0  0  0  0  0  0  0  0  0  0  0
  2  1  1  0
  3  2  1  0
  3  4  1  1
  5  3  1  0
  5  6  1  6
  7  5  1  0
  8  7  2  0
  9  7  1  0
 10 21  1  0
 10  9  1  0
 10 11  1  1
 12 11  1  0
 13 12  2  0
 14 13  1  0
 15 14  1  0
 15 20  2  0
 16 15  1  0
 17 16  2  0
 17 18  1  0
 18 19  2  0
 19 20  1  0
 20 12  1  0
 21 28  1  0
 22 21  2  0
 24 23  1  6
 24 25  1  0
 24 26  1  0
 27 26  1  1
 27 29  1  0
 28 27  1  0
 29 30  2  0
 29 31  1  0
M  END
$$$$
