MVY.pdb
     RDKit          3D

 28 28  0  0  1  0  0  0  0  0999 V2000
   35.0805  -25.0102  -20.4098 C   0  0  0  0  0  0  0  0  0  0  0  0
   33.8275  -26.2026  -19.9029 S   0  0  0  0  0  0  0  0  0  0  0  0
   33.7027  -27.5956  -21.0247 C   0  0  0  0  0  0  0  0  0  0  0  0
   32.6959  -28.6252  -20.5507 C   0  0  0  0  0  0  0  0  0  0  0  0
   32.7373  -29.8774  -21.3778 C   0  0  2  0  0  0  0  0  0  0  0  0
   31.9992  -29.6092  -22.5919 N   0  0  0  0  0  0  0  0  0  0  0  0
   32.1446  -31.0343  -20.6331 C   0  0  0  0  0  0  0  0  0  0  0  0
   30.9141  -31.2666  -20.6636 O   0  0  0  0  0  0  0  0  0  0  0  0
   33.5188  -34.6297  -20.7376 C   0  0  0  0  0  0  0  0  0  0  0  0
   33.4639  -34.1365  -19.3304 C   0  0  2  0  0  0  0  0  0  0  0  0
   33.2993  -35.2680  -18.3349 C   0  0  0  0  0  0  0  0  0  0  0  0
   32.5294  -33.0197  -19.1199 C   0  0  2  0  0  0  0  0  0  0  0  0
   32.9853  -31.8764  -19.8852 N   0  0  0  0  0  0  0  0  0  0  0  0
   32.0266  -32.7206  -17.7944 C   0  0  0  0  0  0  0  0  0  0  0  0
   32.8469  -32.3200  -16.8957 O   0  0  0  0  0  0  0  0  0  0  0  0
   25.2009  -29.9228  -18.8942 O   0  0  0  0  0  0  0  0  0  0  0  0
   26.3563  -30.1984  -18.1933 C   0  0  0  0  0  0  0  0  0  0  0  0
   26.2543  -30.8342  -16.9750 C   0  0  0  0  0  0  0  0  0  0  0  0
   27.3884  -31.1254  -16.2471 C   0  0  0  0  0  0  0  0  0  0  0  0
   28.6747  -30.8049  -16.6837 C   0  0  0  0  0  0  0  0  0  0  0  0
   29.8712  -31.1034  -15.8744 C   0  0  0  0  0  0  0  0  0  0  0  0
   30.2562  -32.5314  -16.0118 C   0  0  2  0  0  0  0  0  0  0  0  0
   30.7032  -32.8263  -17.3865 N   0  0  0  0  0  0  0  0  0  0  0  0
   29.1122  -33.4094  -15.7393 C   0  0  0  0  0  0  0  0  0  0  0  0
   28.6194  -34.1328  -16.6274 O   0  0  0  0  0  0  0  0  0  0  0  0
   28.7366  -30.1620  -17.9210 C   0  0  0  0  0  0  0  0  0  0  0  0
   27.6099  -29.8676  -18.6543 C   0  0  0  0  0  0  0  0  0  0  0  0
   28.5417  -33.4618  -14.4807 O   0  0  0  0  0  0  0  0  0  0  0  0
  1  2  1  0
  3  2  1  0
  4  3  1  0
  5  4  1  0
  5  6  1  6
  7  5  1  0
  8  7  2  0
 10  9  1  6
 10 12  1  0
 11 10  1  0
 12 14  1  0
 12 13  1  1
 13  7  1  0
 14 23  1  0
 15 14  2  0
 17 16  1  0
 17 18  2  0
 19 18  1  0
 20 19  2  0
 21 20  1  0
 22 24  1  0
 22 21  1  6
 23 22  1  0
 24 25  2  0
 24 28  1  0
 26 27  2  0
 26 20  1  0
 27 17  1  0
M  END
$$$$
