MVY.pdb
     RDKit          3D

 28 28  0  0  1  0  0  0  0  0999 V2000
   18.7130  -32.6496  -13.6963 C   0  0  0  0  0  0  0  0  0  0  0  0
   19.9076  -33.1129  -12.4285 S   0  0  0  0  0  0  0  0  0  0  0  0
   20.6711  -34.7041  -12.7444 C   0  0  0  0  0  0  0  0  0  0  0  0
   21.5702  -35.1448  -11.6061 C   0  0  0  0  0  0  0  0  0  0  0  0
   22.8857  -34.4214  -11.6136 C   0  0  2  0  0  0  0  0  0  0  0  0
   23.6275  -34.9004  -12.7586 N   0  0  0  0  0  0  0  0  0  0  0  0
   23.6416  -34.6654  -10.3434 C   0  0  0  0  0  0  0  0  0  0  0  0
   24.1059  -35.7960  -10.0691 O   0  0  0  0  0  0  0  0  0  0  0  0
   25.1466  -31.3139   -8.0151 C   0  0  0  0  0  0  0  0  0  0  0  0
   25.6196  -32.7230   -8.1458 C   0  0  2  0  0  0  0  0  0  0  0  0
   26.6350  -32.8834   -9.2601 C   0  0  0  0  0  0  0  0  0  0  0  0
   24.5384  -33.7203   -8.1796 C   0  0  2  0  0  0  0  0  0  0  0  0
   23.8339  -33.6053   -9.4410 N   0  0  0  0  0  0  0  0  0  0  0  0
   23.7015  -33.9383   -7.0172 C   0  0  0  0  0  0  0  0  0  0  0  0
   22.6550  -33.2160   -6.8622 O   0  0  0  0  0  0  0  0  0  0  0  0
   19.0449  -36.4005   -0.1293 O   0  0  0  0  0  0  0  0  0  0  0  0
   19.8061  -36.3365   -1.2776 C   0  0  0  0  0  0  0  0  0  0  0  0
   20.9800  -37.0561   -1.3331 C   0  0  0  0  0  0  0  0  0  0  0  0
   21.7658  -37.0157   -2.4653 C   0  0  0  0  0  0  0  0  0  0  0  0
   21.4334  -36.2659   -3.5946 C   0  0  0  0  0  0  0  0  0  0  0  0
   22.3041  -36.2181   -4.7842 C   0  0  0  0  0  0  0  0  0  0  0  0
   23.1100  -34.9705   -4.7962 C   0  0  2  0  0  0  0  0  0  0  0  0
   23.9250  -34.8818   -6.0228 N   0  0  0  0  0  0  0  0  0  0  0  0
   24.0425  -34.9399   -3.6632 C   0  0  0  0  0  0  0  0  0  0  0  0
   25.1821  -35.4398   -3.7431 O   0  0  0  0  0  0  0  0  0  0  0  0
   20.2384  -35.5513   -3.4998 C   0  0  0  0  0  0  0  0  0  0  0  0
   19.4479  -35.5859   -2.3738 C   0  0  0  0  0  0  0  0  0  0  0  0
   23.6834  -34.3520   -2.4643 O   0  0  0  0  0  0  0  0  0  0  0  0
  1  2  1  0
  3  2  1  0
  4  3  1  0
  5  4  1  0
  5  6  1  6
  7  5  1  0
  8  7  2  0
 10  9  1  6
 10 12  1  0
 11 10  1  0
 12 14  1  0
 12 13  1  6
 13  7  1  0
 14 23  1  0
 15 14  2  0
 17 16  1  0
 17 18  2  0
 19 18  1  0
 20 19  2  0
 21 20  1  0
 22 24  1  0
 22 21  1  6
 23 22  1  0
 24 25  2  0
 24 28  1  0
 26 27  2  0
 26 20  1  0
 27 17  1  0
M  END
$$$$
