MVY.pdb
     RDKit          3D

 28 28  0  0  1  0  0  0  0  0999 V2000
   26.3551  -17.5396  -17.9699 C   0  0  0  0  0  0  0  0  0  0  0  0
   28.1305  -17.6825  -17.6932 S   0  0  0  0  0  0  0  0  0  0  0  0
   28.5646  -19.1142  -16.7051 C   0  0  0  0  0  0  0  0  0  0  0  0
   27.3859  -19.6418  -15.9111 C   0  0  0  0  0  0  0  0  0  0  0  0
   27.7672  -20.8029  -15.0391 C   0  0  2  0  0  0  0  0  0  0  0  0
   28.1452  -21.8876  -15.9174 N   0  0  0  0  0  0  0  0  0  0  0  0
   26.6308  -21.2036  -14.1489 C   0  0  0  0  0  0  0  0  0  0  0  0
   25.7848  -22.0518  -14.5149 O   0  0  0  0  0  0  0  0  0  0  0  0
   27.0848  -21.5572  -10.3137 C   0  0  0  0  0  0  0  0  0  0  0  0
   25.8698  -20.7372  -10.5929 C   0  0  2  0  0  0  0  0  0  0  0  0
   24.7845  -20.9536   -9.5567 C   0  0  0  0  0  0  0  0  0  0  0  0
   25.3908  -20.8241  -11.9814 C   0  0  2  0  0  0  0  0  0  0  0  0
   26.5110  -20.6168  -12.8775 N   0  0  0  0  0  0  0  0  0  0  0  0
   24.1527  -20.1824  -12.3744 C   0  0  0  0  0  0  0  0  0  0  0  0
   24.1741  -18.9463  -12.7098 O   0  0  0  0  0  0  0  0  0  0  0  0
   17.9077  -17.0909  -17.1641 O   0  0  0  0  0  0  0  0  0  0  0  0
   18.8867  -17.8328  -16.5370 C   0  0  0  0  0  0  0  0  0  0  0  0
   19.9660  -17.1740  -15.9892 C   0  0  0  0  0  0  0  0  0  0  0  0
   20.9633  -17.8837  -15.3547 C   0  0  0  0  0  0  0  0  0  0  0  0
   20.9450  -19.2737  -15.2297 C   0  0  0  0  0  0  0  0  0  0  0  0
   22.0373  -20.0128  -14.5692 C   0  0  0  0  0  0  0  0  0  0  0  0
   21.7475  -20.1996  -13.1245 C   0  0  2  0  0  0  0  0  0  0  0  0
   22.9054  -20.7911  -12.4273 N   0  0  0  0  0  0  0  0  0  0  0  0
   20.6204  -21.1198  -12.9325 C   0  0  0  0  0  0  0  0  0  0  0  0
   20.7658  -22.3554  -13.0170 O   0  0  0  0  0  0  0  0  0  0  0  0
   19.8368  -19.9044  -15.7970 C   0  0  0  0  0  0  0  0  0  0  0  0
   18.8368  -19.2040  -16.4321 C   0  0  0  0  0  0  0  0  0  0  0  0
   19.3540  -20.6416  -12.6502 O   0  0  0  0  0  0  0  0  0  0  0  0
  1  2  1  0
  3  2  1  0
  4  3  1  0
  5  4  1  0
  5  6  1  6
  7  5  1  0
  8  7  2  0
 10  9  1  6
 10 12  1  0
 11 10  1  0
 12 14  1  0
 12 13  1  6
 13  7  1  0
 14 23  1  0
 15 14  2  0
 17 16  1  0
 17 18  2  0
 19 18  1  0
 20 19  2  0
 21 20  1  0
 22 24  1  0
 22 21  1  6
 23 22  1  0
 24 25  2  0
 24 28  1  0
 26 27  2  0
 26 20  1  0
 27 17  1  0
M  END
$$$$
