MVY.pdb
     RDKit          3D

 28 28  0  0  1  0  0  0  0  0999 V2000
   20.0496  -15.2469  -14.9519 C   0  0  0  0  0  0  0  0  0  0  0  0
   18.4316  -15.7432  -15.5723 S   0  0  0  0  0  0  0  0  0  0  0  0
   18.0201  -14.9654  -17.1344 C   0  0  0  0  0  0  0  0  0  0  0  0
   18.6988  -13.6201  -17.3014 C   0  0  0  0  0  0  0  0  0  0  0  0
   18.4541  -13.0295  -18.6598 C   0  0  2  0  0  0  0  0  0  0  0  0
   19.1873  -13.8343  -19.6113 N   0  0  0  0  0  0  0  0  0  0  0  0
   18.8963  -11.5991  -18.7125 C   0  0  0  0  0  0  0  0  0  0  0  0
   19.8595  -11.2413  -19.4291 O   0  0  0  0  0  0  0  0  0  0  0  0
   17.6918   -7.0358  -18.7843 C   0  0  0  0  0  0  0  0  0  0  0  0
   17.5417   -8.5204  -18.7801 C   0  0  2  0  0  0  0  0  0  0  0  0
   16.1089   -8.9487  -18.5309 C   0  0  0  0  0  0  0  0  0  0  0  0
   18.5258   -9.2226  -17.9414 C   0  0  2  0  0  0  0  0  0  0  0  0
   18.2175  -10.6388  -17.9430 N   0  0  0  0  0  0  0  0  0  0  0  0
   18.9265   -8.6745  -16.6615 C   0  0  0  0  0  0  0  0  0  0  0  0
   18.2150   -8.9300  -15.6273 O   0  0  0  0  0  0  0  0  0  0  0  0
   23.4559  -12.9011  -14.8875 O   0  0  0  0  0  0  0  0  0  0  0  0
   23.0798  -11.5746  -14.9205 C   0  0  0  0  0  0  0  0  0  0  0  0
   22.7159  -10.9615  -13.7412 C   0  0  0  0  0  0  0  0  0  0  0  0
   22.3345   -9.6366  -13.7368 C   0  0  0  0  0  0  0  0  0  0  0  0
   22.2934   -8.8539  -14.8917 C   0  0  0  0  0  0  0  0  0  0  0  0
   21.8564   -7.4454  -14.8653 C   0  0  0  0  0  0  0  0  0  0  0  0
   20.3940   -7.3439  -15.1047 C   0  0  2  0  0  0  0  0  0  0  0  0
   20.0399   -7.8760  -16.4344 N   0  0  0  0  0  0  0  0  0  0  0  0
   19.9560   -5.9433  -15.0769 C   0  0  0  0  0  0  0  0  0  0  0  0
   19.6014   -5.3505  -16.1150 O   0  0  0  0  0  0  0  0  0  0  0  0
   22.6685   -9.5101  -16.0650 C   0  0  0  0  0  0  0  0  0  0  0  0
   23.0506  -10.8321  -16.0786 C   0  0  0  0  0  0  0  0  0  0  0  0
   19.9232   -5.2334  -13.8907 O   0  0  0  0  0  0  0  0  0  0  0  0
  1  2  1  0
  3  2  1  0
  4  3  1  0
  5  4  1  0
  5  6  1  6
  7  5  1  0
  8  7  2  0
 10  9  1  1
 10 12  1  0
 11 10  1  0
 12 14  1  0
 12 13  1  1
 13  7  1  0
 14 23  1  0
 15 14  2  0
 17 16  1  0
 17 18  2  0
 19 18  1  0
 20 19  2  0
 21 20  1  0
 22 24  1  0
 22 21  1  6
 23 22  1  0
 24 25  2  0
 24 28  1  0
 26 27  2  0
 26 20  1  0
 27 17  1  0
M  END
$$$$
