MVY.pdb
     RDKit          3D

 28 28  0  0  1  0  0  0  0  0999 V2000
   28.2105  -29.0412  -16.0341 C   0  0  0  0  0  0  0  0  0  0  0  0
   26.4616  -29.2936  -16.3900 S   0  0  0  0  0  0  0  0  0  0  0  0
   25.7679  -27.9939  -17.4118 C   0  0  0  0  0  0  0  0  0  0  0  0
   26.2062  -26.6145  -16.9610 C   0  0  0  0  0  0  0  0  0  0  0  0
   25.6208  -25.5287  -17.8167 C   0  0  2  0  0  0  0  0  0  0  0  0
   26.2217  -25.6495  -19.1263 N   0  0  0  0  0  0  0  0  0  0  0  0
   25.8850  -24.1771  -17.2270 C   0  0  0  0  0  0  0  0  0  0  0  0
   26.9781  -23.5916  -17.4044 O   0  0  0  0  0  0  0  0  0  0  0  0
   22.7354  -21.4694  -16.4450 C   0  0  0  0  0  0  0  0  0  0  0  0
   24.2072  -21.2806  -16.6012 C   0  0  2  0  0  0  0  0  0  0  0  0
   24.6140  -21.1417  -18.0551 C   0  0  0  0  0  0  0  0  0  0  0  0
   25.0215  -22.2462  -15.8465 C   0  0  2  0  0  0  0  0  0  0  0  0
   24.8870  -23.5528  -16.4592 N   0  0  0  0  0  0  0  0  0  0  0  0
   25.0214  -22.2355  -14.3977 C   0  0  0  0  0  0  0  0  0  0  0  0
   24.0850  -22.8470  -13.7731 O   0  0  0  0  0  0  0  0  0  0  0  0
   26.3416  -20.2730   -5.9122 O   0  0  0  0  0  0  0  0  0  0  0  0
   26.5151  -20.4524   -7.2686 C   0  0  0  0  0  0  0  0  0  0  0  0
   26.5072  -19.3445   -8.0880 C   0  0  0  0  0  0  0  0  0  0  0  0
   26.6779  -19.4865   -9.4487 C   0  0  0  0  0  0  0  0  0  0  0  0
   26.8642  -20.7243  -10.0661 C   0  0  0  0  0  0  0  0  0  0  0  0
   27.0183  -20.8528  -11.5273 C   0  0  0  0  0  0  0  0  0  0  0  0
   25.8032  -21.4547  -12.1334 C   0  0  2  0  0  0  0  0  0  0  0  0
   25.9642  -21.6107  -13.5916 N   0  0  0  0  0  0  0  0  0  0  0  0
   24.6336  -20.5929  -11.9247 C   0  0  0  0  0  0  0  0  0  0  0  0
   24.4257  -19.5920  -12.6387 O   0  0  0  0  0  0  0  0  0  0  0  0
   26.8658  -21.8215   -9.2036 C   0  0  0  0  0  0  0  0  0  0  0  0
   26.6962  -21.6890   -7.8443 C   0  0  0  0  0  0  0  0  0  0  0  0
   23.7204  -20.8664  -10.9231 O   0  0  0  0  0  0  0  0  0  0  0  0
  1  2  1  0
  3  2  1  0
  4  3  1  0
  5  4  1  0
  5  6  1  6
  7  5  1  0
  8  7  2  0
 10  9  1  6
 10 12  1  0
 11 10  1  0
 12 14  1  0
 12 13  1  1
 13  7  1  0
 14 23  1  0
 15 14  2  0
 17 16  1  0
 17 18  2  0
 19 18  1  0
 20 19  2  0
 21 20  1  0
 22 24  1  0
 22 21  1  6
 23 22  1  0
 24 25  2  0
 24 28  1  0
 26 27  2  0
 26 20  1  0
 27 17  1  0
M  END
$$$$
