MVY.pdb
     RDKit          3D

 28 28  0  0  1  0  0  0  0  0999 V2000
   24.6443  -17.3474  -17.0200 C   0  0  0  0  0  0  0  0  0  0  0  0
   25.6454  -18.4882  -17.9923 S   0  0  0  0  0  0  0  0  0  0  0  0
   26.4978  -19.6978  -16.9800 C   0  0  0  0  0  0  0  0  0  0  0  0
   26.2310  -19.4980  -15.5011 C   0  0  0  0  0  0  0  0  0  0  0  0
   26.9731  -20.4914  -14.6546 C   0  0  2  0  0  0  0  0  0  0  0  0
   27.5590  -21.4612  -15.5529 N   0  0  0  0  0  0  0  0  0  0  0  0
   26.0555  -21.1540  -13.6731 C   0  0  0  0  0  0  0  0  0  0  0  0
   25.3782  -22.1588  -13.9907 O   0  0  0  0  0  0  0  0  0  0  0  0
   25.4933  -19.8655   -9.2733 C   0  0  0  0  0  0  0  0  0  0  0  0
   25.7028  -21.1184  -10.0561 C   0  0  2  0  0  0  0  0  0  0  0  0
   27.1644  -21.5169  -10.1155 C   0  0  0  0  0  0  0  0  0  0  0  0
   25.0305  -21.1303  -11.3648 C   0  0  2  0  0  0  0  0  0  0  0  0
   25.9519  -20.6387  -12.3697 N   0  0  0  0  0  0  0  0  0  0  0  0
   23.6637  -20.6674  -11.4943 C   0  0  0  0  0  0  0  0  0  0  0  0
   23.4490  -19.4274  -11.7336 O   0  0  0  0  0  0  0  0  0  0  0  0
   15.9912  -20.4397  -15.5128 O   0  0  0  0  0  0  0  0  0  0  0  0
   17.2514  -20.6922  -15.0125 C   0  0  0  0  0  0  0  0  0  0  0  0
   17.4785  -21.8880  -14.3664 C   0  0  0  0  0  0  0  0  0  0  0  0
   18.7260  -22.1739  -13.8539 C   0  0  0  0  0  0  0  0  0  0  0  0
   19.8075  -21.2972  -13.9531 C   0  0  0  0  0  0  0  0  0  0  0  0
   21.1260  -21.6148  -13.3733 C   0  0  0  0  0  0  0  0  0  0  0  0
   21.2298  -21.0940  -11.9861 C   0  0  2  0  0  0  0  0  0  0  0  0
   22.5264  -21.4568  -11.3831 N   0  0  0  0  0  0  0  0  0  0  0  0
   20.1866  -21.6730  -11.1313 C   0  0  0  0  0  0  0  0  0  0  0  0
   20.3432  -22.7735  -10.5663 O   0  0  0  0  0  0  0  0  0  0  0  0
   19.5380  -20.0975  -14.6133 C   0  0  0  0  0  0  0  0  0  0  0  0
   18.2959  -19.8039  -15.1281 C   0  0  0  0  0  0  0  0  0  0  0  0
   18.9900  -21.0113  -10.9249 O   0  0  0  0  0  0  0  0  0  0  0  0
  1  2  1  0
  3  2  1  0
  4  3  1  0
  5  4  1  0
  5  6  1  6
  7  5  1  0
  8  7  2  0
 10  9  1  6
 10 12  1  0
 11 10  1  0
 12 14  1  0
 12 13  1  6
 13  7  1  0
 14 23  1  0
 15 14  2  0
 17 16  1  0
 17 18  2  0
 19 18  1  0
 20 19  2  0
 21 20  1  0
 22 24  1  0
 22 21  1  6
 23 22  1  0
 24 25  2  0
 24 28  1  0
 26 27  2  0
 26 20  1  0
 27 17  1  0
M  END
$$$$
