MVY.pdb
     RDKit          3D

 28 28  0  0  1  0  0  0  0  0999 V2000
   26.6413  -15.6526  -15.0788 C   0  0  0  0  0  0  0  0  0  0  0  0
   27.9993  -16.3102  -16.0649 S   0  0  0  0  0  0  0  0  0  0  0  0
   28.6882  -17.8163  -15.3782 C   0  0  0  0  0  0  0  0  0  0  0  0
   27.6249  -18.7053  -14.7641 C   0  0  0  0  0  0  0  0  0  0  0  0
   28.2123  -19.9352  -14.1345 C   0  0  2  0  0  0  0  0  0  0  0  0
   28.8238  -20.7046  -15.1950 N   0  0  0  0  0  0  0  0  0  0  0  0
   27.1593  -20.7343  -13.4295 C   0  0  0  0  0  0  0  0  0  0  0  0
   26.5616  -21.6737  -14.0033 O   0  0  0  0  0  0  0  0  0  0  0  0
   24.7142  -21.3257   -9.1617 C   0  0  0  0  0  0  0  0  0  0  0  0
   25.8102  -20.7225   -9.9748 C   0  0  2  0  0  0  0  0  0  0  0  0
   26.1468  -19.3146   -9.5244 C   0  0  0  0  0  0  0  0  0  0  0  0
   25.6225  -20.8518  -11.4285 C   0  0  2  0  0  0  0  0  0  0  0  0
   26.8351  -20.4244  -12.0975 N   0  0  0  0  0  0  0  0  0  0  0  0
   24.3854  -20.4271  -12.0516 C   0  0  0  0  0  0  0  0  0  0  0  0
   24.2857  -19.2219  -12.4741 O   0  0  0  0  0  0  0  0  0  0  0  0
   24.1886  -26.1578  -15.6877 O   0  0  0  0  0  0  0  0  0  0  0  0
   23.7692  -24.8757  -15.4008 C   0  0  0  0  0  0  0  0  0  0  0  0
   22.5267  -24.6988  -14.8316 C   0  0  0  0  0  0  0  0  0  0  0  0
   22.0751  -23.4312  -14.5314 C   0  0  0  0  0  0  0  0  0  0  0  0
   22.8244  -22.2796  -14.7769 C   0  0  0  0  0  0  0  0  0  0  0  0
   22.3083  -20.9322  -14.4709 C   0  0  0  0  0  0  0  0  0  0  0  0
   22.0820  -20.7746  -13.0114 C   0  0  2  0  0  0  0  0  0  0  0  0
   23.2612  -21.2195  -12.2446 N   0  0  0  0  0  0  0  0  0  0  0  0
   20.9506  -21.5968  -12.5664 C   0  0  0  0  0  0  0  0  0  0  0  0
   21.1052  -22.5392  -11.7646 O   0  0  0  0  0  0  0  0  0  0  0  0
   24.0760  -22.4997  -15.3538 C   0  0  0  0  0  0  0  0  0  0  0  0
   24.5348  -23.7614  -15.6567 C   0  0  0  0  0  0  0  0  0  0  0  0
   19.6699  -21.3501  -13.0259 O   0  0  0  0  0  0  0  0  0  0  0  0
  1  2  1  0
  3  2  1  0
  4  3  1  0
  5  4  1  0
  5  6  1  6
  7  5  1  0
  8  7  2  0
 10  9  1  1
 10 12  1  0
 11 10  1  0
 12 14  1  0
 12 13  1  6
 13  7  1  0
 14 23  1  0
 15 14  2  0
 17 16  1  0
 17 18  2  0
 19 18  1  0
 20 19  2  0
 21 20  1  0
 22 24  1  0
 22 21  1  6
 23 22  1  0
 24 25  2  0
 24 28  1  0
 26 27  2  0
 26 20  1  0
 27 17  1  0
M  END
$$$$
