MVY.pdb
     RDKit          3D

 28 28  0  0  1  0  0  0  0  0999 V2000
   19.3579  -15.7639  -13.6390 C   0  0  0  0  0  0  0  0  0  0  0  0
   18.9666  -16.9884  -14.9026 S   0  0  0  0  0  0  0  0  0  0  0  0
   20.0027  -16.8374  -16.3580 C   0  0  0  0  0  0  0  0  0  0  0  0
   20.2523  -15.3908  -16.7367 C   0  0  0  0  0  0  0  0  0  0  0  0
   19.7484  -15.0734  -18.1148 C   0  0  2  0  0  0  0  0  0  0  0  0
   20.6099  -15.7606  -19.0509 N   0  0  0  0  0  0  0  0  0  0  0  0
   19.7552  -13.5960  -18.3634 C   0  0  0  0  0  0  0  0  0  0  0  0
   20.8141  -12.9874  -18.6417 O   0  0  0  0  0  0  0  0  0  0  0  0
   16.9564  -11.9909  -20.5195 C   0  0  0  0  0  0  0  0  0  0  0  0
   17.1255  -11.2364  -19.2434 C   0  0  2  0  0  0  0  0  0  0  0  0
   16.7652   -9.7715  -19.3941 C   0  0  0  0  0  0  0  0  0  0  0  0
   18.4167  -11.4646  -18.5756 C   0  0  2  0  0  0  0  0  0  0  0  0
   18.5498  -12.8779  -18.2830 N   0  0  0  0  0  0  0  0  0  0  0  0
   18.8754  -10.5678  -17.5343 C   0  0  0  0  0  0  0  0  0  0  0  0
   18.3713  -10.6703  -16.3611 O   0  0  0  0  0  0  0  0  0  0  0  0
   22.7538   -3.8119  -13.3655 O   0  0  0  0  0  0  0  0  0  0  0  0
   22.5000   -4.9189  -14.1480 C   0  0  0  0  0  0  0  0  0  0  0  0
   22.1864   -4.7311  -15.4766 C   0  0  0  0  0  0  0  0  0  0  0  0
   21.9269   -5.8150  -16.2883 C   0  0  0  0  0  0  0  0  0  0  0  0
   21.9639   -7.1331  -15.8308 C   0  0  0  0  0  0  0  0  0  0  0  0
   21.6565   -8.2747  -16.7127 C   0  0  0  0  0  0  0  0  0  0  0  0
   20.2268   -8.6599  -16.5954 C   0  0  2  0  0  0  0  0  0  0  0  0
   19.8378   -9.5775  -17.6831 N   0  0  0  0  0  0  0  0  0  0  0  0
   19.3579   -7.4819  -16.7019 C   0  0  0  0  0  0  0  0  0  0  0  0
   19.0256   -7.0148  -17.8092 O   0  0  0  0  0  0  0  0  0  0  0  0
   22.2847   -7.2821  -14.4807 C   0  0  0  0  0  0  0  0  0  0  0  0
   22.5452   -6.2060  -13.6633 C   0  0  0  0  0  0  0  0  0  0  0  0
   18.8780   -6.8494  -15.5697 O   0  0  0  0  0  0  0  0  0  0  0  0
  1  2  1  0
  3  2  1  0
  4  3  1  0
  5  4  1  0
  5  6  1  6
  7  5  1  0
  8  7  2  0
 10  9  1  6
 10 12  1  0
 11 10  1  0
 12 14  1  0
 12 13  1  1
 13  7  1  0
 14 23  1  0
 15 14  2  0
 17 16  1  0
 17 18  2  0
 19 18  1  0
 20 19  2  0
 21 20  1  0
 22 24  1  0
 22 21  1  6
 23 22  1  0
 24 25  2  0
 24 28  1  0
 26 27  2  0
 26 20  1  0
 27 17  1  0
M  END
$$$$
