MVY.pdb
     RDKit          3D

 28 28  0  0  1  0  0  0  0  0999 V2000
   27.1281  -21.1534  -23.4807 C   0  0  0  0  0  0  0  0  0  0  0  0
   25.7619  -21.9693  -24.3274 S   0  0  0  0  0  0  0  0  0  0  0  0
   24.5946  -22.7217  -23.1935 C   0  0  0  0  0  0  0  0  0  0  0  0
   25.2485  -23.1410  -21.8917 C   0  0  0  0  0  0  0  0  0  0  0  0
   24.7619  -22.3270  -20.7279 C   0  0  2  0  0  0  0  0  0  0  0  0
   24.5899  -20.9712  -21.2001 N   0  0  0  0  0  0  0  0  0  0  0  0
   25.7344  -22.3801  -19.5896 C   0  0  0  0  0  0  0  0  0  0  0  0
   26.0415  -23.4659  -19.0457 O   0  0  0  0  0  0  0  0  0  0  0  0
   28.3230  -18.9486  -18.5695 C   0  0  0  0  0  0  0  0  0  0  0  0
   28.4567  -20.4283  -18.4311 C   0  0  2  0  0  0  0  0  0  0  0  0
   29.1064  -21.0591  -19.6470 C   0  0  0  0  0  0  0  0  0  0  0  0
   27.2249  -21.1061  -17.9974 C   0  0  2  0  0  0  0  0  0  0  0  0
   26.3142  -21.1884  -19.1220 N   0  0  0  0  0  0  0  0  0  0  0  0
   26.6141  -20.7796  -16.7248 C   0  0  0  0  0  0  0  0  0  0  0  0
   25.7434  -19.8412  -16.6775 O   0  0  0  0  0  0  0  0  0  0  0  0
   24.0969  -20.3199   -8.3048 O   0  0  0  0  0  0  0  0  0  0  0  0
   24.6371  -20.7423   -9.5015 C   0  0  0  0  0  0  0  0  0  0  0  0
   26.0074  -20.7374   -9.6461 C   0  0  0  0  0  0  0  0  0  0  0  0
   26.5819  -21.1531  -10.8285 C   0  0  0  0  0  0  0  0  0  0  0  0
   25.8353  -21.5926  -11.9228 C   0  0  0  0  0  0  0  0  0  0  0  0
   26.4723  -22.0076  -13.1868 C   0  0  0  0  0  0  0  0  0  0  0  0
   26.2884  -20.9702  -14.2338 C   0  0  2  0  0  0  0  0  0  0  0  0
   26.8843  -21.4014  -15.5127 N   0  0  0  0  0  0  0  0  0  0  0  0
   26.9566  -19.7200  -13.8536 C   0  0  0  0  0  0  0  0  0  0  0  0
   26.3098  -18.7263  -13.4676 O   0  0  0  0  0  0  0  0  0  0  0  0
   24.4520  -21.5827  -11.7378 C   0  0  0  0  0  0  0  0  0  0  0  0
   23.8701  -21.1696  -10.5611 C   0  0  0  0  0  0  0  0  0  0  0  0
   28.3334  -19.6049  -13.9124 O   0  0  0  0  0  0  0  0  0  0  0  0
  1  2  1  0
  3  2  1  0
  4  3  1  0
  5  4  1  0
  5  6  1  6
  7  5  1  0
  8  7  2  0
 10  9  1  6
 10 12  1  0
 11 10  1  0
 12 14  1  0
 12 13  1  6
 13  7  1  0
 14 23  1  0
 15 14  2  0
 17 16  1  0
 17 18  2  0
 19 18  1  0
 20 19  2  0
 21 20  1  0
 22 24  1  0
 22 21  1  1
 23 22  1  0
 24 25  2  0
 24 28  1  0
 26 27  2  0
 26 20  1  0
 27 17  1  0
M  END
$$$$
