SIG.pdb
     RDKit          3D

 19 18  0  0  1  0  0  0  0  0999 V2000
   23.9347  -12.4112  -14.8317 O   0  0  0  0  0  0  0  0  0  0  0  0
   23.3621  -11.1406  -15.0521 C   0  0  0  0  0  0  0  0  0  0  0  0
   22.6926  -11.2245  -16.4308 C   0  0  2  0  0  0  0  0  0  0  0  0
   23.7251  -11.2432  -17.4048 N   0  0  0  0  0  0  0  0  0  0  0  0
   21.9065   -9.9745  -16.6216 C   0  0  0  0  0  0  0  0  0  0  0  0
   22.3655   -8.9813  -17.2689 O   0  0  0  0  0  0  0  0  0  0  0  0
   17.1767  -10.9458  -16.8068 C   0  0  0  0  0  0  0  0  0  0  0  0
   17.9611   -9.8025  -17.4160 C   0  0  0  0  0  0  0  0  0  0  0  0
   18.3622   -8.8750  -16.2945 C   0  0  2  0  0  0  0  0  0  0  0  0
   17.6538   -7.5555  -16.4930 C   0  0  0  0  0  0  0  0  0  0  0  0
   19.8472   -8.6390  -16.2453 C   0  0  2  0  0  0  0  0  0  0  0  0
   20.5985   -9.8540  -16.0763 N   0  0  0  0  0  0  0  0  0  0  0  0
   20.1445   -7.6465  -15.1824 C   0  0  0  0  0  0  0  0  0  0  0  0
   20.0496   -7.9824  -13.9751 O   0  0  0  0  0  0  0  0  0  0  0  0
   20.5373   -6.3142  -15.5145 N   0  0  0  0  0  0  0  0  0  0  0  0
   20.8569   -5.4219  -14.4211 C   0  0  0  0  0  0  0  0  0  0  0  0
   22.2547   -5.6285  -13.9619 C   0  0  0  0  0  0  0  0  0  0  0  0
   22.7868   -4.7429  -13.0473 O   0  0  0  0  0  0  0  0  0  0  0  0
   22.9661   -6.5751  -14.3740 O   0  0  0  0  0  0  0  0  0  0  0  0
  2  1  1  0
  3  4  1  6
  3  2  1  0
  5  6  2  0
  5  3  1  0
  8  7  1  0
  8  9  1  0
  9 11  1  0
  9 10  1  6
 11 13  1  0
 11 12  1  1
 12  5  1  0
 13 15  1  0
 14 13  2  0
 15 16  1  0
 16 17  1  0
 17 19  2  0
 17 18  1  0
M  END
$$$$
