SIG.pdb
     RDKit          3D

 19 18  0  0  1  0  0  0  0  0999 V2000
   20.4386  -13.8485  -17.1692 O   0  0  0  0  0  0  0  0  0  0  0  0
   21.4228  -13.7087  -18.1706 C   0  0  0  0  0  0  0  0  0  0  0  0
   22.7054  -14.3036  -17.5731 C   0  0  2  0  0  0  0  0  0  0  0  0
   22.3367  -15.4656  -16.8457 N   0  0  0  0  0  0  0  0  0  0  0  0
   23.2484  -13.3113  -16.6050 C   0  0  0  0  0  0  0  0  0  0  0  0
   22.9675  -13.3544  -15.3659 O   0  0  0  0  0  0  0  0  0  0  0  0
   28.2762  -12.2731  -15.9082 C   0  0  0  0  0  0  0  0  0  0  0  0
   26.7818  -12.4863  -15.7870 C   0  0  0  0  0  0  0  0  0  0  0  0
   26.1050  -11.1805  -16.1275 C   0  0  2  0  0  0  0  0  0  0  0  0
   26.5373  -10.1438  -15.1173 C   0  0  0  0  0  0  0  0  0  0  0  0
   24.6045  -11.2893  -16.1164 C   0  0  2  0  0  0  0  0  0  0  0  0
   24.1108  -12.2699  -17.0460 N   0  0  0  0  0  0  0  0  0  0  0  0
   24.0202   -9.9466  -16.3589 C   0  0  0  0  0  0  0  0  0  0  0  0
   24.3324   -9.3118  -17.3976 O   0  0  0  0  0  0  0  0  0  0  0  0
   23.1072   -9.3667  -15.4262 N   0  0  0  0  0  0  0  0  0  0  0  0
   22.5789   -8.0562  -15.7382 C   0  0  0  0  0  0  0  0  0  0  0  0
   21.7593   -7.5355  -14.6137 C   0  0  0  0  0  0  0  0  0  0  0  0
   21.2454   -6.2585  -14.7074 O   0  0  0  0  0  0  0  0  0  0  0  0
   21.5185   -8.2122  -13.5860 O   0  0  0  0  0  0  0  0  0  0  0  0
  2  1  1  0
  3  4  1  1
  3  2  1  0
  5  6  2  0
  5  3  1  0
  8  7  1  0
  8  9  1  0
  9 11  1  0
  9 10  1  1
 11 13  1  0
 11 12  1  6
 12  5  1  0
 13 15  1  0
 14 13  2  0
 15 16  1  0
 16 17  1  0
 17 19  2  0
 17 18  1  0
M  END
$$$$
