SIG.pdb
     RDKit          3D

 19 18  0  0  1  0  0  0  0  0999 V2000
   28.0561   -9.7322  -18.6471 O   0  0  0  0  0  0  0  0  0  0  0  0
   28.6278  -10.6670  -17.7581 C   0  0  0  0  0  0  0  0  0  0  0  0
   27.9198  -11.9976  -18.0489 C   0  0  2  0  0  0  0  0  0  0  0  0
   27.8810  -12.1597  -19.4586 N   0  0  0  0  0  0  0  0  0  0  0  0
   26.5177  -11.8720  -17.5643 C   0  0  0  0  0  0  0  0  0  0  0  0
   25.5650  -11.5355  -18.3358 O   0  0  0  0  0  0  0  0  0  0  0  0
   25.9126  -15.1696  -14.5905 C   0  0  0  0  0  0  0  0  0  0  0  0
   24.7580  -14.5581  -15.3564 C   0  0  0  0  0  0  0  0  0  0  0  0
   24.5043  -13.1855  -14.7813 C   0  0  2  0  0  0  0  0  0  0  0  0
   23.0459  -13.0933  -14.3981 C   0  0  0  0  0  0  0  0  0  0  0  0
   24.8334  -12.0843  -15.7520 C   0  0  2  0  0  0  0  0  0  0  0  0
   26.1990  -12.1290  -16.2022 N   0  0  0  0  0  0  0  0  0  0  0  0
   24.4914  -10.7779  -15.1360 C   0  0  0  0  0  0  0  0  0  0  0  0
   25.2256  -10.3068  -14.2313 O   0  0  0  0  0  0  0  0  0  0  0  0
   23.3380  -10.0493  -15.5585 N   0  0  0  0  0  0  0  0  0  0  0  0
   23.1033   -8.7598  -14.9454 C   0  0  0  0  0  0  0  0  0  0  0  0
   21.8498   -8.1505  -15.4600 C   0  0  0  0  0  0  0  0  0  0  0  0
   21.4558   -6.9272  -14.9578 O   0  0  0  0  0  0  0  0  0  0  0  0
   21.1393   -8.7057  -16.3311 O   0  0  0  0  0  0  0  0  0  0  0  0
  2  1  1  0
  3  4  1  6
  3  2  1  0
  5  6  2  0
  5  3  1  0
  8  7  1  0
  8  9  1  0
  9 11  1  0
  9 10  1  6
 11 13  1  0
 11 12  1  1
 12  5  1  0
 13 15  1  0
 14 13  2  0
 15 16  1  0
 16 17  1  0
 17 19  2  0
 17 18  1  0
M  END
$$$$
