SIG.pdb
     RDKit          3D

 19 18  0  0  1  0  0  0  0  0999 V2000
   15.9720  -10.1153  -18.0236 O   0  0  0  0  0  0  0  0  0  0  0  0
   16.6132   -9.3980  -16.9915 C   0  0  0  0  0  0  0  0  0  0  0  0
   17.6721  -10.3530  -16.4230 C   0  0  2  0  0  0  0  0  0  0  0  0
   16.9870  -11.3741  -15.7136 N   0  0  0  0  0  0  0  0  0  0  0  0
   18.4868   -9.5831  -15.4432 C   0  0  0  0  0  0  0  0  0  0  0  0
   18.1489   -9.4747  -14.2225 O   0  0  0  0  0  0  0  0  0  0  0  0
   23.3845  -10.4745  -14.1975 C   0  0  0  0  0  0  0  0  0  0  0  0
   21.9237  -10.0879  -14.2977 C   0  0  0  0  0  0  0  0  0  0  0  0
   21.8618   -8.6520  -14.7598 C   0  0  2  0  0  0  0  0  0  0  0  0
   22.5826   -7.7952  -13.7455 C   0  0  0  0  0  0  0  0  0  0  0  0
   20.4496   -8.1569  -14.9142 C   0  0  2  0  0  0  0  0  0  0  0  0
   19.6859   -8.9365  -15.8515 N   0  0  0  0  0  0  0  0  0  0  0  0
   20.4783   -6.7181  -15.2777 C   0  0  0  0  0  0  0  0  0  0  0  0
   21.0511   -6.3563  -16.3362 O   0  0  0  0  0  0  0  0  0  0  0  0
   19.8628   -5.7392  -14.4394 N   0  0  0  0  0  0  0  0  0  0  0  0
   19.8983   -4.3631  -14.8855 C   0  0  0  0  0  0  0  0  0  0  0  0
   21.1646   -3.7059  -14.4709 C   0  0  0  0  0  0  0  0  0  0  0  0
   22.0867   -4.4417  -13.7552 O   0  0  0  0  0  0  0  0  0  0  0  0
   21.4250   -2.5109  -14.7469 O   0  0  0  0  0  0  0  0  0  0  0  0
  2  1  1  0
  3  4  1  1
  3  2  1  0
  5  6  2  0
  5  3  1  0
  8  7  1  0
  8  9  1  0
  9 11  1  0
  9 10  1  1
 11 13  1  0
 11 12  1  6
 12  5  1  0
 13 15  1  0
 14 13  2  0
 15 16  1  0
 16 17  1  0
 17 19  2  0
 17 18  1  0
M  END
$$$$
