SIG.pdb
     RDKit          3D

 19 18  0  0  1  0  0  0  0  0999 V2000
   20.2076  -13.1680  -19.5584 O   0  0  0  0  0  0  0  0  0  0  0  0
   20.6216  -12.2779  -18.5448 C   0  0  0  0  0  0  0  0  0  0  0  0
   21.8253  -12.9518  -17.8718 C   0  0  2  0  0  0  0  0  0  0  0  0
   21.3347  -14.0617  -17.1352 N   0  0  0  0  0  0  0  0  0  0  0  0
   22.3979  -11.9771  -16.9029 C   0  0  0  0  0  0  0  0  0  0  0  0
   21.8525  -11.7440  -15.7785 O   0  0  0  0  0  0  0  0  0  0  0  0
   27.5635  -11.9699  -15.7037 C   0  0  0  0  0  0  0  0  0  0  0  0
   26.0504  -11.9069  -15.7097 C   0  0  0  0  0  0  0  0  0  0  0  0
   25.6530  -10.5110  -16.1250 C   0  0  2  0  0  0  0  0  0  0  0  0
   26.1645   -9.5422  -15.0848 C   0  0  0  0  0  0  0  0  0  0  0  0
   24.1631  -10.3527  -16.2611 C   0  0  2  0  0  0  0  0  0  0  0  0
   23.5909  -11.2673  -17.2127 N   0  0  0  0  0  0  0  0  0  0  0  0
   23.8548   -8.9388  -16.5912 C   0  0  0  0  0  0  0  0  0  0  0  0
   24.3692   -8.4126  -17.6100 O   0  0  0  0  0  0  0  0  0  0  0  0
   22.9807   -8.1684  -15.7653 N   0  0  0  0  0  0  0  0  0  0  0  0
   22.7594   -6.7873  -16.1360 C   0  0  0  0  0  0  0  0  0  0  0  0
   21.7493   -6.1571  -15.2472 C   0  0  0  0  0  0  0  0  0  0  0  0
   21.0384   -6.9620  -14.3809 O   0  0  0  0  0  0  0  0  0  0  0  0
   21.5202   -4.9245  -15.2557 O   0  0  0  0  0  0  0  0  0  0  0  0
  2  1  1  0
  3  4  1  1
  3  2  1  0
  5  6  2  0
  5  3  1  0
  8  7  1  0
  8  9  1  0
  9 11  1  0
  9 10  1  1
 11 13  1  0
 11 12  1  6
 12  5  1  0
 13 15  1  0
 14 13  2  0
 15 16  1  0
 16 17  1  0
 17 19  2  0
 17 18  1  0
M  END
$$$$
