SIG.pdb
     RDKit          3D

 19 18  0  0  1  0  0  0  0  0999 V2000
   15.1610   -9.5902  -16.5853 O   0  0  0  0  0  0  0  0  0  0  0  0
   16.0652   -9.1680  -15.5877 C   0  0  0  0  0  0  0  0  0  0  0  0
   16.9533  -10.3854  -15.2953 C   0  0  2  0  0  0  0  0  0  0  0  0
   16.2698  -11.1933  -14.3491 N   0  0  0  0  0  0  0  0  0  0  0  0
   18.1996   -9.8843  -14.6532 C   0  0  0  0  0  0  0  0  0  0  0  0
   18.2619   -9.6289  -13.4095 O   0  0  0  0  0  0  0  0  0  0  0  0
   24.0205  -10.9190  -14.5398 C   0  0  0  0  0  0  0  0  0  0  0  0
   22.9948   -9.8286  -14.3110 C   0  0  0  0  0  0  0  0  0  0  0  0
   21.7189  -10.2500  -14.9991 C   0  0  2  0  0  0  0  0  0  0  0  0
   21.9984  -10.3835  -16.4778 C   0  0  0  0  0  0  0  0  0  0  0  0
   20.6004   -9.2654  -14.7920 C   0  0  2  0  0  0  0  0  0  0  0  0
   19.3751   -9.6737  -15.4256 N   0  0  0  0  0  0  0  0  0  0  0  0
   21.0450   -7.9249  -15.2487 C   0  0  0  0  0  0  0  0  0  0  0  0
   21.0992   -7.6743  -16.4790 O   0  0  0  0  0  0  0  0  0  0  0  0
   21.4122   -6.9158  -14.3071 N   0  0  0  0  0  0  0  0  0  0  0  0
   21.7490   -5.6088  -14.8289 C   0  0  0  0  0  0  0  0  0  0  0  0
   22.1562   -4.6915  -13.7334 C   0  0  0  0  0  0  0  0  0  0  0  0
   22.5309   -3.4033  -14.0561 O   0  0  0  0  0  0  0  0  0  0  0  0
   22.1716   -5.0442  -12.5304 O   0  0  0  0  0  0  0  0  0  0  0  0
  2  1  1  0
  3  4  1  1
  3  2  1  0
  5  6  2  0
  5  3  1  0
  8  7  1  0
  8  9  1  0
  9 11  1  0
  9 10  1  6
 11 13  1  0
 11 12  1  6
 12  5  1  0
 13 15  1  0
 14 13  2  0
 15 16  1  0
 16 17  1  0
 17 19  2  0
 17 18  1  0
M  END
$$$$
