SIG.pdb
     RDKit          3D

 19 18  0  0  1  0  0  0  0  0999 V2000
   24.7441  -15.5363  -16.0778 O   0  0  0  0  0  0  0  0  0  0  0  0
   24.4659  -16.9080  -15.8985 C   0  0  0  0  0  0  0  0  0  0  0  0
   25.8342  -17.6014  -15.8413 C   0  0  2  0  0  0  0  0  0  0  0  0
   26.3005  -17.7330  -17.1755 N   0  0  0  0  0  0  0  0  0  0  0  0
   25.6183  -18.9695  -15.2952 C   0  0  0  0  0  0  0  0  0  0  0  0
   25.3036  -19.9509  -16.0395 O   0  0  0  0  0  0  0  0  0  0  0  0
   28.7881  -20.2390  -11.6582 C   0  0  0  0  0  0  0  0  0  0  0  0
   27.9436  -20.9528  -12.6930 C   0  0  0  0  0  0  0  0  0  0  0  0
   26.5042  -20.8673  -12.2458 C   0  0  2  0  0  0  0  0  0  0  0  0
   26.1163  -22.1946  -11.6373 C   0  0  0  0  0  0  0  0  0  0  0  0
   25.5671  -20.5472  -13.3783 C   0  0  2  0  0  0  0  0  0  0  0  0
   25.7601  -19.2216  -13.9027 N   0  0  0  0  0  0  0  0  0  0  0  0
   24.1704  -20.7716  -12.9289 C   0  0  0  0  0  0  0  0  0  0  0  0
   23.6455  -19.9745  -12.1113 O   0  0  0  0  0  0  0  0  0  0  0  0
   23.4152  -21.8825  -13.4141 N   0  0  0  0  0  0  0  0  0  0  0  0
   22.0734  -22.0513  -12.8994 C   0  0  0  0  0  0  0  0  0  0  0  0
   21.0810  -21.3868  -13.7831 C   0  0  0  0  0  0  0  0  0  0  0  0
   20.3393  -20.3409  -13.2736 O   0  0  0  0  0  0  0  0  0  0  0  0
   20.8937  -21.7407  -14.9712 O   0  0  0  0  0  0  0  0  0  0  0  0
  2  1  1  0
  3  4  1  6
  3  2  1  0
  5  6  2  0
  5  3  1  0
  8  7  1  0
  8  9  1  0
  9 11  1  0
  9 10  1  6
 11 13  1  0
 11 12  1  1
 12  5  1  0
 13 15  1  0
 14 13  2  0
 15 16  1  0
 16 17  1  0
 17 19  2  0
 17 18  1  0
M  END
$$$$
