SIG.pdb
     RDKit          3D

 19 18  0  0  1  0  0  0  0  0999 V2000
   15.2227  -13.1945  -11.7046 O   0  0  0  0  0  0  0  0  0  0  0  0
   14.7999  -11.8810  -11.9996 C   0  0  0  0  0  0  0  0  0  0  0  0
   14.0819  -11.3863  -10.7363 C   0  0  2  0  0  0  0  0  0  0  0  0
   12.7759  -11.9426  -10.7439 N   0  0  0  0  0  0  0  0  0  0  0  0
   13.9497   -9.9076  -10.8487 C   0  0  0  0  0  0  0  0  0  0  0  0
   13.0301   -9.3630  -11.5370 O   0  0  0  0  0  0  0  0  0  0  0  0
   14.0499   -5.2379   -7.2224 C   0  0  0  0  0  0  0  0  0  0  0  0
   14.1621   -5.6391   -8.6784 C   0  0  0  0  0  0  0  0  0  0  0  0
   14.4885   -7.1124   -8.7223 C   0  0  2  0  0  0  0  0  0  0  0  0
   15.7847   -7.3342   -7.9787 C   0  0  0  0  0  0  0  0  0  0  0  0
   14.6275   -7.6300  -10.1281 C   0  0  2  0  0  0  0  0  0  0  0  0
   14.8633   -9.0482  -10.1782 N   0  0  0  0  0  0  0  0  0  0  0  0
   15.6909   -6.8625  -10.8233 C   0  0  0  0  0  0  0  0  0  0  0  0
   16.8976   -7.0949  -10.5599 O   0  0  0  0  0  0  0  0  0  0  0  0
   15.3600   -5.8629  -11.7882 N   0  0  0  0  0  0  0  0  0  0  0  0
   16.4532   -5.1302  -12.3899 C   0  0  0  0  0  0  0  0  0  0  0  0
   16.3183   -3.6734  -12.1314 C   0  0  0  0  0  0  0  0  0  0  0  0
   17.3295   -2.8325  -12.5488 O   0  0  0  0  0  0  0  0  0  0  0  0
   15.3223   -3.1820  -11.5498 O   0  0  0  0  0  0  0  0  0  0  0  0
  2  1  1  0
  3  4  1  6
  3  2  1  0
  5  6  2  0
  5  3  1  0
  8  7  1  0
  8  9  1  0
  9 11  1  0
  9 10  1  1
 11 13  1  0
 11 12  1  1
 12  5  1  0
 13 15  1  0
 14 13  2  0
 15 16  1  0
 16 17  1  0
 17 19  2  0
 17 18  1  0
M  END
$$$$
