SIG.pdb
     RDKit          3D

 19 18  0  0  1  0  0  0  0  0999 V2000
   19.1741  -10.2697  -14.1789 O   0  0  0  0  0  0  0  0  0  0  0  0
   18.1895   -9.3038  -13.8809 C   0  0  0  0  0  0  0  0  0  0  0  0
   17.1075  -10.0501  -13.0882 C   0  0  2  0  0  0  0  0  0  0  0  0
   16.3265  -10.7826  -14.0201 N   0  0  0  0  0  0  0  0  0  0  0  0
   16.2284   -9.0256  -12.4602 C   0  0  0  0  0  0  0  0  0  0  0  0
   15.3584   -8.3827  -13.1278 O   0  0  0  0  0  0  0  0  0  0  0  0
   12.2929   -8.5451   -8.3425 C   0  0  0  0  0  0  0  0  0  0  0  0
   13.3501   -7.6784   -8.9941 C   0  0  0  0  0  0  0  0  0  0  0  0
   14.3814   -8.5968   -9.6041 C   0  0  2  0  0  0  0  0  0  0  0  0
   15.0912   -9.3233   -8.4857 C   0  0  0  0  0  0  0  0  0  0  0  0
   15.3928   -7.8557  -10.4355 C   0  0  2  0  0  0  0  0  0  0  0  0
   16.3388   -8.7322  -11.0729 N   0  0  0  0  0  0  0  0  0  0  0  0
   16.0601   -6.8349   -9.5896 C   0  0  0  0  0  0  0  0  0  0  0  0
   16.9400   -7.1900   -8.7655 O   0  0  0  0  0  0  0  0  0  0  0  0
   15.7147   -5.4535   -9.7002 N   0  0  0  0  0  0  0  0  0  0  0  0
   16.4230   -4.5197   -8.8516 C   0  0  0  0  0  0  0  0  0  0  0  0
   15.9624   -3.1287   -9.0969 C   0  0  0  0  0  0  0  0  0  0  0  0
   16.4419   -2.1216   -8.2848 O   0  0  0  0  0  0  0  0  0  0  0  0
   15.1564   -2.8377  -10.0122 O   0  0  0  0  0  0  0  0  0  0  0  0
  2  1  1  0
  3  4  1  6
  3  2  1  0
  5  6  2  0
  5  3  1  0
  8  7  1  0
  8  9  1  0
  9 11  1  0
  9 10  1  1
 11 13  1  0
 11 12  1  1
 12  5  1  0
 13 15  1  0
 14 13  2  0
 15 16  1  0
 16 17  1  0
 17 19  2  0
 17 18  1  0
M  END
$$$$
