SIG.pdb
     RDKit          3D

 19 18  0  0  1  0  0  0  0  0999 V2000
   24.8678    1.2190  -12.2087 O   0  0  0  0  0  0  0  0  0  0  0  0
   24.8752    2.3573  -11.3749 C   0  0  0  0  0  0  0  0  0  0  0  0
   23.8436    2.0688  -10.2755 C   0  0  2  0  0  0  0  0  0  0  0  0
   22.7323    2.9232  -10.5000 N   0  0  0  0  0  0  0  0  0  0  0  0
   24.4591    2.4513   -8.9750 C   0  0  0  0  0  0  0  0  0  0  0  0
   24.3156    3.6118   -8.4763 O   0  0  0  0  0  0  0  0  0  0  0  0
   23.8508    2.2144   -4.7275 C   0  0  0  0  0  0  0  0  0  0  0  0
   24.0991    0.9153   -5.4652 C   0  0  0  0  0  0  0  0  0  0  0  0
   25.5480    0.9005   -5.8890 C   0  0  2  0  0  0  0  0  0  0  0  0
   26.3984    1.2318   -4.6852 C   0  0  0  0  0  0  0  0  0  0  0  0
   25.8370    1.8866   -6.9879 C   0  0  2  0  0  0  0  0  0  0  0  0
   25.2379    1.5141   -8.2416 N   0  0  0  0  0  0  0  0  0  0  0  0
   27.3059    2.0663   -7.1028 C   0  0  0  0  0  0  0  0  0  0  0  0
   27.9807    1.2482   -7.7772 O   0  0  0  0  0  0  0  0  0  0  0  0
   27.9623    3.1576   -6.4564 N   0  0  0  0  0  0  0  0  0  0  0  0
   29.3737    3.3368   -6.7207 C   0  0  0  0  0  0  0  0  0  0  0  0
   29.9195    4.4699   -5.9298 C   0  0  0  0  0  0  0  0  0  0  0  0
   31.2791    4.7026   -5.9616 O   0  0  0  0  0  0  0  0  0  0  0  0
   29.1919    5.2197   -5.2367 O   0  0  0  0  0  0  0  0  0  0  0  0
  2  1  1  0
  3  4  1  6
  3  2  1  0
  5  6  2  0
  5  3  1  0
  8  7  1  0
  8  9  1  0
  9 11  1  0
  9 10  1  1
 11 13  1  0
 11 12  1  6
 12  5  1  0
 13 15  1  0
 14 13  2  0
 15 16  1  0
 16 17  1  0
 17 19  2  0
 17 18  1  0
M  END
$$$$
