SIG.pdb
     RDKit          3D

 19 18  0  0  1  0  0  0  0  0999 V2000
   22.7056  -11.3834  -21.9678 O   0  0  0  0  0  0  0  0  0  0  0  0
   22.6057  -11.0843  -20.5924 C   0  0  0  0  0  0  0  0  0  0  0  0
   23.4700  -12.1334  -19.8792 C   0  0  2  0  0  0  0  0  0  0  0  0
   22.7442  -13.3534  -19.8786 N   0  0  0  0  0  0  0  0  0  0  0  0
   23.6280  -11.6945  -18.4654 C   0  0  0  0  0  0  0  0  0  0  0  0
   22.7353  -11.9138  -17.5873 O   0  0  0  0  0  0  0  0  0  0  0  0
   28.3008  -12.3893  -15.9519 C   0  0  0  0  0  0  0  0  0  0  0  0
   26.8261  -12.3206  -16.2896 C   0  0  0  0  0  0  0  0  0  0  0  0
   26.4039  -10.8739  -16.2004 C   0  0  2  0  0  0  0  0  0  0  0  0
   26.5273  -10.4310  -14.7613 C   0  0  0  0  0  0  0  0  0  0  0  0
   24.9905  -10.6564  -16.6675 C   0  0  2  0  0  0  0  0  0  0  0  0
   24.8013  -11.0062  -18.0500 N   0  0  0  0  0  0  0  0  0  0  0  0
   24.5994   -9.2520  -16.3886 C   0  0  0  0  0  0  0  0  0  0  0  0
   25.2100   -8.3126  -16.9579 O   0  0  0  0  0  0  0  0  0  0  0  0
   23.5375   -8.9547  -15.4811 N   0  0  0  0  0  0  0  0  0  0  0  0
   23.2295   -7.5597  -15.2504 C   0  0  0  0  0  0  0  0  0  0  0  0
   22.0174   -7.1540  -16.0078 C   0  0  0  0  0  0  0  0  0  0  0  0
   21.4507   -8.0597  -16.8809 O   0  0  0  0  0  0  0  0  0  0  0  0
   21.4926   -6.0223  -15.8828 O   0  0  0  0  0  0  0  0  0  0  0  0
  2  1  1  0
  3  4  1  1
  3  2  1  0
  5  6  2  0
  5  3  1  0
  8  7  1  0
  8  9  1  0
  9 11  1  0
  9 10  1  1
 11 13  1  0
 11 12  1  6
 12  5  1  0
 13 15  1  0
 14 13  2  0
 15 16  1  0
 16 17  1  0
 17 19  2  0
 17 18  1  0
M  END
$$$$
