SIG.pdb
     RDKit          3D

 19 18  0  0  1  0  0  0  0  0999 V2000
   20.5731   -9.7903  -20.8320 O   0  0  0  0  0  0  0  0  0  0  0  0
   20.6590   -9.5412  -19.4458 C   0  0  0  0  0  0  0  0  0  0  0  0
   21.4683  -10.7101  -18.8670 C   0  0  2  0  0  0  0  0  0  0  0  0
   20.5538  -11.7539  -18.5679 N   0  0  0  0  0  0  0  0  0  0  0  0
   22.0678  -10.2461  -17.5856 C   0  0  0  0  0  0  0  0  0  0  0  0
   21.4711  -10.3865  -16.4720 O   0  0  0  0  0  0  0  0  0  0  0  0
   27.0352  -11.4795  -16.3444 C   0  0  0  0  0  0  0  0  0  0  0  0
   25.5518  -11.1745  -16.3478 C   0  0  0  0  0  0  0  0  0  0  0  0
   25.3927   -9.6784  -16.2235 C   0  0  2  0  0  0  0  0  0  0  0  0
   25.9505   -9.2510  -14.8862 C   0  0  0  0  0  0  0  0  0  0  0  0
   23.9568   -9.2414  -16.3253 C   0  0  2  0  0  0  0  0  0  0  0  0
   23.3460   -9.6225  -17.5707 N   0  0  0  0  0  0  0  0  0  0  0  0
   23.8786   -7.7779  -16.0903 C   0  0  0  0  0  0  0  0  0  0  0  0
   24.4691   -6.9909  -16.8722 O   0  0  0  0  0  0  0  0  0  0  0  0
   23.1404   -7.2525  -14.9864 N   0  0  0  0  0  0  0  0  0  0  0  0
   23.1173   -5.8147  -14.8244 C   0  0  0  0  0  0  0  0  0  0  0  0
   21.9993   -5.2139  -15.5967 C   0  0  0  0  0  0  0  0  0  0  0  0
   21.8132   -3.8482  -15.5347 O   0  0  0  0  0  0  0  0  0  0  0  0
   21.2213   -5.9006  -16.3003 O   0  0  0  0  0  0  0  0  0  0  0  0
  2  1  1  0
  3  4  1  1
  3  2  1  0
  5  6  2  0
  5  3  1  0
  8  7  1  0
  8  9  1  0
  9 11  1  0
  9 10  1  1
 11 13  1  0
 11 12  1  6
 12  5  1  0
 13 15  1  0
 14 13  2  0
 15 16  1  0
 16 17  1  0
 17 19  2  0
 17 18  1  0
M  END
$$$$
