SIG.pdb
     RDKit          3D

 19 18  0  0  1  0  0  0  0  0999 V2000
   26.5370  -18.6881  -16.1457 O   0  0  0  0  0  0  0  0  0  0  0  0
   27.3694  -18.3193  -15.0677 C   0  0  0  0  0  0  0  0  0  0  0  0
   28.0242  -19.6224  -14.5888 C   0  0  2  0  0  0  0  0  0  0  0  0
   28.4779  -20.3185  -15.7398 N   0  0  0  0  0  0  0  0  0  0  0  0
   26.9627  -20.4448  -13.9458 C   0  0  0  0  0  0  0  0  0  0  0  0
   26.5312  -21.5192  -14.4707 O   0  0  0  0  0  0  0  0  0  0  0  0
   26.5260  -20.5677   -8.4982 C   0  0  0  0  0  0  0  0  0  0  0  0
   26.5954  -21.0418   -9.9348 C   0  0  0  0  0  0  0  0  0  0  0  0
   25.2953  -20.6654  -10.6034 C   0  0  2  0  0  0  0  0  0  0  0  0
   24.2018  -21.5455  -10.0450 C   0  0  0  0  0  0  0  0  0  0  0  0
   25.3483  -20.8271  -12.0982 C   0  0  2  0  0  0  0  0  0  0  0  0
   26.3920  -20.0454  -12.7059 N   0  0  0  0  0  0  0  0  0  0  0  0
   24.0134  -20.5135  -12.6665 C   0  0  0  0  0  0  0  0  0  0  0  0
   23.6254  -19.3193  -12.7181 O   0  0  0  0  0  0  0  0  0  0  0  0
   23.1640  -21.5523  -13.1555 N   0  0  0  0  0  0  0  0  0  0  0  0
   21.8247  -21.1825  -13.5597 C   0  0  0  0  0  0  0  0  0  0  0  0
   21.7507  -20.9913  -15.0312 C   0  0  0  0  0  0  0  0  0  0  0  0
   22.9172  -21.0583  -15.7650 O   0  0  0  0  0  0  0  0  0  0  0  0
   20.6704  -20.7720  -15.6283 O   0  0  0  0  0  0  0  0  0  0  0  0
  2  1  1  0
  3  4  1  6
  3  2  1  0
  5  6  2  0
  5  3  1  0
  8  7  1  0
  8  9  1  0
  9 11  1  0
  9 10  1  1
 11 13  1  0
 11 12  1  6
 12  5  1  0
 13 15  1  0
 14 13  2  0
 15 16  1  0
 16 17  1  0
 17 19  2  0
 17 18  1  0
M  END
$$$$
