SIG.pdb
     RDKit          3D

 19 18  0  0  1  0  0  0  0  0999 V2000
   23.3454   -8.2325  -22.6052 O   0  0  0  0  0  0  0  0  0  0  0  0
   22.6478   -8.2538  -21.3788 C   0  0  0  0  0  0  0  0  0  0  0  0
   23.7277   -8.1880  -20.2899 C   0  0  2  0  0  0  0  0  0  0  0  0
   24.6256   -9.2641  -20.5156 N   0  0  0  0  0  0  0  0  0  0  0  0
   23.0562   -8.4194  -18.9814 C   0  0  0  0  0  0  0  0  0  0  0  0
   21.8497   -8.8119  -18.9025 O   0  0  0  0  0  0  0  0  0  0  0  0
   25.8784  -10.4364  -14.8548 C   0  0  0  0  0  0  0  0  0  0  0  0
   24.8179  -10.1511  -15.8976 C   0  0  0  0  0  0  0  0  0  0  0  0
   24.0435   -8.9381  -15.4416 C   0  0  2  0  0  0  0  0  0  0  0  0
   23.2507   -9.3153  -14.2122 C   0  0  0  0  0  0  0  0  0  0  0  0
   23.1053   -8.4226  -16.4987 C   0  0  2  0  0  0  0  0  0  0  0  0
   23.7569   -8.2044  -17.7625 N   0  0  0  0  0  0  0  0  0  0  0  0
   22.4370   -7.1962  -15.9963 C   0  0  0  0  0  0  0  0  0  0  0  0
   23.1300   -6.2614  -15.5216 O   0  0  0  0  0  0  0  0  0  0  0  0
   21.0157   -7.0650  -16.0456 N   0  0  0  0  0  0  0  0  0  0  0  0
   20.4394   -5.8538  -15.5026 C   0  0  0  0  0  0  0  0  0  0  0  0
   18.9598   -5.8669  -15.6359 C   0  0  0  0  0  0  0  0  0  0  0  0
   18.2350   -4.8506  -15.0480 O   0  0  0  0  0  0  0  0  0  0  0  0
   18.3478   -6.7650  -16.2611 O   0  0  0  0  0  0  0  0  0  0  0  0
  2  1  1  0
  3  4  1  6
  3  2  1  0
  5  6  2  0
  5  3  1  0
  8  7  1  0
  8  9  1  0
  9 11  1  0
  9 10  1  1
 11 13  1  0
 11 12  1  6
 12  5  1  0
 13 15  1  0
 14 13  2  0
 15 16  1  0
 16 17  1  0
 17 19  2  0
 17 18  1  0
M  END
$$$$
