RHD.pdb
     RDKit          3D

 30 30  0  0  1  0  0  0  0  0999 V2000
   25.5298  -17.1229  -20.5459 N   0  0  0  0  0  0  0  0  0  0  0  0
   26.6955  -16.7668  -19.8017 C   0  0  0  0  0  0  0  0  0  0  0  0
   27.5057  -15.8526  -20.2118 N   0  0  0  0  0  0  0  0  0  0  0  0
   26.9745  -17.4306  -18.5823 N   0  0  0  0  0  0  0  0  0  0  0  0
   25.9384  -18.3188  -18.0465 C   0  0  0  0  0  0  0  0  0  0  0  0
   26.4197  -18.8438  -16.7262 C   0  0  0  0  0  0  0  0  0  0  0  0
   25.4898  -19.9011  -16.2035 C   0  0  0  0  0  0  0  0  0  0  0  0
   24.1264  -19.3112  -15.9581 C   0  0  2  0  0  0  0  0  0  0  0  0
   24.2649  -18.0304  -15.2893 N   0  0  0  0  0  0  0  0  0  0  0  0
   23.3033  -20.2221  -15.1017 C   0  0  0  0  0  0  0  0  0  0  0  0
   23.2417  -21.4175  -15.4516 O   0  0  0  0  0  0  0  0  0  0  0  0
   28.3581  -15.5969  -19.6856 N   0  0  0  0  0  0  0  0  0  0  0  0
   22.6442  -19.7179  -13.9630 C   0  0  1  0  0  0  0  0  0  0  0  0
   21.8684  -20.6459  -13.1180 C   0  0  0  0  0  0  0  0  0  0  0  0
   22.3487  -20.4299  -11.7154 C   0  0  0  0  0  0  0  0  0  0  0  0
   23.6505  -21.0473  -11.4185 C   0  0  0  0  0  0  0  0  0  0  0  0
   24.5321  -21.7710  -12.1631 N   0  0  0  0  0  0  0  0  0  0  0  0
   25.6079  -22.0436  -11.3879 C   0  0  0  0  0  0  0  0  0  0  0  0
   25.4089  -21.5059  -10.1916 N   0  0  0  0  0  0  0  0  0  0  0  0
   24.2222  -20.8945  -10.1910 C   0  0  0  0  0  0  0  0  0  0  0  0
   20.4555  -20.1188  -13.2197 O   0  0  0  0  0  0  0  0  0  0  0  0
   20.1361  -18.9333  -12.9792 N   0  0  0  0  0  0  0  0  0  0  0  0
   19.4077  -20.9806  -13.6043 C   0  0  1  0  0  0  0  0  0  0  0  0
   18.0437  -20.4531  -13.7894 C   0  0  0  0  0  0  0  0  0  0  0  0
   17.5275  -21.1028  -15.0217 C   0  0  0  0  0  0  0  0  0  0  0  0
   16.1803  -20.7905  -15.4487 O   0  0  0  0  0  0  0  0  0  0  0  0
   15.4687  -19.9374  -14.8897 C   0  0  0  0  0  0  0  0  0  0  0  0
   17.2597  -20.6314  -12.5736 O   0  0  0  0  0  0  0  0  0  0  0  0
   16.2872  -19.9139  -12.2977 O   0  0  0  0  0  0  0  0  0  0  0  0
   15.6357  -21.4645  -16.5338 O   0  0  0  0  0  0  0  0  0  0  0  0
  2  3  2  0
  2  1  1  0
  4  2  1  0
  5  4  1  0
  6  5  1  0
  7  6  1  0
  8  7  1  0
  8  9  1  1
 10 11  2  0
 10  8  1  0
 12 10  1  0
 13 20  1  0
 13 12  1  0
 13 14  1  6
 15 14  1  0
 16 15  2  0
 17 18  1  0
 17 16  1  0
 18 19  2  0
 19 15  1  0
 20 21  2  0
 22 23  1  0
 22 20  1  0
 23 24  1  1
 24 25  1  0
 25 26  2  0
 25 29  1  0
 27 23  1  0
 28 27  2  0
 30 27  1  0
M  END
$$$$
