RHD.pdb
     RDKit          3D

 30 30  0  0  1  0  0  0  0  0999 V2000
   32.1733  -25.1668  -18.0401 N   0  0  0  0  0  0  0  0  0  0  0  0
   32.1082  -25.2819  -16.6181 C   0  0  0  0  0  0  0  0  0  0  0  0
   33.0394  -25.8640  -15.9442 N   0  0  0  0  0  0  0  0  0  0  0  0
   30.9958  -24.7457  -15.9250 N   0  0  0  0  0  0  0  0  0  0  0  0
   29.7314  -24.6400  -16.6598 C   0  0  0  0  0  0  0  0  0  0  0  0
   29.6259  -23.2431  -17.1963 C   0  0  0  0  0  0  0  0  0  0  0  0
   29.0331  -22.3222  -16.1685 C   0  0  0  0  0  0  0  0  0  0  0  0
   27.5843  -22.6657  -15.9448 C   0  0  2  0  0  0  0  0  0  0  0  0
   27.0031  -23.1489  -17.1840 N   0  0  0  0  0  0  0  0  0  0  0  0
   26.8214  -21.4629  -15.4846 C   0  0  0  0  0  0  0  0  0  0  0  0
   27.2626  -20.8689  -14.4807 O   0  0  0  0  0  0  0  0  0  0  0  0
   32.9893  -25.9723  -14.9172 N   0  0  0  0  0  0  0  0  0  0  0  0
   25.6654  -21.0513  -16.1770 C   0  0  1  0  0  0  0  0  0  0  0  0
   25.0204  -19.7799  -15.7967 C   0  0  0  0  0  0  0  0  0  0  0  0
   25.3156  -18.8170  -16.9059 C   0  0  0  0  0  0  0  0  0  0  0  0
   26.6667  -18.2366  -16.8614 C   0  0  0  0  0  0  0  0  0  0  0  0
   27.7792  -18.4011  -17.6298 N   0  0  0  0  0  0  0  0  0  0  0  0
   28.7367  -17.5663  -17.1619 C   0  0  0  0  0  0  0  0  0  0  0  0
   28.2401  -16.8960  -16.1305 N   0  0  0  0  0  0  0  0  0  0  0  0
   26.9803  -17.2903  -15.9323 C   0  0  0  0  0  0  0  0  0  0  0  0
   23.5453  -20.1069  -15.8354 O   0  0  0  0  0  0  0  0  0  0  0  0
   23.0310  -20.9073  -16.6479 N   0  0  0  0  0  0  0  0  0  0  0  0
   22.6636  -19.4956  -14.9201 C   0  0  1  0  0  0  0  0  0  0  0  0
   21.2314  -19.8443  -14.9243 C   0  0  0  0  0  0  0  0  0  0  0  0
   20.8451  -19.9648  -13.4948 C   0  0  0  0  0  0  0  0  0  0  0  0
   20.9862  -21.2542  -12.8527 O   0  0  0  0  0  0  0  0  0  0  0  0
   20.7190  -21.4517  -11.6542 C   0  0  0  0  0  0  0  0  0  0  0  0
   20.4782  -18.8928  -15.7316 O   0  0  0  0  0  0  0  0  0  0  0  0
   19.3825  -19.1718  -16.2397 O   0  0  0  0  0  0  0  0  0  0  0  0
   21.4407  -22.3380  -13.5925 O   0  0  0  0  0  0  0  0  0  0  0  0
  2  3  2  0
  2  1  1  0
  4  2  1  0
  5  4  1  0
  6  5  1  0
  7  6  1  0
  8  7  1  0
  8  9  1  6
 10 11  2  0
 10  8  1  0
 12 10  1  0
 13 20  1  0
 13 12  1  0
 13 14  1  1
 15 14  1  0
 16 15  2  0
 17 18  1  0
 17 16  1  0
 18 19  2  0
 19 15  1  0
 20 21  2  0
 22 23  1  0
 22 20  1  0
 23 24  1  6
 24 25  1  0
 25 26  2  0
 25 29  1  0
 27 23  1  0
 28 27  2  0
 30 27  1  0
M  END
$$$$
