RHD.pdb
     RDKit          3D

 30 30  0  0  1  0  0  0  0  0999 V2000
   24.0136  -13.0633  -22.9133 N   0  0  0  0  0  0  0  0  0  0  0  0
   23.8944  -14.4392  -22.5498 C   0  0  0  0  0  0  0  0  0  0  0  0
   24.4753  -15.3694  -23.2262 N   0  0  0  0  0  0  0  0  0  0  0  0
   23.1201  -14.7976  -21.4196 N   0  0  0  0  0  0  0  0  0  0  0  0
   22.5238  -13.7092  -20.6389 C   0  0  0  0  0  0  0  0  0  0  0  0
   21.6757  -14.3238  -19.5649 C   0  0  0  0  0  0  0  0  0  0  0  0
   20.9987  -13.2606  -18.7483 C   0  0  0  0  0  0  0  0  0  0  0  0
   20.0708  -13.8945  -17.7462 C   0  0  2  0  0  0  0  0  0  0  0  0
   19.5001  -15.1040  -18.3106 N   0  0  0  0  0  0  0  0  0  0  0  0
   18.9629  -12.9552  -17.3845 C   0  0  0  0  0  0  0  0  0  0  0  0
   18.1405  -12.6854  -18.2822 O   0  0  0  0  0  0  0  0  0  0  0  0
   24.4071  -16.3664  -22.9612 N   0  0  0  0  0  0  0  0  0  0  0  0
   18.8852  -12.4214  -16.0828 C   0  0  1  0  0  0  0  0  0  0  0  0
   17.7647  -11.5226  -15.7458 C   0  0  0  0  0  0  0  0  0  0  0  0
   17.1785  -12.0502  -14.4719 C   0  0  0  0  0  0  0  0  0  0  0  0
   16.1616  -13.0964  -14.6600 C   0  0  0  0  0  0  0  0  0  0  0  0
   15.6599  -13.7236  -15.7601 N   0  0  0  0  0  0  0  0  0  0  0  0
   14.7705  -14.6541  -15.3407 C   0  0  0  0  0  0  0  0  0  0  0  0
   14.7158  -14.6136  -14.0159 N   0  0  0  0  0  0  0  0  0  0  0  0
   15.5563  -13.6713  -13.5829 C   0  0  0  0  0  0  0  0  0  0  0  0
   18.4456  -10.2076  -15.4432 O   0  0  0  0  0  0  0  0  0  0  0  0
   19.5869  -10.1147  -14.9391 N   0  0  0  0  0  0  0  0  0  0  0  0
   17.7904   -8.9923  -15.7302 C   0  0  1  0  0  0  0  0  0  0  0  0
   18.4721   -7.7076  -15.4899 C   0  0  0  0  0  0  0  0  0  0  0  0
   18.9846   -7.2728  -16.8149 C   0  0  0  0  0  0  0  0  0  0  0  0
   19.6173   -5.9748  -16.9131 O   0  0  0  0  0  0  0  0  0  0  0  0
   20.1850   -5.4191  -15.9562 C   0  0  0  0  0  0  0  0  0  0  0  0
   17.5865   -6.7843  -14.7916 O   0  0  0  0  0  0  0  0  0  0  0  0
   17.9307   -5.6325  -14.4890 O   0  0  0  0  0  0  0  0  0  0  0  0
   19.6018   -5.2989  -18.1261 O   0  0  0  0  0  0  0  0  0  0  0  0
  2  3  2  0
  2  1  1  0
  4  2  1  0
  5  4  1  0
  6  5  1  0
  7  6  1  0
  8  7  1  0
  8  9  1  6
 10 11  2  0
 10  8  1  0
 12 10  1  0
 13 20  1  0
 13 12  1  0
 13 14  1  6
 15 14  1  0
 16 15  2  0
 17 18  1  0
 17 16  1  0
 18 19  2  0
 19 15  1  0
 20 21  2  0
 22 23  1  0
 22 20  1  0
 23 24  1  1
 24 25  1  0
 25 26  2  0
 25 29  1  0
 27 23  1  0
 28 27  2  0
 30 27  1  0
M  END
$$$$
