RHD.pdb
     RDKit          3D

 30 30  0  0  1  0  0  0  0  0999 V2000
   27.4132  -28.8743  -18.7029 N   0  0  0  0  0  0  0  0  0  0  0  0
   27.8091  -28.8775  -17.3307 C   0  0  0  0  0  0  0  0  0  0  0  0
   28.1775  -29.9599  -16.7365 N   0  0  0  0  0  0  0  0  0  0  0  0
   27.7989  -27.6653  -16.5989 N   0  0  0  0  0  0  0  0  0  0  0  0
   27.3535  -26.4579  -17.3014 C   0  0  0  0  0  0  0  0  0  0  0  0
   27.5274  -25.2936  -16.3717 C   0  0  0  0  0  0  0  0  0  0  0  0
   26.2665  -25.0394  -15.5963 C   0  0  0  0  0  0  0  0  0  0  0  0
   25.3577  -24.1272  -16.3769 C   0  0  2  0  0  0  0  0  0  0  0  0
   26.1110  -22.9797  -16.8489 N   0  0  0  0  0  0  0  0  0  0  0  0
   24.2267  -23.6497  -15.5207 C   0  0  0  0  0  0  0  0  0  0  0  0
   24.4640  -22.6885  -14.7624 O   0  0  0  0  0  0  0  0  0  0  0  0
   28.4899  -29.9671  -15.7509 N   0  0  0  0  0  0  0  0  0  0  0  0
   22.9687  -24.2800  -15.5948 C   0  0  2  0  0  0  0  0  0  0  0  0
   21.9226  -23.9016  -14.6254 C   0  0  0  0  0  0  0  0  0  0  0  0
   20.8950  -23.1362  -15.4017 C   0  0  0  0  0  0  0  0  0  0  0  0
   21.4518  -22.1108  -16.2977 C   0  0  0  0  0  0  0  0  0  0  0  0
   22.7221  -21.7107  -16.5833 N   0  0  0  0  0  0  0  0  0  0  0  0
   22.6531  -20.7499  -17.5345 C   0  0  0  0  0  0  0  0  0  0  0  0
   21.3770  -20.5529  -17.8387 N   0  0  0  0  0  0  0  0  0  0  0  0
   20.6300  -21.3729  -17.0960 C   0  0  0  0  0  0  0  0  0  0  0  0
   21.3189  -25.2273  -14.2221 O   0  0  0  0  0  0  0  0  0  0  0  0
   21.8461  -26.3352  -14.4667 N   0  0  0  0  0  0  0  0  0  0  0  0
   20.0913  -25.2608  -13.5289 C   0  0  1  0  0  0  0  0  0  0  0  0
   19.5459  -26.5432  -13.0483 C   0  0  0  0  0  0  0  0  0  0  0  0
   20.5810  -27.1033  -12.1416 C   0  0  0  0  0  0  0  0  0  0  0  0
   20.6315  -28.5387  -11.9624 O   0  0  0  0  0  0  0  0  0  0  0  0
   19.7852  -29.1741  -11.3093 C   0  0  0  0  0  0  0  0  0  0  0  0
   18.2141  -26.3518  -12.4878 O   0  0  0  0  0  0  0  0  0  0  0  0
   17.9437  -25.4184  -11.7183 O   0  0  0  0  0  0  0  0  0  0  0  0
   21.6672  -29.2616  -12.5395 O   0  0  0  0  0  0  0  0  0  0  0  0
  2  3  2  0
  2  1  1  0
  4  2  1  0
  5  4  1  0
  6  5  1  0
  7  6  1  0
  8  7  1  0
  8  9  1  1
 10 11  2  0
 10  8  1  0
 12 10  1  0
 13 20  1  0
 13 12  1  0
 13 14  1  1
 15 14  1  0
 16 15  2  0
 17 18  1  0
 17 16  1  0
 18 19  2  0
 19 15  1  0
 20 21  2  0
 22 23  1  0
 22 20  1  0
 23 24  1  6
 24 25  1  0
 25 26  2  0
 25 29  1  0
 27 23  1  0
 28 27  2  0
 30 27  1  0
M  END
$$$$
