RHD.pdb
     RDKit          3D

 30 30  0  0  1  0  0  0  0  0999 V2000
   31.3086  -22.8149  -11.6941 N   0  0  0  0  0  0  0  0  0  0  0  0
   31.4380  -22.3933  -10.3357 C   0  0  0  0  0  0  0  0  0  0  0  0
   32.5328  -22.5617   -9.6776 N   0  0  0  0  0  0  0  0  0  0  0  0
   30.3401  -21.7747   -9.6898 N   0  0  0  0  0  0  0  0  0  0  0  0
   29.1157  -21.5865  -10.4741 C   0  0  0  0  0  0  0  0  0  0  0  0
   29.4350  -20.6621  -11.6116 C   0  0  0  0  0  0  0  0  0  0  0  0
   28.2453  -19.8129  -11.9566 C   0  0  0  0  0  0  0  0  0  0  0  0
   27.0949  -20.6871  -12.3805 C   0  0  2  0  0  0  0  0  0  0  0  0
   27.5562  -21.6558  -13.3582 N   0  0  0  0  0  0  0  0  0  0  0  0
   26.0019  -19.8640  -12.9874 C   0  0  0  0  0  0  0  0  0  0  0  0
   25.5640  -18.9193  -12.3012 O   0  0  0  0  0  0  0  0  0  0  0  0
   32.6209  -22.3010   -8.6809 N   0  0  0  0  0  0  0  0  0  0  0  0
   25.5165  -20.1714  -14.2739 C   0  0  1  0  0  0  0  0  0  0  0  0
   24.4542  -19.3289  -14.8560 C   0  0  0  0  0  0  0  0  0  0  0  0
   24.8751  -19.0456  -16.2657 C   0  0  0  0  0  0  0  0  0  0  0  0
   26.0348  -18.1482  -16.3833 C   0  0  0  0  0  0  0  0  0  0  0  0
   27.2979  -18.3132  -16.8656 N   0  0  0  0  0  0  0  0  0  0  0  0
   27.9372  -17.1233  -16.7769 C   0  0  0  0  0  0  0  0  0  0  0  0
   27.1001  -16.2362  -16.2553 N   0  0  0  0  0  0  0  0  0  0  0  0
   25.9361  -16.8415  -16.0093 C   0  0  0  0  0  0  0  0  0  0  0  0
   23.2561  -20.2496  -14.8969 O   0  0  0  0  0  0  0  0  0  0  0  0
   23.3079  -21.4711  -14.6317 N   0  0  0  0  0  0  0  0  0  0  0  0
   21.9889  -19.7418  -15.2501 C   0  0  1  0  0  0  0  0  0  0  0  0
   20.7741  -20.2567  -14.5927 C   0  0  0  0  0  0  0  0  0  0  0  0
   21.0402  -20.1664  -13.1339 C   0  0  0  0  0  0  0  0  0  0  0  0
   20.5190  -21.2092  -12.2760 O   0  0  0  0  0  0  0  0  0  0  0  0
   19.8160  -22.1467  -12.6927 C   0  0  0  0  0  0  0  0  0  0  0  0
   19.5929  -19.5628  -15.0905 O   0  0  0  0  0  0  0  0  0  0  0  0
   19.5069  -18.3264  -15.1114 O   0  0  0  0  0  0  0  0  0  0  0  0
   20.8059  -21.1811  -10.9176 O   0  0  0  0  0  0  0  0  0  0  0  0
  2  3  2  0
  2  1  1  0
  4  2  1  0
  5  4  1  0
  6  5  1  0
  7  6  1  0
  8  7  1  0
  8  9  1  6
 10 11  2  0
 10  8  1  0
 12 10  1  0
 13 20  1  0
 13 12  1  0
 13 14  1  1
 15 14  1  0
 16 15  2  0
 17 18  1  0
 17 16  1  0
 18 19  2  0
 19 15  1  0
 20 21  2  0
 22 23  1  0
 22 20  1  0
 23 24  1  6
 24 25  1  0
 25 26  2  0
 25 29  1  0
 27 23  1  0
 28 27  2  0
 30 27  1  0
M  END
$$$$
