RHD.pdb
     RDKit          3D

 30 30  0  0  1  0  0  0  0  0999 V2000
   18.0615  -16.0314  -15.6922 N   0  0  0  0  0  0  0  0  0  0  0  0
   19.2445  -16.4658  -16.3641 C   0  0  0  0  0  0  0  0  0  0  0  0
   19.3992  -17.6898  -16.7360 N   0  0  0  0  0  0  0  0  0  0  0  0
   20.2770  -15.5343  -16.6313 N   0  0  0  0  0  0  0  0  0  0  0  0
   19.8905  -14.1299  -16.7990 C   0  0  0  0  0  0  0  0  0  0  0  0
   20.2168  -13.7274  -18.2068 C   0  0  0  0  0  0  0  0  0  0  0  0
   19.7834  -12.3137  -18.4695 C   0  0  0  0  0  0  0  0  0  0  0  0
   20.7713  -11.3520  -17.8643 C   0  0  2  0  0  0  0  0  0  0  0  0
   21.5173  -12.0198  -16.8133 N   0  0  0  0  0  0  0  0  0  0  0  0
   20.0660  -10.1661  -17.2838 C   0  0  0  0  0  0  0  0  0  0  0  0
   19.3533   -9.5011  -18.0615 O   0  0  0  0  0  0  0  0  0  0  0  0
   20.2761  -18.0265  -17.1681 N   0  0  0  0  0  0  0  0  0  0  0  0
   20.2236   -9.8472  -15.9204 C   0  0  1  0  0  0  0  0  0  0  0  0
   19.5022   -8.6830  -15.3718 C   0  0  0  0  0  0  0  0  0  0  0  0
   18.6778   -9.2040  -14.2344 C   0  0  0  0  0  0  0  0  0  0  0  0
   17.3266   -9.6428  -14.6162 C   0  0  0  0  0  0  0  0  0  0  0  0
   16.6325   -9.6158  -15.7879 N   0  0  0  0  0  0  0  0  0  0  0  0
   15.4342  -10.2092  -15.5768 C   0  0  0  0  0  0  0  0  0  0  0  0
   15.3773  -10.5987  -14.3100 N   0  0  0  0  0  0  0  0  0  0  0  0
   16.5209  -10.2628  -13.7088 C   0  0  0  0  0  0  0  0  0  0  0  0
   20.6048   -7.8217  -14.8000 O   0  0  0  0  0  0  0  0  0  0  0  0
   21.5309   -8.2621  -14.0833 N   0  0  0  0  0  0  0  0  0  0  0  0
   20.6271   -6.4370  -15.0657 C   0  0  1  0  0  0  0  0  0  0  0  0
   21.6651   -5.5826  -14.4612 C   0  0  0  0  0  0  0  0  0  0  0  0
   22.4056   -4.9851  -15.6022 C   0  0  0  0  0  0  0  0  0  0  0  0
   23.4260   -3.9991  -15.3165 O   0  0  0  0  0  0  0  0  0  0  0  0
   23.6298   -3.0023  -16.0317 C   0  0  0  0  0  0  0  0  0  0  0  0
   21.0695   -4.6565  -13.5061 O   0  0  0  0  0  0  0  0  0  0  0  0
   19.8433   -4.5492  -13.3592 O   0  0  0  0  0  0  0  0  0  0  0  0
   24.2282   -4.1540  -14.1936 O   0  0  0  0  0  0  0  0  0  0  0  0
  2  3  2  0
  2  1  1  0
  4  2  1  0
  5  4  1  0
  6  5  1  0
  7  6  1  0
  8  7  1  0
  8  9  1  1
 10 11  2  0
 10  8  1  0
 12 10  1  0
 13 20  1  0
 13 12  1  0
 13 14  1  6
 15 14  1  0
 16 15  2  0
 17 18  1  0
 17 16  1  0
 18 19  2  0
 19 15  1  0
 20 21  2  0
 22 23  1  0
 22 20  1  0
 23 24  1  1
 24 25  1  0
 25 26  2  0
 25 29  1  0
 27 23  1  0
 28 27  2  0
 30 27  1  0
M  END
$$$$
