RHD.pdb
     RDKit          3D

 30 30  0  0  1  0  0  0  0  0999 V2000
   19.8803  -18.7591  -17.7209 N   0  0  0  0  0  0  0  0  0  0  0  0
   18.7005  -18.5106  -18.4864 C   0  0  0  0  0  0  0  0  0  0  0  0
   17.7214  -19.3478  -18.5094 N   0  0  0  0  0  0  0  0  0  0  0  0
   18.5974  -17.3170  -19.2414 N   0  0  0  0  0  0  0  0  0  0  0  0
   19.7428  -16.4022  -19.2153 C   0  0  0  0  0  0  0  0  0  0  0  0
   19.6808  -15.6231  -17.9348 C   0  0  0  0  0  0  0  0  0  0  0  0
   20.2219  -14.2358  -18.1298 C   0  0  0  0  0  0  0  0  0  0  0  0
   21.7054  -14.2214  -17.8726 C   0  0  2  0  0  0  0  0  0  0  0  0
   22.1183  -15.5077  -17.3416 N   0  0  0  0  0  0  0  0  0  0  0  0
   22.0603  -13.1508  -16.8885 C   0  0  0  0  0  0  0  0  0  0  0  0
   21.7549  -13.3597  -15.6976 O   0  0  0  0  0  0  0  0  0  0  0  0
   16.8782  -19.1921  -19.0871 N   0  0  0  0  0  0  0  0  0  0  0  0
   22.7078  -11.9773  -17.3232 C   0  0  1  0  0  0  0  0  0  0  0  0
   23.1256  -10.9793  -16.3200 C   0  0  0  0  0  0  0  0  0  0  0  0
   24.5507  -10.6434  -16.6376 C   0  0  0  0  0  0  0  0  0  0  0  0
   25.5240  -11.6569  -16.2019 C   0  0  0  0  0  0  0  0  0  0  0  0
   25.4015  -12.8613  -15.5776 N   0  0  0  0  0  0  0  0  0  0  0  0
   26.6377  -13.4021  -15.4680 C   0  0  0  0  0  0  0  0  0  0  0  0
   27.5112  -12.5629  -16.0086 N   0  0  0  0  0  0  0  0  0  0  0  0
   26.8518  -11.4942  -16.4615 C   0  0  0  0  0  0  0  0  0  0  0  0
   22.2729   -9.7742  -16.6445 O   0  0  0  0  0  0  0  0  0  0  0  0
   21.9278   -9.4581  -17.8048 N   0  0  0  0  0  0  0  0  0  0  0  0
   21.8201   -8.9317  -15.6084 C   0  0  1  0  0  0  0  0  0  0  0  0
   20.9485   -7.7829  -15.9142 C   0  0  0  0  0  0  0  0  0  0  0  0
   19.6746   -8.0452  -15.1962 C   0  0  0  0  0  0  0  0  0  0  0  0
   18.6459   -7.0275  -15.2308 O   0  0  0  0  0  0  0  0  0  0  0  0
   18.5835   -6.1511  -16.1109 C   0  0  0  0  0  0  0  0  0  0  0  0
   21.6303   -6.5312  -15.6089 O   0  0  0  0  0  0  0  0  0  0  0  0
   22.6894   -6.4899  -14.9662 O   0  0  0  0  0  0  0  0  0  0  0  0
   17.6706   -7.0103  -14.2424 O   0  0  0  0  0  0  0  0  0  0  0  0
  2  3  2  0
  2  1  1  0
  4  2  1  0
  5  4  1  0
  6  5  1  0
  7  6  1  0
  8  7  1  0
  8  9  1  1
 10 11  2  0
 10  8  1  0
 12 10  1  0
 13 20  1  0
 13 12  1  0
 13 14  1  1
 15 14  1  0
 16 15  2  0
 17 18  1  0
 17 16  1  0
 18 19  2  0
 19 15  1  0
 20 21  2  0
 22 23  1  0
 22 20  1  0
 23 24  1  6
 24 25  1  0
 25 26  2  0
 25 29  1  0
 27 23  1  0
 28 27  2  0
 30 27  1  0
M  END
$$$$
