RHD.pdb
     RDKit          3D

 30 30  0  0  1  0  0  0  0  0999 V2000
   27.6922  -27.3847  -15.9309 N   0  0  0  0  0  0  0  0  0  0  0  0
   28.4585  -27.0868  -17.0987 C   0  0  0  0  0  0  0  0  0  0  0  0
   29.3517  -27.9006  -17.5463 N   0  0  0  0  0  0  0  0  0  0  0  0
   28.2371  -25.8690  -17.7865 N   0  0  0  0  0  0  0  0  0  0  0  0
   27.2315  -24.9563  -17.2338 C   0  0  0  0  0  0  0  0  0  0  0  0
   27.2442  -23.7032  -18.0583 C   0  0  0  0  0  0  0  0  0  0  0  0
   26.1605  -22.7632  -17.6137 C   0  0  0  0  0  0  0  0  0  0  0  0
   26.7468  -21.6679  -16.7630 C   0  0  2  0  0  0  0  0  0  0  0  0
   27.7835  -22.2187  -15.9093 N   0  0  0  0  0  0  0  0  0  0  0  0
   25.6907  -21.0423  -15.9062 C   0  0  0  0  0  0  0  0  0  0  0  0
   25.8217  -21.1682  -14.6725 O   0  0  0  0  0  0  0  0  0  0  0  0
   29.9262  -27.6832  -18.3780 N   0  0  0  0  0  0  0  0  0  0  0  0
   24.6154  -20.3523  -16.5002 C   0  0  1  0  0  0  0  0  0  0  0  0
   23.6336  -19.6763  -15.6305 C   0  0  0  0  0  0  0  0  0  0  0  0
   23.4649  -18.2967  -16.1896 C   0  0  0  0  0  0  0  0  0  0  0  0
   22.4638  -17.4770  -15.4895 C   0  0  0  0  0  0  0  0  0  0  0  0
   21.6319  -17.7159  -14.4377 N   0  0  0  0  0  0  0  0  0  0  0  0
   20.9540  -16.5742  -14.1743 C   0  0  0  0  0  0  0  0  0  0  0  0
   21.3491  -15.6447  -15.0344 N   0  0  0  0  0  0  0  0  0  0  0  0
   22.2687  -16.1756  -15.8433 C   0  0  0  0  0  0  0  0  0  0  0  0
   22.3557  -20.4451  -15.8766 O   0  0  0  0  0  0  0  0  0  0  0  0
   21.9431  -20.7633  -17.0140 N   0  0  0  0  0  0  0  0  0  0  0  0
   21.5532  -20.8451  -14.7882 C   0  0  1  0  0  0  0  0  0  0  0  0
   20.2713  -21.5330  -15.0255 C   0  0  0  0  0  0  0  0  0  0  0  0
   20.3667  -22.8209  -14.2909 C   0  0  0  0  0  0  0  0  0  0  0  0
   20.9693  -23.9515  -14.9643 O   0  0  0  0  0  0  0  0  0  0  0  0
   21.4073  -23.8980  -16.1270 C   0  0  0  0  0  0  0  0  0  0  0  0
   19.1547  -20.6612  -14.6829 O   0  0  0  0  0  0  0  0  0  0  0  0
   18.2033  -21.0413  -13.9851 O   0  0  0  0  0  0  0  0  0  0  0  0
   21.0736  -25.1654  -14.2980 O   0  0  0  0  0  0  0  0  0  0  0  0
  2  3  2  0
  2  1  1  0
  4  2  1  0
  5  4  1  0
  6  5  1  0
  7  6  1  0
  8  7  1  0
  8  9  1  1
 10 11  2  0
 10  8  1  0
 12 10  1  0
 13 20  1  0
 13 12  1  0
 13 14  1  1
 15 14  1  0
 16 15  2  0
 17 18  1  0
 17 16  1  0
 18 19  2  0
 19 15  1  0
 20 21  2  0
 22 23  1  0
 22 20  1  0
 23 24  1  6
 24 25  1  0
 25 26  2  0
 25 29  1  0
 27 23  1  0
 28 27  2  0
 30 27  1  0
M  END
$$$$
