RHD.pdb
     RDKit          3D

 30 30  0  0  1  0  0  0  0  0999 V2000
   31.7165  -22.6109  -10.8866 N   0  0  0  0  0  0  0  0  0  0  0  0
   30.9263  -22.0989   -9.8128 C   0  0  0  0  0  0  0  0  0  0  0  0
   31.2894  -22.2322   -8.5837 N   0  0  0  0  0  0  0  0  0  0  0  0
   29.7126  -21.4275  -10.0982 N   0  0  0  0  0  0  0  0  0  0  0  0
   29.0630  -21.7253  -11.3784 C   0  0  0  0  0  0  0  0  0  0  0  0
   29.4971  -20.6849  -12.3681 C   0  0  0  0  0  0  0  0  0  0  0  0
   28.3130  -19.9268  -12.8963 C   0  0  0  0  0  0  0  0  0  0  0  0
   28.0254  -20.3447  -14.3140 C   0  0  2  0  0  0  0  0  0  0  0  0
   29.1577  -20.0093  -15.1580 N   0  0  0  0  0  0  0  0  0  0  0  0
   26.8067  -19.6478  -14.8330 C   0  0  0  0  0  0  0  0  0  0  0  0
   26.7739  -18.4074  -14.7086 O   0  0  0  0  0  0  0  0  0  0  0  0
   30.7186  -21.8736   -7.7997 N   0  0  0  0  0  0  0  0  0  0  0  0
   25.7669  -20.3901  -15.4273 C   0  0  2  0  0  0  0  0  0  0  0  0
   24.5367  -19.6891  -15.8426 C   0  0  0  0  0  0  0  0  0  0  0  0
   24.3321  -20.0308  -17.2869 C   0  0  0  0  0  0  0  0  0  0  0  0
   23.1006  -19.4785  -17.8720 C   0  0  0  0  0  0  0  0  0  0  0  0
   22.1131  -18.6771  -17.3842 N   0  0  0  0  0  0  0  0  0  0  0  0
   21.2377  -18.4354  -18.3881 C   0  0  0  0  0  0  0  0  0  0  0  0
   21.6632  -19.0653  -19.4753 N   0  0  0  0  0  0  0  0  0  0  0  0
   22.7968  -19.7059  -19.1808 C   0  0  0  0  0  0  0  0  0  0  0  0
   23.4535  -20.3703  -15.0382 O   0  0  0  0  0  0  0  0  0  0  0  0
   23.4261  -21.6000  -14.8090 N   0  0  0  0  0  0  0  0  0  0  0  0
   22.3945  -19.6120  -14.4977 C   0  0  1  0  0  0  0  0  0  0  0  0
   21.3098  -20.2777  -13.7542 C   0  0  0  0  0  0  0  0  0  0  0  0
   21.4098  -19.7705  -12.3614 C   0  0  0  0  0  0  0  0  0  0  0  0
   20.4732  -20.2739  -11.3793 O   0  0  0  0  0  0  0  0  0  0  0  0
   19.5815  -21.0981  -11.6478 C   0  0  0  0  0  0  0  0  0  0  0  0
   20.0347  -20.0867  -14.4341 O   0  0  0  0  0  0  0  0  0  0  0  0
   19.6869  -18.9923  -14.9010 O   0  0  0  0  0  0  0  0  0  0  0  0
   20.5564  -19.8280  -10.0668 O   0  0  0  0  0  0  0  0  0  0  0  0
  2  3  2  0
  2  1  1  0
  4  2  1  0
  5  4  1  0
  6  5  1  0
  7  6  1  0
  8  7  1  0
  8  9  1  6
 10 11  2  0
 10  8  1  0
 12 10  1  0
 13 20  1  0
 13 12  1  0
 13 14  1  6
 15 14  1  0
 16 15  2  0
 17 18  1  0
 17 16  1  0
 18 19  2  0
 19 15  1  0
 20 21  2  0
 22 23  1  0
 22 20  1  0
 23 24  1  6
 24 25  1  0
 25 26  2  0
 25 29  1  0
 27 23  1  0
 28 27  2  0
 30 27  1  0
M  END
$$$$
