RHD.pdb
     RDKit          3D

 30 30  0  0  1  0  0  0  0  0999 V2000
   16.8573  -23.6876  -12.5866 N   0  0  0  0  0  0  0  0  0  0  0  0
   17.8742  -24.6858  -12.4901 C   0  0  0  0  0  0  0  0  0  0  0  0
   17.6062  -25.9386  -12.6279 N   0  0  0  0  0  0  0  0  0  0  0  0
   19.2119  -24.2967  -12.2367 N   0  0  0  0  0  0  0  0  0  0  0  0
   19.4865  -22.8606  -12.1265 C   0  0  0  0  0  0  0  0  0  0  0  0
   19.7433  -22.3336  -13.5073 C   0  0  0  0  0  0  0  0  0  0  0  0
   20.2091  -20.9068  -13.4537 C   0  0  0  0  0  0  0  0  0  0  0  0
   20.6554  -20.4597  -14.8205 C   0  0  2  0  0  0  0  0  0  0  0  0
   21.3394  -21.5517  -15.4889 N   0  0  0  0  0  0  0  0  0  0  0  0
   21.5861  -19.2920  -14.7163 C   0  0  0  0  0  0  0  0  0  0  0  0
   21.1699  -18.2969  -14.0906 O   0  0  0  0  0  0  0  0  0  0  0  0
   18.3200  -26.6726  -12.4846 N   0  0  0  0  0  0  0  0  0  0  0  0
   22.8630  -19.3505  -15.3092 C   0  0  1  0  0  0  0  0  0  0  0  0
   23.7739  -18.1999  -15.1568 C   0  0  0  0  0  0  0  0  0  0  0  0
   25.1459  -18.7124  -15.4722 C   0  0  0  0  0  0  0  0  0  0  0  0
   26.1766  -17.6670  -15.5676 C   0  0  0  0  0  0  0  0  0  0  0  0
   27.1608  -17.4061  -16.4723 N   0  0  0  0  0  0  0  0  0  0  0  0
   27.7897  -16.2703  -16.0889 C   0  0  0  0  0  0  0  0  0  0  0  0
   27.2167  -15.8297  -14.9765 N   0  0  0  0  0  0  0  0  0  0  0  0
   26.2318  -16.6669  -14.6435 C   0  0  0  0  0  0  0  0  0  0  0  0
   23.3519  -17.2658  -16.2676 O   0  0  0  0  0  0  0  0  0  0  0  0
   22.9316  -17.6532  -17.3805 N   0  0  0  0  0  0  0  0  0  0  0  0
   23.4210  -15.8700  -16.0791 C   0  0  1  0  0  0  0  0  0  0  0  0
   23.0791  -14.9548  -17.1829 C   0  0  0  0  0  0  0  0  0  0  0  0
   22.6010  -13.7067  -16.5341 C   0  0  0  0  0  0  0  0  0  0  0  0
   22.2632  -12.5809  -17.3786 O   0  0  0  0  0  0  0  0  0  0  0  0
   22.3429  -12.6114  -18.6194 C   0  0  0  0  0  0  0  0  0  0  0  0
   24.2004  -14.8290  -18.1056 O   0  0  0  0  0  0  0  0  0  0  0  0
   24.1101  -15.1222  -19.3066 O   0  0  0  0  0  0  0  0  0  0  0  0
   21.8264  -11.3985  -16.7958 O   0  0  0  0  0  0  0  0  0  0  0  0
  2  3  2  0
  2  1  1  0
  4  2  1  0
  5  4  1  0
  6  5  1  0
  7  6  1  0
  8  7  1  0
  8  9  1  1
 10 11  2  0
 10  8  1  0
 12 10  1  0
 13 20  1  0
 13 12  1  0
 13 14  1  1
 15 14  1  0
 16 15  2  0
 17 18  1  0
 17 16  1  0
 18 19  2  0
 19 15  1  0
 20 21  2  0
 22 23  1  0
 22 20  1  0
 23 24  1  6
 24 25  1  0
 25 26  2  0
 25 29  1  0
 27 23  1  0
 28 27  2  0
 30 27  1  0
M  END
$$$$
