RHD.pdb
     RDKit          3D

 30 30  0  0  1  0  0  0  0  0999 V2000
   21.6724  -22.5038   -7.3768 N   0  0  0  0  0  0  0  0  0  0  0  0
   21.4612  -21.1214   -7.6669 C   0  0  0  0  0  0  0  0  0  0  0  0
   20.3328  -20.5463   -7.4300 N   0  0  0  0  0  0  0  0  0  0  0  0
   22.5130  -20.3580   -8.2290 N   0  0  0  0  0  0  0  0  0  0  0  0
   23.6813  -21.0878   -8.7312 C   0  0  0  0  0  0  0  0  0  0  0  0
   24.9109  -20.3798   -8.2441 C   0  0  0  0  0  0  0  0  0  0  0  0
   25.6356  -19.7263   -9.3857 C   0  0  0  0  0  0  0  0  0  0  0  0
   26.4238  -20.7558  -10.1513 C   0  0  2  0  0  0  0  0  0  0  0  0
   27.7373  -20.9057   -9.5518 N   0  0  0  0  0  0  0  0  0  0  0  0
   26.5844  -20.3422  -11.5808 C   0  0  0  0  0  0  0  0  0  0  0  0
   27.0701  -19.2122  -11.7868 O   0  0  0  0  0  0  0  0  0  0  0  0
   20.1729  -19.5449   -7.6320 N   0  0  0  0  0  0  0  0  0  0  0  0
   26.1945  -21.2136  -12.6171 C   0  0  2  0  0  0  0  0  0  0  0  0
   26.2372  -20.7298  -14.0104 C   0  0  0  0  0  0  0  0  0  0  0  0
   26.7570  -21.8712  -14.8300 C   0  0  0  0  0  0  0  0  0  0  0  0
   26.7813  -21.6157  -16.2785 C   0  0  0  0  0  0  0  0  0  0  0  0
   26.6834  -20.4829  -17.0285 N   0  0  0  0  0  0  0  0  0  0  0  0
   26.8253  -20.8300  -18.3293 C   0  0  0  0  0  0  0  0  0  0  0  0
   27.0083  -22.1423  -18.3948 N   0  0  0  0  0  0  0  0  0  0  0  0
   26.9850  -22.6385  -17.1558 C   0  0  0  0  0  0  0  0  0  0  0  0
   24.7806  -20.5241  -14.3575 O   0  0  0  0  0  0  0  0  0  0  0  0
   23.8325  -20.9317  -13.6503 N   0  0  0  0  0  0  0  0  0  0  0  0
   24.4275  -19.8385  -15.5381 C   0  0  1  0  0  0  0  0  0  0  0  0
   23.0085  -19.6458  -15.8876 C   0  0  0  0  0  0  0  0  0  0  0  0
   22.4522  -18.7640  -14.8292 C   0  0  0  0  0  0  0  0  0  0  0  0
   21.0683  -18.9431  -14.4449 O   0  0  0  0  0  0  0  0  0  0  0  0
   20.3263  -19.8035  -14.9507 C   0  0  0  0  0  0  0  0  0  0  0  0
   22.8815  -19.1829  -17.2638 O   0  0  0  0  0  0  0  0  0  0  0  0
   23.8306  -18.6896  -17.8903 O   0  0  0  0  0  0  0  0  0  0  0  0
   20.5216  -18.1247  -13.4651 O   0  0  0  0  0  0  0  0  0  0  0  0
  2  3  2  0
  2  1  1  0
  4  2  1  0
  5  4  1  0
  6  5  1  0
  7  6  1  0
  8  7  1  0
  8  9  1  1
 10 11  2  0
 10  8  1  0
 12 10  1  0
 13 20  1  0
 13 12  1  0
 13 14  1  1
 15 14  1  0
 16 15  2  0
 17 18  1  0
 17 16  1  0
 18 19  2  0
 19 15  1  0
 20 21  2  0
 22 23  1  0
 22 20  1  0
 23 24  1  6
 24 25  1  0
 25 26  2  0
 25 29  1  0
 27 23  1  0
 28 27  2  0
 30 27  1  0
M  END
$$$$
