RHD.pdb
     RDKit          3D

 30 30  0  0  1  0  0  0  0  0999 V2000
   28.2870  -32.0151  -15.7040 N   0  0  0  0  0  0  0  0  0  0  0  0
   26.9056  -32.2501  -15.4277 C   0  0  0  0  0  0  0  0  0  0  0  0
   26.5207  -32.7994  -14.3275 N   0  0  0  0  0  0  0  0  0  0  0  0
   25.9295  -31.8730  -16.3816 N   0  0  0  0  0  0  0  0  0  0  0  0
   26.3842  -31.0995  -17.5413 C   0  0  0  0  0  0  0  0  0  0  0  0
   26.5528  -29.6737  -17.1064 C   0  0  0  0  0  0  0  0  0  0  0  0
   25.4047  -28.8324  -17.5856 C   0  0  0  0  0  0  0  0  0  0  0  0
   25.7496  -28.1955  -18.9056 C   0  0  2  0  0  0  0  0  0  0  0  0
   27.1897  -28.2051  -19.0876 N   0  0  0  0  0  0  0  0  0  0  0  0
   25.2614  -26.7813  -18.9531 C   0  0  0  0  0  0  0  0  0  0  0  0
   26.0808  -25.8941  -18.6423 O   0  0  0  0  0  0  0  0  0  0  0  0
   25.5314  -33.0424  -14.1510 N   0  0  0  0  0  0  0  0  0  0  0  0
   23.9338  -26.5040  -19.3351 C   0  0  1  0  0  0  0  0  0  0  0  0
   23.4967  -25.0978  -19.4278 C   0  0  0  0  0  0  0  0  0  0  0  0
   23.3823  -24.7946  -20.8905 C   0  0  0  0  0  0  0  0  0  0  0  0
   24.6444  -24.3842  -21.5251 C   0  0  0  0  0  0  0  0  0  0  0  0
   25.4702  -24.9781  -22.4310 N   0  0  0  0  0  0  0  0  0  0  0  0
   26.4761  -24.1152  -22.7072 C   0  0  0  0  0  0  0  0  0  0  0  0
   26.2873  -23.0110  -21.9968 N   0  0  0  0  0  0  0  0  0  0  0  0
   25.1764  -23.1556  -21.2708 C   0  0  0  0  0  0  0  0  0  0  0  0
   22.1043  -25.1214  -18.8401 O   0  0  0  0  0  0  0  0  0  0  0  0
   21.3059  -26.0743  -18.9805 N   0  0  0  0  0  0  0  0  0  0  0  0
   21.6399  -24.0256  -18.0838 C   0  0  1  0  0  0  0  0  0  0  0  0
   20.3165  -24.0787  -17.4368 C   0  0  0  0  0  0  0  0  0  0  0  0
   20.3184  -22.9843  -16.4321 C   0  0  0  0  0  0  0  0  0  0  0  0
   19.1250  -22.7794  -15.6391 O   0  0  0  0  0  0  0  0  0  0  0  0
   18.2484  -23.6489  -15.4896 C   0  0  0  0  0  0  0  0  0  0  0  0
   19.2585  -24.0502  -18.4389 O   0  0  0  0  0  0  0  0  0  0  0  0
   19.2332  -23.2172  -19.3565 O   0  0  0  0  0  0  0  0  0  0  0  0
   18.9289  -21.5595  -15.0053 O   0  0  0  0  0  0  0  0  0  0  0  0
  2  3  2  0
  2  1  1  0
  4  2  1  0
  5  4  1  0
  6  5  1  0
  7  6  1  0
  8  7  1  0
  8  9  1  1
 10 11  2  0
 10  8  1  0
 12 10  1  0
 13 20  1  0
 13 12  1  0
 13 14  1  1
 15 14  1  0
 16 15  2  0
 17 18  1  0
 17 16  1  0
 18 19  2  0
 19 15  1  0
 20 21  2  0
 22 23  1  0
 22 20  1  0
 23 24  1  6
 24 25  1  0
 25 26  2  0
 25 29  1  0
 27 23  1  0
 28 27  2  0
 30 27  1  0
M  END
$$$$
