WKV.pdb
     RDKit          3D

 31 32  0  0  1  0  0  0  0  0999 V2000
    6.1292  -17.1597   25.1403 N   0  0  0  0  0  0  0  0  0  0  0  0
    7.2911  -16.4627   24.6932 C   0  0  1  0  0  0  0  0  0  0  0  0
    7.8330  -15.4854   25.7131 C   0  0  0  0  0  0  0  0  0  0  0  0
    6.7865  -14.4690   25.9592 C   0  0  0  0  0  0  0  0  0  0  0  0
    5.4924  -14.7404   26.3642 C   0  0  0  0  0  0  0  0  0  0  0  0
    4.8047  -13.5868   26.4910 N   0  0  0  0  0  0  0  0  0  0  0  0
    5.6543  -12.5787   26.1688 C   0  0  0  0  0  0  0  0  0  0  0  0
    5.5109  -11.2015   26.1226 C   0  0  0  0  0  0  0  0  0  0  0  0
    6.5647  -10.3574   25.7545 C   0  0  0  0  0  0  0  0  0  0  0  0
    7.7737  -10.9345   25.4312 C   0  0  0  0  0  0  0  0  0  0  0  0
    7.9639  -12.3095   25.4632 C   0  0  0  0  0  0  0  0  0  0  0  0
    6.8833  -13.1021   25.8371 C   0  0  0  0  0  0  0  0  0  0  0  0
    8.3534  -17.4456   24.2632 C   0  0  0  0  0  0  0  0  0  0  0  0
    8.4282  -18.4660   24.9376 O   0  0  0  0  0  0  0  0  0  0  0  0
    9.1978  -17.2259   23.1798 N   0  0  0  0  0  0  0  0  0  0  0  0
   10.5786  -17.0525   23.0395 C   0  0  1  0  0  0  0  0  0  0  0  0
   11.2169  -16.4791   21.8452 C   0  0  0  0  0  0  0  0  0  0  0  0
   12.6897  -16.5152   21.7075 C   0  0  0  0  0  0  0  0  0  0  0  0
   13.0581  -17.4387   20.5285 C   0  0  0  0  0  0  0  0  0  0  0  0
   14.5777  -17.5554   20.4423 C   0  0  0  0  0  0  0  0  0  0  0  0
   14.9882  -18.3365   19.2979 N   0  0  0  0  0  0  0  0  0  0  0  0
   11.2551  -16.5536   24.2879 C   0  0  0  0  0  0  0  0  0  0  0  0
   12.3527  -15.9112   24.2068 O   0  0  0  0  0  0  0  0  0  0  0  0
   10.5935  -14.0302   26.5229 C   0  0  0  0  0  0  0  0  0  0  0  0
   10.6783  -15.2223   27.4624 C   0  0  2  0  0  0  0  0  0  0  0  0
   11.2570  -14.8289   28.7879 C   0  0  0  0  0  0  0  0  0  0  0  0
   11.4547  -16.3413   26.7955 C   0  0  2  0  0  0  0  0  0  0  0  0
   10.7485  -16.7464   25.5953 N   0  0  0  0  0  0  0  0  0  0  0  0
   11.7456  -17.4628   27.7054 C   0  0  0  0  0  0  0  0  0  0  0  0
   10.9736  -18.4535   27.7778 O   0  0  0  0  0  0  0  0  0  0  0  0
   12.8635  -17.5163   28.5340 O   0  0  0  0  0  0  0  0  0  0  0  0
  2  1  1  1
  3  2  1  0
  4  3  1  0
  4  5  2  0
  6  5  1  0
  7  6  1  0
  8  7  2  0
  9  8  1  0
 10  9  2  0
 10 11  1  0
 11 12  2  0
 12  7  1  0
 12  4  1  0
 13  2  1  0
 14 13  2  0
 15 13  1  0
 16 22  1  0
 16 15  1  0
 16 17  1  6
 18 17  1  0
 19 18  1  0
 20 19  1  0
 21 20  1  0
 22 28  1  0
 23 22  2  0
 25 24  1  6
 25 27  1  0
 25 26  1  0
 27 29  1  0
 27 28  1  6
 29 30  2  0
 29 31  1  0
M  END
$$$$
