WKV.pdb
     RDKit          3D

 31 32  0  0  1  0  0  0  0  0999 V2000
    6.2029  -17.3054   25.2757 N   0  0  0  0  0  0  0  0  0  0  0  0
    7.2007  -16.6072   24.5324 C   0  0  1  0  0  0  0  0  0  0  0  0
    7.8010  -15.4401   25.2848 C   0  0  0  0  0  0  0  0  0  0  0  0
    6.7250  -14.4493   25.5067 C   0  0  0  0  0  0  0  0  0  0  0  0
    5.4744  -14.7343   26.0233 C   0  0  0  0  0  0  0  0  0  0  0  0
    4.7415  -13.6036   26.0892 N   0  0  0  0  0  0  0  0  0  0  0  0
    5.5192  -12.5965   25.6169 C   0  0  0  0  0  0  0  0  0  0  0  0
    5.3070  -11.2373   25.4527 C   0  0  0  0  0  0  0  0  0  0  0  0
    6.2931  -10.3892   24.9360 C   0  0  0  0  0  0  0  0  0  0  0  0
    7.5050  -10.9437   24.5854 C   0  0  0  0  0  0  0  0  0  0  0  0
    7.7628  -12.3002   24.7321 C   0  0  0  0  0  0  0  0  0  0  0  0
    6.7479  -13.0976   25.2516 C   0  0  0  0  0  0  0  0  0  0  0  0
    8.2716  -17.5664   24.0714 C   0  0  0  0  0  0  0  0  0  0  0  0
    8.1801  -18.7063   24.5117 O   0  0  0  0  0  0  0  0  0  0  0  0
    9.2985  -17.2004   23.2074 N   0  0  0  0  0  0  0  0  0  0  0  0
   10.6892  -17.3477   23.2284 C   0  0  1  0  0  0  0  0  0  0  0  0
   11.5562  -17.1248   22.0617 C   0  0  0  0  0  0  0  0  0  0  0  0
   12.9206  -17.6971   22.0372 C   0  0  0  0  0  0  0  0  0  0  0  0
   13.5879  -17.3386   20.6937 C   0  0  0  0  0  0  0  0  0  0  0  0
   15.0945  -17.5539   20.8121 C   0  0  0  0  0  0  0  0  0  0  0  0
   15.4093  -18.9029   21.2233 N   0  0  0  0  0  0  0  0  0  0  0  0
   11.3357  -16.8058   24.4749 C   0  0  0  0  0  0  0  0  0  0  0  0
   12.2780  -15.9525   24.3868 O   0  0  0  0  0  0  0  0  0  0  0  0
   10.2959  -14.5967   26.9286 C   0  0  0  0  0  0  0  0  0  0  0  0
   10.6571  -15.8206   27.7550 C   0  0  2  0  0  0  0  0  0  0  0  0
   11.1821  -15.4298   29.1034 C   0  0  0  0  0  0  0  0  0  0  0  0
   11.6287  -16.6892   26.9795 C   0  0  2  0  0  0  0  0  0  0  0  0
   10.9641  -17.1810   25.7879 N   0  0  0  0  0  0  0  0  0  0  0  0
   12.2235  -17.7604   27.7975 C   0  0  0  0  0  0  0  0  0  0  0  0
   11.8024  -18.9433   27.7189 O   0  0  0  0  0  0  0  0  0  0  0  0
   13.2673  -17.5577   28.6966 O   0  0  0  0  0  0  0  0  0  0  0  0
  2  1  1  1
  3  2  1  0
  4  3  1  0
  4  5  2  0
  6  5  1  0
  7  6  1  0
  8  7  2  0
  9  8  1  0
 10  9  2  0
 10 11  1  0
 11 12  2  0
 12  7  1  0
 12  4  1  0
 13  2  1  0
 14 13  2  0
 15 13  1  0
 16 22  1  0
 16 15  1  0
 16 17  1  6
 18 17  1  0
 19 18  1  0
 20 19  1  0
 21 20  1  0
 22 28  1  0
 23 22  2  0
 25 24  1  6
 25 27  1  0
 25 26  1  0
 27 29  1  0
 27 28  1  6
 29 30  2  0
 29 31  1  0
M  END
$$$$
