WKV.pdb
     RDKit          3D

 31 32  0  0  1  0  0  0  0  0999 V2000
    6.1224  -18.1605   25.2463 N   0  0  0  0  0  0  0  0  0  0  0  0
    6.6389  -16.9219   24.7618 C   0  0  1  0  0  0  0  0  0  0  0  0
    7.4433  -16.1634   25.7944 C   0  0  0  0  0  0  0  0  0  0  0  0
    6.6622  -14.9678   26.1804 C   0  0  0  0  0  0  0  0  0  0  0  0
    5.3169  -14.9647   26.5005 C   0  0  0  0  0  0  0  0  0  0  0  0
    4.9243  -13.7096   26.8013 N   0  0  0  0  0  0  0  0  0  0  0  0
    6.0137  -12.9101   26.6751 C   0  0  0  0  0  0  0  0  0  0  0  0
    6.2139  -11.5513   26.8571 C   0  0  0  0  0  0  0  0  0  0  0  0
    7.4640  -10.9527   26.6634 C   0  0  0  0  0  0  0  0  0  0  0  0
    8.5145  -11.7575   26.2793 C   0  0  0  0  0  0  0  0  0  0  0  0
    8.3611  -13.1238   26.0848 C   0  0  0  0  0  0  0  0  0  0  0  0
    7.0974  -13.6674   26.2922 C   0  0  0  0  0  0  0  0  0  0  0  0
    7.4440  -17.1505   23.5052 C   0  0  0  0  0  0  0  0  0  0  0  0
    8.2552  -18.0672   23.5611 O   0  0  0  0  0  0  0  0  0  0  0  0
    7.2897  -16.3846   22.3543 N   0  0  0  0  0  0  0  0  0  0  0  0
    8.1782  -15.7992   21.4465 C   0  0  1  0  0  0  0  0  0  0  0  0
    7.9069  -14.5482   20.7226 C   0  0  0  0  0  0  0  0  0  0  0  0
    8.8526  -14.0760   19.6871 C   0  0  0  0  0  0  0  0  0  0  0  0
    8.0677  -13.7782   18.3932 C   0  0  0  0  0  0  0  0  0  0  0  0
    9.0485  -13.3656   17.2987 C   0  0  0  0  0  0  0  0  0  0  0  0
    8.3709  -13.0875   16.0531 N   0  0  0  0  0  0  0  0  0  0  0  0
    9.6156  -15.8488   21.8902 C   0  0  0  0  0  0  0  0  0  0  0  0
   10.0046  -15.1422   22.8767 O   0  0  0  0  0  0  0  0  0  0  0  0
   11.5614  -18.5384   23.2765 C   0  0  0  0  0  0  0  0  0  0  0  0
   12.3692  -18.0946   22.0675 C   0  0  2  0  0  0  0  0  0  0  0  0
   13.8396  -18.2606   22.3061 C   0  0  0  0  0  0  0  0  0  0  0  0
   11.9944  -16.6719   21.6998 C   0  0  2  0  0  0  0  0  0  0  0  0
   10.6074  -16.6507   21.2768 N   0  0  0  0  0  0  0  0  0  0  0  0
   12.9115  -16.0702   20.7163 C   0  0  0  0  0  0  0  0  0  0  0  0
   12.7182  -16.2116   19.4813 O   0  0  0  0  0  0  0  0  0  0  0  0
   14.0323  -15.3197   21.0622 O   0  0  0  0  0  0  0  0  0  0  0  0
  2  1  1  1
  3  2  1  0
  4  3  1  0
  4  5  2  0
  6  5  1  0
  7  6  1  0
  8  7  2  0
  9  8  1  0
 10  9  2  0
 10 11  1  0
 11 12  2  0
 12  7  1  0
 12  4  1  0
 13  2  1  0
 14 13  2  0
 15 13  1  0
 16 22  1  0
 16 15  1  0
 16 17  1  1
 18 17  1  0
 19 18  1  0
 20 19  1  0
 21 20  1  0
 22 28  1  0
 23 22  2  0
 25 24  1  1
 25 27  1  0
 25 26  1  0
 27 29  1  0
 27 28  1  6
 29 30  2  0
 29 31  1  0
M  END
$$$$
