WKV.pdb
     RDKit          3D

 31 32  0  0  1  0  0  0  0  0999 V2000
    6.3383  -16.8517   25.4143 N   0  0  0  0  0  0  0  0  0  0  0  0
    7.0585  -16.5399   24.2227 C   0  0  1  0  0  0  0  0  0  0  0  0
    7.4757  -15.0883   24.1374 C   0  0  0  0  0  0  0  0  0  0  0  0
    6.5273  -14.3010   24.9556 C   0  0  0  0  0  0  0  0  0  0  0  0
    5.3770  -14.7982   25.5402 C   0  0  0  0  0  0  0  0  0  0  0  0
    4.7458  -13.8126   26.2111 N   0  0  0  0  0  0  0  0  0  0  0  0
    5.4885  -12.6870   26.0577 C   0  0  0  0  0  0  0  0  0  0  0  0
    5.3407  -11.3884   26.5174 C   0  0  0  0  0  0  0  0  0  0  0  0
    6.2691  -10.3849   26.2179 C   0  0  0  0  0  0  0  0  0  0  0  0
    7.3560  -10.7198   25.4399 C   0  0  0  0  0  0  0  0  0  0  0  0
    7.5455  -12.0078   24.9569 C   0  0  0  0  0  0  0  0  0  0  0  0
    6.5929  -12.9670   25.2855 C   0  0  0  0  0  0  0  0  0  0  0  0
    8.2488  -17.4577   24.0797 C   0  0  0  0  0  0  0  0  0  0  0  0
    8.3943  -18.2731   24.9828 O   0  0  0  0  0  0  0  0  0  0  0  0
    9.1299  -17.3972   23.0050 N   0  0  0  0  0  0  0  0  0  0  0  0
   10.5217  -17.4575   22.8810 C   0  0  1  0  0  0  0  0  0  0  0  0
   11.2364  -17.3694   21.5987 C   0  0  0  0  0  0  0  0  0  0  0  0
   12.6500  -17.7980   21.5118 C   0  0  0  0  0  0  0  0  0  0  0  0
   13.1162  -17.6854   20.0460 C   0  0  0  0  0  0  0  0  0  0  0  0
   14.5915  -18.0682   19.9611 C   0  0  0  0  0  0  0  0  0  0  0  0
   14.8021  -19.1835   19.0667 N   0  0  0  0  0  0  0  0  0  0  0  0
   11.2573  -16.6904   23.9466 C   0  0  0  0  0  0  0  0  0  0  0  0
   11.9765  -15.6871   23.6304 O   0  0  0  0  0  0  0  0  0  0  0  0
   11.3177  -14.4432   28.0602 C   0  0  0  0  0  0  0  0  0  0  0  0
   10.7056  -15.4395   27.0888 C   0  0  2  0  0  0  0  0  0  0  0  0
    9.7553  -16.3648   27.7868 C   0  0  0  0  0  0  0  0  0  0  0  0
   11.8086  -16.1792   26.3565 C   0  0  2  0  0  0  0  0  0  0  0  0
   11.2100  -17.0052   25.3256 N   0  0  0  0  0  0  0  0  0  0  0  0
   12.6973  -16.9302   27.2602 C   0  0  0  0  0  0  0  0  0  0  0  0
   12.6741  -18.1876   27.2919 O   0  0  0  0  0  0  0  0  0  0  0  0
   13.6069  -16.3287   28.1261 O   0  0  0  0  0  0  0  0  0  0  0  0
  2  1  1  1
  3  2  1  0
  4  3  1  0
  4  5  2  0
  6  5  1  0
  7  6  1  0
  8  7  2  0
  9  8  1  0
 10  9  2  0
 10 11  1  0
 11 12  2  0
 12  7  1  0
 12  4  1  0
 13  2  1  0
 14 13  2  0
 15 13  1  0
 16 22  1  0
 16 15  1  0
 16 17  1  6
 18 17  1  0
 19 18  1  0
 20 19  1  0
 21 20  1  0
 22 28  1  0
 23 22  2  0
 25 24  1  1
 25 27  1  0
 25 26  1  0
 27 29  1  0
 27 28  1  6
 29 30  2  0
 29 31  1  0
M  END
$$$$
