WKV.pdb
     RDKit          3D

 31 32  0  0  1  0  0  0  0  0999 V2000
    6.0556  -17.0711   25.3475 N   0  0  0  0  0  0  0  0  0  0  0  0
    7.1357  -16.3887   24.7123 C   0  0  1  0  0  0  0  0  0  0  0  0
    7.6650  -15.2233   25.5188 C   0  0  0  0  0  0  0  0  0  0  0  0
    6.5538  -14.2639   25.7014 C   0  0  0  0  0  0  0  0  0  0  0  0
    5.2944  -14.5846   26.1741 C   0  0  0  0  0  0  0  0  0  0  0  0
    4.5275  -13.4755   26.2128 N   0  0  0  0  0  0  0  0  0  0  0  0
    5.2920  -12.4465   25.7669 C   0  0  0  0  0  0  0  0  0  0  0  0
    5.0468  -11.0940   25.5936 C   0  0  0  0  0  0  0  0  0  0  0  0
    6.0256  -10.2180   25.1108 C   0  0  0  0  0  0  0  0  0  0  0  0
    7.2645  -10.7375   24.8037 C   0  0  0  0  0  0  0  0  0  0  0  0
    7.5559  -12.0859   24.9611 C   0  0  0  0  0  0  0  0  0  0  0  0
    6.5468  -12.9121   25.4456 C   0  0  0  0  0  0  0  0  0  0  0  0
    8.2388  -17.3626   24.3746 C   0  0  0  0  0  0  0  0  0  0  0  0
    8.2643  -18.3827   25.0530 O   0  0  0  0  0  0  0  0  0  0  0  0
    9.1706  -17.1354   23.3670 N   0  0  0  0  0  0  0  0  0  0  0  0
   10.5630  -17.0070   23.3377 C   0  0  1  0  0  0  0  0  0  0  0  0
   11.3136  -16.4625   22.1964 C   0  0  0  0  0  0  0  0  0  0  0  0
   12.7853  -16.6077   22.1453 C   0  0  0  0  0  0  0  0  0  0  0  0
   13.1474  -17.6382   21.0564 C   0  0  0  0  0  0  0  0  0  0  0  0
   14.6647  -17.7972   21.0051 C   0  0  0  0  0  0  0  0  0  0  0  0
   15.0692  -18.7192   19.9685 N   0  0  0  0  0  0  0  0  0  0  0  0
   11.1526  -16.5213   24.6346 C   0  0  0  0  0  0  0  0  0  0  0  0
   11.7075  -15.3757   24.6948 O   0  0  0  0  0  0  0  0  0  0  0  0
   10.5720  -14.7910   27.2954 C   0  0  0  0  0  0  0  0  0  0  0  0
   10.9608  -16.1076   27.9486 C   0  0  2  0  0  0  0  0  0  0  0  0
   11.5589  -15.8851   29.3048 C   0  0  0  0  0  0  0  0  0  0  0  0
   11.8811  -16.8815   27.0246 C   0  0  2  0  0  0  0  0  0  0  0  0
   11.1369  -17.2632   25.8397 N   0  0  0  0  0  0  0  0  0  0  0  0
   12.5405  -18.0194   27.6885 C   0  0  0  0  0  0  0  0  0  0  0  0
   12.1840  -19.2021   27.4501 O   0  0  0  0  0  0  0  0  0  0  0  0
   13.5792  -17.8833   28.6058 O   0  0  0  0  0  0  0  0  0  0  0  0
  2  1  1  1
  3  2  1  0
  4  3  1  0
  4  5  2  0
  6  5  1  0
  7  6  1  0
  8  7  2  0
  9  8  1  0
 10  9  2  0
 10 11  1  0
 11 12  2  0
 12  7  1  0
 12  4  1  0
 13  2  1  0
 14 13  2  0
 15 13  1  0
 16 22  1  0
 16 15  1  0
 16 17  1  6
 18 17  1  0
 19 18  1  0
 20 19  1  0
 21 20  1  0
 22 28  1  0
 23 22  2  0
 25 24  1  6
 25 27  1  0
 25 26  1  0
 27 29  1  0
 27 28  1  6
 29 30  2  0
 29 31  1  0
M  END
$$$$
