WKV.pdb
     RDKit          3D

 31 32  0  0  1  0  0  0  0  0999 V2000
    6.3025  -17.7946   25.0264 N   0  0  0  0  0  0  0  0  0  0  0  0
    7.0837  -17.3659   23.9119 C   0  0  1  0  0  0  0  0  0  0  0  0
    6.6188  -16.0516   23.3246 C   0  0  0  0  0  0  0  0  0  0  0  0
    6.3669  -15.1232   24.4486 C   0  0  0  0  0  0  0  0  0  0  0  0
    5.6948  -15.4465   25.6131 C   0  0  0  0  0  0  0  0  0  0  0  0
    5.6418  -14.3679   26.4216 N   0  0  0  0  0  0  0  0  0  0  0  0
    6.2778  -13.3560   25.7783 C   0  0  0  0  0  0  0  0  0  0  0  0
    6.5365  -12.0375   26.1161 C   0  0  0  0  0  0  0  0  0  0  0  0
    7.2327  -11.1753   25.2614 C   0  0  0  0  0  0  0  0  0  0  0  0
    7.6648  -11.6730   24.0513 C   0  0  0  0  0  0  0  0  0  0  0  0
    7.4286  -12.9871   23.6703 C   0  0  0  0  0  0  0  0  0  0  0  0
    6.7328  -13.8015   24.5582 C   0  0  0  0  0  0  0  0  0  0  0  0
    8.5434  -17.3059   24.2929 C   0  0  0  0  0  0  0  0  0  0  0  0
    8.8406  -17.8925   25.3269 O   0  0  0  0  0  0  0  0  0  0  0  0
    9.4991  -16.6365   23.5357 N   0  0  0  0  0  0  0  0  0  0  0  0
   10.8926  -16.5322   23.5959 C   0  0  1  0  0  0  0  0  0  0  0  0
   11.7156  -15.9109   22.5474 C   0  0  0  0  0  0  0  0  0  0  0  0
   11.1622  -15.7288   21.1872 C   0  0  0  0  0  0  0  0  0  0  0  0
   11.6062  -16.9136   20.3053 C   0  0  0  0  0  0  0  0  0  0  0  0
   10.9606  -16.7799   18.9285 C   0  0  0  0  0  0  0  0  0  0  0  0
   11.2026  -17.9465   18.1108 N   0  0  0  0  0  0  0  0  0  0  0  0
   11.4128  -16.1643   24.9595 C   0  0  0  0  0  0  0  0  0  0  0  0
   12.4993  -15.5082   25.0734 O   0  0  0  0  0  0  0  0  0  0  0  0
    9.0266  -15.8507   28.5098 C   0  0  0  0  0  0  0  0  0  0  0  0
   10.3036  -15.1325   28.1042 C   0  0  2  0  0  0  0  0  0  0  0  0
   10.0103  -13.9683   27.2069 C   0  0  0  0  0  0  0  0  0  0  0  0
   11.2674  -16.1228   27.4794 C   0  0  2  0  0  0  0  0  0  0  0  0
   10.7648  -16.4997   26.1722 N   0  0  0  0  0  0  0  0  0  0  0  0
   11.5507  -17.2781   28.3487 C   0  0  0  0  0  0  0  0  0  0  0  0
   11.1870  -18.4373   28.0221 O   0  0  0  0  0  0  0  0  0  0  0  0
   12.2225  -17.1844   29.5647 O   0  0  0  0  0  0  0  0  0  0  0  0
  2  1  1  1
  3  2  1  0
  4  3  1  0
  4  5  2  0
  6  5  1  0
  7  6  1  0
  8  7  2  0
  9  8  1  0
 10  9  2  0
 10 11  1  0
 11 12  2  0
 12  7  1  0
 12  4  1  0
 13  2  1  0
 14 13  2  0
 15 13  1  0
 16 22  1  0
 16 15  1  0
 16 17  1  6
 18 17  1  0
 19 18  1  0
 20 19  1  0
 21 20  1  0
 22 28  1  0
 23 22  2  0
 25 24  1  6
 25 27  1  0
 25 26  1  0
 27 29  1  0
 27 28  1  6
 29 30  2  0
 29 31  1  0
M  END
$$$$
