WKV.pdb
     RDKit          3D

 31 32  0  0  1  0  0  0  0  0999 V2000
    6.4003  -18.2912   25.3283 N   0  0  0  0  0  0  0  0  0  0  0  0
    6.6753  -17.6762   24.0706 C   0  0  1  0  0  0  0  0  0  0  0  0
    5.8009  -16.4746   23.7873 C   0  0  0  0  0  0  0  0  0  0  0  0
    5.8864  -15.5730   24.9571 C   0  0  0  0  0  0  0  0  0  0  0  0
    5.5747  -15.9244   26.2578 C   0  0  0  0  0  0  0  0  0  0  0  0
    5.7611  -14.8649   27.0717 N   0  0  0  0  0  0  0  0  0  0  0  0
    6.1913  -13.8373   26.2963 C   0  0  0  0  0  0  0  0  0  0  0  0
    6.5426  -12.5266   26.5756 C   0  0  0  0  0  0  0  0  0  0  0  0
    6.9691  -11.6436   25.5771 C   0  0  0  0  0  0  0  0  0  0  0  0
    7.0337  -12.1124   24.2828 C   0  0  0  0  0  0  0  0  0  0  0  0
    6.6915  -13.4178   23.9558 C   0  0  0  0  0  0  0  0  0  0  0  0
    6.2752  -14.2536   24.9872 C   0  0  0  0  0  0  0  0  0  0  0  0
    8.1391  -17.3185   23.9760 C   0  0  0  0  0  0  0  0  0  0  0  0
    8.8453  -17.7544   24.8776 O   0  0  0  0  0  0  0  0  0  0  0  0
    8.6680  -16.5490   22.9450 N   0  0  0  0  0  0  0  0  0  0  0  0
    9.9463  -16.0668   22.6454 C   0  0  1  0  0  0  0  0  0  0  0  0
   10.2333  -15.1247   21.5533 C   0  0  0  0  0  0  0  0  0  0  0  0
    9.1221  -14.5601   20.7558 C   0  0  0  0  0  0  0  0  0  0  0  0
    9.7092  -13.6600   19.6494 C   0  0  0  0  0  0  0  0  0  0  0  0
    8.5710  -13.1311   18.7806 C   0  0  0  0  0  0  0  0  0  0  0  0
    8.6832  -13.5930   17.4160 N   0  0  0  0  0  0  0  0  0  0  0  0
   10.7644  -15.7265   23.8620 C   0  0  0  0  0  0  0  0  0  0  0  0
   11.6646  -14.8269   23.7955 O   0  0  0  0  0  0  0  0  0  0  0  0
   10.5616  -13.7369   26.3500 C   0  0  0  0  0  0  0  0  0  0  0  0
   10.7397  -15.0262   27.1356 C   0  0  2  0  0  0  0  0  0  0  0  0
   11.4511  -14.7786   28.4314 C   0  0  0  0  0  0  0  0  0  0  0  0
   11.4423  -16.0554   26.2713 C   0  0  2  0  0  0  0  0  0  0  0  0
   10.6056  -16.3482   25.1234 N   0  0  0  0  0  0  0  0  0  0  0  0
   11.8442  -17.2589   27.0200 C   0  0  0  0  0  0  0  0  0  0  0  0
   11.1917  -18.3300   26.9204 O   0  0  0  0  0  0  0  0  0  0  0  0
   12.9441  -17.3079   27.8724 O   0  0  0  0  0  0  0  0  0  0  0  0
  2  1  1  1
  3  2  1  0
  4  3  1  0
  4  5  2  0
  6  5  1  0
  7  6  1  0
  8  7  2  0
  9  8  1  0
 10  9  2  0
 10 11  1  0
 11 12  2  0
 12  7  1  0
 12  4  1  0
 13  2  1  0
 14 13  2  0
 15 13  1  0
 16 22  1  0
 16 15  1  0
 16 17  1  6
 18 17  1  0
 19 18  1  0
 20 19  1  0
 21 20  1  0
 22 28  1  0
 23 22  2  0
 25 24  1  6
 25 27  1  0
 25 26  1  0
 27 29  1  0
 27 28  1  6
 29 30  2  0
 29 31  1  0
M  END
$$$$
