WKV.pdb
     RDKit          3D

 31 32  0  0  1  0  0  0  0  0999 V2000
    5.8628  -18.1229   24.5620 N   0  0  0  0  0  0  0  0  0  0  0  0
    6.5638  -16.9388   24.1847 C   0  0  1  0  0  0  0  0  0  0  0  0
    7.5971  -16.5050   25.2010 C   0  0  0  0  0  0  0  0  0  0  0  0
    7.0887  -15.2836   25.8630 C   0  0  0  0  0  0  0  0  0  0  0  0
    5.8058  -15.1181   26.3518 C   0  0  0  0  0  0  0  0  0  0  0  0
    5.6795  -13.8870   26.8889 N   0  0  0  0  0  0  0  0  0  0  0  0
    6.8771  -13.2649   26.7457 C   0  0  0  0  0  0  0  0  0  0  0  0
    7.3374  -12.0085   27.1052 C   0  0  0  0  0  0  0  0  0  0  0  0
    8.6490  -11.5959   26.8444 C   0  0  0  0  0  0  0  0  0  0  0  0
    9.4919  -12.4815   26.2088 C   0  0  0  0  0  0  0  0  0  0  0  0
    9.0748  -13.7505   25.8299 C   0  0  0  0  0  0  0  0  0  0  0  0
    7.7612  -14.1099   26.1143 C   0  0  0  0  0  0  0  0  0  0  0  0
    7.1835  -17.1145   22.8193 C   0  0  0  0  0  0  0  0  0  0  0  0
    7.9801  -18.0403   22.7196 O   0  0  0  0  0  0  0  0  0  0  0  0
    6.8837  -16.2930   21.7376 N   0  0  0  0  0  0  0  0  0  0  0  0
    7.6230  -15.3943   20.9616 C   0  0  1  0  0  0  0  0  0  0  0  0
    7.2143  -14.0061   20.6999 C   0  0  0  0  0  0  0  0  0  0  0  0
    7.9162  -13.2136   19.6660 C   0  0  0  0  0  0  0  0  0  0  0  0
    7.7164  -13.8928   18.2958 C   0  0  0  0  0  0  0  0  0  0  0  0
    8.4664  -13.0970   17.2306 C   0  0  0  0  0  0  0  0  0  0  0  0
    8.2755  -13.6585   15.9129 N   0  0  0  0  0  0  0  0  0  0  0  0
    9.1073  -15.4694   21.1993 C   0  0  0  0  0  0  0  0  0  0  0  0
    9.9201  -15.1940   20.2573 O   0  0  0  0  0  0  0  0  0  0  0  0
   10.8501  -15.2054   25.0159 C   0  0  0  0  0  0  0  0  0  0  0  0
   11.3841  -16.2895   24.0935 C   0  0  2  0  0  0  0  0  0  0  0  0
   12.8307  -16.5710   24.3668 C   0  0  0  0  0  0  0  0  0  0  0  0
   11.1275  -15.9011   22.6502 C   0  0  2  0  0  0  0  0  0  0  0  0
    9.6950  -15.8329   22.4344 N   0  0  0  0  0  0  0  0  0  0  0  0
   11.8197  -16.7744   21.6866 C   0  0  0  0  0  0  0  0  0  0  0  0
   11.1851  -17.6313   21.0191 O   0  0  0  0  0  0  0  0  0  0  0  0
   13.1899  -16.7247   21.4437 O   0  0  0  0  0  0  0  0  0  0  0  0
  2  1  1  1
  3  2  1  0
  4  3  1  0
  4  5  2  0
  6  5  1  0
  7  6  1  0
  8  7  2  0
  9  8  1  0
 10  9  2  0
 10 11  1  0
 11 12  2  0
 12  7  1  0
 12  4  1  0
 13  2  1  0
 14 13  2  0
 15 13  1  0
 16 22  1  0
 16 15  1  0
 16 17  1  1
 18 17  1  0
 19 18  1  0
 20 19  1  0
 21 20  1  0
 22 28  1  0
 23 22  2  0
 25 24  1  1
 25 27  1  0
 25 26  1  0
 27 29  1  0
 27 28  1  6
 29 30  2  0
 29 31  1  0
M  END
$$$$
