WKV.pdb
     RDKit          3D

 31 32  0  0  1  0  0  0  0  0999 V2000
    6.8012  -18.6359   24.7878 N   0  0  0  0  0  0  0  0  0  0  0  0
    6.8900  -17.2493   24.4633 C   0  0  1  0  0  0  0  0  0  0  0  0
    7.6942  -16.4500   25.4648 C   0  0  0  0  0  0  0  0  0  0  0  0
    6.8386  -15.3423   25.9440 C   0  0  0  0  0  0  0  0  0  0  0  0
    5.4686  -15.4127   26.1189 C   0  0  0  0  0  0  0  0  0  0  0  0
    5.0059  -14.2262   26.5638 N   0  0  0  0  0  0  0  0  0  0  0  0
    6.0750  -13.3975   26.6744 C   0  0  0  0  0  0  0  0  0  0  0  0
    6.2101  -12.0796   27.0800 C   0  0  0  0  0  0  0  0  0  0  0  0
    7.4524  -11.4361   27.1105 C   0  0  0  0  0  0  0  0  0  0  0  0
    8.5627  -12.1531   26.7204 C   0  0  0  0  0  0  0  0  0  0  0  0
    8.4756  -13.4756   26.3063 C   0  0  0  0  0  0  0  0  0  0  0  0
    7.2164  -14.0672   26.2962 C   0  0  0  0  0  0  0  0  0  0  0  0
    7.4346  -17.0765   23.0658 C   0  0  0  0  0  0  0  0  0  0  0  0
    8.2011  -17.9552   22.6888 O   0  0  0  0  0  0  0  0  0  0  0  0
    7.1012  -16.0018   22.2481 N   0  0  0  0  0  0  0  0  0  0  0  0
    7.8063  -15.2254   21.3227 C   0  0  1  0  0  0  0  0  0  0  0  0
    7.4478  -13.8442   20.9673 C   0  0  0  0  0  0  0  0  0  0  0  0
    8.1504  -13.1626   19.8577 C   0  0  0  0  0  0  0  0  0  0  0  0
    7.6371  -13.7304   18.5187 C   0  0  0  0  0  0  0  0  0  0  0  0
    8.4363  -13.1108   17.3752 C   0  0  0  0  0  0  0  0  0  0  0  0
    8.0082  -13.6161   16.0908 N   0  0  0  0  0  0  0  0  0  0  0  0
    9.3008  -15.3706   21.4261 C   0  0  0  0  0  0  0  0  0  0  0  0
   10.0446  -15.0358   20.4470 O   0  0  0  0  0  0  0  0  0  0  0  0
   11.3277  -17.3515   24.7496 C   0  0  0  0  0  0  0  0  0  0  0  0
   11.8300  -16.0763   24.0918 C   0  0  2  0  0  0  0  0  0  0  0  0
   11.3731  -14.8619   24.8422 C   0  0  0  0  0  0  0  0  0  0  0  0
   11.4084  -16.0553   22.6352 C   0  0  2  0  0  0  0  0  0  0  0  0
    9.9720  -15.8661   22.5693 N   0  0  0  0  0  0  0  0  0  0  0  0
   11.8748  -17.2333   21.8833 C   0  0  0  0  0  0  0  0  0  0  0  0
   11.0603  -18.0922   21.4570 O   0  0  0  0  0  0  0  0  0  0  0  0
   13.2131  -17.4848   21.5923 O   0  0  0  0  0  0  0  0  0  0  0  0
  2  1  1  1
  3  2  1  0
  4  3  1  0
  4  5  2  0
  6  5  1  0
  7  6  1  0
  8  7  2  0
  9  8  1  0
 10  9  2  0
 10 11  1  0
 11 12  2  0
 12  7  1  0
 12  4  1  0
 13  2  1  0
 14 13  2  0
 15 13  1  0
 16 22  1  0
 16 15  1  0
 16 17  1  1
 18 17  1  0
 19 18  1  0
 20 19  1  0
 21 20  1  0
 22 28  1  0
 23 22  2  0
 25 24  1  1
 25 27  1  0
 25 26  1  0
 27 29  1  0
 27 28  1  1
 29 30  2  0
 29 31  1  0
M  END
$$$$
