WKV.pdb
     RDKit          3D

 31 32  0  0  1  0  0  0  0  0999 V2000
    6.2693  -18.1431   25.3052 N   0  0  0  0  0  0  0  0  0  0  0  0
    6.7030  -16.8816   24.7988 C   0  0  1  0  0  0  0  0  0  0  0  0
    7.5615  -16.1075   25.7747 C   0  0  0  0  0  0  0  0  0  0  0  0
    6.7662  -14.9561   26.2549 C   0  0  0  0  0  0  0  0  0  0  0  0
    5.4247  -14.9985   26.5881 C   0  0  0  0  0  0  0  0  0  0  0  0
    5.0159  -13.7753   26.9837 N   0  0  0  0  0  0  0  0  0  0  0  0
    6.0912  -12.9509   26.9050 C   0  0  0  0  0  0  0  0  0  0  0  0
    6.2721  -11.6059   27.1836 C   0  0  0  0  0  0  0  0  0  0  0  0
    7.5104  -10.9742   27.0214 C   0  0  0  0  0  0  0  0  0  0  0  0
    8.5690  -11.7316   26.5688 C   0  0  0  0  0  0  0  0  0  0  0  0
    8.4348  -13.0824   26.2768 C   0  0  0  0  0  0  0  0  0  0  0  0
    7.1822  -13.6604   26.4569 C   0  0  0  0  0  0  0  0  0  0  0  0
    7.4119  -17.0675   23.4789 C   0  0  0  0  0  0  0  0  0  0  0  0
    8.2762  -17.9360   23.4650 O   0  0  0  0  0  0  0  0  0  0  0  0
    7.1183  -16.3151   22.3463 N   0  0  0  0  0  0  0  0  0  0  0  0
    7.8842  -15.5609   21.4515 C   0  0  1  0  0  0  0  0  0  0  0  0
    7.5289  -14.2049   21.0068 C   0  0  0  0  0  0  0  0  0  0  0  0
    8.3247  -13.5441   19.9487 C   0  0  0  0  0  0  0  0  0  0  0  0
    7.7731  -13.9671   18.5719 C   0  0  0  0  0  0  0  0  0  0  0  0
    8.6059  -13.3063   17.4765 C   0  0  0  0  0  0  0  0  0  0  0  0
    8.0717  -13.5806   16.1622 N   0  0  0  0  0  0  0  0  0  0  0  0
    9.3670  -15.6649   21.6882 C   0  0  0  0  0  0  0  0  0  0  0  0
    9.9298  -14.9177   22.5536 O   0  0  0  0  0  0  0  0  0  0  0  0
   11.5914  -18.9932   20.4877 C   0  0  0  0  0  0  0  0  0  0  0  0
   12.0377  -18.0356   21.5808 C   0  0  2  0  0  0  0  0  0  0  0  0
   11.4936  -18.4443   22.9163 C   0  0  0  0  0  0  0  0  0  0  0  0
   11.6536  -16.6180   21.2029 C   0  0  2  0  0  0  0  0  0  0  0  0
   10.2184  -16.5629   21.0015 N   0  0  0  0  0  0  0  0  0  0  0  0
   12.4217  -16.0985   20.0581 C   0  0  0  0  0  0  0  0  0  0  0  0
   11.8982  -16.0034   18.9181 O   0  0  0  0  0  0  0  0  0  0  0  0
   13.7483  -15.6836   20.1414 O   0  0  0  0  0  0  0  0  0  0  0  0
  2  1  1  1
  3  2  1  0
  4  3  1  0
  4  5  2  0
  6  5  1  0
  7  6  1  0
  8  7  2  0
  9  8  1  0
 10  9  2  0
 10 11  1  0
 11 12  2  0
 12  7  1  0
 12  4  1  0
 13  2  1  0
 14 13  2  0
 15 13  1  0
 16 22  1  0
 16 15  1  0
 16 17  1  1
 18 17  1  0
 19 18  1  0
 20 19  1  0
 21 20  1  0
 22 28  1  0
 23 22  2  0
 25 24  1  6
 25 27  1  0
 25 26  1  0
 27 29  1  0
 27 28  1  6
 29 30  2  0
 29 31  1  0
M  END
$$$$
