WKV.pdb
     RDKit          3D

 31 32  0  0  1  0  0  0  0  0999 V2000
    6.1589  -17.5691   24.8015 N   0  0  0  0  0  0  0  0  0  0  0  0
    7.1793  -16.5771   24.6987 C   0  0  1  0  0  0  0  0  0  0  0  0
    7.3915  -15.8010   25.9799 C   0  0  0  0  0  0  0  0  0  0  0  0
    6.3942  -14.7088   26.0122 C   0  0  0  0  0  0  0  0  0  0  0  0
    5.0682  -14.8519   26.3774 C   0  0  0  0  0  0  0  0  0  0  0  0
    4.4423  -13.6599   26.2924 N   0  0  0  0  0  0  0  0  0  0  0  0
    5.3634  -12.7550   25.8743 C   0  0  0  0  0  0  0  0  0  0  0  0
    5.3017  -11.3951   25.6168 C   0  0  0  0  0  0  0  0  0  0  0  0
    6.4192  -10.6691   25.1895 C   0  0  0  0  0  0  0  0  0  0  0  0
    7.6076  -11.3472   25.0255 C   0  0  0  0  0  0  0  0  0  0  0  0
    7.7168  -12.7094   25.2713 C   0  0  0  0  0  0  0  0  0  0  0  0
    6.5753  -13.3824   25.6952 C   0  0  0  0  0  0  0  0  0  0  0  0
    8.4675  -17.2040   24.2223 C   0  0  0  0  0  0  0  0  0  0  0  0
    8.6639  -18.3526   24.6014 O   0  0  0  0  0  0  0  0  0  0  0  0
    9.3802  -16.5400   23.4092 N   0  0  0  0  0  0  0  0  0  0  0  0
   10.7638  -16.6263   23.2242 C   0  0  1  0  0  0  0  0  0  0  0  0
   11.4920  -15.9437   22.1442 C   0  0  0  0  0  0  0  0  0  0  0  0
   10.8162  -15.6734   20.8559 C   0  0  0  0  0  0  0  0  0  0  0  0
   11.0667  -16.8597   19.9026 C   0  0  0  0  0  0  0  0  0  0  0  0
   10.2818  -16.6370   18.6124 C   0  0  0  0  0  0  0  0  0  0  0  0
   10.5477  -17.6735   17.6413 N   0  0  0  0  0  0  0  0  0  0  0  0
   11.5498  -16.5684   24.5065 C   0  0  0  0  0  0  0  0  0  0  0  0
   12.8089  -16.7644   24.4936 O   0  0  0  0  0  0  0  0  0  0  0  0
    9.8125  -15.7394   28.4678 C   0  0  0  0  0  0  0  0  0  0  0  0
   11.1683  -15.2840   27.9525 C   0  0  2  0  0  0  0  0  0  0  0  0
   11.0812  -13.9283   27.3192 C   0  0  0  0  0  0  0  0  0  0  0  0
   11.7335  -16.3319   27.0131 C   0  0  2  0  0  0  0  0  0  0  0  0
   10.9802  -16.3007   25.7741 N   0  0  0  0  0  0  0  0  0  0  0  0
   11.8005  -17.6730   27.6191 C   0  0  0  0  0  0  0  0  0  0  0  0
   11.0233  -18.5899   27.2475 O   0  0  0  0  0  0  0  0  0  0  0  0
   12.7010  -18.0245   28.6214 O   0  0  0  0  0  0  0  0  0  0  0  0
  2  1  1  1
  3  2  1  0
  4  3  1  0
  4  5  2  0
  6  5  1  0
  7  6  1  0
  8  7  2  0
  9  8  1  0
 10  9  2  0
 10 11  1  0
 11 12  2  0
 12  7  1  0
 12  4  1  0
 13  2  1  0
 14 13  2  0
 15 13  1  0
 16 22  1  0
 16 15  1  0
 16 17  1  6
 18 17  1  0
 19 18  1  0
 20 19  1  0
 21 20  1  0
 22 28  1  0
 23 22  2  0
 25 24  1  6
 25 27  1  0
 25 26  1  0
 27 29  1  0
 27 28  1  6
 29 30  2  0
 29 31  1  0
M  END
$$$$
