WKV.pdb
     RDKit          3D

 31 32  0  0  1  0  0  0  0  0999 V2000
    6.0141  -17.3016   24.7622 N   0  0  0  0  0  0  0  0  0  0  0  0
    6.8693  -16.4154   24.0417 C   0  0  1  0  0  0  0  0  0  0  0  0
    7.7641  -15.5866   24.9368 C   0  0  0  0  0  0  0  0  0  0  0  0
    6.9007  -14.6500   25.6892 C   0  0  0  0  0  0  0  0  0  0  0  0
    5.7745  -15.0075   26.4076 C   0  0  0  0  0  0  0  0  0  0  0  0
    5.2248  -13.9097   26.9667 N   0  0  0  0  0  0  0  0  0  0  0  0
    5.9956  -12.8515   26.6085 C   0  0  0  0  0  0  0  0  0  0  0  0
    5.9252  -11.4957   26.8848 C   0  0  0  0  0  0  0  0  0  0  0  0
    6.8670  -10.5872   26.3887 C   0  0  0  0  0  0  0  0  0  0  0  0
    7.8874  -11.0771   25.6027 C   0  0  0  0  0  0  0  0  0  0  0  0
    7.9982  -12.4276   25.2993 C   0  0  0  0  0  0  0  0  0  0  0  0
    7.0357  -13.2871   25.8193 C   0  0  0  0  0  0  0  0  0  0  0  0
    7.6785  -17.1855   23.0260 C   0  0  0  0  0  0  0  0  0  0  0  0
    7.9608  -18.3352   23.3423 O   0  0  0  0  0  0  0  0  0  0  0  0
    8.0846  -16.6448   21.8104 N   0  0  0  0  0  0  0  0  0  0  0  0
    9.3254  -16.3112   21.2577 C   0  0  1  0  0  0  0  0  0  0  0  0
    9.4969  -15.4072   20.1106 C   0  0  0  0  0  0  0  0  0  0  0  0
    8.3550  -15.1343   19.2100 C   0  0  0  0  0  0  0  0  0  0  0  0
    8.7689  -14.0503   18.1939 C   0  0  0  0  0  0  0  0  0  0  0  0
    7.6012  -13.7814   17.2482 C   0  0  0  0  0  0  0  0  0  0  0  0
    7.9819  -12.8992   16.1688 N   0  0  0  0  0  0  0  0  0  0  0  0
   10.3984  -16.0671   22.2845 C   0  0  0  0  0  0  0  0  0  0  0  0
   10.9300  -14.9139   22.3915 O   0  0  0  0  0  0  0  0  0  0  0  0
   11.5146  -18.9429   25.2260 C   0  0  0  0  0  0  0  0  0  0  0  0
   11.9248  -17.4814   25.3081 C   0  0  2  0  0  0  0  0  0  0  0  0
   10.9373  -16.6842   26.1055 C   0  0  0  0  0  0  0  0  0  0  0  0
   12.1264  -16.9305   23.9097 C   0  0  2  0  0  0  0  0  0  0  0  0
   10.8809  -17.0538   23.1770 N   0  0  0  0  0  0  0  0  0  0  0  0
   13.2739  -17.5359   23.2117 C   0  0  0  0  0  0  0  0  0  0  0  0
   13.1009  -18.3795   22.2945 O   0  0  0  0  0  0  0  0  0  0  0  0
   14.6020  -17.2339   23.5011 O   0  0  0  0  0  0  0  0  0  0  0  0
  2  1  1  1
  3  2  1  0
  4  3  1  0
  4  5  2  0
  6  5  1  0
  7  6  1  0
  8  7  2  0
  9  8  1  0
 10  9  2  0
 10 11  1  0
 11 12  2  0
 12  7  1  0
 12  4  1  0
 13  2  1  0
 14 13  2  0
 15 13  1  0
 16 22  1  0
 16 15  1  0
 16 17  1  1
 18 17  1  0
 19 18  1  0
 20 19  1  0
 21 20  1  0
 22 28  1  0
 23 22  2  0
 25 24  1  6
 25 27  1  0
 25 26  1  0
 27 29  1  0
 27 28  1  6
 29 30  2  0
 29 31  1  0
M  END
$$$$
