ACN.pdb
     RDKit          3D

 20 19  0  0  1  0  0  0  0  0999 V2000
   19.9366  -13.0436  -16.5878 C   0  0  0  0  0  0  0  0  0  0  0  0
   18.7622  -12.3857  -15.9049 C   0  0  2  0  0  0  0  0  0  0  0  0
   17.5163  -13.0984  -16.0805 N   0  0  0  0  0  0  0  0  0  0  0  0
   18.5646  -10.9771  -16.3055 C   0  0  0  0  0  0  0  0  0  0  0  0
   18.3610  -10.6299  -17.5034 O   0  0  0  0  0  0  0  0  0  0  0  0
   18.6047   -9.9673  -15.3256 N   0  0  0  0  0  0  0  0  0  0  0  0
   18.4983   -8.5413  -15.6378 C   0  0  1  0  0  0  0  0  0  0  0  0
   17.1892   -8.0471  -15.1313 C   0  0  0  0  0  0  0  0  0  0  0  0
   17.0539   -6.2510  -15.1287 S   0  0  0  0  0  0  0  0  0  0  0  0
   19.6804   -7.8573  -15.0192 C   0  0  0  0  0  0  0  0  0  0  0  0
   20.1524   -8.3073  -13.9570 O   0  0  0  0  0  0  0  0  0  0  0  0
   23.7609   -4.6290  -14.4659 N   0  0  0  0  0  0  0  0  0  0  0  0
   23.7975   -5.5580  -15.5200 C   0  0  0  0  0  0  0  0  0  0  0  0
   24.8650   -5.7283  -16.1537 O   0  0  0  0  0  0  0  0  0  0  0  0
   22.6179   -6.3343  -15.8954 C   0  0  0  0  0  0  0  0  0  0  0  0
   21.3681   -5.9707  -15.1373 C   0  0  2  0  0  0  0  0  0  0  0  0
   20.2335   -6.7266  -15.6378 N   0  0  0  0  0  0  0  0  0  0  0  0
   21.0287   -4.5446  -15.1616 C   0  0  0  0  0  0  0  0  0  0  0  0
   21.3965   -3.7580  -14.0525 O   0  0  0  0  0  0  0  0  0  0  0  0
   20.4350   -3.9247  -16.0742 O   0  0  0  0  0  0  0  0  0  0  0  0
  2  1  1  6
  2  3  1  0
  4  2  1  0
  4  5  2  0
  6  4  1  0
  7  6  1  0
  7  8  1  1
  9  8  1  0
 10  7  1  0
 10 17  1  0
 11 10  2  0
 13 15  1  0
 13 12  1  0
 14 13  2  0
 16 15  1  6
 16 17  1  0
 16 18  1  0
 18 20  2  0
 18 19  1  0
M  END
$$$$
