ACN.pdb
     RDKit          3D

 20 19  0  0  1  0  0  0  0  0999 V2000
   18.8860   -9.6476  -19.7815 C   0  0  0  0  0  0  0  0  0  0  0  0
   20.3062  -10.0033  -19.4140 C   0  0  2  0  0  0  0  0  0  0  0  0
   20.5836  -11.4209  -19.4786 N   0  0  0  0  0  0  0  0  0  0  0  0
   20.7118   -9.4997  -18.0852 C   0  0  0  0  0  0  0  0  0  0  0  0
   20.2958  -10.0087  -17.0059 O   0  0  0  0  0  0  0  0  0  0  0  0
   21.5948   -8.4068  -17.9997 N   0  0  0  0  0  0  0  0  0  0  0  0
   22.0626   -7.8502  -16.7294 C   0  0  1  0  0  0  0  0  0  0  0  0
   23.5060   -8.1790  -16.5771 C   0  0  0  0  0  0  0  0  0  0  0  0
   24.3304   -7.2107  -15.3016 S   0  0  0  0  0  0  0  0  0  0  0  0
   21.7795   -6.3782  -16.7533 C   0  0  0  0  0  0  0  0  0  0  0  0
   22.0844   -5.7197  -17.7667 O   0  0  0  0  0  0  0  0  0  0  0  0
   18.1155   -2.0998  -15.8781 N   0  0  0  0  0  0  0  0  0  0  0  0
   19.0148   -2.7653  -15.0274 C   0  0  0  0  0  0  0  0  0  0  0  0
   19.4952   -2.1574  -14.0425 O   0  0  0  0  0  0  0  0  0  0  0  0
   19.4033   -4.1541  -15.2625 C   0  0  0  0  0  0  0  0  0  0  0  0
   20.8719   -4.3509  -15.5334 C   0  0  2  0  0  0  0  0  0  0  0  0
   21.1824   -5.7655  -15.6419 N   0  0  0  0  0  0  0  0  0  0  0  0
   21.7653   -3.7498  -14.5384 C   0  0  0  0  0  0  0  0  0  0  0  0
   22.1854   -2.4211  -14.7434 O   0  0  0  0  0  0  0  0  0  0  0  0
   22.2121   -4.2900  -13.5000 O   0  0  0  0  0  0  0  0  0  0  0  0
  2  1  1  1
  2  3  1  0
  4  2  1  0
  4  5  2  0
  6  4  1  0
  7  6  1  0
  7  8  1  6
  9  8  1  0
 10  7  1  0
 10 17  1  0
 11 10  2  0
 13 15  1  0
 13 12  1  0
 14 13  2  0
 16 15  1  1
 16 17  1  0
 16 18  1  0
 18 20  2  0
 18 19  1  0
M  END
$$$$
