ACN.pdb
     RDKit          3D

 20 19  0  0  1  0  0  0  0  0999 V2000
   25.6587  -14.3849  -15.6994 C   0  0  0  0  0  0  0  0  0  0  0  0
   26.8726  -15.2495  -15.9390 C   0  0  2  0  0  0  0  0  0  0  0  0
   27.6095  -14.8958  -17.1318 N   0  0  0  0  0  0  0  0  0  0  0  0
   26.5644  -16.6941  -15.9816 C   0  0  0  0  0  0  0  0  0  0  0  0
   26.1096  -17.2653  -17.0130 O   0  0  0  0  0  0  0  0  0  0  0  0
   26.7775  -17.4809  -14.8339 N   0  0  0  0  0  0  0  0  0  0  0  0
   26.4798  -18.9127  -14.7757 C   0  0  1  0  0  0  0  0  0  0  0  0
   27.6114  -19.5992  -14.0954 C   0  0  0  0  0  0  0  0  0  0  0  0
   27.8003  -21.3230  -14.5822 S   0  0  0  0  0  0  0  0  0  0  0  0
   25.1674  -19.0696  -14.0682 C   0  0  0  0  0  0  0  0  0  0  0  0
   24.9029  -18.3179  -13.1098 O   0  0  0  0  0  0  0  0  0  0  0  0
   20.0863  -19.9207  -13.6296 N   0  0  0  0  0  0  0  0  0  0  0  0
   20.7526  -18.7818  -14.1138 C   0  0  0  0  0  0  0  0  0  0  0  0
   20.1015  -17.7335  -14.3310 O   0  0  0  0  0  0  0  0  0  0  0  0
   22.1913  -18.7894  -14.3693 C   0  0  0  0  0  0  0  0  0  0  0  0
   22.8597  -20.1156  -14.1177 C   0  0  2  0  0  0  0  0  0  0  0  0
   24.2624  -20.0549  -14.4892 N   0  0  0  0  0  0  0  0  0  0  0  0
   22.2418  -21.2543  -14.8040 C   0  0  0  0  0  0  0  0  0  0  0  0
   21.1289  -21.8682  -14.1969 O   0  0  0  0  0  0  0  0  0  0  0  0
   22.5937  -21.7606  -15.8947 O   0  0  0  0  0  0  0  0  0  0  0  0
  2  1  1  6
  2  3  1  0
  4  2  1  0
  4  5  2  0
  6  4  1  0
  7  6  1  0
  7  8  1  1
  9  8  1  0
 10  7  1  0
 10 17  1  0
 11 10  2  0
 13 15  1  0
 13 12  1  0
 14 13  2  0
 16 15  1  6
 16 17  1  0
 16 18  1  0
 18 20  2  0
 18 19  1  0
M  END
$$$$
