ACN.pdb
     RDKit          3D

 20 19  0  0  1  0  0  0  0  0999 V2000
   14.4062  -10.8290  -14.7522 C   0  0  0  0  0  0  0  0  0  0  0  0
   15.8785  -10.4961  -14.7463 C   0  0  2  0  0  0  0  0  0  0  0  0
   16.7179  -11.5733  -15.2214 N   0  0  0  0  0  0  0  0  0  0  0  0
   16.3744  -10.0537  -13.4264 C   0  0  0  0  0  0  0  0  0  0  0  0
   16.3790  -10.8064  -12.4113 O   0  0  0  0  0  0  0  0  0  0  0  0
   16.8625   -8.7421  -13.2750 N   0  0  0  0  0  0  0  0  0  0  0  0
   17.4975   -8.2586  -12.0481 C   0  0  1  0  0  0  0  0  0  0  0  0
   18.8412   -7.7219  -12.3961 C   0  0  0  0  0  0  0  0  0  0  0  0
   20.1529   -8.9516  -12.2906 S   0  0  0  0  0  0  0  0  0  0  0  0
   16.5810   -7.2396  -11.4403 C   0  0  0  0  0  0  0  0  0  0  0  0
   16.1090   -6.3417  -12.1645 O   0  0  0  0  0  0  0  0  0  0  0  0
   13.5189   -9.1844   -8.1285 N   0  0  0  0  0  0  0  0  0  0  0  0
   13.6299   -7.8579   -8.5796 C   0  0  0  0  0  0  0  0  0  0  0  0
   12.7419   -7.3855   -9.3269 O   0  0  0  0  0  0  0  0  0  0  0  0
   14.7581   -7.0125   -8.1958 C   0  0  0  0  0  0  0  0  0  0  0  0
   15.4569   -6.3465   -9.3521 C   0  0  2  0  0  0  0  0  0  0  0  0
   16.2716   -7.3079  -10.0740 N   0  0  0  0  0  0  0  0  0  0  0  0
   16.2969   -5.2023   -8.9849 C   0  0  0  0  0  0  0  0  0  0  0  0
   15.6601   -4.0411   -8.5051 O   0  0  0  0  0  0  0  0  0  0  0  0
   17.5461   -5.1311   -9.0480 O   0  0  0  0  0  0  0  0  0  0  0  0
  2  1  1  1
  2  3  1  0
  4  2  1  0
  4  5  2  0
  6  4  1  0
  7  6  1  0
  7  8  1  6
  9  8  1  0
 10  7  1  0
 10 17  1  0
 11 10  2  0
 13 15  1  0
 13 12  1  0
 14 13  2  0
 16 15  1  1
 16 17  1  0
 16 18  1  0
 18 20  2  0
 18 19  1  0
M  END
$$$$
