ACN.pdb
     RDKit          3D

 20 19  0  0  1  0  0  0  0  0999 V2000
   15.7699   -9.4163  -17.3150 C   0  0  0  0  0  0  0  0  0  0  0  0
   17.1580  -10.0068  -17.2622 C   0  0  2  0  0  0  0  0  0  0  0  0
   17.1713  -11.4517  -17.2076 N   0  0  0  0  0  0  0  0  0  0  0  0
   17.9768   -9.4816  -16.1497 C   0  0  0  0  0  0  0  0  0  0  0  0
   17.5580   -9.4307  -14.9584 O   0  0  0  0  0  0  0  0  0  0  0  0
   19.2778   -9.0116  -16.4103 N   0  0  0  0  0  0  0  0  0  0  0  0
   20.2005   -8.5791  -15.3596 C   0  0  1  0  0  0  0  0  0  0  0  0
   21.3812   -9.4849  -15.3710 C   0  0  0  0  0  0  0  0  0  0  0  0
   22.7658   -8.8690  -14.3975 S   0  0  0  0  0  0  0  0  0  0  0  0
   20.5404   -7.1432  -15.6245 C   0  0  0  0  0  0  0  0  0  0  0  0
   20.9153   -6.8106  -16.7657 O   0  0  0  0  0  0  0  0  0  0  0  0
   21.1761   -2.0001  -14.6934 N   0  0  0  0  0  0  0  0  0  0  0  0
   19.9446   -2.4971  -14.2330 C   0  0  0  0  0  0  0  0  0  0  0  0
   19.0727   -1.6965  -13.8218 O   0  0  0  0  0  0  0  0  0  0  0  0
   19.6540   -3.9290  -14.2240 C   0  0  0  0  0  0  0  0  0  0  0  0
   20.7892   -4.7962  -14.7018 C   0  0  2  0  0  0  0  0  0  0  0  0
   20.4358   -6.2005  -14.5913 N   0  0  0  0  0  0  0  0  0  0  0  0
   22.0625   -4.5772  -14.0086 C   0  0  0  0  0  0  0  0  0  0  0  0
   22.3123   -5.3152  -12.8351 O   0  0  0  0  0  0  0  0  0  0  0  0
   22.9795   -3.7920  -14.3431 O   0  0  0  0  0  0  0  0  0  0  0  0
  2  1  1  1
  2  3  1  0
  4  2  1  0
  4  5  2  0
  6  4  1  0
  7  6  1  0
  7  8  1  6
  9  8  1  0
 10  7  1  0
 10 17  1  0
 11 10  2  0
 13 15  1  0
 13 12  1  0
 14 13  2  0
 16 15  1  1
 16 17  1  0
 16 18  1  0
 18 20  2  0
 18 19  1  0
M  END
$$$$
