ACN.pdb
     RDKit          3D

 20 19  0  0  1  0  0  0  0  0999 V2000
   23.0248  -10.7309  -21.6551 C   0  0  0  0  0  0  0  0  0  0  0  0
   23.5640   -9.8209  -20.5783 C   0  0  2  0  0  0  0  0  0  0  0  0
   24.9422  -10.0873  -20.2312 N   0  0  0  0  0  0  0  0  0  0  0  0
   22.7527   -9.8289  -19.3431 C   0  0  0  0  0  0  0  0  0  0  0  0
   21.5091   -9.6044  -19.3415 O   0  0  0  0  0  0  0  0  0  0  0  0
   23.3751  -10.0928  -18.1085 N   0  0  0  0  0  0  0  0  0  0  0  0
   22.6680  -10.0499  -16.8277 C   0  0  1  0  0  0  0  0  0  0  0  0
   23.1522  -11.1786  -15.9872 C   0  0  0  0  0  0  0  0  0  0  0  0
   22.6762  -11.0379  -14.2558 S   0  0  0  0  0  0  0  0  0  0  0  0
   22.9152   -8.7002  -16.2238 C   0  0  0  0  0  0  0  0  0  0  0  0
   24.0629   -8.2165  -16.2724 O   0  0  0  0  0  0  0  0  0  0  0  0
   22.6737   -3.2450  -16.3829 N   0  0  0  0  0  0  0  0  0  0  0  0
   22.6925   -4.3473  -15.5112 C   0  0  0  0  0  0  0  0  0  0  0  0
   22.8133   -4.1555  -14.2787 O   0  0  0  0  0  0  0  0  0  0  0  0
   22.5723   -5.7162  -16.0079 C   0  0  0  0  0  0  0  0  0  0  0  0
   21.9593   -6.6812  -15.0272 C   0  0  2  0  0  0  0  0  0  0  0  0
   21.8600   -8.0059  -15.6141 N   0  0  0  0  0  0  0  0  0  0  0  0
   20.6381   -6.2903  -14.5259 C   0  0  0  0  0  0  0  0  0  0  0  0
   20.5668   -5.2183  -13.6150 O   0  0  0  0  0  0  0  0  0  0  0  0
   19.5356   -6.8087  -14.8179 O   0  0  0  0  0  0  0  0  0  0  0  0
  2  1  1  6
  2  3  1  0
  4  2  1  0
  4  5  2  0
  6  4  1  0
  7  6  1  0
  7  8  1  1
  9  8  1  0
 10  7  1  0
 10 17  1  0
 11 10  2  0
 13 15  1  0
 13 12  1  0
 14 13  2  0
 16 15  1  6
 16 17  1  0
 16 18  1  0
 18 20  2  0
 18 19  1  0
M  END
$$$$
