ACN.pdb
     RDKit          3D

 20 19  0  0  1  0  0  0  0  0999 V2000
   26.8570  -17.3088  -14.6123 C   0  0  0  0  0  0  0  0  0  0  0  0
   27.5170  -18.6663  -14.6185 C   0  0  2  0  0  0  0  0  0  0  0  0
   28.1665  -18.9891  -15.8694 N   0  0  0  0  0  0  0  0  0  0  0  0
   26.5976  -19.7671  -14.2623 C   0  0  0  0  0  0  0  0  0  0  0  0
   25.8887  -20.3686  -15.1182 O   0  0  0  0  0  0  0  0  0  0  0  0
   26.4924  -20.1730  -12.9186 N   0  0  0  0  0  0  0  0  0  0  0  0
   25.5576  -21.2024  -12.4619 C   0  0  1  0  0  0  0  0  0  0  0  0
   25.8590  -21.5104  -11.0375 C   0  0  0  0  0  0  0  0  0  0  0  0
   25.9157  -20.0496   -9.9853 S   0  0  0  0  0  0  0  0  0  0  0  0
   24.1704  -20.6792  -12.6844 C   0  0  0  0  0  0  0  0  0  0  0  0
   24.0172  -19.4793  -12.9851 O   0  0  0  0  0  0  0  0  0  0  0  0
   19.2650  -20.4701  -14.1368 N   0  0  0  0  0  0  0  0  0  0  0  0
   20.3685  -19.6145  -14.2966 C   0  0  0  0  0  0  0  0  0  0  0  0
   20.2347  -18.5521  -14.9474 O   0  0  0  0  0  0  0  0  0  0  0  0
   21.6722  -19.9333  -13.7187 C   0  0  0  0  0  0  0  0  0  0  0  0
   21.7100  -21.2262  -12.9468 C   0  0  2  0  0  0  0  0  0  0  0  0
   23.0712  -21.5398  -12.5494 N   0  0  0  0  0  0  0  0  0  0  0  0
   21.1510  -22.3811  -13.6564 C   0  0  0  0  0  0  0  0  0  0  0  0
   19.7505  -22.5296  -13.6783 O   0  0  0  0  0  0  0  0  0  0  0  0
   21.7858  -23.2755  -14.2618 O   0  0  0  0  0  0  0  0  0  0  0  0
  2  1  1  6
  2  3  1  0
  4  2  1  0
  4  5  2  0
  6  4  1  0
  7  6  1  0
  7  8  1  1
  9  8  1  0
 10  7  1  0
 10 17  1  0
 11 10  2  0
 13 15  1  0
 13 12  1  0
 14 13  2  0
 16 15  1  6
 16 17  1  0
 16 18  1  0
 18 20  2  0
 18 19  1  0
M  END
$$$$
