ACN.pdb
     RDKit          3D

 20 19  0  0  1  0  0  0  0  0999 V2000
   12.9432   -9.7657  -15.7876 C   0  0  0  0  0  0  0  0  0  0  0  0
   14.1013   -9.0351  -16.4228 C   0  0  2  0  0  0  0  0  0  0  0  0
   14.3797   -9.4574  -17.7775 N   0  0  0  0  0  0  0  0  0  0  0  0
   15.3485   -9.1149  -15.6343 C   0  0  0  0  0  0  0  0  0  0  0  0
   15.3874   -8.8832  -14.3926 O   0  0  0  0  0  0  0  0  0  0  0  0
   16.5526   -9.4587  -16.2773 N   0  0  0  0  0  0  0  0  0  0  0  0
   17.8346   -9.5617  -15.5787 C   0  0  1  0  0  0  0  0  0  0  0  0
   18.5109  -10.8109  -16.0223 C   0  0  0  0  0  0  0  0  0  0  0  0
   18.2635  -12.1970  -14.8990 S   0  0  0  0  0  0  0  0  0  0  0  0
   18.6119   -8.3160  -15.8817 C   0  0  0  0  0  0  0  0  0  0  0  0
   18.4870   -7.7820  -17.0010 O   0  0  0  0  0  0  0  0  0  0  0  0
   22.8655   -4.9567  -13.5012 N   0  0  0  0  0  0  0  0  0  0  0  0
   21.5022   -4.8196  -13.8145 C   0  0  0  0  0  0  0  0  0  0  0  0
   21.0594   -3.6992  -14.1592 O   0  0  0  0  0  0  0  0  0  0  0  0
   20.5856   -5.9557  -13.7499 C   0  0  0  0  0  0  0  0  0  0  0  0
   20.2832   -6.5863  -15.0840 C   0  0  2  0  0  0  0  0  0  0  0  0
   19.4654   -7.7737  -14.9098 N   0  0  0  0  0  0  0  0  0  0  0  0
   21.4644   -6.9427  -15.8761 C   0  0  0  0  0  0  0  0  0  0  0  0
   22.1542   -8.1241  -15.5406 O   0  0  0  0  0  0  0  0  0  0  0  0
   21.9470   -6.3061  -16.8413 O   0  0  0  0  0  0  0  0  0  0  0  0
  2  1  1  1
  2  3  1  0
  4  2  1  0
  4  5  2  0
  6  4  1  0
  7  6  1  0
  7  8  1  6
  9  8  1  0
 10  7  1  0
 10 17  1  0
 11 10  2  0
 13 15  1  0
 13 12  1  0
 14 13  2  0
 16 15  1  1
 16 17  1  0
 16 18  1  0
 18 20  2  0
 18 19  1  0
M  END
$$$$
