ACN.pdb
     RDKit          3D

 20 19  0  0  1  0  0  0  0  0999 V2000
   20.0414  -11.5786  -15.1452 C   0  0  0  0  0  0  0  0  0  0  0  0
   19.9204  -10.3085  -15.9519 C   0  0  2  0  0  0  0  0  0  0  0  0
   20.8911  -10.2052  -17.0187 N   0  0  0  0  0  0  0  0  0  0  0  0
   19.9859   -9.0827  -15.1292 C   0  0  0  0  0  0  0  0  0  0  0  0
   19.2402   -8.8924  -14.1269 O   0  0  0  0  0  0  0  0  0  0  0  0
   20.9090   -8.0739  -15.4635 N   0  0  0  0  0  0  0  0  0  0  0  0
   21.0054   -6.8035  -14.7431 C   0  0  1  0  0  0  0  0  0  0  0  0
   22.4457   -6.4751  -14.5631 C   0  0  0  0  0  0  0  0  0  0  0  0
   22.7264   -4.8260  -13.8953 S   0  0  0  0  0  0  0  0  0  0  0  0
   20.2489   -5.7800  -15.5354 C   0  0  0  0  0  0  0  0  0  0  0  0
   20.4497   -5.6951  -16.7626 O   0  0  0  0  0  0  0  0  0  0  0  0
   16.7890   -2.1301  -16.8499 N   0  0  0  0  0  0  0  0  0  0  0  0
   16.2518   -3.2799  -16.2460 C   0  0  0  0  0  0  0  0  0  0  0  0
   15.0192   -3.4939  -16.3170 O   0  0  0  0  0  0  0  0  0  0  0  0
   17.0984   -4.2365  -15.5365 C   0  0  0  0  0  0  0  0  0  0  0  0
   18.5636   -3.8875  -15.5352 C   0  0  2  0  0  0  0  0  0  0  0  0
   19.3340   -4.9357  -14.8894 N   0  0  0  0  0  0  0  0  0  0  0  0
   18.8889   -2.6071  -14.8990 C   0  0  0  0  0  0  0  0  0  0  0  0
   19.8114   -2.6127  -13.8346 O   0  0  0  0  0  0  0  0  0  0  0  0
   18.4330   -1.4786  -15.1961 O   0  0  0  0  0  0  0  0  0  0  0  0
  2  1  1  1
  2  3  1  0
  4  2  1  0
  4  5  2  0
  6  4  1  0
  7  6  1  0
  7  8  1  6
  9  8  1  0
 10  7  1  0
 10 17  1  0
 11 10  2  0
 13 15  1  0
 13 12  1  0
 14 13  2  0
 16 15  1  1
 16 17  1  0
 16 18  1  0
 18 20  2  0
 18 19  1  0
M  END
$$$$
