GGW.pdb
     RDKit          3D

 23 24  0  0  1  0  0  0  0  0999 V2000
    6.1592  -20.1217   21.0302 N   0  0  0  0  0  0  0  0  0  0  0  0
    6.6609  -19.5208   22.2350 C   0  0  0  0  0  0  0  0  0  0  0  0
    7.9248  -18.7701   21.9962 C   0  0  0  0  0  0  0  0  0  0  0  0
    8.9974  -19.3157   22.3573 O   0  0  0  0  0  0  0  0  0  0  0  0
    7.9478  -17.4824   21.3846 N   0  0  0  0  0  0  0  0  0  0  0  0
    9.1266  -16.7222   21.1518 C   0  0  0  0  0  0  0  0  0  0  0  0
    9.8504  -16.2686   22.3452 C   0  0  0  0  0  0  0  0  0  0  0  0
   10.9859  -15.7308   22.1526 O   0  0  0  0  0  0  0  0  0  0  0  0
    9.4166  -16.3714   23.6717 N   0  0  0  0  0  0  0  0  0  0  0  0
   10.2626  -16.0707   24.8174 C   0  0  1  0  0  0  0  0  0  0  0  0
    9.8116  -14.9055   25.6250 C   0  0  0  0  0  0  0  0  0  0  0  0
    8.3561  -14.7236   25.7203 C   0  0  0  0  0  0  0  0  0  0  0  0
    7.4075  -15.7058   25.6149 C   0  0  0  0  0  0  0  0  0  0  0  0
    6.1776  -15.1996   25.7520 N   0  0  0  0  0  0  0  0  0  0  0  0
    6.2928  -13.8717   25.9508 C   0  0  0  0  0  0  0  0  0  0  0  0
    5.3359  -12.8836   26.1492 C   0  0  0  0  0  0  0  0  0  0  0  0
    5.7118  -11.5753   26.3327 C   0  0  0  0  0  0  0  0  0  0  0  0
    7.0683  -11.2719   26.3141 C   0  0  0  0  0  0  0  0  0  0  0  0
    8.0230  -12.2436   26.1184 C   0  0  0  0  0  0  0  0  0  0  0  0
    7.6490  -13.5605   25.9334 C   0  0  0  0  0  0  0  0  0  0  0  0
   10.2367  -17.2760   25.6903 C   0  0  0  0  0  0  0  0  0  0  0  0
    9.3475  -18.1659   25.6097 O   0  0  0  0  0  0  0  0  0  0  0  0
   11.2145  -17.4958   26.6682 O   0  0  0  0  0  0  0  0  0  0  0  0
  2  1  1  0
  3  5  1  0
  3  2  1  0
  4  3  2  0
  6  5  1  0
  7  9  1  0
  7  6  1  0
  8  7  2  0
 10 21  1  0
 10  9  1  0
 10 11  1  1
 11 12  1  0
 12 13  2  0
 12 20  1  0
 13 14  1  0
 14 15  1  0
 15 16  2  0
 17 16  1  0
 18 17  2  0
 19 20  2  0
 19 18  1  0
 20 15  1  0
 21 23  1  0
 22 21  2  0
M  END
$$$$
