GGW.pdb
     RDKit          3D

 23 24  0  0  1  0  0  0  0  0999 V2000
    7.5988  -19.3303   20.3407 N   0  0  0  0  0  0  0  0  0  0  0  0
    8.4902  -18.6349   19.4539 C   0  0  0  0  0  0  0  0  0  0  0  0
    8.7069  -17.2240   19.8788 C   0  0  0  0  0  0  0  0  0  0  0  0
    9.7832  -16.6758   19.5330 O   0  0  0  0  0  0  0  0  0  0  0  0
    7.7496  -16.4992   20.6474 N   0  0  0  0  0  0  0  0  0  0  0  0
    7.8863  -15.1354   21.0257 C   0  0  0  0  0  0  0  0  0  0  0  0
    8.6450  -14.8777   22.2552 C   0  0  0  0  0  0  0  0  0  0  0  0
    8.9475  -13.6666   22.4947 O   0  0  0  0  0  0  0  0  0  0  0  0
    9.0699  -15.8314   23.1872 N   0  0  0  0  0  0  0  0  0  0  0  0
    9.9125  -15.5147   24.3310 C   0  0  1  0  0  0  0  0  0  0  0  0
    9.2600  -15.7244   25.6514 C   0  0  0  0  0  0  0  0  0  0  0  0
    7.9327  -15.1127   25.8086 C   0  0  0  0  0  0  0  0  0  0  0  0
    6.7262  -15.7409   25.6489 C   0  0  0  0  0  0  0  0  0  0  0  0
    5.7139  -14.8955   25.8686 N   0  0  0  0  0  0  0  0  0  0  0  0
    6.2353  -13.6919   26.1779 C   0  0  0  0  0  0  0  0  0  0  0  0
    5.6320  -12.4798   26.4915 C   0  0  0  0  0  0  0  0  0  0  0  0
    6.3952  -11.3737   26.7755 C   0  0  0  0  0  0  0  0  0  0  0  0
    7.7789  -11.5025   26.7400 C   0  0  0  0  0  0  0  0  0  0  0  0
    8.3852  -12.6985   26.4304 C   0  0  0  0  0  0  0  0  0  0  0  0
    7.6211  -13.8133   26.1441 C   0  0  0  0  0  0  0  0  0  0  0  0
   11.0928  -16.4178   24.2499 C   0  0  0  0  0  0  0  0  0  0  0  0
   11.1637  -17.3885   23.4487 O   0  0  0  0  0  0  0  0  0  0  0  0
   12.2120  -16.2394   25.0722 O   0  0  0  0  0  0  0  0  0  0  0  0
  2  1  1  0
  3  5  1  0
  3  2  1  0
  4  3  2  0
  6  5  1  0
  7  9  1  0
  7  6  1  0
  8  7  2  0
 10 21  1  0
 10  9  1  0
 10 11  1  1
 11 12  1  0
 12 13  2  0
 12 20  1  0
 13 14  1  0
 14 15  1  0
 15 16  2  0
 17 16  1  0
 18 17  2  0
 19 20  2  0
 19 18  1  0
 20 15  1  0
 21 23  1  0
 22 21  2  0
M  END
$$$$
