GGW.pdb
     RDKit          3D

 23 24  0  0  1  0  0  0  0  0999 V2000
    6.2716  -19.4593   20.7678 N   0  0  0  0  0  0  0  0  0  0  0  0
    7.5459  -19.2677   20.1322 C   0  0  0  0  0  0  0  0  0  0  0  0
    8.0825  -17.8982   20.3662 C   0  0  0  0  0  0  0  0  0  0  0  0
    9.3054  -17.7121   20.1464 O   0  0  0  0  0  0  0  0  0  0  0  0
    7.2655  -16.8221   20.8212 N   0  0  0  0  0  0  0  0  0  0  0  0
    7.7051  -15.4761   20.9512 C   0  0  0  0  0  0  0  0  0  0  0  0
    8.5810  -15.1888   22.0931 C   0  0  0  0  0  0  0  0  0  0  0  0
    9.0530  -14.0108   22.1667 O   0  0  0  0  0  0  0  0  0  0  0  0
    8.9495  -16.0817   23.1057 N   0  0  0  0  0  0  0  0  0  0  0  0
    9.9027  -15.7541   24.1558 C   0  0  1  0  0  0  0  0  0  0  0  0
    9.3594  -15.8680   25.5360 C   0  0  0  0  0  0  0  0  0  0  0  0
    8.0620  -15.2157   25.7640 C   0  0  0  0  0  0  0  0  0  0  0  0
    6.8379  -15.8298   25.7839 C   0  0  0  0  0  0  0  0  0  0  0  0
    5.8631  -14.9459   26.0207 N   0  0  0  0  0  0  0  0  0  0  0  0
    6.4275  -13.7302   26.1616 C   0  0  0  0  0  0  0  0  0  0  0  0
    5.8735  -12.4814   26.4165 C   0  0  0  0  0  0  0  0  0  0  0  0
    6.6747  -11.3704   26.5178 C   0  0  0  0  0  0  0  0  0  0  0  0
    8.0463  -11.5319   26.3588 C   0  0  0  0  0  0  0  0  0  0  0  0
    8.6039  -12.7644   26.1062 C   0  0  0  0  0  0  0  0  0  0  0  0
    7.8015  -13.8842   26.0035 C   0  0  0  0  0  0  0  0  0  0  0  0
   11.0286  -16.7183   24.0210 C   0  0  0  0  0  0  0  0  0  0  0  0
   10.9785  -17.7365   23.2794 O   0  0  0  0  0  0  0  0  0  0  0  0
   12.2290  -16.5483   24.7215 O   0  0  0  0  0  0  0  0  0  0  0  0
  2  1  1  0
  3  5  1  0
  3  2  1  0
  4  3  2  0
  6  5  1  0
  7  9  1  0
  7  6  1  0
  8  7  2  0
 10 21  1  0
 10  9  1  0
 10 11  1  1
 11 12  1  0
 12 13  2  0
 12 20  1  0
 13 14  1  0
 14 15  1  0
 15 16  2  0
 17 16  1  0
 18 17  2  0
 19 20  2  0
 19 18  1  0
 20 15  1  0
 21 23  1  0
 22 21  2  0
M  END
$$$$
