GGW.pdb
     RDKit          3D

 23 24  0  0  1  0  0  0  0  0999 V2000
    7.5235  -13.0396   18.0606 N   0  0  0  0  0  0  0  0  0  0  0  0
    8.0610  -13.0614   19.3929 C   0  0  0  0  0  0  0  0  0  0  0  0
    8.2688  -14.4516   19.8849 C   0  0  0  0  0  0  0  0  0  0  0  0
    8.0096  -15.3899   19.0907 O   0  0  0  0  0  0  0  0  0  0  0  0
    8.7418  -14.7370   21.1993 N   0  0  0  0  0  0  0  0  0  0  0  0
    9.4307  -15.9252   21.5671 C   0  0  0  0  0  0  0  0  0  0  0  0
   10.0264  -15.9391   22.9083 C   0  0  0  0  0  0  0  0  0  0  0  0
   11.2221  -15.5188   23.0049 O   0  0  0  0  0  0  0  0  0  0  0  0
    9.4108  -16.3707   24.0887 N   0  0  0  0  0  0  0  0  0  0  0  0
   10.0143  -16.2291   25.4057 C   0  0  1  0  0  0  0  0  0  0  0  0
    9.0360  -16.1211   26.5212 C   0  0  0  0  0  0  0  0  0  0  0  0
    7.8234  -15.3430   26.2299 C   0  0  0  0  0  0  0  0  0  0  0  0
    6.6122  -15.8463   25.8356 C   0  0  0  0  0  0  0  0  0  0  0  0
    5.7215  -14.8652   25.6577 N   0  0  0  0  0  0  0  0  0  0  0  0
    6.3302  -13.6944   25.9319 C   0  0  0  0  0  0  0  0  0  0  0  0
    5.8642  -12.3855   25.9049 C   0  0  0  0  0  0  0  0  0  0  0  0
    6.6951  -11.3424   26.2335 C   0  0  0  0  0  0  0  0  0  0  0  0
    8.0065  -11.6335   26.5912 C   0  0  0  0  0  0  0  0  0  0  0  0
    8.4769  -12.9265   26.6207 C   0  0  0  0  0  0  0  0  0  0  0  0
    7.6443  -13.9783   26.2909 C   0  0  0  0  0  0  0  0  0  0  0  0
   10.8360  -17.4501   25.6279 C   0  0  0  0  0  0  0  0  0  0  0  0
   11.6158  -17.5865   26.6090 O   0  0  0  0  0  0  0  0  0  0  0  0
   10.7905  -18.5367   24.7459 O   0  0  0  0  0  0  0  0  0  0  0  0
  2  1  1  0
  3  5  1  0
  3  2  1  0
  4  3  2  0
  6  5  1  0
  7  9  1  0
  7  6  1  0
  8  7  2  0
 10 21  1  0
 10  9  1  0
 10 11  1  1
 11 12  1  0
 12 13  2  0
 12 20  1  0
 13 14  1  0
 14 15  1  0
 15 16  2  0
 17 16  1  0
 18 17  2  0
 19 20  2  0
 19 18  1  0
 20 15  1  0
 21 23  1  0
 22 21  2  0
M  END
$$$$
