GGW.pdb
     RDKit          3D

 23 24  0  0  1  0  0  0  0  0999 V2000
    8.4019  -20.3135   21.8381 N   0  0  0  0  0  0  0  0  0  0  0  0
    7.2064  -19.6365   21.4177 C   0  0  0  0  0  0  0  0  0  0  0  0
    7.2877  -18.1682   21.6541 C   0  0  0  0  0  0  0  0  0  0  0  0
    6.5288  -17.6815   22.5291 O   0  0  0  0  0  0  0  0  0  0  0  0
    8.1809  -17.3238   20.9319 N   0  0  0  0  0  0  0  0  0  0  0  0
    8.3133  -15.9238   21.1424 C   0  0  0  0  0  0  0  0  0  0  0  0
    8.9924  -15.5164   22.3779 C   0  0  0  0  0  0  0  0  0  0  0  0
    9.4066  -14.3159   22.4310 O   0  0  0  0  0  0  0  0  0  0  0  0
    9.2309  -16.3176   23.5003 N   0  0  0  0  0  0  0  0  0  0  0  0
   10.0117  -15.8782   24.6475 C   0  0  1  0  0  0  0  0  0  0  0  0
    9.2578  -15.8518   25.9298 C   0  0  0  0  0  0  0  0  0  0  0  0
    7.9678  -15.1481   25.8941 C   0  0  0  0  0  0  0  0  0  0  0  0
    6.7483  -15.7040   25.6117 C   0  0  0  0  0  0  0  0  0  0  0  0
    5.7791  -14.7847   25.6674 N   0  0  0  0  0  0  0  0  0  0  0  0
    6.3427  -13.6032   25.9881 C   0  0  0  0  0  0  0  0  0  0  0  0
    5.7929  -12.3403   26.1724 C   0  0  0  0  0  0  0  0  0  0  0  0
    6.5920  -11.2730   26.5024 C   0  0  0  0  0  0  0  0  0  0  0  0
    7.9572  -11.4929   26.6453 C   0  0  0  0  0  0  0  0  0  0  0  0
    8.5107  -12.7399   26.4647 C   0  0  0  0  0  0  0  0  0  0  0  0
    7.7103  -13.8158   26.1328 C   0  0  0  0  0  0  0  0  0  0  0  0
   11.1340  -16.8454   24.7909 C   0  0  0  0  0  0  0  0  0  0  0  0
   11.1959  -17.9287   24.1492 O   0  0  0  0  0  0  0  0  0  0  0  0
   12.2042  -16.6049   25.6611 O   0  0  0  0  0  0  0  0  0  0  0  0
  2  1  1  0
  3  5  1  0
  3  2  1  0
  4  3  2  0
  6  5  1  0
  7  9  1  0
  7  6  1  0
  8  7  2  0
 10 21  1  0
 10  9  1  0
 10 11  1  1
 11 12  1  0
 12 13  2  0
 12 20  1  0
 13 14  1  0
 14 15  1  0
 15 16  2  0
 17 16  1  0
 18 17  2  0
 19 20  2  0
 19 18  1  0
 20 15  1  0
 21 23  1  0
 22 21  2  0
M  END
$$$$
