GGW.pdb
     RDKit          3D

 23 24  0  0  1  0  0  0  0  0999 V2000
    5.3832  -15.2250   20.4917 N   0  0  0  0  0  0  0  0  0  0  0  0
    6.6743  -14.6490   20.7483 C   0  0  0  0  0  0  0  0  0  0  0  0
    7.5728  -15.5973   21.4636 C   0  0  0  0  0  0  0  0  0  0  0  0
    7.0632  -16.3046   22.3682 O   0  0  0  0  0  0  0  0  0  0  0  0
    8.9596  -15.7193   21.1559 N   0  0  0  0  0  0  0  0  0  0  0  0
    9.8408  -16.6537   21.7659 C   0  0  0  0  0  0  0  0  0  0  0  0
   10.2768  -16.3363   23.1308 C   0  0  0  0  0  0  0  0  0  0  0  0
   11.3422  -15.6524   23.2439 O   0  0  0  0  0  0  0  0  0  0  0  0
    9.6386  -16.7132   24.3179 N   0  0  0  0  0  0  0  0  0  0  0  0
   10.1033  -16.3160   25.6389 C   0  0  1  0  0  0  0  0  0  0  0  0
    9.0285  -16.2100   26.6619 C   0  0  0  0  0  0  0  0  0  0  0  0
    7.8104  -15.5075   26.2335 C   0  0  0  0  0  0  0  0  0  0  0  0
    6.6481  -16.0892   25.8017 C   0  0  0  0  0  0  0  0  0  0  0  0
    5.7359  -15.1624   25.4912 N   0  0  0  0  0  0  0  0  0  0  0  0
    6.2809  -13.9499   25.7129 C   0  0  0  0  0  0  0  0  0  0  0  0
    5.7697  -12.6673   25.5547 C   0  0  0  0  0  0  0  0  0  0  0  0
    6.5374  -11.5686   25.8548 C   0  0  0  0  0  0  0  0  0  0  0  0
    7.8314  -11.7769   26.3180 C   0  0  0  0  0  0  0  0  0  0  0  0
    8.3462  -13.0432   26.4778 C   0  0  0  0  0  0  0  0  0  0  0  0
    7.5773  -14.1508   26.1771 C   0  0  0  0  0  0  0  0  0  0  0  0
   11.0623  -17.3642   26.0828 C   0  0  0  0  0  0  0  0  0  0  0  0
   11.2227  -18.4547   25.4711 O   0  0  0  0  0  0  0  0  0  0  0  0
   11.8556  -17.1977   27.2246 O   0  0  0  0  0  0  0  0  0  0  0  0
  2  1  1  0
  3  5  1  0
  3  2  1  0
  4  3  2  0
  6  5  1  0
  7  9  1  0
  7  6  1  0
  8  7  2  0
 10 21  1  0
 10  9  1  0
 10 11  1  1
 11 12  1  0
 12 13  2  0
 12 20  1  0
 13 14  1  0
 14 15  1  0
 15 16  2  0
 17 16  1  0
 18 17  2  0
 19 20  2  0
 19 18  1  0
 20 15  1  0
 21 23  1  0
 22 21  2  0
M  END
$$$$
