GGW.pdb
     RDKit          3D

 23 24  0  0  1  0  0  0  0  0999 V2000
    9.5601  -19.3523   18.8518 N   0  0  0  0  0  0  0  0  0  0  0  0
    9.3330  -19.0893   20.2459 C   0  0  0  0  0  0  0  0  0  0  0  0
   10.1516  -17.9455   20.7355 C   0  0  0  0  0  0  0  0  0  0  0  0
   10.8591  -17.3393   19.8926 O   0  0  0  0  0  0  0  0  0  0  0  0
   10.1528  -17.5322   22.1000 N   0  0  0  0  0  0  0  0  0  0  0  0
   10.8944  -16.4302   22.6072 C   0  0  0  0  0  0  0  0  0  0  0  0
   10.7623  -16.1680   24.0451 C   0  0  0  0  0  0  0  0  0  0  0  0
   11.4451  -15.2035   24.5134 O   0  0  0  0  0  0  0  0  0  0  0  0
    9.9628  -16.8746   24.9506 N   0  0  0  0  0  0  0  0  0  0  0  0
    9.9001  -16.5694   26.3725 C   0  0  1  0  0  0  0  0  0  0  0  0
    8.5201  -16.4354   26.9117 C   0  0  0  0  0  0  0  0  0  0  0  0
    7.6234  -15.5536   26.1508 C   0  0  0  0  0  0  0  0  0  0  0  0
    6.8885  -15.9004   25.0483 C   0  0  0  0  0  0  0  0  0  0  0  0
    6.1767  -14.8606   24.6013 N   0  0  0  0  0  0  0  0  0  0  0  0
    6.4297  -13.8067   25.4025 C   0  0  0  0  0  0  0  0  0  0  0  0
    5.9562  -12.5003   25.3829 C   0  0  0  0  0  0  0  0  0  0  0  0
    6.3717  -11.5937   26.3273 C   0  0  0  0  0  0  0  0  0  0  0  0
    7.2734  -12.0194   27.2960 C   0  0  0  0  0  0  0  0  0  0  0  0
    7.7477  -13.3110   27.3233 C   0  0  0  0  0  0  0  0  0  0  0  0
    7.3322  -14.2258   26.3752 C   0  0  0  0  0  0  0  0  0  0  0  0
   10.5642  -17.6996   27.0775 C   0  0  0  0  0  0  0  0  0  0  0  0
   10.9411  -18.7505   26.4920 O   0  0  0  0  0  0  0  0  0  0  0  0
   10.8133  -17.6614   28.4548 O   0  0  0  0  0  0  0  0  0  0  0  0
  2  1  1  0
  3  5  1  0
  3  2  1  0
  4  3  2  0
  6  5  1  0
  7  9  1  0
  7  6  1  0
  8  7  2  0
 10 21  1  0
 10  9  1  0
 10 11  1  1
 11 12  1  0
 12 13  2  0
 12 20  1  0
 13 14  1  0
 14 15  1  0
 15 16  2  0
 17 16  1  0
 18 17  2  0
 19 20  2  0
 19 18  1  0
 20 15  1  0
 21 23  1  0
 22 21  2  0
M  END
$$$$
