GGW.pdb
     RDKit          3D

 23 24  0  0  1  0  0  0  0  0999 V2000
    6.2758  -19.6489   20.3379 N   0  0  0  0  0  0  0  0  0  0  0  0
    6.1590  -19.1724   21.6884 C   0  0  0  0  0  0  0  0  0  0  0  0
    6.2465  -17.6875   21.7625 C   0  0  0  0  0  0  0  0  0  0  0  0
    5.6949  -17.1248   22.7412 O   0  0  0  0  0  0  0  0  0  0  0  0
    6.9221  -16.9092   20.7774 N   0  0  0  0  0  0  0  0  0  0  0  0
    7.1691  -15.5130   20.8841 C   0  0  0  0  0  0  0  0  0  0  0  0
    8.1075  -15.1002   21.9342 C   0  0  0  0  0  0  0  0  0  0  0  0
    8.4515  -13.8765   21.9418 O   0  0  0  0  0  0  0  0  0  0  0  0
    8.6621  -15.9188   22.9245 N   0  0  0  0  0  0  0  0  0  0  0  0
    9.5603  -15.4285   23.9597 C   0  0  1  0  0  0  0  0  0  0  0  0
    9.0100  -15.5101   25.3395 C   0  0  0  0  0  0  0  0  0  0  0  0
    7.7071  -14.8608   25.5434 C   0  0  0  0  0  0  0  0  0  0  0  0
    6.4800  -15.4649   25.4720 C   0  0  0  0  0  0  0  0  0  0  0  0
    5.5002  -14.5876   25.7126 N   0  0  0  0  0  0  0  0  0  0  0  0
    6.0642  -13.3864   25.9477 C   0  0  0  0  0  0  0  0  0  0  0  0
    5.5060  -12.1493   26.2464 C   0  0  0  0  0  0  0  0  0  0  0  0
    6.3079  -11.0524   26.4471 C   0  0  0  0  0  0  0  0  0  0  0  0
    7.6844  -11.2160   26.3432 C   0  0  0  0  0  0  0  0  0  0  0  0
    8.2463  -12.4371   26.0478 C   0  0  0  0  0  0  0  0  0  0  0  0
    7.4432  -13.5427   25.8451 C   0  0  0  0  0  0  0  0  0  0  0  0
   10.7809  -16.2780   23.8978 C   0  0  0  0  0  0  0  0  0  0  0  0
   10.8523  -17.3323   23.2104 O   0  0  0  0  0  0  0  0  0  0  0  0
   11.9406  -15.9505   24.6111 O   0  0  0  0  0  0  0  0  0  0  0  0
  2  1  1  0
  3  5  1  0
  3  2  1  0
  4  3  2  0
  6  5  1  0
  7  9  1  0
  7  6  1  0
  8  7  2  0
 10 21  1  0
 10  9  1  0
 10 11  1  1
 11 12  1  0
 12 13  2  0
 12 20  1  0
 13 14  1  0
 14 15  1  0
 15 16  2  0
 17 16  1  0
 18 17  2  0
 19 20  2  0
 19 18  1  0
 20 15  1  0
 21 23  1  0
 22 21  2  0
M  END
$$$$
