GGW.pdb
     RDKit          3D

 23 24  0  0  1  0  0  0  0  0999 V2000
    5.9374  -18.4281   20.3567 N   0  0  0  0  0  0  0  0  0  0  0  0
    6.3407  -17.4562   21.3350 C   0  0  0  0  0  0  0  0  0  0  0  0
    7.8144  -17.4634   21.5499 C   0  0  0  0  0  0  0  0  0  0  0  0
    8.3381  -18.5426   21.9237 O   0  0  0  0  0  0  0  0  0  0  0  0
    8.6243  -16.3077   21.3474 N   0  0  0  0  0  0  0  0  0  0  0  0
   10.0195  -16.2449   21.6147 C   0  0  0  0  0  0  0  0  0  0  0  0
   10.4015  -16.0564   23.0190 C   0  0  0  0  0  0  0  0  0  0  0  0
   11.4556  -15.3803   23.2368 O   0  0  0  0  0  0  0  0  0  0  0  0
    9.7233  -16.5483   24.1400 N   0  0  0  0  0  0  0  0  0  0  0  0
   10.1628  -16.3171   25.5082 C   0  0  1  0  0  0  0  0  0  0  0  0
    9.0615  -16.2684   26.5072 C   0  0  0  0  0  0  0  0  0  0  0  0
    7.8771  -15.4937   26.1100 C   0  0  0  0  0  0  0  0  0  0  0  0
    6.6989  -16.0019   25.6310 C   0  0  0  0  0  0  0  0  0  0  0  0
    5.8271  -15.0227   25.3687 N   0  0  0  0  0  0  0  0  0  0  0  0
    6.4156  -13.8484   25.6704 C   0  0  0  0  0  0  0  0  0  0  0  0
    5.9563  -12.5394   25.5863 C   0  0  0  0  0  0  0  0  0  0  0  0
    6.7618  -11.4921   25.9616 C   0  0  0  0  0  0  0  0  0  0  0  0
    8.0407  -11.7790   26.4247 C   0  0  0  0  0  0  0  0  0  0  0  0
    8.5042  -13.0719   26.5115 C   0  0  0  0  0  0  0  0  0  0  0  0
    7.6972  -14.1280   26.1350 C   0  0  0  0  0  0  0  0  0  0  0  0
   11.0585  -17.4518   25.8624 C   0  0  0  0  0  0  0  0  0  0  0  0
   11.1807  -18.4823   25.1466 O   0  0  0  0  0  0  0  0  0  0  0  0
   11.8305  -17.4413   27.0306 O   0  0  0  0  0  0  0  0  0  0  0  0
  2  1  1  0
  3  5  1  0
  3  2  1  0
  4  3  2  0
  6  5  1  0
  7  9  1  0
  7  6  1  0
  8  7  2  0
 10 21  1  0
 10  9  1  0
 10 11  1  1
 11 12  1  0
 12 13  2  0
 12 20  1  0
 13 14  1  0
 14 15  1  0
 15 16  2  0
 17 16  1  0
 18 17  2  0
 19 20  2  0
 19 18  1  0
 20 15  1  0
 21 23  1  0
 22 21  2  0
M  END
$$$$
