GGW.pdb
     RDKit          3D

 23 24  0  0  1  0  0  0  0  0999 V2000
    8.4293  -13.3690   18.4493 N   0  0  0  0  0  0  0  0  0  0  0  0
    7.5861  -13.3349   19.6122 C   0  0  0  0  0  0  0  0  0  0  0  0
    7.9395  -14.4053   20.5855 C   0  0  0  0  0  0  0  0  0  0  0  0
    7.3195  -14.4196   21.6782 O   0  0  0  0  0  0  0  0  0  0  0  0
    8.9368  -15.3878   20.3159 N   0  0  0  0  0  0  0  0  0  0  0  0
    9.2752  -16.4540   21.1937 C   0  0  0  0  0  0  0  0  0  0  0  0
    9.8162  -16.0681   22.5022 C   0  0  0  0  0  0  0  0  0  0  0  0
   10.7765  -15.2353   22.4984 O   0  0  0  0  0  0  0  0  0  0  0  0
    9.3824  -16.5269   23.7511 N   0  0  0  0  0  0  0  0  0  0  0  0
   10.0155  -16.1521   25.0071 C   0  0  1  0  0  0  0  0  0  0  0  0
    9.0972  -16.1370   26.1774 C   0  0  0  0  0  0  0  0  0  0  0  0
    7.8818  -15.3252   26.0210 C   0  0  0  0  0  0  0  0  0  0  0  0
    6.6352  -15.7867   25.6913 C   0  0  0  0  0  0  0  0  0  0  0  0
    5.7531  -14.7834   25.6349 N   0  0  0  0  0  0  0  0  0  0  0  0
    6.4032  -13.6396   25.9271 C   0  0  0  0  0  0  0  0  0  0  0  0
    5.9621  -12.3242   26.0075 C   0  0  0  0  0  0  0  0  0  0  0  0
    6.8352  -11.3142   26.3302 C   0  0  0  0  0  0  0  0  0  0  0  0
    8.1635  -11.6453   26.5721 C   0  0  0  0  0  0  0  0  0  0  0  0
    8.6094  -12.9449   26.4949 C   0  0  0  0  0  0  0  0  0  0  0  0
    7.7344  -13.9635   26.1706 C   0  0  0  0  0  0  0  0  0  0  0  0
   11.0762  -17.1640   25.2647 C   0  0  0  0  0  0  0  0  0  0  0  0
   11.2037  -18.2170   24.5834 O   0  0  0  0  0  0  0  0  0  0  0  0
   12.0100  -17.0031   26.2956 O   0  0  0  0  0  0  0  0  0  0  0  0
  2  1  1  0
  3  5  1  0
  3  2  1  0
  4  3  2  0
  6  5  1  0
  7  9  1  0
  7  6  1  0
  8  7  2  0
 10 21  1  0
 10  9  1  0
 10 11  1  1
 11 12  1  0
 12 13  2  0
 12 20  1  0
 13 14  1  0
 14 15  1  0
 15 16  2  0
 17 16  1  0
 18 17  2  0
 19 20  2  0
 19 18  1  0
 20 15  1  0
 21 23  1  0
 22 21  2  0
M  END
$$$$
