RVQ.pdb
     RDKit          3D

 28 27  0  0  1  0  0  0  0  0999 V2000
    8.6783  -13.1425   17.6312 N   0  0  0  0  0  0  0  0  0  0  0  0
    7.9228  -14.1093   16.9127 C   0  0  0  0  0  0  0  0  0  0  0  0
    8.0885  -14.2076   15.6416 N   0  0  0  0  0  0  0  0  0  0  0  0
    6.9940  -14.9657   17.5579 N   0  0  0  0  0  0  0  0  0  0  0  0
    7.4003  -15.8828   18.5836 C   0  0  0  0  0  0  0  0  0  0  0  0
    8.2697  -15.2269   19.6271 C   0  0  0  0  0  0  0  0  0  0  0  0
    7.5346  -15.1721   20.9303 C   0  0  0  0  0  0  0  0  0  0  0  0
    7.4237  -13.7759   21.4954 C   0  0  2  0  0  0  0  0  0  0  0  0
    8.1619  -12.8837   20.6310 N   0  0  0  0  0  0  0  0  0  0  0  0
    7.9534  -13.7664   22.8911 C   0  0  0  0  0  0  0  0  0  0  0  0
    9.2053  -13.9118   23.0352 O   0  0  0  0  0  0  0  0  0  0  0  0
    7.6010  -14.9119   15.0506 C   0  0  0  0  0  0  0  0  0  0  0  0
    6.5619  -11.4176   25.7932 C   0  0  1  0  0  0  0  0  0  0  0  0
    6.8149  -12.8239   26.2751 C   0  0  0  0  0  0  0  0  0  0  0  0
    7.3725  -12.8992   27.6602 C   0  0  2  0  0  0  0  0  0  0  0  0
    7.7220  -13.5957   25.3383 N   0  0  0  0  0  0  0  0  0  0  0  0
    7.1315  -13.6050   24.0404 C   0  0  0  0  0  0  0  0  0  0  0  0
    8.0470  -14.9470   25.8532 O   0  0  0  0  0  0  0  0  0  0  0  0
    7.0917  -15.7486   26.0190 N   0  0  0  0  0  0  0  0  0  0  0  0
   12.4631  -18.8395   24.0934 C   0  0  0  0  0  0  0  0  0  0  0  0
   11.9343  -19.5101   25.2204 O   0  0  0  0  0  0  0  0  0  0  0  0
   12.3051  -20.6806   25.4867 C   0  0  0  0  0  0  0  0  0  0  0  0
   10.9484  -18.8224   26.0732 C   0  0  0  0  0  0  0  0  0  0  0  0
   10.6860  -17.4066   25.6231 C   0  0  2  0  0  0  0  0  0  0  0  0
    9.6903  -16.7416   26.5194 N   0  0  0  0  0  0  0  0  0  0  0  0
    9.3468  -15.4034   26.1722 C   0  0  0  0  0  0  0  0  0  0  0  0
   10.1615  -16.8987   27.9190 O   0  0  0  0  0  0  0  0  0  0  0  0
   10.3080  -18.0272   28.4403 O   0  0  0  0  0  0  0  0  0  0  0  0
  2  1  1  0
  3  2  2  0
  4  2  1  0
  5  4  1  0
  6  5  1  0
  7  6  1  0
  8  7  1  0
  8  9  1  6
 10  8  1  0
 10 11  2  0
 13 14  1  6
 13 12  1  0
 15 16  1  6
 15 13  1  0
 16 10  1  0
 17 15  1  0
 18 17  2  0
 20 21  2  0
 20 19  1  0
 22 20  1  0
 23 22  1  0
 24 23  1  6
 24 25  1  0
 25 17  1  0
 26 28  1  0
 26 24  1  0
 27 26  2  0
M  END
$$$$
