RVQ.pdb
     RDKit          3D

 28 27  0  0  1  0  0  0  0  0999 V2000
    6.1007  -18.7366   16.5976 N   0  0  0  0  0  0  0  0  0  0  0  0
    6.7165  -19.4449   15.5295 C   0  0  0  0  0  0  0  0  0  0  0  0
    6.3512  -19.1906   14.3235 N   0  0  0  0  0  0  0  0  0  0  0  0
    7.7196  -20.4216   15.7575 N   0  0  0  0  0  0  0  0  0  0  0  0
    8.4652  -20.4653   16.9823 C   0  0  0  0  0  0  0  0  0  0  0  0
    7.8471  -19.6102   18.0602 C   0  0  0  0  0  0  0  0  0  0  0  0
    8.9234  -18.8718   18.7937 C   0  0  0  0  0  0  0  0  0  0  0  0
    9.2263  -17.5152   18.2031 C   0  0  2  0  0  0  0  0  0  0  0  0
   10.3670  -17.6536   17.3268 N   0  0  0  0  0  0  0  0  0  0  0  0
    9.4850  -16.5444   19.3074 C   0  0  0  0  0  0  0  0  0  0  0  0
   10.6467  -16.5446   19.8169 O   0  0  0  0  0  0  0  0  0  0  0  0
    6.7351  -19.6818   13.4902 C   0  0  0  0  0  0  0  0  0  0  0  0
    7.7983  -12.8287   19.8700 C   0  0  1  0  0  0  0  0  0  0  0  0
    7.7507  -13.7548   21.0592 C   0  0  0  0  0  0  0  0  0  0  0  0
    7.9052  -13.0612   22.3745 C   0  0  2  0  0  0  0  0  0  0  0  0
    8.7808  -14.8621   20.9642 N   0  0  0  0  0  0  0  0  0  0  0  0
    8.5053  -15.6396   19.8012 C   0  0  0  0  0  0  0  0  0  0  0  0
    8.8651  -15.6629   22.2085 O   0  0  0  0  0  0  0  0  0  0  0  0
    7.8853  -16.4000   22.4901 N   0  0  0  0  0  0  0  0  0  0  0  0
   13.0084  -19.5861   23.8371 C   0  0  0  0  0  0  0  0  0  0  0  0
   11.6683  -19.9020   23.5151 O   0  0  0  0  0  0  0  0  0  0  0  0
   11.3733  -21.0554   23.1137 C   0  0  0  0  0  0  0  0  0  0  0  0
   10.6285  -18.8669   23.6555 C   0  0  0  0  0  0  0  0  0  0  0  0
   11.1895  -17.5471   24.1237 C   0  0  2  0  0  0  0  0  0  0  0  0
   10.1080  -16.5195   24.2300 N   0  0  0  0  0  0  0  0  0  0  0  0
    9.9609  -15.6616   23.1023 C   0  0  0  0  0  0  0  0  0  0  0  0
   10.2901  -15.7985   25.5156 O   0  0  0  0  0  0  0  0  0  0  0  0
   10.4820  -14.5623   25.5542 O   0  0  0  0  0  0  0  0  0  0  0  0
  2  1  1  0
  3  2  2  0
  4  2  1  0
  5  4  1  0
  6  5  1  0
  7  6  1  0
  8  7  1  0
  8  9  1  6
 10  8  1  0
 10 11  2  0
 13 14  1  6
 13 12  1  0
 15 16  1  6
 15 13  1  0
 16 10  1  0
 17 15  1  0
 18 17  2  0
 20 21  2  0
 20 19  1  0
 22 20  1  0
 23 22  1  0
 24 23  1  6
 24 25  1  0
 25 17  1  0
 26 28  1  0
 26 24  1  0
 27 26  2  0
M  END
$$$$
