RVQ.pdb
     RDKit          3D

 28 27  0  0  1  0  0  0  0  0999 V2000
    7.5058  -16.8073   16.7722 N   0  0  0  0  0  0  0  0  0  0  0  0
    6.9067  -17.9203   17.4233 C   0  0  0  0  0  0  0  0  0  0  0  0
    5.8433  -18.4368   16.9183 N   0  0  0  0  0  0  0  0  0  0  0  0
    7.4484  -18.4747   18.6114 N   0  0  0  0  0  0  0  0  0  0  0  0
    7.8669  -17.6481   19.7067 C   0  0  0  0  0  0  0  0  0  0  0  0
    6.7975  -17.5098   20.7614 C   0  0  0  0  0  0  0  0  0  0  0  0
    7.3676  -16.8310   21.9680 C   0  0  0  0  0  0  0  0  0  0  0  0
    7.4696  -15.3316   21.8176 C   0  0  2  0  0  0  0  0  0  0  0  0
    8.2926  -15.0530   20.6629 N   0  0  0  0  0  0  0  0  0  0  0  0
    8.0443  -14.7498   23.0665 C   0  0  0  0  0  0  0  0  0  0  0  0
    9.3076  -14.7616   23.1816 O   0  0  0  0  0  0  0  0  0  0  0  0
    5.3412  -19.2459   17.3382 C   0  0  0  0  0  0  0  0  0  0  0  0
    6.5576  -11.6065   25.1250 C   0  0  1  0  0  0  0  0  0  0  0  0
    6.9347  -12.7737   26.0022 C   0  0  0  0  0  0  0  0  0  0  0  0
    7.5302  -12.3780   27.3152 C   0  0  2  0  0  0  0  0  0  0  0  0
    7.8778  -13.7329   25.3047 N   0  0  0  0  0  0  0  0  0  0  0  0
    7.2525  -14.1953   24.1095 C   0  0  0  0  0  0  0  0  0  0  0  0
    8.3347  -14.8244   26.1972 O   0  0  0  0  0  0  0  0  0  0  0  0
    7.4566  -15.4419   26.8530 N   0  0  0  0  0  0  0  0  0  0  0  0
   13.3023  -18.7366   25.7492 C   0  0  0  0  0  0  0  0  0  0  0  0
   12.7725  -19.0279   27.0274 O   0  0  0  0  0  0  0  0  0  0  0  0
   13.2529  -19.9686   27.7076 C   0  0  0  0  0  0  0  0  0  0  0  0
   11.6562  -18.2186   27.5481 C   0  0  0  0  0  0  0  0  0  0  0  0
   11.2588  -17.1110   26.6042 C   0  0  1  0  0  0  0  0  0  0  0  0
   10.1221  -16.3179   27.1665 N   0  0  0  0  0  0  0  0  0  0  0  0
    9.6803  -15.2240   26.3681 C   0  0  0  0  0  0  0  0  0  0  0  0
   10.4740  -15.9432   28.5598 O   0  0  0  0  0  0  0  0  0  0  0  0
   10.7481  -14.7630   28.8736 O   0  0  0  0  0  0  0  0  0  0  0  0
  2  1  1  0
  3  2  2  0
  4  2  1  0
  5  4  1  0
  6  5  1  0
  7  6  1  0
  8  7  1  0
  8  9  1  6
 10  8  1  0
 10 11  2  0
 13 14  1  6
 13 12  1  0
 15 16  1  6
 15 13  1  0
 16 10  1  0
 17 15  1  0
 18 17  2  0
 20 21  2  0
 20 19  1  0
 22 20  1  0
 23 22  1  0
 24 23  1  6
 24 25  1  0
 25 17  1  0
 26 28  1  0
 26 24  1  0
 27 26  2  0
M  END
$$$$
