RVQ.pdb
     RDKit          3D

 28 27  0  0  1  0  0  0  0  0999 V2000
    8.1365  -12.8643   17.6483 N   0  0  0  0  0  0  0  0  0  0  0  0
    8.1858  -13.9009   16.6764 C   0  0  0  0  0  0  0  0  0  0  0  0
    7.6499  -13.6991   15.5254 N   0  0  0  0  0  0  0  0  0  0  0  0
    8.8080  -15.1479   16.9411 N   0  0  0  0  0  0  0  0  0  0  0  0
    9.2213  -15.5187   18.2639 C   0  0  0  0  0  0  0  0  0  0  0  0
    8.4756  -14.7578   19.3316 C   0  0  0  0  0  0  0  0  0  0  0  0
    9.0652  -15.0670   20.6726 C   0  0  0  0  0  0  0  0  0  0  0  0
    8.0412  -15.5237   21.6846 C   0  0  2  0  0  0  0  0  0  0  0  0
    6.7518  -15.0144   21.2769 N   0  0  0  0  0  0  0  0  0  0  0  0
    8.4335  -15.0313   23.0382 C   0  0  0  0  0  0  0  0  0  0  0  0
    9.6727  -15.0101   23.3088 O   0  0  0  0  0  0  0  0  0  0  0  0
    7.6914  -14.3843   14.7433 C   0  0  0  0  0  0  0  0  0  0  0  0
    6.5559  -12.1007   24.9846 C   0  0  1  0  0  0  0  0  0  0  0  0
    6.9085  -13.2479   25.8978 C   0  0  0  0  0  0  0  0  0  0  0  0
    7.3622  -12.8232   27.2575 C   0  0  2  0  0  0  0  0  0  0  0  0
    7.9568  -14.1597   25.2930 N   0  0  0  0  0  0  0  0  0  0  0  0
    7.4971  -14.5949   24.0154 C   0  0  0  0  0  0  0  0  0  0  0  0
    8.3302  -15.2703   26.2006 O   0  0  0  0  0  0  0  0  0  0  0  0
    7.4155  -16.0542   26.5631 N   0  0  0  0  0  0  0  0  0  0  0  0
   13.3189  -18.6990   25.7283 C   0  0  0  0  0  0  0  0  0  0  0  0
   12.0529  -18.8549   25.1180 O   0  0  0  0  0  0  0  0  0  0  0  0
   11.9402  -19.5383   24.0698 C   0  0  0  0  0  0  0  0  0  0  0  0
   10.8746  -18.2092   25.7238 C   0  0  0  0  0  0  0  0  0  0  0  0
   11.2293  -17.3871   26.9379 C   0  0  2  0  0  0  0  0  0  0  0  0
   10.0305  -16.6536   27.4498 N   0  0  0  0  0  0  0  0  0  0  0  0
    9.6340  -15.5158   26.6898 C   0  0  0  0  0  0  0  0  0  0  0  0
   10.2523  -16.3682   28.8903 O   0  0  0  0  0  0  0  0  0  0  0  0
   10.2848  -15.1971   29.3308 O   0  0  0  0  0  0  0  0  0  0  0  0
  2  1  1  0
  3  2  2  0
  4  2  1  0
  5  4  1  0
  6  5  1  0
  7  6  1  0
  8  7  1  0
  8  9  1  6
 10  8  1  0
 10 11  2  0
 13 14  1  6
 13 12  1  0
 15 16  1  6
 15 13  1  0
 16 10  1  0
 17 15  1  0
 18 17  2  0
 20 21  2  0
 20 19  1  0
 22 20  1  0
 23 22  1  0
 24 23  1  6
 24 25  1  0
 25 17  1  0
 26 28  1  0
 26 24  1  0
 27 26  2  0
M  END
$$$$
