RVQ.pdb
     RDKit          3D

 28 27  0  0  1  0  0  0  0  0999 V2000
    7.5841  -14.2090   16.0414 N   0  0  0  0  0  0  0  0  0  0  0  0
    8.4432  -15.3394   15.9651 C   0  0  0  0  0  0  0  0  0  0  0  0
    9.1259  -15.5294   14.8925 N   0  0  0  0  0  0  0  0  0  0  0  0
    8.5672  -16.2605   17.0368 N   0  0  0  0  0  0  0  0  0  0  0  0
    7.8622  -16.0787   18.2729 C   0  0  0  0  0  0  0  0  0  0  0  0
    8.0343  -14.6882   18.8315 C   0  0  0  0  0  0  0  0  0  0  0  0
    7.2636  -14.5616   20.1088 C   0  0  0  0  0  0  0  0  0  0  0  0
    7.3967  -13.2029   20.7548 C   0  0  2  0  0  0  0  0  0  0  0  0
    8.2412  -12.3878   19.9117 N   0  0  0  0  0  0  0  0  0  0  0  0
    7.9649  -13.3635   22.1259 C   0  0  0  0  0  0  0  0  0  0  0  0
    9.1975  -13.6508   22.2108 O   0  0  0  0  0  0  0  0  0  0  0  0
    9.7850  -16.3243   14.7632 C   0  0  0  0  0  0  0  0  0  0  0  0
    6.6514  -11.3514   25.2867 C   0  0  1  0  0  0  0  0  0  0  0  0
    6.9801  -12.7769   25.6528 C   0  0  0  0  0  0  0  0  0  0  0  0
    7.6802  -12.9198   26.9661 C   0  0  2  0  0  0  0  0  0  0  0  0
    7.7994  -13.4686   24.5821 N   0  0  0  0  0  0  0  0  0  0  0  0
    7.1992  -13.2114   23.3145 C   0  0  0  0  0  0  0  0  0  0  0  0
    7.9963  -14.9101   24.8651 O   0  0  0  0  0  0  0  0  0  0  0  0
    7.4558  -15.7330   24.0820 N   0  0  0  0  0  0  0  0  0  0  0  0
   11.6729  -18.1618   21.6776 C   0  0  0  0  0  0  0  0  0  0  0  0
   11.7518  -17.5323   22.9413 O   0  0  0  0  0  0  0  0  0  0  0  0
   12.8672  -17.3793   23.4989 C   0  0  0  0  0  0  0  0  0  0  0  0
   10.5161  -17.0611   23.5919 C   0  0  0  0  0  0  0  0  0  0  0  0
   10.7924  -16.2518   24.8347 C   0  0  2  0  0  0  0  0  0  0  0  0
    9.7195  -16.4644   25.8549 N   0  0  0  0  0  0  0  0  0  0  0  0
    8.7438  -15.4305   25.9468 C   0  0  0  0  0  0  0  0  0  0  0  0
   10.3773  -16.7882   27.1464 O   0  0  0  0  0  0  0  0  0  0  0  0
   10.6525  -17.9666   27.4664 O   0  0  0  0  0  0  0  0  0  0  0  0
  2  1  1  0
  3  2  2  0
  4  2  1  0
  5  4  1  0
  6  5  1  0
  7  6  1  0
  8  7  1  0
  8  9  1  6
 10  8  1  0
 10 11  2  0
 13 14  1  6
 13 12  1  0
 15 16  1  6
 15 13  1  0
 16 10  1  0
 17 15  1  0
 18 17  2  0
 20 21  2  0
 20 19  1  0
 22 20  1  0
 23 22  1  0
 24 23  1  6
 24 25  1  0
 25 17  1  0
 26 28  1  0
 26 24  1  0
 27 26  2  0
M  END
$$$$
