RVQ.pdb
     RDKit          3D

 28 27  0  0  1  0  0  0  0  0999 V2000
    4.9944  -18.3637   20.5288 N   0  0  0  0  0  0  0  0  0  0  0  0
    5.6303  -19.1272   19.5118 C   0  0  0  0  0  0  0  0  0  0  0  0
    4.9099  -19.6430   18.5804 N   0  0  0  0  0  0  0  0  0  0  0  0
    7.0335  -19.3348   19.4968 N   0  0  0  0  0  0  0  0  0  0  0  0
    7.8819  -18.8291   20.5372 C   0  0  0  0  0  0  0  0  0  0  0  0
    7.9845  -17.3245   20.5122 C   0  0  0  0  0  0  0  0  0  0  0  0
    7.3676  -16.7587   21.7535 C   0  0  0  0  0  0  0  0  0  0  0  0
    7.3518  -15.2486   21.7780 C   0  0  2  0  0  0  0  0  0  0  0  0
    8.1757  -14.7751   20.6893 N   0  0  0  0  0  0  0  0  0  0  0  0
    7.8491  -14.7727   23.1026 C   0  0  0  0  0  0  0  0  0  0  0  0
    9.0413  -15.0736   23.4146 O   0  0  0  0  0  0  0  0  0  0  0  0
    5.3018  -20.1866   17.7841 C   0  0  0  0  0  0  0  0  0  0  0  0
    6.3690  -11.4750   25.0247 C   0  0  1  0  0  0  0  0  0  0  0  0
    6.6588  -12.6476   25.9275 C   0  0  0  0  0  0  0  0  0  0  0  0
    7.2101  -12.2630   27.2629 C   0  0  2  0  0  0  0  0  0  0  0  0
    7.5929  -13.6506   25.2813 N   0  0  0  0  0  0  0  0  0  0  0  0
    7.0598  -14.0131   24.0095 C   0  0  0  0  0  0  0  0  0  0  0  0
    7.8724  -14.8101   26.1612 O   0  0  0  0  0  0  0  0  0  0  0  0
    7.0809  -15.7861   26.1016 N   0  0  0  0  0  0  0  0  0  0  0  0
   11.9362  -17.7634   24.1128 C   0  0  0  0  0  0  0  0  0  0  0  0
   11.9830  -18.4220   25.3631 O   0  0  0  0  0  0  0  0  0  0  0  0
   12.6352  -19.4886   25.4879 C   0  0  0  0  0  0  0  0  0  0  0  0
   11.2611  -17.8447   26.5111 C   0  0  0  0  0  0  0  0  0  0  0  0
   10.5624  -16.5541   26.1617 C   0  0  2  0  0  0  0  0  0  0  0  0
    9.7294  -16.0754   27.3080 N   0  0  0  0  0  0  0  0  0  0  0  0
    8.9588  -14.9029   27.0616 C   0  0  0  0  0  0  0  0  0  0  0  0
   10.6092  -15.9782   28.5006 O   0  0  0  0  0  0  0  0  0  0  0  0
   10.9079  -16.9857   29.1806 O   0  0  0  0  0  0  0  0  0  0  0  0
  2  1  1  0
  3  2  2  0
  4  2  1  0
  5  4  1  0
  6  5  1  0
  7  6  1  0
  8  7  1  0
  8  9  1  6
 10  8  1  0
 10 11  2  0
 13 14  1  6
 13 12  1  0
 15 16  1  6
 15 13  1  0
 16 10  1  0
 17 15  1  0
 18 17  2  0
 20 21  2  0
 20 19  1  0
 22 20  1  0
 23 22  1  0
 24 23  1  6
 24 25  1  0
 25 17  1  0
 26 28  1  0
 26 24  1  0
 27 26  2  0
M  END
$$$$
