RVQ.pdb
     RDKit          3D

 28 27  0  0  1  0  0  0  0  0999 V2000
    7.2481  -21.9644   17.2041 N   0  0  0  0  0  0  0  0  0  0  0  0
    8.3731  -22.8233   17.0692 C   0  0  0  0  0  0  0  0  0  0  0  0
    8.2048  -23.9920   16.5607 N   0  0  0  0  0  0  0  0  0  0  0  0
    9.6721  -22.4274   17.4792 N   0  0  0  0  0  0  0  0  0  0  0  0
    9.9267  -21.1249   18.0240 C   0  0  0  0  0  0  0  0  0  0  0  0
    8.6998  -20.5196   18.6590 C   0  0  0  0  0  0  0  0  0  0  0  0
    9.0734  -19.2543   19.3667 C   0  0  0  0  0  0  0  0  0  0  0  0
    8.8264  -18.0133   18.5422 C   0  0  2  0  0  0  0  0  0  0  0  0
    9.6462  -18.0946   17.3550 N   0  0  0  0  0  0  0  0  0  0  0  0
    9.1471  -16.8067   19.3607 C   0  0  0  0  0  0  0  0  0  0  0  0
   10.3682  -16.6049   19.6390 O   0  0  0  0  0  0  0  0  0  0  0  0
    8.9709  -24.6879   16.4517 C   0  0  0  0  0  0  0  0  0  0  0  0
    7.3185  -13.3171   19.0563 C   0  0  1  0  0  0  0  0  0  0  0  0
    7.5308  -13.6909   20.5017 C   0  0  0  0  0  0  0  0  0  0  0  0
    7.9259  -12.5424   21.3734 C   0  0  2  0  0  0  0  0  0  0  0  0
    8.5489  -14.8018   20.6622 N   0  0  0  0  0  0  0  0  0  0  0  0
    8.1629  -15.8944   19.8313 C   0  0  0  0  0  0  0  0  0  0  0  0
    8.7553  -15.1776   22.0809 O   0  0  0  0  0  0  0  0  0  0  0  0
    7.9741  -16.0320   22.5731 N   0  0  0  0  0  0  0  0  0  0  0  0
    7.2169  -17.8860   25.6701 C   0  0  0  0  0  0  0  0  0  0  0  0
    6.7822  -16.5773   25.3574 O   0  0  0  0  0  0  0  0  0  0  0  0
    5.5737  -16.2653   25.5008 C   0  0  0  0  0  0  0  0  0  0  0  0
    7.7592  -15.5903   24.8639 C   0  0  0  0  0  0  0  0  0  0  0  0
    9.1574  -16.1517   24.7900 C   0  0  2  0  0  0  0  0  0  0  0  0
   10.1025  -15.1457   24.2138 N   0  0  0  0  0  0  0  0  0  0  0  0
    9.7616  -14.6498   22.9226 C   0  0  0  0  0  0  0  0  0  0  0  0
   11.4742  -15.7083   24.3000 O   0  0  0  0  0  0  0  0  0  0  0  0
   12.2116  -15.7996   23.2928 O   0  0  0  0  0  0  0  0  0  0  0  0
  2  1  1  0
  3  2  2  0
  4  2  1  0
  5  4  1  0
  6  5  1  0
  7  6  1  0
  8  7  1  0
  8  9  1  6
 10  8  1  0
 10 11  2  0
 13 14  1  6
 13 12  1  0
 15 16  1  6
 15 13  1  0
 16 10  1  0
 17 15  1  0
 18 17  2  0
 20 21  2  0
 20 19  1  0
 22 20  1  0
 23 22  1  0
 24 23  1  1
 24 25  1  0
 25 17  1  0
 26 28  1  0
 26 24  1  0
 27 26  2  0
M  END
$$$$
