RVQ.pdb
     RDKit          3D

 28 27  0  0  1  0  0  0  0  0999 V2000
    7.5031  -13.2855   16.8304 N   0  0  0  0  0  0  0  0  0  0  0  0
    8.1904  -13.1931   18.0716 C   0  0  0  0  0  0  0  0  0  0  0  0
    8.3885  -12.0321   18.5869 N   0  0  0  0  0  0  0  0  0  0  0  0
    8.6624  -14.3432   18.7548 N   0  0  0  0  0  0  0  0  0  0  0  0
    8.1182  -15.6465   18.5026 C   0  0  0  0  0  0  0  0  0  0  0  0
    7.5547  -16.2830   19.7485 C   0  0  0  0  0  0  0  0  0  0  0  0
    8.1106  -15.5972   20.9578 C   0  0  0  0  0  0  0  0  0  0  0  0
    7.6667  -16.2252   22.2576 C   0  0  2  0  0  0  0  0  0  0  0  0
    6.2231  -16.2902   22.2528 N   0  0  0  0  0  0  0  0  0  0  0  0
    8.1854  -15.4139   23.3984 C   0  0  0  0  0  0  0  0  0  0  0  0
    9.4431  -15.2711   23.4814 O   0  0  0  0  0  0  0  0  0  0  0  0
    8.9153  -11.8772   19.4710 C   0  0  0  0  0  0  0  0  0  0  0  0
    6.4289  -12.2284   25.0558 C   0  0  1  0  0  0  0  0  0  0  0  0
    6.9274  -13.2032   26.0928 C   0  0  0  0  0  0  0  0  0  0  0  0
    7.5251  -12.5527   27.2989 C   0  0  2  0  0  0  0  0  0  0  0  0
    7.9271  -14.1873   25.5197 N   0  0  0  0  0  0  0  0  0  0  0  0
    7.3472  -14.8081   24.3745 C   0  0  0  0  0  0  0  0  0  0  0  0
    8.4162  -15.1504   26.5345 O   0  0  0  0  0  0  0  0  0  0  0  0
    7.5575  -15.8537   27.1265 N   0  0  0  0  0  0  0  0  0  0  0  0
   13.0326  -20.3673   28.5086 C   0  0  0  0  0  0  0  0  0  0  0  0
   12.7309  -19.1987   27.7718 O   0  0  0  0  0  0  0  0  0  0  0  0
   13.3405  -18.9562   26.7004 C   0  0  0  0  0  0  0  0  0  0  0  0
   11.6984  -18.2746   28.2741 C   0  0  0  0  0  0  0  0  0  0  0  0
   11.3527  -17.1993   27.2742 C   0  0  2  0  0  0  0  0  0  0  0  0
   10.2603  -16.3213   27.7967 N   0  0  0  0  0  0  0  0  0  0  0  0
    9.7724  -15.3388   26.8879 C   0  0  0  0  0  0  0  0  0  0  0  0
   10.7062  -15.7672   29.1004 O   0  0  0  0  0  0  0  0  0  0  0  0
   10.8797  -16.4992   30.1008 O   0  0  0  0  0  0  0  0  0  0  0  0
  2  1  1  0
  3  2  2  0
  4  2  1  0
  5  4  1  0
  6  5  1  0
  7  6  1  0
  8  7  1  0
  8  9  1  6
 10  8  1  0
 10 11  2  0
 13 14  1  1
 13 12  1  0
 15 16  1  6
 15 13  1  0
 16 10  1  0
 17 15  1  0
 18 17  2  0
 20 21  2  0
 20 19  1  0
 22 20  1  0
 23 22  1  0
 24 23  1  6
 24 25  1  0
 25 17  1  0
 26 28  1  0
 26 24  1  0
 27 26  2  0
M  END
$$$$
