RVQ.pdb
     RDKit          3D

 28 27  0  0  1  0  0  0  0  0999 V2000
   12.0297  -15.7654   21.4536 N   0  0  0  0  0  0  0  0  0  0  0  0
   12.2201  -15.6755   20.0475 C   0  0  0  0  0  0  0  0  0  0  0  0
   13.3543  -15.2690   19.5990 N   0  0  0  0  0  0  0  0  0  0  0  0
   11.1960  -16.0207   19.1286 N   0  0  0  0  0  0  0  0  0  0  0  0
    9.8089  -15.9705   19.4913 C   0  0  0  0  0  0  0  0  0  0  0  0
    9.3884  -14.5997   19.9594 C   0  0  0  0  0  0  0  0  0  0  0  0
    7.9424  -14.6234   20.3469 C   0  0  0  0  0  0  0  0  0  0  0  0
    7.4323  -13.2878   20.8337 C   0  0  2  0  0  0  0  0  0  0  0  0
    7.8633  -12.2760   19.8965 N   0  0  0  0  0  0  0  0  0  0  0  0
    7.9540  -13.0335   22.2092 C   0  0  0  0  0  0  0  0  0  0  0  0
    9.1765  -12.7114   22.3133 O   0  0  0  0  0  0  0  0  0  0  0  0
   13.5435  -15.0883   18.5917 C   0  0  0  0  0  0  0  0  0  0  0  0
    7.2251  -11.9470   26.9228 C   0  0  1  0  0  0  0  0  0  0  0  0
    6.6615  -12.4124   25.6038 C   0  0  0  0  0  0  0  0  0  0  0  0
    5.6139  -13.4713   25.7317 C   0  0  2  0  0  0  0  0  0  0  0  0
    7.7416  -12.9021   24.6605 N   0  0  0  0  0  0  0  0  0  0  0  0
    7.1556  -13.1350   23.3816 C   0  0  0  0  0  0  0  0  0  0  0  0
    8.4748  -14.0715   25.2004 O   0  0  0  0  0  0  0  0  0  0  0  0
    9.0808  -13.9211   26.2925 N   0  0  0  0  0  0  0  0  0  0  0  0
   12.6300  -17.9336   23.0670 C   0  0  0  0  0  0  0  0  0  0  0  0
   12.2825  -18.5594   24.2865 O   0  0  0  0  0  0  0  0  0  0  0  0
   12.9671  -19.5208   24.7171 C   0  0  0  0  0  0  0  0  0  0  0  0
   11.1140  -18.0722   25.0410 C   0  0  0  0  0  0  0  0  0  0  0  0
   10.5140  -16.8286   24.4333 C   0  0  2  0  0  0  0  0  0  0  0  0
    9.2253  -16.4784   25.1069 N   0  0  0  0  0  0  0  0  0  0  0  0
    8.5457  -15.3415   24.5825 C   0  0  0  0  0  0  0  0  0  0  0  0
    9.4803  -16.4067   26.5682 O   0  0  0  0  0  0  0  0  0  0  0  0
    9.4432  -15.3206   27.1892 O   0  0  0  0  0  0  0  0  0  0  0  0
  2  1  1  0
  3  2  2  0
  4  2  1  0
  5  4  1  0
  6  5  1  0
  7  6  1  0
  8  7  1  0
  8  9  1  6
 10  8  1  0
 10 11  2  0
 13 14  1  1
 13 12  1  0
 15 16  1  1
 15 13  1  0
 16 10  1  0
 17 15  1  0
 18 17  2  0
 20 21  2  0
 20 19  1  0
 22 20  1  0
 23 22  1  0
 24 23  1  6
 24 25  1  0
 25 17  1  0
 26 28  1  0
 26 24  1  0
 27 26  2  0
M  END
$$$$
