RVQ.pdb
     RDKit          3D

 28 27  0  0  1  0  0  0  0  0999 V2000
    9.5121  -13.9011   13.2212 N   0  0  0  0  0  0  0  0  0  0  0  0
    9.1965  -14.7370   12.1152 C   0  0  0  0  0  0  0  0  0  0  0  0
    8.6392  -14.2148   11.0811 N   0  0  0  0  0  0  0  0  0  0  0  0
    9.4787  -16.1272   12.1215 N   0  0  0  0  0  0  0  0  0  0  0  0
    9.9932  -16.7871   13.2868 C   0  0  0  0  0  0  0  0  0  0  0  0
   10.0630  -15.8687   14.4813 C   0  0  0  0  0  0  0  0  0  0  0  0
   10.8368  -16.5308   15.5788 C   0  0  0  0  0  0  0  0  0  0  0  0
    9.9600  -17.0973   16.6703 C   0  0  2  0  0  0  0  0  0  0  0  0
    8.6140  -17.1998   16.1546 N   0  0  0  0  0  0  0  0  0  0  0  0
   10.0326  -16.2111   17.8694 C   0  0  0  0  0  0  0  0  0  0  0  0
   11.1881  -15.9276   18.3096 O   0  0  0  0  0  0  0  0  0  0  0  0
    8.4237  -14.7470   10.2131 C   0  0  0  0  0  0  0  0  0  0  0  0
    7.2739  -13.3152   18.8069 C   0  0  1  0  0  0  0  0  0  0  0  0
    7.7283  -14.1691   19.9638 C   0  0  0  0  0  0  0  0  0  0  0  0
    7.8402  -13.4279   21.2573 C   0  0  2  0  0  0  0  0  0  0  0  0
    9.0450  -14.8634   19.6805 N   0  0  0  0  0  0  0  0  0  0  0  0
    8.8861  -15.6831   18.5246 C   0  0  0  0  0  0  0  0  0  0  0  0
    9.5632  -15.5944   20.8610 O   0  0  0  0  0  0  0  0  0  0  0  0
    8.8293  -16.4879   21.3567 N   0  0  0  0  0  0  0  0  0  0  0  0
   15.4363  -14.9155   22.7978 C   0  0  0  0  0  0  0  0  0  0  0  0
   14.9961  -15.9271   21.9132 O   0  0  0  0  0  0  0  0  0  0  0  0
   15.8338  -16.6499   21.3179 C   0  0  0  0  0  0  0  0  0  0  0  0
   13.5508  -16.1213   21.6999 C   0  0  0  0  0  0  0  0  0  0  0  0
   12.7433  -15.8465   22.9442 C   0  0  2  0  0  0  0  0  0  0  0  0
   11.2800  -15.9861   22.6677 N   0  0  0  0  0  0  0  0  0  0  0  0
   10.8173  -15.3644   21.4723 C   0  0  0  0  0  0  0  0  0  0  0  0
   10.5443  -15.5673   23.8880 O   0  0  0  0  0  0  0  0  0  0  0  0
    9.7540  -14.5968   23.8782 O   0  0  0  0  0  0  0  0  0  0  0  0
  2  1  1  0
  3  2  2  0
  4  2  1  0
  5  4  1  0
  6  5  1  0
  7  6  1  0
  8  7  1  0
  8  9  1  6
 10  8  1  0
 10 11  2  0
 13 14  1  6
 13 12  1  0
 15 16  1  6
 15 13  1  0
 16 10  1  0
 17 15  1  0
 18 17  2  0
 20 21  2  0
 20 19  1  0
 22 20  1  0
 23 22  1  0
 24 23  1  6
 24 25  1  0
 25 17  1  0
 26 28  1  0
 26 24  1  0
 27 26  2  0
M  END
$$$$
