RVQ.pdb
     RDKit          3D

 28 27  0  0  1  0  0  0  0  0999 V2000
   10.8731  -23.0424   17.7442 N   0  0  0  0  0  0  0  0  0  0  0  0
   11.0389  -22.2301   16.5891 C   0  0  0  0  0  0  0  0  0  0  0  0
   11.0923  -22.7945   15.4353 N   0  0  0  0  0  0  0  0  0  0  0  0
   11.1468  -20.8182   16.6745 N   0  0  0  0  0  0  0  0  0  0  0  0
   10.3431  -20.0542   17.5847 C   0  0  0  0  0  0  0  0  0  0  0  0
    9.1512  -19.4253   16.9074 C   0  0  0  0  0  0  0  0  0  0  0  0
    8.3794  -18.6141   17.9013 C   0  0  0  0  0  0  0  0  0  0  0  0
    8.1703  -17.1819   17.4700 C   0  0  2  0  0  0  0  0  0  0  0  0
    8.8370  -16.9950   16.2016 N   0  0  0  0  0  0  0  0  0  0  0  0
    8.7053  -16.2679   18.5221 C   0  0  0  0  0  0  0  0  0  0  0  0
    9.9666  -16.1678   18.6139 O   0  0  0  0  0  0  0  0  0  0  0  0
   11.2236  -22.2723   14.5447 C   0  0  0  0  0  0  0  0  0  0  0  0
    7.2067  -12.7048   19.6974 C   0  0  1  0  0  0  0  0  0  0  0  0
    7.5000  -13.6472   20.8375 C   0  0  0  0  0  0  0  0  0  0  0  0
    8.0094  -12.9694   22.0688 C   0  0  2  0  0  0  0  0  0  0  0  0
    8.4718  -14.7402   20.4412 N   0  0  0  0  0  0  0  0  0  0  0  0
    7.8787  -15.5215   19.4064 C   0  0  0  0  0  0  0  0  0  0  0  0
    8.9265  -15.5398   21.6034 O   0  0  0  0  0  0  0  0  0  0  0  0
    8.1121  -16.3639   22.0934 N   0  0  0  0  0  0  0  0  0  0  0  0
   14.3084  -19.0334   22.4094 C   0  0  0  0  0  0  0  0  0  0  0  0
   13.9022  -17.7582   22.8659 O   0  0  0  0  0  0  0  0  0  0  0  0
   14.6295  -16.7550   22.6581 C   0  0  0  0  0  0  0  0  0  0  0  0
   12.6225  -17.6221   23.5842 C   0  0  0  0  0  0  0  0  0  0  0  0
   12.1096  -16.2034   23.5828 C   0  0  2  0  0  0  0  0  0  0  0  0
   10.6323  -16.1743   23.3506 N   0  0  0  0  0  0  0  0  0  0  0  0
   10.2038  -15.4471   22.2030 C   0  0  0  0  0  0  0  0  0  0  0  0
    9.9813  -15.7439   24.6141 O   0  0  0  0  0  0  0  0  0  0  0  0
    9.3305  -14.6773   24.6878 O   0  0  0  0  0  0  0  0  0  0  0  0
  2  1  1  0
  3  2  2  0
  4  2  1  0
  5  4  1  0
  6  5  1  0
  7  6  1  0
  8  7  1  0
  8  9  1  6
 10  8  1  0
 10 11  2  0
 13 14  1  6
 13 12  1  0
 15 16  1  6
 15 13  1  0
 16 10  1  0
 17 15  1  0
 18 17  2  0
 20 21  2  0
 20 19  1  0
 22 20  1  0
 23 22  1  0
 24 23  1  6
 24 25  1  0
 25 17  1  0
 26 28  1  0
 26 24  1  0
 27 26  2  0
M  END
$$$$
