QLM.pdb
     RDKit          3D

 26 25  0  0  1  0  0  0  0  0999 V2000
   11.2528  -17.7904   15.2527 N   0  0  0  0  0  0  0  0  0  0  0  0
   12.1692  -18.4074   16.1353 C   0  0  0  0  0  0  0  0  0  0  0  0
   12.8471  -19.3730   15.7524 O   0  0  0  0  0  0  0  0  0  0  0  0
   12.3079  -17.8914   17.5079 C   0  0  0  0  0  0  0  0  0  0  0  0
   10.9530  -17.5073   18.0190 C   0  0  0  0  0  0  0  0  0  0  0  0
   10.6321  -18.1525   19.3586 C   0  0  2  0  0  0  0  0  0  0  0  0
    9.4046  -18.8816   19.3336 N   0  0  0  0  0  0  0  0  0  0  0  0
   10.5619  -17.0685   20.3761 C   0  0  0  0  0  0  0  0  0  0  0  0
   11.6080  -16.4318   20.7132 O   0  0  0  0  0  0  0  0  0  0  0  0
    8.6257  -13.2308   20.1448 C   0  0  0  0  0  0  0  0  0  0  0  0
    7.7155  -14.4421   20.4055 C   0  0  2  0  0  0  0  0  0  0  0  0
    6.3163  -13.9814   20.1744 C   0  0  0  0  0  0  0  0  0  0  0  0
    7.9993  -14.8953   21.7925 C   0  0  0  0  0  0  0  0  0  0  0  0
    9.2891  -15.6051   22.0006 C   0  0  2  0  0  0  0  0  0  0  0  0
    9.3610  -16.6867   21.0163 N   0  0  0  0  0  0  0  0  0  0  0  0
    9.5063  -16.1117   23.3688 C   0  0  0  0  0  0  0  0  0  0  0  0
    8.7211  -16.9405   23.8929 O   0  0  0  0  0  0  0  0  0  0  0  0
    8.4367  -12.7564   28.3403 C   0  0  0  0  0  0  0  0  0  0  0  0
    9.8011  -13.9296   28.6336 S   0  0  0  0  0  0  0  0  0  0  0  0
    9.4206  -15.4666   27.7771 C   0  0  0  0  0  0  0  0  0  0  0  0
    9.4071  -15.2368   26.2700 C   0  0  0  0  0  0  0  0  0  0  0  0
   10.6223  -15.8417   25.6180 C   0  0  2  0  0  0  0  0  0  0  0  0
   10.6116  -15.6996   24.1828 N   0  0  0  0  0  0  0  0  0  0  0  0
   10.6263  -17.2884   25.9367 C   0  0  0  0  0  0  0  0  0  0  0  0
   10.7986  -17.6905   27.1121 O   0  0  0  0  0  0  0  0  0  0  0  0
   10.4375  -18.1845   24.9187 O   0  0  0  0  0  0  0  0  0  0  0  0
  1  2  1  0
  2  4  1  0
  2  3  2  0
  4  5  1  0
  5  6  1  0
  6  7  1  6
  8  9  2  0
  8  6  1  0
 11 10  1  1
 11 12  1  0
 14 13  1  1
 13 11  1  0
 14 15  1  0
 15  8  1  0
 16 14  1  0
 17 16  2  0
 19 18  1  0
 20 19  1  0
 21 20  1  0
 22 21  1  1
 22 24  1  0
 22 23  1  0
 23 16  1  0
 24 26  1  0
 25 24  2  0
M  END
$$$$
