QLM.pdb
     RDKit          3D

 26 25  0  0  1  0  0  0  0  0999 V2000
    9.0562  -21.6527   20.8210 N   0  0  0  0  0  0  0  0  0  0  0  0
   10.2656  -20.9931   21.1400 C   0  0  0  0  0  0  0  0  0  0  0  0
   11.3020  -21.6493   21.3232 O   0  0  0  0  0  0  0  0  0  0  0  0
   10.2787  -19.5244   21.2513 C   0  0  0  0  0  0  0  0  0  0  0  0
   11.4451  -18.9913   20.4767 C   0  0  0  0  0  0  0  0  0  0  0  0
   11.0939  -17.7431   19.6815 C   0  0  2  0  0  0  0  0  0  0  0  0
   12.1908  -17.2655   18.9018 N   0  0  0  0  0  0  0  0  0  0  0  0
   10.6619  -16.6983   20.6496 C   0  0  0  0  0  0  0  0  0  0  0  0
   11.5220  -16.0050   21.2765 O   0  0  0  0  0  0  0  0  0  0  0  0
    8.4618  -12.8562   20.0746 C   0  0  0  0  0  0  0  0  0  0  0  0
    7.6466  -14.1480   19.9006 C   0  0  2  0  0  0  0  0  0  0  0  0
    6.3225  -13.7450   19.3457 C   0  0  0  0  0  0  0  0  0  0  0  0
    7.5888  -14.7964   21.2371 C   0  0  0  0  0  0  0  0  0  0  0  0
    8.8779  -15.3034   21.7773 C   0  0  2  0  0  0  0  0  0  0  0  0
    9.3051  -16.4165   20.9274 N   0  0  0  0  0  0  0  0  0  0  0  0
    8.8442  -15.6979   23.1983 C   0  0  0  0  0  0  0  0  0  0  0  0
    9.4692  -16.7053   23.6136 O   0  0  0  0  0  0  0  0  0  0  0  0
    7.1154  -10.2521   26.7656 C   0  0  0  0  0  0  0  0  0  0  0  0
    6.3712  -11.8915   26.4781 S   0  0  0  0  0  0  0  0  0  0  0  0
    7.6818  -13.1246   26.5254 C   0  0  0  0  0  0  0  0  0  0  0  0
    7.0913  -14.5225   26.3771 C   0  0  0  0  0  0  0  0  0  0  0  0
    7.9926  -15.4081   25.5580 C   0  0  2  0  0  0  0  0  0  0  0  0
    8.1071  -14.9699   24.1887 N   0  0  0  0  0  0  0  0  0  0  0  0
    7.4031  -16.7671   25.5580 C   0  0  0  0  0  0  0  0  0  0  0  0
    6.8353  -17.2250   24.5378 O   0  0  0  0  0  0  0  0  0  0  0  0
    7.4898  -17.5192   26.6989 O   0  0  0  0  0  0  0  0  0  0  0  0
  1  2  1  0
  2  4  1  0
  2  3  2  0
  4  5  1  0
  5  6  1  0
  6  7  1  1
  8  9  2  0
  8  6  1  0
 11 10  1  1
 11 12  1  0
 14 13  1  6
 13 11  1  0
 14 15  1  0
 15  8  1  0
 16 14  1  0
 17 16  2  0
 19 18  1  0
 20 19  1  0
 21 20  1  0
 22 21  1  1
 22 24  1  0
 22 23  1  0
 23 16  1  0
 24 26  1  0
 25 24  2  0
M  END
$$$$
