QLM.pdb
     RDKit          3D

 26 25  0  0  1  0  0  0  0  0999 V2000
   13.7981  -18.2744   17.5082 N   0  0  0  0  0  0  0  0  0  0  0  0
   12.6934  -19.0381   17.0657 C   0  0  0  0  0  0  0  0  0  0  0  0
   12.8450  -19.8980   16.1848 O   0  0  0  0  0  0  0  0  0  0  0  0
   11.3673  -18.8007   17.6612 C   0  0  0  0  0  0  0  0  0  0  0  0
   11.4896  -17.7306   18.7027 C   0  0  0  0  0  0  0  0  0  0  0  0
   10.7063  -18.0554   19.9654 C   0  0  2  0  0  0  0  0  0  0  0  0
    9.4816  -18.7356   19.6888 N   0  0  0  0  0  0  0  0  0  0  0  0
   10.4309  -16.7724   20.6678 C   0  0  0  0  0  0  0  0  0  0  0  0
   11.3870  -16.0380   21.0677 O   0  0  0  0  0  0  0  0  0  0  0  0
    9.0402  -12.6816   19.8884 C   0  0  0  0  0  0  0  0  0  0  0  0
    8.0014  -13.7934   19.6679 C   0  0  2  0  0  0  0  0  0  0  0  0
    6.8274  -13.1548   19.0065 C   0  0  0  0  0  0  0  0  0  0  0  0
    7.7184  -14.3806   21.0039 C   0  0  0  0  0  0  0  0  0  0  0  0
    8.8544  -15.0681   21.6731 C   0  0  2  0  0  0  0  0  0  0  0  0
    9.1247  -16.2998   20.9289 N   0  0  0  0  0  0  0  0  0  0  0  0
    8.6559  -15.3432   23.1087 C   0  0  0  0  0  0  0  0  0  0  0  0
    7.7788  -16.1498   23.5060 O   0  0  0  0  0  0  0  0  0  0  0  0
    7.6210  -10.7153   26.5130 C   0  0  0  0  0  0  0  0  0  0  0  0
    6.4772  -11.9813   27.1555 S   0  0  0  0  0  0  0  0  0  0  0  0
    7.2850  -13.5859   27.0393 C   0  0  0  0  0  0  0  0  0  0  0  0
    7.6460  -13.8866   25.5888 C   0  0  0  0  0  0  0  0  0  0  0  0
    8.9791  -14.5807   25.4942 C   0  0  2  0  0  0  0  0  0  0  0  0
    9.4385  -14.7185   24.1341 N   0  0  0  0  0  0  0  0  0  0  0  0
    8.8171  -15.9382   26.0647 C   0  0  0  0  0  0  0  0  0  0  0  0
    9.1450  -16.1842   27.2499 O   0  0  0  0  0  0  0  0  0  0  0  0
    8.2997  -16.9258   25.2698 O   0  0  0  0  0  0  0  0  0  0  0  0
  1  2  1  0
  2  4  1  0
  2  3  2  0
  4  5  1  0
  5  6  1  0
  6  7  1  6
  8  9  2  0
  8  6  1  0
 11 10  1  1
 11 12  1  0
 14 13  1  6
 13 11  1  0
 14 15  1  0
 15  8  1  0
 16 14  1  0
 17 16  2  0
 19 18  1  0
 20 19  1  0
 21 20  1  0
 22 21  1  6
 22 24  1  0
 22 23  1  0
 23 16  1  0
 24 26  1  0
 25 24  2  0
M  END
$$$$
