QLM.pdb
     RDKit          3D

 26 25  0  0  1  0  0  0  0  0999 V2000
    9.1187  -21.1941   16.4031 N   0  0  0  0  0  0  0  0  0  0  0  0
    8.8956  -19.8077   16.5692 C   0  0  0  0  0  0  0  0  0  0  0  0
    9.1450  -19.0225   15.6420 O   0  0  0  0  0  0  0  0  0  0  0  0
    8.3661  -19.3106   17.8506 C   0  0  0  0  0  0  0  0  0  0  0  0
    9.4367  -18.5244   18.5436 C   0  0  0  0  0  0  0  0  0  0  0  0
    9.2723  -18.5247   20.0558 C   0  0  2  0  0  0  0  0  0  0  0  0
    7.9416  -18.8475   20.4606 N   0  0  0  0  0  0  0  0  0  0  0  0
    9.6424  -17.1704   20.5500 C   0  0  0  0  0  0  0  0  0  0  0  0
   10.8296  -16.7382   20.4186 O   0  0  0  0  0  0  0  0  0  0  0  0
    8.9850  -12.7556   19.5912 C   0  0  0  0  0  0  0  0  0  0  0  0
    7.7887  -13.6586   19.9332 C   0  0  2  0  0  0  0  0  0  0  0  0
    6.5595  -12.8658   19.6434 C   0  0  0  0  0  0  0  0  0  0  0  0
    7.9504  -14.0561   21.3565 C   0  0  0  0  0  0  0  0  0  0  0  0
    9.0872  -14.9655   21.6593 C   0  0  2  0  0  0  0  0  0  0  0  0
    8.7238  -16.3005   21.1801 N   0  0  0  0  0  0  0  0  0  0  0  0
    9.4962  -14.9988   23.0762 C   0  0  0  0  0  0  0  0  0  0  0  0
   10.3296  -14.1797   23.5369 O   0  0  0  0  0  0  0  0  0  0  0  0
    7.1070  -12.0492   26.9842 C   0  0  0  0  0  0  0  0  0  0  0  0
    5.9534  -13.3703   26.4861 S   0  0  0  0  0  0  0  0  0  0  0  0
    6.8725  -14.6004   25.5465 C   0  0  0  0  0  0  0  0  0  0  0  0
    8.3488  -14.5524   25.9243 C   0  0  0  0  0  0  0  0  0  0  0  0
    9.0730  -15.7805   25.4398 C   0  0  2  0  0  0  0  0  0  0  0  0
    8.9787  -15.9539   24.0112 N   0  0  0  0  0  0  0  0  0  0  0  0
    8.4439  -16.9546   26.0880 C   0  0  0  0  0  0  0  0  0  0  0  0
    7.3390  -17.3964   25.6918 O   0  0  0  0  0  0  0  0  0  0  0  0
    9.0942  -17.5528   27.1340 O   0  0  0  0  0  0  0  0  0  0  0  0
  1  2  1  0
  2  4  1  0
  2  3  2  0
  4  5  1  0
  5  6  1  0
  6  7  1  6
  8  9  2  0
  8  6  1  0
 11 10  1  1
 11 12  1  0
 14 13  1  1
 13 11  1  0
 14 15  1  0
 15  8  1  0
 16 14  1  0
 17 16  2  0
 19 18  1  0
 20 19  1  0
 21 20  1  0
 22 21  1  1
 22 24  1  0
 22 23  1  0
 23 16  1  0
 24 26  1  0
 25 24  2  0
M  END
$$$$
