QLM.pdb
     RDKit          3D

 26 25  0  0  1  0  0  0  0  0999 V2000
   11.1753  -17.8794   17.7149 N   0  0  0  0  0  0  0  0  0  0  0  0
    9.9259  -18.5347   17.6206 C   0  0  0  0  0  0  0  0  0  0  0  0
    9.7337  -19.3824   16.7357 O   0  0  0  0  0  0  0  0  0  0  0  0
    8.8611  -18.1997   18.5817 C   0  0  0  0  0  0  0  0  0  0  0  0
    9.3837  -17.1787   19.5455 C   0  0  0  0  0  0  0  0  0  0  0  0
    9.1778  -17.5885   20.9958 C   0  0  2  0  0  0  0  0  0  0  0  0
    7.8923  -18.1674   21.2227 N   0  0  0  0  0  0  0  0  0  0  0  0
    9.3459  -16.3719   21.8366 C   0  0  0  0  0  0  0  0  0  0  0  0
   10.3944  -15.6614   21.7404 O   0  0  0  0  0  0  0  0  0  0  0  0
    5.8607  -13.2753   25.8364 C   0  0  0  0  0  0  0  0  0  0  0  0
    7.2440  -13.2722   25.1656 C   0  0  2  0  0  0  0  0  0  0  0  0
    7.4093  -11.9307   24.5357 C   0  0  0  0  0  0  0  0  0  0  0  0
    7.2554  -14.4122   24.2116 C   0  0  0  0  0  0  0  0  0  0  0  0
    8.5829  -14.7959   23.6626 C   0  0  2  0  0  0  0  0  0  0  0  0
    8.3777  -15.9389   22.7709 N   0  0  0  0  0  0  0  0  0  0  0  0
    9.6143  -15.0868   24.6764 C   0  0  0  0  0  0  0  0  0  0  0  0
   10.4504  -14.2179   25.0284 O   0  0  0  0  0  0  0  0  0  0  0  0
    9.9203  -13.0817   28.9366 C   0  0  0  0  0  0  0  0  0  0  0  0
   10.3705  -14.8203   29.2507 S   0  0  0  0  0  0  0  0  0  0  0  0
    9.3286  -15.8696   28.2241 C   0  0  0  0  0  0  0  0  0  0  0  0
   10.1487  -17.0183   27.6475 C   0  0  0  0  0  0  0  0  0  0  0  0
   10.7388  -16.6472   26.3127 C   0  0  2  0  0  0  0  0  0  0  0  0
    9.7321  -16.3618   25.3201 N   0  0  0  0  0  0  0  0  0  0  0  0
   11.5358  -17.8030   25.8401 C   0  0  0  0  0  0  0  0  0  0  0  0
   11.2168  -18.4253   24.7990 O   0  0  0  0  0  0  0  0  0  0  0  0
   12.6340  -18.1822   26.5647 O   0  0  0  0  0  0  0  0  0  0  0  0
  1  2  1  0
  2  4  1  0
  2  3  2  0
  4  5  1  0
  5  6  1  0
  6  7  1  6
  8  9  2  0
  8  6  1  0
 11 10  1  6
 11 12  1  0
 14 13  1  1
 13 11  1  0
 14 15  1  0
 15  8  1  0
 16 14  1  0
 17 16  2  0
 19 18  1  0
 20 19  1  0
 21 20  1  0
 22 21  1  1
 22 24  1  0
 22 23  1  0
 23 16  1  0
 24 26  1  0
 25 24  2  0
M  END
$$$$
