QLM.pdb
     RDKit          3D

 26 25  0  0  1  0  0  0  0  0999 V2000
    8.5365  -12.5514   16.8127 N   0  0  0  0  0  0  0  0  0  0  0  0
    8.4759  -13.9641   16.8244 C   0  0  0  0  0  0  0  0  0  0  0  0
    8.9841  -14.6158   15.8994 O   0  0  0  0  0  0  0  0  0  0  0  0
    7.8052  -14.6482   17.9431 C   0  0  0  0  0  0  0  0  0  0  0  0
    8.5753  -14.3864   19.2013 C   0  0  0  0  0  0  0  0  0  0  0  0
    8.7458  -15.6371   20.0501 C   0  0  2  0  0  0  0  0  0  0  0  0
    7.5942  -16.4808   20.0172 N   0  0  0  0  0  0  0  0  0  0  0  0
    9.0198  -15.2008   21.4464 C   0  0  0  0  0  0  0  0  0  0  0  0
   10.1368  -14.6786   21.7514 O   0  0  0  0  0  0  0  0  0  0  0  0
    5.7880  -13.5946   26.3249 C   0  0  0  0  0  0  0  0  0  0  0  0
    7.2101  -13.7226   25.7550 C   0  0  2  0  0  0  0  0  0  0  0  0
    7.7277  -12.3346   25.5850 C   0  0  0  0  0  0  0  0  0  0  0  0
    7.0933  -14.5009   24.4938 C   0  0  0  0  0  0  0  0  0  0  0  0
    8.3702  -14.9501   23.8786 C   0  0  2  0  0  0  0  0  0  0  0  0
    8.0821  -15.3345   22.4955 N   0  0  0  0  0  0  0  0  0  0  0  0
    9.0614  -16.0340   24.6021 C   0  0  0  0  0  0  0  0  0  0  0  0
    8.8426  -17.2422   24.3369 O   0  0  0  0  0  0  0  0  0  0  0  0
   10.6214  -12.3603   28.6186 C   0  0  0  0  0  0  0  0  0  0  0  0
   10.5230  -14.1807   28.6067 S   0  0  0  0  0  0  0  0  0  0  0  0
   11.6955  -14.8034   27.3908 C   0  0  0  0  0  0  0  0  0  0  0  0
   11.6706  -16.3277   27.3719 C   0  0  0  0  0  0  0  0  0  0  0  0
   10.7508  -16.8420   26.2962 C   0  0  2  0  0  0  0  0  0  0  0  0
   10.0161  -15.7873   25.6422 N   0  0  0  0  0  0  0  0  0  0  0  0
    9.7746  -17.7511   26.9405 C   0  0  0  0  0  0  0  0  0  0  0  0
    8.5480  -17.4901   26.9356 O   0  0  0  0  0  0  0  0  0  0  0  0
   10.2383  -18.8886   27.5454 O   0  0  0  0  0  0  0  0  0  0  0  0
  1  2  1  0
  2  4  1  0
  2  3  2  0
  4  5  1  0
  5  6  1  0
  6  7  1  1
  8  9  2  0
  8  6  1  0
 11 10  1  6
 11 12  1  0
 14 13  1  1
 13 11  1  0
 14 15  1  0
 15  8  1  0
 16 14  1  0
 17 16  2  0
 19 18  1  0
 20 19  1  0
 21 20  1  0
 22 21  1  1
 22 24  1  0
 22 23  1  0
 23 16  1  0
 24 26  1  0
 25 24  2  0
M  END
$$$$
