QLM.pdb
     RDKit          3D

 26 25  0  0  1  0  0  0  0  0999 V2000
   14.3144  -20.4646   17.0973 N   0  0  0  0  0  0  0  0  0  0  0  0
   13.5764  -19.4157   17.6927 C   0  0  0  0  0  0  0  0  0  0  0  0
   14.1659  -18.4994   18.2855 O   0  0  0  0  0  0  0  0  0  0  0  0
   12.1064  -19.4249   17.6004 C   0  0  0  0  0  0  0  0  0  0  0  0
   11.5719  -18.1998   18.2771 C   0  0  0  0  0  0  0  0  0  0  0  0
   10.8255  -18.5238   19.5623 C   0  0  2  0  0  0  0  0  0  0  0  0
    9.6003  -19.2169   19.3227 N   0  0  0  0  0  0  0  0  0  0  0  0
   10.5569  -17.2390   20.2641 C   0  0  0  0  0  0  0  0  0  0  0  0
   11.5127  -16.5562   20.7475 O   0  0  0  0  0  0  0  0  0  0  0  0
    6.4637  -12.8858   20.1163 C   0  0  0  0  0  0  0  0  0  0  0  0
    7.8751  -13.3692   20.4873 C   0  0  2  0  0  0  0  0  0  0  0  0
    8.7838  -12.9068   19.3993 C   0  0  0  0  0  0  0  0  0  0  0  0
    7.7911  -14.8454   20.6413 C   0  0  0  0  0  0  0  0  0  0  0  0
    8.9810  -15.5129   21.2323 C   0  0  2  0  0  0  0  0  0  0  0  0
    9.2579  -16.7087   20.4341 N   0  0  0  0  0  0  0  0  0  0  0  0
    8.8614  -15.8422   22.6652 C   0  0  0  0  0  0  0  0  0  0  0  0
    8.1526  -16.8012   23.0601 O   0  0  0  0  0  0  0  0  0  0  0  0
    7.9027  -11.5001   27.4910 C   0  0  0  0  0  0  0  0  0  0  0  0
    6.7140  -12.1510   26.2714 S   0  0  0  0  0  0  0  0  0  0  0  0
    6.9189  -13.9370   26.1782 C   0  0  0  0  0  0  0  0  0  0  0  0
    7.5017  -14.3274   24.8245 C   0  0  0  0  0  0  0  0  0  0  0  0
    8.9271  -14.7935   24.9615 C   0  0  2  0  0  0  0  0  0  0  0  0
    9.5354  -15.1019   23.6907 N   0  0  0  0  0  0  0  0  0  0  0  0
    8.9161  -16.0295   25.7780 C   0  0  0  0  0  0  0  0  0  0  0  0
    8.6287  -17.1384   25.2674 O   0  0  0  0  0  0  0  0  0  0  0  0
    9.2273  -15.9393   27.1083 O   0  0  0  0  0  0  0  0  0  0  0  0
  1  2  1  0
  2  4  1  0
  2  3  2  0
  4  5  1  0
  5  6  1  0
  6  7  1  6
  8  9  2  0
  8  6  1  0
 11 10  1  6
 11 12  1  0
 14 13  1  6
 13 11  1  0
 14 15  1  0
 15  8  1  0
 16 14  1  0
 17 16  2  0
 19 18  1  0
 20 19  1  0
 21 20  1  0
 22 21  1  6
 22 24  1  0
 22 23  1  0
 23 16  1  0
 24 26  1  0
 25 24  2  0
M  END
$$$$
