QLM.pdb
     RDKit          3D

 26 25  0  0  1  0  0  0  0  0999 V2000
    5.3757  -21.2875   23.7322 N   0  0  0  0  0  0  0  0  0  0  0  0
    6.6813  -20.9886   24.1856 C   0  0  0  0  0  0  0  0  0  0  0  0
    7.0038  -21.2345   25.3578 O   0  0  0  0  0  0  0  0  0  0  0  0
    7.6483  -20.3848   23.2530 C   0  0  0  0  0  0  0  0  0  0  0  0
    6.9847  -20.1972   21.9229 C   0  0  0  0  0  0  0  0  0  0  0  0
    7.9460  -19.6882   20.8596 C   0  0  2  0  0  0  0  0  0  0  0  0
    9.0696  -20.5511   20.6809 N   0  0  0  0  0  0  0  0  0  0  0  0
    8.4027  -18.3340   21.2756 C   0  0  0  0  0  0  0  0  0  0  0  0
    9.4515  -18.1949   21.9784 O   0  0  0  0  0  0  0  0  0  0  0  0
    6.9233  -12.5809   19.7386 C   0  0  0  0  0  0  0  0  0  0  0  0
    7.9411  -13.4159   20.5325 C   0  0  2  0  0  0  0  0  0  0  0  0
    9.2858  -13.0905   19.9764 C   0  0  0  0  0  0  0  0  0  0  0  0
    7.5335  -14.8375   20.3813 C   0  0  0  0  0  0  0  0  0  0  0  0
    8.2025  -15.8121   21.2832 C   0  0  2  0  0  0  0  0  0  0  0  0
    7.7193  -17.1473   20.9260 N   0  0  0  0  0  0  0  0  0  0  0  0
    8.0273  -15.5475   22.7238 C   0  0  0  0  0  0  0  0  0  0  0  0
    6.9948  -15.9162   23.3368 O   0  0  0  0  0  0  0  0  0  0  0  0
    7.6359  -10.8394   26.9822 C   0  0  0  0  0  0  0  0  0  0  0  0
    6.3738  -12.1343   26.7488 S   0  0  0  0  0  0  0  0  0  0  0  0
    7.2074  -13.7269   26.6521 C   0  0  0  0  0  0  0  0  0  0  0  0
    7.3736  -14.1435   25.1949 C   0  0  0  0  0  0  0  0  0  0  0  0
    8.8005  -14.5221   24.8981 C   0  0  2  0  0  0  0  0  0  0  0  0
    9.0085  -14.8617   23.5119 N   0  0  0  0  0  0  0  0  0  0  0  0
    9.1261  -15.7128   25.7171 C   0  0  0  0  0  0  0  0  0  0  0  0
    9.2740  -16.8401   25.1878 O   0  0  0  0  0  0  0  0  0  0  0  0
    9.2635  -15.5597   27.0708 O   0  0  0  0  0  0  0  0  0  0  0  0
  1  2  1  0
  2  4  1  0
  2  3  2  0
  4  5  1  0
  5  6  1  0
  6  7  1  1
  8  9  2  0
  8  6  1  0
 11 10  1  6
 11 12  1  0
 14 13  1  6
 13 11  1  0
 14 15  1  0
 15  8  1  0
 16 14  1  0
 17 16  2  0
 19 18  1  0
 20 19  1  0
 21 20  1  0
 22 21  1  6
 22 24  1  0
 22 23  1  0
 23 16  1  0
 24 26  1  0
 25 24  2  0
M  END
$$$$
