QLM.pdb
     RDKit          3D

 26 25  0  0  1  0  0  0  0  0999 V2000
   12.1446  -17.4906   16.1347 N   0  0  0  0  0  0  0  0  0  0  0  0
   10.7512  -17.2512   16.1556 C   0  0  0  0  0  0  0  0  0  0  0  0
   10.1554  -16.9561   15.1085 O   0  0  0  0  0  0  0  0  0  0  0  0
   10.0201  -17.3561   17.4299 C   0  0  0  0  0  0  0  0  0  0  0  0
   10.9746  -17.7889   18.5006 C   0  0  0  0  0  0  0  0  0  0  0  0
   10.2973  -17.9519   19.8528 C   0  0  2  0  0  0  0  0  0  0  0  0
    8.9486  -18.4063   19.7370 N   0  0  0  0  0  0  0  0  0  0  0  0
   10.3345  -16.6311   20.5380 C   0  0  0  0  0  0  0  0  0  0  0  0
   11.4443  -16.0699   20.7966 O   0  0  0  0  0  0  0  0  0  0  0  0
    9.0332  -12.3652   19.5451 C   0  0  0  0  0  0  0  0  0  0  0  0
    7.9006  -13.3962   19.6783 C   0  0  2  0  0  0  0  0  0  0  0  0
    6.6386  -12.6932   19.3089 C   0  0  0  0  0  0  0  0  0  0  0  0
    7.9459  -13.8979   21.0770 C   0  0  0  0  0  0  0  0  0  0  0  0
    9.2013  -14.5794   21.4899 C   0  0  2  0  0  0  0  0  0  0  0  0
    9.1709  -15.9339   20.9348 N   0  0  0  0  0  0  0  0  0  0  0  0
    9.4464  -14.6027   22.9443 C   0  0  0  0  0  0  0  0  0  0  0  0
    9.7990  -13.5697   23.5660 O   0  0  0  0  0  0  0  0  0  0  0  0
    6.7537  -11.7318   26.8608 C   0  0  0  0  0  0  0  0  0  0  0  0
    6.1611  -13.4530   26.9614 S   0  0  0  0  0  0  0  0  0  0  0  0
    7.5813  -14.5502   26.8214 C   0  0  0  0  0  0  0  0  0  0  0  0
    7.6350  -15.1620   25.4259 C   0  0  0  0  0  0  0  0  0  0  0  0
    8.9906  -15.7545   25.1449 C   0  0  2  0  0  0  0  0  0  0  0  0
    9.3015  -15.7879   23.7370 N   0  0  0  0  0  0  0  0  0  0  0  0
    8.9815  -17.1482   25.6470 C   0  0  0  0  0  0  0  0  0  0  0  0
    8.9306  -18.1196   24.8555 O   0  0  0  0  0  0  0  0  0  0  0  0
    9.0298  -17.3582   26.9992 O   0  0  0  0  0  0  0  0  0  0  0  0
  1  2  1  0
  2  4  1  0
  2  3  2  0
  4  5  1  0
  5  6  1  0
  6  7  1  6
  8  9  2  0
  8  6  1  0
 11 10  1  1
 11 12  1  0
 14 13  1  1
 13 11  1  0
 14 15  1  0
 15  8  1  0
 16 14  1  0
 17 16  2  0
 19 18  1  0
 20 19  1  0
 21 20  1  0
 22 21  1  6
 22 24  1  0
 22 23  1  0
 23 16  1  0
 24 26  1  0
 25 24  2  0
M  END
$$$$
