QLM.pdb
     RDKit          3D

 26 25  0  0  1  0  0  0  0  0999 V2000
   12.1169  -19.9563   17.0601 N   0  0  0  0  0  0  0  0  0  0  0  0
   10.7418  -19.6794   16.8815 C   0  0  0  0  0  0  0  0  0  0  0  0
   10.1446  -20.1135   15.8848 O   0  0  0  0  0  0  0  0  0  0  0  0
   10.0314  -18.8732   17.8889 C   0  0  0  0  0  0  0  0  0  0  0  0
   10.9997  -18.4767   18.9612 C   0  0  0  0  0  0  0  0  0  0  0  0
   10.3382  -18.3509   20.3251 C   0  0  2  0  0  0  0  0  0  0  0  0
    8.9786  -18.7874   20.3152 N   0  0  0  0  0  0  0  0  0  0  0  0
   10.4128  -16.9213   20.7324 C   0  0  0  0  0  0  0  0  0  0  0  0
   11.5336  -16.3271   20.7981 O   0  0  0  0  0  0  0  0  0  0  0  0
    8.9147  -12.6011   19.4159 C   0  0  0  0  0  0  0  0  0  0  0  0
    7.8895  -13.7146   19.6857 C   0  0  2  0  0  0  0  0  0  0  0  0
    6.5507  -13.1528   19.3461 C   0  0  0  0  0  0  0  0  0  0  0  0
    8.0553  -14.1080   21.1096 C   0  0  0  0  0  0  0  0  0  0  0  0
    9.3492  -14.7469   21.4681 C   0  0  2  0  0  0  0  0  0  0  0  0
    9.2742  -16.1521   21.0636 N   0  0  0  0  0  0  0  0  0  0  0  0
    9.7341  -14.6184   22.8863 C   0  0  0  0  0  0  0  0  0  0  0  0
   10.3868  -13.6284   23.3009 O   0  0  0  0  0  0  0  0  0  0  0  0
    6.7206  -11.9931   28.1242 C   0  0  0  0  0  0  0  0  0  0  0  0
    7.3713  -12.5836   26.5267 S   0  0  0  0  0  0  0  0  0  0  0  0
    6.7706  -14.2586   26.2547 C   0  0  0  0  0  0  0  0  0  0  0  0
    7.3352  -14.8123   24.9512 C   0  0  0  0  0  0  0  0  0  0  0  0
    8.7614  -15.2631   25.1258 C   0  0  2  0  0  0  0  0  0  0  0  0
    9.3950  -15.5994   23.8746 N   0  0  0  0  0  0  0  0  0  0  0  0
    8.7452  -16.4775   25.9740 C   0  0  0  0  0  0  0  0  0  0  0  0
    8.7182  -17.6223   25.4626 O   0  0  0  0  0  0  0  0  0  0  0  0
    8.7603  -16.3269   27.3348 O   0  0  0  0  0  0  0  0  0  0  0  0
  1  2  1  0
  2  4  1  0
  2  3  2  0
  4  5  1  0
  5  6  1  0
  6  7  1  6
  8  9  2  0
  8  6  1  0
 11 10  1  1
 11 12  1  0
 14 13  1  1
 13 11  1  0
 14 15  1  0
 15  8  1  0
 16 14  1  0
 17 16  2  0
 19 18  1  0
 20 19  1  0
 21 20  1  0
 22 21  1  6
 22 24  1  0
 22 23  1  0
 23 16  1  0
 24 26  1  0
 25 24  2  0
M  END
$$$$
