QLM.pdb
     RDKit          3D

 26 25  0  0  1  0  0  0  0  0999 V2000
   14.1609  -18.1907   16.8730 N   0  0  0  0  0  0  0  0  0  0  0  0
   12.9339  -17.7680   16.3115 C   0  0  0  0  0  0  0  0  0  0  0  0
   12.9135  -17.2359   15.1912 O   0  0  0  0  0  0  0  0  0  0  0  0
   11.6869  -17.9664   17.0699 C   0  0  0  0  0  0  0  0  0  0  0  0
   11.7001  -17.0646   18.2662 C   0  0  0  0  0  0  0  0  0  0  0  0
   10.7680  -17.5457   19.3678 C   0  0  2  0  0  0  0  0  0  0  0  0
    9.5205  -18.0194   18.8596 N   0  0  0  0  0  0  0  0  0  0  0  0
   10.5413  -16.4053   20.2969 C   0  0  0  0  0  0  0  0  0  0  0  0
   11.5167  -15.8670   20.9071 O   0  0  0  0  0  0  0  0  0  0  0  0
    9.1020  -12.4115   19.7026 C   0  0  0  0  0  0  0  0  0  0  0  0
    7.9679  -13.4493   19.6793 C   0  0  2  0  0  0  0  0  0  0  0  0
    6.7480  -12.7370   19.2022 C   0  0  0  0  0  0  0  0  0  0  0  0
    7.8676  -13.9990   21.0569 C   0  0  0  0  0  0  0  0  0  0  0  0
    9.0291  -14.7965   21.5320 C   0  0  2  0  0  0  0  0  0  0  0  0
    9.2625  -15.8612   20.5544 N   0  0  0  0  0  0  0  0  0  0  0  0
    8.8922  -15.3427   22.8954 C   0  0  0  0  0  0  0  0  0  0  0  0
    8.4785  -16.5120   23.0942 O   0  0  0  0  0  0  0  0  0  0  0  0
    6.5802  -11.3773   27.6650 C   0  0  0  0  0  0  0  0  0  0  0  0
    7.2435  -12.3951   26.3055 S   0  0  0  0  0  0  0  0  0  0  0  0
    6.6388  -14.0782   26.5109 C   0  0  0  0  0  0  0  0  0  0  0  0
    7.1983  -14.9736   25.4110 C   0  0  0  0  0  0  0  0  0  0  0  0
    8.7027  -14.9158   25.3771 C   0  0  2  0  0  0  0  0  0  0  0  0
    9.2168  -14.5883   24.0700 N   0  0  0  0  0  0  0  0  0  0  0  0
    9.2095  -16.2576   25.7475 C   0  0  0  0  0  0  0  0  0  0  0  0
    9.5816  -17.0726   24.8699 O   0  0  0  0  0  0  0  0  0  0  0  0
    9.2647  -16.5944   27.0736 O   0  0  0  0  0  0  0  0  0  0  0  0
  1  2  1  0
  2  4  1  0
  2  3  2  0
  4  5  1  0
  5  6  1  0
  6  7  1  6
  8  9  2  0
  8  6  1  0
 11 10  1  1
 11 12  1  0
 14 13  1  6
 13 11  1  0
 14 15  1  0
 15  8  1  0
 16 14  1  0
 17 16  2  0
 19 18  1  0
 20 19  1  0
 21 20  1  0
 22 21  1  6
 22 24  1  0
 22 23  1  0
 23 16  1  0
 24 26  1  0
 25 24  2  0
M  END
$$$$
