QLM.pdb
     RDKit          3D

 26 25  0  0  1  0  0  0  0  0999 V2000
   10.6337  -16.5569   16.7679 N   0  0  0  0  0  0  0  0  0  0  0  0
    9.2231  -16.5808   16.8634 C   0  0  0  0  0  0  0  0  0  0  0  0
    8.5315  -16.6463   15.8359 O   0  0  0  0  0  0  0  0  0  0  0  0
    8.5889  -16.5272   18.1917 C   0  0  0  0  0  0  0  0  0  0  0  0
    9.6592  -16.4153   19.2342 C   0  0  0  0  0  0  0  0  0  0  0  0
    9.3938  -17.3058   20.4385 C   0  0  2  0  0  0  0  0  0  0  0  0
    8.0731  -17.8488   20.4359 N   0  0  0  0  0  0  0  0  0  0  0  0
    9.6065  -16.4852   21.6618 C   0  0  0  0  0  0  0  0  0  0  0  0
   10.6985  -15.8606   21.8375 O   0  0  0  0  0  0  0  0  0  0  0  0
    6.2406  -13.9607   26.0749 C   0  0  0  0  0  0  0  0  0  0  0  0
    7.6613  -14.1038   25.5049 C   0  0  2  0  0  0  0  0  0  0  0  0
    8.0631  -12.7531   25.0175 C   0  0  0  0  0  0  0  0  0  0  0  0
    7.5921  -15.1496   24.4507 C   0  0  0  0  0  0  0  0  0  0  0  0
    8.8940  -15.6590   23.9444 C   0  0  2  0  0  0  0  0  0  0  0  0
    8.6354  -16.3504   22.6799 N   0  0  0  0  0  0  0  0  0  0  0  0
    9.6319  -16.5229   24.8852 C   0  0  0  0  0  0  0  0  0  0  0  0
   10.0177  -17.6718   24.5549 O   0  0  0  0  0  0  0  0  0  0  0  0
   10.1108  -12.1456   28.6635 C   0  0  0  0  0  0  0  0  0  0  0  0
   10.1249  -13.8365   29.3452 S   0  0  0  0  0  0  0  0  0  0  0  0
   11.2781  -14.8265   28.3805 C   0  0  0  0  0  0  0  0  0  0  0  0
   10.9077  -16.3025   28.4750 C   0  0  0  0  0  0  0  0  0  0  0  0
   10.7668  -16.9153   27.1067 C   0  0  2  0  0  0  0  0  0  0  0  0
    9.9548  -16.1172   26.2214 N   0  0  0  0  0  0  0  0  0  0  0  0
   10.1084  -18.2319   27.2728 C   0  0  0  0  0  0  0  0  0  0  0  0
    8.9686  -18.4487   26.7967 O   0  0  0  0  0  0  0  0  0  0  0  0
   10.7706  -19.2140   27.9596 O   0  0  0  0  0  0  0  0  0  0  0  0
  1  2  1  0
  2  4  1  0
  2  3  2  0
  4  5  1  0
  5  6  1  0
  6  7  1  6
  8  9  2  0
  8  6  1  0
 11 10  1  6
 11 12  1  0
 14 13  1  1
 13 11  1  0
 14 15  1  0
 15  8  1  0
 16 14  1  0
 17 16  2  0
 19 18  1  0
 20 19  1  0
 21 20  1  0
 22 21  1  1
 22 24  1  0
 22 23  1  0
 23 16  1  0
 24 26  1  0
 25 24  2  0
M  END
$$$$
