QLM.pdb
     RDKit          3D

 26 25  0  0  1  0  0  0  0  0999 V2000
    9.5350  -17.4018   17.2242 N   0  0  0  0  0  0  0  0  0  0  0  0
    8.3172  -18.0923   17.4237 C   0  0  0  0  0  0  0  0  0  0  0  0
    7.9035  -18.8844   16.5635 O   0  0  0  0  0  0  0  0  0  0  0  0
    7.5503  -17.8600   18.6596 C   0  0  0  0  0  0  0  0  0  0  0  0
    8.3197  -16.9200   19.5365 C   0  0  0  0  0  0  0  0  0  0  0  0
    8.4872  -17.4503   20.9523 C   0  0  2  0  0  0  0  0  0  0  0  0
    7.3036  -18.0805   21.4431 N   0  0  0  0  0  0  0  0  0  0  0  0
    8.8532  -16.3008   21.8241 C   0  0  0  0  0  0  0  0  0  0  0  0
    9.8585  -15.5756   21.5468 O   0  0  0  0  0  0  0  0  0  0  0  0
    6.0549  -13.3312   26.4036 C   0  0  0  0  0  0  0  0  0  0  0  0
    7.3614  -13.3582   25.5938 C   0  0  2  0  0  0  0  0  0  0  0  0
    7.5276  -11.9974   25.0072 C   0  0  0  0  0  0  0  0  0  0  0  0
    7.2199  -14.4516   24.5966 C   0  0  0  0  0  0  0  0  0  0  0  0
    8.4276  -14.7624   23.7869 C   0  0  2  0  0  0  0  0  0  0  0  0
    8.1273  -15.9501   22.9850 N   0  0  0  0  0  0  0  0  0  0  0  0
    9.6682  -14.9417   24.5645 C   0  0  0  0  0  0  0  0  0  0  0  0
   10.2998  -13.9589   25.0262 O   0  0  0  0  0  0  0  0  0  0  0  0
   10.6713  -13.3606   28.9737 C   0  0  0  0  0  0  0  0  0  0  0  0
   11.6658  -14.8439   29.3408 S   0  0  0  0  0  0  0  0  0  0  0  0
   10.8626  -16.2660   28.5837 C   0  0  0  0  0  0  0  0  0  0  0  0
   10.2077  -15.8590   27.2684 C   0  0  0  0  0  0  0  0  0  0  0  0
   10.8554  -16.5560   26.1013 C   0  0  2  0  0  0  0  0  0  0  0  0
   10.2302  -16.2304   24.8430 N   0  0  0  0  0  0  0  0  0  0  0  0
   10.7170  -18.0146   26.3196 C   0  0  0  0  0  0  0  0  0  0  0  0
    9.8331  -18.6759   25.7244 O   0  0  0  0  0  0  0  0  0  0  0  0
   11.5768  -18.6320   27.1882 O   0  0  0  0  0  0  0  0  0  0  0  0
  1  2  1  0
  2  4  1  0
  2  3  2  0
  4  5  1  0
  5  6  1  0
  6  7  1  1
  8  9  2  0
  8  6  1  0
 11 10  1  1
 11 12  1  0
 14 13  1  1
 13 11  1  0
 14 15  1  0
 15  8  1  0
 16 14  1  0
 17 16  2  0
 19 18  1  0
 20 19  1  0
 21 20  1  0
 22 21  1  1
 22 24  1  0
 22 23  1  0
 23 16  1  0
 24 26  1  0
 25 24  2  0
M  END
$$$$
