QLM.pdb
     RDKit          3D

 26 25  0  0  1  0  0  0  0  0999 V2000
    9.2571  -14.2322   16.8734 N   0  0  0  0  0  0  0  0  0  0  0  0
    7.9475  -14.3757   17.3870 C   0  0  0  0  0  0  0  0  0  0  0  0
    6.9946  -13.8137   16.8260 O   0  0  0  0  0  0  0  0  0  0  0  0
    7.7304  -15.1967   18.5904 C   0  0  0  0  0  0  0  0  0  0  0  0
    9.0410  -15.7830   19.0185 C   0  0  0  0  0  0  0  0  0  0  0  0
    8.9114  -16.6545   20.2584 C   0  0  2  0  0  0  0  0  0  0  0  0
    7.6299  -17.2766   20.3573 N   0  0  0  0  0  0  0  0  0  0  0  0
    9.1523  -15.7892   21.4451 C   0  0  0  0  0  0  0  0  0  0  0  0
   10.2649  -15.1949   21.5946 O   0  0  0  0  0  0  0  0  0  0  0  0
    5.7503  -13.8235   26.1861 C   0  0  0  0  0  0  0  0  0  0  0  0
    7.1045  -13.6333   25.4835 C   0  0  2  0  0  0  0  0  0  0  0  0
    7.1925  -12.1923   25.1103 C   0  0  0  0  0  0  0  0  0  0  0  0
    7.1217  -14.5751   24.3334 C   0  0  0  0  0  0  0  0  0  0  0  0
    8.4112  -14.6964   23.6031 C   0  0  2  0  0  0  0  0  0  0  0  0
    8.1868  -15.5774   22.4554 N   0  0  0  0  0  0  0  0  0  0  0  0
    9.5473  -15.1620   24.4207 C   0  0  0  0  0  0  0  0  0  0  0  0
   10.5644  -14.4463   24.5969 O   0  0  0  0  0  0  0  0  0  0  0  0
   10.3997  -13.4768   29.1169 C   0  0  0  0  0  0  0  0  0  0  0  0
   10.7077  -15.0901   29.9085 S   0  0  0  0  0  0  0  0  0  0  0  0
   10.8905  -16.3296   28.6158 C   0  0  0  0  0  0  0  0  0  0  0  0
    9.9816  -15.9961   27.4381 C   0  0  0  0  0  0  0  0  0  0  0  0
   10.4067  -16.7369   26.1979 C   0  0  2  0  0  0  0  0  0  0  0  0
    9.5688  -16.4440   25.0611 N   0  0  0  0  0  0  0  0  0  0  0  0
   10.3013  -18.1863   26.4854 C   0  0  0  0  0  0  0  0  0  0  0  0
   11.0752  -18.7408   27.3018 O   0  0  0  0  0  0  0  0  0  0  0  0
    9.3379  -18.9143   25.8401 O   0  0  0  0  0  0  0  0  0  0  0  0
  1  2  1  0
  2  4  1  0
  2  3  2  0
  4  5  1  0
  5  6  1  0
  6  7  1  1
  8  9  2  0
  8  6  1  0
 11 10  1  6
 11 12  1  0
 14 13  1  1
 13 11  1  0
 14 15  1  0
 15  8  1  0
 16 14  1  0
 17 16  2  0
 19 18  1  0
 20 19  1  0
 21 20  1  0
 22 21  1  1
 22 24  1  0
 22 23  1  0
 23 16  1  0
 24 26  1  0
 25 24  2  0
M  END
$$$$
