QLM.pdb
     RDKit          3D

 26 25  0  0  1  0  0  0  0  0999 V2000
   11.9793  -19.8061   20.0691 N   0  0  0  0  0  0  0  0  0  0  0  0
   11.6428  -19.4285   18.7487 C   0  0  0  0  0  0  0  0  0  0  0  0
   12.3412  -19.8080   17.7965 O   0  0  0  0  0  0  0  0  0  0  0  0
   10.4585  -18.5832   18.5196 C   0  0  0  0  0  0  0  0  0  0  0  0
    9.8191  -18.2791   19.8399 C   0  0  0  0  0  0  0  0  0  0  0  0
    8.7792  -19.3164   20.2355 C   0  0  2  0  0  0  0  0  0  0  0  0
    7.6589  -19.3319   19.3503 N   0  0  0  0  0  0  0  0  0  0  0  0
    8.3323  -19.0017   21.6199 C   0  0  0  0  0  0  0  0  0  0  0  0
    7.5321  -18.0392   21.8361 O   0  0  0  0  0  0  0  0  0  0  0  0
    7.6954  -22.0600   26.7056 C   0  0  0  0  0  0  0  0  0  0  0  0
    7.4393  -20.6506   26.1476 C   0  0  2  0  0  0  0  0  0  0  0  0
    6.0105  -20.3326   26.4319 C   0  0  0  0  0  0  0  0  0  0  0  0
    7.7904  -20.6957   24.7038 C   0  0  0  0  0  0  0  0  0  0  0  0
    8.3038  -19.4316   24.1129 C   0  0  2  0  0  0  0  0  0  0  0  0
    8.7563  -19.7322   22.7532 N   0  0  0  0  0  0  0  0  0  0  0  0
    9.3630  -18.7654   24.8941 C   0  0  0  0  0  0  0  0  0  0  0  0
   10.5503  -19.1750   24.8707 O   0  0  0  0  0  0  0  0  0  0  0  0
   10.4316  -12.4379   28.5638 C   0  0  0  0  0  0  0  0  0  0  0  0
   10.0184  -14.0315   29.3471 S   0  0  0  0  0  0  0  0  0  0  0  0
   10.6852  -15.3549   28.3249 C   0  0  0  0  0  0  0  0  0  0  0  0
    9.5975  -15.9105   27.4124 C   0  0  0  0  0  0  0  0  0  0  0  0
   10.1386  -16.9990   26.5236 C   0  0  2  0  0  0  0  0  0  0  0  0
    9.1145  -17.6219   25.7215 N   0  0  0  0  0  0  0  0  0  0  0  0
   10.7314  -18.0367   27.3991 C   0  0  0  0  0  0  0  0  0  0  0  0
   10.0062  -18.8547   28.0137 O   0  0  0  0  0  0  0  0  0  0  0  0
   12.0938  -18.0871   27.5261 O   0  0  0  0  0  0  0  0  0  0  0  0
  1  2  1  0
  2  4  1  0
  2  3  2  0
  4  5  1  0
  5  6  1  0
  6  7  1  6
  8  9  2  0
  8  6  1  0
 11 10  1  6
 11 12  1  0
 14 13  1  1
 13 11  1  0
 14 15  1  0
 15  8  1  0
 16 14  1  0
 17 16  2  0
 19 18  1  0
 20 19  1  0
 21 20  1  0
 22 21  1  1
 22 24  1  0
 22 23  1  0
 23 16  1  0
 24 26  1  0
 25 24  2  0
M  END
$$$$
