QLM.pdb
     RDKit          3D

 26 25  0  0  1  0  0  0  0  0999 V2000
    8.6279  -19.2418   16.7479 N   0  0  0  0  0  0  0  0  0  0  0  0
    8.3935  -18.0448   17.4632 C   0  0  0  0  0  0  0  0  0  0  0  0
    8.4993  -16.9487   16.8925 O   0  0  0  0  0  0  0  0  0  0  0  0
    8.0240  -18.1159   18.8873 C   0  0  0  0  0  0  0  0  0  0  0  0
    9.2034  -17.7028   19.7138 C   0  0  0  0  0  0  0  0  0  0  0  0
    9.0121  -18.0047   21.1923 C   0  0  2  0  0  0  0  0  0  0  0  0
    7.7097  -18.5134   21.4820 N   0  0  0  0  0  0  0  0  0  0  0  0
    9.2465  -16.7420   21.9446 C   0  0  0  0  0  0  0  0  0  0  0  0
   10.3360  -16.1033   21.8089 O   0  0  0  0  0  0  0  0  0  0  0  0
    6.1556  -13.6569   26.2883 C   0  0  0  0  0  0  0  0  0  0  0  0
    7.4592  -13.6467   25.4734 C   0  0  2  0  0  0  0  0  0  0  0  0
    7.5088  -12.3357   24.7649 C   0  0  0  0  0  0  0  0  0  0  0  0
    7.4106  -14.8342   24.5804 C   0  0  0  0  0  0  0  0  0  0  0  0
    8.5953  -15.0488   23.7079 C   0  0  2  0  0  0  0  0  0  0  0  0
    8.2994  -16.1859   22.8342 N   0  0  0  0  0  0  0  0  0  0  0  0
    9.8691  -15.2432   24.4259 C   0  0  0  0  0  0  0  0  0  0  0  0
   10.7485  -14.3467   24.4545 O   0  0  0  0  0  0  0  0  0  0  0  0
   12.0496  -13.9151   29.5678 C   0  0  0  0  0  0  0  0  0  0  0  0
   10.2637  -14.0000   29.2107 S   0  0  0  0  0  0  0  0  0  0  0  0
    9.8427  -15.7085   28.8307 C   0  0  0  0  0  0  0  0  0  0  0  0
    9.4104  -15.8297   27.3736 C   0  0  0  0  0  0  0  0  0  0  0  0
   10.4847  -16.4779   26.5410 C   0  0  2  0  0  0  0  0  0  0  0  0
   10.1867  -16.4504   25.1301 N   0  0  0  0  0  0  0  0  0  0  0  0
   10.5825  -17.8946   26.9627 C   0  0  0  0  0  0  0  0  0  0  0  0
   11.0408  -18.2034   28.0885 O   0  0  0  0  0  0  0  0  0  0  0  0
   10.1608  -18.8672   26.0960 O   0  0  0  0  0  0  0  0  0  0  0  0
  1  2  1  0
  2  4  1  0
  2  3  2  0
  4  5  1  0
  5  6  1  0
  6  7  1  6
  8  9  2  0
  8  6  1  0
 11 10  1  1
 11 12  1  0
 14 13  1  1
 13 11  1  0
 14 15  1  0
 15  8  1  0
 16 14  1  0
 17 16  2  0
 19 18  1  0
 20 19  1  0
 21 20  1  0
 22 21  1  1
 22 24  1  0
 22 23  1  0
 23 16  1  0
 24 26  1  0
 25 24  2  0
M  END
$$$$
