QLM.pdb
     RDKit          3D

 26 25  0  0  1  0  0  0  0  0999 V2000
   10.9121  -20.5481   21.5341 N   0  0  0  0  0  0  0  0  0  0  0  0
   10.6731  -19.8517   20.3269 C   0  0  0  0  0  0  0  0  0  0  0  0
   11.4965  -19.9117   19.4012 O   0  0  0  0  0  0  0  0  0  0  0  0
    9.4405  -19.0584   20.1835 C   0  0  0  0  0  0  0  0  0  0  0  0
    8.6681  -19.1293   21.4653 C   0  0  0  0  0  0  0  0  0  0  0  0
    7.7563  -17.9278   21.6624 C   0  0  2  0  0  0  0  0  0  0  0  0
    7.1751  -17.4764   20.4387 N   0  0  0  0  0  0  0  0  0  0  0  0
    8.5686  -16.8408   22.2739 C   0  0  0  0  0  0  0  0  0  0  0  0
    9.6045  -16.4008   21.6851 O   0  0  0  0  0  0  0  0  0  0  0  0
    7.0451  -12.6535   23.6191 C   0  0  0  0  0  0  0  0  0  0  0  0
    6.8062  -13.9733   24.3706 C   0  0  2  0  0  0  0  0  0  0  0  0
    5.7213  -13.7106   25.3592 C   0  0  0  0  0  0  0  0  0  0  0  0
    8.1102  -14.3634   24.9681 C   0  0  0  0  0  0  0  0  0  0  0  0
    9.0253  -15.1449   24.0949 C   0  0  2  0  0  0  0  0  0  0  0  0
    8.2501  -16.2432   23.5145 N   0  0  0  0  0  0  0  0  0  0  0  0
   10.2441  -15.6435   24.7597 C   0  0  0  0  0  0  0  0  0  0  0  0
   11.3271  -15.0096   24.7032 O   0  0  0  0  0  0  0  0  0  0  0  0
   10.5896  -13.3501   29.1570 C   0  0  0  0  0  0  0  0  0  0  0  0
   11.2594  -14.7409   30.1271 S   0  0  0  0  0  0  0  0  0  0  0  0
   11.4979  -16.1405   29.0204 C   0  0  0  0  0  0  0  0  0  0  0  0
   10.8018  -15.8802   27.6892 C   0  0  0  0  0  0  0  0  0  0  0  0
   11.0243  -17.0185   26.7288 C   0  0  2  0  0  0  0  0  0  0  0  0
   10.2764  -16.8673   25.5049 N   0  0  0  0  0  0  0  0  0  0  0  0
   10.5688  -18.2606   27.3954 C   0  0  0  0  0  0  0  0  0  0  0  0
    9.4882  -18.8085   27.0717 O   0  0  0  0  0  0  0  0  0  0  0  0
   11.3536  -18.8032   28.3775 O   0  0  0  0  0  0  0  0  0  0  0  0
  1  2  1  0
  2  4  1  0
  2  3  2  0
  4  5  1  0
  5  6  1  0
  6  7  1  6
  8  9  2  0
  8  6  1  0
 11 10  1  1
 11 12  1  0
 14 13  1  1
 13 11  1  0
 14 15  1  0
 15  8  1  0
 16 14  1  0
 17 16  2  0
 19 18  1  0
 20 19  1  0
 21 20  1  0
 22 21  1  1
 22 24  1  0
 22 23  1  0
 23 16  1  0
 24 26  1  0
 25 24  2  0
M  END
$$$$
