QPY.pdb
     RDKit          3D

 29 30  0  0  1  0  0  0  0  0999 V2000
    6.5209  -20.4280   20.8018 N   0  0  0  0  0  0  0  0  0  0  0  0
    7.1097  -20.6558   19.5482 C   0  0  0  0  0  0  0  0  0  0  0  0
    7.2127  -21.8253   19.1213 O   0  0  0  0  0  0  0  0  0  0  0  0
    7.6065  -19.5240   18.7337 C   0  0  0  0  0  0  0  0  0  0  0  0
    7.3661  -18.2421   19.4734 C   0  0  0  0  0  0  0  0  0  0  0  0
    8.0078  -17.0196   18.8438 C   0  0  2  0  0  0  0  0  0  0  0  0
    8.9330  -17.6099   17.8412 N   0  0  0  0  0  0  0  0  0  0  0  0
    8.7942  -16.2447   19.8233 C   0  0  0  0  0  0  0  0  0  0  0  0
    9.6992  -16.9189   20.4273 O   0  0  0  0  0  0  0  0  0  0  0  0
    8.5853  -14.8584   20.0927 N   0  0  0  0  0  0  0  0  0  0  0  0
    8.1730  -13.9461   19.0489 C   0  0  0  0  0  0  0  0  0  0  0  0
    7.1193  -13.1266   19.7641 C   0  0  0  0  0  0  0  0  0  0  0  0
    7.8147  -12.9079   21.0989 C   0  0  0  0  0  0  0  0  0  0  0  0
    8.7737  -14.0926   21.2567 C   0  0  1  0  0  0  0  0  0  0  0  0
    8.5534  -14.7509   22.5545 C   0  0  0  0  0  0  0  0  0  0  0  0
    7.4398  -14.7602   23.1008 O   0  0  0  0  0  0  0  0  0  0  0  0
    5.3851  -11.3663   26.9453 O   0  0  0  0  0  0  0  0  0  0  0  0
    6.1580  -12.4472   26.5345 C   0  0  0  0  0  0  0  0  0  0  0  0
    5.5389  -13.5960   26.1503 C   0  0  0  0  0  0  0  0  0  0  0  0
    6.3193  -14.6711   25.7413 C   0  0  0  0  0  0  0  0  0  0  0  0
    7.6902  -14.5989   25.7172 C   0  0  0  0  0  0  0  0  0  0  0  0
    8.5155  -15.7261   25.2945 C   0  0  0  0  0  0  0  0  0  0  0  0
    9.8141  -15.3604   24.6526 C   0  0  2  0  0  0  0  0  0  0  0  0
    9.6288  -15.3967   23.2135 N   0  0  0  0  0  0  0  0  0  0  0  0
   10.8510  -16.3713   24.9709 C   0  0  0  0  0  0  0  0  0  0  0  0
   11.3627  -16.5488   26.2710 O   0  0  0  0  0  0  0  0  0  0  0  0
    8.2747  -13.4200   26.1132 C   0  0  0  0  0  0  0  0  0  0  0  0
    7.5230  -12.3409   26.5225 C   0  0  0  0  0  0  0  0  0  0  0  0
   11.3336  -17.1285   24.0995 O   0  0  0  0  0  0  0  0  0  0  0  0
  2  1  1  0
  2  3  2  0
  4  2  1  0
  5  4  1  0
  5  6  1  0
  6  8  1  0
  6  7  1  6
  8  9  2  0
 10 14  1  0
 10  8  1  0
 11 10  1  0
 12 13  1  0
 12 11  1  0
 13 14  1  0
 14 15  1  1
 15 16  2  0
 17 18  1  0
 18 19  2  0
 19 20  1  0
 21 22  1  0
 21 20  2  0
 23 22  1  1
 23 25  1  0
 24 23  1  0
 24 15  1  0
 25 29  2  0
 25 26  1  0
 27 21  1  0
 28 27  2  0
 28 18  1  0
M  END
$$$$
