QPY.pdb
     RDKit          3D

 29 30  0  0  1  0  0  0  0  0999 V2000
   13.6376  -16.6242   15.4287 N   0  0  0  0  0  0  0  0  0  0  0  0
   12.7093  -17.6571   15.2249 C   0  0  0  0  0  0  0  0  0  0  0  0
   13.0666  -18.6952   14.6289 O   0  0  0  0  0  0  0  0  0  0  0  0
   11.3171  -17.5237   15.7095 C   0  0  0  0  0  0  0  0  0  0  0  0
   11.3286  -16.9094   17.0774 C   0  0  0  0  0  0  0  0  0  0  0  0
    9.9597  -16.7639   17.7159 C   0  0  2  0  0  0  0  0  0  0  0  0
    9.2180  -15.9391   16.7262 N   0  0  0  0  0  0  0  0  0  0  0  0
   10.0245  -16.0326   18.9962 C   0  0  0  0  0  0  0  0  0  0  0  0
   11.0923  -16.2405   19.6708 O   0  0  0  0  0  0  0  0  0  0  0  0
    8.9979  -15.1590   19.4660 N   0  0  0  0  0  0  0  0  0  0  0  0
    8.1972  -14.3809   18.5465 C   0  0  0  0  0  0  0  0  0  0  0  0
    6.8121  -14.5520   19.1341 C   0  0  0  0  0  0  0  0  0  0  0  0
    7.1285  -14.3824   20.6120 C   0  0  0  0  0  0  0  0  0  0  0  0
    8.5941  -14.8027   20.7649 C   0  0  1  0  0  0  0  0  0  0  0  0
    8.7208  -15.8158   21.8251 C   0  0  0  0  0  0  0  0  0  0  0  0
    8.0901  -16.8832   21.7863 O   0  0  0  0  0  0  0  0  0  0  0  0
    6.0714  -11.0121   28.1408 O   0  0  0  0  0  0  0  0  0  0  0  0
    6.6100  -11.7008   27.0591 C   0  0  0  0  0  0  0  0  0  0  0  0
    5.8971  -11.7800   25.9032 C   0  0  0  0  0  0  0  0  0  0  0  0
    6.4430  -12.4702   24.8272 C   0  0  0  0  0  0  0  0  0  0  0  0
    7.6762  -13.0689   24.9057 C   0  0  0  0  0  0  0  0  0  0  0  0
    8.2525  -13.8002   23.7817 C   0  0  0  0  0  0  0  0  0  0  0  0
    9.1443  -14.9401   24.1523 C   0  0  2  0  0  0  0  0  0  0  0  0
    9.5806  -15.5848   22.9274 N   0  0  0  0  0  0  0  0  0  0  0  0
    8.3889  -15.9590   24.9203 C   0  0  0  0  0  0  0  0  0  0  0  0
    7.3245  -16.6933   24.3624 O   0  0  0  0  0  0  0  0  0  0  0  0
    8.3624  -12.9646   26.0916 C   0  0  0  0  0  0  0  0  0  0  0  0
    7.8426  -12.2860   27.1716 C   0  0  0  0  0  0  0  0  0  0  0  0
    8.6544  -16.2267   26.1134 O   0  0  0  0  0  0  0  0  0  0  0  0
  2  1  1  0
  2  3  2  0
  4  2  1  0
  5  4  1  0
  5  6  1  0
  6  8  1  0
  6  7  1  6
  8  9  2  0
 10 14  1  0
 10  8  1  0
 11 10  1  0
 12 13  1  0
 12 11  1  0
 13 14  1  0
 14 15  1  1
 15 16  2  0
 17 18  1  0
 18 19  2  0
 19 20  1  0
 21 22  1  0
 21 20  2  0
 23 22  1  6
 23 25  1  0
 24 23  1  0
 24 15  1  0
 25 29  2  0
 25 26  1  0
 27 21  1  0
 28 27  2  0
 28 18  1  0
M  END
$$$$
