QPY.pdb
     RDKit          3D

 29 30  0  0  1  0  0  0  0  0999 V2000
    9.6354  -17.9267   17.9434 N   0  0  0  0  0  0  0  0  0  0  0  0
   10.7208  -18.1775   18.7974 C   0  0  0  0  0  0  0  0  0  0  0  0
   11.1858  -19.3342   18.8761 O   0  0  0  0  0  0  0  0  0  0  0  0
   11.3140  -17.0849   19.6007 C   0  0  0  0  0  0  0  0  0  0  0  0
   11.5908  -15.9120   18.7084 C   0  0  0  0  0  0  0  0  0  0  0  0
   11.5721  -14.5665   19.4098 C   0  0  2  0  0  0  0  0  0  0  0  0
   12.9958  -14.3709   19.7901 N   0  0  0  0  0  0  0  0  0  0  0  0
   10.7488  -14.5955   20.6343 C   0  0  0  0  0  0  0  0  0  0  0  0
   11.3061  -15.1705   21.6330 O   0  0  0  0  0  0  0  0  0  0  0  0
    9.4389  -14.0354   20.7255 N   0  0  0  0  0  0  0  0  0  0  0  0
    8.9618  -13.0823   19.7480 C   0  0  0  0  0  0  0  0  0  0  0  0
    7.5510  -13.5776   19.5080 C   0  0  0  0  0  0  0  0  0  0  0  0
    7.1280  -13.8756   20.9381 C   0  0  0  0  0  0  0  0  0  0  0  0
    8.4280  -14.1720   21.6932 C   0  0  1  0  0  0  0  0  0  0  0  0
    8.3207  -15.4605   22.3965 C   0  0  0  0  0  0  0  0  0  0  0  0
    8.7663  -16.5098   21.9077 O   0  0  0  0  0  0  0  0  0  0  0  0
   10.8569  -13.3749   28.8080 O   0  0  0  0  0  0  0  0  0  0  0  0
    9.9421  -14.1167   28.0682 C   0  0  0  0  0  0  0  0  0  0  0  0
    8.7934  -13.5218   27.6472 C   0  0  0  0  0  0  0  0  0  0  0  0
    7.8849  -14.2707   26.9083 C   0  0  0  0  0  0  0  0  0  0  0  0
    8.1201  -15.5872   26.5972 C   0  0  0  0  0  0  0  0  0  0  0  0
    7.1676  -16.3808   25.8269 C   0  0  0  0  0  0  0  0  0  0  0  0
    7.6099  -16.7455   24.4474 C   0  0  2  0  0  0  0  0  0  0  0  0
    7.6954  -15.5251   23.6665 N   0  0  0  0  0  0  0  0  0  0  0  0
    6.5932  -17.5993   23.7872 C   0  0  0  0  0  0  0  0  0  0  0  0
    6.4357  -18.9649   24.0935 O   0  0  0  0  0  0  0  0  0  0  0  0
    9.2927  -16.1488   27.0420 C   0  0  0  0  0  0  0  0  0  0  0  0
   10.2085  -15.4274   27.7755 C   0  0  0  0  0  0  0  0  0  0  0  0
    5.8129  -17.1543   22.9162 O   0  0  0  0  0  0  0  0  0  0  0  0
  2  1  1  0
  2  3  2  0
  4  2  1  0
  5  4  1  0
  5  6  1  0
  6  8  1  0
  6  7  1  1
  8  9  2  0
 10 14  1  0
 10  8  1  0
 11 10  1  0
 12 13  1  0
 12 11  1  0
 13 14  1  0
 14 15  1  6
 15 16  2  0
 17 18  1  0
 18 19  2  0
 19 20  1  0
 21 22  1  0
 21 20  2  0
 23 22  1  1
 23 25  1  0
 24 23  1  0
 24 15  1  0
 25 29  2  0
 25 26  1  0
 27 21  1  0
 28 27  2  0
 28 18  1  0
M  END
$$$$
