QPY.pdb
     RDKit          3D

 29 30  0  0  1  0  0  0  0  0999 V2000
   12.2301  -18.8142   17.0055 N   0  0  0  0  0  0  0  0  0  0  0  0
   11.7887  -19.2038   18.2796 C   0  0  0  0  0  0  0  0  0  0  0  0
   12.6246  -19.5597   19.1370 O   0  0  0  0  0  0  0  0  0  0  0  0
   10.3461  -19.1953   18.6111 C   0  0  0  0  0  0  0  0  0  0  0  0
    9.6583  -18.1459   17.7901 C   0  0  0  0  0  0  0  0  0  0  0  0
    8.6155  -17.3391   18.5413 C   0  0  2  0  0  0  0  0  0  0  0  0
    8.0638  -16.4473   17.4876 N   0  0  0  0  0  0  0  0  0  0  0  0
    9.2202  -16.5101   19.6021 C   0  0  0  0  0  0  0  0  0  0  0  0
   10.5002  -16.5186   19.6152 O   0  0  0  0  0  0  0  0  0  0  0  0
    8.4648  -15.7509   20.5460 N   0  0  0  0  0  0  0  0  0  0  0  0
    7.2153  -15.1241   20.1751 C   0  0  0  0  0  0  0  0  0  0  0  0
    6.3513  -15.4396   21.3781 C   0  0  0  0  0  0  0  0  0  0  0  0
    7.3434  -15.1616   22.4969 C   0  0  0  0  0  0  0  0  0  0  0  0
    8.7272  -15.3869   21.8785 C   0  0  1  0  0  0  0  0  0  0  0  0
    9.5033  -16.3245   22.7060 C   0  0  0  0  0  0  0  0  0  0  0  0
    9.0896  -17.4655   22.9618 O   0  0  0  0  0  0  0  0  0  0  0  0
   10.0212  -14.5386   30.8484 O   0  0  0  0  0  0  0  0  0  0  0  0
   10.0243  -14.6242   29.4603 C   0  0  0  0  0  0  0  0  0  0  0  0
   10.9547  -13.9250   28.7558 C   0  0  0  0  0  0  0  0  0  0  0  0
   10.9504  -14.0165   27.3688 C   0  0  0  0  0  0  0  0  0  0  0  0
   10.0347  -14.7909   26.7002 C   0  0  0  0  0  0  0  0  0  0  0  0
   10.0210  -14.8866   25.2439 C   0  0  0  0  0  0  0  0  0  0  0  0
   11.0227  -15.8269   24.6571 C   0  0  2  0  0  0  0  0  0  0  0  0
   10.7586  -15.9325   23.2338 N   0  0  0  0  0  0  0  0  0  0  0  0
   10.8478  -17.1869   25.2214 C   0  0  0  0  0  0  0  0  0  0  0  0
    9.7286  -17.9904   24.9296 O   0  0  0  0  0  0  0  0  0  0  0  0
    9.1127  -15.4806   27.4504 C   0  0  0  0  0  0  0  0  0  0  0  0
    9.0968  -15.4061   28.8256 C   0  0  0  0  0  0  0  0  0  0  0  0
   11.6878  -17.7017   25.9927 O   0  0  0  0  0  0  0  0  0  0  0  0
  2  1  1  0
  2  3  2  0
  4  2  1  0
  5  4  1  0
  5  6  1  0
  6  8  1  0
  6  7  1  6
  8  9  2  0
 10 14  1  0
 10  8  1  0
 11 10  1  0
 12 13  1  0
 12 11  1  0
 13 14  1  0
 14 15  1  1
 15 16  2  0
 17 18  1  0
 18 19  2  0
 19 20  1  0
 21 22  1  0
 21 20  2  0
 23 22  1  1
 23 25  1  0
 24 23  1  0
 24 15  1  0
 25 29  2  0
 25 26  1  0
 27 21  1  0
 28 27  2  0
 28 18  1  0
M  END
$$$$
