QPY.pdb
     RDKit          3D

 29 30  0  0  1  0  0  0  0  0999 V2000
   14.1346  -16.5395   19.2511 N   0  0  0  0  0  0  0  0  0  0  0  0
   14.0149  -15.1430   19.3243 C   0  0  0  0  0  0  0  0  0  0  0  0
   14.9850  -14.4633   19.7212 O   0  0  0  0  0  0  0  0  0  0  0  0
   12.7525  -14.4748   18.9360 C   0  0  0  0  0  0  0  0  0  0  0  0
   11.7816  -15.5053   18.4421 C   0  0  0  0  0  0  0  0  0  0  0  0
   10.3299  -15.0636   18.4566 C   0  0  2  0  0  0  0  0  0  0  0  0
   10.3352  -13.8774   17.5607 N   0  0  0  0  0  0  0  0  0  0  0  0
    9.8955  -14.6447   19.8035 C   0  0  0  0  0  0  0  0  0  0  0  0
   10.8333  -14.6070   20.6739 O   0  0  0  0  0  0  0  0  0  0  0  0
    8.5496  -14.3029   20.1346 N   0  0  0  0  0  0  0  0  0  0  0  0
    7.5860  -13.9730   19.1077 C   0  0  0  0  0  0  0  0  0  0  0  0
    6.3630  -14.7248   19.5898 C   0  0  0  0  0  0  0  0  0  0  0  0
    6.4248  -14.4063   21.0756 C   0  0  0  0  0  0  0  0  0  0  0  0
    7.9038  -14.1366   21.3724 C   0  0  1  0  0  0  0  0  0  0  0  0
    8.3530  -14.9712   22.4985 C   0  0  0  0  0  0  0  0  0  0  0  0
    8.6096  -16.1763   22.3558 O   0  0  0  0  0  0  0  0  0  0  0  0
   11.2570  -16.2525   30.8286 O   0  0  0  0  0  0  0  0  0  0  0  0
   10.8064  -15.7280   29.6219 C   0  0  0  0  0  0  0  0  0  0  0  0
   11.2559  -16.2670   28.4566 C   0  0  0  0  0  0  0  0  0  0  0  0
   10.8002  -15.7366   27.2552 C   0  0  0  0  0  0  0  0  0  0  0  0
    9.9136  -14.6887   27.2201 C   0  0  0  0  0  0  0  0  0  0  0  0
    9.4359  -14.1232   25.9622 C   0  0  0  0  0  0  0  0  0  0  0  0
    9.0746  -15.1212   24.9108 C   0  0  2  0  0  0  0  0  0  0  0  0
    8.5026  -14.4019   23.7875 N   0  0  0  0  0  0  0  0  0  0  0  0
    8.0197  -16.0369   25.4077 C   0  0  0  0  0  0  0  0  0  0  0  0
    6.6559  -15.8568   25.1058 O   0  0  0  0  0  0  0  0  0  0  0  0
    9.4850  -14.1743   28.4201 C   0  0  0  0  0  0  0  0  0  0  0  0
    9.9220  -14.6829   29.6232 C   0  0  0  0  0  0  0  0  0  0  0  0
    8.2808  -17.0269   26.1270 O   0  0  0  0  0  0  0  0  0  0  0  0
  2  1  1  0
  2  3  2  0
  4  2  1  0
  5  4  1  0
  5  6  1  0
  6  8  1  0
  6  7  1  6
  8  9  2  0
 10 14  1  0
 10  8  1  0
 11 10  1  0
 12 13  1  0
 12 11  1  0
 13 14  1  0
 14 15  1  1
 15 16  2  0
 17 18  1  0
 18 19  2  0
 19 20  1  0
 21 22  1  0
 21 20  2  0
 23 22  1  1
 23 25  1  0
 24 23  1  0
 24 15  1  0
 25 29  2  0
 25 26  1  0
 27 21  1  0
 28 27  2  0
 28 18  1  0
M  END
$$$$
