QPY.pdb
     RDKit          3D

 29 30  0  0  1  0  0  0  0  0999 V2000
    5.3093  -18.4154   21.8393 N   0  0  0  0  0  0  0  0  0  0  0  0
    6.1632  -19.4396   21.4011 C   0  0  0  0  0  0  0  0  0  0  0  0
    6.0428  -20.5869   21.8805 O   0  0  0  0  0  0  0  0  0  0  0  0
    7.1998  -19.1692   20.3797 C   0  0  0  0  0  0  0  0  0  0  0  0
    6.8234  -17.9388   19.6097 C   0  0  0  0  0  0  0  0  0  0  0  0
    7.9869  -17.2335   18.9379 C   0  0  2  0  0  0  0  0  0  0  0  0
    8.8140  -18.3622   18.4360 N   0  0  0  0  0  0  0  0  0  0  0  0
    8.7833  -16.4469   19.8998 C   0  0  0  0  0  0  0  0  0  0  0  0
    9.6113  -17.1369   20.5902 O   0  0  0  0  0  0  0  0  0  0  0  0
    8.6619  -15.0342   20.0653 N   0  0  0  0  0  0  0  0  0  0  0  0
    8.2657  -14.1822   18.9657 C   0  0  0  0  0  0  0  0  0  0  0  0
    7.2849  -13.2499   19.6454 C   0  0  0  0  0  0  0  0  0  0  0  0
    8.0370  -12.9702   20.9374 C   0  0  0  0  0  0  0  0  0  0  0  0
    8.9330  -14.1934   21.1591 C   0  0  1  0  0  0  0  0  0  0  0  0
    8.7210  -14.7359   22.5108 C   0  0  0  0  0  0  0  0  0  0  0  0
    7.6479  -14.5838   23.1141 O   0  0  0  0  0  0  0  0  0  0  0  0
    5.2237  -11.6012   26.5663 O   0  0  0  0  0  0  0  0  0  0  0  0
    6.0937  -12.6389   26.2492 C   0  0  0  0  0  0  0  0  0  0  0  0
    7.4339  -12.4055   26.2583 C   0  0  0  0  0  0  0  0  0  0  0  0
    8.2961  -13.4484   25.9401 C   0  0  0  0  0  0  0  0  0  0  0  0
    7.8278  -14.6986   25.6194 C   0  0  0  0  0  0  0  0  0  0  0  0
    8.7274  -15.7962   25.2785 C   0  0  0  0  0  0  0  0  0  0  0  0
    9.9903  -15.3950   24.5886 C   0  0  2  0  0  0  0  0  0  0  0  0
    9.7576  -15.4540   23.1572 N   0  0  0  0  0  0  0  0  0  0  0  0
   11.0709  -16.3671   24.8816 C   0  0  0  0  0  0  0  0  0  0  0  0
   11.6352  -16.5093   26.1641 O   0  0  0  0  0  0  0  0  0  0  0  0
    6.4671  -14.8910   25.6224 C   0  0  0  0  0  0  0  0  0  0  0  0
    5.5927  -13.8736   25.9342 C   0  0  0  0  0  0  0  0  0  0  0  0
   11.5461  -17.1205   24.0028 O   0  0  0  0  0  0  0  0  0  0  0  0
  2  1  1  0
  2  3  2  0
  4  2  1  0
  5  4  1  0
  5  6  1  0
  6  8  1  0
  6  7  1  1
  8  9  2  0
 10 14  1  0
 10  8  1  0
 11 10  1  0
 12 13  1  0
 12 11  1  0
 13 14  1  0
 14 15  1  1
 15 16  2  0
 17 18  1  0
 18 19  2  0
 19 20  1  0
 21 22  1  0
 21 20  2  0
 23 22  1  1
 23 25  1  0
 24 23  1  0
 24 15  1  0
 25 29  2  0
 25 26  1  0
 27 21  1  0
 28 27  2  0
 28 18  1  0
M  END
$$$$
