QPY.pdb
     RDKit          3D

 29 30  0  0  1  0  0  0  0  0999 V2000
   11.1030  -21.1035   20.6545 N   0  0  0  0  0  0  0  0  0  0  0  0
   11.0174  -21.0038   19.2571 C   0  0  0  0  0  0  0  0  0  0  0  0
   11.2709  -22.0042   18.5532 O   0  0  0  0  0  0  0  0  0  0  0  0
   10.6306  -19.7267   18.6164 C   0  0  0  0  0  0  0  0  0  0  0  0
   10.3291  -18.7136   19.6801 C   0  0  0  0  0  0  0  0  0  0  0  0
    9.9141  -17.3516   19.1556 C   0  0  2  0  0  0  0  0  0  0  0  0
   11.0576  -16.9681   18.2867 N   0  0  0  0  0  0  0  0  0  0  0  0
    9.7838  -16.3601   20.2411 C   0  0  0  0  0  0  0  0  0  0  0  0
   10.8858  -16.0611   20.8196 O   0  0  0  0  0  0  0  0  0  0  0  0
    8.5455  -15.7671   20.6322 N   0  0  0  0  0  0  0  0  0  0  0  0
    7.5032  -15.5020   19.6652 C   0  0  0  0  0  0  0  0  0  0  0  0
    6.2711  -15.9593   20.4175 C   0  0  0  0  0  0  0  0  0  0  0  0
    6.5666  -15.3748   21.7901 C   0  0  0  0  0  0  0  0  0  0  0  0
    8.0936  -15.2737   21.8688 C   0  0  1  0  0  0  0  0  0  0  0  0
    8.5808  -15.9340   23.0907 C   0  0  0  0  0  0  0  0  0  0  0  0
    8.8123  -17.1521   23.1261 O   0  0  0  0  0  0  0  0  0  0  0  0
    4.8129  -11.4008   26.8433 O   0  0  0  0  0  0  0  0  0  0  0  0
    5.9437  -12.2067   26.7643 C   0  0  0  0  0  0  0  0  0  0  0  0
    7.0777  -11.7036   26.2062 C   0  0  0  0  0  0  0  0  0  0  0  0
    8.2031  -12.5161   26.1315 C   0  0  0  0  0  0  0  0  0  0  0  0
    8.1944  -13.8050   26.6048 C   0  0  0  0  0  0  0  0  0  0  0  0
    9.3707  -14.6653   26.5239 C   0  0  0  0  0  0  0  0  0  0  0  0
    9.2962  -15.7532   25.5028 C   0  0  2  0  0  0  0  0  0  0  0  0
    8.7976  -15.1758   24.2680 N   0  0  0  0  0  0  0  0  0  0  0  0
    8.3124  -16.7831   25.9152 C   0  0  0  0  0  0  0  0  0  0  0  0
    7.0866  -16.9706   25.2477 O   0  0  0  0  0  0  0  0  0  0  0  0
    7.0283  -14.2733   27.1608 C   0  0  0  0  0  0  0  0  0  0  0  0
    5.9003  -13.4874   27.2463 C   0  0  0  0  0  0  0  0  0  0  0  0
    8.5151  -17.5484   26.8842 O   0  0  0  0  0  0  0  0  0  0  0  0
  2  1  1  0
  2  3  2  0
  4  2  1  0
  5  4  1  0
  5  6  1  0
  6  8  1  0
  6  7  1  6
  8  9  2  0
 10 14  1  0
 10  8  1  0
 11 10  1  0
 12 13  1  0
 12 11  1  0
 13 14  1  0
 14 15  1  1
 15 16  2  0
 17 18  1  0
 18 19  2  0
 19 20  1  0
 21 22  1  0
 21 20  2  0
 23 22  1  1
 23 25  1  0
 24 23  1  0
 24 15  1  0
 25 29  2  0
 25 26  1  0
 27 21  1  0
 28 27  2  0
 28 18  1  0
M  END
$$$$
