QPY.pdb
     RDKit          3D

 29 30  0  0  1  0  0  0  0  0999 V2000
   12.2885  -15.0305   16.5170 N   0  0  0  0  0  0  0  0  0  0  0  0
   11.2459  -15.6672   15.8259 C   0  0  0  0  0  0  0  0  0  0  0  0
   11.5162  -16.5463   14.9806 O   0  0  0  0  0  0  0  0  0  0  0  0
    9.8356  -15.3046   16.0917 C   0  0  0  0  0  0  0  0  0  0  0  0
    9.6375  -15.1483   17.5698 C   0  0  0  0  0  0  0  0  0  0  0  0
    8.2130  -14.8320   17.9863 C   0  0  2  0  0  0  0  0  0  0  0  0
    8.0557  -13.4114   17.5776 N   0  0  0  0  0  0  0  0  0  0  0  0
    8.0315  -14.9329   19.4475 C   0  0  0  0  0  0  0  0  0  0  0  0
    8.6859  -14.0648   20.1231 O   0  0  0  0  0  0  0  0  0  0  0  0
    7.2005  -15.9060   20.0803 N   0  0  0  0  0  0  0  0  0  0  0  0
    6.1786  -16.6136   19.3408 C   0  0  0  0  0  0  0  0  0  0  0  0
    6.3602  -18.0270   19.8532 C   0  0  0  0  0  0  0  0  0  0  0  0
    6.5425  -17.7493   21.3374 C   0  0  0  0  0  0  0  0  0  0  0  0
    7.1037  -16.3258   21.4187 C   0  0  1  0  0  0  0  0  0  0  0  0
    8.3300  -16.3124   22.2326 C   0  0  0  0  0  0  0  0  0  0  0  0
    9.4373  -16.5920   21.7488 O   0  0  0  0  0  0  0  0  0  0  0  0
    5.4710  -11.8664   27.4869 O   0  0  0  0  0  0  0  0  0  0  0  0
    6.5079  -12.4901   26.8012 C   0  0  0  0  0  0  0  0  0  0  0  0
    6.7368  -12.1578   25.5021 C   0  0  0  0  0  0  0  0  0  0  0  0
    7.7752  -12.7861   24.8245 C   0  0  0  0  0  0  0  0  0  0  0  0
    8.5680  -13.7274   25.4334 C   0  0  0  0  0  0  0  0  0  0  0  0
    9.6560  -14.3952   24.7259 C   0  0  0  0  0  0  0  0  0  0  0  0
    9.4403  -15.8474   24.4493 C   0  0  2  0  0  0  0  0  0  0  0  0
    8.2650  -15.9738   23.6071 N   0  0  0  0  0  0  0  0  0  0  0  0
    9.1396  -16.5742   25.7062 C   0  0  0  0  0  0  0  0  0  0  0  0
    7.8951  -17.1876   25.9479 O   0  0  0  0  0  0  0  0  0  0  0  0
    8.3023  -14.0333   26.7465 C   0  0  0  0  0  0  0  0  0  0  0  0
    7.2792  -13.4243   27.4390 C   0  0  0  0  0  0  0  0  0  0  0  0
    9.9774  -16.6851   26.6289 O   0  0  0  0  0  0  0  0  0  0  0  0
  2  1  1  0
  2  3  2  0
  4  2  1  0
  5  4  1  0
  5  6  1  0
  6  8  1  0
  6  7  1  1
  8  9  2  0
 10 14  1  0
 10  8  1  0
 11 10  1  0
 12 13  1  0
 12 11  1  0
 13 14  1  0
 14 15  1  6
 15 16  2  0
 17 18  1  0
 18 19  2  0
 19 20  1  0
 21 22  1  0
 21 20  2  0
 23 22  1  1
 23 25  1  0
 24 23  1  0
 24 15  1  0
 25 29  2  0
 25 26  1  0
 27 21  1  0
 28 27  2  0
 28 18  1  0
M  END
$$$$
