QPY.pdb
     RDKit          3D

 29 30  0  0  1  0  0  0  0  0999 V2000
   10.5141  -20.8858   20.1247 N   0  0  0  0  0  0  0  0  0  0  0  0
   10.1826  -20.7421   18.7684 C   0  0  0  0  0  0  0  0  0  0  0  0
   10.2121  -21.7417   18.0197 O   0  0  0  0  0  0  0  0  0  0  0  0
    9.8004  -19.4201   18.2234 C   0  0  0  0  0  0  0  0  0  0  0  0
    9.8133  -18.4087   19.3304 C   0  0  0  0  0  0  0  0  0  0  0  0
    9.4937  -16.9908   18.8943 C   0  0  2  0  0  0  0  0  0  0  0  0
   10.6298  -16.6560   17.9960 N   0  0  0  0  0  0  0  0  0  0  0  0
    9.4908  -16.0521   20.0332 C   0  0  0  0  0  0  0  0  0  0  0  0
   10.6111  -15.9596   20.6453 O   0  0  0  0  0  0  0  0  0  0  0  0
    8.3493  -15.2967   20.4384 N   0  0  0  0  0  0  0  0  0  0  0  0
    7.3272  -14.9157   19.4886 C   0  0  0  0  0  0  0  0  0  0  0  0
    6.0646  -15.1961   20.2762 C   0  0  0  0  0  0  0  0  0  0  0  0
    6.4657  -14.6308   21.6300 C   0  0  0  0  0  0  0  0  0  0  0  0
    7.9944  -14.7273   21.6740 C   0  0  1  0  0  0  0  0  0  0  0  0
    8.4212  -15.4236   22.8985 C   0  0  0  0  0  0  0  0  0  0  0  0
    8.5221  -16.6590   22.9451 O   0  0  0  0  0  0  0  0  0  0  0  0
   10.7579  -15.9254   31.4732 O   0  0  0  0  0  0  0  0  0  0  0  0
   10.4305  -15.5007   30.1900 C   0  0  0  0  0  0  0  0  0  0  0  0
    9.1688  -15.7084   29.7255 C   0  0  0  0  0  0  0  0  0  0  0  0
    8.8503  -15.2807   28.4418 C   0  0  0  0  0  0  0  0  0  0  0  0
    9.7745  -14.6583   27.6393 C   0  0  0  0  0  0  0  0  0  0  0  0
    9.4483  -14.2122   26.2884 C   0  0  0  0  0  0  0  0  0  0  0  0
    9.1124  -15.3001   25.3212 C   0  0  2  0  0  0  0  0  0  0  0  0
    8.7295  -14.6813   24.0654 N   0  0  0  0  0  0  0  0  0  0  0  0
    7.9327  -16.0649   25.7924 C   0  0  0  0  0  0  0  0  0  0  0  0
    6.6106  -15.6428   25.5525 O   0  0  0  0  0  0  0  0  0  0  0  0
   11.0369  -14.4684   28.1477 C   0  0  0  0  0  0  0  0  0  0  0  0
   11.3764  -14.8832   29.4164 C   0  0  0  0  0  0  0  0  0  0  0  0
    8.0437  -17.1339   26.4330 O   0  0  0  0  0  0  0  0  0  0  0  0
  2  1  1  0
  2  3  2  0
  4  2  1  0
  5  4  1  0
  5  6  1  0
  6  8  1  0
  6  7  1  6
  8  9  2  0
 10 14  1  0
 10  8  1  0
 11 10  1  0
 12 13  1  0
 12 11  1  0
 13 14  1  0
 14 15  1  1
 15 16  2  0
 17 18  1  0
 18 19  2  0
 19 20  1  0
 21 22  1  0
 21 20  2  0
 23 22  1  1
 23 25  1  0
 24 23  1  0
 24 15  1  0
 25 29  2  0
 25 26  1  0
 27 21  1  0
 28 27  2  0
 28 18  1  0
M  END
$$$$
