QPY.pdb
     RDKit          3D

 29 30  0  0  1  0  0  0  0  0999 V2000
   12.8504  -13.7468   18.5717 N   0  0  0  0  0  0  0  0  0  0  0  0
   12.0585  -14.3551   19.5581 C   0  0  0  0  0  0  0  0  0  0  0  0
   12.0487  -15.6004   19.6563 O   0  0  0  0  0  0  0  0  0  0  0  0
   11.2395  -13.5336   20.4774 C   0  0  0  0  0  0  0  0  0  0  0  0
   10.0560  -12.9924   19.7324 C   0  0  0  0  0  0  0  0  0  0  0  0
    8.9472  -13.9997   19.4907 C   0  0  2  0  0  0  0  0  0  0  0  0
    7.9154  -13.1946   18.7858 N   0  0  0  0  0  0  0  0  0  0  0  0
    8.3784  -14.5061   20.7549 C   0  0  0  0  0  0  0  0  0  0  0  0
    8.3737  -13.6552   21.7112 O   0  0  0  0  0  0  0  0  0  0  0  0
    7.8676  -15.8284   20.9240 N   0  0  0  0  0  0  0  0  0  0  0  0
    7.3887  -16.5966   19.7961 C   0  0  0  0  0  0  0  0  0  0  0  0
    7.9813  -17.9595   20.0866 C   0  0  0  0  0  0  0  0  0  0  0  0
    7.7079  -18.0545   21.5797 C   0  0  0  0  0  0  0  0  0  0  0  0
    7.6449  -16.6055   22.0744 C   0  0  1  0  0  0  0  0  0  0  0  0
    8.5575  -16.4213   23.2144 C   0  0  0  0  0  0  0  0  0  0  0  0
    9.7787  -16.2728   23.0553 O   0  0  0  0  0  0  0  0  0  0  0  0
    6.3123  -10.4671   26.3005 O   0  0  0  0  0  0  0  0  0  0  0  0
    6.7396  -11.7842   26.4313 C   0  0  0  0  0  0  0  0  0  0  0  0
    5.8127  -12.7781   26.4914 C   0  0  0  0  0  0  0  0  0  0  0  0
    6.2486  -14.0916   26.6220 C   0  0  0  0  0  0  0  0  0  0  0  0
    7.5838  -14.4044   26.6914 C   0  0  0  0  0  0  0  0  0  0  0  0
    8.0479  -15.7808   26.8346 C   0  0  0  0  0  0  0  0  0  0  0  0
    8.8910  -16.2897   25.7112 C   0  0  2  0  0  0  0  0  0  0  0  0
    8.0474  -16.4101   24.5363 N   0  0  0  0  0  0  0  0  0  0  0  0
    9.3896  -17.6526   26.0150 C   0  0  0  0  0  0  0  0  0  0  0  0
   10.4559  -17.8889   26.9042 O   0  0  0  0  0  0  0  0  0  0  0  0
    8.4863  -13.3701   26.6269 C   0  0  0  0  0  0  0  0  0  0  0  0
    8.0788  -12.0608   26.4973 C   0  0  0  0  0  0  0  0  0  0  0  0
    8.8899  -18.6761   25.4971 O   0  0  0  0  0  0  0  0  0  0  0  0
  2  1  1  0
  2  3  2  0
  4  2  1  0
  5  4  1  0
  5  6  1  0
  6  8  1  0
  6  7  1  6
  8  9  2  0
 10 14  1  0
 10  8  1  0
 11 10  1  0
 12 13  1  0
 12 11  1  0
 13 14  1  0
 14 15  1  1
 15 16  2  0
 17 18  1  0
 18 19  2  0
 19 20  1  0
 21 22  1  0
 21 20  2  0
 23 22  1  1
 23 25  1  0
 24 23  1  0
 24 15  1  0
 25 29  2  0
 25 26  1  0
 27 21  1  0
 28 27  2  0
 28 18  1  0
M  END
$$$$
