QPY.pdb
     RDKit          3D

 29 30  0  0  1  0  0  0  0  0999 V2000
    9.2677  -21.4564   20.4620 N   0  0  0  0  0  0  0  0  0  0  0  0
    9.6450  -21.3455   19.1146 C   0  0  0  0  0  0  0  0  0  0  0  0
    9.8124  -22.3811   18.4364 O   0  0  0  0  0  0  0  0  0  0  0  0
    9.8445  -20.0155   18.4963 C   0  0  0  0  0  0  0  0  0  0  0  0
    9.5433  -18.9515   19.5091 C   0  0  0  0  0  0  0  0  0  0  0  0
    9.7157  -17.5312   19.0034 C   0  0  2  0  0  0  0  0  0  0  0  0
   11.0642  -17.5628   18.3788 N   0  0  0  0  0  0  0  0  0  0  0  0
    9.7217  -16.5510   20.1068 C   0  0  0  0  0  0  0  0  0  0  0  0
   10.8109  -16.5172   20.7784 O   0  0  0  0  0  0  0  0  0  0  0  0
    8.6201  -15.6986   20.4195 N   0  0  0  0  0  0  0  0  0  0  0  0
    7.7354  -15.2078   19.3859 C   0  0  0  0  0  0  0  0  0  0  0  0
    6.3813  -15.3814   20.0411 C   0  0  0  0  0  0  0  0  0  0  0  0
    6.6980  -14.8784   21.4410 C   0  0  0  0  0  0  0  0  0  0  0  0
    8.1996  -15.1186   21.6293 C   0  0  1  0  0  0  0  0  0  0  0  0
    8.4385  -15.8718   22.8710 C   0  0  0  0  0  0  0  0  0  0  0  0
    8.4064  -17.1114   22.8987 O   0  0  0  0  0  0  0  0  0  0  0  0
    4.6660  -11.4068   26.8542 O   0  0  0  0  0  0  0  0  0  0  0  0
    5.7672  -12.2490   26.7426 C   0  0  0  0  0  0  0  0  0  0  0  0
    6.9846  -11.7130   26.4578 C   0  0  0  0  0  0  0  0  0  0  0  0
    8.0796  -12.5621   26.3481 C   0  0  0  0  0  0  0  0  0  0  0  0
    7.9596  -13.9192   26.5194 C   0  0  0  0  0  0  0  0  0  0  0  0
    9.1041  -14.8169   26.3997 C   0  0  0  0  0  0  0  0  0  0  0  0
    8.9908  -15.8559   25.3322 C   0  0  2  0  0  0  0  0  0  0  0  0
    8.7143  -15.1812   24.0773 N   0  0  0  0  0  0  0  0  0  0  0  0
    7.8347  -16.7457   25.5973 C   0  0  0  0  0  0  0  0  0  0  0  0
    7.8830  -17.7904   26.5405 O   0  0  0  0  0  0  0  0  0  0  0  0
    6.7119  -14.4188   26.8059 C   0  0  0  0  0  0  0  0  0  0  0  0
    5.6119  -13.5977   26.9198 C   0  0  0  0  0  0  0  0  0  0  0  0
    6.7447  -16.6195   24.9961 O   0  0  0  0  0  0  0  0  0  0  0  0
  2  1  1  0
  2  3  2  0
  4  2  1  0
  5  4  1  0
  5  6  1  0
  6  8  1  0
  6  7  1  1
  8  9  2  0
 10 14  1  0
 10  8  1  0
 11 10  1  0
 12 13  1  0
 12 11  1  0
 13 14  1  0
 14 15  1  1
 15 16  2  0
 17 18  1  0
 18 19  2  0
 19 20  1  0
 21 22  1  0
 21 20  2  0
 23 22  1  1
 23 25  1  0
 24 23  1  0
 24 15  1  0
 25 29  2  0
 25 26  1  0
 27 21  1  0
 28 27  2  0
 28 18  1  0
M  END
$$$$
