QPY.pdb
     RDKit          3D

 29 30  0  0  1  0  0  0  0  0999 V2000
    6.7219  -19.4783   20.0209 N   0  0  0  0  0  0  0  0  0  0  0  0
    8.1115  -19.5044   20.2165 C   0  0  0  0  0  0  0  0  0  0  0  0
    8.6083  -20.3584   20.9810 O   0  0  0  0  0  0  0  0  0  0  0  0
    8.9868  -18.5309   19.5257 C   0  0  0  0  0  0  0  0  0  0  0  0
    8.1407  -17.6033   18.7058 C   0  0  0  0  0  0  0  0  0  0  0  0
    8.4676  -16.1316   18.8783 C   0  0  2  0  0  0  0  0  0  0  0  0
    9.4922  -15.8940   17.8278 N   0  0  0  0  0  0  0  0  0  0  0  0
    9.0624  -15.8511   20.1996 C   0  0  0  0  0  0  0  0  0  0  0  0
   10.2850  -16.2117   20.3167 O   0  0  0  0  0  0  0  0  0  0  0  0
    8.3568  -15.2294   21.2736 N   0  0  0  0  0  0  0  0  0  0  0  0
    7.1164  -14.5215   21.0450 C   0  0  0  0  0  0  0  0  0  0  0  0
    6.2779  -14.9986   22.2122 C   0  0  0  0  0  0  0  0  0  0  0  0
    7.3090  -14.9228   23.3277 C   0  0  0  0  0  0  0  0  0  0  0  0
    8.6675  -15.0836   22.6371 C   0  0  1  0  0  0  0  0  0  0  0  0
    9.4385  -16.1575   23.2840 C   0  0  0  0  0  0  0  0  0  0  0  0
    9.2075  -17.3548   23.0564 O   0  0  0  0  0  0  0  0  0  0  0  0
    9.7594  -13.8819   30.3589 O   0  0  0  0  0  0  0  0  0  0  0  0
   10.3600  -14.4430   29.2369 C   0  0  0  0  0  0  0  0  0  0  0  0
   10.8641  -15.7040   29.3165 C   0  0  0  0  0  0  0  0  0  0  0  0
   11.4625  -16.2569   28.1904 C   0  0  0  0  0  0  0  0  0  0  0  0
   11.5552  -15.5629   27.0092 C   0  0  0  0  0  0  0  0  0  0  0  0
   12.1876  -16.1353   25.8248 C   0  0  0  0  0  0  0  0  0  0  0  0
   11.2635  -16.8400   24.8860 C   0  0  2  0  0  0  0  0  0  0  0  0
   10.4762  -15.8361   24.1939 N   0  0  0  0  0  0  0  0  0  0  0  0
   10.3048  -17.6833   25.6397 C   0  0  0  0  0  0  0  0  0  0  0  0
   10.6612  -18.9305   26.1885 O   0  0  0  0  0  0  0  0  0  0  0  0
   11.0331  -14.2924   26.9723 C   0  0  0  0  0  0  0  0  0  0  0  0
   10.4352  -13.7230   28.0748 C   0  0  0  0  0  0  0  0  0  0  0  0
    9.1188  -17.3346   25.8327 O   0  0  0  0  0  0  0  0  0  0  0  0
  2  1  1  0
  2  3  2  0
  4  2  1  0
  5  4  1  0
  5  6  1  0
  6  8  1  0
  6  7  1  6
  8  9  2  0
 10 14  1  0
 10  8  1  0
 11 10  1  0
 12 13  1  0
 12 11  1  0
 13 14  1  0
 14 15  1  1
 15 16  2  0
 17 18  1  0
 18 19  2  0
 19 20  1  0
 21 22  1  0
 21 20  2  0
 23 22  1  1
 23 25  1  0
 24 23  1  0
 24 15  1  0
 25 29  2  0
 25 26  1  0
 27 21  1  0
 28 27  2  0
 28 18  1  0
M  END
$$$$
