KQT.pdb
     RDKit          3D

 26 25  0  0  1  0  0  0  0  0999 V2000
    9.9315  -15.3768   19.6463 N   0  0  0  0  0  0  0  0  0  0  0  0
    8.9231  -14.4000   20.0146 C   0  0  1  0  0  0  0  0  0  0  0  0
    7.8365  -14.3259   18.9451 C   0  0  0  0  0  0  0  0  0  0  0  0
    8.5327  -14.3243   17.5964 C   0  0  0  0  0  0  0  0  0  0  0  0
    7.6128  -13.9194   16.4843 C   0  0  0  0  0  0  0  0  0  0  0  0
    8.2743  -13.8485   15.1461 C   0  0  0  0  0  0  0  0  0  0  0  0
    7.2640  -13.4437   14.1764 N   0  0  0  0  0  0  0  0  0  0  0  0
    8.3460  -14.8074   21.3243 C   0  0  0  0  0  0  0  0  0  0  0  0
    7.2581  -14.3042   21.7560 O   0  0  0  0  0  0  0  0  0  0  0  0
    9.8326  -19.8211   24.7084 N   0  0  0  0  0  0  0  0  0  0  0  0
   10.8449  -18.9831   24.2027 C   0  0  0  0  0  0  0  0  0  0  0  0
   12.0350  -19.3196   24.2484 O   0  0  0  0  0  0  0  0  0  0  0  0
   10.4587  -17.6773   23.6083 C   0  0  0  0  0  0  0  0  0  0  0  0
    8.9739  -17.5550   23.7168 C   0  0  0  0  0  0  0  0  0  0  0  0
    8.3816  -16.2144   23.4280 C   0  0  2  0  0  0  0  0  0  0  0  0
    8.9748  -15.7603   22.1357 N   0  0  0  0  0  0  0  0  0  0  0  0
    8.7349  -15.1494   24.3996 C   0  0  0  0  0  0  0  0  0  0  0  0
    9.8835  -14.5785   24.3589 O   0  0  0  0  0  0  0  0  0  0  0  0
    7.0930  -11.8275   25.1891 C   0  0  0  0  0  0  0  0  0  0  0  0
    7.1333  -12.5826   26.5180 C   0  0  1  0  0  0  0  0  0  0  0  0
    5.8752  -13.1818   26.6463 O   0  0  0  0  0  0  0  0  0  0  0  0
    8.1465  -13.6659   26.3860 C   0  0  2  0  0  0  0  0  0  0  0  0
    7.8612  -14.6784   25.4254 N   0  0  0  0  0  0  0  0  0  0  0  0
    8.6171  -14.1872   27.7125 C   0  0  0  0  0  0  0  0  0  0  0  0
    8.6559  -15.4075   27.9760 O   0  0  0  0  0  0  0  0  0  0  0  0
    9.0141  -13.2846   28.6651 O   0  0  0  0  0  0  0  0  0  0  0  0
  2  1  1  6
  3  2  1  0
  4  5  1  0
  4  3  1  0
  6  5  1  0
  7  6  1  0
  8  2  1  0
  9  8  2  0
 10 11  1  0
 11 13  1  0
 11 12  2  0
 13 14  1  0
 15 14  1  1
 15 16  1  0
 16  8  1  0
 17 18  2  0
 17 15  1  0
 20 19  1  6
 20 22  1  0
 21 20  1  0
 22 23  1  6
 23 17  1  0
 24 22  1  0
 25 24  2  0
 26 24  1  0
M  END
$$$$
