KQT.pdb
     RDKit          3D

 26 25  0  0  1  0  0  0  0  0999 V2000
   12.2242  -17.9077   14.9456 N   0  0  0  0  0  0  0  0  0  0  0  0
   11.0457  -18.0034   15.7874 C   0  0  1  0  0  0  0  0  0  0  0  0
   10.8056  -19.4515   16.2062 C   0  0  0  0  0  0  0  0  0  0  0  0
   12.1042  -19.9699   16.7965 C   0  0  0  0  0  0  0  0  0  0  0  0
   11.9862  -21.3878   17.2681 C   0  0  0  0  0  0  0  0  0  0  0  0
   13.2422  -21.9342   17.8660 C   0  0  0  0  0  0  0  0  0  0  0  0
   12.9622  -23.2932   18.3128 N   0  0  0  0  0  0  0  0  0  0  0  0
   11.2617  -17.1393   16.9795 C   0  0  0  0  0  0  0  0  0  0  0  0
   12.4326  -16.8041   17.3532 O   0  0  0  0  0  0  0  0  0  0  0  0
    7.5649  -12.0885   20.4076 N   0  0  0  0  0  0  0  0  0  0  0  0
    7.6514  -13.4853   20.2519 C   0  0  0  0  0  0  0  0  0  0  0  0
    6.6362  -14.1741   20.0888 O   0  0  0  0  0  0  0  0  0  0  0  0
    8.9920  -14.1248   20.2866 C   0  0  0  0  0  0  0  0  0  0  0  0
    9.0954  -15.0188   19.0944 C   0  0  0  0  0  0  0  0  0  0  0  0
   10.3865  -15.7452   18.9021 C   0  0  2  0  0  0  0  0  0  0  0  0
   10.1874  -16.6594   17.7391 N   0  0  0  0  0  0  0  0  0  0  0  0
   10.7769  -16.6385   20.0212 C   0  0  0  0  0  0  0  0  0  0  0  0
   10.2191  -17.7845   20.1716 O   0  0  0  0  0  0  0  0  0  0  0  0
   13.8502  -18.2394   20.8977 C   0  0  0  0  0  0  0  0  0  0  0  0
   13.5191  -17.5605   22.2272 C   0  0  1  0  0  0  0  0  0  0  0  0
   14.3530  -16.4387   22.2925 O   0  0  0  0  0  0  0  0  0  0  0  0
   12.1112  -17.0821   22.1462 C   0  0  2  0  0  0  0  0  0  0  0  0
   11.7731  -16.3186   20.9921 N   0  0  0  0  0  0  0  0  0  0  0  0
   11.6196  -16.4990   23.4389 C   0  0  0  0  0  0  0  0  0  0  0  0
   11.1056  -15.3627   23.5075 O   0  0  0  0  0  0  0  0  0  0  0  0
   11.7459  -17.2457   24.5819 O   0  0  0  0  0  0  0  0  0  0  0  0
  2  1  1  6
  3  2  1  0
  4  5  1  0
  4  3  1  0
  6  5  1  0
  7  6  1  0
  8  2  1  0
  9  8  2  0
 10 11  1  0
 11 13  1  0
 11 12  2  0
 13 14  1  0
 15 14  1  1
 15 16  1  0
 16  8  1  0
 17 18  2  0
 17 15  1  0
 20 19  1  6
 20 22  1  0
 21 20  1  0
 22 23  1  6
 23 17  1  0
 24 22  1  0
 25 24  2  0
 26 24  1  0
M  END
$$$$
