KQT.pdb
     RDKit          3D

 26 25  0  0  1  0  0  0  0  0999 V2000
    8.1772  -17.6262   20.0686 N   0  0  0  0  0  0  0  0  0  0  0  0
    8.7878  -16.5054   20.7596 C   0  0  1  0  0  0  0  0  0  0  0  0
    8.2077  -15.1870   20.2542 C   0  0  0  0  0  0  0  0  0  0  0  0
    8.5688  -15.0712   18.7846 C   0  0  0  0  0  0  0  0  0  0  0  0
    8.0597  -13.8002   18.1744 C   0  0  0  0  0  0  0  0  0  0  0  0
    8.3751  -13.6570   16.7206 C   0  0  0  0  0  0  0  0  0  0  0  0
    7.7500  -12.4258   16.2536 N   0  0  0  0  0  0  0  0  0  0  0  0
    8.5316  -16.6694   22.2162 C   0  0  0  0  0  0  0  0  0  0  0  0
    7.4070  -17.0813   22.6504 O   0  0  0  0  0  0  0  0  0  0  0  0
   12.2108  -19.2565   25.9373 N   0  0  0  0  0  0  0  0  0  0  0  0
   11.4667  -19.7724   24.8588 C   0  0  0  0  0  0  0  0  0  0  0  0
   11.7250  -20.8829   24.3776 O   0  0  0  0  0  0  0  0  0  0  0  0
   10.3572  -18.9555   24.3029 C   0  0  0  0  0  0  0  0  0  0  0  0
   10.3656  -17.6416   25.0135 C   0  0  0  0  0  0  0  0  0  0  0  0
    9.3162  -16.6531   24.6226 C   0  0  2  0  0  0  0  0  0  0  0  0
    9.5158  -16.3779   23.1691 N   0  0  0  0  0  0  0  0  0  0  0  0
    9.4295  -15.3255   25.2765 C   0  0  0  0  0  0  0  0  0  0  0  0
   10.5789  -14.8025   25.5055 O   0  0  0  0  0  0  0  0  0  0  0  0
    6.7124  -12.2002   25.5283 C   0  0  0  0  0  0  0  0  0  0  0  0
    7.0371  -12.7974   26.8979 C   0  0  1  0  0  0  0  0  0  0  0  0
    5.9925  -13.6862   27.1758 O   0  0  0  0  0  0  0  0  0  0  0  0
    8.2891  -13.5909   26.7541 C   0  0  2  0  0  0  0  0  0  0  0  0
    8.3132  -14.5379   25.6903 N   0  0  0  0  0  0  0  0  0  0  0  0
    8.7965  -14.1195   28.0640 C   0  0  0  0  0  0  0  0  0  0  0  0
    9.0496  -15.3293   28.2442 O   0  0  0  0  0  0  0  0  0  0  0  0
    8.9835  -13.2365   29.0961 O   0  0  0  0  0  0  0  0  0  0  0  0
  2  1  1  6
  3  2  1  0
  4  5  1  0
  4  3  1  0
  6  5  1  0
  7  6  1  0
  8  2  1  0
  9  8  2  0
 10 11  1  0
 11 13  1  0
 11 12  2  0
 13 14  1  0
 15 14  1  1
 15 16  1  0
 16  8  1  0
 17 18  2  0
 17 15  1  0
 20 19  1  6
 20 22  1  0
 21 20  1  0
 22 23  1  6
 23 17  1  0
 24 22  1  0
 25 24  2  0
 26 24  1  0
M  END
$$$$
