KQT.pdb
     RDKit          3D

 26 25  0  0  1  0  0  0  0  0999 V2000
    7.9665  -16.7380   20.5169 N   0  0  0  0  0  0  0  0  0  0  0  0
    7.5452  -15.4316   20.9883 C   0  0  1  0  0  0  0  0  0  0  0  0
    6.4267  -14.8817   20.1070 C   0  0  0  0  0  0  0  0  0  0  0  0
    6.9863  -14.7465   18.7027 C   0  0  0  0  0  0  0  0  0  0  0  0
    8.2536  -13.9465   18.6722 C   0  0  0  0  0  0  0  0  0  0  0  0
    8.7661  -13.6751   17.2948 C   0  0  0  0  0  0  0  0  0  0  0  0
    9.9528  -12.8384   17.4235 N   0  0  0  0  0  0  0  0  0  0  0  0
    7.0833  -15.5782   22.3952 C   0  0  0  0  0  0  0  0  0  0  0  0
    6.2344  -14.7751   22.9026 O   0  0  0  0  0  0  0  0  0  0  0  0
    8.8880  -20.2293   25.8150 N   0  0  0  0  0  0  0  0  0  0  0  0
    8.1647  -19.6150   26.8554 C   0  0  0  0  0  0  0  0  0  0  0  0
    8.1954  -20.0657   28.0076 O   0  0  0  0  0  0  0  0  0  0  0  0
    7.3571  -18.4070   26.5455 C   0  0  0  0  0  0  0  0  0  0  0  0
    7.5804  -18.0731   25.1068 C   0  0  0  0  0  0  0  0  0  0  0  0
    7.1869  -16.7030   24.6602 C   0  0  2  0  0  0  0  0  0  0  0  0
    7.5624  -16.6046   23.2189 N   0  0  0  0  0  0  0  0  0  0  0  0
    7.9214  -15.5934   25.3176 C   0  0  0  0  0  0  0  0  0  0  0  0
    9.1758  -15.4212   25.1076 O   0  0  0  0  0  0  0  0  0  0  0  0
    6.7670  -11.8640   25.6219 C   0  0  0  0  0  0  0  0  0  0  0  0
    7.1826  -12.3197   27.0211 C   0  0  1  0  0  0  0  0  0  0  0  0
    5.9904  -12.6427   27.6789 O   0  0  0  0  0  0  0  0  0  0  0  0
    7.9753  -13.5709   26.8666 C   0  0  2  0  0  0  0  0  0  0  0  0
    7.3218  -14.6504   26.2056 N   0  0  0  0  0  0  0  0  0  0  0  0
    8.6967  -13.9614   28.1235 C   0  0  0  0  0  0  0  0  0  0  0  0
    8.6466  -15.1185   28.5914 O   0  0  0  0  0  0  0  0  0  0  0  0
    9.4325  -13.0071   28.7775 O   0  0  0  0  0  0  0  0  0  0  0  0
  2  1  1  6
  3  2  1  0
  4  5  1  0
  4  3  1  0
  6  5  1  0
  7  6  1  0
  8  2  1  0
  9  8  2  0
 10 11  1  0
 11 13  1  0
 11 12  2  0
 13 14  1  0
 15 14  1  1
 15 16  1  0
 16  8  1  0
 17 18  2  0
 17 15  1  0
 20 19  1  6
 20 22  1  0
 21 20  1  0
 22 23  1  1
 23 17  1  0
 24 22  1  0
 25 24  2  0
 26 24  1  0
M  END
$$$$
