KQT.pdb
     RDKit          3D

 26 25  0  0  1  0  0  0  0  0999 V2000
   10.0962  -18.7151   16.8183 N   0  0  0  0  0  0  0  0  0  0  0  0
    9.1376  -18.2341   17.7963 C   0  0  1  0  0  0  0  0  0  0  0  0
    8.5890  -19.3954   18.6212 C   0  0  0  0  0  0  0  0  0  0  0  0
    9.2296  -20.6652   18.0913 C   0  0  0  0  0  0  0  0  0  0  0  0
    8.8124  -21.8773   18.8683 C   0  0  0  0  0  0  0  0  0  0  0  0
    8.3309  -23.0071   18.0167 C   0  0  0  0  0  0  0  0  0  0  0  0
    7.9726  -24.1062   18.9046 N   0  0  0  0  0  0  0  0  0  0  0  0
    9.8289  -17.2478   18.6701 C   0  0  0  0  0  0  0  0  0  0  0  0
   11.0992  -17.2190   18.7634 O   0  0  0  0  0  0  0  0  0  0  0  0
    7.1814  -12.1051   20.3751 N   0  0  0  0  0  0  0  0  0  0  0  0
    7.6381  -12.3782   19.0714 C   0  0  0  0  0  0  0  0  0  0  0  0
    7.2151  -11.7397   18.0993 O   0  0  0  0  0  0  0  0  0  0  0  0
    8.6445  -13.4543   18.8795 C   0  0  0  0  0  0  0  0  0  0  0  0
    8.9133  -14.0629   20.2169 C   0  0  0  0  0  0  0  0  0  0  0  0
    9.7941  -15.2690   20.2478 C   0  0  2  0  0  0  0  0  0  0  0  0
    9.1120  -16.3112   19.4252 N   0  0  0  0  0  0  0  0  0  0  0  0
    9.9587  -15.8921   21.5848 C   0  0  0  0  0  0  0  0  0  0  0  0
    9.0021  -15.8729   22.4401 O   0  0  0  0  0  0  0  0  0  0  0  0
    9.9528  -18.9580   23.1592 C   0  0  0  0  0  0  0  0  0  0  0  0
   11.3663  -18.5020   23.5227 C   0  0  1  0  0  0  0  0  0  0  0  0
   12.2057  -19.0889   22.5691 O   0  0  0  0  0  0  0  0  0  0  0  0
   11.4214  -17.0256   23.3365 C   0  0  2  0  0  0  0  0  0  0  0  0
   11.1485  -16.5481   22.0224 N   0  0  0  0  0  0  0  0  0  0  0  0
   12.6236  -16.4021   23.9835 C   0  0  0  0  0  0  0  0  0  0  0  0
   13.4242  -15.6804   23.3523 O   0  0  0  0  0  0  0  0  0  0  0  0
   12.8458  -16.6407   25.3153 O   0  0  0  0  0  0  0  0  0  0  0  0
  2  1  1  6
  3  2  1  0
  4  5  1  0
  4  3  1  0
  6  5  1  0
  7  6  1  0
  8  2  1  0
  9  8  2  0
 10 11  1  0
 11 13  1  0
 11 12  2  0
 13 14  1  0
 15 14  1  1
 15 16  1  0
 16  8  1  0
 17 18  2  0
 17 15  1  0
 20 19  1  6
 20 22  1  0
 21 20  1  0
 22 23  1  6
 23 17  1  0
 24 22  1  0
 25 24  2  0
 26 24  1  0
M  END
$$$$
