KQT.pdb
     RDKit          3D

 26 25  0  0  1  0  0  0  0  0999 V2000
    7.0042  -15.1056   20.4560 N   0  0  0  0  0  0  0  0  0  0  0  0
    8.2852  -14.4254   20.5114 C   0  0  1  0  0  0  0  0  0  0  0  0
    8.1474  -12.9877   20.0173 C   0  0  0  0  0  0  0  0  0  0  0  0
    7.2296  -13.0137   18.8089 C   0  0  0  0  0  0  0  0  0  0  0  0
    7.9870  -12.9095   17.5195 C   0  0  0  0  0  0  0  0  0  0  0  0
    8.1952  -14.2196   16.8313 C   0  0  0  0  0  0  0  0  0  0  0  0
    8.8901  -13.9529   15.5779 N   0  0  0  0  0  0  0  0  0  0  0  0
    8.7598  -14.4545   21.9214 C   0  0  0  0  0  0  0  0  0  0  0  0
    9.8703  -13.9294   22.2592 O   0  0  0  0  0  0  0  0  0  0  0  0
    7.8534  -13.6753   27.4532 N   0  0  0  0  0  0  0  0  0  0  0  0
    7.0976  -12.9106   26.5438 C   0  0  0  0  0  0  0  0  0  0  0  0
    6.7491  -11.7547   26.8161 O   0  0  0  0  0  0  0  0  0  0  0  0
    6.7219  -13.5184   25.2412 C   0  0  0  0  0  0  0  0  0  0  0  0
    7.2864  -14.9011   25.2100 C   0  0  0  0  0  0  0  0  0  0  0  0
    8.4848  -15.1243   24.3467 C   0  0  2  0  0  0  0  0  0  0  0  0
    8.0057  -15.0599   22.9344 N   0  0  0  0  0  0  0  0  0  0  0  0
    9.1081  -16.4655   24.4724 C   0  0  0  0  0  0  0  0  0  0  0  0
    8.4125  -17.5309   24.3046 O   0  0  0  0  0  0  0  0  0  0  0  0
   11.4468  -18.1536   22.5536 C   0  0  0  0  0  0  0  0  0  0  0  0
   12.1185  -18.3305   23.9158 C   0  0  1  0  0  0  0  0  0  0  0  0
   13.1603  -17.3966   23.9434 O   0  0  0  0  0  0  0  0  0  0  0  0
   11.1266  -17.9431   24.9568 C   0  0  2  0  0  0  0  0  0  0  0  0
   10.4857  -16.6839   24.7754 N   0  0  0  0  0  0  0  0  0  0  0  0
   11.6216  -18.1894   26.3522 C   0  0  0  0  0  0  0  0  0  0  0  0
   11.5732  -17.3153   27.2432 O   0  0  0  0  0  0  0  0  0  0  0  0
   12.1473  -19.4199   26.6508 O   0  0  0  0  0  0  0  0  0  0  0  0
  2  1  1  1
  3  2  1  0
  4  5  1  0
  4  3  1  0
  6  5  1  0
  7  6  1  0
  8  2  1  0
  9  8  2  0
 10 11  1  0
 11 13  1  0
 11 12  2  0
 13 14  1  0
 15 14  1  1
 15 16  1  0
 16  8  1  0
 17 18  2  0
 17 15  1  0
 20 19  1  6
 20 22  1  0
 21 20  1  0
 22 23  1  1
 23 17  1  0
 24 22  1  0
 25 24  2  0
 26 24  1  0
M  END
$$$$
