KQT.pdb
     RDKit          3D

 26 25  0  0  1  0  0  0  0  0999 V2000
    6.5071  -20.0178   18.2547 N   0  0  0  0  0  0  0  0  0  0  0  0
    6.2471  -19.6862   19.6436 C   0  0  1  0  0  0  0  0  0  0  0  0
    6.2315  -20.9498   20.4998 C   0  0  0  0  0  0  0  0  0  0  0  0
    5.0760  -21.8065   20.0157 C   0  0  0  0  0  0  0  0  0  0  0  0
    4.8785  -23.0248   20.8663 C   0  0  0  0  0  0  0  0  0  0  0  0
    3.7149  -23.8683   20.4562 C   0  0  0  0  0  0  0  0  0  0  0  0
    3.5760  -24.9351   21.4398 N   0  0  0  0  0  0  0  0  0  0  0  0
    7.3131  -18.7538   20.1002 C   0  0  0  0  0  0  0  0  0  0  0  0
    8.5050  -19.1557   20.3026 O   0  0  0  0  0  0  0  0  0  0  0  0
    6.7435  -12.7931   19.3554 N   0  0  0  0  0  0  0  0  0  0  0  0
    8.0540  -12.7479   19.8687 C   0  0  0  0  0  0  0  0  0  0  0  0
    8.7568  -11.7376   19.7382 O   0  0  0  0  0  0  0  0  0  0  0  0
    8.5843  -13.9424   20.5755 C   0  0  0  0  0  0  0  0  0  0  0  0
    7.7195  -15.1037   20.2081 C   0  0  0  0  0  0  0  0  0  0  0  0
    8.1201  -16.4413   20.7386 C   0  0  2  0  0  0  0  0  0  0  0  0
    7.0501  -17.3968   20.3262 N   0  0  0  0  0  0  0  0  0  0  0  0
    8.1652  -16.5419   22.2188 C   0  0  0  0  0  0  0  0  0  0  0  0
    7.1337  -16.2580   22.9276 O   0  0  0  0  0  0  0  0  0  0  0  0
    8.0263  -18.6856   24.8203 C   0  0  0  0  0  0  0  0  0  0  0  0
    9.3760  -18.0582   25.1707 C   0  0  1  0  0  0  0  0  0  0  0  0
   10.3395  -18.9703   24.7257 O   0  0  0  0  0  0  0  0  0  0  0  0
    9.5137  -16.8144   24.3635 C   0  0  2  0  0  0  0  0  0  0  0  0
    9.3142  -16.9519   22.9597 N   0  0  0  0  0  0  0  0  0  0  0  0
   10.7217  -16.0072   24.7401 C   0  0  0  0  0  0  0  0  0  0  0  0
   11.6341  -15.7495   23.9268 O   0  0  0  0  0  0  0  0  0  0  0  0
   10.8215  -15.5423   26.0260 O   0  0  0  0  0  0  0  0  0  0  0  0
  2  1  1  6
  3  2  1  0
  4  5  1  0
  4  3  1  0
  6  5  1  0
  7  6  1  0
  8  2  1  0
  9  8  2  0
 10 11  1  0
 11 13  1  0
 11 12  2  0
 13 14  1  0
 15 14  1  1
 15 16  1  0
 16  8  1  0
 17 18  2  0
 17 15  1  0
 20 19  1  6
 20 22  1  0
 21 20  1  0
 22 23  1  6
 23 17  1  0
 24 22  1  0
 25 24  2  0
 26 24  1  0
M  END
$$$$
