KQT.pdb
     RDKit          3D

 26 25  0  0  1  0  0  0  0  0999 V2000
   10.1647  -18.0640   18.1728 N   0  0  0  0  0  0  0  0  0  0  0  0
    9.3143  -17.8529   19.3299 C   0  0  1  0  0  0  0  0  0  0  0  0
    9.6665  -18.8418   20.4382 C   0  0  0  0  0  0  0  0  0  0  0  0
    9.7208  -20.2217   19.8087 C   0  0  0  0  0  0  0  0  0  0  0  0
   10.0314  -21.2907   20.8125 C   0  0  0  0  0  0  0  0  0  0  0  0
   10.1746  -22.6553   20.2201 C   0  0  0  0  0  0  0  0  0  0  0  0
   10.4787  -23.5775   21.3072 N   0  0  0  0  0  0  0  0  0  0  0  0
    9.5083  -16.4521   19.7928 C   0  0  0  0  0  0  0  0  0  0  0  0
   10.6432  -15.8783   19.7155 O   0  0  0  0  0  0  0  0  0  0  0  0
    8.8947  -12.2046   18.6069 N   0  0  0  0  0  0  0  0  0  0  0  0
    7.9526  -13.0602   18.0043 C   0  0  0  0  0  0  0  0  0  0  0  0
    7.9266  -13.2189   16.7771 O   0  0  0  0  0  0  0  0  0  0  0  0
    6.9817  -13.7756   18.8722 C   0  0  0  0  0  0  0  0  0  0  0  0
    7.4006  -13.5593   20.2896 C   0  0  0  0  0  0  0  0  0  0  0  0
    8.6206  -14.2854   20.7539 C   0  0  2  0  0  0  0  0  0  0  0  0
    8.4520  -15.7073   20.3322 N   0  0  0  0  0  0  0  0  0  0  0  0
    8.7920  -14.3470   22.2269 C   0  0  0  0  0  0  0  0  0  0  0  0
    8.7058  -13.2853   22.9428 O   0  0  0  0  0  0  0  0  0  0  0  0
    7.7951  -13.6407   24.5415 C   0  0  0  0  0  0  0  0  0  0  0  0
    7.9919  -15.0387   25.1288 C   0  0  1  0  0  0  0  0  0  0  0  0
    6.8086  -15.7317   24.8500 O   0  0  0  0  0  0  0  0  0  0  0  0
    9.0954  -15.6907   24.3705 C   0  0  2  0  0  0  0  0  0  0  0  0
    9.0539  -15.5472   22.9539 N   0  0  0  0  0  0  0  0  0  0  0  0
    9.3798  -17.0868   24.8424 C   0  0  0  0  0  0  0  0  0  0  0  0
    8.8759  -18.0923   24.2989 O   0  0  0  0  0  0  0  0  0  0  0  0
   10.2216  -17.2561   25.9113 O   0  0  0  0  0  0  0  0  0  0  0  0
  2  1  1  6
  3  2  1  0
  4  5  1  0
  4  3  1  0
  6  5  1  0
  7  6  1  0
  8  2  1  0
  9  8  2  0
 10 11  1  0
 11 13  1  0
 11 12  2  0
 13 14  1  0
 15 14  1  1
 15 16  1  0
 16  8  1  0
 17 18  2  0
 17 15  1  0
 20 19  1  6
 20 22  1  0
 21 20  1  0
 22 23  1  6
 23 17  1  0
 24 22  1  0
 25 24  2  0
 26 24  1  0
M  END
$$$$
