KQT.pdb
     RDKit          3D

 26 25  0  0  1  0  0  0  0  0999 V2000
    5.7658  -17.4247   20.8863 N   0  0  0  0  0  0  0  0  0  0  0  0
    6.9130  -16.7101   21.4155 C   0  0  1  0  0  0  0  0  0  0  0  0
    6.9065  -15.2610   20.9358 C   0  0  0  0  0  0  0  0  0  0  0  0
    7.6516  -15.2217   19.6141 C   0  0  0  0  0  0  0  0  0  0  0  0
    7.7401  -13.8340   19.0544 C   0  0  0  0  0  0  0  0  0  0  0  0
    8.3879  -13.7631   17.7095 C   0  0  0  0  0  0  0  0  0  0  0  0
    8.3836  -12.3665   17.2918 N   0  0  0  0  0  0  0  0  0  0  0  0
    6.8481  -16.7734   22.9008 C   0  0  0  0  0  0  0  0  0  0  0  0
    5.7359  -16.7190   23.5198 O   0  0  0  0  0  0  0  0  0  0  0  0
   10.8802  -19.4709   26.3228 N   0  0  0  0  0  0  0  0  0  0  0  0
   10.2852  -18.8112   27.4153 C   0  0  0  0  0  0  0  0  0  0  0  0
   10.6246  -19.0665   28.5778 O   0  0  0  0  0  0  0  0  0  0  0  0
    9.2346  -17.7952   27.1483 C   0  0  0  0  0  0  0  0  0  0  0  0
    9.0227  -17.7442   25.6705 C   0  0  0  0  0  0  0  0  0  0  0  0
    7.9715  -16.8092   25.1686 C   0  0  2  0  0  0  0  0  0  0  0  0
    8.0062  -16.8953   23.6788 N   0  0  0  0  0  0  0  0  0  0  0  0
    8.2112  -15.3755   25.4689 C   0  0  0  0  0  0  0  0  0  0  0  0
    9.1406  -14.7256   24.8683 O   0  0  0  0  0  0  0  0  0  0  0  0
    6.0214  -12.1422   25.6743 C   0  0  0  0  0  0  0  0  0  0  0  0
    6.6154  -12.3838   27.0624 C   0  0  1  0  0  0  0  0  0  0  0  0
    5.6195  -13.0504   27.7849 O   0  0  0  0  0  0  0  0  0  0  0  0
    7.7662  -13.3150   26.9002 C   0  0  2  0  0  0  0  0  0  0  0  0
    7.4560  -14.6173   26.4134 N   0  0  0  0  0  0  0  0  0  0  0  0
    8.6967  -13.3005   28.0778 C   0  0  0  0  0  0  0  0  0  0  0  0
    9.0700  -14.3472   28.6482 O   0  0  0  0  0  0  0  0  0  0  0  0
    9.1463  -12.0905   28.5400 O   0  0  0  0  0  0  0  0  0  0  0  0
  2  1  1  6
  3  2  1  0
  4  5  1  0
  4  3  1  0
  6  5  1  0
  7  6  1  0
  8  2  1  0
  9  8  2  0
 10 11  1  0
 11 13  1  0
 11 12  2  0
 13 14  1  0
 15 14  1  1
 15 16  1  0
 16  8  1  0
 17 18  2  0
 17 15  1  0
 20 19  1  6
 20 22  1  0
 21 20  1  0
 22 23  1  1
 23 17  1  0
 24 22  1  0
 25 24  2  0
 26 24  1  0
M  END
$$$$
