KQT.pdb
     RDKit          3D

 26 25  0  0  1  0  0  0  0  0999 V2000
    6.2459  -17.0761   21.3305 N   0  0  0  0  0  0  0  0  0  0  0  0
    7.3671  -16.2738   21.7842 C   0  0  1  0  0  0  0  0  0  0  0  0
    7.0560  -14.7873   21.6305 C   0  0  0  0  0  0  0  0  0  0  0  0
    7.4647  -14.3855   20.2252 C   0  0  0  0  0  0  0  0  0  0  0  0
    8.4285  -13.2375   20.2216 C   0  0  0  0  0  0  0  0  0  0  0  0
    8.8508  -12.8049   18.8549 C   0  0  0  0  0  0  0  0  0  0  0  0
    9.6154  -11.5723   18.9998 N   0  0  0  0  0  0  0  0  0  0  0  0
    7.6272  -16.6129   23.2095 C   0  0  0  0  0  0  0  0  0  0  0  0
    6.6806  -16.9358   23.9987 O   0  0  0  0  0  0  0  0  0  0  0  0
   13.1863  -17.8181   27.5620 N   0  0  0  0  0  0  0  0  0  0  0  0
   12.6371  -17.9781   26.2753 C   0  0  0  0  0  0  0  0  0  0  0  0
   13.3157  -17.7730   25.2609 O   0  0  0  0  0  0  0  0  0  0  0  0
   11.2179  -18.4007   26.1535 C   0  0  0  0  0  0  0  0  0  0  0  0
   10.6482  -17.7234   24.9501 C   0  0  0  0  0  0  0  0  0  0  0  0
    9.2478  -17.2150   25.0581 C   0  0  2  0  0  0  0  0  0  0  0  0
    8.9225  -16.5909   23.7417 N   0  0  0  0  0  0  0  0  0  0  0  0
    9.0492  -16.1284   26.0496 C   0  0  0  0  0  0  0  0  0  0  0  0
    9.0964  -16.3721   27.3087 O   0  0  0  0  0  0  0  0  0  0  0  0
    7.2221  -12.5663   25.0603 C   0  0  0  0  0  0  0  0  0  0  0  0
    7.5342  -12.8109   26.5371 C   0  0  1  0  0  0  0  0  0  0  0  0
    6.4613  -13.5645   27.0265 O   0  0  0  0  0  0  0  0  0  0  0  0
    8.7573  -13.6580   26.6011 C   0  0  2  0  0  0  0  0  0  0  0  0
    8.8014  -14.7653   25.7061 N   0  0  0  0  0  0  0  0  0  0  0  0
    9.1666  -13.9834   28.0079 C   0  0  0  0  0  0  0  0  0  0  0  0
    9.3941  -15.1523   28.3850 O   0  0  0  0  0  0  0  0  0  0  0  0
    9.2900  -12.9553   28.9065 O   0  0  0  0  0  0  0  0  0  0  0  0
  2  1  1  1
  3  2  1  0
  4  5  1  0
  4  3  1  0
  6  5  1  0
  7  6  1  0
  8  2  1  0
  9  8  2  0
 10 11  1  0
 11 13  1  0
 11 12  2  0
 13 14  1  0
 15 14  1  6
 15 16  1  0
 16  8  1  0
 17 18  2  0
 17 15  1  0
 20 19  1  6
 20 22  1  0
 21 20  1  0
 22 23  1  6
 23 17  1  0
 24 22  1  0
 25 24  2  0
 26 24  1  0
M  END
$$$$
