KQT.pdb
     RDKit          3D

 26 25  0  0  1  0  0  0  0  0999 V2000
    8.4885  -15.3138   19.4486 N   0  0  0  0  0  0  0  0  0  0  0  0
    7.5979  -15.5441   20.5713 C   0  0  1  0  0  0  0  0  0  0  0  0
    7.1529  -17.0038   20.6084 C   0  0  0  0  0  0  0  0  0  0  0  0
    7.1617  -17.5128   19.1786 C   0  0  0  0  0  0  0  0  0  0  0  0
    7.8652  -18.8302   19.0504 C   0  0  0  0  0  0  0  0  0  0  0  0
    7.7635  -19.4417   17.6905 C   0  0  0  0  0  0  0  0  0  0  0  0
    8.6453  -20.6021   17.6626 N   0  0  0  0  0  0  0  0  0  0  0  0
    8.3274  -15.1841   21.8173 C   0  0  0  0  0  0  0  0  0  0  0  0
    9.5990  -15.2310   21.8794 O   0  0  0  0  0  0  0  0  0  0  0  0
    5.7442  -11.9087   26.1451 N   0  0  0  0  0  0  0  0  0  0  0  0
    6.9061  -12.1606   26.8997 C   0  0  0  0  0  0  0  0  0  0  0  0
    7.0986  -11.5962   27.9841 O   0  0  0  0  0  0  0  0  0  0  0  0
    7.9060  -13.1229   26.3690 C   0  0  0  0  0  0  0  0  0  0  0  0
    7.4573  -13.5314   25.0040 C   0  0  0  0  0  0  0  0  0  0  0  0
    8.3648  -14.4346   24.2345 C   0  0  2  0  0  0  0  0  0  0  0  0
    7.6465  -14.7792   22.9722 N   0  0  0  0  0  0  0  0  0  0  0  0
    8.6430  -15.7424   24.8789 C   0  0  0  0  0  0  0  0  0  0  0  0
    7.6936  -16.5732   25.1145 O   0  0  0  0  0  0  0  0  0  0  0  0
   10.6950  -18.4165   23.7151 C   0  0  0  0  0  0  0  0  0  0  0  0
   11.2138  -18.2975   25.1485 C   0  0  1  0  0  0  0  0  0  0  0  0
   12.4377  -17.6263   25.0490 O   0  0  0  0  0  0  0  0  0  0  0  0
   10.2688  -17.4211   25.8945 C   0  0  2  0  0  0  0  0  0  0  0  0
    9.9423  -16.1801   25.2759 N   0  0  0  0  0  0  0  0  0  0  0  0
   10.6022  -17.3154   27.3541 C   0  0  0  0  0  0  0  0  0  0  0  0
   10.7754  -16.2169   27.9229 O   0  0  0  0  0  0  0  0  0  0  0  0
   10.7224  -18.4712   28.0818 O   0  0  0  0  0  0  0  0  0  0  0  0
  2  1  1  6
  3  2  1  0
  4  5  1  0
  4  3  1  0
  6  5  1  0
  7  6  1  0
  8  2  1  0
  9  8  2  0
 10 11  1  0
 11 13  1  0
 11 12  2  0
 13 14  1  0
 15 14  1  1
 15 16  1  0
 16  8  1  0
 17 18  2  0
 17 15  1  0
 20 19  1  6
 20 22  1  0
 21 20  1  0
 22 23  1  6
 23 17  1  0
 24 22  1  0
 25 24  2  0
 26 24  1  0
M  END
$$$$
