KQT.pdb
     RDKit          3D

 26 25  0  0  1  0  0  0  0  0999 V2000
   10.9340  -18.6079   19.9733 N   0  0  0  0  0  0  0  0  0  0  0  0
    9.6304  -18.3209   20.5434 C   0  0  1  0  0  0  0  0  0  0  0  0
    9.2559  -19.3791   21.5778 C   0  0  0  0  0  0  0  0  0  0  0  0
   10.5251  -19.7464   22.3247 C   0  0  0  0  0  0  0  0  0  0  0  0
   10.2614  -20.6868   23.4618 C   0  0  0  0  0  0  0  0  0  0  0  0
   11.4831  -21.0538   24.2405 C   0  0  0  0  0  0  0  0  0  0  0  0
   11.0565  -21.8721   25.3690 N   0  0  0  0  0  0  0  0  0  0  0  0
    9.6895  -16.9716   21.1680 C   0  0  0  0  0  0  0  0  0  0  0  0
   10.8018  -16.4207   21.4547 O   0  0  0  0  0  0  0  0  0  0  0  0
    6.9932  -13.5511   18.5696 N   0  0  0  0  0  0  0  0  0  0  0  0
    7.8479  -12.5876   19.1390 C   0  0  0  0  0  0  0  0  0  0  0  0
    8.2615  -11.6284   18.4752 O   0  0  0  0  0  0  0  0  0  0  0  0
    8.2487  -12.7419   20.5613 C   0  0  0  0  0  0  0  0  0  0  0  0
    7.7033  -14.0462   21.0438 C   0  0  0  0  0  0  0  0  0  0  0  0
    8.5698  -14.8450   21.9617 C   0  0  2  0  0  0  0  0  0  0  0  0
    8.5253  -16.2523   21.4661 N   0  0  0  0  0  0  0  0  0  0  0  0
    8.0925  -14.9243   23.3649 C   0  0  0  0  0  0  0  0  0  0  0  0
    7.0714  -15.6388   23.6714 O   0  0  0  0  0  0  0  0  0  0  0  0
    7.1622  -12.2388   25.5655 C   0  0  0  0  0  0  0  0  0  0  0  0
    7.1252  -13.6045   26.2522 C   0  0  1  0  0  0  0  0  0  0  0  0
    6.0133  -14.2633   25.7154 O   0  0  0  0  0  0  0  0  0  0  0  0
    8.3457  -14.3483   25.8340 C   0  0  2  0  0  0  0  0  0  0  0  0
    8.7047  -14.2430   24.4595 N   0  0  0  0  0  0  0  0  0  0  0  0
    8.3906  -15.7459   26.3794 C   0  0  0  0  0  0  0  0  0  0  0  0
    8.5943  -16.7413   25.6527 O   0  0  0  0  0  0  0  0  0  0  0  0
    8.1970  -15.9286   27.7243 O   0  0  0  0  0  0  0  0  0  0  0  0
  2  1  1  1
  3  2  1  0
  4  5  1  0
  4  3  1  0
  6  5  1  0
  7  6  1  0
  8  2  1  0
  9  8  2  0
 10 11  1  0
 11 13  1  0
 11 12  2  0
 13 14  1  0
 15 14  1  6
 15 16  1  0
 16  8  1  0
 17 18  2  0
 17 15  1  0
 20 19  1  6
 20 22  1  0
 21 20  1  0
 22 23  1  6
 23 17  1  0
 24 22  1  0
 25 24  2  0
 26 24  1  0
M  END
$$$$
