KQT.pdb
     RDKit          3D

 26 25  0  0  1  0  0  0  0  0999 V2000
    8.3886  -17.9761   20.0057 N   0  0  0  0  0  0  0  0  0  0  0  0
    9.7722  -17.5411   19.9504 C   0  0  1  0  0  0  0  0  0  0  0  0
   10.2560  -17.4841   18.5038 C   0  0  0  0  0  0  0  0  0  0  0  0
   10.7180  -18.8804   18.1290 C   0  0  0  0  0  0  0  0  0  0  0  0
    9.5687  -19.8097   17.8795 C   0  0  0  0  0  0  0  0  0  0  0  0
    9.9793  -21.1736   17.4271 C   0  0  0  0  0  0  0  0  0  0  0  0
    8.7690  -21.9741   17.2874 N   0  0  0  0  0  0  0  0  0  0  0  0
    9.8572  -16.1990   20.5874 C   0  0  0  0  0  0  0  0  0  0  0  0
   10.9738  -15.6039   20.7359 O   0  0  0  0  0  0  0  0  0  0  0  0
    8.8990  -11.9307   19.3253 N   0  0  0  0  0  0  0  0  0  0  0  0
    8.1669  -13.0337   18.8454 C   0  0  0  0  0  0  0  0  0  0  0  0
    8.3197  -13.4478   17.6892 O   0  0  0  0  0  0  0  0  0  0  0  0
    7.1997  -13.6982   19.7567 C   0  0  0  0  0  0  0  0  0  0  0  0
    7.6280  -13.4068   21.1577 C   0  0  0  0  0  0  0  0  0  0  0  0
    8.7848  -14.1883   21.6890 C   0  0  2  0  0  0  0  0  0  0  0  0
    8.7138  -15.5352   21.0496 N   0  0  0  0  0  0  0  0  0  0  0  0
    8.7416  -14.4607   23.1474 C   0  0  0  0  0  0  0  0  0  0  0  0
    8.6764  -13.4978   23.9934 O   0  0  0  0  0  0  0  0  0  0  0  0
    6.4319  -15.5134   25.4325 C   0  0  0  0  0  0  0  0  0  0  0  0
    7.4917  -16.5886   25.6755 C   0  0  1  0  0  0  0  0  0  0  0  0
    7.0855  -17.6925   24.9175 O   0  0  0  0  0  0  0  0  0  0  0  0
    8.7742  -16.0884   25.1076 C   0  0  2  0  0  0  0  0  0  0  0  0
    8.7635  -15.7682   23.7196 N   0  0  0  0  0  0  0  0  0  0  0  0
    9.9596  -16.8978   25.5462 C   0  0  0  0  0  0  0  0  0  0  0  0
   10.8235  -17.3084   24.7428 O   0  0  0  0  0  0  0  0  0  0  0  0
   10.0900  -17.1959   26.8781 O   0  0  0  0  0  0  0  0  0  0  0  0
  2  1  1  6
  3  2  1  0
  4  5  1  0
  4  3  1  0
  6  5  1  0
  7  6  1  0
  8  2  1  0
  9  8  2  0
 10 11  1  0
 11 13  1  0
 11 12  2  0
 13 14  1  0
 15 14  1  6
 15 16  1  0
 16  8  1  0
 17 18  2  0
 17 15  1  0
 20 19  1  6
 20 22  1  0
 21 20  1  0
 22 23  1  6
 23 17  1  0
 24 22  1  0
 25 24  2  0
 26 24  1  0
M  END
$$$$
