KQT.pdb
     RDKit          3D

 26 25  0  0  1  0  0  0  0  0999 V2000
    8.4623  -16.2076   19.9873 N   0  0  0  0  0  0  0  0  0  0  0  0
    8.0375  -15.0986   20.8217 C   0  0  1  0  0  0  0  0  0  0  0  0
    6.6109  -14.6835   20.4715 C   0  0  0  0  0  0  0  0  0  0  0  0
    6.6845  -13.8412   19.2110 C   0  0  0  0  0  0  0  0  0  0  0  0
    8.0710  -13.7899   18.6438 C   0  0  0  0  0  0  0  0  0  0  0  0
    8.1858  -12.9744   17.3967 C   0  0  0  0  0  0  0  0  0  0  0  0
    9.5380  -13.1475   16.8804 N   0  0  0  0  0  0  0  0  0  0  0  0
    8.1260  -15.5326   22.2422 C   0  0  0  0  0  0  0  0  0  0  0  0
    7.1518  -15.3723   23.0475 O   0  0  0  0  0  0  0  0  0  0  0  0
   12.7380  -19.7866   25.6464 N   0  0  0  0  0  0  0  0  0  0  0  0
   11.3917  -19.4813   25.3687 C   0  0  0  0  0  0  0  0  0  0  0  0
   10.6059  -20.3543   24.9787 O   0  0  0  0  0  0  0  0  0  0  0  0
   10.9253  -18.0827   25.5530 C   0  0  0  0  0  0  0  0  0  0  0  0
   10.5382  -17.5566   24.2096 C   0  0  0  0  0  0  0  0  0  0  0  0
    9.3600  -16.6400   24.1546 C   0  0  2  0  0  0  0  0  0  0  0  0
    9.2830  -16.1350   22.7521 N   0  0  0  0  0  0  0  0  0  0  0  0
    9.4758  -15.4181   24.9893 C   0  0  0  0  0  0  0  0  0  0  0  0
   10.4738  -14.6227   24.8537 O   0  0  0  0  0  0  0  0  0  0  0  0
    7.2312  -12.4401   25.5791 C   0  0  0  0  0  0  0  0  0  0  0  0
    7.4588  -13.0297   26.9715 C   0  0  1  0  0  0  0  0  0  0  0  0
    6.3291  -13.8122   27.2358 O   0  0  0  0  0  0  0  0  0  0  0  0
    8.6362  -13.9375   26.8854 C   0  0  2  0  0  0  0  0  0  0  0  0
    8.5221  -15.0291   25.9775 N   0  0  0  0  0  0  0  0  0  0  0  0
    9.1845  -14.3085   28.2325 C   0  0  0  0  0  0  0  0  0  0  0  0
    9.3515  -15.4957   28.5828 O   0  0  0  0  0  0  0  0  0  0  0  0
    9.5082  -13.3021   29.1055 O   0  0  0  0  0  0  0  0  0  0  0  0
  2  1  1  6
  3  2  1  0
  4  5  1  0
  4  3  1  0
  6  5  1  0
  7  6  1  0
  8  2  1  0
  9  8  2  0
 10 11  1  0
 11 13  1  0
 11 12  2  0
 13 14  1  0
 15 14  1  6
 15 16  1  0
 16  8  1  0
 17 18  2  0
 17 15  1  0
 20 19  1  6
 20 22  1  0
 21 20  1  0
 22 23  1  1
 23 17  1  0
 24 22  1  0
 25 24  2  0
 26 24  1  0
M  END
$$$$
