RTL.pdb
     RDKit          3D

 27 26  0  0  1  0  0  0  0  0999 V2000
   22.6610  -21.0675   -7.3356 N   0  0  0  0  0  0  0  0  0  0  0  0
   22.0179  -22.1109   -8.0701 C   0  0  0  0  0  0  0  0  0  0  0  0
   21.2841  -22.9420   -7.4344 N   0  0  0  0  0  0  0  0  0  0  0  0
   22.1895  -22.2260   -9.4811 N   0  0  0  0  0  0  0  0  0  0  0  0
   23.0506  -21.2445  -10.1900 C   0  0  0  0  0  0  0  0  0  0  0  0
   24.4794  -21.6874  -10.0725 C   0  0  0  0  0  0  0  0  0  0  0  0
   25.4835  -20.9100  -10.8318 C   0  0  0  0  0  0  0  0  0  0  0  0
   25.3370  -20.8062  -12.3105 C   0  0  2  0  0  0  0  0  0  0  0  0
   26.0076  -21.9384  -12.9300 N   0  0  0  0  0  0  0  0  0  0  0  0
   25.8249  -19.5216  -12.8335 C   0  0  0  0  0  0  0  0  0  0  0  0
   26.2736  -18.6394  -12.0547 O   0  0  0  0  0  0  0  0  0  0  0  0
   20.7991  -23.7063   -7.9246 C   0  0  0  0  0  0  0  0  0  0  0  0
   28.5274  -18.7335  -15.3791 C   0  0  2  0  0  0  0  0  0  0  0  0
   27.2842  -18.0239  -15.8228 O   0  0  0  0  0  0  0  0  0  0  0  0
   26.7272  -18.6266  -16.9529 C   0  0  2  0  0  0  0  0  0  0  0  0
   26.2234  -17.9465  -14.7803 N   0  0  0  0  0  0  0  0  0  0  0  0
   25.8084  -19.2155  -14.2466 C   0  0  0  0  0  0  0  0  0  0  0  0
   25.0489  -17.1139  -15.1975 O   0  0  0  0  0  0  0  0  0  0  0  0
   23.9675  -17.6450  -15.5561 C   0  0  0  0  0  0  0  0  0  0  0  0
   23.6607  -11.1032  -15.6040 C   0  0  1  0  0  0  0  0  0  0  0  0
   23.0406  -12.5083  -15.5656 C   0  0  0  0  0  0  0  0  0  0  0  0
   21.8984  -12.4489  -14.5753 C   0  0  0  0  0  0  0  0  0  0  0  0
   24.1212  -13.4381  -15.1390 C   0  0  2  0  0  0  0  0  0  0  0  0
   24.0012  -14.8407  -15.6168 N   0  0  0  0  0  0  0  0  0  0  0  0
   25.0978  -15.6947  -15.2090 C   0  0  0  0  0  0  0  0  0  0  0  0
   23.6992  -14.9863  -17.0614 O   0  0  0  0  0  0  0  0  0  0  0  0
   22.3713  -15.1029  -17.4791 O   0  0  0  0  0  0  0  0  0  0  0  0
  2  1  1  0
  3  2  2  0
  4  2  1  0
  5  4  1  0
  6  5  1  0
  7  6  1  0
  8 10  1  0
  8  7  1  0
  8  9  1  6
 10 11  2  0
 13 12  1  6
 13 14  1  0
 15 13  1  0
 16 10  1  0
 15 16  1  1
 17 18  2  0
 17 15  1  0
 20 19  1  6
 20 21  1  0
 20 22  1  0
 23 22  1  1
 23 24  1  0
 24 17  1  0
 25 26  1  0
 25 23  1  0
 27 25  2  0
M  END
$$$$
