RTL.pdb
     RDKit          3D

 27 26  0  0  1  0  0  0  0  0999 V2000
   26.7918  -20.5274   -8.8473 N   0  0  0  0  0  0  0  0  0  0  0  0
   25.4926  -20.7140   -9.4120 C   0  0  0  0  0  0  0  0  0  0  0  0
   24.4703  -20.4798   -8.6816 N   0  0  0  0  0  0  0  0  0  0  0  0
   25.3362  -21.1526  -10.7598 N   0  0  0  0  0  0  0  0  0  0  0  0
   26.5007  -21.7387  -11.4722 C   0  0  0  0  0  0  0  0  0  0  0  0
   27.2015  -20.6462  -12.2254 C   0  0  0  0  0  0  0  0  0  0  0  0
   26.5657  -20.1870  -13.4800 C   0  0  0  0  0  0  0  0  0  0  0  0
   26.2289  -21.1974  -14.5212 C   0  0  2  0  0  0  0  0  0  0  0  0
   27.3511  -21.3193  -15.4384 N   0  0  0  0  0  0  0  0  0  0  0  0
   24.9746  -20.8841  -15.2217 C   0  0  0  0  0  0  0  0  0  0  0  0
   24.8963  -19.8840  -15.9832 O   0  0  0  0  0  0  0  0  0  0  0  0
   23.5160  -20.5935   -9.0505 C   0  0  0  0  0  0  0  0  0  0  0  0
   22.7867  -22.9929  -17.5752 C   0  0  2  0  0  0  0  0  0  0  0  0
   21.9161  -22.4757  -16.4704 O   0  0  0  0  0  0  0  0  0  0  0  0
   21.5618  -23.4920  -15.5803 C   0  0  2  0  0  0  0  0  0  0  0  0
   22.5289  -21.3727  -15.6793 N   0  0  0  0  0  0  0  0  0  0  0  0
   23.7889  -21.6971  -15.0673 C   0  0  0  0  0  0  0  0  0  0  0  0
   21.5804  -20.7584  -14.6945 O   0  0  0  0  0  0  0  0  0  0  0  0
   21.9376  -20.5045  -13.5163 C   0  0  0  0  0  0  0  0  0  0  0  0
   17.6148  -17.6781  -13.4214 C   0  0  1  0  0  0  0  0  0  0  0  0
   19.0511  -17.5155  -12.9011 C   0  0  0  0  0  0  0  0  0  0  0  0
   19.3777  -16.0409  -12.9892 C   0  0  0  0  0  0  0  0  0  0  0  0
   19.9178  -18.3478  -13.7788 C   0  0  1  0  0  0  0  0  0  0  0  0
   19.3485  -19.6515  -14.2106 N   0  0  0  0  0  0  0  0  0  0  0  0
   20.2413  -20.4352  -15.0394 C   0  0  0  0  0  0  0  0  0  0  0  0
   17.9847  -19.5785  -14.7883 O   0  0  0  0  0  0  0  0  0  0  0  0
   16.8777  -19.8337  -13.9754 O   0  0  0  0  0  0  0  0  0  0  0  0
  2  1  1  0
  3  2  2  0
  4  2  1  0
  5  4  1  0
  6  5  1  0
  7  6  1  0
  8 10  1  0
  8  7  1  0
  8  9  1  6
 10 11  2  0
 13 12  1  6
 13 14  1  0
 15 13  1  0
 16 10  1  0
 15 16  1  6
 17 18  2  0
 17 15  1  0
 20 19  1  1
 20 21  1  0
 20 22  1  0
 23 22  1  1
 23 24  1  0
 24 17  1  0
 25 26  1  0
 25 23  1  0
 27 25  2  0
M  END
$$$$
