RTL.pdb
     RDKit          3D

 27 26  0  0  1  0  0  0  0  0999 V2000
   28.0929  -24.5447  -16.9416 N   0  0  0  0  0  0  0  0  0  0  0  0
   29.3281  -23.9053  -17.2690 C   0  0  0  0  0  0  0  0  0  0  0  0
   30.0731  -24.4372  -18.1608 N   0  0  0  0  0  0  0  0  0  0  0  0
   29.7244  -22.7007  -16.6167 N   0  0  0  0  0  0  0  0  0  0  0  0
   28.7878  -22.0482  -15.6658 C   0  0  0  0  0  0  0  0  0  0  0  0
   28.4224  -20.6962  -16.2044 C   0  0  0  0  0  0  0  0  0  0  0  0
   27.4083  -19.9286  -15.4483 C   0  0  0  0  0  0  0  0  0  0  0  0
   26.2201  -20.6496  -14.9127 C   0  0  2  0  0  0  0  0  0  0  0  0
   25.2484  -20.8139  -15.9823 N   0  0  0  0  0  0  0  0  0  0  0  0
   25.6409  -19.9810  -13.7381 C   0  0  0  0  0  0  0  0  0  0  0  0
   24.9086  -18.9652  -13.8730 O   0  0  0  0  0  0  0  0  0  0  0  0
   30.9663  -24.0048  -18.4346 C   0  0  0  0  0  0  0  0  0  0  0  0
   23.1644  -19.2578  -12.6453 C   0  0  2  0  0  0  0  0  0  0  0  0
   23.6319  -20.0610  -11.4697 O   0  0  0  0  0  0  0  0  0  0  0  0
   23.2451  -21.3986  -11.5780 C   0  0  2  0  0  0  0  0  0  0  0  0
   25.1061  -20.0304  -11.2600 N   0  0  0  0  0  0  0  0  0  0  0  0
   25.8854  -20.4510  -12.3928 C   0  0  0  0  0  0  0  0  0  0  0  0
   25.5361  -20.7293  -10.0057 O   0  0  0  0  0  0  0  0  0  0  0  0
   25.7323  -21.9709   -9.9855 C   0  0  0  0  0  0  0  0  0  0  0  0
   29.0505  -20.5262   -6.9826 C   0  0  2  0  0  0  0  0  0  0  0  0
   28.0942  -19.3251   -7.0387 C   0  0  0  0  0  0  0  0  0  0  0  0
   28.6822  -18.2628   -6.1362 C   0  0  0  0  0  0  0  0  0  0  0  0
   26.7712  -19.8128   -6.5632 C   0  0  2  0  0  0  0  0  0  0  0  0
   26.0108  -20.6667   -7.5134 N   0  0  0  0  0  0  0  0  0  0  0  0
   25.7416  -20.0306   -8.7867 C   0  0  0  0  0  0  0  0  0  0  0  0
   24.7958  -21.3026   -6.9491 O   0  0  0  0  0  0  0  0  0  0  0  0
   24.9275  -22.3781   -6.0675 O   0  0  0  0  0  0  0  0  0  0  0  0
  2  1  1  0
  3  2  2  0
  4  2  1  0
  5  4  1  0
  6  5  1  0
  7  6  1  0
  8 10  1  0
  8  7  1  0
  8  9  1  6
 10 11  2  0
 13 12  1  1
 13 14  1  0
 15 13  1  0
 16 10  1  0
 15 16  1  1
 17 18  2  0
 17 15  1  0
 20 19  1  6
 20 21  1  0
 20 22  1  0
 23 22  1  6
 23 24  1  0
 24 17  1  0
 25 26  1  0
 25 23  1  0
 27 25  2  0
M  END
$$$$
