RTL.pdb
     RDKit          3D

 27 26  0  0  1  0  0  0  0  0999 V2000
   26.4993  -24.0635  -16.2245 N   0  0  0  0  0  0  0  0  0  0  0  0
   27.1739  -25.1623  -16.8402 C   0  0  0  0  0  0  0  0  0  0  0  0
   27.0513  -26.3230  -16.3195 N   0  0  0  0  0  0  0  0  0  0  0  0
   27.9679  -24.9718  -18.0093 N   0  0  0  0  0  0  0  0  0  0  0  0
   28.1300  -23.6021  -18.5614 C   0  0  0  0  0  0  0  0  0  0  0  0
   29.1564  -22.8740  -17.7440 C   0  0  0  0  0  0  0  0  0  0  0  0
   28.7277  -21.6089  -17.1078 C   0  0  0  0  0  0  0  0  0  0  0  0
   27.8508  -20.6836  -17.8782 C   0  0  2  0  0  0  0  0  0  0  0  0
   28.6865  -19.7578  -18.6264 N   0  0  0  0  0  0  0  0  0  0  0  0
   26.8826  -19.9842  -17.0206 C   0  0  0  0  0  0  0  0  0  0  0  0
   27.1765  -18.8827  -16.4854 O   0  0  0  0  0  0  0  0  0  0  0  0
   27.4734  -27.1514  -16.7615 C   0  0  0  0  0  0  0  0  0  0  0  0
   23.6098  -18.4701  -17.7487 C   0  0  2  0  0  0  0  0  0  0  0  0
   23.3656  -19.4228  -16.6180 O   0  0  0  0  0  0  0  0  0  0  0  0
   22.6906  -20.5667  -17.0499 C   0  0  2  0  0  0  0  0  0  0  0  0
   24.6032  -19.8638  -15.9165 N   0  0  0  0  0  0  0  0  0  0  0  0
   25.5682  -20.5240  -16.7533 C   0  0  0  0  0  0  0  0  0  0  0  0
   24.3245  -20.6502  -14.6712 O   0  0  0  0  0  0  0  0  0  0  0  0
   25.0525  -21.6182  -14.3346 C   0  0  0  0  0  0  0  0  0  0  0  0
   23.1464  -20.1665   -9.4863 C   0  0  1  0  0  0  0  0  0  0  0  0
   24.1990  -21.0323  -10.1953 C   0  0  0  0  0  0  0  0  0  0  0  0
   25.4947  -20.8431   -9.4376 C   0  0  0  0  0  0  0  0  0  0  0  0
   24.2783  -20.5414  -11.5978 C   0  0  2  0  0  0  0  0  0  0  0  0
   23.0983  -20.8256  -12.4562 N   0  0  0  0  0  0  0  0  0  0  0  0
   23.2330  -20.3445  -13.8158 C   0  0  0  0  0  0  0  0  0  0  0  0
   21.7905  -20.4493  -11.8671 O   0  0  0  0  0  0  0  0  0  0  0  0
   21.1050  -21.3677  -11.0683 O   0  0  0  0  0  0  0  0  0  0  0  0
  2  1  1  0
  3  2  2  0
  4  2  1  0
  5  4  1  0
  6  5  1  0
  7  6  1  0
  8 10  1  0
  8  7  1  0
  8  9  1  1
 10 11  2  0
 13 12  1  1
 13 14  1  0
 15 13  1  0
 16 10  1  0
 15 16  1  1
 17 18  2  0
 17 15  1  0
 20 19  1  1
 20 21  1  0
 20 22  1  0
 23 22  1  6
 23 24  1  0
 24 17  1  0
 25 26  1  0
 25 23  1  0
 27 25  2  0
M  END
$$$$
