RTL.pdb
     RDKit          3D

 27 26  0  0  1  0  0  0  0  0999 V2000
   27.9797  -24.2400  -16.7258 N   0  0  0  0  0  0  0  0  0  0  0  0
   26.6316  -24.0550  -16.2898 C   0  0  0  0  0  0  0  0  0  0  0  0
   26.0074  -25.0547  -15.7957 N   0  0  0  0  0  0  0  0  0  0  0  0
   25.9935  -22.7848  -16.4027 N   0  0  0  0  0  0  0  0  0  0  0  0
   26.7454  -21.6440  -16.9862 C   0  0  0  0  0  0  0  0  0  0  0  0
   26.5816  -21.6745  -18.4775 C   0  0  0  0  0  0  0  0  0  0  0  0
   25.2061  -21.5222  -19.0009 C   0  0  0  0  0  0  0  0  0  0  0  0
   24.7081  -20.1533  -19.3121 C   0  0  2  0  0  0  0  0  0  0  0  0
   25.6402  -19.5103  -20.2249 N   0  0  0  0  0  0  0  0  0  0  0  0
   24.4787  -19.3512  -18.1013 C   0  0  0  0  0  0  0  0  0  0  0  0
   24.4805  -18.0929  -18.1541 O   0  0  0  0  0  0  0  0  0  0  0  0
   25.0201  -24.9788  -15.5141 C   0  0  0  0  0  0  0  0  0  0  0  0
   22.3872  -17.8023  -17.3617 C   0  0  2  0  0  0  0  0  0  0  0  0
   22.3028  -18.6188  -16.1078 O   0  0  0  0  0  0  0  0  0  0  0  0
   21.3170  -19.6035  -16.2043 C   0  0  2  0  0  0  0  0  0  0  0  0
   23.5785  -19.2889  -15.7316 N   0  0  0  0  0  0  0  0  0  0  0  0
   24.2473  -19.9626  -16.8116 C   0  0  0  0  0  0  0  0  0  0  0  0
   23.4454  -20.1737  -14.5291 O   0  0  0  0  0  0  0  0  0  0  0  0
   23.3706  -21.4234  -14.6439 C   0  0  0  0  0  0  0  0  0  0  0  0
   23.5341  -20.4676   -8.9394 C   0  0  1  0  0  0  0  0  0  0  0  0
   24.6572  -20.9630   -9.8632 C   0  0  0  0  0  0  0  0  0  0  0  0
   25.9557  -20.7494   -9.1169 C   0  0  0  0  0  0  0  0  0  0  0  0
   24.5719  -20.1525  -11.1082 C   0  0  2  0  0  0  0  0  0  0  0  0
   23.4272  -20.4560  -12.0070 N   0  0  0  0  0  0  0  0  0  0  0  0
   23.3969  -19.6498  -13.2101 C   0  0  0  0  0  0  0  0  0  0  0  0
   22.1029  -20.4995  -11.3412 O   0  0  0  0  0  0  0  0  0  0  0  0
   21.6205  -21.7133  -10.8459 O   0  0  0  0  0  0  0  0  0  0  0  0
  2  1  1  0
  3  2  2  0
  4  2  1  0
  5  4  1  0
  6  5  1  0
  7  6  1  0
  8 10  1  0
  8  7  1  0
  8  9  1  6
 10 11  2  0
 13 12  1  1
 13 14  1  0
 15 13  1  0
 16 10  1  0
 15 16  1  1
 17 18  2  0
 17 15  1  0
 20 19  1  1
 20 21  1  0
 20 22  1  0
 23 22  1  6
 23 24  1  0
 24 17  1  0
 25 26  1  0
 25 23  1  0
 27 25  2  0
M  END
$$$$
