RTL.pdb
     RDKit          3D

 27 26  0  0  1  0  0  0  0  0999 V2000
   29.3374  -27.7884  -16.6380 N   0  0  0  0  0  0  0  0  0  0  0  0
   28.0361  -28.0625  -17.1607 C   0  0  0  0  0  0  0  0  0  0  0  0
   27.5297  -29.2189  -16.9620 N   0  0  0  0  0  0  0  0  0  0  0  0
   27.3159  -27.0704  -17.8891 N   0  0  0  0  0  0  0  0  0  0  0  0
   27.8491  -25.6851  -17.9507 C   0  0  0  0  0  0  0  0  0  0  0  0
   28.1543  -25.2263  -16.5550 C   0  0  0  0  0  0  0  0  0  0  0  0
   28.6137  -23.8287  -16.3976 C   0  0  0  0  0  0  0  0  0  0  0  0
   28.2674  -22.8398  -17.4563 C   0  0  2  0  0  0  0  0  0  0  0  0
   29.4939  -22.3758  -18.0855 N   0  0  0  0  0  0  0  0  0  0  0  0
   27.4561  -21.7272  -16.9407 C   0  0  0  0  0  0  0  0  0  0  0  0
   27.9941  -20.6351  -16.6182 O   0  0  0  0  0  0  0  0  0  0  0  0
   26.6118  -29.4718  -17.3535 C   0  0  0  0  0  0  0  0  0  0  0  0
   23.3440  -19.1553  -16.4863 C   0  0  1  0  0  0  0  0  0  0  0  0
   24.2361  -20.1733  -17.1296 O   0  0  0  0  0  0  0  0  0  0  0  0
   24.9514  -19.6249  -18.1965 C   0  0  1  0  0  0  0  0  0  0  0  0
   25.2170  -20.7971  -16.1985 N   0  0  0  0  0  0  0  0  0  0  0  0
   26.0234  -21.8362  -16.7793 C   0  0  0  0  0  0  0  0  0  0  0  0
   24.6016  -21.2360  -14.9041 O   0  0  0  0  0  0  0  0  0  0  0  0
   23.9333  -22.2980  -14.8268 C   0  0  0  0  0  0  0  0  0  0  0  0
   23.1873  -19.8736   -9.7333 C   0  0  1  0  0  0  0  0  0  0  0  0
   24.3459  -20.8613   -9.9395 C   0  0  0  0  0  0  0  0  0  0  0  0
   25.3055  -20.6468   -8.7897 C   0  0  0  0  0  0  0  0  0  0  0  0
   24.9514  -20.5364  -11.2594 C   0  0  2  0  0  0  0  0  0  0  0  0
   24.1070  -20.8152  -12.4508 N   0  0  0  0  0  0  0  0  0  0  0  0
   24.7408  -20.4808  -13.7096 C   0  0  0  0  0  0  0  0  0  0  0  0
   22.7233  -20.2871  -12.3748 O   0  0  0  0  0  0  0  0  0  0  0  0
   21.6660  -21.1612  -12.1114 O   0  0  0  0  0  0  0  0  0  0  0  0
  2  1  1  0
  3  2  2  0
  4  2  1  0
  5  4  1  0
  6  5  1  0
  7  6  1  0
  8 10  1  0
  8  7  1  0
  8  9  1  1
 10 11  2  0
 13 12  1  6
 13 14  1  0
 15 13  1  0
 16 10  1  0
 15 16  1  6
 17 18  2  0
 17 15  1  0
 20 19  1  1
 20 21  1  0
 20 22  1  0
 23 22  1  6
 23 24  1  0
 24 17  1  0
 25 26  1  0
 25 23  1  0
 27 25  2  0
M  END
$$$$
