RTL.pdb
     RDKit          3D

 27 26  0  0  1  0  0  0  0  0999 V2000
   12.5086  -14.6447  -14.2962 N   0  0  0  0  0  0  0  0  0  0  0  0
   13.3537  -15.6184  -14.9121 C   0  0  0  0  0  0  0  0  0  0  0  0
   12.8724  -16.7767  -15.1572 N   0  0  0  0  0  0  0  0  0  0  0  0
   14.7048  -15.3085  -15.2466 N   0  0  0  0  0  0  0  0  0  0  0  0
   15.0687  -13.9051  -15.5711 C   0  0  0  0  0  0  0  0  0  0  0  0
   15.8298  -13.8939  -16.8642 C   0  0  0  0  0  0  0  0  0  0  0  0
   16.4131  -12.6005  -17.2839 C   0  0  0  0  0  0  0  0  0  0  0  0
   17.0842  -12.5171  -18.6110 C   0  0  2  0  0  0  0  0  0  0  0  0
   17.2871  -13.8641  -19.1208 N   0  0  0  0  0  0  0  0  0  0  0  0
   18.3386  -11.7518  -18.5579 C   0  0  0  0  0  0  0  0  0  0  0  0
   19.4512  -12.3343  -18.6529 O   0  0  0  0  0  0  0  0  0  0  0  0
   13.4627  -17.5272  -15.5418 C   0  0  0  0  0  0  0  0  0  0  0  0
   19.3598   -8.9841  -20.9064 C   0  0  2  0  0  0  0  0  0  0  0  0
   19.5398   -8.4664  -19.5115 O   0  0  0  0  0  0  0  0  0  0  0  0
   18.5431   -7.5479  -19.1744 C   0  0  2  0  0  0  0  0  0  0  0  0
   19.5519   -9.5272  -18.4662 N   0  0  0  0  0  0  0  0  0  0  0  0
   18.3517  -10.3154  -18.3927 C   0  0  0  0  0  0  0  0  0  0  0  0
   19.9598   -9.0180  -17.1167 O   0  0  0  0  0  0  0  0  0  0  0  0
   19.1130   -8.8338  -16.2060 C   0  0  0  0  0  0  0  0  0  0  0  0
   22.4086  -10.6395  -13.6937 C   0  0  2  0  0  0  0  0  0  0  0  0
   23.2041  -10.2868  -14.9597 C   0  0  0  0  0  0  0  0  0  0  0  0
   24.6226  -10.7563  -14.7228 C   0  0  0  0  0  0  0  0  0  0  0  0
   23.1089   -8.8109  -15.1239 C   0  0  2  0  0  0  0  0  0  0  0  0
   21.7715   -8.2813  -15.4995 N   0  0  0  0  0  0  0  0  0  0  0  0
   21.3118   -8.7198  -16.8012 C   0  0  0  0  0  0  0  0  0  0  0  0
   21.6051   -6.8184  -15.3221 O   0  0  0  0  0  0  0  0  0  0  0  0
   21.4811   -6.2904  -14.0347 O   0  0  0  0  0  0  0  0  0  0  0  0
  2  1  1  0
  3  2  2  0
  4  2  1  0
  5  4  1  0
  6  5  1  0
  7  6  1  0
  8 10  1  0
  8  7  1  0
  8  9  1  1
 10 11  2  0
 13 12  1  6
 13 14  1  0
 15 13  1  0
 16 10  1  0
 15 16  1  1
 17 18  2  0
 17 15  1  0
 20 19  1  6
 20 21  1  0
 20 22  1  0
 23 22  1  1
 23 24  1  0
 24 17  1  0
 25 26  1  0
 25 23  1  0
 27 25  2  0
M  END
$$$$
