RTL.pdb
     RDKit          3D

 27 26  0  0  1  0  0  0  0  0999 V2000
   19.1709  -20.4808  -15.6639 N   0  0  0  0  0  0  0  0  0  0  0  0
   18.9299  -19.9873  -14.3448 C   0  0  0  0  0  0  0  0  0  0  0  0
   17.7203  -19.8619  -13.9517 N   0  0  0  0  0  0  0  0  0  0  0  0
   20.0123  -19.6407  -13.4836 N   0  0  0  0  0  0  0  0  0  0  0  0
   21.4058  -19.7619  -13.9844 C   0  0  0  0  0  0  0  0  0  0  0  0
   21.7864  -21.2133  -13.9967 C   0  0  0  0  0  0  0  0  0  0  0  0
   22.8882  -21.6217  -13.0976 C   0  0  0  0  0  0  0  0  0  0  0  0
   24.2647  -21.1315  -13.3867 C   0  0  2  0  0  0  0  0  0  0  0  0
   24.5566  -21.3530  -14.7942 N   0  0  0  0  0  0  0  0  0  0  0  0
   25.2738  -21.7442  -12.5102 C   0  0  0  0  0  0  0  0  0  0  0  0
   26.0339  -22.6512  -12.9413 O   0  0  0  0  0  0  0  0  0  0  0  0
   17.5015  -19.5274  -13.0030 C   0  0  0  0  0  0  0  0  0  0  0  0
   28.0895  -21.4328  -12.5440 C   0  0  2  0  0  0  0  0  0  0  0  0
   27.8263  -20.7480  -11.2373 O   0  0  0  0  0  0  0  0  0  0  0  0
   27.5504  -19.3908  -11.4178 C   0  0  2  0  0  0  0  0  0  0  0  0
   26.7044  -21.3393  -10.4562 N   0  0  0  0  0  0  0  0  0  0  0  0
   25.4348  -21.3411  -11.1310 C   0  0  0  0  0  0  0  0  0  0  0  0
   26.5914  -20.7764   -9.0716 O   0  0  0  0  0  0  0  0  0  0  0  0
   25.5334  -20.2242   -8.6765 C   0  0  0  0  0  0  0  0  0  0  0  0
   28.3778  -21.3882   -4.0731 C   0  0  1  0  0  0  0  0  0  0  0  0
   29.1875  -21.5257   -5.3714 C   0  0  0  0  0  0  0  0  0  0  0  0
   30.6308  -21.7198   -4.9614 C   0  0  0  0  0  0  0  0  0  0  0  0
   28.9742  -20.2697   -6.1403 C   0  0  2  0  0  0  0  0  0  0  0  0
   27.6801  -20.1595   -6.8637 N   0  0  0  0  0  0  0  0  0  0  0  0
   27.6647  -20.8373   -8.1438 C   0  0  0  0  0  0  0  0  0  0  0  0
   27.1337  -18.7845   -6.9634 O   0  0  0  0  0  0  0  0  0  0  0  0
   26.3624  -18.2723   -5.9173 O   0  0  0  0  0  0  0  0  0  0  0  0
  2  1  1  0
  3  2  2  0
  4  2  1  0
  5  4  1  0
  6  5  1  0
  7  6  1  0
  8 10  1  0
  8  7  1  0
  8  9  1  6
 10 11  2  0
 13 12  1  1
 13 14  1  0
 15 13  1  0
 16 10  1  0
 15 16  1  1
 17 18  2  0
 17 15  1  0
 20 19  1  1
 20 21  1  0
 20 22  1  0
 23 22  1  1
 23 24  1  0
 24 17  1  0
 25 26  1  0
 25 23  1  0
 27 25  2  0
M  END
$$$$
