RTL.pdb
     RDKit          3D

 27 26  0  0  1  0  0  0  0  0999 V2000
   27.7952  -23.1265  -16.6988 N   0  0  0  0  0  0  0  0  0  0  0  0
   27.8564  -21.8400  -17.3176 C   0  0  0  0  0  0  0  0  0  0  0  0
   27.9166  -21.7783  -18.5926 N   0  0  0  0  0  0  0  0  0  0  0  0
   27.8513  -20.6493  -16.5329 N   0  0  0  0  0  0  0  0  0  0  0  0
   28.2979  -20.7109  -15.1173 C   0  0  0  0  0  0  0  0  0  0  0  0
   27.5575  -19.6660  -14.3351 C   0  0  0  0  0  0  0  0  0  0  0  0
   26.2381  -20.0523  -13.7882 C   0  0  0  0  0  0  0  0  0  0  0  0
   25.0365  -19.9134  -14.6574 C   0  0  2  0  0  0  0  0  0  0  0  0
   24.8741  -18.5128  -15.0147 N   0  0  0  0  0  0  0  0  0  0  0  0
   23.8261  -20.4682  -14.0338 C   0  0  0  0  0  0  0  0  0  0  0  0
   23.7696  -21.6840  -13.7101 O   0  0  0  0  0  0  0  0  0  0  0  0
   28.0023  -20.8744  -19.0778 C   0  0  0  0  0  0  0  0  0  0  0  0
   22.1605  -20.2144  -10.8685 C   0  0  2  0  0  0  0  0  0  0  0  0
   21.1094  -19.8156  -11.8595 O   0  0  0  0  0  0  0  0  0  0  0  0
   20.8746  -18.4392  -11.8297 C   0  0  2  0  0  0  0  0  0  0  0  0
   21.4255  -20.1918  -13.2655 N   0  0  0  0  0  0  0  0  0  0  0  0
   22.6599  -19.6549  -13.7707 C   0  0  0  0  0  0  0  0  0  0  0  0
   20.2889  -19.9424  -14.2104 O   0  0  0  0  0  0  0  0  0  0  0  0
   20.3667  -19.0644  -15.1067 C   0  0  0  0  0  0  0  0  0  0  0  0
   15.4368  -21.6815  -16.3173 C   0  0  1  0  0  0  0  0  0  0  0  0
   16.6662  -21.1319  -17.0567 C   0  0  0  0  0  0  0  0  0  0  0  0
   16.7779  -21.9125  -18.3478 C   0  0  0  0  0  0  0  0  0  0  0  0
   17.8326  -21.3426  -16.1570 C   0  0  2  0  0  0  0  0  0  0  0  0
   17.9222  -20.4363  -14.9820 N   0  0  0  0  0  0  0  0  0  0  0  0
   19.0766  -20.6788  -14.1414 C   0  0  0  0  0  0  0  0  0  0  0  0
   16.6770  -20.3193  -14.1852 O   0  0  0  0  0  0  0  0  0  0  0  0
   15.6911  -19.4107  -14.5773 O   0  0  0  0  0  0  0  0  0  0  0  0
  2  1  1  0
  3  2  2  0
  4  2  1  0
  5  4  1  0
  6  5  1  0
  7  6  1  0
  8 10  1  0
  8  7  1  0
  8  9  1  1
 10 11  2  0
 13 12  1  1
 13 14  1  0
 15 13  1  0
 16 10  1  0
 15 16  1  6
 17 18  2  0
 17 15  1  0
 20 19  1  6
 20 21  1  0
 20 22  1  0
 23 22  1  6
 23 24  1  0
 24 17  1  0
 25 26  1  0
 25 23  1  0
 27 25  2  0
M  END
$$$$
