RTL.pdb
     RDKit          3D

 27 26  0  0  1  0  0  0  0  0999 V2000
   17.0255  -21.4600  -12.3681 N   0  0  0  0  0  0  0  0  0  0  0  0
   17.4625  -22.0844  -11.1594 C   0  0  0  0  0  0  0  0  0  0  0  0
   16.7538  -23.0283  -10.6693 N   0  0  0  0  0  0  0  0  0  0  0  0
   18.6617  -21.6658  -10.5112 N   0  0  0  0  0  0  0  0  0  0  0  0
   19.3708  -20.4578  -11.0064 C   0  0  0  0  0  0  0  0  0  0  0  0
   19.9805  -20.7730  -12.3408 C   0  0  0  0  0  0  0  0  0  0  0  0
   21.2822  -21.4763  -12.3301 C   0  0  0  0  0  0  0  0  0  0  0  0
   22.4231  -20.8779  -13.0777 C   0  0  2  0  0  0  0  0  0  0  0  0
   22.2265  -21.1099  -14.5000 N   0  0  0  0  0  0  0  0  0  0  0  0
   23.7241  -21.3794  -12.6110 C   0  0  0  0  0  0  0  0  0  0  0  0
   23.9334  -22.6163  -12.4987 O   0  0  0  0  0  0  0  0  0  0  0  0
   16.9947  -23.4602   -9.7664 C   0  0  0  0  0  0  0  0  0  0  0  0
   26.8978  -21.4975  -14.1455 C   0  0  2  0  0  0  0  0  0  0  0  0
   27.1811  -20.8068  -12.8461 O   0  0  0  0  0  0  0  0  0  0  0  0
   27.4120  -19.4420  -13.0322 C   0  0  2  0  0  0  0  0  0  0  0  0
   26.0989  -20.9500  -11.8329 N   0  0  0  0  0  0  0  0  0  0  0  0
   24.8067  -20.4871  -12.2610 C   0  0  0  0  0  0  0  0  0  0  0  0
   26.4694  -20.3878  -10.4937 O   0  0  0  0  0  0  0  0  0  0  0  0
   25.7999  -19.4635   -9.9666 C   0  0  0  0  0  0  0  0  0  0  0  0
   28.0994  -18.6577   -6.3337 C   0  0  1  0  0  0  0  0  0  0  0  0
   27.1552  -19.8494   -6.1134 C   0  0  0  0  0  0  0  0  0  0  0  0
   27.9005  -20.8347   -5.2402 C   0  0  0  0  0  0  0  0  0  0  0  0
   26.8436  -20.3993   -7.4606 C   0  0  1  0  0  0  0  0  0  0  0  0
   27.9614  -20.3969   -8.4407 N   0  0  0  0  0  0  0  0  0  0  0  0
   27.5862  -20.8664   -9.7587 C   0  0  0  0  0  0  0  0  0  0  0  0
   29.2123  -21.0358   -7.9652 O   0  0  0  0  0  0  0  0  0  0  0  0
   30.0599  -20.3344   -7.1045 O   0  0  0  0  0  0  0  0  0  0  0  0
  2  1  1  0
  3  2  2  0
  4  2  1  0
  5  4  1  0
  6  5  1  0
  7  6  1  0
  8 10  1  0
  8  7  1  0
  8  9  1  6
 10 11  2  0
 13 12  1  6
 13 14  1  0
 15 13  1  0
 16 10  1  0
 15 16  1  1
 17 18  2  0
 17 15  1  0
 20 19  1  1
 20 21  1  0
 20 22  1  0
 23 22  1  6
 23 24  1  0
 24 17  1  0
 25 26  1  0
 25 23  1  0
 27 25  2  0
M  END
$$$$
