RTL.pdb
     RDKit          3D

 27 26  0  0  1  0  0  0  0  0999 V2000
   28.5765  -24.6944  -16.1068 N   0  0  0  0  0  0  0  0  0  0  0  0
   29.9237  -24.6234  -16.5776 C   0  0  0  0  0  0  0  0  0  0  0  0
   30.6929  -25.6247  -16.3800 N   0  0  0  0  0  0  0  0  0  0  0  0
   30.4031  -23.4624  -17.2527 N   0  0  0  0  0  0  0  0  0  0  0  0
   29.4533  -22.3667  -17.5760 C   0  0  0  0  0  0  0  0  0  0  0  0
   29.4510  -21.3840  -16.4420 C   0  0  0  0  0  0  0  0  0  0  0  0
   28.2051  -20.6152  -16.2280 C   0  0  0  0  0  0  0  0  0  0  0  0
   27.0475  -21.2963  -15.5840 C   0  0  2  0  0  0  0  0  0  0  0  0
   26.0881  -21.6663  -16.6127 N   0  0  0  0  0  0  0  0  0  0  0  0
   26.4349  -20.4805  -14.5252 C   0  0  0  0  0  0  0  0  0  0  0  0
   25.9745  -19.3364  -14.7806 O   0  0  0  0  0  0  0  0  0  0  0  0
   31.6453  -25.6487  -16.7698 C   0  0  0  0  0  0  0  0  0  0  0  0
   23.8026  -19.6464  -13.9521 C   0  0  2  0  0  0  0  0  0  0  0  0
   24.0136  -20.3167  -12.6284 O   0  0  0  0  0  0  0  0  0  0  0  0
   23.5166  -21.6219  -12.6314 C   0  0  2  0  0  0  0  0  0  0  0  0
   25.4377  -20.3742  -12.1963 N   0  0  0  0  0  0  0  0  0  0  0  0
   26.3379  -20.9470  -13.1600 C   0  0  0  0  0  0  0  0  0  0  0  0
   25.6164  -20.9903  -10.8416 O   0  0  0  0  0  0  0  0  0  0  0  0
   25.9219  -22.2029  -10.7118 C   0  0  0  0  0  0  0  0  0  0  0  0
   28.5092  -20.4623   -7.5083 C   0  0  2  0  0  0  0  0  0  0  0  0
   27.4597  -19.3584   -7.7087 C   0  0  0  0  0  0  0  0  0  0  0  0
   27.8777  -18.2007   -6.8290 C   0  0  0  0  0  0  0  0  0  0  0  0
   26.1500  -19.9394   -7.3071 C   0  0  2  0  0  0  0  0  0  0  0  0
   25.4861  -20.8092   -8.3135 N   0  0  0  0  0  0  0  0  0  0  0  0
   25.4507  -20.2422   -9.6460 C   0  0  0  0  0  0  0  0  0  0  0  0
   24.1624  -21.3396   -7.9067 O   0  0  0  0  0  0  0  0  0  0  0  0
   24.0682  -22.1741   -6.7904 O   0  0  0  0  0  0  0  0  0  0  0  0
  2  1  1  0
  3  2  2  0
  4  2  1  0
  5  4  1  0
  6  5  1  0
  7  6  1  0
  8 10  1  0
  8  7  1  0
  8  9  1  6
 10 11  2  0
 13 12  1  1
 13 14  1  0
 15 13  1  0
 16 10  1  0
 15 16  1  1
 17 18  2  0
 17 15  1  0
 20 19  1  6
 20 21  1  0
 20 22  1  0
 23 22  1  6
 23 24  1  0
 24 17  1  0
 25 26  1  0
 25 23  1  0
 27 25  2  0
M  END
$$$$
