RTL.pdb
     RDKit          3D

 27 26  0  0  1  0  0  0  0  0999 V2000
   45.9205   -5.7734   -8.7323 N   0  0  0  0  0  0  0  0  0  0  0  0
   44.8242   -5.1256   -8.0840 C   0  0  0  0  0  0  0  0  0  0  0  0
   44.5429   -3.9238   -8.4155 N   0  0  0  0  0  0  0  0  0  0  0  0
   44.0593   -5.8017   -7.0884 N   0  0  0  0  0  0  0  0  0  0  0  0
   44.4052   -7.2024   -6.7342 C   0  0  0  0  0  0  0  0  0  0  0  0
   43.7329   -8.1236   -7.7095 C   0  0  0  0  0  0  0  0  0  0  0  0
   43.9036   -9.5756   -7.4822 C   0  0  0  0  0  0  0  0  0  0  0  0
   43.3424  -10.5257   -8.4826 C   0  0  2  0  0  0  0  0  0  0  0  0
   41.8984  -10.3587   -8.5311 N   0  0  0  0  0  0  0  0  0  0  0  0
   43.7286  -11.9183   -8.2116 C   0  0  0  0  0  0  0  0  0  0  0  0
   43.0767  -12.6181   -7.3921 O   0  0  0  0  0  0  0  0  0  0  0  0
   43.7942   -3.4022   -7.9390 C   0  0  0  0  0  0  0  0  0  0  0  0
   43.0275  -14.7364   -9.8010 C   0  0  2  0  0  0  0  0  0  0  0  0
   44.5248  -14.7989   -9.7887 O   0  0  0  0  0  0  0  0  0  0  0  0
   45.0618  -14.4389  -11.0267 C   0  0  2  0  0  0  0  0  0  0  0  0
   45.1606  -13.9401   -8.7512 N   0  0  0  0  0  0  0  0  0  0  0  0
   44.8613  -12.5382   -8.8623 C   0  0  0  0  0  0  0  0  0  0  0  0
   46.6338  -14.1794   -8.6121 O   0  0  0  0  0  0  0  0  0  0  0  0
   47.4717  -13.4414   -9.1898 C   0  0  0  0  0  0  0  0  0  0  0  0
   50.0392  -13.7652   -5.8853 C   0  0  2  0  0  0  0  0  0  0  0  0
   49.0002  -14.7856   -5.3959 C   0  0  0  0  0  0  0  0  0  0  0  0
   49.4308  -15.2084   -4.0086 C   0  0  0  0  0  0  0  0  0  0  0  0
   49.0184  -15.9109   -6.3694 C   0  0  2  0  0  0  0  0  0  0  0  0
   48.5573  -15.5901   -7.7459 N   0  0  0  0  0  0  0  0  0  0  0  0
   47.1534  -15.2430   -7.8278 C   0  0  0  0  0  0  0  0  0  0  0  0
   48.9398  -16.5807   -8.7809 O   0  0  0  0  0  0  0  0  0  0  0  0
   47.9454  -17.3103   -9.4369 O   0  0  0  0  0  0  0  0  0  0  0  0
  2  1  1  0
  3  2  2  0
  4  2  1  0
  5  4  1  0
  6  5  1  0
  7  6  1  0
  8 10  1  0
  8  7  1  0
  8  9  1  1
 10 11  2  0
 13 12  1  6
 13 14  1  0
 15 13  1  0
 16 10  1  0
 15 16  1  1
 17 18  2  0
 17 15  1  0
 20 19  1  1
 20 21  1  0
 20 22  1  0
 23 22  1  1
 23 24  1  0
 24 17  1  0
 25 26  1  0
 25 23  1  0
 27 25  2  0
M  END
$$$$
