RTL.pdb
     RDKit          3D

 27 26  0  0  1  0  0  0  0  0999 V2000
   21.9328  -21.3653   -9.1263 N   0  0  0  0  0  0  0  0  0  0  0  0
   22.7816  -21.2325   -7.9846 C   0  0  0  0  0  0  0  0  0  0  0  0
   22.3297  -21.5883   -6.8434 N   0  0  0  0  0  0  0  0  0  0  0  0
   24.1040  -20.7142   -8.1118 N   0  0  0  0  0  0  0  0  0  0  0  0
   24.6241  -20.3755   -9.4616 C   0  0  0  0  0  0  0  0  0  0  0  0
   25.9725  -21.0121   -9.6295 C   0  0  0  0  0  0  0  0  0  0  0  0
   26.6794  -20.7516  -10.9029 C   0  0  0  0  0  0  0  0  0  0  0  0
   26.0828  -21.2632  -12.1682 C   0  0  2  0  0  0  0  0  0  0  0  0
   27.0251  -22.1754  -12.7971 N   0  0  0  0  0  0  0  0  0  0  0  0
   25.6749  -20.1793  -13.0742 C   0  0  0  0  0  0  0  0  0  0  0  0
   26.5350  -19.4293  -13.6072 O   0  0  0  0  0  0  0  0  0  0  0  0
   22.8919  -21.4718   -5.9889 C   0  0  0  0  0  0  0  0  0  0  0  0
   25.7648  -20.5856  -15.8383 C   0  0  2  0  0  0  0  0  0  0  0  0
   24.2920  -20.3089  -15.8238 O   0  0  0  0  0  0  0  0  0  0  0  0
   23.5497  -21.4918  -15.8043 C   0  0  2  0  0  0  0  0  0  0  0  0
   23.8420  -19.4718  -14.6771 N   0  0  0  0  0  0  0  0  0  0  0  0
   24.2862  -19.9263  -13.3874 C   0  0  0  0  0  0  0  0  0  0  0  0
   22.3673  -19.2032  -14.6884 O   0  0  0  0  0  0  0  0  0  0  0  0
   21.5826  -19.8411  -13.9417 C   0  0  0  0  0  0  0  0  0  0  0  0
   18.4492  -15.3879  -17.6569 C   0  0  1  0  0  0  0  0  0  0  0  0
   18.6168  -16.3143  -16.4428 C   0  0  0  0  0  0  0  0  0  0  0  0
   18.2106  -15.5104  -15.2273 C   0  0  0  0  0  0  0  0  0  0  0  0
   20.0488  -16.7178  -16.4107 C   0  0  2  0  0  0  0  0  0  0  0  0
   20.3770  -17.8909  -15.5585 N   0  0  0  0  0  0  0  0  0  0  0  0
   21.7867  -18.2232  -15.5364 C   0  0  0  0  0  0  0  0  0  0  0  0
   19.5337  -19.0885  -15.7902 O   0  0  0  0  0  0  0  0  0  0  0  0
   19.9333  -20.0409  -16.7307 O   0  0  0  0  0  0  0  0  0  0  0  0
  2  1  1  0
  3  2  2  0
  4  2  1  0
  5  4  1  0
  6  5  1  0
  7  6  1  0
  8 10  1  0
  8  7  1  0
  8  9  1  6
 10 11  2  0
 13 12  1  6
 13 14  1  0
 15 13  1  0
 16 10  1  0
 15 16  1  6
 17 18  2  0
 17 15  1  0
 20 19  1  6
 20 21  1  0
 20 22  1  0
 23 22  1  1
 23 24  1  0
 24 17  1  0
 25 26  1  0
 25 23  1  0
 27 25  2  0
M  END
$$$$
