RTL.pdb
     RDKit          3D

 27 26  0  0  1  0  0  0  0  0999 V2000
   29.6929  -23.9636  -18.2617 N   0  0  0  0  0  0  0  0  0  0  0  0
   29.5713  -24.3905  -16.9035 C   0  0  0  0  0  0  0  0  0  0  0  0
   30.1872  -25.4493  -16.5391 N   0  0  0  0  0  0  0  0  0  0  0  0
   28.7806  -23.6543  -15.9727 N   0  0  0  0  0  0  0  0  0  0  0  0
   27.8564  -22.6054  -16.4753 C   0  0  0  0  0  0  0  0  0  0  0  0
   28.2749  -21.2831  -15.9026 C   0  0  0  0  0  0  0  0  0  0  0  0
   27.6866  -20.9045  -14.5988 C   0  0  0  0  0  0  0  0  0  0  0  0
   26.2120  -20.7138  -14.5093 C   0  0  2  0  0  0  0  0  0  0  0  0
   25.7696  -19.9277  -15.6502 N   0  0  0  0  0  0  0  0  0  0  0  0
   25.8008  -20.1132  -13.2318 C   0  0  0  0  0  0  0  0  0  0  0  0
   25.7818  -18.8623  -13.0864 O   0  0  0  0  0  0  0  0  0  0  0  0
   30.0662  -25.8358  -15.5926 C   0  0  0  0  0  0  0  0  0  0  0  0
   22.6945  -19.7698  -11.5373 C   0  0  2  0  0  0  0  0  0  0  0  0
   23.5708  -20.4424  -10.5245 O   0  0  0  0  0  0  0  0  0  0  0  0
   23.2410  -21.7918  -10.3787 C   0  0  2  0  0  0  0  0  0  0  0  0
   25.0261  -20.3613  -10.8301 N   0  0  0  0  0  0  0  0  0  0  0  0
   25.4083  -20.9206  -12.0984 C   0  0  0  0  0  0  0  0  0  0  0  0
   25.8898  -20.8762   -9.7185 O   0  0  0  0  0  0  0  0  0  0  0  0
   26.1704  -22.0979   -9.6230 C   0  0  0  0  0  0  0  0  0  0  0  0
   27.6051  -20.0690   -4.5368 C   0  0  1  0  0  0  0  0  0  0  0  0
   28.6666  -19.9705   -5.6430 C   0  0  0  0  0  0  0  0  0  0  0  0
   29.7040  -18.9816   -5.1587 C   0  0  0  0  0  0  0  0  0  0  0  0
   27.9613  -19.5070   -6.8686 C   0  0  2  0  0  0  0  0  0  0  0  0
   27.0063  -20.4711   -7.4757 N   0  0  0  0  0  0  0  0  0  0  0  0
   26.4301  -20.0175   -8.7249 C   0  0  0  0  0  0  0  0  0  0  0  0
   25.9716  -20.9938   -6.5510 O   0  0  0  0  0  0  0  0  0  0  0  0
   26.1936  -22.1980   -5.8786 O   0  0  0  0  0  0  0  0  0  0  0  0
  2  1  1  0
  3  2  2  0
  4  2  1  0
  5  4  1  0
  6  5  1  0
  7  6  1  0
  8 10  1  0
  8  7  1  0
  8  9  1  6
 10 11  2  0
 13 12  1  1
 13 14  1  0
 15 13  1  0
 16 10  1  0
 15 16  1  1
 17 18  2  0
 17 15  1  0
 20 19  1  1
 20 21  1  0
 20 22  1  0
 23 22  1  6
 23 24  1  0
 24 17  1  0
 25 26  1  0
 25 23  1  0
 27 25  2  0
M  END
$$$$
