GPC.pdb
     RDKit          3D

 18 18  0  0  1  0  0  0  0  0999 V2000
    9.4849  -16.3540   20.3285 N   0  0  0  0  0  0  0  0  0  0  0  0
    8.4730  -16.2712   21.4198 C   0  0  0  0  0  0  0  0  0  0  0  0
    9.1013  -15.6310   22.5727 C   0  0  0  0  0  0  0  0  0  0  0  0
   10.3904  -15.9080   22.6694 O   0  0  0  0  0  0  0  0  0  0  0  0
    8.5850  -14.8065   23.5532 N   0  0  0  0  0  0  0  0  0  0  0  0
    7.5892  -13.7375   23.2145 C   0  0  0  0  0  0  0  0  0  0  0  0
    6.4787  -14.1639   24.1535 C   0  0  0  0  0  0  0  0  0  0  0  0
    7.2051  -14.7529   25.3446 C   0  0  0  0  0  0  0  0  0  0  0  0
    8.7146  -14.6259   24.9272 C   0  0  1  0  0  0  0  0  0  0  0  0
    9.5290  -15.4535   25.7660 C   0  0  0  0  0  0  0  0  0  0  0  0
    9.7002  -16.6564   25.6882 O   0  0  0  0  0  0  0  0  0  0  0  0
   10.2381  -14.7830   26.8401 N   0  0  0  0  0  0  0  0  0  0  0  0
   11.1050  -15.5422   27.7147 C   0  0  1  0  0  0  0  0  0  0  0  0
   11.6460  -14.6756   28.8373 C   0  0  0  0  0  0  0  0  0  0  0  0
   10.2858  -13.6872   29.5060 S   0  0  0  0  0  0  0  0  0  0  0  0
   10.3268  -16.6394   28.3638 C   0  0  0  0  0  0  0  0  0  0  0  0
    9.0757  -16.6623   28.2532 O   0  0  0  0  0  0  0  0  0  0  0  0
   11.0187  -17.6018   29.0712 O   0  0  0  0  0  0  0  0  0  0  0  0
  1  2  1  0
  3  4  2  0
  3  2  1  0
  5  3  1  0
  6  5  1  0
  7  6  1  0
  8  7  1  0
  8  9  1  0
  9  5  1  0
 10 12  1  0
  9 10  1  1
 11 10  2  0
 13 12  1  0
 13 16  1  0
 13 14  1  1
 14 15  1  0
 16 18  1  0
 17 16  2  0
M  END
$$$$
