GPC.pdb
     RDKit          3D

 18 18  0  0  1  0  0  0  0  0999 V2000
    9.2353  -16.2052   15.8007 N   0  0  0  0  0  0  0  0  0  0  0  0
    8.1910  -15.7809   16.7759 C   0  0  0  0  0  0  0  0  0  0  0  0
    8.8486  -15.4946   18.0483 C   0  0  0  0  0  0  0  0  0  0  0  0
    9.6866  -16.4494   18.4147 O   0  0  0  0  0  0  0  0  0  0  0  0
    8.7423  -14.4203   18.9099 N   0  0  0  0  0  0  0  0  0  0  0  0
    8.5224  -13.0323   18.3862 C   0  0  0  0  0  0  0  0  0  0  0  0
    7.2542  -12.7061   19.1491 C   0  0  0  0  0  0  0  0  0  0  0  0
    7.4048  -13.4542   20.4571 C   0  0  0  0  0  0  0  0  0  0  0  0
    8.7845  -14.1854   20.2811 C   0  0  1  0  0  0  0  0  0  0  0  0
    8.9227  -15.2197   21.2625 C   0  0  0  0  0  0  0  0  0  0  0  0
    8.0542  -15.9479   21.7073 O   0  0  0  0  0  0  0  0  0  0  0  0
   10.2565  -15.4296   21.7944 N   0  0  0  0  0  0  0  0  0  0  0  0
   10.4905  -16.4854   22.7554 C   0  0  1  0  0  0  0  0  0  0  0  0
   10.6149  -17.8335   22.0690 C   0  0  0  0  0  0  0  0  0  0  0  0
   10.9683  -19.0870   23.3252 S   0  0  0  0  0  0  0  0  0  0  0  0
   11.7867  -16.2465   23.4579 C   0  0  0  0  0  0  0  0  0  0  0  0
   12.5906  -15.3945   23.0043 O   0  0  0  0  0  0  0  0  0  0  0  0
   12.0587  -16.9796   24.5955 O   0  0  0  0  0  0  0  0  0  0  0  0
  1  2  1  0
  3  4  2  0
  3  2  1  0
  5  3  1  0
  6  5  1  0
  7  6  1  0
  8  7  1  0
  8  9  1  0
  9  5  1  0
 10 12  1  0
  9 10  1  1
 11 10  2  0
 13 12  1  0
 13 16  1  0
 13 14  1  6
 14 15  1  0
 16 18  1  0
 17 16  2  0
M  END
$$$$
