GPC.pdb
     RDKit          3D

 18 18  0  0  1  0  0  0  0  0999 V2000
    9.4143  -15.7080   15.5029 N   0  0  0  0  0  0  0  0  0  0  0  0
    8.4057  -15.3028   16.5228 C   0  0  0  0  0  0  0  0  0  0  0  0
    9.1023  -15.0879   17.7886 C   0  0  0  0  0  0  0  0  0  0  0  0
   10.1764  -15.8485   17.9144 O   0  0  0  0  0  0  0  0  0  0  0  0
    8.8314  -14.2444   18.8483 N   0  0  0  0  0  0  0  0  0  0  0  0
    8.4433  -12.8148   18.6146 C   0  0  0  0  0  0  0  0  0  0  0  0
    7.1231  -12.8192   19.3588 C   0  0  0  0  0  0  0  0  0  0  0  0
    7.3368  -13.8052   20.4882 C   0  0  0  0  0  0  0  0  0  0  0  0
    8.8055  -14.3049   20.2386 C   0  0  1  0  0  0  0  0  0  0  0  0
    9.0535  -15.4998   20.9886 C   0  0  0  0  0  0  0  0  0  0  0  0
    8.4271  -16.5435   20.9591 O   0  0  0  0  0  0  0  0  0  0  0  0
   10.1868  -15.4689   21.8945 N   0  0  0  0  0  0  0  0  0  0  0  0
   10.5734  -16.6681   22.6055 C   0  0  1  0  0  0  0  0  0  0  0  0
   12.0318  -17.0068   22.3564 C   0  0  0  0  0  0  0  0  0  0  0  0
   13.0342  -15.5525   22.7497 S   0  0  0  0  0  0  0  0  0  0  0  0
   10.4350  -16.4463   24.0760 C   0  0  0  0  0  0  0  0  0  0  0  0
   10.1219  -15.3081   24.5053 O   0  0  0  0  0  0  0  0  0  0  0  0
   10.6589  -17.5138   24.9221 O   0  0  0  0  0  0  0  0  0  0  0  0
  1  2  1  0
  3  4  2  0
  3  2  1  0
  5  3  1  0
  6  5  1  0
  7  6  1  0
  8  7  1  0
  8  9  1  0
  9  5  1  0
 10 12  1  0
  9 10  1  6
 11 10  2  0
 13 12  1  0
 13 16  1  0
 13 14  1  1
 14 15  1  0
 16 18  1  0
 17 16  2  0
M  END
$$$$
