GPC.pdb
     RDKit          3D

 18 18  0  0  1  0  0  0  0  0999 V2000
    9.6849  -15.5206   16.2730 N   0  0  0  0  0  0  0  0  0  0  0  0
    8.5965  -15.1780   17.2319 C   0  0  0  0  0  0  0  0  0  0  0  0
    9.1905  -15.0318   18.5583 C   0  0  0  0  0  0  0  0  0  0  0  0
   10.1301  -15.9306   18.7976 O   0  0  0  0  0  0  0  0  0  0  0  0
    8.9394  -14.1340   19.5775 N   0  0  0  0  0  0  0  0  0  0  0  0
    8.7535  -12.6741   19.2890 C   0  0  0  0  0  0  0  0  0  0  0  0
    7.3856  -12.4967   19.9167 C   0  0  0  0  0  0  0  0  0  0  0  0
    7.3795  -13.4716   21.0755 C   0  0  0  0  0  0  0  0  0  0  0  0
    8.7901  -14.1545   20.9611 C   0  0  1  0  0  0  0  0  0  0  0  0
    8.8235  -15.3508   21.7482 C   0  0  0  0  0  0  0  0  0  0  0  0
    7.9693  -16.2144   21.8309 O   0  0  0  0  0  0  0  0  0  0  0  0
   10.0172  -15.5649   22.5454 N   0  0  0  0  0  0  0  0  0  0  0  0
   10.1514  -16.7722   23.3311 C   0  0  1  0  0  0  0  0  0  0  0  0
   11.1369  -17.7344   22.6931 C   0  0  0  0  0  0  0  0  0  0  0  0
   12.6758  -16.8429   22.3596 S   0  0  0  0  0  0  0  0  0  0  0  0
   10.6999  -16.4356   24.6788 C   0  0  0  0  0  0  0  0  0  0  0  0
   11.0248  -15.2503   24.9384 O   0  0  0  0  0  0  0  0  0  0  0  0
   10.8321  -17.4520   25.6035 O   0  0  0  0  0  0  0  0  0  0  0  0
  1  2  1  0
  3  4  2  0
  3  2  1  0
  5  3  1  0
  6  5  1  0
  7  6  1  0
  8  7  1  0
  8  9  1  0
  9  5  1  0
 10 12  1  0
  9 10  1  6
 11 10  2  0
 13 12  1  0
 13 16  1  0
 13 14  1  6
 14 15  1  0
 16 18  1  0
 17 16  2  0
M  END
$$$$
