GPC.pdb
     RDKit          3D

 18 18  0  0  1  0  0  0  0  0999 V2000
    8.4091  -17.7292   17.3813 N   0  0  0  0  0  0  0  0  0  0  0  0
    7.5109  -16.8669   18.2005 C   0  0  0  0  0  0  0  0  0  0  0  0
    8.3242  -16.1984   19.2131 C   0  0  0  0  0  0  0  0  0  0  0  0
    9.1684  -17.0205   19.8126 O   0  0  0  0  0  0  0  0  0  0  0  0
    8.3560  -14.8844   19.6374 N   0  0  0  0  0  0  0  0  0  0  0  0
    8.2862  -13.7555   18.6526 C   0  0  0  0  0  0  0  0  0  0  0  0
    7.0770  -13.0403   19.2210 C   0  0  0  0  0  0  0  0  0  0  0  0
    7.1646  -13.2900   20.7120 C   0  0  0  0  0  0  0  0  0  0  0  0
    8.4489  -14.1867   20.8382 C   0  0  1  0  0  0  0  0  0  0  0  0
    8.4858  -14.8162   22.1243 C   0  0  0  0  0  0  0  0  0  0  0  0
    7.5531  -15.0355   22.8754 O   0  0  0  0  0  0  0  0  0  0  0  0
    9.7897  -15.2468   22.5941 N   0  0  0  0  0  0  0  0  0  0  0  0
    9.9091  -15.9226   23.8677 C   0  0  1  0  0  0  0  0  0  0  0  0
    9.2522  -17.2903   23.8261 C   0  0  0  0  0  0  0  0  0  0  0  0
   10.1455  -18.3203   22.6364 S   0  0  0  0  0  0  0  0  0  0  0  0
   11.3512  -16.1544   24.1796 C   0  0  0  0  0  0  0  0  0  0  0  0
   12.2239  -15.8843   23.3174 O   0  0  0  0  0  0  0  0  0  0  0  0
   11.6782  -16.6639   25.4201 O   0  0  0  0  0  0  0  0  0  0  0  0
  1  2  1  0
  3  4  2  0
  3  2  1  0
  5  3  1  0
  6  5  1  0
  7  6  1  0
  8  7  1  0
  8  9  1  0
  9  5  1  0
 10 12  1  0
  9 10  1  1
 11 10  2  0
 13 12  1  0
 13 16  1  0
 13 14  1  6
 14 15  1  0
 16 18  1  0
 17 16  2  0
M  END
$$$$
