GPC.pdb
     RDKit          3D

 18 18  0  0  1  0  0  0  0  0999 V2000
    7.1543  -15.2036   20.0865 N   0  0  0  0  0  0  0  0  0  0  0  0
    6.5986  -15.0817   21.4641 C   0  0  0  0  0  0  0  0  0  0  0  0
    7.7181  -15.0001   22.3988 C   0  0  0  0  0  0  0  0  0  0  0  0
    8.7763  -15.6771   21.9865 O   0  0  0  0  0  0  0  0  0  0  0  0
    7.8507  -14.3506   23.6105 N   0  0  0  0  0  0  0  0  0  0  0  0
    7.3866  -12.9345   23.7798 C   0  0  0  0  0  0  0  0  0  0  0  0
    6.4379  -13.1498   24.9418 C   0  0  0  0  0  0  0  0  0  0  0  0
    7.0677  -14.2782   25.7314 C   0  0  0  0  0  0  0  0  0  0  0  0
    8.3442  -14.6243   24.8828 C   0  0  1  0  0  0  0  0  0  0  0  0
    8.8673  -15.8982   25.2771 C   0  0  0  0  0  0  0  0  0  0  0  0
    8.2946  -16.9726   25.2788 O   0  0  0  0  0  0  0  0  0  0  0  0
   10.2459  -15.9167   25.7302 N   0  0  0  0  0  0  0  0  0  0  0  0
   10.8941  -17.1789   26.0127 C   0  0  1  0  0  0  0  0  0  0  0  0
   12.4003  -17.0672   25.8619 C   0  0  0  0  0  0  0  0  0  0  0  0
   12.7591  -16.1728   24.3303 S   0  0  0  0  0  0  0  0  0  0  0  0
   10.6380  -17.5681   27.4318 C   0  0  0  0  0  0  0  0  0  0  0  0
   10.0452  -16.7680   28.1975 O   0  0  0  0  0  0  0  0  0  0  0  0
   11.0674  -18.8091   27.8571 O   0  0  0  0  0  0  0  0  0  0  0  0
  1  2  1  0
  3  4  2  0
  3  2  1  0
  5  3  1  0
  6  5  1  0
  7  6  1  0
  8  7  1  0
  8  9  1  0
  9  5  1  0
 10 12  1  0
  9 10  1  6
 11 10  2  0
 13 12  1  0
 13 16  1  0
 13 14  1  1
 14 15  1  0
 16 18  1  0
 17 16  2  0
M  END
$$$$
