GPC.pdb
     RDKit          3D

 18 18  0  0  1  0  0  0  0  0999 V2000
    9.3202  -16.1111   15.7772 N   0  0  0  0  0  0  0  0  0  0  0  0
    8.3028  -15.7415   16.8019 C   0  0  0  0  0  0  0  0  0  0  0  0
    9.0055  -15.4057   18.0376 C   0  0  0  0  0  0  0  0  0  0  0  0
    9.8793  -16.3315   18.3945 O   0  0  0  0  0  0  0  0  0  0  0  0
    8.9103  -14.3103   18.8736 N   0  0  0  0  0  0  0  0  0  0  0  0
    8.7196  -12.9310   18.3165 C   0  0  0  0  0  0  0  0  0  0  0  0
    7.4504  -12.5655   19.0597 C   0  0  0  0  0  0  0  0  0  0  0  0
    7.5760  -13.2860   20.3858 C   0  0  0  0  0  0  0  0  0  0  0  0
    8.9442  -14.0449   20.2394 C   0  0  1  0  0  0  0  0  0  0  0  0
    9.0552  -15.0587   21.2453 C   0  0  0  0  0  0  0  0  0  0  0  0
    8.1942  -15.8314   21.6250 O   0  0  0  0  0  0  0  0  0  0  0  0
   10.3475  -15.1850   21.8935 N   0  0  0  0  0  0  0  0  0  0  0  0
   10.5856  -16.2708   22.8195 C   0  0  1  0  0  0  0  0  0  0  0  0
   10.5666  -17.6115   22.1083 C   0  0  0  0  0  0  0  0  0  0  0  0
   10.9303  -18.9079   23.3172 S   0  0  0  0  0  0  0  0  0  0  0  0
   11.9456  -16.1289   23.4202 C   0  0  0  0  0  0  0  0  0  0  0  0
   12.8596  -15.5721   22.7626 O   0  0  0  0  0  0  0  0  0  0  0  0
   12.1527  -16.6211   24.6931 O   0  0  0  0  0  0  0  0  0  0  0  0
  1  2  1  0
  3  4  2  0
  3  2  1  0
  5  3  1  0
  6  5  1  0
  7  6  1  0
  8  7  1  0
  8  9  1  0
  9  5  1  0
 10 12  1  0
  9 10  1  1
 11 10  2  0
 13 12  1  0
 13 16  1  0
 13 14  1  6
 14 15  1  0
 16 18  1  0
 17 16  2  0
M  END
$$$$
