GPC.pdb
     RDKit          3D

 18 18  0  0  1  0  0  0  0  0999 V2000
    7.8268  -16.8497   16.0829 N   0  0  0  0  0  0  0  0  0  0  0  0
    7.0878  -16.2802   17.2453 C   0  0  0  0  0  0  0  0  0  0  0  0
    8.0545  -16.0005   18.3040 C   0  0  0  0  0  0  0  0  0  0  0  0
    8.8548  -17.0245   18.5466 O   0  0  0  0  0  0  0  0  0  0  0  0
    8.2650  -14.8732   19.0738 N   0  0  0  0  0  0  0  0  0  0  0  0
    8.1984  -13.5032   18.4673 C   0  0  0  0  0  0  0  0  0  0  0  0
    7.1382  -12.9110   19.3741 C   0  0  0  0  0  0  0  0  0  0  0  0
    7.3674  -13.5917   20.7072 C   0  0  0  0  0  0  0  0  0  0  0  0
    8.5615  -14.5653   20.3984 C   0  0  1  0  0  0  0  0  0  0  0  0
    8.6794  -15.5450   21.4367 C   0  0  0  0  0  0  0  0  0  0  0  0
    7.7948  -16.2205   21.9301 O   0  0  0  0  0  0  0  0  0  0  0  0
   10.0119  -15.7634   21.9686 N   0  0  0  0  0  0  0  0  0  0  0  0
   10.2248  -16.7684   22.9872 C   0  0  1  0  0  0  0  0  0  0  0  0
   11.4202  -17.6422   22.6535 C   0  0  0  0  0  0  0  0  0  0  0  0
   11.6897  -18.7939   24.0229 S   0  0  0  0  0  0  0  0  0  0  0  0
   10.5348  -16.1056   24.2893 C   0  0  0  0  0  0  0  0  0  0  0  0
   11.2664  -15.0847   24.3074 O   0  0  0  0  0  0  0  0  0  0  0  0
    9.9994  -16.6453   25.4415 O   0  0  0  0  0  0  0  0  0  0  0  0
  1  2  1  0
  3  4  2  0
  3  2  1  0
  5  3  1  0
  6  5  1  0
  7  6  1  0
  8  7  1  0
  8  9  1  0
  9  5  1  0
 10 12  1  0
  9 10  1  1
 11 10  2  0
 13 12  1  0
 13 16  1  0
 13 14  1  6
 14 15  1  0
 16 18  1  0
 17 16  2  0
M  END
$$$$
