GPC.pdb
     RDKit          3D

 18 18  0  0  1  0  0  0  0  0999 V2000
   10.4315  -16.2862   16.6824 N   0  0  0  0  0  0  0  0  0  0  0  0
    9.1380  -15.7759   17.2192 C   0  0  0  0  0  0  0  0  0  0  0  0
    9.3418  -15.4072   18.6179 C   0  0  0  0  0  0  0  0  0  0  0  0
   10.3602  -16.0447   19.1696 O   0  0  0  0  0  0  0  0  0  0  0  0
    8.6640  -14.5265   19.4382 N   0  0  0  0  0  0  0  0  0  0  0  0
    8.3380  -13.1381   18.9744 C   0  0  0  0  0  0  0  0  0  0  0  0
    6.8367  -13.1841   19.1762 C   0  0  0  0  0  0  0  0  0  0  0  0
    6.6505  -14.0931   20.3729 C   0  0  0  0  0  0  0  0  0  0  0  0
    8.1239  -14.5140   20.7208 C   0  0  1  0  0  0  0  0  0  0  0  0
    8.1187  -15.6495   21.5940 C   0  0  0  0  0  0  0  0  0  0  0  0
    8.0268  -16.8249   21.2900 O   0  0  0  0  0  0  0  0  0  0  0  0
    8.2372  -15.3718   23.0135 N   0  0  0  0  0  0  0  0  0  0  0  0
    8.1761  -16.4578   23.9673 C   0  0  1  0  0  0  0  0  0  0  0  0
    8.6265  -16.0041   25.3439 C   0  0  0  0  0  0  0  0  0  0  0  0
   10.2365  -15.1939   25.1832 S   0  0  0  0  0  0  0  0  0  0  0  0
    6.7628  -16.9181   24.1140 C   0  0  0  0  0  0  0  0  0  0  0  0
    5.8291  -16.2086   23.6638 O   0  0  0  0  0  0  0  0  0  0  0  0
    6.5297  -18.1222   24.7474 O   0  0  0  0  0  0  0  0  0  0  0  0
  1  2  1  0
  3  4  2  0
  3  2  1  0
  5  3  1  0
  6  5  1  0
  7  6  1  0
  8  7  1  0
  8  9  1  0
  9  5  1  0
 10 12  1  0
  9 10  1  6
 11 10  2  0
 13 12  1  0
 13 16  1  0
 13 14  1  1
 14 15  1  0
 16 18  1  0
 17 16  2  0
M  END
$$$$
