GPC.pdb
     RDKit          3D

 18 18  0  0  1  0  0  0  0  0999 V2000
   11.2271  -17.2430   19.7967 N   0  0  0  0  0  0  0  0  0  0  0  0
    9.9413  -17.1873   20.5487 C   0  0  0  0  0  0  0  0  0  0  0  0
   10.1219  -16.2933   21.6896 C   0  0  0  0  0  0  0  0  0  0  0  0
   11.3745  -16.2515   22.1107 O   0  0  0  0  0  0  0  0  0  0  0  0
    9.2243  -15.5056   22.3836 N   0  0  0  0  0  0  0  0  0  0  0  0
    8.1464  -14.7505   21.6646 C   0  0  0  0  0  0  0  0  0  0  0  0
    6.9499  -15.3150   22.4039 C   0  0  0  0  0  0  0  0  0  0  0  0
    7.4656  -15.5711   23.8045 C   0  0  0  0  0  0  0  0  0  0  0  0
    8.9732  -15.1396   23.7028 C   0  0  1  0  0  0  0  0  0  0  0  0
    9.7073  -15.6464   24.8235 C   0  0  0  0  0  0  0  0  0  0  0  0
   10.1683  -16.7636   24.9708 O   0  0  0  0  0  0  0  0  0  0  0  0
    9.9320  -14.7211   25.9187 N   0  0  0  0  0  0  0  0  0  0  0  0
   10.7806  -15.1071   27.0250 C   0  0  1  0  0  0  0  0  0  0  0  0
   10.9445  -13.9672   28.0137 C   0  0  0  0  0  0  0  0  0  0  0  0
    9.3176  -13.2388   28.3250 S   0  0  0  0  0  0  0  0  0  0  0  0
   10.1459  -16.2314   27.7758 C   0  0  0  0  0  0  0  0  0  0  0  0
    8.9494  -16.5353   27.5440 O   0  0  0  0  0  0  0  0  0  0  0  0
   10.9066  -16.9055   28.7099 O   0  0  0  0  0  0  0  0  0  0  0  0
  1  2  1  0
  3  4  2  0
  3  2  1  0
  5  3  1  0
  6  5  1  0
  7  6  1  0
  8  7  1  0
  8  9  1  0
  9  5  1  0
 10 12  1  0
  9 10  1  1
 11 10  2  0
 13 12  1  0
 13 16  1  0
 13 14  1  1
 14 15  1  0
 16 18  1  0
 17 16  2  0
M  END
$$$$
