GPC.pdb
     RDKit          3D

 18 18  0  0  1  0  0  0  0  0999 V2000
    8.6188  -17.6862   17.3482 N   0  0  0  0  0  0  0  0  0  0  0  0
    7.7422  -16.7714   18.1332 C   0  0  0  0  0  0  0  0  0  0  0  0
    8.5727  -16.0809   19.1165 C   0  0  0  0  0  0  0  0  0  0  0  0
    9.6023  -16.8086   19.5146 O   0  0  0  0  0  0  0  0  0  0  0  0
    8.4632  -14.8268   19.6850 N   0  0  0  0  0  0  0  0  0  0  0  0
    8.3003  -13.6055   18.8300 C   0  0  0  0  0  0  0  0  0  0  0  0
    7.0137  -13.0814   19.4354 C   0  0  0  0  0  0  0  0  0  0  0  0
    7.0952  -13.4892   20.8915 C   0  0  0  0  0  0  0  0  0  0  0  0
    8.4604  -14.2645   20.9582 C   0  0  1  0  0  0  0  0  0  0  0  0
    8.5339  -15.0295   22.1669 C   0  0  0  0  0  0  0  0  0  0  0  0
    7.6194  -15.3534   22.9026 O   0  0  0  0  0  0  0  0  0  0  0  0
    9.8554  -15.4753   22.5683 N   0  0  0  0  0  0  0  0  0  0  0  0
   10.0246  -16.2022   23.8077 C   0  0  1  0  0  0  0  0  0  0  0  0
    9.6195  -17.6564   23.6498 C   0  0  0  0  0  0  0  0  0  0  0  0
   10.4510  -18.3287   22.1900 S   0  0  0  0  0  0  0  0  0  0  0  0
   11.4668  -16.2037   24.1958 C   0  0  0  0  0  0  0  0  0  0  0  0
   12.3222  -15.7295   23.4076 O   0  0  0  0  0  0  0  0  0  0  0  0
   11.8132  -16.7331   25.4227 O   0  0  0  0  0  0  0  0  0  0  0  0
  1  2  1  0
  3  4  2  0
  3  2  1  0
  5  3  1  0
  6  5  1  0
  7  6  1  0
  8  7  1  0
  8  9  1  0
  9  5  1  0
 10 12  1  0
  9 10  1  1
 11 10  2  0
 13 12  1  0
 13 16  1  0
 13 14  1  6
 14 15  1  0
 16 18  1  0
 17 16  2  0
M  END
$$$$
