AMA.pdb
     RDKit          3D

 19 18  0  0  1  0  0  0  0  0999 V2000
   20.5919  -19.6252  -12.2110 C   0  0  0  0  0  0  0  0  0  0  0  0
   21.5255  -20.8237  -12.2520 C   0  0  2  0  0  0  0  0  0  0  0  0
   21.0648  -21.7545  -11.2392 N   0  0  0  0  0  0  0  0  0  0  0  0
   22.8809  -20.3567  -11.9403 C   0  0  0  0  0  0  0  0  0  0  0  0
   23.4007  -19.4367  -12.6395 O   0  0  0  0  0  0  0  0  0  0  0  0
   27.0344  -18.7257   -6.7973 C   0  0  0  0  0  0  0  0  0  0  0  0
   27.4769  -20.3446   -7.4554 S   0  0  0  0  0  0  0  0  0  0  0  0
   27.0213  -20.3928   -9.2090 C   0  0  0  0  0  0  0  0  0  0  0  0
   25.5851  -20.8452   -9.3239 C   0  0  0  0  0  0  0  0  0  0  0  0
   25.0627  -20.5236  -10.6909 C   0  0  2  0  0  0  0  0  0  0  0  0
   23.6824  -20.8687  -10.8849 N   0  0  0  0  0  0  0  0  0  0  0  0
   25.8776  -21.2835  -11.6761 C   0  0  0  0  0  0  0  0  0  0  0  0
   26.0088  -22.5245  -11.5051 O   0  0  0  0  0  0  0  0  0  0  0  0
   26.0833  -22.4063  -14.4511 C   0  0  0  0  0  0  0  0  0  0  0  0
   27.0844  -21.4443  -13.8875 C   0  0  2  0  0  0  0  0  0  0  0  0
   26.5027  -20.6625  -12.7866 N   0  0  0  0  0  0  0  0  0  0  0  0
   27.5434  -20.4600  -14.9089 C   0  0  0  0  0  0  0  0  0  0  0  0
   28.3534  -20.9367  -15.9192 O   0  0  0  0  0  0  0  0  0  0  0  0
   27.2225  -19.2436  -14.8763 O   0  0  0  0  0  0  0  0  0  0  0  0
  2  1  1  1
  3  2  1  0
  4  2  1  0
  5  4  2  0
  7  6  1  0
  7  8  1  0
  8  9  1  0
 10  9  1  1
 10 12  1  0
 10 11  1  0
 11  4  1  0
 12 16  1  0
 13 12  2  0
 15 17  1  0
 15 14  1  6
 16 15  1  0
 17 19  2  0
 17 18  1  0
M  END
$$$$
