AMA.pdb
     RDKit          3D

 19 18  0  0  1  0  0  0  0  0999 V2000
   27.4392  -19.2479  -15.7314 C   0  0  0  0  0  0  0  0  0  0  0  0
   28.0130  -20.1191  -14.6263 C   0  0  2  0  0  0  0  0  0  0  0  0
   28.8514  -21.1160  -15.2648 N   0  0  0  0  0  0  0  0  0  0  0  0
   26.8956  -20.7619  -13.9259 C   0  0  0  0  0  0  0  0  0  0  0  0
   26.3512  -21.7894  -14.4293 O   0  0  0  0  0  0  0  0  0  0  0  0
   27.6442  -20.6641   -7.1425 C   0  0  0  0  0  0  0  0  0  0  0  0
   26.1598  -20.2567   -8.0807 S   0  0  0  0  0  0  0  0  0  0  0  0
   26.3421  -20.9228   -9.7564 C   0  0  0  0  0  0  0  0  0  0  0  0
   25.1308  -20.5296  -10.5682 C   0  0  0  0  0  0  0  0  0  0  0  0
   25.3038  -20.9846  -11.9852 C   0  0  2  0  0  0  0  0  0  0  0  0
   26.3580  -20.3112  -12.6904 N   0  0  0  0  0  0  0  0  0  0  0  0
   24.0252  -20.7295  -12.7009 C   0  0  0  0  0  0  0  0  0  0  0  0
   23.7445  -19.5404  -13.0074 O   0  0  0  0  0  0  0  0  0  0  0  0
   21.4480  -22.7093  -14.5579 C   0  0  0  0  0  0  0  0  0  0  0  0
   21.8766  -21.5058  -13.7747 C   0  0  2  0  0  0  0  0  0  0  0  0
   23.1248  -21.7692  -13.0439 N   0  0  0  0  0  0  0  0  0  0  0  0
   20.8619  -21.1189  -12.7533 C   0  0  0  0  0  0  0  0  0  0  0  0
   19.7143  -20.5043  -13.2111 O   0  0  0  0  0  0  0  0  0  0  0  0
   21.0180  -21.3305  -11.5226 O   0  0  0  0  0  0  0  0  0  0  0  0
  2  1  1  6
  3  2  1  0
  4  2  1  0
  5  4  2  0
  7  6  1  0
  7  8  1  0
  8  9  1  0
 10  9  1  1
 10 12  1  0
 10 11  1  0
 11  4  1  0
 12 16  1  0
 13 12  2  0
 15 17  1  0
 15 14  1  1
 16 15  1  0
 17 19  2  0
 17 18  1  0
M  END
$$$$
