AMA.pdb
     RDKit          3D

 19 18  0  0  1  0  0  0  0  0999 V2000
   21.2539  -10.5832  -20.4244 C   0  0  0  0  0  0  0  0  0  0  0  0
   22.1428   -9.7661  -19.5014 C   0  0  2  0  0  0  0  0  0  0  0  0
   23.0109  -10.7017  -18.8117 N   0  0  0  0  0  0  0  0  0  0  0  0
   21.2819   -9.0641  -18.5432 C   0  0  0  0  0  0  0  0  0  0  0  0
   20.4416   -8.2144  -18.9645 O   0  0  0  0  0  0  0  0  0  0  0  0
   16.2603  -11.6216  -15.0325 C   0  0  0  0  0  0  0  0  0  0  0  0
   17.7923  -10.9318  -14.3792 S   0  0  0  0  0  0  0  0  0  0  0  0
   18.5259   -9.8657  -15.6480 C   0  0  0  0  0  0  0  0  0  0  0  0
   19.8647   -9.3734  -15.1521 C   0  0  0  0  0  0  0  0  0  0  0  0
   20.5123   -8.5264  -16.2048 C   0  0  2  0  0  0  0  0  0  0  0  0
   21.3155   -9.2662  -17.1373 N   0  0  0  0  0  0  0  0  0  0  0  0
   21.3855   -7.5389  -15.5160 C   0  0  0  0  0  0  0  0  0  0  0  0
   22.4857   -7.9418  -15.0534 O   0  0  0  0  0  0  0  0  0  0  0  0
   21.5044   -3.8038  -15.0134 C   0  0  0  0  0  0  0  0  0  0  0  0
   21.8953   -5.2118  -14.6812 C   0  0  2  0  0  0  0  0  0  0  0  0
   21.0228   -6.1768  -15.3660 N   0  0  0  0  0  0  0  0  0  0  0  0
   21.7725   -5.4917  -13.2220 C   0  0  0  0  0  0  0  0  0  0  0  0
   20.7311   -6.3056  -12.8254 O   0  0  0  0  0  0  0  0  0  0  0  0
   22.5677   -5.0209  -12.3680 O   0  0  0  0  0  0  0  0  0  0  0  0
  2  1  1  6
  3  2  1  0
  4  2  1  0
  5  4  2  0
  7  6  1  0
  7  8  1  0
  8  9  1  0
 10  9  1  1
 10 12  1  0
 10 11  1  0
 11  4  1  0
 12 16  1  0
 13 12  2  0
 15 17  1  0
 15 14  1  1
 16 15  1  0
 17 19  2  0
 17 18  1  0
M  END
$$$$
