AMA.pdb
     RDKit          3D

 19 18  0  0  1  0  0  0  0  0999 V2000
   18.3976  -12.2153  -19.4221 C   0  0  0  0  0  0  0  0  0  0  0  0
   19.8087  -12.7787  -19.4515 C   0  0  2  0  0  0  0  0  0  0  0  0
   19.7128  -14.1805  -19.0904 N   0  0  0  0  0  0  0  0  0  0  0  0
   20.6117  -12.0490  -18.4641 C   0  0  0  0  0  0  0  0  0  0  0  0
   20.4335  -12.2687  -17.2289 O   0  0  0  0  0  0  0  0  0  0  0  0
   26.1403  -10.7144  -14.7733 C   0  0  0  0  0  0  0  0  0  0  0  0
   25.1113  -11.2298  -16.1608 S   0  0  0  0  0  0  0  0  0  0  0  0
   24.7208   -9.7671  -17.1572 C   0  0  0  0  0  0  0  0  0  0  0  0
   23.8450  -10.1883  -18.3132 C   0  0  0  0  0  0  0  0  0  0  0  0
   22.4550  -10.4556  -17.8216 C   0  0  2  0  0  0  0  0  0  0  0  0
   21.6037  -11.0860  -18.7911 N   0  0  0  0  0  0  0  0  0  0  0  0
   21.8497   -9.1498  -17.4465 C   0  0  0  0  0  0  0  0  0  0  0  0
   21.6418   -8.3085  -18.3606 O   0  0  0  0  0  0  0  0  0  0  0  0
   20.3292   -7.5533  -14.3828 C   0  0  0  0  0  0  0  0  0  0  0  0
   20.9488   -7.5155  -15.7466 C   0  0  2  0  0  0  0  0  0  0  0  0
   21.5042   -8.8274  -16.1101 N   0  0  0  0  0  0  0  0  0  0  0  0
   22.0777   -6.5442  -15.8160 C   0  0  0  0  0  0  0  0  0  0  0  0
   21.7496   -5.2096  -15.9396 O   0  0  0  0  0  0  0  0  0  0  0  0
   23.2847   -6.8967  -15.7664 O   0  0  0  0  0  0  0  0  0  0  0  0
  2  1  1  1
  3  2  1  0
  4  2  1  0
  5  4  2  0
  7  6  1  0
  7  8  1  0
  8  9  1  0
 10  9  1  6
 10 12  1  0
 10 11  1  0
 11  4  1  0
 12 16  1  0
 13 12  2  0
 15 17  1  0
 15 14  1  1
 16 15  1  0
 17 19  2  0
 17 18  1  0
M  END
$$$$
