AMA.pdb
     RDKit          3D

 19 18  0  0  1  0  0  0  0  0999 V2000
   22.0711   -7.2140  -14.6034 C   0  0  0  0  0  0  0  0  0  0  0  0
   21.7514   -8.0133  -15.8559 C   0  0  2  0  0  0  0  0  0  0  0  0
   20.9226   -9.1309  -15.4452 N   0  0  0  0  0  0  0  0  0  0  0  0
   23.0152   -8.4945  -16.4246 C   0  0  0  0  0  0  0  0  0  0  0  0
   23.8946   -7.6581  -16.7890 O   0  0  0  0  0  0  0  0  0  0  0  0
   29.3634  -11.8970  -16.6014 C   0  0  0  0  0  0  0  0  0  0  0  0
   27.7859  -11.3884  -15.8926 S   0  0  0  0  0  0  0  0  0  0  0  0
   26.4584  -11.9457  -16.9935 C   0  0  0  0  0  0  0  0  0  0  0  0
   25.1317  -11.5422  -16.3953 C   0  0  0  0  0  0  0  0  0  0  0  0
   24.6115  -10.3247  -17.0966 C   0  0  2  0  0  0  0  0  0  0  0  0
   23.3428   -9.8650  -16.6055 N   0  0  0  0  0  0  0  0  0  0  0  0
   24.4605  -10.6632  -18.5371 C   0  0  0  0  0  0  0  0  0  0  0  0
   23.3845  -11.2019  -18.9097 O   0  0  0  0  0  0  0  0  0  0  0  0
   26.2853  -10.0199  -21.7681 C   0  0  0  0  0  0  0  0  0  0  0  0
   25.3349  -10.7890  -20.9018 C   0  0  2  0  0  0  0  0  0  0  0  0
   25.4762  -10.4017  -19.4906 N   0  0  0  0  0  0  0  0  0  0  0  0
   25.5903  -12.2565  -20.9653 C   0  0  0  0  0  0  0  0  0  0  0  0
   25.1727  -12.9168  -22.1028 O   0  0  0  0  0  0  0  0  0  0  0  0
   26.1588  -12.8905  -20.0388 O   0  0  0  0  0  0  0  0  0  0  0  0
  2  1  1  1
  3  2  1  0
  4  2  1  0
  5  4  2  0
  7  6  1  0
  7  8  1  0
  8  9  1  0
 10  9  1  1
 10 12  1  0
 10 11  1  0
 11  4  1  0
 12 16  1  0
 13 12  2  0
 15 17  1  0
 15 14  1  6
 16 15  1  0
 17 19  2  0
 17 18  1  0
M  END
$$$$
