AMA.pdb
     RDKit          3D

 19 18  0  0  1  0  0  0  0  0999 V2000
   17.2938  -10.1117  -19.0942 C   0  0  0  0  0  0  0  0  0  0  0  0
   18.7903   -9.8816  -18.9633 C   0  0  2  0  0  0  0  0  0  0  0  0
   19.4293  -11.1797  -19.0689 N   0  0  0  0  0  0  0  0  0  0  0  0
   19.0471   -9.2898  -17.6458 C   0  0  0  0  0  0  0  0  0  0  0  0
   18.3069   -9.6019  -16.6659 O   0  0  0  0  0  0  0  0  0  0  0  0
   21.8820   -8.7885  -11.4468 C   0  0  0  0  0  0  0  0  0  0  0  0
   21.7052   -9.2739  -13.1739 S   0  0  0  0  0  0  0  0  0  0  0  0
   22.0673   -7.8333  -14.2124 C   0  0  0  0  0  0  0  0  0  0  0  0
   21.8517   -8.2123  -15.6583 C   0  0  0  0  0  0  0  0  0  0  0  0
   20.4356   -7.9196  -16.0508 C   0  0  2  0  0  0  0  0  0  0  0  0
   20.0912   -8.3661  -17.3713 N   0  0  0  0  0  0  0  0  0  0  0  0
   20.2459   -6.4456  -15.9913 C   0  0  0  0  0  0  0  0  0  0  0  0
   20.8022   -5.7403  -16.8744 O   0  0  0  0  0  0  0  0  0  0  0  0
   18.0481   -4.0372  -14.0929 C   0  0  0  0  0  0  0  0  0  0  0  0
   19.1831   -4.3765  -15.0106 C   0  0  2  0  0  0  0  0  0  0  0  0
   19.4689   -5.8185  -14.9851 N   0  0  0  0  0  0  0  0  0  0  0  0
   20.4438   -3.6882  -14.6111 C   0  0  0  0  0  0  0  0  0  0  0  0
   20.6447   -2.4140  -15.1013 O   0  0  0  0  0  0  0  0  0  0  0  0
   21.3037   -4.2206  -13.8623 O   0  0  0  0  0  0  0  0  0  0  0  0
  2  1  1  1
  3  2  1  0
  4  2  1  0
  5  4  2  0
  7  6  1  0
  7  8  1  0
  8  9  1  0
 10  9  1  6
 10 12  1  0
 10 11  1  0
 11  4  1  0
 12 16  1  0
 13 12  2  0
 15 17  1  0
 15 14  1  1
 16 15  1  0
 17 19  2  0
 17 18  1  0
M  END
$$$$
