AMA.pdb
     RDKit          3D

 19 18  0  0  1  0  0  0  0  0999 V2000
   22.6728  -15.4048  -19.7912 C   0  0  0  0  0  0  0  0  0  0  0  0
   21.9826  -14.0538  -19.8802 C   0  0  2  0  0  0  0  0  0  0  0  0
   22.2723  -13.5159  -21.1960 N   0  0  0  0  0  0  0  0  0  0  0  0
   22.5420  -13.1865  -18.8375 C   0  0  0  0  0  0  0  0  0  0  0  0
   22.4126  -13.5109  -17.6195 O   0  0  0  0  0  0  0  0  0  0  0  0
   26.9012  -10.5255  -14.4576 C   0  0  0  0  0  0  0  0  0  0  0  0
   26.1625  -11.3206  -15.8970 S   0  0  0  0  0  0  0  0  0  0  0  0
   25.8059  -10.0453  -17.1343 C   0  0  0  0  0  0  0  0  0  0  0  0
   25.2170  -10.7079  -18.3569 C   0  0  0  0  0  0  0  0  0  0  0  0
   23.8178  -11.1562  -18.0631 C   0  0  2  0  0  0  0  0  0  0  0  0
   23.2385  -11.9745  -19.0912 N   0  0  0  0  0  0  0  0  0  0  0  0
   22.9774   -9.9393  -17.9051 C   0  0  0  0  0  0  0  0  0  0  0  0
   22.8488   -9.1748  -18.8979 O   0  0  0  0  0  0  0  0  0  0  0  0
   20.1698   -8.7111  -15.9682 C   0  0  0  0  0  0  0  0  0  0  0  0
   21.5196   -8.3971  -16.5379 C   0  0  2  0  0  0  0  0  0  0  0  0
   22.3255   -9.6176  -16.6881 N   0  0  0  0  0  0  0  0  0  0  0  0
   22.2965   -7.4836  -15.6521 C   0  0  0  0  0  0  0  0  0  0  0  0
   21.8481   -6.1830  -15.5452 O   0  0  0  0  0  0  0  0  0  0  0  0
   23.3187   -7.8542  -15.0185 O   0  0  0  0  0  0  0  0  0  0  0  0
  2  1  1  6
  3  2  1  0
  4  2  1  0
  5  4  2  0
  7  6  1  0
  7  8  1  0
  8  9  1  0
 10  9  1  6
 10 12  1  0
 10 11  1  0
 11  4  1  0
 12 16  1  0
 13 12  2  0
 15 17  1  0
 15 14  1  1
 16 15  1  0
 17 19  2  0
 17 18  1  0
M  END
$$$$
