AMA.pdb
     RDKit          3D

 19 18  0  0  1  0  0  0  0  0999 V2000
   18.1873  -10.4979  -18.7912 C   0  0  0  0  0  0  0  0  0  0  0  0
   19.5171  -11.2228  -18.9165 C   0  0  2  0  0  0  0  0  0  0  0  0
   19.2618  -12.6256  -18.6487 N   0  0  0  0  0  0  0  0  0  0  0  0
   20.4346  -10.6688  -17.9147 C   0  0  0  0  0  0  0  0  0  0  0  0
   20.2102  -10.8691  -16.6838 O   0  0  0  0  0  0  0  0  0  0  0  0
   26.8329  -10.0911  -14.7276 C   0  0  0  0  0  0  0  0  0  0  0  0
   25.7700  -10.4942  -16.1266 S   0  0  0  0  0  0  0  0  0  0  0  0
   24.8684   -8.9980  -16.6093 C   0  0  0  0  0  0  0  0  0  0  0  0
   23.9390   -9.3393  -17.7497 C   0  0  0  0  0  0  0  0  0  0  0  0
   22.5345   -9.4504  -17.2398 C   0  0  2  0  0  0  0  0  0  0  0  0
   21.5902   -9.9019  -18.2229 N   0  0  0  0  0  0  0  0  0  0  0  0
   22.1152   -8.1017  -16.7734 C   0  0  0  0  0  0  0  0  0  0  0  0
   21.7692   -7.2559  -17.6403 O   0  0  0  0  0  0  0  0  0  0  0  0
   21.3178   -6.4188  -13.4966 C   0  0  0  0  0  0  0  0  0  0  0  0
   21.6650   -6.4105  -14.9543 C   0  0  2  0  0  0  0  0  0  0  0  0
   22.0934   -7.7437  -15.4020 N   0  0  0  0  0  0  0  0  0  0  0  0
   22.7933   -5.4820  -15.2502 C   0  0  0  0  0  0  0  0  0  0  0  0
   22.5355   -4.1301  -15.1497 O   0  0  0  0  0  0  0  0  0  0  0  0
   23.9393   -5.8845  -15.5792 O   0  0  0  0  0  0  0  0  0  0  0  0
  2  1  1  1
  3  2  1  0
  4  2  1  0
  5  4  2  0
  7  6  1  0
  7  8  1  0
  8  9  1  0
 10  9  1  6
 10 12  1  0
 10 11  1  0
 11  4  1  0
 12 16  1  0
 13 12  2  0
 15 17  1  0
 15 14  1  1
 16 15  1  0
 17 19  2  0
 17 18  1  0
M  END
$$$$
