AMA.pdb
     RDKit          3D

 19 18  0  0  1  0  0  0  0  0999 V2000
   21.5843  -22.1496  -13.3538 C   0  0  0  0  0  0  0  0  0  0  0  0
   21.7355  -21.4058  -12.0373 C   0  0  2  0  0  0  0  0  0  0  0  0
   20.6469  -20.4498  -11.9632 N   0  0  0  0  0  0  0  0  0  0  0  0
   23.0275  -20.7109  -12.0521 C   0  0  0  0  0  0  0  0  0  0  0  0
   23.1224  -19.5809  -12.6175 O   0  0  0  0  0  0  0  0  0  0  0  0
   27.3062  -19.6481   -6.5246 C   0  0  0  0  0  0  0  0  0  0  0  0
   27.5886  -20.5763   -8.0440 S   0  0  0  0  0  0  0  0  0  0  0  0
   26.1954  -20.2770   -9.1638 C   0  0  0  0  0  0  0  0  0  0  0  0
   26.4554  -20.9997  -10.4642 C   0  0  0  0  0  0  0  0  0  0  0  0
   25.4805  -20.5356  -11.5029 C   0  0  2  0  0  0  0  0  0  0  0  0
   24.2178  -21.2183  -11.4654 N   0  0  0  0  0  0  0  0  0  0  0  0
   26.0974  -20.7663  -12.8365 C   0  0  0  0  0  0  0  0  0  0  0  0
   25.9852  -21.9104  -13.3515 O   0  0  0  0  0  0  0  0  0  0  0  0
   27.8579  -18.6852  -15.4666 C   0  0  0  0  0  0  0  0  0  0  0  0
   27.2995  -19.9565  -14.9032 C   0  0  2  0  0  0  0  0  0  0  0  0
   26.7983  -19.7522  -13.5363 N   0  0  0  0  0  0  0  0  0  0  0  0
   28.3338  -21.0269  -14.8190 C   0  0  0  0  0  0  0  0  0  0  0  0
   28.7299  -21.6105  -16.0050 O   0  0  0  0  0  0  0  0  0  0  0  0
   28.8403  -21.4017  -13.7297 O   0  0  0  0  0  0  0  0  0  0  0  0
  2  1  1  6
  3  2  1  0
  4  2  1  0
  5  4  2  0
  7  6  1  0
  7  8  1  0
  8  9  1  0
 10  9  1  1
 10 12  1  0
 10 11  1  0
 11  4  1  0
 12 16  1  0
 13 12  2  0
 15 17  1  0
 15 14  1  1
 16 15  1  0
 17 19  2  0
 17 18  1  0
M  END
$$$$
