AMA.pdb
     RDKit          3D

 19 18  0  0  1  0  0  0  0  0999 V2000
   27.8592  -22.1130  -16.3691 C   0  0  0  0  0  0  0  0  0  0  0  0
   27.4392  -20.8714  -15.5998 C   0  0  2  0  0  0  0  0  0  0  0  0
   28.6241  -20.3648  -14.9335 N   0  0  0  0  0  0  0  0  0  0  0  0
   26.4267  -21.2664  -14.6144 C   0  0  0  0  0  0  0  0  0  0  0  0
   25.5900  -22.1719  -14.9072 O   0  0  0  0  0  0  0  0  0  0  0  0
   28.5960  -21.0578   -8.1766 C   0  0  0  0  0  0  0  0  0  0  0  0
   27.0229  -20.4284   -8.7920 S   0  0  0  0  0  0  0  0  0  0  0  0
   26.7444  -21.1076  -10.4491 C   0  0  0  0  0  0  0  0  0  0  0  0
   25.4738  -20.5134  -11.0088 C   0  0  0  0  0  0  0  0  0  0  0  0
   25.2491  -21.0221  -12.4001 C   0  0  2  0  0  0  0  0  0  0  0  0
   26.3047  -20.6980  -13.3181 N   0  0  0  0  0  0  0  0  0  0  0  0
   23.9882  -20.4157  -12.9046 C   0  0  0  0  0  0  0  0  0  0  0  0
   24.0740  -19.4066  -13.6536 O   0  0  0  0  0  0  0  0  0  0  0  0
   21.5906  -21.1195  -14.7407 C   0  0  0  0  0  0  0  0  0  0  0  0
   21.5080  -20.5825  -13.3442 C   0  0  2  0  0  0  0  0  0  0  0  0
   22.7101  -20.9315  -12.5730 N   0  0  0  0  0  0  0  0  0  0  0  0
   20.3480  -21.1506  -12.5995 C   0  0  0  0  0  0  0  0  0  0  0  0
   19.0912  -20.7230  -12.9761 O   0  0  0  0  0  0  0  0  0  0  0  0
   20.4790  -21.9838  -11.6655 O   0  0  0  0  0  0  0  0  0  0  0  0
  2  1  1  1
  3  2  1  0
  4  2  1  0
  5  4  2  0
  7  6  1  0
  7  8  1  0
  8  9  1  0
 10  9  1  1
 10 12  1  0
 10 11  1  0
 11  4  1  0
 12 16  1  0
 13 12  2  0
 15 17  1  0
 15 14  1  6
 16 15  1  0
 17 19  2  0
 17 18  1  0
M  END
$$$$
