AMA.pdb
     RDKit          3D

 19 18  0  0  1  0  0  0  0  0999 V2000
   22.4711    3.9944  -10.8328 C   0  0  0  0  0  0  0  0  0  0  0  0
   23.0840    2.6198  -11.0434 C   0  0  2  0  0  0  0  0  0  0  0  0
   22.0546    1.7821  -11.6291 N   0  0  0  0  0  0  0  0  0  0  0  0
   23.4880    2.0953   -9.7342 C   0  0  0  0  0  0  0  0  0  0  0  0
   22.6136    1.5972   -8.9641 O   0  0  0  0  0  0  0  0  0  0  0  0
   28.6331   -1.5716   -5.1988 C   0  0  0  0  0  0  0  0  0  0  0  0
   28.2388   -0.9358   -6.8390 S   0  0  0  0  0  0  0  0  0  0  0  0
   26.7931    0.1483   -6.6994 C   0  0  0  0  0  0  0  0  0  0  0  0
   26.4120    0.6274   -8.0799 C   0  0  0  0  0  0  0  0  0  0  0  0
   25.2145    1.5235   -7.9902 C   0  0  2  0  0  0  0  0  0  0  0  0
   24.8218    2.1010   -9.2449 N   0  0  0  0  0  0  0  0  0  0  0  0
   25.5462    2.6278   -7.0507 C   0  0  0  0  0  0  0  0  0  0  0  0
   26.3138    3.5406   -7.4561 O   0  0  0  0  0  0  0  0  0  0  0  0
   24.1865    4.0921   -3.9172 C   0  0  0  0  0  0  0  0  0  0  0  0
   25.3432    3.7979   -4.8231 C   0  0  2  0  0  0  0  0  0  0  0  0
   25.0322    2.6840   -5.7309 N   0  0  0  0  0  0  0  0  0  0  0  0
   26.5576    3.3940   -4.0584 C   0  0  0  0  0  0  0  0  0  0  0  0
   27.2005    4.3791   -3.3370 O   0  0  0  0  0  0  0  0  0  0  0  0
   26.9993    2.2157   -4.0526 O   0  0  0  0  0  0  0  0  0  0  0  0
  2  1  1  1
  3  2  1  0
  4  2  1  0
  5  4  2  0
  7  6  1  0
  7  8  1  0
  8  9  1  0
 10  9  1  6
 10 12  1  0
 10 11  1  0
 11  4  1  0
 12 16  1  0
 13 12  2  0
 15 17  1  0
 15 14  1  1
 16 15  1  0
 17 19  2  0
 17 18  1  0
M  END
$$$$
