AMA.pdb
     RDKit          3D

 19 18  0  0  1  0  0  0  0  0999 V2000
   27.3879  -19.0472  -16.6955 C   0  0  0  0  0  0  0  0  0  0  0  0
   28.0378  -20.1226  -15.8407 C   0  0  2  0  0  0  0  0  0  0  0  0
   28.5290  -21.1442  -16.7461 N   0  0  0  0  0  0  0  0  0  0  0  0
   27.0133  -20.6776  -14.9493 C   0  0  0  0  0  0  0  0  0  0  0  0
   26.3042  -21.6514  -15.3427 O   0  0  0  0  0  0  0  0  0  0  0  0
   23.9267  -21.4822   -7.7401 C   0  0  0  0  0  0  0  0  0  0  0  0
   25.1922  -20.6707   -8.7349 S   0  0  0  0  0  0  0  0  0  0  0  0
   24.9130  -21.0977  -10.4740 C   0  0  0  0  0  0  0  0  0  0  0  0
   25.9713  -20.4233  -11.3142 C   0  0  0  0  0  0  0  0  0  0  0  0
   25.7798  -20.7878  -12.7548 C   0  0  2  0  0  0  0  0  0  0  0  0
   26.7435  -20.1965  -13.6400 N   0  0  0  0  0  0  0  0  0  0  0  0
   24.4259  -20.3256  -13.1615 C   0  0  0  0  0  0  0  0  0  0  0  0
   24.2231  -19.0851  -13.2443 O   0  0  0  0  0  0  0  0  0  0  0  0
   21.5999  -21.5512  -15.1118 C   0  0  0  0  0  0  0  0  0  0  0  0
   22.0594  -20.7579  -13.9265 C   0  0  2  0  0  0  0  0  0  0  0  0
   23.3710  -21.2258  -13.4550 N   0  0  0  0  0  0  0  0  0  0  0  0
   21.1234  -20.8909  -12.7737 C   0  0  0  0  0  0  0  0  0  0  0  0
   19.9055  -20.2505  -12.8781 O   0  0  0  0  0  0  0  0  0  0  0  0
   21.4043  -21.5507  -11.7396 O   0  0  0  0  0  0  0  0  0  0  0  0
  2  1  1  6
  3  2  1  0
  4  2  1  0
  5  4  2  0
  7  6  1  0
  7  8  1  0
  8  9  1  0
 10  9  1  1
 10 12  1  0
 10 11  1  0
 11  4  1  0
 12 16  1  0
 13 12  2  0
 15 17  1  0
 15 14  1  6
 16 15  1  0
 17 19  2  0
 17 18  1  0
M  END
$$$$
