AMA.pdb
     RDKit          3D

 19 18  0  0  1  0  0  0  0  0999 V2000
   24.6838  -34.4407  -14.3378 C   0  0  0  0  0  0  0  0  0  0  0  0
   25.6027  -35.0917  -13.3173 C   0  0  2  0  0  0  0  0  0  0  0  0
   24.8928  -36.2356  -12.7768 N   0  0  0  0  0  0  0  0  0  0  0  0
   25.8764  -34.1122  -12.2600 C   0  0  0  0  0  0  0  0  0  0  0  0
   26.4717  -33.0315  -12.5487 O   0  0  0  0  0  0  0  0  0  0  0  0
   22.7542  -29.5140   -9.7638 C   0  0  0  0  0  0  0  0  0  0  0  0
   22.9885  -30.5840   -8.3320 S   0  0  0  0  0  0  0  0  0  0  0  0
   24.5351  -31.5029   -8.5521 C   0  0  0  0  0  0  0  0  0  0  0  0
   24.3140  -32.5828   -9.5844 C   0  0  0  0  0  0  0  0  0  0  0  0
   25.6180  -33.2460   -9.9079 C   0  0  2  0  0  0  0  0  0  0  0  0
   25.5167  -34.2828  -10.8962 N   0  0  0  0  0  0  0  0  0  0  0  0
   26.1430  -33.8464   -8.6525 C   0  0  0  0  0  0  0  0  0  0  0  0
   25.5470  -34.8513   -8.1816 O   0  0  0  0  0  0  0  0  0  0  0  0
   29.2294  -33.5039   -6.5126 C   0  0  0  0  0  0  0  0  0  0  0  0
   27.8350  -33.9808   -6.7839 C   0  0  2  0  0  0  0  0  0  0  0  0
   27.2780  -33.3296   -7.9786 N   0  0  0  0  0  0  0  0  0  0  0  0
   26.9109  -33.6613   -5.6584 C   0  0  0  0  0  0  0  0  0  0  0  0
   27.1397  -34.3028   -4.4582 O   0  0  0  0  0  0  0  0  0  0  0  0
   25.9572  -32.8478   -5.7689 O   0  0  0  0  0  0  0  0  0  0  0  0
  2  1  1  6
  3  2  1  0
  4  2  1  0
  5  4  2  0
  7  6  1  0
  7  8  1  0
  8  9  1  0
 10  9  1  1
 10 12  1  0
 10 11  1  0
 11  4  1  0
 12 16  1  0
 13 12  2  0
 15 17  1  0
 15 14  1  1
 16 15  1  0
 17 19  2  0
 17 18  1  0
M  END
$$$$
