AMA.pdb
     RDKit          3D

 19 18  0  0  1  0  0  0  0  0999 V2000
   27.2626  -19.6579  -15.6837 C   0  0  0  0  0  0  0  0  0  0  0  0
   27.7678  -20.6999  -14.6995 C   0  0  2  0  0  0  0  0  0  0  0  0
   28.1479  -21.8657  -15.4747 N   0  0  0  0  0  0  0  0  0  0  0  0
   26.6715  -21.0298  -13.7821 C   0  0  0  0  0  0  0  0  0  0  0  0
   25.7976  -21.8778  -14.1327 O   0  0  0  0  0  0  0  0  0  0  0  0
   25.9108  -19.8392   -7.1691 C   0  0  0  0  0  0  0  0  0  0  0  0
   27.4034  -20.3637   -8.0332 S   0  0  0  0  0  0  0  0  0  0  0  0
   26.9151  -21.1538   -9.5895 C   0  0  0  0  0  0  0  0  0  0  0  0
   25.7285  -20.4123  -10.1576 C   0  0  0  0  0  0  0  0  0  0  0  0
   25.4830  -20.8575  -11.5670 C   0  0  2  0  0  0  0  0  0  0  0  0
   26.5055  -20.4576  -12.4924 N   0  0  0  0  0  0  0  0  0  0  0  0
   24.1932  -20.2639  -12.0100 C   0  0  0  0  0  0  0  0  0  0  0  0
   24.2143  -19.1102  -12.5152 O   0  0  0  0  0  0  0  0  0  0  0  0
   22.1472  -20.9355  -14.1916 C   0  0  0  0  0  0  0  0  0  0  0  0
   21.8139  -20.6527  -12.7584 C   0  0  2  0  0  0  0  0  0  0  0  0
   22.9577  -20.9471  -11.8829 N   0  0  0  0  0  0  0  0  0  0  0  0
   20.6833  -21.4959  -12.2752 C   0  0  0  0  0  0  0  0  0  0  0  0
   20.9965  -22.7553  -11.8060 O   0  0  0  0  0  0  0  0  0  0  0  0
   19.4877  -21.1033  -12.2831 O   0  0  0  0  0  0  0  0  0  0  0  0
  2  1  1  6
  3  2  1  0
  4  2  1  0
  5  4  2  0
  7  6  1  0
  7  8  1  0
  8  9  1  0
 10  9  1  1
 10 12  1  0
 10 11  1  0
 11  4  1  0
 12 16  1  0
 13 12  2  0
 15 17  1  0
 15 14  1  6
 16 15  1  0
 17 19  2  0
 17 18  1  0
M  END
$$$$
