YIW.pdb
     RDKit          3D

 35 37  0  0  1  0  0  0  0  0999 V2000
   18.0654  -17.1044  -24.0430 O   0  0  0  0  0  0  0  0  0  0  0  0
   18.7297  -17.5950  -22.9199 C   0  0  0  0  0  0  0  0  0  0  0  0
   19.4684  -16.7520  -22.1094 C   0  0  0  0  0  0  0  0  0  0  0  0
   20.1282  -17.2245  -20.9990 C   0  0  0  0  0  0  0  0  0  0  0  0
   20.0737  -18.5710  -20.6538 C   0  0  0  0  0  0  0  0  0  0  0  0
   20.7949  -19.0634  -19.4455 C   0  0  0  0  0  0  0  0  0  0  0  0
   22.2597  -19.3641  -19.7666 C   0  0  2  0  0  0  0  0  0  0  0  0
   22.3466  -20.5644  -20.5371 N   0  0  0  0  0  0  0  0  0  0  0  0
   22.9878  -19.4511  -18.4780 C   0  0  0  0  0  0  0  0  0  0  0  0
   23.4343  -20.5571  -18.1008 O   0  0  0  0  0  0  0  0  0  0  0  0
   19.3520  -19.4168  -21.4385 C   0  0  0  0  0  0  0  0  0  0  0  0
   18.6922  -18.9221  -22.5561 C   0  0  0  0  0  0  0  0  0  0  0  0
   26.5694  -15.5960  -16.6226 C   0  0  0  0  0  0  0  0  0  0  0  0
   25.7946  -16.8199  -16.9795 C   0  0  0  0  0  0  0  0  0  0  0  0
   24.7504  -17.2461  -16.0046 C   0  0  2  0  0  0  0  0  0  0  0  0
   25.4261  -17.4408  -14.6533 C   0  0  0  0  0  0  0  0  0  0  0  0
   23.8964  -18.3963  -16.3839 C   0  0  2  0  0  0  0  0  0  0  0  0
   23.2030  -18.2954  -17.6329 N   0  0  0  0  0  0  0  0  0  0  0  0
   22.9996  -18.7451  -15.2606 C   0  0  0  0  0  0  0  0  0  0  0  0
   21.9138  -18.1475  -15.0369 O   0  0  0  0  0  0  0  0  0  0  0  0
   23.3294  -19.7898  -14.3696 N   0  0  0  0  0  0  0  0  0  0  0  0
   22.4867  -20.1053  -13.2054 C   0  0  1  0  0  0  0  0  0  0  0  0
   23.3777  -20.9393  -12.3294 C   0  0  0  0  0  0  0  0  0  0  0  0
   23.0316  -21.0544  -10.9233 C   0  0  0  0  0  0  0  0  0  0  0  0
   23.7617  -20.6123   -9.8215 C   0  0  0  0  0  0  0  0  0  0  0  0
   23.1013  -20.9544   -8.7197 N   0  0  0  0  0  0  0  0  0  0  0  0
   21.9589  -21.6063   -9.0260 C   0  0  0  0  0  0  0  0  0  0  0  0
   20.9493  -22.1346   -8.2618 C   0  0  0  0  0  0  0  0  0  0  0  0
   19.8721  -22.7362   -8.8776 C   0  0  0  0  0  0  0  0  0  0  0  0
   19.8057  -22.8086  -10.2476 C   0  0  0  0  0  0  0  0  0  0  0  0
   20.8102  -22.2844  -11.0194 C   0  0  0  0  0  0  0  0  0  0  0  0
   21.8953  -21.6798  -10.4135 C   0  0  0  0  0  0  0  0  0  0  0  0
   22.1196  -18.8514  -12.5579 C   0  0  0  0  0  0  0  0  0  0  0  0
   20.9311  -18.6526  -11.8603 O   0  0  0  0  0  0  0  0  0  0  0  0
   22.9130  -17.8661  -12.6250 O   0  0  0  0  0  0  0  0  0  0  0  0
  2 12  2  0
  2  1  1  0
  3  2  1  0
  4  5  1  0
  4  3  2  0
  5 11  2  0
  6  5  1  0
  7  6  1  0
  7  8  1  1
  9  7  1  0
 10  9  2  0
 11 12  1  0
 13 14  1  0
 14 15  1  0
 15 17  1  0
 15 16  1  1
 17 18  1  6
 17 19  1  0
 18  9  1  0
 19 20  2  0
 21 19  1  0
 21 22  1  0
 22 23  1  1
 22 33  1  0
 24 23  1  0
 25 24  2  0
 26 25  1  0
 27 26  1  0
 27 32  2  0
 28 27  1  0
 29 28  2  0
 29 30  1  0
 30 31  2  0
 31 32  1  0
 32 24  1  0
 33 35  2  0
 33 34  1  0
M  END
$$$$
