YIW.pdb
     RDKit          3D

 35 37  0  0  1  0  0  0  0  0999 V2000
   21.2162  -27.4649  -18.3455 O   0  0  0  0  0  0  0  0  0  0  0  0
   22.0810  -26.7034  -17.5610 C   0  0  0  0  0  0  0  0  0  0  0  0
   23.1329  -27.2963  -16.8864 C   0  0  0  0  0  0  0  0  0  0  0  0
   23.9925  -26.5554  -16.1093 C   0  0  0  0  0  0  0  0  0  0  0  0
   23.8310  -25.1801  -15.9763 C   0  0  0  0  0  0  0  0  0  0  0  0
   24.7742  -24.3945  -15.1303 C   0  0  0  0  0  0  0  0  0  0  0  0
   25.7137  -23.5522  -15.9947 C   0  0  2  0  0  0  0  0  0  0  0  0
   26.5844  -24.4098  -16.7351 N   0  0  0  0  0  0  0  0  0  0  0  0
   26.4425  -22.6309  -15.0902 C   0  0  0  0  0  0  0  0  0  0  0  0
   27.5274  -22.9980  -14.5872 O   0  0  0  0  0  0  0  0  0  0  0  0
   22.8020  -24.5778  -16.6322 C   0  0  0  0  0  0  0  0  0  0  0  0
   21.9438  -25.3417  -17.4125 C   0  0  0  0  0  0  0  0  0  0  0  0
   27.6860  -17.3387  -15.6852 C   0  0  0  0  0  0  0  0  0  0  0  0
   27.5482  -18.7800  -15.3255 C   0  0  0  0  0  0  0  0  0  0  0  0
   26.7771  -19.0786  -14.0851 C   0  0  2  0  0  0  0  0  0  0  0  0
   27.4181  -18.3045  -12.9403 C   0  0  0  0  0  0  0  0  0  0  0  0
   26.5536  -20.5051  -13.7515 C   0  0  2  0  0  0  0  0  0  0  0  0
   25.9420  -21.3120  -14.7644 N   0  0  0  0  0  0  0  0  0  0  0  0
   25.8666  -20.6115  -12.4459 C   0  0  0  0  0  0  0  0  0  0  0  0
   24.6182  -20.5073  -12.3158 O   0  0  0  0  0  0  0  0  0  0  0  0
   26.5983  -20.8418  -11.2604 N   0  0  0  0  0  0  0  0  0  0  0  0
   25.9328  -20.9542   -9.9529 C   0  0  1  0  0  0  0  0  0  0  0  0
   27.0685  -21.1012   -8.9806 C   0  0  0  0  0  0  0  0  0  0  0  0
   26.7738  -20.9543   -7.5657 C   0  0  0  0  0  0  0  0  0  0  0  0
   25.5810  -21.2407   -6.9040 C   0  0  0  0  0  0  0  0  0  0  0  0
   25.7301  -20.9249   -5.6214 N   0  0  0  0  0  0  0  0  0  0  0  0
   26.9680  -20.4395   -5.3858 C   0  0  0  0  0  0  0  0  0  0  0  0
   27.6010  -20.0016   -4.2499 C   0  0  0  0  0  0  0  0  0  0  0  0
   28.9102  -19.5746   -4.3211 C   0  0  0  0  0  0  0  0  0  0  0  0
   29.5810  -19.5856   -5.5196 C   0  0  0  0  0  0  0  0  0  0  0  0
   28.9565  -20.0205   -6.6600 C   0  0  0  0  0  0  0  0  0  0  0  0
   27.6442  -20.4500   -6.6013 C   0  0  0  0  0  0  0  0  0  0  0  0
   25.1819  -19.7264   -9.7189 C   0  0  0  0  0  0  0  0  0  0  0  0
   23.8951  -19.6882   -9.1885 O   0  0  0  0  0  0  0  0  0  0  0  0
   25.7105  -18.6134  -10.0134 O   0  0  0  0  0  0  0  0  0  0  0  0
  2 12  2  0
  2  1  1  0
  3  2  1  0
  4  5  1  0
  4  3  2  0
  5 11  2  0
  6  5  1  0
  7  6  1  0
  7  8  1  1
  9  7  1  0
 10  9  2  0
 11 12  1  0
 13 14  1  0
 14 15  1  0
 15 17  1  0
 15 16  1  1
 17 18  1  6
 17 19  1  0
 18  9  1  0
 19 20  2  0
 21 19  1  0
 21 22  1  0
 22 23  1  1
 22 33  1  0
 24 23  1  0
 25 24  2  0
 26 25  1  0
 27 26  1  0
 27 32  2  0
 28 27  1  0
 29 28  2  0
 29 30  1  0
 30 31  2  0
 31 32  1  0
 32 24  1  0
 33 35  2  0
 33 34  1  0
M  END
$$$$
