YIW.pdb
     RDKit          3D

 35 37  0  0  1  0  0  0  0  0999 V2000
   18.0151  -32.0495  -15.6649 O   0  0  0  0  0  0  0  0  0  0  0  0
   18.8011  -32.6176  -14.6636 C   0  0  0  0  0  0  0  0  0  0  0  0
   18.8610  -33.9900  -14.5032 C   0  0  0  0  0  0  0  0  0  0  0  0
   19.6328  -34.5620  -13.5188 C   0  0  0  0  0  0  0  0  0  0  0  0
   20.3811  -33.7752  -12.6492 C   0  0  0  0  0  0  0  0  0  0  0  0
   21.2124  -34.4144  -11.5895 C   0  0  0  0  0  0  0  0  0  0  0  0
   22.6681  -34.5458  -12.0401 C   0  0  2  0  0  0  0  0  0  0  0  0
   22.7505  -35.4512  -13.1425 N   0  0  0  0  0  0  0  0  0  0  0  0
   23.4575  -34.9910  -10.8668 C   0  0  0  0  0  0  0  0  0  0  0  0
   23.9362  -36.1466  -10.8540 O   0  0  0  0  0  0  0  0  0  0  0  0
   20.3358  -32.4225  -12.7908 C   0  0  0  0  0  0  0  0  0  0  0  0
   19.5509  -31.8623  -13.7903 C   0  0  0  0  0  0  0  0  0  0  0  0
   27.7250  -32.3993   -9.0564 C   0  0  0  0  0  0  0  0  0  0  0  0
   26.5948  -33.3064   -9.4108 C   0  0  0  0  0  0  0  0  0  0  0  0
   25.6721  -33.6744   -8.2992 C   0  0  2  0  0  0  0  0  0  0  0  0
   26.5153  -34.2281   -7.1577 C   0  0  0  0  0  0  0  0  0  0  0  0
   24.5225  -34.5482   -8.6323 C   0  0  2  0  0  0  0  0  0  0  0  0
   23.6969  -34.1322   -9.7260 N   0  0  0  0  0  0  0  0  0  0  0  0
   23.7439  -34.8382   -7.4085 C   0  0  0  0  0  0  0  0  0  0  0  0
   23.0792  -33.9630   -6.7934 O   0  0  0  0  0  0  0  0  0  0  0  0
   23.7100  -36.1410   -6.8648 N   0  0  0  0  0  0  0  0  0  0  0  0
   22.9106  -36.4577   -5.6707 C   0  0  1  0  0  0  0  0  0  0  0  0
   22.5154  -37.8932   -5.8706 C   0  0  0  0  0  0  0  0  0  0  0  0
   21.7366  -38.5344   -4.8253 C   0  0  0  0  0  0  0  0  0  0  0  0
   20.4424  -38.2268   -4.4092 C   0  0  0  0  0  0  0  0  0  0  0  0
   20.1266  -39.0331   -3.4006 N   0  0  0  0  0  0  0  0  0  0  0  0
   21.1466  -39.8714   -3.1167 C   0  0  0  0  0  0  0  0  0  0  0  0
   21.3028  -40.8774   -2.1969 C   0  0  0  0  0  0  0  0  0  0  0  0
   22.4822  -41.5909   -2.1612 C   0  0  0  0  0  0  0  0  0  0  0  0
   23.4977  -41.3000   -3.0392 C   0  0  0  0  0  0  0  0  0  0  0  0
   23.3511  -40.2960   -3.9611 C   0  0  0  0  0  0  0  0  0  0  0  0
   22.1739  -39.5733   -4.0058 C   0  0  0  0  0  0  0  0  0  0  0  0
   23.7619  -36.2940   -4.4982 C   0  0  0  0  0  0  0  0  0  0  0  0
   25.1252  -36.5760   -4.4786 O   0  0  0  0  0  0  0  0  0  0  0  0
   23.2507  -35.8755   -3.4173 O   0  0  0  0  0  0  0  0  0  0  0  0
  2 12  2  0
  2  1  1  0
  3  2  1  0
  4  5  1  0
  4  3  2  0
  5 11  2  0
  6  5  1  0
  7  6  1  0
  7  8  1  6
  9  7  1  0
 10  9  2  0
 11 12  1  0
 13 14  1  0
 14 15  1  0
 15 17  1  0
 15 16  1  1
 17 18  1  6
 17 19  1  0
 18  9  1  0
 19 20  2  0
 21 19  1  0
 21 22  1  0
 22 23  1  6
 22 33  1  0
 24 23  1  0
 25 24  2  0
 26 25  1  0
 27 26  1  0
 27 32  2  0
 28 27  1  0
 29 28  2  0
 29 30  1  0
 30 31  2  0
 31 32  1  0
 32 24  1  0
 33 35  2  0
 33 34  1  0
M  END
$$$$
