YIW.pdb
     RDKit          3D

 35 37  0  0  1  0  0  0  0  0999 V2000
   30.8267  -16.7281  -19.2696 O   0  0  0  0  0  0  0  0  0  0  0  0
   29.8845  -17.3492  -18.4513 C   0  0  0  0  0  0  0  0  0  0  0  0
   28.9520  -18.2225  -18.9811 C   0  0  0  0  0  0  0  0  0  0  0  0
   28.0174  -18.8411  -18.1838 C   0  0  0  0  0  0  0  0  0  0  0  0
   27.9800  -18.6074  -16.8130 C   0  0  0  0  0  0  0  0  0  0  0  0
   26.9600  -19.2886  -15.9655 C   0  0  0  0  0  0  0  0  0  0  0  0
   27.5941  -20.4086  -15.1392 C   0  0  2  0  0  0  0  0  0  0  0  0
   28.0968  -21.4236  -16.0103 N   0  0  0  0  0  0  0  0  0  0  0  0
   26.5590  -20.9108  -14.2040 C   0  0  0  0  0  0  0  0  0  0  0  0
   25.8788  -21.9108  -14.5236 O   0  0  0  0  0  0  0  0  0  0  0  0
   28.8892  -17.7514  -16.2722 C   0  0  0  0  0  0  0  0  0  0  0  0
   29.8256  -17.1357  -17.0926 C   0  0  0  0  0  0  0  0  0  0  0  0
   27.1516  -20.6929   -8.6485 C   0  0  0  0  0  0  0  0  0  0  0  0
   26.8338  -21.0745  -10.0553 C   0  0  0  0  0  0  0  0  0  0  0  0
   25.5288  -20.5913  -10.5901 C   0  0  2  0  0  0  0  0  0  0  0  0
   24.4223  -21.1958   -9.7353 C   0  0  0  0  0  0  0  0  0  0  0  0
   25.2842  -20.7638  -12.0415 C   0  0  2  0  0  0  0  0  0  0  0  0
   26.3034  -20.2825  -12.9250 N   0  0  0  0  0  0  0  0  0  0  0  0
   23.9410  -20.2494  -12.3867 C   0  0  0  0  0  0  0  0  0  0  0  0
   23.5447  -19.0963  -12.0712 O   0  0  0  0  0  0  0  0  0  0  0  0
   23.0233  -21.0478  -13.1039 N   0  0  0  0  0  0  0  0  0  0  0  0
   21.6899  -20.5472  -13.4733 C   0  0  1  0  0  0  0  0  0  0  0  0
   21.7246  -20.4995  -14.9744 C   0  0  0  0  0  0  0  0  0  0  0  0
   20.5151  -20.0925  -15.6685 C   0  0  0  0  0  0  0  0  0  0  0  0
   19.6898  -19.0050  -15.3876 C   0  0  0  0  0  0  0  0  0  0  0  0
   18.6721  -19.0227  -16.2425 N   0  0  0  0  0  0  0  0  0  0  0  0
   18.7719  -20.0708  -17.0883 C   0  0  0  0  0  0  0  0  0  0  0  0
   17.9997  -20.5045  -18.1362 C   0  0  0  0  0  0  0  0  0  0  0  0
   18.3798  -21.6248  -18.8447 C   0  0  0  0  0  0  0  0  0  0  0  0
   19.5238  -22.3059  -18.5073 C   0  0  0  0  0  0  0  0  0  0  0  0
   20.3012  -21.8806  -17.4612 C   0  0  0  0  0  0  0  0  0  0  0  0
   19.9300  -20.7596  -16.7431 C   0  0  0  0  0  0  0  0  0  0  0  0
   20.6975  -21.5000  -12.9898 C   0  0  0  0  0  0  0  0  0  0  0  0
   19.3823  -21.1658  -12.6785 O   0  0  0  0  0  0  0  0  0  0  0  0
   21.0309  -22.7117  -12.8304 O   0  0  0  0  0  0  0  0  0  0  0  0
  2 12  2  0
  2  1  1  0
  3  2  1  0
  4  5  1  0
  4  3  2  0
  5 11  2  0
  6  5  1  0
  7  6  1  0
  7  8  1  6
  9  7  1  0
 10  9  2  0
 11 12  1  0
 13 14  1  0
 14 15  1  0
 15 17  1  0
 15 16  1  1
 17 18  1  6
 17 19  1  0
 18  9  1  0
 19 20  2  0
 21 19  1  0
 21 22  1  0
 22 23  1  6
 22 33  1  0
 24 23  1  0
 25 24  2  0
 26 25  1  0
 27 26  1  0
 27 32  2  0
 28 27  1  0
 29 28  2  0
 29 30  1  0
 30 31  2  0
 31 32  1  0
 32 24  1  0
 33 35  2  0
 33 34  1  0
M  END
$$$$
