YIW.pdb
     RDKit          3D

 35 37  0  0  1  0  0  0  0  0999 V2000
   24.0125  -26.4185  -21.0930 O   0  0  0  0  0  0  0  0  0  0  0  0
   24.6375  -25.8251  -19.9974 C   0  0  0  0  0  0  0  0  0  0  0  0
   25.8132  -26.3439  -19.4860 C   0  0  0  0  0  0  0  0  0  0  0  0
   26.4389  -25.7672  -18.4053 C   0  0  0  0  0  0  0  0  0  0  0  0
   25.9072  -24.6389  -17.7895 C   0  0  0  0  0  0  0  0  0  0  0  0
   26.6011  -24.0278  -16.6200 C   0  0  0  0  0  0  0  0  0  0  0  0
   27.3942  -22.7892  -17.0396 C   0  0  2  0  0  0  0  0  0  0  0  0
   28.5554  -23.1867  -17.7715 N   0  0  0  0  0  0  0  0  0  0  0  0
   27.7196  -22.0319  -15.8073 C   0  0  0  0  0  0  0  0  0  0  0  0
   28.8864  -22.0666  -15.3577 O   0  0  0  0  0  0  0  0  0  0  0  0
   24.7509  -24.1131  -18.2778 C   0  0  0  0  0  0  0  0  0  0  0  0
   24.1328  -24.7086  -19.3698 C   0  0  0  0  0  0  0  0  0  0  0  0
   27.2416  -17.5183  -16.3417 C   0  0  0  0  0  0  0  0  0  0  0  0
   27.9041  -18.3848  -15.3239 C   0  0  0  0  0  0  0  0  0  0  0  0
   27.0239  -18.9354  -14.2541 C   0  0  2  0  0  0  0  0  0  0  0  0
   27.2579  -18.1168  -12.9908 C   0  0  0  0  0  0  0  0  0  0  0  0
   27.0890  -20.3949  -14.0056 C   0  0  2  0  0  0  0  0  0  0  0  0
   26.7301  -21.2478  -15.0987 N   0  0  0  0  0  0  0  0  0  0  0  0
   26.3581  -20.7235  -12.7624 C   0  0  0  0  0  0  0  0  0  0  0  0
   25.1217  -20.9617  -12.7345 O   0  0  0  0  0  0  0  0  0  0  0  0
   27.0318  -20.7876  -11.5230 N   0  0  0  0  0  0  0  0  0  0  0  0
   26.3177  -21.0866  -10.2717 C   0  0  1  0  0  0  0  0  0  0  0  0
   27.3430  -20.8383   -9.2021 C   0  0  0  0  0  0  0  0  0  0  0  0
   26.8837  -20.7650   -7.8259 C   0  0  0  0  0  0  0  0  0  0  0  0
   25.6775  -21.2229   -7.2988 C   0  0  0  0  0  0  0  0  0  0  0  0
   25.6467  -20.9201   -6.0048 N   0  0  0  0  0  0  0  0  0  0  0  0
   26.7761  -20.2798   -5.6331 C   0  0  0  0  0  0  0  0  0  0  0  0
   27.2210  -19.7882   -4.4320 C   0  0  0  0  0  0  0  0  0  0  0  0
   28.4608  -19.1891   -4.3582 C   0  0  0  0  0  0  0  0  0  0  0  0
   29.2494  -19.0827   -5.4777 C   0  0  0  0  0  0  0  0  0  0  0  0
   28.8129  -19.5702   -6.6824 C   0  0  0  0  0  0  0  0  0  0  0  0
   27.5717  -20.1719   -6.7690 C   0  0  0  0  0  0  0  0  0  0  0  0
   25.1925  -20.1659  -10.1602 C   0  0  0  0  0  0  0  0  0  0  0  0
   25.2408  -18.8262  -10.5361 O   0  0  0  0  0  0  0  0  0  0  0  0
   24.0940  -20.5869   -9.6902 O   0  0  0  0  0  0  0  0  0  0  0  0
  2 12  2  0
  2  1  1  0
  3  2  1  0
  4  5  1  0
  4  3  2  0
  5 11  2  0
  6  5  1  0
  7  6  1  0
  7  8  1  1
  9  7  1  0
 10  9  2  0
 11 12  1  0
 13 14  1  0
 14 15  1  0
 15 17  1  0
 15 16  1  1
 17 18  1  6
 17 19  1  0
 18  9  1  0
 19 20  2  0
 21 19  1  0
 21 22  1  0
 22 23  1  1
 22 33  1  0
 24 23  1  0
 25 24  2  0
 26 25  1  0
 27 26  1  0
 27 32  2  0
 28 27  1  0
 29 28  2  0
 29 30  1  0
 30 31  2  0
 31 32  1  0
 32 24  1  0
 33 35  2  0
 33 34  1  0
M  END
$$$$
