YIW.pdb
     RDKit          3D

 35 37  0  0  1  0  0  0  0  0999 V2000
   32.2875  -25.8295  -18.3567 O   0  0  0  0  0  0  0  0  0  0  0  0
   31.5526  -24.8839  -17.6432 C   0  0  0  0  0  0  0  0  0  0  0  0
   31.6076  -23.5434  -17.9794 C   0  0  0  0  0  0  0  0  0  0  0  0
   30.8872  -22.6012  -17.2828 C   0  0  0  0  0  0  0  0  0  0  0  0
   30.0768  -22.9678  -16.2132 C   0  0  0  0  0  0  0  0  0  0  0  0
   29.3028  -21.9318  -15.4716 C   0  0  0  0  0  0  0  0  0  0  0  0
   27.8827  -21.8079  -16.0256 C   0  0  2  0  0  0  0  0  0  0  0  0
   27.9221  -21.2021  -17.3192 N   0  0  0  0  0  0  0  0  0  0  0  0
   27.0905  -21.0265  -15.0459 C   0  0  0  0  0  0  0  0  0  0  0  0
   27.2736  -19.7923  -14.9560 O   0  0  0  0  0  0  0  0  0  0  0  0
   30.0090  -24.2821  -15.8667 C   0  0  0  0  0  0  0  0  0  0  0  0
   30.7434  -25.2196  -16.5814 C   0  0  0  0  0  0  0  0  0  0  0  0
   22.7020  -20.4737  -15.8840 C   0  0  0  0  0  0  0  0  0  0  0  0
   23.7175  -19.8798  -14.9665 C   0  0  0  0  0  0  0  0  0  0  0  0
   23.9237  -20.5831  -13.6683 C   0  0  2  0  0  0  0  0  0  0  0  0
   23.1527  -19.8211  -12.5980 C   0  0  0  0  0  0  0  0  0  0  0  0
   25.3208  -20.8704  -13.2662 C   0  0  2  0  0  0  0  0  0  0  0  0
   26.1054  -21.6427  -14.1821 N   0  0  0  0  0  0  0  0  0  0  0  0
   25.3429  -21.4195  -11.8929 C   0  0  0  0  0  0  0  0  0  0  0  0
   24.9812  -22.5937  -11.6164 O   0  0  0  0  0  0  0  0  0  0  0  0
   25.7829  -20.6321  -10.8064 N   0  0  0  0  0  0  0  0  0  0  0  0
   25.7743  -21.1466   -9.4279 C   0  0  1  0  0  0  0  0  0  0  0  0
   26.8873  -20.3952   -8.7546 C   0  0  0  0  0  0  0  0  0  0  0  0
   27.0572  -20.5732   -7.3229 C   0  0  0  0  0  0  0  0  0  0  0  0
   26.4148  -21.4879   -6.4902 C   0  0  0  0  0  0  0  0  0  0  0  0
   26.8351  -21.2847   -5.2456 N   0  0  0  0  0  0  0  0  0  0  0  0
   27.7321  -20.2762   -5.1989 C   0  0  0  0  0  0  0  0  0  0  0  0
   28.4516  -19.7104   -4.1768 C   0  0  0  0  0  0  0  0  0  0  0  0
   29.3294  -18.6824   -4.4492 C   0  0  0  0  0  0  0  0  0  0  0  0
   29.4860  -18.2241   -5.7345 C   0  0  0  0  0  0  0  0  0  0  0  0
   28.7707  -18.7826   -6.7621 C   0  0  0  0  0  0  0  0  0  0  0  0
   27.8871  -19.8129   -6.5012 C   0  0  0  0  0  0  0  0  0  0  0  0
   24.4797  -20.8330   -8.8346 C   0  0  0  0  0  0  0  0  0  0  0  0
   23.8529  -21.6180   -7.8704 O   0  0  0  0  0  0  0  0  0  0  0  0
   23.8658  -19.7895   -9.2074 O   0  0  0  0  0  0  0  0  0  0  0  0
  2 12  2  0
  2  1  1  0
  3  2  1  0
  4  5  1  0
  4  3  2  0
  5 11  2  0
  6  5  1  0
  7  6  1  0
  7  8  1  6
  9  7  1  0
 10  9  2  0
 11 12  1  0
 13 14  1  0
 14 15  1  0
 15 17  1  0
 15 16  1  1
 17 18  1  6
 17 19  1  0
 18  9  1  0
 19 20  2  0
 21 19  1  0
 21 22  1  0
 22 23  1  1
 22 33  1  0
 24 23  1  0
 25 24  2  0
 26 25  1  0
 27 26  1  0
 27 32  2  0
 28 27  1  0
 29 28  2  0
 29 30  1  0
 30 31  2  0
 31 32  1  0
 32 24  1  0
 33 35  2  0
 33 34  1  0
M  END
$$$$
