YIW.pdb
     RDKit          3D

 35 37  0  0  1  0  0  0  0  0999 V2000
   18.7178  -19.7526  -19.8569 O   0  0  0  0  0  0  0  0  0  0  0  0
   19.6909  -20.0618  -18.9078 C   0  0  0  0  0  0  0  0  0  0  0  0
   19.5671  -21.1815  -18.1054 C   0  0  0  0  0  0  0  0  0  0  0  0
   20.5206  -21.4967  -17.1654 C   0  0  0  0  0  0  0  0  0  0  0  0
   21.6447  -20.6961  -16.9909 C   0  0  0  0  0  0  0  0  0  0  0  0
   22.6675  -21.0554  -15.9675 C   0  0  0  0  0  0  0  0  0  0  0  0
   23.9571  -21.5428  -16.6297 C   0  0  2  0  0  0  0  0  0  0  0  0
   23.7420  -22.8296  -17.2127 N   0  0  0  0  0  0  0  0  0  0  0  0
   25.0147  -21.5491  -15.5906 C   0  0  0  0  0  0  0  0  0  0  0  0
   25.4034  -22.6409  -15.1196 O   0  0  0  0  0  0  0  0  0  0  0  0
   21.7850  -19.5898  -17.7709 C   0  0  0  0  0  0  0  0  0  0  0  0
   20.8123  -19.2870  -18.7148 C   0  0  0  0  0  0  0  0  0  0  0  0
   28.2726  -17.7456  -15.9745 C   0  0  0  0  0  0  0  0  0  0  0  0
   28.3702  -19.0935  -15.3424 C   0  0  0  0  0  0  0  0  0  0  0  0
   27.6168  -19.2803  -14.0696 C   0  0  2  0  0  0  0  0  0  0  0  0
   28.6327  -19.4194  -12.9430 C   0  0  0  0  0  0  0  0  0  0  0  0
   26.5867  -20.3451  -14.0405 C   0  0  2  0  0  0  0  0  0  0  0  0
   25.6191  -20.3299  -15.0963 N   0  0  0  0  0  0  0  0  0  0  0  0
   25.9659  -20.4037  -12.6992 C   0  0  0  0  0  0  0  0  0  0  0  0
   24.9056  -19.7908  -12.4053 O   0  0  0  0  0  0  0  0  0  0  0  0
   26.5485  -21.1693  -11.6656 N   0  0  0  0  0  0  0  0  0  0  0  0
   25.9802  -21.1921  -10.3086 C   0  0  1  0  0  0  0  0  0  0  0  0
   27.1769  -21.3714   -9.4184 C   0  0  0  0  0  0  0  0  0  0  0  0
   27.1881  -20.6689   -8.1469 C   0  0  0  0  0  0  0  0  0  0  0  0
   26.1004  -20.1649   -7.4359 C   0  0  0  0  0  0  0  0  0  0  0  0
   26.5599  -19.5617   -6.3441 N   0  0  0  0  0  0  0  0  0  0  0  0
   27.9070  -19.6355   -6.2840 C   0  0  0  0  0  0  0  0  0  0  0  0
   28.8285  -19.1932   -5.3687 C   0  0  0  0  0  0  0  0  0  0  0  0
   30.1685  -19.4448   -5.5750 C   0  0  0  0  0  0  0  0  0  0  0  0
   30.5833  -20.1336   -6.6885 C   0  0  0  0  0  0  0  0  0  0  0  0
   29.6700  -20.5786   -7.6090 C   0  0  0  0  0  0  0  0  0  0  0  0
   28.3242  -20.3316   -7.4136 C   0  0  0  0  0  0  0  0  0  0  0  0
   25.3218  -19.9129  -10.0708 C   0  0  0  0  0  0  0  0  0  0  0  0
   24.0614  -19.7796   -9.4946 O   0  0  0  0  0  0  0  0  0  0  0  0
   25.9116  -18.8429  -10.4058 O   0  0  0  0  0  0  0  0  0  0  0  0
  2 12  2  0
  2  1  1  0
  3  2  1  0
  4  5  1  0
  4  3  2  0
  5 11  2  0
  6  5  1  0
  7  6  1  0
  7  8  1  1
  9  7  1  0
 10  9  2  0
 11 12  1  0
 13 14  1  0
 14 15  1  0
 15 17  1  0
 15 16  1  1
 17 18  1  6
 17 19  1  0
 18  9  1  0
 19 20  2  0
 21 19  1  0
 21 22  1  0
 22 23  1  1
 22 33  1  0
 24 23  1  0
 25 24  2  0
 26 25  1  0
 27 26  1  0
 27 32  2  0
 28 27  1  0
 29 28  2  0
 29 30  1  0
 30 31  2  0
 31 32  1  0
 32 24  1  0
 33 35  2  0
 33 34  1  0
M  END
$$$$
