YIW.pdb
     RDKit          3D

 35 37  0  0  1  0  0  0  0  0999 V2000
   21.8433  -13.2609  -18.8148 O   0  0  0  0  0  0  0  0  0  0  0  0
   22.0127  -14.1626  -17.7653 C   0  0  0  0  0  0  0  0  0  0  0  0
   21.0589  -14.2789  -16.7705 C   0  0  0  0  0  0  0  0  0  0  0  0
   21.2150  -15.1649  -15.7300 C   0  0  0  0  0  0  0  0  0  0  0  0
   22.3420  -15.9759  -15.6444 C   0  0  0  0  0  0  0  0  0  0  0  0
   22.4922  -16.9307  -14.5094 C   0  0  0  0  0  0  0  0  0  0  0  0
   22.4402  -18.3781  -15.0008 C   0  0  2  0  0  0  0  0  0  0  0  0
   21.1190  -18.6867  -15.4492 N   0  0  0  0  0  0  0  0  0  0  0  0
   22.8873  -19.2429  -13.8826 C   0  0  0  0  0  0  0  0  0  0  0  0
   22.0569  -19.6072  -13.0209 O   0  0  0  0  0  0  0  0  0  0  0  0
   23.2922  -15.8765  -16.6136 C   0  0  0  0  0  0  0  0  0  0  0  0
   23.1178  -14.9764  -17.6568 C   0  0  0  0  0  0  0  0  0  0  0  0
   24.3200  -23.8735  -15.1578 C   0  0  0  0  0  0  0  0  0  0  0  0
   23.9112  -22.6547  -14.4008 C   0  0  0  0  0  0  0  0  0  0  0  0
   24.9450  -22.0553  -13.5094 C   0  0  2  0  0  0  0  0  0  0  0  0
   25.3595  -23.1160  -12.4976 C   0  0  0  0  0  0  0  0  0  0  0  0
   24.6217  -20.7573  -12.8717 C   0  0  2  0  0  0  0  0  0  0  0  0
   24.2595  -19.6848  -13.7489 N   0  0  0  0  0  0  0  0  0  0  0  0
   25.6964  -20.3829  -11.9270 C   0  0  0  0  0  0  0  0  0  0  0  0
   26.7201  -19.7354  -12.2722 O   0  0  0  0  0  0  0  0  0  0  0  0
   25.6186  -20.7426  -10.5637 N   0  0  0  0  0  0  0  0  0  0  0  0
   26.7517  -20.5405   -9.6469 C   0  0  1  0  0  0  0  0  0  0  0  0
   26.1378  -19.8560   -8.4589 C   0  0  0  0  0  0  0  0  0  0  0  0
   27.0240  -19.1499   -7.5498 C   0  0  0  0  0  0  0  0  0  0  0  0
   27.4751  -17.8343   -7.6410 C   0  0  0  0  0  0  0  0  0  0  0  0
   28.2989  -17.6050   -6.6233 N   0  0  0  0  0  0  0  0  0  0  0  0
   28.4246  -18.7040   -5.8485 C   0  0  0  0  0  0  0  0  0  0  0  0
   29.1283  -18.9634   -4.6996 C   0  0  0  0  0  0  0  0  0  0  0  0
   29.0378  -20.2074   -4.1114 C   0  0  0  0  0  0  0  0  0  0  0  0
   28.2492  -21.1842   -4.6686 C   0  0  0  0  0  0  0  0  0  0  0  0
   27.5432  -20.9345   -5.8170 C   0  0  0  0  0  0  0  0  0  0  0  0
   27.6267  -19.6918   -6.4161 C   0  0  0  0  0  0  0  0  0  0  0  0
   27.2885  -21.8494   -9.2936 C   0  0  0  0  0  0  0  0  0  0  0  0
   28.5822  -22.0610   -8.8242 O   0  0  0  0  0  0  0  0  0  0  0  0
   26.5526  -22.8730   -9.4179 O   0  0  0  0  0  0  0  0  0  0  0  0
  2 12  2  0
  2  1  1  0
  3  2  1  0
  4  5  1  0
  4  3  2  0
  5 11  2  0
  6  5  1  0
  7  6  1  0
  7  8  1  1
  9  7  1  0
 10  9  2  0
 11 12  1  0
 13 14  1  0
 14 15  1  0
 15 17  1  0
 15 16  1  1
 17 18  1  6
 17 19  1  0
 18  9  1  0
 19 20  2  0
 21 19  1  0
 21 22  1  0
 22 23  1  1
 22 33  1  0
 24 23  1  0
 25 24  2  0
 26 25  1  0
 27 26  1  0
 27 32  2  0
 28 27  1  0
 29 28  2  0
 29 30  1  0
 30 31  2  0
 31 32  1  0
 32 24  1  0
 33 35  2  0
 33 34  1  0
M  END
$$$$
