YIW.pdb
     RDKit          3D

 35 37  0  0  1  0  0  0  0  0999 V2000
   33.3624  -26.3419  -18.1210 O   0  0  0  0  0  0  0  0  0  0  0  0
   32.4743  -25.4214  -17.5666 C   0  0  0  0  0  0  0  0  0  0  0  0
   31.4379  -25.8394  -16.7516 C   0  0  0  0  0  0  0  0  0  0  0  0
   30.5554  -24.9406  -16.1992 C   0  0  0  0  0  0  0  0  0  0  0  0
   30.6774  -23.5765  -16.4433 C   0  0  0  0  0  0  0  0  0  0  0  0
   29.7114  -22.6182  -15.8342 C   0  0  0  0  0  0  0  0  0  0  0  0
   28.3069  -22.8189  -16.4054 C   0  0  2  0  0  0  0  0  0  0  0  0
   28.2791  -22.4015  -17.7717 N   0  0  0  0  0  0  0  0  0  0  0  0
   27.3665  -22.0566  -15.5494 C   0  0  0  0  0  0  0  0  0  0  0  0
   27.1230  -20.8603  -15.8222 O   0  0  0  0  0  0  0  0  0  0  0  0
   31.6908  -23.1450  -17.2426 C   0  0  0  0  0  0  0  0  0  0  0  0
   32.5725  -24.0669  -17.7919 C   0  0  0  0  0  0  0  0  0  0  0  0
   22.4887  -22.2498  -15.6705 C   0  0  0  0  0  0  0  0  0  0  0  0
   23.9151  -21.9453  -15.3567 C   0  0  0  0  0  0  0  0  0  0  0  0
   24.3330  -22.1367  -13.9386 C   0  0  2  0  0  0  0  0  0  0  0  0
   23.4045  -21.3052  -13.0629 C   0  0  0  0  0  0  0  0  0  0  0  0
   25.7632  -21.9193  -13.6170 C   0  0  2  0  0  0  0  0  0  0  0  0
   26.7144  -22.6490  -14.4005 N   0  0  0  0  0  0  0  0  0  0  0  0
   25.9788  -22.0810  -12.1627 C   0  0  0  0  0  0  0  0  0  0  0  0
   25.9189  -23.1953  -11.5787 O   0  0  0  0  0  0  0  0  0  0  0  0
   26.2699  -20.9661  -11.3465 N   0  0  0  0  0  0  0  0  0  0  0  0
   26.3340  -21.0790   -9.8808 C   0  0  1  0  0  0  0  0  0  0  0  0
   27.5143  -20.2296   -9.5040 C   0  0  0  0  0  0  0  0  0  0  0  0
   27.6355  -19.8130   -8.1176 C   0  0  0  0  0  0  0  0  0  0  0  0
   26.9536  -18.7854   -7.4682 C   0  0  0  0  0  0  0  0  0  0  0  0
   27.3939  -18.7200   -6.2156 N   0  0  0  0  0  0  0  0  0  0  0  0
   28.3406  -19.6559   -5.9884 C   0  0  0  0  0  0  0  0  0  0  0  0
   29.0716  -19.9973   -4.8787 C   0  0  0  0  0  0  0  0  0  0  0  0
   29.9706  -21.0406   -4.9495 C   0  0  0  0  0  0  0  0  0  0  0  0
   30.1367  -21.7369   -6.1218 C   0  0  0  0  0  0  0  0  0  0  0  0
   29.4114  -21.4023   -7.2360 C   0  0  0  0  0  0  0  0  0  0  0  0
   28.5081  -20.3579   -7.1774 C   0  0  0  0  0  0  0  0  0  0  0  0
   25.0929  -20.5474   -9.3300 C   0  0  0  0  0  0  0  0  0  0  0  0
   24.2617  -19.6540  -10.0005 O   0  0  0  0  0  0  0  0  0  0  0  0
   24.7305  -20.9019   -8.1691 O   0  0  0  0  0  0  0  0  0  0  0  0
  2 12  2  0
  2  1  1  0
  3  2  1  0
  4  5  1  0
  4  3  2  0
  5 11  2  0
  6  5  1  0
  7  6  1  0
  7  8  1  6
  9  7  1  0
 10  9  2  0
 11 12  1  0
 13 14  1  0
 14 15  1  0
 15 17  1  0
 15 16  1  1
 17 18  1  6
 17 19  1  0
 18  9  1  0
 19 20  2  0
 21 19  1  0
 21 22  1  0
 22 23  1  1
 22 33  1  0
 24 23  1  0
 25 24  2  0
 26 25  1  0
 27 26  1  0
 27 32  2  0
 28 27  1  0
 29 28  2  0
 29 30  1  0
 30 31  2  0
 31 32  1  0
 32 24  1  0
 33 35  2  0
 33 34  1  0
M  END
$$$$
