DLR.pdb
     RDKit          3D

 28 27  0  0  1  0  0  0  0  0999 V2000
    9.0618  -16.9972   16.2102 N   0  0  0  0  0  0  0  0  0  0  0  0
   10.3911  -16.6748   16.6120 C   0  0  1  0  0  0  0  0  0  0  0  0
   11.1944  -15.9722   15.5400 C   0  0  0  0  0  0  0  0  0  0  0  0
   11.1760  -16.8206   14.3218 C   0  0  0  0  0  0  0  0  0  0  0  0
   10.5189  -17.8745   14.2419 O   0  0  0  0  0  0  0  0  0  0  0  0
   10.4959  -15.9873   17.9185 C   0  0  0  0  0  0  0  0  0  0  0  0
   11.6274  -15.7570   18.3881 O   0  0  0  0  0  0  0  0  0  0  0  0
   11.9182  -16.4567   13.1844 O   0  0  0  0  0  0  0  0  0  0  0  0
    6.3802  -12.6808   19.7363 C   0  0  0  0  0  0  0  0  0  0  0  0
    7.7245  -13.2802   19.4382 C   0  0  1  0  0  0  0  0  0  0  0  0
    8.7407  -12.1321   19.5173 C   0  0  0  0  0  0  0  0  0  0  0  0
    8.1295  -14.3999   20.3567 C   0  0  0  0  0  0  0  0  0  0  0  0
    9.3794  -15.1010   20.0257 C   0  0  2  0  0  0  0  0  0  0  0  0
    9.3773  -15.5867   18.6459 N   0  0  0  0  0  0  0  0  0  0  0  0
    9.9243  -16.0715   20.9612 C   0  0  0  0  0  0  0  0  0  0  0  0
    9.2981  -17.1864   21.0679 O   0  0  0  0  0  0  0  0  0  0  0  0
   15.2317  -22.0184   19.9720 N   0  0  0  0  0  0  0  0  0  0  0  0
   14.2861  -22.1675   21.0411 C   0  0  0  0  0  0  0  0  0  0  0  0
   13.8871  -23.3448   21.4137 N   0  0  0  0  0  0  0  0  0  0  0  0
   13.7763  -21.0409   21.7035 N   0  0  0  0  0  0  0  0  0  0  0  0
   14.1234  -19.6900   21.3206 C   0  0  0  0  0  0  0  0  0  0  0  0
   13.6361  -18.6510   22.3100 C   0  0  0  0  0  0  0  0  0  0  0  0
   12.9032  -17.5306   21.6410 C   0  0  0  0  0  0  0  0  0  0  0  0
   11.7161  -17.0942   22.4189 C   0  0  2  0  0  0  0  0  0  0  0  0
   11.0631  -15.9454   21.7734 N   0  0  0  0  0  0  0  0  0  0  0  0
   12.0869  -16.7633   23.7975 C   0  0  0  0  0  0  0  0  0  0  0  0
   12.0629  -15.5235   24.1335 O   0  0  0  0  0  0  0  0  0  0  0  0
   12.4617  -17.6215   24.7959 O   0  0  0  0  0  0  0  0  0  0  0  0
  2  1  1  6
  2  3  1  0
  3  4  1  0
  4  5  2  0
  6  7  2  0
  6  2  1  0
  8  4  1  0
 10  9  1  1
 10 12  1  0
 11 10  1  0
 13 12  1  1
 13 14  1  0
 14  6  1  0
 15 13  1  0
 16 15  2  0
 18 17  1  0
 19 18  2  0
 20 18  1  0
 21 20  1  0
 22 21  1  0
 23 22  1  0
 24 23  1  6
 24 25  1  0
 25 15  1  0
 26 24  1  0
 26 28  1  0
 27 26  2  0
M  END
$$$$
