DLR.pdb
     RDKit          3D

 28 27  0  0  1  0  0  0  0  0999 V2000
    9.3151  -15.2550   21.1749 N   0  0  0  0  0  0  0  0  0  0  0  0
    8.8827  -16.1443   22.2019 C   0  0  1  0  0  0  0  0  0  0  0  0
    9.3962  -17.5574   22.0351 C   0  0  0  0  0  0  0  0  0  0  0  0
    8.8952  -18.0783   20.7383 C   0  0  0  0  0  0  0  0  0  0  0  0
    8.7833  -19.2939   20.4960 O   0  0  0  0  0  0  0  0  0  0  0  0
    9.0817  -15.6449   23.5808 C   0  0  0  0  0  0  0  0  0  0  0  0
   10.2391  -15.5934   24.0408 O   0  0  0  0  0  0  0  0  0  0  0  0
    8.5189  -17.1966   19.7098 O   0  0  0  0  0  0  0  0  0  0  0  0
    5.7270  -11.7485   25.8644 C   0  0  0  0  0  0  0  0  0  0  0  0
    6.9253  -12.5712   25.4868 C   0  0  1  0  0  0  0  0  0  0  0  0
    8.1602  -11.7332   25.8471 C   0  0  0  0  0  0  0  0  0  0  0  0
    6.9962  -13.9179   26.1520 C   0  0  0  0  0  0  0  0  0  0  0  0
    8.1282  -14.7779   25.7743 C   0  0  2  0  0  0  0  0  0  0  0  0
    8.0241  -15.2293   24.3868 N   0  0  0  0  0  0  0  0  0  0  0  0
    8.5565  -15.8339   26.6772 C   0  0  0  0  0  0  0  0  0  0  0  0
    8.8285  -15.4887   27.8828 O   0  0  0  0  0  0  0  0  0  0  0  0
    5.8892  -23.0745   24.6193 N   0  0  0  0  0  0  0  0  0  0  0  0
    5.8216  -21.6445   24.5206 C   0  0  0  0  0  0  0  0  0  0  0  0
    4.8185  -21.0673   23.9333 N   0  0  0  0  0  0  0  0  0  0  0  0
    6.8403  -20.8442   25.0588 N   0  0  0  0  0  0  0  0  0  0  0  0
    8.0587  -21.3994   25.6060 C   0  0  0  0  0  0  0  0  0  0  0  0
    8.9713  -20.3483   26.2042 C   0  0  0  0  0  0  0  0  0  0  0  0
    8.2553  -19.4608   27.1735 C   0  0  0  0  0  0  0  0  0  0  0  0
    8.9989  -18.2025   27.4358 C   0  0  2  0  0  0  0  0  0  0  0  0
    8.7124  -17.2013   26.3973 N   0  0  0  0  0  0  0  0  0  0  0  0
   10.4401  -18.4544   27.5193 C   0  0  0  0  0  0  0  0  0  0  0  0
   11.1624  -18.0842   26.5234 O   0  0  0  0  0  0  0  0  0  0  0  0
   11.1321  -19.0435   28.5429 O   0  0  0  0  0  0  0  0  0  0  0  0
  2  1  1  6
  2  3  1  0
  3  4  1  0
  4  5  2  0
  6  7  2  0
  6  2  1  0
  8  4  1  0
 10  9  1  1
 10 12  1  0
 11 10  1  0
 13 12  1  1
 13 14  1  0
 14  6  1  0
 15 13  1  0
 16 15  2  0
 18 17  1  0
 19 18  2  0
 20 18  1  0
 21 20  1  0
 22 21  1  0
 23 22  1  0
 24 23  1  6
 24 25  1  0
 25 15  1  0
 26 24  1  0
 26 28  1  0
 27 26  2  0
M  END
$$$$
