DLR.pdb
     RDKit          3D

 28 27  0  0  1  0  0  0  0  0999 V2000
    8.0088  -16.1096   20.6852 N   0  0  0  0  0  0  0  0  0  0  0  0
    9.3097  -16.2515   21.2509 C   0  0  1  0  0  0  0  0  0  0  0  0
   10.4249  -15.8381   20.3163 C   0  0  0  0  0  0  0  0  0  0  0  0
   10.5030  -16.8392   19.2228 C   0  0  0  0  0  0  0  0  0  0  0  0
    9.7367  -17.8168   19.1454 O   0  0  0  0  0  0  0  0  0  0  0  0
    9.4702  -15.6575   22.5970 C   0  0  0  0  0  0  0  0  0  0  0  0
   10.5749  -15.7488   23.1669 O   0  0  0  0  0  0  0  0  0  0  0  0
   11.4692  -16.7179   18.2086 O   0  0  0  0  0  0  0  0  0  0  0  0
    8.3768  -11.7758   26.4826 C   0  0  0  0  0  0  0  0  0  0  0  0
    7.3495  -12.8321   26.1924 C   0  0  1  0  0  0  0  0  0  0  0  0
    5.9779  -12.1751   26.4019 C   0  0  0  0  0  0  0  0  0  0  0  0
    7.4369  -13.4303   24.8154 C   0  0  0  0  0  0  0  0  0  0  0  0
    8.4929  -14.4313   24.6004 C   0  0  2  0  0  0  0  0  0  0  0  0
    8.4327  -14.9991   23.2537 N   0  0  0  0  0  0  0  0  0  0  0  0
    8.7456  -15.4348   25.6216 C   0  0  0  0  0  0  0  0  0  0  0  0
    7.8293  -16.3137   25.8079 O   0  0  0  0  0  0  0  0  0  0  0  0
   15.5112  -20.3266   27.2441 N   0  0  0  0  0  0  0  0  0  0  0  0
   14.5491  -21.1662   26.5893 C   0  0  0  0  0  0  0  0  0  0  0  0
   14.7396  -22.4467   26.4988 N   0  0  0  0  0  0  0  0  0  0  0  0
   13.3836  -20.6162   26.0353 N   0  0  0  0  0  0  0  0  0  0  0  0
   13.1847  -19.1900   25.8997 C   0  0  0  0  0  0  0  0  0  0  0  0
   11.9982  -18.6802   26.6921 C   0  0  0  0  0  0  0  0  0  0  0  0
   11.4887  -17.3724   26.1722 C   0  0  0  0  0  0  0  0  0  0  0  0
   10.3386  -16.8651   26.9626 C   0  0  2  0  0  0  0  0  0  0  0  0
    9.8783  -15.5694   26.4409 N   0  0  0  0  0  0  0  0  0  0  0  0
   10.6888  -16.7499   28.3809 C   0  0  0  0  0  0  0  0  0  0  0  0
   11.1031  -17.8115   28.9744 O   0  0  0  0  0  0  0  0  0  0  0  0
   10.6327  -15.6345   29.1724 O   0  0  0  0  0  0  0  0  0  0  0  0
  2  1  1  6
  2  3  1  0
  3  4  1  0
  4  5  2  0
  6  7  2  0
  6  2  1  0
  8  4  1  0
 10  9  1  6
 10 12  1  0
 11 10  1  0
 13 12  1  1
 13 14  1  0
 14  6  1  0
 15 13  1  0
 16 15  2  0
 18 17  1  0
 19 18  2  0
 20 18  1  0
 21 20  1  0
 22 21  1  0
 23 22  1  0
 24 23  1  6
 24 25  1  0
 25 15  1  0
 26 24  1  0
 26 28  1  0
 27 26  2  0
M  END
$$$$
