DLR.pdb
     RDKit          3D

 28 27  0  0  1  0  0  0  0  0999 V2000
    7.4336  -16.8282   20.1372 N   0  0  0  0  0  0  0  0  0  0  0  0
    8.7895  -16.3898   20.0937 C   0  0  1  0  0  0  0  0  0  0  0  0
    9.1124  -15.5387   18.8856 C   0  0  0  0  0  0  0  0  0  0  0  0
    8.8619  -16.3528   17.6697 C   0  0  0  0  0  0  0  0  0  0  0  0
    7.7244  -16.7232   17.3268 O   0  0  0  0  0  0  0  0  0  0  0  0
    9.2855  -15.7784   21.3470 C   0  0  0  0  0  0  0  0  0  0  0  0
   10.5068  -15.5609   21.4679 O   0  0  0  0  0  0  0  0  0  0  0  0
    9.9263  -16.7456   16.8392 O   0  0  0  0  0  0  0  0  0  0  0  0
    6.0192  -12.3044   24.0853 C   0  0  0  0  0  0  0  0  0  0  0  0
    7.1395  -13.0632   23.4338 C   0  0  1  0  0  0  0  0  0  0  0  0
    8.1662  -12.0174   22.9768 C   0  0  0  0  0  0  0  0  0  0  0  0
    7.7968  -14.0899   24.3144 C   0  0  0  0  0  0  0  0  0  0  0  0
    8.8549  -14.9037   23.6968 C   0  0  2  0  0  0  0  0  0  0  0  0
    8.4391  -15.4358   22.3993 N   0  0  0  0  0  0  0  0  0  0  0  0
    9.5665  -15.8826   24.5026 C   0  0  0  0  0  0  0  0  0  0  0  0
    9.7842  -15.5735   25.7289 O   0  0  0  0  0  0  0  0  0  0  0  0
   14.2051  -21.7343   25.9018 N   0  0  0  0  0  0  0  0  0  0  0  0
   13.3014  -22.7739   26.3043 C   0  0  0  0  0  0  0  0  0  0  0  0
   13.7077  -23.7511   27.0554 N   0  0  0  0  0  0  0  0  0  0  0  0
   11.9607  -22.7513   25.8925 N   0  0  0  0  0  0  0  0  0  0  0  0
   11.4585  -21.7958   24.9298 C   0  0  0  0  0  0  0  0  0  0  0  0
   11.4300  -20.3779   25.4631 C   0  0  0  0  0  0  0  0  0  0  0  0
   10.7801  -19.4259   24.5085 C   0  0  0  0  0  0  0  0  0  0  0  0
   10.7979  -18.0288   25.0113 C   0  0  2  0  0  0  0  0  0  0  0  0
   10.0521  -17.1398   24.1078 N   0  0  0  0  0  0  0  0  0  0  0  0
   12.1729  -17.5506   25.1791 C   0  0  0  0  0  0  0  0  0  0  0  0
   12.6841  -17.6251   26.3554 O   0  0  0  0  0  0  0  0  0  0  0  0
   13.0021  -17.0254   24.2250 O   0  0  0  0  0  0  0  0  0  0  0  0
  2  1  1  1
  2  3  1  0
  3  4  1  0
  4  5  2  0
  6  7  2  0
  6  2  1  0
  8  4  1  0
 10  9  1  1
 10 12  1  0
 11 10  1  0
 13 12  1  1
 13 14  1  0
 14  6  1  0
 15 13  1  0
 16 15  2  0
 18 17  1  0
 19 18  2  0
 20 18  1  0
 21 20  1  0
 22 21  1  0
 23 22  1  0
 24 23  1  6
 24 25  1  0
 25 15  1  0
 26 24  1  0
 26 28  1  0
 27 26  2  0
M  END
$$$$
