DLR.pdb
     RDKit          3D

 28 27  0  0  1  0  0  0  0  0999 V2000
    7.9762  -16.3213   20.8890 N   0  0  0  0  0  0  0  0  0  0  0  0
    9.1907  -16.5633   21.5954 C   0  0  1  0  0  0  0  0  0  0  0  0
   10.4162  -16.5698   20.7087 C   0  0  0  0  0  0  0  0  0  0  0  0
   10.1703  -17.5166   19.5919 C   0  0  0  0  0  0  0  0  0  0  0  0
    9.3024  -18.4072   19.6395 O   0  0  0  0  0  0  0  0  0  0  0  0
    9.3865  -15.7258   22.7999 C   0  0  0  0  0  0  0  0  0  0  0  0
   10.5161  -15.6817   23.3248 O   0  0  0  0  0  0  0  0  0  0  0  0
   10.9272  -17.4411   18.4094 O   0  0  0  0  0  0  0  0  0  0  0  0
    8.3675  -11.5184   26.2735 C   0  0  0  0  0  0  0  0  0  0  0  0
    7.2650  -12.5155   26.0599 C   0  0  1  0  0  0  0  0  0  0  0  0
    5.9472  -11.7322   26.1422 C   0  0  0  0  0  0  0  0  0  0  0  0
    7.3440  -13.2691   24.7610 C   0  0  0  0  0  0  0  0  0  0  0  0
    8.4172  -14.2685   24.6462 C   0  0  2  0  0  0  0  0  0  0  0  0
    8.3555  -14.9831   23.3714 N   0  0  0  0  0  0  0  0  0  0  0  0
    8.6988  -15.1477   25.7693 C   0  0  0  0  0  0  0  0  0  0  0  0
    7.7424  -15.9073   26.1629 O   0  0  0  0  0  0  0  0  0  0  0  0
   14.0381  -20.3462   25.2163 N   0  0  0  0  0  0  0  0  0  0  0  0
   13.8311  -19.3918   24.1648 C   0  0  0  0  0  0  0  0  0  0  0  0
   14.5166  -19.4583   23.0648 N   0  0  0  0  0  0  0  0  0  0  0  0
   12.8818  -18.3690   24.3078 N   0  0  0  0  0  0  0  0  0  0  0  0
   12.8067  -17.5367   25.4883 C   0  0  0  0  0  0  0  0  0  0  0  0
   11.5873  -17.8261   26.3397 C   0  0  0  0  0  0  0  0  0  0  0  0
   11.4502  -16.8654   27.4791 C   0  0  0  0  0  0  0  0  0  0  0  0
   10.0905  -16.2731   27.5520 C   0  0  2  0  0  0  0  0  0  0  0  0
    9.8984  -15.2759   26.4883 N   0  0  0  0  0  0  0  0  0  0  0  0
    9.8521  -15.6708   28.8665 C   0  0  0  0  0  0  0  0  0  0  0  0
    9.7720  -14.3898   28.9227 O   0  0  0  0  0  0  0  0  0  0  0  0
    9.6985  -16.3089   30.0677 O   0  0  0  0  0  0  0  0  0  0  0  0
  2  1  1  6
  2  3  1  0
  3  4  1  0
  4  5  2  0
  6  7  2  0
  6  2  1  0
  8  4  1  0
 10  9  1  6
 10 12  1  0
 11 10  1  0
 13 12  1  1
 13 14  1  0
 14  6  1  0
 15 13  1  0
 16 15  2  0
 18 17  1  0
 19 18  2  0
 20 18  1  0
 21 20  1  0
 22 21  1  0
 23 22  1  0
 24 23  1  1
 24 25  1  0
 25 15  1  0
 26 24  1  0
 26 28  1  0
 27 26  2  0
M  END
$$$$
