DLR.pdb
     RDKit          3D

 28 27  0  0  1  0  0  0  0  0999 V2000
    7.9073  -16.1401   22.2717 N   0  0  0  0  0  0  0  0  0  0  0  0
    9.2660  -16.1660   22.7027 C   0  0  1  0  0  0  0  0  0  0  0  0
   10.2447  -15.6965   21.6493 C   0  0  0  0  0  0  0  0  0  0  0  0
   10.0660  -16.5459   20.4449 C   0  0  0  0  0  0  0  0  0  0  0  0
    9.8154  -16.0782   19.3191 O   0  0  0  0  0  0  0  0  0  0  0  0
    9.5150  -15.5225   24.0121 C   0  0  0  0  0  0  0  0  0  0  0  0
   10.6829  -15.4709   24.4446 O   0  0  0  0  0  0  0  0  0  0  0  0
   10.1759  -17.9449   20.5326 O   0  0  0  0  0  0  0  0  0  0  0  0
    5.7746  -12.0074   25.5575 C   0  0  0  0  0  0  0  0  0  0  0  0
    7.0844  -12.6932   25.2942 C   0  0  1  0  0  0  0  0  0  0  0  0
    8.0649  -11.6014   24.8429 C   0  0  0  0  0  0  0  0  0  0  0  0
    7.6457  -13.4455   26.4692 C   0  0  0  0  0  0  0  0  0  0  0  0
    8.6135  -14.5105   26.1651 C   0  0  2  0  0  0  0  0  0  0  0  0
    8.4931  -14.9710   24.7820 N   0  0  0  0  0  0  0  0  0  0  0  0
    8.7933  -15.6036   27.1067 C   0  0  0  0  0  0  0  0  0  0  0  0
    9.0209  -15.2830   28.3282 O   0  0  0  0  0  0  0  0  0  0  0  0
   10.4118  -22.6240   29.2138 N   0  0  0  0  0  0  0  0  0  0  0  0
    9.1715  -23.1522   29.7056 C   0  0  0  0  0  0  0  0  0  0  0  0
    9.1596  -24.1165   30.5741 N   0  0  0  0  0  0  0  0  0  0  0  0
    7.9480  -22.6339   29.2557 N   0  0  0  0  0  0  0  0  0  0  0  0
    7.8621  -21.6415   28.2070 C   0  0  0  0  0  0  0  0  0  0  0  0
    8.4483  -20.3035   28.6093 C   0  0  0  0  0  0  0  0  0  0  0  0
    8.3629  -19.2929   27.5087 C   0  0  0  0  0  0  0  0  0  0  0  0
    8.9847  -17.9986   27.8871 C   0  0  2  0  0  0  0  0  0  0  0  0
    8.7485  -16.9836   26.8494 N   0  0  0  0  0  0  0  0  0  0  0  0
   10.4213  -18.1590   28.1279 C   0  0  0  0  0  0  0  0  0  0  0  0
   11.2003  -18.1031   27.1078 O   0  0  0  0  0  0  0  0  0  0  0  0
   11.0551  -18.3629   29.3238 O   0  0  0  0  0  0  0  0  0  0  0  0
  2  1  1  6
  2  3  1  0
  3  4  1  0
  4  5  2  0
  6  7  2  0
  6  2  1  0
  8  4  1  0
 10  9  1  1
 10 12  1  0
 11 10  1  0
 13 12  1  1
 13 14  1  0
 14  6  1  0
 15 13  1  0
 16 15  2  0
 18 17  1  0
 19 18  2  0
 20 18  1  0
 21 20  1  0
 22 21  1  0
 23 22  1  0
 24 23  1  6
 24 25  1  0
 25 15  1  0
 26 24  1  0
 26 28  1  0
 27 26  2  0
M  END
$$$$
