DLR.pdb
     RDKit          3D

 28 27  0  0  1  0  0  0  0  0999 V2000
   10.7780  -16.9708   27.4005 N   0  0  0  0  0  0  0  0  0  0  0  0
    9.6557  -17.8462   27.3187 C   0  0  1  0  0  0  0  0  0  0  0  0
    9.3273  -18.5338   28.6254 C   0  0  0  0  0  0  0  0  0  0  0  0
   10.5942  -19.0451   29.2066 C   0  0  0  0  0  0  0  0  0  0  0  0
   11.6504  -19.1324   28.5543 O   0  0  0  0  0  0  0  0  0  0  0  0
    8.4530  -17.2574   26.6884 C   0  0  0  0  0  0  0  0  0  0  0  0
    7.4168  -17.9458   26.6101 O   0  0  0  0  0  0  0  0  0  0  0  0
   10.6500  -19.4601   30.5489 O   0  0  0  0  0  0  0  0  0  0  0  0
    8.1382  -12.1188   27.1487 C   0  0  0  0  0  0  0  0  0  0  0  0
    7.3853  -13.4086   26.9918 C   0  0  1  0  0  0  0  0  0  0  0  0
    5.9843  -13.1686   27.5720 C   0  0  0  0  0  0  0  0  0  0  0  0
    7.2857  -13.9085   25.5770 C   0  0  0  0  0  0  0  0  0  0  0  0
    7.3549  -15.3657   25.3893 C   0  0  2  0  0  0  0  0  0  0  0  0
    8.4333  -15.9613   26.1778 N   0  0  0  0  0  0  0  0  0  0  0  0
    7.2698  -15.9187   24.0474 C   0  0  0  0  0  0  0  0  0  0  0  0
    6.0993  -15.9958   23.5270 O   0  0  0  0  0  0  0  0  0  0  0  0
    9.3708  -12.0383   17.7166 N   0  0  0  0  0  0  0  0  0  0  0  0
    8.3563  -12.8499   17.1071 C   0  0  0  0  0  0  0  0  0  0  0  0
    8.3485  -13.0490   15.8247 N   0  0  0  0  0  0  0  0  0  0  0  0
    7.3542  -13.4439   17.8885 N   0  0  0  0  0  0  0  0  0  0  0  0
    7.4346  -13.5195   19.3307 C   0  0  0  0  0  0  0  0  0  0  0  0
    8.0785  -14.8004   19.8209 C   0  0  0  0  0  0  0  0  0  0  0  0
    8.0332  -14.9235   21.3118 C   0  0  0  0  0  0  0  0  0  0  0  0
    8.2818  -16.3149   21.7670 C   0  0  2  0  0  0  0  0  0  0  0  0
    8.3167  -16.3848   23.2355 N   0  0  0  0  0  0  0  0  0  0  0  0
    9.5290  -16.8356   21.2005 C   0  0  0  0  0  0  0  0  0  0  0  0
   10.5279  -16.9701   21.9973 O   0  0  0  0  0  0  0  0  0  0  0  0
    9.7732  -17.2070   19.9059 O   0  0  0  0  0  0  0  0  0  0  0  0
  2  1  1  1
  2  3  1  0
  3  4  1  0
  4  5  2  0
  6  7  2  0
  6  2  1  0
  8  4  1  0
 10  9  1  6
 10 12  1  0
 11 10  1  0
 13 12  1  6
 13 14  1  0
 14  6  1  0
 15 13  1  0
 16 15  2  0
 18 17  1  0
 19 18  2  0
 20 18  1  0
 21 20  1  0
 22 21  1  0
 23 22  1  0
 24 23  1  1
 24 25  1  0
 25 15  1  0
 26 24  1  0
 26 28  1  0
 27 26  2  0
M  END
$$$$
