DLR.pdb
     RDKit          3D

 28 27  0  0  1  0  0  0  0  0999 V2000
    8.4574  -20.1082   27.8633 N   0  0  0  0  0  0  0  0  0  0  0  0
    8.9459  -18.8775   27.3349 C   0  0  1  0  0  0  0  0  0  0  0  0
   10.0301  -19.0527   26.2948 C   0  0  0  0  0  0  0  0  0  0  0  0
   11.0622  -19.9608   26.8554 C   0  0  0  0  0  0  0  0  0  0  0  0
   10.9297  -20.5421   27.9478 O   0  0  0  0  0  0  0  0  0  0  0  0
    7.8975  -17.9348   26.8846 C   0  0  0  0  0  0  0  0  0  0  0  0
    6.9228  -18.3789   26.2471 O   0  0  0  0  0  0  0  0  0  0  0  0
   12.2576  -20.2044   26.1563 O   0  0  0  0  0  0  0  0  0  0  0  0
    5.7079  -12.7823   26.4673 C   0  0  0  0  0  0  0  0  0  0  0  0
    7.1464  -13.0003   26.0952 C   0  0  1  0  0  0  0  0  0  0  0  0
    7.8887  -11.7032   26.4465 C   0  0  0  0  0  0  0  0  0  0  0  0
    7.7982  -14.1744   26.7721 C   0  0  0  0  0  0  0  0  0  0  0  0
    7.3822  -15.5093   26.3156 C   0  0  2  0  0  0  0  0  0  0  0  0
    7.9574  -16.5675   27.1456 N   0  0  0  0  0  0  0  0  0  0  0  0
    7.4224  -15.8247   24.8969 C   0  0  0  0  0  0  0  0  0  0  0  0
    6.2935  -15.9293   24.2957 O   0  0  0  0  0  0  0  0  0  0  0  0
    8.9134  -13.9708   16.6775 N   0  0  0  0  0  0  0  0  0  0  0  0
    8.5878  -13.1594   17.8155 C   0  0  0  0  0  0  0  0  0  0  0  0
    9.3442  -12.1614   18.1562 N   0  0  0  0  0  0  0  0  0  0  0  0
    7.4437  -13.4312   18.5803 N   0  0  0  0  0  0  0  0  0  0  0  0
    7.4635  -13.4608   20.0263 C   0  0  0  0  0  0  0  0  0  0  0  0
    8.0311  -14.7501   20.5840 C   0  0  0  0  0  0  0  0  0  0  0  0
    7.9247  -14.8184   22.0753 C   0  0  0  0  0  0  0  0  0  0  0  0
    8.4856  -16.0808   22.6198 C   0  0  2  0  0  0  0  0  0  0  0  0
    8.5518  -16.0316   24.0881 N   0  0  0  0  0  0  0  0  0  0  0  0
    9.8118  -16.3495   22.0570 C   0  0  0  0  0  0  0  0  0  0  0  0
   10.8301  -16.0878   22.7954 O   0  0  0  0  0  0  0  0  0  0  0  0
   10.1134  -16.8556   20.8215 O   0  0  0  0  0  0  0  0  0  0  0  0
  2  1  1  6
  2  3  1  0
  3  4  1  0
  4  5  2  0
  6  7  2  0
  6  2  1  0
  8  4  1  0
 10  9  1  1
 10 12  1  0
 11 10  1  0
 13 12  1  6
 13 14  1  0
 14  6  1  0
 15 13  1  0
 16 15  2  0
 18 17  1  0
 19 18  2  0
 20 18  1  0
 21 20  1  0
 22 21  1  0
 23 22  1  0
 24 23  1  6
 24 25  1  0
 25 15  1  0
 26 24  1  0
 26 28  1  0
 27 26  2  0
M  END
$$$$
