DLR.pdb
     RDKit          3D

 28 27  0  0  1  0  0  0  0  0999 V2000
    7.4939  -14.3725   20.4119 N   0  0  0  0  0  0  0  0  0  0  0  0
    7.4401  -15.3421   21.4557 C   0  0  1  0  0  0  0  0  0  0  0  0
    7.8839  -16.7222   21.0238 C   0  0  0  0  0  0  0  0  0  0  0  0
    6.9818  -17.1753   19.9352 C   0  0  0  0  0  0  0  0  0  0  0  0
    6.0532  -16.4756   19.4916 O   0  0  0  0  0  0  0  0  0  0  0  0
    8.0834  -14.9277   22.7226 C   0  0  0  0  0  0  0  0  0  0  0  0
    9.2927  -14.6262   22.7126 O   0  0  0  0  0  0  0  0  0  0  0  0
    7.1465  -18.4432   19.3500 O   0  0  0  0  0  0  0  0  0  0  0  0
    5.3333  -12.0941   26.6610 C   0  0  0  0  0  0  0  0  0  0  0  0
    6.4009  -12.6193   25.7448 C   0  0  1  0  0  0  0  0  0  0  0  0
    7.5114  -11.5596   25.7170 C   0  0  0  0  0  0  0  0  0  0  0  0
    6.9648  -13.9561   26.1404 C   0  0  0  0  0  0  0  0  0  0  0  0
    7.9650  -14.5408   25.2342 C   0  0  2  0  0  0  0  0  0  0  0  0
    7.3889  -14.8615   23.9285 N   0  0  0  0  0  0  0  0  0  0  0  0
    8.8541  -15.5808   25.7259 C   0  0  0  0  0  0  0  0  0  0  0  0
    8.3125  -16.5431   26.3795 O   0  0  0  0  0  0  0  0  0  0  0  0
   16.8687  -18.4531   25.9796 N   0  0  0  0  0  0  0  0  0  0  0  0
   16.2063  -19.5690   25.3669 C   0  0  0  0  0  0  0  0  0  0  0  0
   16.7715  -20.7367   25.3303 N   0  0  0  0  0  0  0  0  0  0  0  0
   14.9337  -19.4167   24.7967 N   0  0  0  0  0  0  0  0  0  0  0  0
   14.2541  -18.1412   24.7403 C   0  0  0  0  0  0  0  0  0  0  0  0
   13.0485  -18.0722   25.6554 C   0  0  0  0  0  0  0  0  0  0  0  0
   12.4466  -16.7026   25.6983 C   0  0  0  0  0  0  0  0  0  0  0  0
   11.0556  -16.7179   26.2176 C   0  0  2  0  0  0  0  0  0  0  0  0
   10.2476  -15.6704   25.5754 N   0  0  0  0  0  0  0  0  0  0  0  0
   11.0392  -16.5555   27.6740 C   0  0  0  0  0  0  0  0  0  0  0  0
   11.4897  -17.5288   28.3813 O   0  0  0  0  0  0  0  0  0  0  0  0
   10.5988  -15.4781   28.3943 O   0  0  0  0  0  0  0  0  0  0  0  0
  2  1  1  6
  2  3  1  0
  3  4  1  0
  4  5  2  0
  6  7  2  0
  6  2  1  0
  8  4  1  0
 10  9  1  1
 10 12  1  0
 11 10  1  0
 13 12  1  1
 13 14  1  0
 14  6  1  0
 15 13  1  0
 16 15  2  0
 18 17  1  0
 19 18  2  0
 20 18  1  0
 21 20  1  0
 22 21  1  0
 23 22  1  0
 24 23  1  6
 24 25  1  0
 25 15  1  0
 26 24  1  0
 26 28  1  0
 27 26  2  0
M  END
$$$$
