DLR.pdb
     RDKit          3D

 28 27  0  0  1  0  0  0  0  0999 V2000
    9.8714  -17.1426   17.0615 N   0  0  0  0  0  0  0  0  0  0  0  0
   11.0863  -16.5158   17.4660 C   0  0  1  0  0  0  0  0  0  0  0  0
   11.7887  -15.7779   16.3478 C   0  0  0  0  0  0  0  0  0  0  0  0
   12.0786  -16.7519   15.2656 C   0  0  0  0  0  0  0  0  0  0  0  0
   11.2658  -17.0205   14.3623 O   0  0  0  0  0  0  0  0  0  0  0  0
   10.9823  -15.6908   18.6904 C   0  0  0  0  0  0  0  0  0  0  0  0
   12.0288  -15.2974   19.2415 O   0  0  0  0  0  0  0  0  0  0  0  0
   13.3126  -17.4243   15.2190 O   0  0  0  0  0  0  0  0  0  0  0  0
    6.5868  -12.4964   19.2439 C   0  0  0  0  0  0  0  0  0  0  0  0
    7.9722  -13.0753   19.2721 C   0  0  1  0  0  0  0  0  0  0  0  0
    8.9410  -11.8941   19.1196 C   0  0  0  0  0  0  0  0  0  0  0  0
    8.2983  -13.8611   20.5121 C   0  0  0  0  0  0  0  0  0  0  0  0
    9.5684  -14.6029   20.5041 C   0  0  2  0  0  0  0  0  0  0  0  0
    9.7579  -15.3359   19.2526 N   0  0  0  0  0  0  0  0  0  0  0  0
    9.9505  -15.3792   21.6724 C   0  0  0  0  0  0  0  0  0  0  0  0
    9.8989  -14.7809   22.8064 O   0  0  0  0  0  0  0  0  0  0  0  0
   10.5702  -22.9710   19.5281 N   0  0  0  0  0  0  0  0  0  0  0  0
   11.3833  -22.9825   20.7105 C   0  0  0  0  0  0  0  0  0  0  0  0
   11.8726  -24.0942   21.1677 N   0  0  0  0  0  0  0  0  0  0  0  0
   11.6644  -21.7898   21.3934 N   0  0  0  0  0  0  0  0  0  0  0  0
   11.1408  -20.5094   20.9709 C   0  0  0  0  0  0  0  0  0  0  0  0
   11.6778  -19.3519   21.7879 C   0  0  0  0  0  0  0  0  0  0  0  0
   10.6922  -18.8712   22.8064 C   0  0  0  0  0  0  0  0  0  0  0  0
   10.7350  -17.3965   22.9750 C   0  0  2  0  0  0  0  0  0  0  0  0
   10.3736  -16.7175   21.7216 N   0  0  0  0  0  0  0  0  0  0  0  0
   12.0581  -16.9602   23.4297 C   0  0  0  0  0  0  0  0  0  0  0  0
   12.4696  -17.4066   24.5620 O   0  0  0  0  0  0  0  0  0  0  0  0
   12.9321  -16.1227   22.7908 O   0  0  0  0  0  0  0  0  0  0  0  0
  2  1  1  6
  2  3  1  0
  3  4  1  0
  4  5  2  0
  6  7  2  0
  6  2  1  0
  8  4  1  0
 10  9  1  1
 10 12  1  0
 11 10  1  0
 13 12  1  1
 13 14  1  0
 14  6  1  0
 15 13  1  0
 16 15  2  0
 18 17  1  0
 19 18  2  0
 20 18  1  0
 21 20  1  0
 22 21  1  0
 23 22  1  0
 24 23  1  6
 24 25  1  0
 25 15  1  0
 26 24  1  0
 26 28  1  0
 27 26  2  0
M  END
$$$$
