DLR.pdb
     RDKit          3D

 28 27  0  0  1  0  0  0  0  0999 V2000
    8.9999  -16.6914   21.7328 N   0  0  0  0  0  0  0  0  0  0  0  0
   10.1798  -16.2602   22.4071 C   0  0  1  0  0  0  0  0  0  0  0  0
   11.2155  -15.6528   21.4871 C   0  0  0  0  0  0  0  0  0  0  0  0
   12.0153  -16.7584   20.9022 C   0  0  0  0  0  0  0  0  0  0  0  0
   11.8462  -17.9519   21.2112 O   0  0  0  0  0  0  0  0  0  0  0  0
    9.9408  -15.4177   23.6003 C   0  0  0  0  0  0  0  0  0  0  0  0
   10.9130  -14.8656   24.1513 O   0  0  0  0  0  0  0  0  0  0  0  0
   13.0187  -16.4922   19.9538 O   0  0  0  0  0  0  0  0  0  0  0  0
    7.1941  -11.6610   26.4500 C   0  0  0  0  0  0  0  0  0  0  0  0
    6.5467  -13.0152   26.4040 C   0  0  1  0  0  0  0  0  0  0  0  0
    5.0319  -12.7722   26.3458 C   0  0  0  0  0  0  0  0  0  0  0  0
    6.9813  -13.8794   25.2526 C   0  0  0  0  0  0  0  0  0  0  0  0
    8.3501  -14.4144   25.3135 C   0  0  2  0  0  0  0  0  0  0  0  0
    8.6692  -15.2172   24.1332 N   0  0  0  0  0  0  0  0  0  0  0  0
    8.8283  -15.0164   26.5475 C   0  0  0  0  0  0  0  0  0  0  0  0
    8.2551  -14.6429   27.6331 O   0  0  0  0  0  0  0  0  0  0  0  0
   13.7160  -20.0126   24.2960 N   0  0  0  0  0  0  0  0  0  0  0  0
   12.4304  -20.6439   24.3847 C   0  0  0  0  0  0  0  0  0  0  0  0
   11.9658  -21.3436   23.3952 N   0  0  0  0  0  0  0  0  0  0  0  0
   11.6524  -20.5162   25.5450 N   0  0  0  0  0  0  0  0  0  0  0  0
   11.9788  -19.5840   26.6017 C   0  0  0  0  0  0  0  0  0  0  0  0
   10.9455  -18.4878   26.7636 C   0  0  0  0  0  0  0  0  0  0  0  0
   11.2892  -17.5437   27.8729 C   0  0  0  0  0  0  0  0  0  0  0  0
   10.2806  -16.4643   28.0226 C   0  0  2  0  0  0  0  0  0  0  0  0
    9.8495  -15.9673   26.7074 N   0  0  0  0  0  0  0  0  0  0  0  0
   10.8074  -15.3655   28.8368 C   0  0  0  0  0  0  0  0  0  0  0  0
   10.9440  -14.2221   28.2671 O   0  0  0  0  0  0  0  0  0  0  0  0
   11.1790  -15.3989   30.1538 O   0  0  0  0  0  0  0  0  0  0  0  0
  2  1  1  6
  2  3  1  0
  3  4  1  0
  4  5  2  0
  6  7  2  0
  6  2  1  0
  8  4  1  0
 10  9  1  6
 10 12  1  0
 11 10  1  0
 13 12  1  1
 13 14  1  0
 14  6  1  0
 15 13  1  0
 16 15  2  0
 18 17  1  0
 19 18  2  0
 20 18  1  0
 21 20  1  0
 22 21  1  0
 23 22  1  0
 24 23  1  6
 24 25  1  0
 25 15  1  0
 26 24  1  0
 26 28  1  0
 27 26  2  0
M  END
$$$$
