DLR.pdb
     RDKit          3D

 28 27  0  0  1  0  0  0  0  0999 V2000
    9.1011  -17.4417   16.5653 N   0  0  0  0  0  0  0  0  0  0  0  0
   10.3872  -16.8723   16.7981 C   0  0  1  0  0  0  0  0  0  0  0  0
   10.9216  -16.0826   15.6239 C   0  0  0  0  0  0  0  0  0  0  0  0
   11.3171  -17.0449   14.5647 C   0  0  0  0  0  0  0  0  0  0  0  0
   10.8011  -18.1713   14.4480 O   0  0  0  0  0  0  0  0  0  0  0  0
   10.5150  -16.1246   18.0690 C   0  0  0  0  0  0  0  0  0  0  0  0
   11.6361  -15.6951   18.4041 O   0  0  0  0  0  0  0  0  0  0  0  0
   12.3138  -16.7118   13.6306 O   0  0  0  0  0  0  0  0  0  0  0  0
    6.1195  -13.3242   20.0542 C   0  0  0  0  0  0  0  0  0  0  0  0
    7.5257  -13.7045   19.6890 C   0  0  1  0  0  0  0  0  0  0  0  0
    8.3380  -12.4019   19.6690 C   0  0  0  0  0  0  0  0  0  0  0  0
    8.1650  -14.7042   20.6126 C   0  0  0  0  0  0  0  0  0  0  0  0
    9.4825  -15.2202   20.2110 C   0  0  2  0  0  0  0  0  0  0  0  0
    9.4292  -15.8814   18.9073 N   0  0  0  0  0  0  0  0  0  0  0  0
   10.2903  -15.9477   21.1764 C   0  0  0  0  0  0  0  0  0  0  0  0
   10.0775  -17.2094   21.2744 O   0  0  0  0  0  0  0  0  0  0  0  0
   17.5442  -16.0301   21.4142 N   0  0  0  0  0  0  0  0  0  0  0  0
   17.6572  -16.8228   22.6050 C   0  0  0  0  0  0  0  0  0  0  0  0
   18.4367  -17.8599   22.6394 N   0  0  0  0  0  0  0  0  0  0  0  0
   16.9263  -16.4893   23.7549 N   0  0  0  0  0  0  0  0  0  0  0  0
   15.7461  -15.6543   23.7115 C   0  0  0  0  0  0  0  0  0  0  0  0
   14.4935  -16.4194   23.3357 C   0  0  0  0  0  0  0  0  0  0  0  0
   13.2610  -15.5770   23.4416 C   0  0  0  0  0  0  0  0  0  0  0  0
   12.0523  -16.2886   22.9541 C   0  0  2  0  0  0  0  0  0  0  0  0
   11.2873  -15.4419   22.0265 N   0  0  0  0  0  0  0  0  0  0  0  0
   11.2077  -16.7127   24.0741 C   0  0  0  0  0  0  0  0  0  0  0  0
   10.1834  -15.9873   24.3483 O   0  0  0  0  0  0  0  0  0  0  0  0
   11.3703  -17.8054   24.8824 O   0  0  0  0  0  0  0  0  0  0  0  0
  2  1  1  6
  2  3  1  0
  3  4  1  0
  4  5  2  0
  6  7  2  0
  6  2  1  0
  8  4  1  0
 10  9  1  1
 10 12  1  0
 11 10  1  0
 13 12  1  1
 13 14  1  0
 14  6  1  0
 15 13  1  0
 16 15  2  0
 18 17  1  0
 19 18  2  0
 20 18  1  0
 21 20  1  0
 22 21  1  0
 23 22  1  0
 24 23  1  1
 24 25  1  0
 25 15  1  0
 26 24  1  0
 26 28  1  0
 27 26  2  0
M  END
$$$$
