DLR.pdb
     RDKit          3D

 28 27  0  0  1  0  0  0  0  0999 V2000
    7.2772  -15.2766   20.0812 N   0  0  0  0  0  0  0  0  0  0  0  0
    8.5001  -15.7933   20.6008 C   0  0  1  0  0  0  0  0  0  0  0  0
    9.6696  -15.6506   19.6521 C   0  0  0  0  0  0  0  0  0  0  0  0
    9.3431  -16.3884   18.4059 C   0  0  0  0  0  0  0  0  0  0  0  0
    8.5268  -17.3271   18.3703 O   0  0  0  0  0  0  0  0  0  0  0  0
    8.8388  -15.3332   21.9662 C   0  0  0  0  0  0  0  0  0  0  0  0
    9.9713  -15.5848   22.4221 O   0  0  0  0  0  0  0  0  0  0  0  0
    9.9586  -16.0460   17.1889 O   0  0  0  0  0  0  0  0  0  0  0  0
    8.4549  -11.9751   26.3704 C   0  0  0  0  0  0  0  0  0  0  0  0
    7.2486  -12.8044   26.0352 C   0  0  1  0  0  0  0  0  0  0  0  0
    6.0219  -11.9595   26.4070 C   0  0  0  0  0  0  0  0  0  0  0  0
    7.1665  -13.2397   24.5982 C   0  0  0  0  0  0  0  0  0  0  0  0
    8.1510  -14.2399   24.1579 C   0  0  2  0  0  0  0  0  0  0  0  0
    7.9397  -14.6285   22.7637 N   0  0  0  0  0  0  0  0  0  0  0  0
    8.4518  -15.3736   25.0169 C   0  0  0  0  0  0  0  0  0  0  0  0
    7.5152  -16.2340   25.1880 O   0  0  0  0  0  0  0  0  0  0  0  0
   13.6700  -20.5314   28.3555 N   0  0  0  0  0  0  0  0  0  0  0  0
   13.2037  -21.4747   27.3798 C   0  0  0  0  0  0  0  0  0  0  0  0
   13.2963  -22.7512   27.5948 N   0  0  0  0  0  0  0  0  0  0  0  0
   12.6380  -21.0324   26.1747 N   0  0  0  0  0  0  0  0  0  0  0  0
   12.5624  -19.6327   25.8183 C   0  0  0  0  0  0  0  0  0  0  0  0
   11.3691  -18.9294   26.4325 C   0  0  0  0  0  0  0  0  0  0  0  0
   11.0477  -17.6445   25.7357 C   0  0  0  0  0  0  0  0  0  0  0  0
    9.9079  -16.9338   26.3687 C   0  0  2  0  0  0  0  0  0  0  0  0
    9.6510  -15.6535   25.6922 N   0  0  0  0  0  0  0  0  0  0  0  0
   10.1548  -16.7169   27.7968 C   0  0  0  0  0  0  0  0  0  0  0  0
   10.5644  -15.5529   28.1546 O   0  0  0  0  0  0  0  0  0  0  0  0
   10.0007  -17.6113   28.8215 O   0  0  0  0  0  0  0  0  0  0  0  0
  2  1  1  6
  2  3  1  0
  3  4  1  0
  4  5  2  0
  6  7  2  0
  6  2  1  0
  8  4  1  0
 10  9  1  6
 10 12  1  0
 11 10  1  0
 13 12  1  1
 13 14  1  0
 14  6  1  0
 15 13  1  0
 16 15  2  0
 18 17  1  0
 19 18  2  0
 20 18  1  0
 21 20  1  0
 22 21  1  0
 23 22  1  0
 24 23  1  6
 24 25  1  0
 25 15  1  0
 26 24  1  0
 26 28  1  0
 27 26  2  0
M  END
$$$$
