DLR.pdb
     RDKit          3D

 28 27  0  0  1  0  0  0  0  0999 V2000
    9.8113  -18.0938   19.4619 N   0  0  0  0  0  0  0  0  0  0  0  0
   10.8858  -17.4488   20.1417 C   0  0  1  0  0  0  0  0  0  0  0  0
   12.0918  -17.1947   19.2648 C   0  0  0  0  0  0  0  0  0  0  0  0
   12.4114  -18.4542   18.5466 C   0  0  0  0  0  0  0  0  0  0  0  0
   12.8383  -19.4712   19.1229 O   0  0  0  0  0  0  0  0  0  0  0  0
   10.5005  -16.2447   20.9114 C   0  0  0  0  0  0  0  0  0  0  0  0
   11.3460  -15.7101   21.6549 O   0  0  0  0  0  0  0  0  0  0  0  0
   12.2396  -18.5478   17.1543 O   0  0  0  0  0  0  0  0  0  0  0  0
    6.4836  -12.9940   18.9303 C   0  0  0  0  0  0  0  0  0  0  0  0
    7.7411  -13.4857   19.5877 C   0  0  1  0  0  0  0  0  0  0  0  0
    8.7592  -12.3407   19.4919 C   0  0  0  0  0  0  0  0  0  0  0  0
    7.5733  -13.9167   21.0186 C   0  0  0  0  0  0  0  0  0  0  0  0
    8.7309  -14.5716   21.6469 C   0  0  2  0  0  0  0  0  0  0  0  0
    9.2272  -15.6842   20.8374 N   0  0  0  0  0  0  0  0  0  0  0  0
    8.6924  -14.8838   23.0663 C   0  0  0  0  0  0  0  0  0  0  0  0
    8.4681  -13.9068   23.8674 O   0  0  0  0  0  0  0  0  0  0  0  0
    7.6785  -21.6830   24.4865 N   0  0  0  0  0  0  0  0  0  0  0  0
    7.4509  -21.1575   25.8023 C   0  0  0  0  0  0  0  0  0  0  0  0
    7.3726  -21.9490   26.8278 N   0  0  0  0  0  0  0  0  0  0  0  0
    7.3095  -19.7764   26.0032 N   0  0  0  0  0  0  0  0  0  0  0  0
    6.2844  -18.9955   25.3463 C   0  0  0  0  0  0  0  0  0  0  0  0
    6.8410  -17.8108   24.5834 C   0  0  0  0  0  0  0  0  0  0  0  0
    7.3676  -16.7463   25.4942 C   0  0  0  0  0  0  0  0  0  0  0  0
    8.7479  -16.3335   25.1344 C   0  0  2  0  0  0  0  0  0  0  0  0
    8.8705  -16.1332   23.6826 N   0  0  0  0  0  0  0  0  0  0  0  0
    9.7268  -17.3201   25.5989 C   0  0  0  0  0  0  0  0  0  0  0  0
   10.3976  -17.9523   24.7038 O   0  0  0  0  0  0  0  0  0  0  0  0
   10.0276  -17.6620   26.8897 O   0  0  0  0  0  0  0  0  0  0  0  0
  2  1  1  6
  2  3  1  0
  3  4  1  0
  4  5  2  0
  6  7  2  0
  6  2  1  0
  8  4  1  0
 10  9  1  1
 10 12  1  0
 11 10  1  0
 13 12  1  6
 13 14  1  0
 14  6  1  0
 15 13  1  0
 16 15  2  0
 18 17  1  0
 19 18  2  0
 20 18  1  0
 21 20  1  0
 22 21  1  0
 23 22  1  0
 24 23  1  6
 24 25  1  0
 25 15  1  0
 26 24  1  0
 26 28  1  0
 27 26  2  0
M  END
$$$$
