SDV.pdb
     RDKit          3D

 22 21  0  0  1  0  0  0  0  0999 V2000
   20.4661  -18.2757  -14.6028 O   0  0  0  0  0  0  0  0  0  0  0  0
   19.9947  -19.1847  -15.5714 C   0  0  0  0  0  0  0  0  0  0  0  0
   19.4794  -20.3942  -14.8219 C   0  0  2  0  0  0  0  0  0  0  0  0
   18.4386  -19.9725  -13.9014 N   0  0  0  0  0  0  0  0  0  0  0  0
   20.5309  -21.0956  -14.0690 C   0  0  0  0  0  0  0  0  0  0  0  0
   20.4946  -21.1871  -12.8176 O   0  0  0  0  0  0  0  0  0  0  0  0
   21.6255  -21.6991  -14.7286 N   0  0  0  0  0  0  0  0  0  0  0  0
   22.6991  -22.3754  -14.0187 C   0  0  1  0  0  0  0  0  0  0  0  0
   23.2148  -23.4111  -15.0497 C   0  0  0  0  0  0  0  0  0  0  0  0
   24.2273  -24.2995  -14.4913 C   0  0  0  0  0  0  0  0  0  0  0  0
   24.6522  -24.2136  -13.3151 O   0  0  0  0  0  0  0  0  0  0  0  0
   23.7954  -21.4000  -13.8065 C   0  0  0  0  0  0  0  0  0  0  0  0
   23.9644  -20.4245  -14.6028 O   0  0  0  0  0  0  0  0  0  0  0  0
   24.7460  -25.2974  -15.3226 O   0  0  0  0  0  0  0  0  0  0  0  0
   25.1992  -20.8526   -9.8997 C   0  0  0  0  0  0  0  0  0  0  0  0
   26.2930  -20.9344  -10.9742 C   0  0  1  0  0  0  0  0  0  0  0  0
   27.0101  -22.2410  -10.9312 C   0  0  0  0  0  0  0  0  0  0  0  0
   25.6996  -20.6105  -12.3349 C   0  0  2  0  0  0  0  0  0  0  0  0
   24.6746  -21.5204  -12.7301 N   0  0  0  0  0  0  0  0  0  0  0  0
   26.7760  -20.6360  -13.3416 C   0  0  0  0  0  0  0  0  0  0  0  0
   26.8485  -21.6196  -14.1450 O   0  0  0  0  0  0  0  0  0  0  0  0
   27.7334  -19.6366  -13.4681 O   0  0  0  0  0  0  0  0  0  0  0  0
  1  2  1  0
  2  3  1  0
  3  4  1  1
  5  3  1  0
  5  6  2  0
  7  5  1  0
  8 12  1  0
  8  7  1  0
  8  9  1  6
 10  9  1  0
 10 11  2  0
 12 13  2  0
 14 10  1  0
 16 15  1  1
 16 17  1  0
 18 16  1  0
 19 12  1  0
 18 19  1  6
 20 22  1  0
 20 18  1  0
 21 20  2  0
M  END
$$$$
