SDV.pdb
     RDKit          3D

 22 21  0  0  1  0  0  0  0  0999 V2000
   16.1976  -14.5519  -14.0493 O   0  0  0  0  0  0  0  0  0  0  0  0
   16.9815  -13.4596  -14.4725 C   0  0  0  0  0  0  0  0  0  0  0  0
   16.1599  -12.7010  -15.4923 C   0  0  2  0  0  0  0  0  0  0  0  0
   16.0212  -13.5137  -16.6875 N   0  0  0  0  0  0  0  0  0  0  0  0
   16.7518  -11.4050  -15.8590 C   0  0  0  0  0  0  0  0  0  0  0  0
   17.6974  -11.3222  -16.6804 O   0  0  0  0  0  0  0  0  0  0  0  0
   16.2744  -10.1975  -15.3009 N   0  0  0  0  0  0  0  0  0  0  0  0
   16.8081   -8.8949  -15.6646 C   0  0  1  0  0  0  0  0  0  0  0  0
   15.7591   -7.9056  -15.0965 C   0  0  0  0  0  0  0  0  0  0  0  0
   16.1142   -6.5127  -15.3411 C   0  0  0  0  0  0  0  0  0  0  0  0
   16.7962   -6.1333  -16.3221 O   0  0  0  0  0  0  0  0  0  0  0  0
   18.0586   -8.6803  -14.8975 C   0  0  0  0  0  0  0  0  0  0  0  0
   18.1663   -9.0854  -13.6980 O   0  0  0  0  0  0  0  0  0  0  0  0
   15.6646   -5.5569  -14.4246 O   0  0  0  0  0  0  0  0  0  0  0  0
   21.4971   -8.3531  -17.1500 C   0  0  0  0  0  0  0  0  0  0  0  0
   21.5052   -8.7219  -15.6595 C   0  0  1  0  0  0  0  0  0  0  0  0
   22.8734   -8.6216  -15.0753 C   0  0  0  0  0  0  0  0  0  0  0  0
   20.4663   -7.8946  -14.9214 C   0  0  2  0  0  0  0  0  0  0  0  0
   19.1541   -8.0289  -15.4645 N   0  0  0  0  0  0  0  0  0  0  0  0
   20.8628   -6.4759  -14.9740 C   0  0  0  0  0  0  0  0  0  0  0  0
   20.2630   -5.6954  -15.7798 O   0  0  0  0  0  0  0  0  0  0  0  0
   21.8691   -5.9297  -14.1864 O   0  0  0  0  0  0  0  0  0  0  0  0
  1  2  1  0
  2  3  1  0
  3  4  1  6
  5  3  1  0
  5  6  2  0
  7  5  1  0
  8 12  1  0
  8  7  1  0
  8  9  1  1
 10  9  1  0
 10 11  2  0
 12 13  2  0
 14 10  1  0
 16 15  1  6
 16 17  1  0
 18 16  1  0
 19 12  1  0
 18 19  1  6
 20 22  1  0
 20 18  1  0
 21 20  2  0
M  END
$$$$
