SDV.pdb
     RDKit          3D

 22 21  0  0  1  0  0  0  0  0999 V2000
   11.2386  -13.3418  -11.9338 O   0  0  0  0  0  0  0  0  0  0  0  0
   12.0820  -12.2305  -11.7331 C   0  0  0  0  0  0  0  0  0  0  0  0
   13.4859  -12.6793  -12.0766 C   0  0  2  0  0  0  0  0  0  0  0  0
   13.6770  -14.0389  -11.6041 N   0  0  0  0  0  0  0  0  0  0  0  0
   14.5249  -11.8173  -11.4918 C   0  0  0  0  0  0  0  0  0  0  0  0
   14.9177  -11.9698  -10.3094 O   0  0  0  0  0  0  0  0  0  0  0  0
   15.1260  -10.7821  -12.2431 N   0  0  0  0  0  0  0  0  0  0  0  0
   16.1516   -9.9063  -11.6999 C   0  0  1  0  0  0  0  0  0  0  0  0
   16.9945   -9.5258  -12.9435 C   0  0  0  0  0  0  0  0  0  0  0  0
   18.1386   -8.6863  -12.6080 C   0  0  0  0  0  0  0  0  0  0  0  0
   18.6870   -8.6803  -11.4808 O   0  0  0  0  0  0  0  0  0  0  0  0
   15.4934   -8.6629  -11.2319 C   0  0  0  0  0  0  0  0  0  0  0  0
   14.5881   -8.1028  -11.9255 O   0  0  0  0  0  0  0  0  0  0  0  0
   18.6425   -7.8457  -13.6056 O   0  0  0  0  0  0  0  0  0  0  0  0
   14.4067   -5.7739   -7.3807 C   0  0  0  0  0  0  0  0  0  0  0  0
   14.7665   -7.1211   -8.0234 C   0  0  1  0  0  0  0  0  0  0  0  0
   13.6293   -8.0833   -7.9579 C   0  0  0  0  0  0  0  0  0  0  0  0
   15.2906   -6.8934   -9.4313 C   0  0  2  0  0  0  0  0  0  0  0  0
   15.8448   -8.0688  -10.0197 N   0  0  0  0  0  0  0  0  0  0  0  0
   16.3263   -5.8455   -9.3896 C   0  0  0  0  0  0  0  0  0  0  0  0
   17.5388   -6.1812   -9.2012 O   0  0  0  0  0  0  0  0  0  0  0  0
   16.0556   -4.4911   -9.5439 O   0  0  0  0  0  0  0  0  0  0  0  0
  1  2  1  0
  2  3  1  0
  3  4  1  1
  5  3  1  0
  5  6  2  0
  7  5  1  0
  8 12  1  0
  8  7  1  0
  8  9  1  6
 10  9  1  0
 10 11  2  0
 12 13  2  0
 14 10  1  0
 16 15  1  6
 16 17  1  0
 18 16  1  0
 19 12  1  0
 18 19  1  1
 20 22  1  0
 20 18  1  0
 21 20  2  0
M  END
$$$$
