SDV.pdb
     RDKit          3D

 22 21  0  0  1  0  0  0  0  0999 V2000
   17.7722  -14.5612  -15.6365 O   0  0  0  0  0  0  0  0  0  0  0  0
   16.9232  -13.9448  -14.6952 C   0  0  0  0  0  0  0  0  0  0  0  0
   15.9789  -13.0554  -15.4747 C   0  0  2  0  0  0  0  0  0  0  0  0
   15.4169  -13.8137  -16.5781 N   0  0  0  0  0  0  0  0  0  0  0  0
   16.6315  -11.8482  -16.0049 C   0  0  0  0  0  0  0  0  0  0  0  0
   16.8780  -11.7170  -17.2288 O   0  0  0  0  0  0  0  0  0  0  0  0
   17.0045  -10.7833  -15.1539 N   0  0  0  0  0  0  0  0  0  0  0  0
   17.6086   -9.5554  -15.6448 C   0  0  1  0  0  0  0  0  0  0  0  0
   16.5594   -8.4717  -15.2892 C   0  0  0  0  0  0  0  0  0  0  0  0
   16.9615   -7.1397  -15.7253 C   0  0  0  0  0  0  0  0  0  0  0  0
   17.7632   -6.9309  -16.6661 O   0  0  0  0  0  0  0  0  0  0  0  0
   18.8103   -9.2740  -14.8232 C   0  0  0  0  0  0  0  0  0  0  0  0
   18.8258   -9.5330  -13.5793 O   0  0  0  0  0  0  0  0  0  0  0  0
   16.4172   -6.0428  -15.0496 O   0  0  0  0  0  0  0  0  0  0  0  0
   22.2404  -10.7210  -15.0548 C   0  0  0  0  0  0  0  0  0  0  0  0
   22.3650   -9.2252  -15.3782 C   0  0  1  0  0  0  0  0  0  0  0  0
   22.5048   -8.9889  -16.8438 C   0  0  0  0  0  0  0  0  0  0  0  0
   21.2097   -8.4666  -14.7471 C   0  0  2  0  0  0  0  0  0  0  0  0
   19.9591   -8.7175  -15.3858 N   0  0  0  0  0  0  0  0  0  0  0  0
   21.4978   -7.0224  -14.8104 C   0  0  0  0  0  0  0  0  0  0  0  0
   20.8181   -6.2899  -15.5977 O   0  0  0  0  0  0  0  0  0  0  0  0
   22.4833   -6.4016  -14.0523 O   0  0  0  0  0  0  0  0  0  0  0  0
  1  2  1  0
  2  3  1  0
  3  4  1  6
  5  3  1  0
  5  6  2  0
  7  5  1  0
  8 12  1  0
  8  7  1  0
  8  9  1  1
 10  9  1  0
 10 11  2  0
 12 13  2  0
 14 10  1  0
 16 15  1  6
 16 17  1  0
 18 16  1  0
 19 12  1  0
 18 19  1  6
 20 22  1  0
 20 18  1  0
 21 20  2  0
M  END
$$$$
