SDV.pdb
     RDKit          3D

 22 21  0  0  1  0  0  0  0  0999 V2000
   14.5516   -8.4359  -17.6460 O   0  0  0  0  0  0  0  0  0  0  0  0
   15.6118   -7.9670  -16.8443 C   0  0  0  0  0  0  0  0  0  0  0  0
   16.6484   -9.0688  -16.8019 C   0  0  2  0  0  0  0  0  0  0  0  0
   16.0328  -10.2782  -16.2856 N   0  0  0  0  0  0  0  0  0  0  0  0
   17.8139   -8.7306  -15.9703 C   0  0  0  0  0  0  0  0  0  0  0  0
   17.7841   -8.8394  -14.7201 O   0  0  0  0  0  0  0  0  0  0  0  0
   19.0187   -8.2717  -16.5495 N   0  0  0  0  0  0  0  0  0  0  0  0
   20.2069   -7.9732  -15.7666 C   0  0  1  0  0  0  0  0  0  0  0  0
   21.3034   -8.8428  -16.4323 C   0  0  0  0  0  0  0  0  0  0  0  0
   22.6096   -8.6707  -15.8073 C   0  0  0  0  0  0  0  0  0  0  0  0
   22.8132   -7.9238  -14.8214 O   0  0  0  0  0  0  0  0  0  0  0  0
   20.5752   -6.5581  -16.0118 C   0  0  0  0  0  0  0  0  0  0  0  0
   20.5909   -6.0824  -17.1900 O   0  0  0  0  0  0  0  0  0  0  0  0
   23.6865   -9.3820  -16.3460 O   0  0  0  0  0  0  0  0  0  0  0  0
   19.0589   -3.5481  -15.8726 C   0  0  0  0  0  0  0  0  0  0  0  0
   20.1183   -3.3868  -14.7730 C   0  0  1  0  0  0  0  0  0  0  0  0
   19.5269   -3.5382  -13.4126 C   0  0  0  0  0  0  0  0  0  0  0  0
   21.2806   -4.3284  -15.0394 C   0  0  2  0  0  0  0  0  0  0  0  0
   20.9155   -5.7052  -14.9617 N   0  0  0  0  0  0  0  0  0  0  0  0
   22.3454   -4.0598  -14.0562 C   0  0  0  0  0  0  0  0  0  0  0  0
   22.4491   -4.8119  -13.0355 O   0  0  0  0  0  0  0  0  0  0  0  0
   23.2568   -3.0175  -14.1761 O   0  0  0  0  0  0  0  0  0  0  0  0
  1  2  1  0
  2  3  1  0
  3  4  1  1
  5  3  1  0
  5  6  2  0
  7  5  1  0
  8 12  1  0
  8  7  1  0
  8  9  1  6
 10  9  1  0
 10 11  2  0
 12 13  2  0
 14 10  1  0
 16 15  1  6
 16 17  1  0
 18 16  1  0
 19 12  1  0
 18 19  1  1
 20 22  1  0
 20 18  1  0
 21 20  2  0
M  END
$$$$
