SDV.pdb
     RDKit          3D

 22 21  0  0  1  0  0  0  0  0999 V2000
   17.2009  -15.4682  -15.0266 O   0  0  0  0  0  0  0  0  0  0  0  0
   18.0211  -14.3276  -15.1410 C   0  0  0  0  0  0  0  0  0  0  0  0
   17.8798  -13.8282  -16.5625 C   0  0  2  0  0  0  0  0  0  0  0  0
   18.5380  -14.7610  -17.4597 N   0  0  0  0  0  0  0  0  0  0  0  0
   18.4512  -12.4870  -16.7607 C   0  0  0  0  0  0  0  0  0  0  0  0
   19.6431  -12.3260  -17.1200 O   0  0  0  0  0  0  0  0  0  0  0  0
   17.6759  -11.3230  -16.5568 N   0  0  0  0  0  0  0  0  0  0  0  0
   18.1863   -9.9830  -16.7969 C   0  0  1  0  0  0  0  0  0  0  0  0
   16.9020   -9.1206  -16.8893 C   0  0  0  0  0  0  0  0  0  0  0  0
   16.2175   -9.2721  -18.1678 C   0  0  0  0  0  0  0  0  0  0  0  0
   16.7346   -8.9749  -19.2704 O   0  0  0  0  0  0  0  0  0  0  0  0
   18.9113   -9.5427  -15.5809 C   0  0  0  0  0  0  0  0  0  0  0  0
   18.4386   -9.7653  -14.4227 O   0  0  0  0  0  0  0  0  0  0  0  0
   14.9132   -9.7766  -18.1508 O   0  0  0  0  0  0  0  0  0  0  0  0
   22.2123  -10.6354  -14.4716 C   0  0  0  0  0  0  0  0  0  0  0  0
   22.3535   -9.1161  -14.6432 C   0  0  1  0  0  0  0  0  0  0  0  0
   23.1364   -8.7706  -15.8641 C   0  0  0  0  0  0  0  0  0  0  0  0
   20.9812   -8.4655  -14.5960 C   0  0  2  0  0  0  0  0  0  0  0  0
   20.1313   -8.8719  -15.6672 N   0  0  0  0  0  0  0  0  0  0  0  0
   21.1468   -7.0017  -14.6458 C   0  0  0  0  0  0  0  0  0  0  0  0
   20.8775   -6.3850  -15.7254 O   0  0  0  0  0  0  0  0  0  0  0  0
   21.5880   -6.2413  -13.5695 O   0  0  0  0  0  0  0  0  0  0  0  0
  1  2  1  0
  2  3  1  0
  3  4  1  6
  5  3  1  0
  5  6  2  0
  7  5  1  0
  8 12  1  0
  8  7  1  0
  8  9  1  1
 10  9  1  0
 10 11  2  0
 12 13  2  0
 14 10  1  0
 16 15  1  6
 16 17  1  0
 18 16  1  0
 19 12  1  0
 18 19  1  6
 20 22  1  0
 20 18  1  0
 21 20  2  0
M  END
$$$$
