SDV.pdb
     RDKit          3D

 22 21  0  0  1  0  0  0  0  0999 V2000
   12.4121  -12.8587  -13.9575 O   0  0  0  0  0  0  0  0  0  0  0  0
   13.4551  -11.9363  -13.7380 C   0  0  0  0  0  0  0  0  0  0  0  0
   14.4956  -12.6446  -12.8978 C   0  0  2  0  0  0  0  0  0  0  0  0
   13.8270  -13.3950  -11.8499 N   0  0  0  0  0  0  0  0  0  0  0  0
   15.4648  -11.7231  -12.2847 C   0  0  0  0  0  0  0  0  0  0  0  0
   16.3573  -12.1317  -11.5022 O   0  0  0  0  0  0  0  0  0  0  0  0
   15.4308  -10.3366  -12.5570 N   0  0  0  0  0  0  0  0  0  0  0  0
   16.3510   -9.3901  -11.9478 C   0  0  1  0  0  0  0  0  0  0  0  0
   17.1618   -8.8508  -13.1534 C   0  0  0  0  0  0  0  0  0  0  0  0
   18.0798   -7.7823  -12.7768 C   0  0  0  0  0  0  0  0  0  0  0  0
   17.9449   -6.5912  -13.1435 O   0  0  0  0  0  0  0  0  0  0  0  0
   15.5587   -8.2528  -11.4215 C   0  0  0  0  0  0  0  0  0  0  0  0
   14.6201   -7.7387  -12.1065 O   0  0  0  0  0  0  0  0  0  0  0  0
   19.1667   -8.1164  -11.9627 O   0  0  0  0  0  0  0  0  0  0  0  0
   14.3960   -5.6156   -7.3452 C   0  0  0  0  0  0  0  0  0  0  0  0
   15.1142   -6.8134   -7.9832 C   0  0  1  0  0  0  0  0  0  0  0  0
   14.5586   -8.1097   -7.4994 C   0  0  0  0  0  0  0  0  0  0  0  0
   15.1006   -6.6724   -9.4960 C   0  0  2  0  0  0  0  0  0  0  0  0
   15.8163   -7.7112  -10.1620 N   0  0  0  0  0  0  0  0  0  0  0  0
   15.6958   -5.3734   -9.8581 C   0  0  0  0  0  0  0  0  0  0  0  0
   14.9984   -4.3169   -9.7326 O   0  0  0  0  0  0  0  0  0  0  0  0
   16.9921   -5.2292  -10.3376 O   0  0  0  0  0  0  0  0  0  0  0  0
  1  2  1  0
  2  3  1  0
  3  4  1  1
  5  3  1  0
  5  6  2  0
  7  5  1  0
  8 12  1  0
  8  7  1  0
  8  9  1  6
 10  9  1  0
 10 11  2  0
 12 13  2  0
 14 10  1  0
 16 15  1  1
 16 17  1  0
 18 16  1  0
 19 12  1  0
 18 19  1  6
 20 22  1  0
 20 18  1  0
 21 20  2  0
M  END
$$$$
