SDV.pdb
     RDKit          3D

 22 21  0  0  1  0  0  0  0  0999 V2000
   12.1329  -12.4108  -12.4350 O   0  0  0  0  0  0  0  0  0  0  0  0
   13.0653  -11.9877  -13.4037 C   0  0  0  0  0  0  0  0  0  0  0  0
   14.4172  -12.5079  -12.9656 C   0  0  2  0  0  0  0  0  0  0  0  0
   14.2245  -13.6614  -12.1051 N   0  0  0  0  0  0  0  0  0  0  0  0
   15.2159  -11.5019  -12.2483 C   0  0  0  0  0  0  0  0  0  0  0  0
   15.3880  -11.5617  -11.0063 O   0  0  0  0  0  0  0  0  0  0  0  0
   15.8260  -10.4266  -12.9331 N   0  0  0  0  0  0  0  0  0  0  0  0
   16.6483   -9.4308  -12.2653 C   0  0  1  0  0  0  0  0  0  0  0  0
   17.5304   -8.8681  -13.4085 C   0  0  0  0  0  0  0  0  0  0  0  0
   18.5396   -7.9321  -12.9272 C   0  0  0  0  0  0  0  0  0  0  0  0
   18.7540   -7.7080  -11.7126 O   0  0  0  0  0  0  0  0  0  0  0  0
   15.7640   -8.3259  -11.8233 C   0  0  0  0  0  0  0  0  0  0  0  0
   14.7949   -7.9362  -12.5469 O   0  0  0  0  0  0  0  0  0  0  0  0
   19.3035   -7.2527  -13.8815 O   0  0  0  0  0  0  0  0  0  0  0  0
   13.7717   -8.1039   -8.5512 C   0  0  0  0  0  0  0  0  0  0  0  0
   14.7729   -6.9403   -8.5844 C   0  0  1  0  0  0  0  0  0  0  0  0
   15.9336   -7.1870   -7.6815 C   0  0  0  0  0  0  0  0  0  0  0  0
   15.1712   -6.6479  -10.0212 C   0  0  2  0  0  0  0  0  0  0  0  0
   15.9655   -7.6798  -10.6035 N   0  0  0  0  0  0  0  0  0  0  0  0
   15.9283   -5.3837  -10.0571 C   0  0  0  0  0  0  0  0  0  0  0  0
   17.1818   -5.4191  -10.2713 O   0  0  0  0  0  0  0  0  0  0  0  0
   15.3485   -4.1352   -9.8665 O   0  0  0  0  0  0  0  0  0  0  0  0
  1  2  1  0
  2  3  1  0
  3  4  1  1
  5  3  1  0
  5  6  2  0
  7  5  1  0
  8 12  1  0
  8  7  1  0
  8  9  1  6
 10  9  1  0
 10 11  2  0
 12 13  2  0
 14 10  1  0
 16 15  1  6
 16 17  1  0
 18 16  1  0
 19 12  1  0
 18 19  1  1
 20 22  1  0
 20 18  1  0
 21 20  2  0
M  END
$$$$
