SDV.pdb
     RDKit          3D

 22 21  0  0  1  0  0  0  0  0999 V2000
   17.1227  -11.8524  -13.9488 O   0  0  0  0  0  0  0  0  0  0  0  0
   16.0743  -11.2999  -14.7119 C   0  0  0  0  0  0  0  0  0  0  0  0
   16.5659  -11.2258  -16.1413 C   0  0  2  0  0  0  0  0  0  0  0  0
   17.1470  -12.5047  -16.5089 N   0  0  0  0  0  0  0  0  0  0  0  0
   17.5647  -10.1663  -16.3520 C   0  0  0  0  0  0  0  0  0  0  0  0
   18.6910  -10.4130  -16.8483 O   0  0  0  0  0  0  0  0  0  0  0  0
   17.2923   -8.8234  -16.0057 N   0  0  0  0  0  0  0  0  0  0  0  0
   18.2276   -7.7388  -16.2558 C   0  0  1  0  0  0  0  0  0  0  0  0
   17.3203   -6.4828  -16.2901 C   0  0  0  0  0  0  0  0  0  0  0  0
   16.5803   -6.3615  -17.5406 C   0  0  0  0  0  0  0  0  0  0  0  0
   17.1284   -6.2611  -18.6635 O   0  0  0  0  0  0  0  0  0  0  0  0
   19.1023   -7.6028  -15.0664 C   0  0  0  0  0  0  0  0  0  0  0  0
   18.6448   -7.7865  -13.8953 O   0  0  0  0  0  0  0  0  0  0  0  0
   15.1835   -6.3574  -17.4713 O   0  0  0  0  0  0  0  0  0  0  0  0
   22.1944   -9.5847  -14.4657 C   0  0  0  0  0  0  0  0  0  0  0  0
   22.6362   -8.1144  -14.4456 C   0  0  1  0  0  0  0  0  0  0  0  0
   23.3765   -7.7452  -15.6860 C   0  0  0  0  0  0  0  0  0  0  0  0
   21.4382   -7.2232  -14.1640 C   0  0  2  0  0  0  0  0  0  0  0  0
   20.4511   -7.2700  -15.1927 N   0  0  0  0  0  0  0  0  0  0  0  0
   21.9045   -5.8333  -14.0114 C   0  0  0  0  0  0  0  0  0  0  0  0
   21.7111   -5.0082  -14.9601 O   0  0  0  0  0  0  0  0  0  0  0  0
   22.5549   -5.3612  -12.8776 O   0  0  0  0  0  0  0  0  0  0  0  0
  1  2  1  0
  2  3  1  0
  3  4  1  1
  5  3  1  0
  5  6  2  0
  7  5  1  0
  8 12  1  0
  8  7  1  0
  8  9  1  1
 10  9  1  0
 10 11  2  0
 12 13  2  0
 14 10  1  0
 16 15  1  6
 16 17  1  0
 18 16  1  0
 19 12  1  0
 18 19  1  6
 20 22  1  0
 20 18  1  0
 21 20  2  0
M  END
$$$$
