SDV.pdb
     RDKit          3D

 22 21  0  0  1  0  0  0  0  0999 V2000
   19.3275  -14.3258  -15.2950 O   0  0  0  0  0  0  0  0  0  0  0  0
   19.6249  -13.0590  -15.8369 C   0  0  0  0  0  0  0  0  0  0  0  0
   18.3321  -12.2724  -15.8446 C   0  0  2  0  0  0  0  0  0  0  0  0
   17.4728  -12.7843  -16.8973 N   0  0  0  0  0  0  0  0  0  0  0  0
   18.5372  -10.8303  -16.0510 C   0  0  0  0  0  0  0  0  0  0  0  0
   19.0016  -10.3789  -17.1264 O   0  0  0  0  0  0  0  0  0  0  0  0
   18.2147   -9.8929  -15.0437 N   0  0  0  0  0  0  0  0  0  0  0  0
   18.3493   -8.4573  -15.2295 C   0  0  1  0  0  0  0  0  0  0  0  0
   17.0966   -7.8841  -14.5195 C   0  0  0  0  0  0  0  0  0  0  0  0
   15.8749   -8.0896  -15.2885 C   0  0  0  0  0  0  0  0  0  0  0  0
   14.9018   -8.7640  -14.8766 O   0  0  0  0  0  0  0  0  0  0  0  0
   19.5275   -8.0018  -14.4531 C   0  0  0  0  0  0  0  0  0  0  0  0
   19.7459   -8.4405  -13.2808 O   0  0  0  0  0  0  0  0  0  0  0  0
   15.7960   -7.4980  -16.5533 O   0  0  0  0  0  0  0  0  0  0  0  0
   23.0653   -8.2035  -15.9416 C   0  0  0  0  0  0  0  0  0  0  0  0
   22.8110   -6.7526  -15.5083 C   0  0  1  0  0  0  0  0  0  0  0  0
   22.5527   -5.8658  -16.6788 C   0  0  0  0  0  0  0  0  0  0  0  0
   21.7094   -6.7159  -14.4623 C   0  0  2  0  0  0  0  0  0  0  0  0
   20.4317   -7.0803  -14.9814 N   0  0  0  0  0  0  0  0  0  0  0  0
   21.6284   -5.3539  -13.9045 C   0  0  0  0  0  0  0  0  0  0  0  0
   22.5389   -4.9554  -13.1104 O   0  0  0  0  0  0  0  0  0  0  0  0
   20.6011   -4.4644  -14.1955 O   0  0  0  0  0  0  0  0  0  0  0  0
  1  2  1  0
  2  3  1  0
  3  4  1  6
  5  3  1  0
  5  6  2  0
  7  5  1  0
  8 12  1  0
  8  7  1  0
  8  9  1  1
 10  9  1  0
 10 11  2  0
 12 13  2  0
 14 10  1  0
 16 15  1  6
 16 17  1  0
 18 16  1  0
 19 12  1  0
 18 19  1  6
 20 22  1  0
 20 18  1  0
 21 20  2  0
M  END
$$$$
