SDV.pdb
     RDKit          3D

 22 21  0  0  1  0  0  0  0  0999 V2000
   18.3641  -13.5092  -14.8309 O   0  0  0  0  0  0  0  0  0  0  0  0
   18.8808  -12.4012  -15.5325 C   0  0  0  0  0  0  0  0  0  0  0  0
   17.6937  -11.6326  -16.0712 C   0  0  2  0  0  0  0  0  0  0  0  0
   17.3710  -12.1285  -17.3972 N   0  0  0  0  0  0  0  0  0  0  0  0
   17.9326  -10.1828  -16.1458 C   0  0  0  0  0  0  0  0  0  0  0  0
   18.5629   -9.6680  -17.1016 O   0  0  0  0  0  0  0  0  0  0  0  0
   17.4567   -9.3094  -15.1418 N   0  0  0  0  0  0  0  0  0  0  0  0
   17.5978   -7.8645  -15.2212 C   0  0  1  0  0  0  0  0  0  0  0  0
   16.3774   -7.3400  -14.4228 C   0  0  0  0  0  0  0  0  0  0  0  0
   15.1318   -7.4430  -15.1738 C   0  0  0  0  0  0  0  0  0  0  0  0
   15.0461   -7.2322  -16.4065 O   0  0  0  0  0  0  0  0  0  0  0  0
   18.8078   -7.4783  -14.4565 C   0  0  0  0  0  0  0  0  0  0  0  0
   19.1034   -8.0586  -13.3654 O   0  0  0  0  0  0  0  0  0  0  0  0
   13.9760   -7.7963  -14.4699 O   0  0  0  0  0  0  0  0  0  0  0  0
   21.9516   -6.0167  -16.6470 C   0  0  0  0  0  0  0  0  0  0  0  0
   22.0961   -6.5606  -15.2184 C   0  0  1  0  0  0  0  0  0  0  0  0
   23.4271   -6.2276  -14.6348 C   0  0  0  0  0  0  0  0  0  0  0  0
   20.9255   -6.0916  -14.3708 C   0  0  2  0  0  0  0  0  0  0  0  0
   19.6587   -6.4689  -14.9072 N   0  0  0  0  0  0  0  0  0  0  0  0
   20.9786   -4.6229  -14.2574 C   0  0  0  0  0  0  0  0  0  0  0  0
   20.2558   -3.9162  -15.0297 O   0  0  0  0  0  0  0  0  0  0  0  0
   21.7840   -3.9513  -13.3454 O   0  0  0  0  0  0  0  0  0  0  0  0
  1  2  1  0
  2  3  1  0
  3  4  1  6
  5  3  1  0
  5  6  2  0
  7  5  1  0
  8 12  1  0
  8  7  1  0
  8  9  1  1
 10  9  1  0
 10 11  2  0
 12 13  2  0
 14 10  1  0
 16 15  1  6
 16 17  1  0
 18 16  1  0
 19 12  1  0
 18 19  1  6
 20 22  1  0
 20 18  1  0
 21 20  2  0
M  END
$$$$
