YPW.pdb
     RDKit          3D

 34 37  0  0  1  0  0  0  0  0999 V2000
    0.1278  -20.1889   20.5358 O   0  0  0  0  0  0  0  0  0  0  0  0
    1.3543  -19.6725   20.8471 C   0  0  0  0  0  0  0  0  0  0  0  0
    1.8906  -19.8033   22.1068 C   0  0  0  0  0  0  0  0  0  0  0  0
    3.1358  -19.2694   22.3906 C   0  0  0  0  0  0  0  0  0  0  0  0
    3.8747  -18.5999   21.4412 C   0  0  0  0  0  0  0  0  0  0  0  0
    5.2009  -18.0374   21.7618 C   0  0  0  0  0  0  0  0  0  0  0  0
    5.9738  -17.8194   20.4520 C   0  0  2  0  0  0  0  0  0  0  0  0
    6.1740  -19.1181   19.8130 N   0  0  0  0  0  0  0  0  0  0  0  0
    7.2934  -17.1775   20.6996 C   0  0  0  0  0  0  0  0  0  0  0  0
    8.3270  -17.8756   20.5418 O   0  0  0  0  0  0  0  0  0  0  0  0
    3.3312  -18.4762   20.1926 C   0  0  0  0  0  0  0  0  0  0  0  0
    2.0945  -18.9915   19.8650 C   0  0  0  0  0  0  0  0  0  0  0  0
    7.4065  -15.8430   21.0930 N   0  0  0  0  0  0  0  0  0  0  0  0
    6.3458  -14.8879   21.3023 C   0  0  0  0  0  0  0  0  0  0  0  0
    6.9484  -13.5625   20.8707 C   0  0  0  0  0  0  0  0  0  0  0  0
    8.4319  -13.7900   20.7762 C   0  0  0  0  0  0  0  0  0  0  0  0
    8.6344  -15.1314   21.3827 C   0  0  1  0  0  0  0  0  0  0  0  0
    8.9341  -15.0991   22.8189 C   0  0  0  0  0  0  0  0  0  0  0  0
    9.1793  -13.9787   23.3438 O   0  0  0  0  0  0  0  0  0  0  0  0
    8.9746  -16.2171   23.6761 N   0  0  0  0  0  0  0  0  0  0  0  0
   10.0293  -16.3604   24.6832 C   0  0  1  0  0  0  0  0  0  0  0  0
   10.0116  -15.2021   25.6124 C   0  0  0  0  0  0  0  0  0  0  0  0
    8.6666  -14.6730   25.8441 C   0  0  0  0  0  0  0  0  0  0  0  0
    7.5249  -15.4533   25.7073 C   0  0  0  0  0  0  0  0  0  0  0  0
    6.4392  -14.7083   25.9426 N   0  0  0  0  0  0  0  0  0  0  0  0
    6.8681  -13.4438   26.2359 C   0  0  0  0  0  0  0  0  0  0  0  0
    6.1306  -12.3130   26.5770 C   0  0  0  0  0  0  0  0  0  0  0  0
    6.8273  -11.1757   26.8506 C   0  0  0  0  0  0  0  0  0  0  0  0
    8.2219  -11.1360   26.7954 C   0  0  0  0  0  0  0  0  0  0  0  0
    8.9355  -12.2517   26.4591 C   0  0  0  0  0  0  0  0  0  0  0  0
    8.2392  -13.4138   26.1761 C   0  0  0  0  0  0  0  0  0  0  0  0
    9.9417  -17.6547   25.3627 C   0  0  0  0  0  0  0  0  0  0  0  0
   10.8440  -18.1103   26.3092 O   0  0  0  0  0  0  0  0  0  0  0  0
    8.9921  -18.4768   25.1079 O   0  0  0  0  0  0  0  0  0  0  0  0
  2  1  1  0
  3  2  2  0
  4  3  1  0
  5 11  1  0
  5  4  2  0
  6  5  1  0
  7  9  1  0
  7  6  1  0
  7  8  1  1
  9 13  1  0
 10  9  2  0
 11 12  2  0
 12  2  1  0
 13 17  1  0
 13 14  1  0
 14 15  1  0
 16 15  1  0
 17 16  1  0
 17 18  1  1
 18 19  2  0
 18 20  1  0
 20 21  1  0
 21 32  1  0
 21 22  1  1
 23 22  1  0
 23 31  1  0
 24 25  1  0
 24 23  2  0
 25 26  1  0
 26 27  2  0
 26 31  1  0
 27 28  1  0
 28 29  2  0
 30 29  1  0
 31 30  2  0
 32 34  2  0
 32 33  1  0
M  END
$$$$
