YPW.pdb
     RDKit          3D

 34 37  0  0  1  0  0  0  0  0999 V2000
    9.4866  -11.7963   20.2766 O   0  0  0  0  0  0  0  0  0  0  0  0
    8.5708  -12.7746   20.5446 C   0  0  0  0  0  0  0  0  0  0  0  0
    8.4706  -13.3431   21.7929 C   0  0  0  0  0  0  0  0  0  0  0  0
    7.5320  -14.3318   22.0327 C   0  0  0  0  0  0  0  0  0  0  0  0
    6.6758  -14.7768   21.0506 C   0  0  0  0  0  0  0  0  0  0  0  0
    5.6810  -15.8319   21.3247 C   0  0  0  0  0  0  0  0  0  0  0  0
    6.2422  -17.1770   20.8384 C   0  0  2  0  0  0  0  0  0  0  0  0
    5.1403  -18.1329   20.7540 N   0  0  0  0  0  0  0  0  0  0  0  0
    7.2839  -17.6984   21.7645 C   0  0  0  0  0  0  0  0  0  0  0  0
    6.9068  -18.3764   22.7538 O   0  0  0  0  0  0  0  0  0  0  0  0
    6.7849  -14.2043   19.8137 C   0  0  0  0  0  0  0  0  0  0  0  0
    7.7050  -13.2170   19.5293 C   0  0  0  0  0  0  0  0  0  0  0  0
    8.6438  -17.4579   21.5615 N   0  0  0  0  0  0  0  0  0  0  0  0
    9.2552  -16.6143   20.5638 C   0  0  0  0  0  0  0  0  0  0  0  0
   10.5556  -17.3216   20.2250 C   0  0  0  0  0  0  0  0  0  0  0  0
   10.7706  -18.3410   21.3094 C   0  0  0  0  0  0  0  0  0  0  0  0
    9.7405  -18.0119   22.3286 C   0  0  1  0  0  0  0  0  0  0  0  0
   10.2069  -17.0954   23.3757 C   0  0  0  0  0  0  0  0  0  0  0  0
   10.8719  -16.0846   23.0194 O   0  0  0  0  0  0  0  0  0  0  0  0
    9.9787  -17.2423   24.7587 N   0  0  0  0  0  0  0  0  0  0  0  0
   10.6535  -16.3800   25.7324 C   0  0  1  0  0  0  0  0  0  0  0  0
   10.2050  -14.9737   25.5693 C   0  0  0  0  0  0  0  0  0  0  0  0
    8.7539  -14.8176   25.6807 C   0  0  0  0  0  0  0  0  0  0  0  0
    7.8828  -15.8997   25.6416 C   0  0  0  0  0  0  0  0  0  0  0  0
    6.6207  -15.4653   25.7286 N   0  0  0  0  0  0  0  0  0  0  0  0
    6.6644  -14.1025   25.8275 C   0  0  0  0  0  0  0  0  0  0  0  0
    5.6230  -13.1886   25.9661 C   0  0  0  0  0  0  0  0  0  0  0  0
    5.9598  -11.8737   26.0722 C   0  0  0  0  0  0  0  0  0  0  0  0
    7.2901  -11.4506   26.0458 C   0  0  0  0  0  0  0  0  0  0  0  0
    8.3042  -12.3562   25.9090 C   0  0  0  0  0  0  0  0  0  0  0  0
    7.9752  -13.6959   25.7975 C   0  0  0  0  0  0  0  0  0  0  0  0
   10.4901  -16.8899   27.0955 C   0  0  0  0  0  0  0  0  0  0  0  0
   11.0999  -16.3518   28.2164 O   0  0  0  0  0  0  0  0  0  0  0  0
    9.7498  -17.9068   27.3410 O   0  0  0  0  0  0  0  0  0  0  0  0
  2  1  1  0
  3  2  2  0
  4  3  1  0
  5 11  1  0
  5  4  2  0
  6  5  1  0
  7  9  1  0
  7  6  1  0
  7  8  1  1
  9 13  1  0
 10  9  2  0
 11 12  2  0
 12  2  1  0
 13 17  1  0
 13 14  1  0
 14 15  1  0
 16 15  1  0
 17 16  1  0
 17 18  1  1
 18 19  2  0
 18 20  1  0
 20 21  1  0
 21 32  1  0
 21 22  1  1
 23 22  1  0
 23 31  1  0
 24 25  1  0
 24 23  2  0
 25 26  1  0
 26 27  2  0
 26 31  1  0
 27 28  1  0
 28 29  2  0
 30 29  1  0
 31 30  2  0
 32 34  2  0
 32 33  1  0
M  END
$$$$
