YPW.pdb
     RDKit          3D

 34 37  0  0  1  0  0  0  0  0999 V2000
   12.4701  -22.1650   20.8937 O   0  0  0  0  0  0  0  0  0  0  0  0
   11.3812  -21.3966   20.5912 C   0  0  0  0  0  0  0  0  0  0  0  0
   11.0628  -21.0810   19.2910 C   0  0  0  0  0  0  0  0  0  0  0  0
    9.9526  -20.3007   19.0174 C   0  0  0  0  0  0  0  0  0  0  0  0
    9.1366  -19.8194   20.0164 C   0  0  0  0  0  0  0  0  0  0  0  0
    7.9568  -18.9891   19.7057 C   0  0  0  0  0  0  0  0  0  0  0  0
    8.4201  -17.7422   18.9368 C   0  0  2  0  0  0  0  0  0  0  0  0
    9.4045  -18.1550   17.9390 N   0  0  0  0  0  0  0  0  0  0  0  0
    9.0276  -16.7353   19.8488 C   0  0  0  0  0  0  0  0  0  0  0  0
   10.2734  -16.5734   19.8016 O   0  0  0  0  0  0  0  0  0  0  0  0
    9.4632  -20.1396   21.3049 C   0  0  0  0  0  0  0  0  0  0  0  0
   10.5595  -20.9133   21.6244 C   0  0  0  0  0  0  0  0  0  0  0  0
    8.2593  -15.9799   20.7361 N   0  0  0  0  0  0  0  0  0  0  0  0
    6.8337  -16.0412   20.9480 C   0  0  0  0  0  0  0  0  0  0  0  0
    6.4436  -14.6093   21.2700 C   0  0  0  0  0  0  0  0  0  0  0  0
    7.7270  -13.8849   21.5694 C   0  0  0  0  0  0  0  0  0  0  0  0
    8.7453  -14.9643   21.6475 C   0  0  1  0  0  0  0  0  0  0  0  0
    8.9596  -15.4873   23.0018 C   0  0  0  0  0  0  0  0  0  0  0  0
    8.3328  -16.5296   23.3359 O   0  0  0  0  0  0  0  0  0  0  0  0
    9.8100  -14.9259   23.9754 N   0  0  0  0  0  0  0  0  0  0  0  0
   10.0583  -15.6092   25.2476 C   0  0  1  0  0  0  0  0  0  0  0  0
    8.8080  -16.2382   25.7442 C   0  0  0  0  0  0  0  0  0  0  0  0
    7.7018  -15.2889   25.8771 C   0  0  0  0  0  0  0  0  0  0  0  0
    6.3735  -15.6654   25.7186 C   0  0  0  0  0  0  0  0  0  0  0  0
    5.5824  -14.5959   25.8581 N   0  0  0  0  0  0  0  0  0  0  0  0
    6.3895  -13.5217   26.1104 C   0  0  0  0  0  0  0  0  0  0  0  0
    6.0495  -12.1938   26.3547 C   0  0  0  0  0  0  0  0  0  0  0  0
    7.0689  -11.3275   26.6079 C   0  0  0  0  0  0  0  0  0  0  0  0
    8.4014  -11.7444   26.6253 C   0  0  0  0  0  0  0  0  0  0  0  0
    8.7236  -13.0501   26.3838 C   0  0  0  0  0  0  0  0  0  0  0  0
    7.6968  -13.9405   26.1225 C   0  0  0  0  0  0  0  0  0  0  0  0
   11.1784  -16.5461   25.1369 C   0  0  0  0  0  0  0  0  0  0  0  0
   11.9263  -16.7480   23.9891 O   0  0  0  0  0  0  0  0  0  0  0  0
   11.5433  -17.2670   26.1317 O   0  0  0  0  0  0  0  0  0  0  0  0
  2  1  1  0
  3  2  2  0
  4  3  1  0
  5 11  1  0
  5  4  2  0
  6  5  1  0
  7  9  1  0
  7  6  1  0
  7  8  1  6
  9 13  1  0
 10  9  2  0
 11 12  2  0
 12  2  1  0
 13 17  1  0
 13 14  1  0
 14 15  1  0
 16 15  1  0
 17 16  1  0
 17 18  1  1
 18 19  2  0
 18 20  1  0
 20 21  1  0
 21 32  1  0
 21 22  1  6
 23 22  1  0
 23 31  1  0
 24 25  1  0
 24 23  2  0
 25 26  1  0
 26 27  2  0
 26 31  1  0
 27 28  1  0
 28 29  2  0
 30 29  1  0
 31 30  2  0
 32 34  2  0
 32 33  1  0
M  END
$$$$
