YPW.pdb
     RDKit          3D

 34 37  0  0  1  0  0  0  0  0999 V2000
   15.7679  -14.4452   20.7875 O   0  0  0  0  0  0  0  0  0  0  0  0
   14.6321  -14.7739   20.1022 C   0  0  0  0  0  0  0  0  0  0  0  0
   13.6432  -15.5393   20.6747 C   0  0  0  0  0  0  0  0  0  0  0  0
   12.5041  -15.8548   19.9543 C   0  0  0  0  0  0  0  0  0  0  0  0
   12.3175  -15.4222   18.6606 C   0  0  0  0  0  0  0  0  0  0  0  0
   11.0962  -15.7682   17.9079 C   0  0  0  0  0  0  0  0  0  0  0  0
   10.0969  -14.6075   18.0290 C   0  0  2  0  0  0  0  0  0  0  0  0
   10.7585  -13.3815   17.5882 N   0  0  0  0  0  0  0  0  0  0  0  0
    9.6231  -14.4417   19.4299 C   0  0  0  0  0  0  0  0  0  0  0  0
   10.0551  -13.4599   20.0857 O   0  0  0  0  0  0  0  0  0  0  0  0
   13.3074  -14.6621   18.1020 C   0  0  0  0  0  0  0  0  0  0  0  0
   14.4589  -14.3238   18.7818 C   0  0  0  0  0  0  0  0  0  0  0  0
    8.7256  -15.3335   20.0194 N   0  0  0  0  0  0  0  0  0  0  0  0
    8.2624  -16.5973   19.5006 C   0  0  0  0  0  0  0  0  0  0  0  0
    6.8295  -16.6988   19.9932 C   0  0  0  0  0  0  0  0  0  0  0  0
    6.6799  -15.6493   21.0598 C   0  0  0  0  0  0  0  0  0  0  0  0
    8.0669  -15.1728   21.2995 C   0  0  1  0  0  0  0  0  0  0  0  0
    8.7647  -15.8822   22.3781 C   0  0  0  0  0  0  0  0  0  0  0  0
    9.6349  -16.7358   22.0542 O   0  0  0  0  0  0  0  0  0  0  0  0
    8.5497  -15.6965   23.7585 N   0  0  0  0  0  0  0  0  0  0  0  0
    9.6149  -15.9530   24.7313 C   0  0  1  0  0  0  0  0  0  0  0  0
    9.5659  -14.9468   25.8225 C   0  0  0  0  0  0  0  0  0  0  0  0
    8.2063  -14.6755   26.2921 C   0  0  0  0  0  0  0  0  0  0  0  0
    7.2428  -15.6709   26.4005 C   0  0  0  0  0  0  0  0  0  0  0  0
    6.0891  -15.1376   26.8174 N   0  0  0  0  0  0  0  0  0  0  0  0
    6.2965  -13.7968   26.9846 C   0  0  0  0  0  0  0  0  0  0  0  0
    5.4182  -12.8109   27.4267 C   0  0  0  0  0  0  0  0  0  0  0  0
    5.9056  -11.5436   27.5269 C   0  0  0  0  0  0  0  0  0  0  0  0
    7.2288  -11.2366   27.2039 C   0  0  0  0  0  0  0  0  0  0  0  0
    8.0820  -12.2120   26.7706 C   0  0  0  0  0  0  0  0  0  0  0  0
    7.5983  -13.5042   26.6618 C   0  0  0  0  0  0  0  0  0  0  0  0
    9.5737  -17.3360   25.2111 C   0  0  0  0  0  0  0  0  0  0  0  0
   10.5991  -17.9622   25.8996 O   0  0  0  0  0  0  0  0  0  0  0  0
    8.5496  -18.0797   25.0094 O   0  0  0  0  0  0  0  0  0  0  0  0
  2  1  1  0
  3  2  2  0
  4  3  1  0
  5 11  1  0
  5  4  2  0
  6  5  1  0
  7  9  1  0
  7  6  1  0
  7  8  1  1
  9 13  1  0
 10  9  2  0
 11 12  2  0
 12  2  1  0
 13 17  1  0
 13 14  1  0
 14 15  1  0
 16 15  1  0
 17 16  1  0
 17 18  1  1
 18 19  2  0
 18 20  1  0
 20 21  1  0
 21 32  1  0
 21 22  1  1
 23 22  1  0
 23 31  1  0
 24 25  1  0
 24 23  2  0
 25 26  1  0
 26 27  2  0
 26 31  1  0
 27 28  1  0
 28 29  2  0
 30 29  1  0
 31 30  2  0
 32 34  2  0
 32 33  1  0
M  END
$$$$
