YPW.pdb
     RDKit          3D

 34 37  0  0  1  0  0  0  0  0999 V2000
    3.9217  -22.0262   17.2131 O   0  0  0  0  0  0  0  0  0  0  0  0
    4.7926  -21.1703   17.8268 C   0  0  0  0  0  0  0  0  0  0  0  0
    5.3476  -20.1059   17.1555 C   0  0  0  0  0  0  0  0  0  0  0  0
    6.2264  -19.2565   17.8054 C   0  0  0  0  0  0  0  0  0  0  0  0
    6.5728  -19.4382   19.1255 C   0  0  0  0  0  0  0  0  0  0  0  0
    7.5113  -18.5221   19.8022 C   0  0  0  0  0  0  0  0  0  0  0  0
    8.0099  -17.4859   18.7832 C   0  0  2  0  0  0  0  0  0  0  0  0
    8.7503  -18.1874   17.7369 N   0  0  0  0  0  0  0  0  0  0  0  0
    8.8924  -16.4736   19.4245 C   0  0  0  0  0  0  0  0  0  0  0  0
   10.1153  -16.4888   19.1329 O   0  0  0  0  0  0  0  0  0  0  0  0
    6.0149  -20.4997   19.7824 C   0  0  0  0  0  0  0  0  0  0  0  0
    5.1354  -21.3716   19.1752 C   0  0  0  0  0  0  0  0  0  0  0  0
    8.4015  -15.5249   20.3229 N   0  0  0  0  0  0  0  0  0  0  0  0
    7.0620  -15.4096   20.8459 C   0  0  0  0  0  0  0  0  0  0  0  0
    6.8537  -13.9141   21.0085 C   0  0  0  0  0  0  0  0  0  0  0  0
    8.2174  -13.2892   20.9012 C   0  0  0  0  0  0  0  0  0  0  0  0
    9.1513  -14.4447   20.9304 C   0  0  1  0  0  0  0  0  0  0  0  0
    9.6355  -14.7883   22.2725 C   0  0  0  0  0  0  0  0  0  0  0  0
   10.5346  -14.0622   22.7774 O   0  0  0  0  0  0  0  0  0  0  0  0
    9.1842  -15.8678   23.0583 N   0  0  0  0  0  0  0  0  0  0  0  0
    9.7309  -16.1102   24.3959 C   0  0  1  0  0  0  0  0  0  0  0  0
    9.5707  -14.9005   25.2422 C   0  0  0  0  0  0  0  0  0  0  0  0
    8.1760  -14.6242   25.5900 C   0  0  0  0  0  0  0  0  0  0  0  0
    7.1599  -15.5501   25.3871 C   0  0  0  0  0  0  0  0  0  0  0  0
    5.9885  -15.0221   25.7591 N   0  0  0  0  0  0  0  0  0  0  0  0
    6.2364  -13.7547   26.2074 C   0  0  0  0  0  0  0  0  0  0  0  0
    5.3562  -12.8079   26.7248 C   0  0  0  0  0  0  0  0  0  0  0  0
    5.8866  -11.6203   27.1270 C   0  0  0  0  0  0  0  0  0  0  0  0
    7.2539  -11.3547   27.0299 C   0  0  0  0  0  0  0  0  0  0  0  0
    8.1086  -12.2911   26.5202 C   0  0  0  0  0  0  0  0  0  0  0  0
    7.5818  -13.5018   26.1053 C   0  0  0  0  0  0  0  0  0  0  0  0
    9.1583  -17.3191   24.9921 C   0  0  0  0  0  0  0  0  0  0  0  0
    9.6432  -17.9424   26.1296 O   0  0  0  0  0  0  0  0  0  0  0  0
    8.1390  -17.8978   24.4736 O   0  0  0  0  0  0  0  0  0  0  0  0
  2  1  1  0
  3  2  2  0
  4  3  1  0
  5 11  1  0
  5  4  2  0
  6  5  1  0
  7  9  1  0
  7  6  1  0
  7  8  1  6
  9 13  1  0
 10  9  2  0
 11 12  2  0
 12  2  1  0
 13 17  1  0
 13 14  1  0
 14 15  1  0
 16 15  1  0
 17 16  1  0
 17 18  1  1
 18 19  2  0
 18 20  1  0
 20 21  1  0
 21 32  1  0
 21 22  1  1
 23 22  1  0
 23 31  1  0
 24 25  1  0
 24 23  2  0
 25 26  1  0
 26 27  2  0
 26 31  1  0
 27 28  1  0
 28 29  2  0
 30 29  1  0
 31 30  2  0
 32 34  2  0
 32 33  1  0
M  END
$$$$
