YPW.pdb
     RDKit          3D

 34 37  0  0  1  0  0  0  0  0999 V2000
    8.1178  -21.6885   26.6105 O   0  0  0  0  0  0  0  0  0  0  0  0
    7.4825  -20.9257   25.6712 C   0  0  0  0  0  0  0  0  0  0  0  0
    7.3557  -21.3476   24.3684 C   0  0  0  0  0  0  0  0  0  0  0  0
    6.7060  -20.5519   23.4405 C   0  0  0  0  0  0  0  0  0  0  0  0
    6.1693  -19.3297   23.7780 C   0  0  0  0  0  0  0  0  0  0  0  0
    5.4798  -18.4949   22.7752 C   0  0  0  0  0  0  0  0  0  0  0  0
    6.1937  -18.6562   21.4244 C   0  0  2  0  0  0  0  0  0  0  0  0
    6.4348  -20.0793   21.1972 N   0  0  0  0  0  0  0  0  0  0  0  0
    7.4880  -17.9220   21.4022 C   0  0  0  0  0  0  0  0  0  0  0  0
    8.5274  -18.5688   21.1162 O   0  0  0  0  0  0  0  0  0  0  0  0
    6.3017  -18.9208   25.0760 C   0  0  0  0  0  0  0  0  0  0  0  0
    6.9411  -19.6800   26.0337 C   0  0  0  0  0  0  0  0  0  0  0  0
    7.5712  -16.5575   21.6841 N   0  0  0  0  0  0  0  0  0  0  0  0
    6.5706  -15.7160   22.2939 C   0  0  0  0  0  0  0  0  0  0  0  0
    6.7598  -14.3671   21.6225 C   0  0  0  0  0  0  0  0  0  0  0  0
    8.0910  -14.4311   20.9259 C   0  0  0  0  0  0  0  0  0  0  0  0
    8.7023  -15.6912   21.4226 C   0  0  1  0  0  0  0  0  0  0  0  0
    9.5553  -15.5167   22.6039 C   0  0  0  0  0  0  0  0  0  0  0  0
   10.4195  -14.5985   22.5752 O   0  0  0  0  0  0  0  0  0  0  0  0
    9.4983  -16.2897   23.7810 N   0  0  0  0  0  0  0  0  0  0  0  0
   10.3681  -15.9946   24.9227 C   0  0  1  0  0  0  0  0  0  0  0  0
   10.1090  -14.6205   25.4229 C   0  0  0  0  0  0  0  0  0  0  0  0
    8.7054  -14.3910   25.7690 C   0  0  0  0  0  0  0  0  0  0  0  0
    7.7791  -15.4238   25.8488 C   0  0  0  0  0  0  0  0  0  0  0  0
    6.5737  -14.9259   26.1460 N   0  0  0  0  0  0  0  0  0  0  0  0
    6.7101  -13.5707   26.2638 C   0  0  0  0  0  0  0  0  0  0  0  0
    5.7577  -12.6073   26.5860 C   0  0  0  0  0  0  0  0  0  0  0  0
    6.1814  -11.3157   26.6628 C   0  0  0  0  0  0  0  0  0  0  0  0
    7.5125  -10.9631   26.4315 C   0  0  0  0  0  0  0  0  0  0  0  0
    8.4386  -11.9168   26.1155 C   0  0  0  0  0  0  0  0  0  0  0  0
    8.0203  -13.2335   26.0317 C   0  0  0  0  0  0  0  0  0  0  0  0
   10.2521  -17.0237   25.9581 C   0  0  0  0  0  0  0  0  0  0  0  0
    9.3676  -18.0884   25.9153 O   0  0  0  0  0  0  0  0  0  0  0  0
   10.9858  -16.9960   27.0086 O   0  0  0  0  0  0  0  0  0  0  0  0
  2  1  1  0
  3  2  2  0
  4  3  1  0
  5 11  1  0
  5  4  2  0
  6  5  1  0
  7  9  1  0
  7  6  1  0
  7  8  1  1
  9 13  1  0
 10  9  2  0
 11 12  2  0
 12  2  1  0
 13 17  1  0
 13 14  1  0
 14 15  1  0
 16 15  1  0
 17 16  1  0
 17 18  1  1
 18 19  2  0
 18 20  1  0
 20 21  1  0
 21 32  1  0
 21 22  1  1
 23 22  1  0
 23 31  1  0
 24 25  1  0
 24 23  2  0
 25 26  1  0
 26 27  2  0
 26 31  1  0
 27 28  1  0
 28 29  2  0
 30 29  1  0
 31 30  2  0
 32 34  2  0
 32 33  1  0
M  END
$$$$
