YPW.pdb
     RDKit          3D

 34 37  0  0  1  0  0  0  0  0999 V2000
   13.4091  -21.4009   16.6352 O   0  0  0  0  0  0  0  0  0  0  0  0
   12.1385  -20.9629   16.8828 C   0  0  0  0  0  0  0  0  0  0  0  0
   11.7445  -20.5748   18.1420 C   0  0  0  0  0  0  0  0  0  0  0  0
   10.4501  -20.1353   18.3604 C   0  0  0  0  0  0  0  0  0  0  0  0
    9.5227  -20.0685   17.3450 C   0  0  0  0  0  0  0  0  0  0  0  0
    8.1470  -19.5970   17.5964 C   0  0  0  0  0  0  0  0  0  0  0  0
    8.0954  -18.0794   17.3622 C   0  0  2  0  0  0  0  0  0  0  0  0
    8.8055  -17.7800   16.1207 N   0  0  0  0  0  0  0  0  0  0  0  0
    8.7228  -17.3339   18.4870 C   0  0  0  0  0  0  0  0  0  0  0  0
    9.9305  -17.0032   18.3738 O   0  0  0  0  0  0  0  0  0  0  0  0
    9.9259  -20.4570   16.0975 C   0  0  0  0  0  0  0  0  0  0  0  0
   11.2046  -20.9018   15.8338 C   0  0  0  0  0  0  0  0  0  0  0  0
    8.0132  -16.9983   19.6412 N   0  0  0  0  0  0  0  0  0  0  0  0
    6.6504  -17.3352   19.9729 C   0  0  0  0  0  0  0  0  0  0  0  0
    6.1530  -16.1377   20.7633 C   0  0  0  0  0  0  0  0  0  0  0  0
    7.3765  -15.3466   21.1356 C   0  0  0  0  0  0  0  0  0  0  0  0
    8.5104  -16.2333   20.7663 C   0  0  1  0  0  0  0  0  0  0  0  0
    8.9789  -17.0918   21.8603 C   0  0  0  0  0  0  0  0  0  0  0  0
    8.4708  -18.2414   21.9650 O   0  0  0  0  0  0  0  0  0  0  0  0
    9.9549  -16.7464   22.8166 N   0  0  0  0  0  0  0  0  0  0  0  0
    9.7966  -15.5626   23.6655 C   0  0  1  0  0  0  0  0  0  0  0  0
    8.5499  -14.8389   23.3087 C   0  0  0  0  0  0  0  0  0  0  0  0
    7.6636  -14.6237   24.4536 C   0  0  0  0  0  0  0  0  0  0  0  0
    6.8659  -15.6332   24.9785 C   0  0  0  0  0  0  0  0  0  0  0  0
    6.1364  -15.1505   25.9905 N   0  0  0  0  0  0  0  0  0  0  0  0
    6.4572  -13.8290   26.1305 C   0  0  0  0  0  0  0  0  0  0  0  0
    5.9928  -12.8956   27.0536 C   0  0  0  0  0  0  0  0  0  0  0  0
    6.5113  -11.6388   26.9813 C   0  0  0  0  0  0  0  0  0  0  0  0
    7.4693  -11.2919   26.0267 C   0  0  0  0  0  0  0  0  0  0  0  0
    7.9177  -12.2160   25.1253 C   0  0  0  0  0  0  0  0  0  0  0  0
    7.3967  -13.4967   25.1864 C   0  0  0  0  0  0  0  0  0  0  0  0
    9.8819  -15.9124   25.0851 C   0  0  0  0  0  0  0  0  0  0  0  0
    9.7266  -17.1916   25.5921 O   0  0  0  0  0  0  0  0  0  0  0  0
   10.1080  -15.0207   25.9774 O   0  0  0  0  0  0  0  0  0  0  0  0
  2  1  1  0
  3  2  2  0
  4  3  1  0
  5 11  1  0
  5  4  2  0
  6  5  1  0
  7  9  1  0
  7  6  1  0
  7  8  1  6
  9 13  1  0
 10  9  2  0
 11 12  2  0
 12  2  1  0
 13 17  1  0
 13 14  1  0
 14 15  1  0
 16 15  1  0
 17 16  1  0
 17 18  1  1
 18 19  2  0
 18 20  1  0
 20 21  1  0
 21 32  1  0
 21 22  1  1
 23 22  1  0
 23 31  1  0
 24 25  1  0
 24 23  2  0
 25 26  1  0
 26 27  2  0
 26 31  1  0
 27 28  1  0
 28 29  2  0
 30 29  1  0
 31 30  2  0
 32 34  2  0
 32 33  1  0
M  END
$$$$
