YPW.pdb
     RDKit          3D

 34 37  0  0  1  0  0  0  0  0999 V2000
    7.7016  -13.8364   14.1997 O   0  0  0  0  0  0  0  0  0  0  0  0
    7.8567  -14.2081   15.5057 C   0  0  0  0  0  0  0  0  0  0  0  0
    7.7217  -13.3024   16.5318 C   0  0  0  0  0  0  0  0  0  0  0  0
    7.8845  -13.7104   17.8445 C   0  0  0  0  0  0  0  0  0  0  0  0
    8.1809  -15.0148   18.1703 C   0  0  0  0  0  0  0  0  0  0  0  0
    8.3506  -15.4317   19.5757 C   0  0  0  0  0  0  0  0  0  0  0  0
    9.5521  -14.6816   20.1709 C   0  0  2  0  0  0  0  0  0  0  0  0
   10.7310  -14.9835   19.3621 N   0  0  0  0  0  0  0  0  0  0  0  0
    9.7998  -15.0841   21.5820 C   0  0  0  0  0  0  0  0  0  0  0  0
   10.9361  -15.5352   21.8752 O   0  0  0  0  0  0  0  0  0  0  0  0
    8.3127  -15.9061   17.1418 C   0  0  0  0  0  0  0  0  0  0  0  0
    8.1598  -15.5445   15.8196 C   0  0  0  0  0  0  0  0  0  0  0  0
    8.8185  -14.9718   22.5682 N   0  0  0  0  0  0  0  0  0  0  0  0
    7.3986  -14.7908   22.3888 C   0  0  0  0  0  0  0  0  0  0  0  0
    6.9821  -13.9271   23.5664 C   0  0  0  0  0  0  0  0  0  0  0  0
    8.1298  -13.9645   24.5374 C   0  0  0  0  0  0  0  0  0  0  0  0
    9.0271  -15.0204   24.0008 C   0  0  1  0  0  0  0  0  0  0  0  0
    8.7772  -16.3560   24.5553 C   0  0  0  0  0  0  0  0  0  0  0  0
    7.9192  -17.0804   23.9809 O   0  0  0  0  0  0  0  0  0  0  0  0
    9.4139  -16.9104   25.6838 N   0  0  0  0  0  0  0  0  0  0  0  0
   10.5238  -17.8559   25.5378 C   0  0  1  0  0  0  0  0  0  0  0  0
   11.7099  -17.3743   26.2906 C   0  0  0  0  0  0  0  0  0  0  0  0
   11.3739  -16.8451   27.6133 C   0  0  0  0  0  0  0  0  0  0  0  0
   11.4648  -17.6126   28.7682 C   0  0  0  0  0  0  0  0  0  0  0  0
   11.0648  -16.8911   29.8211 N   0  0  0  0  0  0  0  0  0  0  0  0
   10.7157  -15.6530   29.3583 C   0  0  0  0  0  0  0  0  0  0  0  0
   10.2627  -14.5384   30.0592 C   0  0  0  0  0  0  0  0  0  0  0  0
   10.0137  -13.4101   29.3391 C   0  0  0  0  0  0  0  0  0  0  0  0
   10.2032  -13.3630   27.9565 C   0  0  0  0  0  0  0  0  0  0  0  0
   10.6478  -14.4630   27.2787 C   0  0  0  0  0  0  0  0  0  0  0  0
   10.9022  -15.6174   27.9988 C   0  0  0  0  0  0  0  0  0  0  0  0
   10.1148  -19.2144   25.9009 C   0  0  0  0  0  0  0  0  0  0  0  0
    8.8677  -19.5558   26.3969 O   0  0  0  0  0  0  0  0  0  0  0  0
   10.9190  -20.2052   25.7824 O   0  0  0  0  0  0  0  0  0  0  0  0
  2  1  1  0
  3  2  2  0
  4  3  1  0
  5 11  1  0
  5  4  2  0
  6  5  1  0
  7  9  1  0
  7  6  1  0
  7  8  1  6
  9 13  1  0
 10  9  2  0
 11 12  2  0
 12  2  1  0
 13 17  1  0
 13 14  1  0
 14 15  1  0
 16 15  1  0
 17 16  1  0
 17 18  1  1
 18 19  2  0
 18 20  1  0
 20 21  1  0
 21 32  1  0
 21 22  1  1
 23 22  1  0
 23 31  1  0
 24 25  1  0
 24 23  2  0
 25 26  1  0
 26 27  2  0
 26 31  1  0
 27 28  1  0
 28 29  2  0
 30 29  1  0
 31 30  2  0
 32 34  2  0
 32 33  1  0
M  END
$$$$
