YPW.pdb
     RDKit          3D

 34 37  0  0  1  0  0  0  0  0999 V2000
    0.2933  -20.3896   21.6824 O   0  0  0  0  0  0  0  0  0  0  0  0
    1.5439  -19.8469   21.7778 C   0  0  0  0  0  0  0  0  0  0  0  0
    2.5466  -20.4712   22.4823 C   0  0  0  0  0  0  0  0  0  0  0  0
    3.8033  -19.8959   22.5599 C   0  0  0  0  0  0  0  0  0  0  0  0
    4.0954  -18.6989   21.9454 C   0  0  0  0  0  0  0  0  0  0  0  0
    5.4412  -18.1006   22.0387 C   0  0  0  0  0  0  0  0  0  0  0  0
    5.9561  -17.8211   20.6184 C   0  0  2  0  0  0  0  0  0  0  0  0
    5.9584  -19.0780   19.8731 N   0  0  0  0  0  0  0  0  0  0  0  0
    7.3313  -17.2527   20.6405 C   0  0  0  0  0  0  0  0  0  0  0  0
    8.2621  -17.9433   20.1534 O   0  0  0  0  0  0  0  0  0  0  0  0
    3.0906  -18.0876   21.2481 C   0  0  0  0  0  0  0  0  0  0  0  0
    1.8239  -18.6236   21.1443 C   0  0  0  0  0  0  0  0  0  0  0  0
    7.6044  -15.9936   21.1773 N   0  0  0  0  0  0  0  0  0  0  0  0
    6.6893  -15.0931   21.8349 C   0  0  0  0  0  0  0  0  0  0  0  0
    7.1840  -13.7109   21.4465 C   0  0  0  0  0  0  0  0  0  0  0  0
    8.5631  -13.9058   20.8796 C   0  0  0  0  0  0  0  0  0  0  0  0
    8.8880  -15.3223   21.1896 C   0  0  1  0  0  0  0  0  0  0  0  0
    9.6018  -15.5081   22.4582 C   0  0  0  0  0  0  0  0  0  0  0  0
   10.6150  -14.7886   22.6741 O   0  0  0  0  0  0  0  0  0  0  0  0
    9.2567  -16.4274   23.4692 N   0  0  0  0  0  0  0  0  0  0  0  0
    9.9499  -16.4277   24.7601 C   0  0  1  0  0  0  0  0  0  0  0  0
    9.7847  -15.1131   25.4310 C   0  0  0  0  0  0  0  0  0  0  0  0
    8.3828  -14.7510   25.6461 C   0  0  0  0  0  0  0  0  0  0  0  0
    7.3391  -15.6367   25.4068 C   0  0  0  0  0  0  0  0  0  0  0  0
    6.1709  -15.0330   25.6517 N   0  0  0  0  0  0  0  0  0  0  0  0
    6.4480  -13.7560   26.0534 C   0  0  0  0  0  0  0  0  0  0  0  0
    5.5798  -12.7406   26.4459 C   0  0  0  0  0  0  0  0  0  0  0  0
    6.1377  -11.5594   26.8295 C   0  0  0  0  0  0  0  0  0  0  0  0
    7.5205  -11.3659   26.8337 C   0  0  0  0  0  0  0  0  0  0  0  0
    8.3632  -12.3693   26.4462 C   0  0  0  0  0  0  0  0  0  0  0  0
    7.8087  -13.5744   26.0514 C   0  0  0  0  0  0  0  0  0  0  0  0
    9.5309  -17.5613   25.5871 C   0  0  0  0  0  0  0  0  0  0  0  0
   10.1382  -17.9385   26.7732 O   0  0  0  0  0  0  0  0  0  0  0  0
    8.5435  -18.3040   25.2467 O   0  0  0  0  0  0  0  0  0  0  0  0
  2  1  1  0
  3  2  2  0
  4  3  1  0
  5 11  1  0
  5  4  2  0
  6  5  1  0
  7  9  1  0
  7  6  1  0
  7  8  1  6
  9 13  1  0
 10  9  2  0
 11 12  2  0
 12  2  1  0
 13 17  1  0
 13 14  1  0
 14 15  1  0
 16 15  1  0
 17 16  1  0
 17 18  1  1
 18 19  2  0
 18 20  1  0
 20 21  1  0
 21 32  1  0
 21 22  1  1
 23 22  1  0
 23 31  1  0
 24 25  1  0
 24 23  2  0
 25 26  1  0
 26 27  2  0
 26 31  1  0
 27 28  1  0
 28 29  2  0
 30 29  1  0
 31 30  2  0
 32 34  2  0
 32 33  1  0
M  END
$$$$
