YPW.pdb
     RDKit          3D

 34 37  0  0  1  0  0  0  0  0999 V2000
    6.9453  -21.3026   14.4336 O   0  0  0  0  0  0  0  0  0  0  0  0
    7.3925  -20.6040   15.5198 C   0  0  0  0  0  0  0  0  0  0  0  0
    6.6339  -19.6145   16.1003 C   0  0  0  0  0  0  0  0  0  0  0  0
    7.1150  -18.9253   17.2001 C   0  0  0  0  0  0  0  0  0  0  0  0
    8.3482  -19.1980   17.7482 C   0  0  0  0  0  0  0  0  0  0  0  0
    8.8447  -18.4529   18.9213 C   0  0  0  0  0  0  0  0  0  0  0  0
    9.3071  -17.0615   18.4622 C   0  0  2  0  0  0  0  0  0  0  0  0
   10.5291  -17.2176   17.6765 N   0  0  0  0  0  0  0  0  0  0  0  0
    9.5712  -16.1662   19.6213 C   0  0  0  0  0  0  0  0  0  0  0  0
   10.7599  -15.8197   19.8392 O   0  0  0  0  0  0  0  0  0  0  0  0
    9.0934  -20.1836   17.1625 C   0  0  0  0  0  0  0  0  0  0  0  0
    8.6547  -20.8957   16.0657 C   0  0  0  0  0  0  0  0  0  0  0  0
    8.5481  -15.7100   20.4538 N   0  0  0  0  0  0  0  0  0  0  0  0
    7.1385  -16.0046   20.3686 C   0  0  0  0  0  0  0  0  0  0  0  0
    6.4628  -14.7296   20.8418 C   0  0  0  0  0  0  0  0  0  0  0  0
    7.5359  -13.9100   21.5037 C   0  0  0  0  0  0  0  0  0  0  0  0
    8.6947  -14.8353   21.5991 C   0  0  1  0  0  0  0  0  0  0  0  0
    8.7640  -15.5785   22.8626 C   0  0  0  0  0  0  0  0  0  0  0  0
    8.2993  -16.7509   22.8818 O   0  0  0  0  0  0  0  0  0  0  0  0
    9.3071  -15.0977   24.0709 N   0  0  0  0  0  0  0  0  0  0  0  0
    9.6867  -16.0158   25.1480 C   0  0  1  0  0  0  0  0  0  0  0  0
    9.4565  -15.3787   26.4696 C   0  0  0  0  0  0  0  0  0  0  0  0
    8.1536  -14.7192   26.5695 C   0  0  0  0  0  0  0  0  0  0  0  0
    6.9564  -15.4057   26.4072 C   0  0  0  0  0  0  0  0  0  0  0  0
    5.9306  -14.5539   26.5139 N   0  0  0  0  0  0  0  0  0  0  0  0
    6.4538  -13.3129   26.7486 C   0  0  0  0  0  0  0  0  0  0  0  0
    5.8026  -12.1001   26.9583 C   0  0  0  0  0  0  0  0  0  0  0  0
    6.5816  -11.0101   27.2008 C   0  0  0  0  0  0  0  0  0  0  0  0
    7.9747  -11.0956   27.2408 C   0  0  0  0  0  0  0  0  0  0  0  0
    8.6032  -12.2910   27.0331 C   0  0  0  0  0  0  0  0  0  0  0  0
    7.8229  -13.4064   26.7830 C   0  0  0  0  0  0  0  0  0  0  0  0
    9.0194  -17.3111   25.0008 C   0  0  0  0  0  0  0  0  0  0  0  0
    7.9883  -17.5700   24.1134 O   0  0  0  0  0  0  0  0  0  0  0  0
    9.3585  -18.3191   25.7160 O   0  0  0  0  0  0  0  0  0  0  0  0
  2  1  1  0
  3  2  2  0
  4  3  1  0
  5 11  1  0
  5  4  2  0
  6  5  1  0
  7  9  1  0
  7  6  1  0
  7  8  1  1
  9 13  1  0
 10  9  2  0
 11 12  2  0
 12  2  1  0
 13 17  1  0
 13 14  1  0
 14 15  1  0
 16 15  1  0
 17 16  1  0
 17 18  1  1
 18 19  2  0
 18 20  1  0
 20 21  1  0
 21 32  1  0
 21 22  1  1
 23 22  1  0
 23 31  1  0
 24 25  1  0
 24 23  2  0
 25 26  1  0
 26 27  2  0
 26 31  1  0
 27 28  1  0
 28 29  2  0
 30 29  1  0
 31 30  2  0
 32 34  2  0
 32 33  1  0
M  END
$$$$
