YPW.pdb
     RDKit          3D

 34 37  0  0  1  0  0  0  0  0999 V2000
    7.0456  -22.0612   14.3440 O   0  0  0  0  0  0  0  0  0  0  0  0
    7.4475  -21.3890   15.4640 C   0  0  0  0  0  0  0  0  0  0  0  0
    6.8628  -20.2018   15.8384 C   0  0  0  0  0  0  0  0  0  0  0  0
    7.2922  -19.5452   16.9789 C   0  0  0  0  0  0  0  0  0  0  0  0
    8.3016  -20.0451   17.7706 C   0  0  0  0  0  0  0  0  0  0  0  0
    8.7461  -19.3313   18.9834 C   0  0  0  0  0  0  0  0  0  0  0  0
    9.3743  -17.9929   18.5654 C   0  0  2  0  0  0  0  0  0  0  0  0
   10.6296  -18.2697   17.8706 N   0  0  0  0  0  0  0  0  0  0  0  0
    9.6388  -17.1245   19.7446 C   0  0  0  0  0  0  0  0  0  0  0  0
   10.8178  -17.0601   20.1763 O   0  0  0  0  0  0  0  0  0  0  0  0
    8.8753  -21.2259   17.3883 C   0  0  0  0  0  0  0  0  0  0  0  0
    8.4802  -21.9142   16.2602 C   0  0  0  0  0  0  0  0  0  0  0  0
    8.6269  -16.3925   20.3680 N   0  0  0  0  0  0  0  0  0  0  0  0
    7.2273  -16.3428   20.0221 C   0  0  0  0  0  0  0  0  0  0  0  0
    6.8129  -14.9197   20.3525 C   0  0  0  0  0  0  0  0  0  0  0  0
    7.9176  -14.3495   21.1986 C   0  0  0  0  0  0  0  0  0  0  0  0
    8.7760  -15.5205   21.5151 C   0  0  1  0  0  0  0  0  0  0  0  0
    8.4313  -16.1918   22.7737 C   0  0  0  0  0  0  0  0  0  0  0  0
    8.1200  -17.4130   22.7232 O   0  0  0  0  0  0  0  0  0  0  0  0
    8.4150  -15.5911   24.0486 N   0  0  0  0  0  0  0  0  0  0  0  0
    9.4844  -15.8442   25.0178 C   0  0  1  0  0  0  0  0  0  0  0  0
    9.4510  -14.8236   26.0961 C   0  0  0  0  0  0  0  0  0  0  0  0
    8.1162  -14.2644   26.3157 C   0  0  0  0  0  0  0  0  0  0  0  0
    6.9605  -15.0277   26.2025 C   0  0  0  0  0  0  0  0  0  0  0  0
    5.8888  -14.2573   26.4192 N   0  0  0  0  0  0  0  0  0  0  0  0
    6.3407  -12.9930   26.6768 C   0  0  0  0  0  0  0  0  0  0  0  0
    5.6243  -11.8404   26.9880 C   0  0  0  0  0  0  0  0  0  0  0  0
    6.3417  -10.7085   27.2288 C   0  0  0  0  0  0  0  0  0  0  0  0
    7.7366  -10.6952   27.1700 C   0  0  0  0  0  0  0  0  0  0  0  0
    8.4295  -11.8323   26.8632 C   0  0  0  0  0  0  0  0  0  0  0  0
    7.7120  -12.9892   26.6137 C   0  0  0  0  0  0  0  0  0  0  0  0
    9.4345  -17.2205   25.5157 C   0  0  0  0  0  0  0  0  0  0  0  0
   10.4592  -17.8466   26.2053 O   0  0  0  0  0  0  0  0  0  0  0  0
    8.4027  -17.9578   25.3306 O   0  0  0  0  0  0  0  0  0  0  0  0
  2  1  1  0
  3  2  2  0
  4  3  1  0
  5 11  1  0
  5  4  2  0
  6  5  1  0
  7  9  1  0
  7  6  1  0
  7  8  1  1
  9 13  1  0
 10  9  2  0
 11 12  2  0
 12  2  1  0
 13 17  1  0
 13 14  1  0
 14 15  1  0
 16 15  1  0
 17 16  1  0
 17 18  1  1
 18 19  2  0
 18 20  1  0
 20 21  1  0
 21 32  1  0
 21 22  1  1
 23 22  1  0
 23 31  1  0
 24 25  1  0
 24 23  2  0
 25 26  1  0
 26 27  2  0
 26 31  1  0
 27 28  1  0
 28 29  2  0
 30 29  1  0
 31 30  2  0
 32 34  2  0
 32 33  1  0
M  END
$$$$
