SAM.pdb
     RDKit          3D

 20 19  0  0  1  0  0  0  0  0999 V2000
   12.0873  -18.4908   20.6565 O   0  0  0  0  0  0  0  0  0  0  0  0
   11.6358  -17.9277   19.4657 C   0  0  0  0  0  0  0  0  0  0  0  0
   10.2187  -18.4298   19.1557 C   0  0  2  0  0  0  0  0  0  0  0  0
    9.7833  -17.7689   17.9528 N   0  0  0  0  0  0  0  0  0  0  0  0
    9.3921  -18.0456   20.3359 C   0  0  0  0  0  0  0  0  0  0  0  0
    8.7379  -16.9791   20.2669 O   0  0  0  0  0  0  0  0  0  0  0  0
    8.0687  -19.7052   23.3824 C   0  0  0  0  0  0  0  0  0  0  0  0
    8.2930  -18.4793   22.5088 C   0  0  2  0  0  0  0  0  0  0  0  0
    9.3063  -18.8103   21.5169 N   0  0  0  0  0  0  0  0  0  0  0  0
    8.7527  -17.3426   23.3349 C   0  0  0  0  0  0  0  0  0  0  0  0
    9.9793  -17.1331   23.4717 O   0  0  0  0  0  0  0  0  0  0  0  0
    6.6734  -10.7962   27.2393 C   0  0  0  0  0  0  0  0  0  0  0  0
    6.0805  -12.2641   26.3594 S   0  0  0  0  0  0  0  0  0  0  0  0
    7.5463  -13.3092   26.0193 C   0  0  0  0  0  0  0  0  0  0  0  0
    7.1904  -14.4531   25.1268 C   0  0  0  0  0  0  0  0  0  0  0  0
    8.3515  -15.3309   24.7920 C   0  0  2  0  0  0  0  0  0  0  0  0
    7.8716  -16.4549   23.9967 N   0  0  0  0  0  0  0  0  0  0  0  0
    9.1066  -15.8443   25.9332 C   0  0  0  0  0  0  0  0  0  0  0  0
    8.7032  -16.8746   26.5236 O   0  0  0  0  0  0  0  0  0  0  0  0
   10.2703  -15.2791   26.4433 O   0  0  0  0  0  0  0  0  0  0  0  0
  2  1  1  0
  3  2  1  0
  3  5  1  0
  3  4  1  6
  5  6  2  0
  8  7  1  1
  9  8  1  0
  9  5  1  0
 10  8  1  0
 10 11  2  0
 12 13  1  0
 14 13  1  0
 14 15  1  0
 16 15  1  1
 16 17  1  0
 16 18  1  0
 17 10  1  0
 18 19  2  0
 18 20  1  0
M  END
$$$$
