SAM.pdb
     RDKit          3D

 20 19  0  0  1  0  0  0  0  0999 V2000
   10.5394  -12.7229   20.0957 O   0  0  0  0  0  0  0  0  0  0  0  0
   10.6115  -13.6662   19.0739 C   0  0  0  0  0  0  0  0  0  0  0  0
    9.1968  -14.0793   18.6446 C   0  0  2  0  0  0  0  0  0  0  0  0
    8.4693  -12.8727   18.3479 N   0  0  0  0  0  0  0  0  0  0  0  0
    8.6217  -14.8068   19.8125 C   0  0  0  0  0  0  0  0  0  0  0  0
    7.6482  -14.2839   20.4029 O   0  0  0  0  0  0  0  0  0  0  0  0
    8.9926  -18.1013   21.5337 C   0  0  0  0  0  0  0  0  0  0  0  0
    8.4465  -16.6861   21.4109 C   0  0  2  0  0  0  0  0  0  0  0  0
    9.1094  -16.0416   20.2860 N   0  0  0  0  0  0  0  0  0  0  0  0
    8.7140  -15.9278   22.6516 C   0  0  0  0  0  0  0  0  0  0  0  0
    9.7937  -15.3067   22.7768 O   0  0  0  0  0  0  0  0  0  0  0  0
    6.9110  -11.0567   27.9004 C   0  0  0  0  0  0  0  0  0  0  0  0
    6.8712  -11.8997   26.2978 S   0  0  0  0  0  0  0  0  0  0  0  0
    6.8296  -13.6984   26.6433 C   0  0  0  0  0  0  0  0  0  0  0  0
    6.7282  -14.4829   25.3759 C   0  0  0  0  0  0  0  0  0  0  0  0
    8.0401  -15.0113   24.8960 C   0  0  2  0  0  0  0  0  0  0  0  0
    7.8037  -15.8583   23.7329 N   0  0  0  0  0  0  0  0  0  0  0  0
    8.8186  -15.7612   25.8797 C   0  0  0  0  0  0  0  0  0  0  0  0
    8.6977  -17.0081   25.9376 O   0  0  0  0  0  0  0  0  0  0  0  0
    9.7115  -15.2035   26.7883 O   0  0  0  0  0  0  0  0  0  0  0  0
  2  1  1  0
  3  2  1  0
  3  5  1  0
  3  4  1  1
  5  6  2  0
  8  7  1  1
  9  8  1  0
  9  5  1  0
 10  8  1  0
 10 11  2  0
 12 13  1  0
 14 13  1  0
 14 15  1  0
 16 15  1  1
 16 17  1  0
 16 18  1  0
 17 10  1  0
 18 19  2  0
 18 20  1  0
M  END
$$$$
