SAM.pdb
     RDKit          3D

 20 19  0  0  1  0  0  0  0  0999 V2000
    7.3913  -18.3738   22.3633 O   0  0  0  0  0  0  0  0  0  0  0  0
    7.7491  -18.9622   21.1530 C   0  0  0  0  0  0  0  0  0  0  0  0
    7.3158  -18.0624   19.9872 C   0  0  2  0  0  0  0  0  0  0  0  0
    7.7729  -18.6852   18.7721 N   0  0  0  0  0  0  0  0  0  0  0  0
    7.9808  -16.7495   20.2278 C   0  0  0  0  0  0  0  0  0  0  0  0
    9.2283  -16.7001   20.1220 O   0  0  0  0  0  0  0  0  0  0  0  0
    7.0223  -13.1831   20.7882 C   0  0  0  0  0  0  0  0  0  0  0  0
    8.0281  -14.3217   20.6977 C   0  0  2  0  0  0  0  0  0  0  0  0
    7.2886  -15.5690   20.5653 N   0  0  0  0  0  0  0  0  0  0  0  0
    8.8635  -14.3613   21.9169 C   0  0  0  0  0  0  0  0  0  0  0  0
    9.7763  -13.5184   22.0693 O   0  0  0  0  0  0  0  0  0  0  0  0
    6.7019  -11.5066   27.7889 C   0  0  0  0  0  0  0  0  0  0  0  0
    7.0985  -11.8394   26.0533 S   0  0  0  0  0  0  0  0  0  0  0  0
    6.9168  -13.6451   25.8024 C   0  0  0  0  0  0  0  0  0  0  0  0
    7.2907  -14.0303   24.4082 C   0  0  0  0  0  0  0  0  0  0  0  0
    8.4807  -14.9301   24.3379 C   0  0  2  0  0  0  0  0  0  0  0  0
    8.6916  -15.3156   22.9475 N   0  0  0  0  0  0  0  0  0  0  0  0
    8.4116  -16.1364   25.1602 C   0  0  0  0  0  0  0  0  0  0  0  0
    7.8826  -17.1715   24.6895 O   0  0  0  0  0  0  0  0  0  0  0  0
    8.8940  -16.2487   26.4597 O   0  0  0  0  0  0  0  0  0  0  0  0
  2  1  1  0
  3  2  1  0
  3  5  1  0
  3  4  1  6
  5  6  2  0
  8  7  1  1
  9  8  1  0
  9  5  1  0
 10  8  1  0
 10 11  2  0
 12 13  1  0
 14 13  1  0
 14 15  1  0
 16 15  1  6
 16 17  1  0
 16 18  1  0
 17 10  1  0
 18 19  2  0
 18 20  1  0
M  END
$$$$
