SAM.pdb
     RDKit          3D

 20 19  0  0  1  0  0  0  0  0999 V2000
    5.0769  -19.0598   21.8110 O   0  0  0  0  0  0  0  0  0  0  0  0
    6.1805  -18.2150   21.7242 C   0  0  0  0  0  0  0  0  0  0  0  0
    6.4207  -17.8194   20.2606 C   0  0  2  0  0  0  0  0  0  0  0  0
    6.9603  -18.9724   19.5879 N   0  0  0  0  0  0  0  0  0  0  0  0
    7.3952  -16.6915   20.3069 C   0  0  0  0  0  0  0  0  0  0  0  0
    8.6048  -16.9728   20.4724 O   0  0  0  0  0  0  0  0  0  0  0  0
    7.4880  -13.0396   19.5970 C   0  0  0  0  0  0  0  0  0  0  0  0
    8.0730  -14.3160   20.1841 C   0  0  2  0  0  0  0  0  0  0  0  0
    7.0334  -15.3355   20.1757 N   0  0  0  0  0  0  0  0  0  0  0  0
    8.5289  -14.0765   21.5700 C   0  0  0  0  0  0  0  0  0  0  0  0
    9.5162  -13.3354   21.7774 O   0  0  0  0  0  0  0  0  0  0  0  0
    6.7903  -11.3825   28.3444 C   0  0  0  0  0  0  0  0  0  0  0  0
    6.2216  -11.9554   26.7230 S   0  0  0  0  0  0  0  0  0  0  0  0
    7.4474  -13.1818   26.1318 C   0  0  0  0  0  0  0  0  0  0  0  0
    7.1620  -13.5842   24.7216 C   0  0  0  0  0  0  0  0  0  0  0  0
    8.2965  -14.3004   24.0654 C   0  0  2  0  0  0  0  0  0  0  0  0
    7.9040  -14.6466   22.7045 N   0  0  0  0  0  0  0  0  0  0  0  0
    8.7627  -15.5064   24.7469 C   0  0  0  0  0  0  0  0  0  0  0  0
    9.1388  -15.4309   25.9409 O   0  0  0  0  0  0  0  0  0  0  0  0
    8.8302  -16.7730   24.1769 O   0  0  0  0  0  0  0  0  0  0  0  0
  2  1  1  0
  3  2  1  0
  3  5  1  0
  3  4  1  6
  5  6  2  0
  8  7  1  1
  9  8  1  0
  9  5  1  0
 10  8  1  0
 10 11  2  0
 12 13  1  0
 14 13  1  0
 14 15  1  0
 16 15  1  1
 16 17  1  0
 16 18  1  0
 17 10  1  0
 18 19  2  0
 18 20  1  0
M  END
$$$$
