SAM.pdb
     RDKit          3D

 20 19  0  0  1  0  0  0  0  0999 V2000
   11.0219  -12.6061   18.3261 O   0  0  0  0  0  0  0  0  0  0  0  0
   10.1318  -13.0040   19.3203 C   0  0  0  0  0  0  0  0  0  0  0  0
    9.1521  -14.0434   18.7580 C   0  0  2  0  0  0  0  0  0  0  0  0
    8.1508  -13.3282   18.0102 N   0  0  0  0  0  0  0  0  0  0  0  0
    8.5758  -14.7333   19.9477 C   0  0  0  0  0  0  0  0  0  0  0  0
    7.6702  -14.1434   20.5816 O   0  0  0  0  0  0  0  0  0  0  0  0
    8.7326  -18.0738   21.6047 C   0  0  0  0  0  0  0  0  0  0  0  0
    8.3223  -16.6097   21.5391 C   0  0  2  0  0  0  0  0  0  0  0  0
    8.9904  -16.0038   20.3960 N   0  0  0  0  0  0  0  0  0  0  0  0
    8.7218  -15.9129   22.7803 C   0  0  0  0  0  0  0  0  0  0  0  0
    9.8912  -15.4823   22.8994 O   0  0  0  0  0  0  0  0  0  0  0  0
    6.1409  -11.0331   28.2721 C   0  0  0  0  0  0  0  0  0  0  0  0
    5.7471  -12.0801   26.8476 S   0  0  0  0  0  0  0  0  0  0  0  0
    7.2327  -13.0967   26.5071 C   0  0  0  0  0  0  0  0  0  0  0  0
    7.0162  -13.9768   25.3195 C   0  0  0  0  0  0  0  0  0  0  0  0
    8.1936  -14.8352   24.9919 C   0  0  2  0  0  0  0  0  0  0  0  0
    7.8437  -15.6969   23.8688 N   0  0  0  0  0  0  0  0  0  0  0  0
    8.6981  -15.6623   26.0862 C   0  0  0  0  0  0  0  0  0  0  0  0
    8.3259  -16.8566   26.1758 O   0  0  0  0  0  0  0  0  0  0  0  0
    9.5825  -15.2355   27.0708 O   0  0  0  0  0  0  0  0  0  0  0  0
  2  1  1  0
  3  2  1  0
  3  5  1  0
  3  4  1  1
  5  6  2  0
  8  7  1  1
  9  8  1  0
  9  5  1  0
 10  8  1  0
 10 11  2  0
 12 13  1  0
 14 13  1  0
 14 15  1  0
 16 15  1  1
 16 17  1  0
 16 18  1  0
 17 10  1  0
 18 19  2  0
 18 20  1  0
M  END
$$$$
