SAM.pdb
     RDKit          3D

 20 19  0  0  1  0  0  0  0  0999 V2000
   11.3163  -12.8701   18.4307 O   0  0  0  0  0  0  0  0  0  0  0  0
   10.4528  -13.2117   19.4684 C   0  0  0  0  0  0  0  0  0  0  0  0
    9.2831  -14.0420   18.9216 C   0  0  2  0  0  0  0  0  0  0  0  0
    8.3395  -13.1226   18.3405 N   0  0  0  0  0  0  0  0  0  0  0  0
    8.7149  -14.7561   20.1010 C   0  0  0  0  0  0  0  0  0  0  0  0
    7.8455  -14.1612   20.7793 O   0  0  0  0  0  0  0  0  0  0  0  0
    8.8468  -18.1311   21.6913 C   0  0  0  0  0  0  0  0  0  0  0  0
    8.4953  -16.6504   21.6761 C   0  0  2  0  0  0  0  0  0  0  0  0
    9.0991  -16.0545   20.4926 N   0  0  0  0  0  0  0  0  0  0  0  0
    9.0177  -15.9906   22.8916 C   0  0  0  0  0  0  0  0  0  0  0  0
   10.1546  -15.4670   22.8715 O   0  0  0  0  0  0  0  0  0  0  0  0
    5.4893  -12.2261   26.8401 C   0  0  0  0  0  0  0  0  0  0  0  0
    7.2172  -11.6839   26.8098 S   0  0  0  0  0  0  0  0  0  0  0  0
    8.2473  -13.1946   26.6964 C   0  0  0  0  0  0  0  0  0  0  0  0
    7.8790  -14.0025   25.4950 C   0  0  0  0  0  0  0  0  0  0  0  0
    8.7875  -15.1639   25.2569 C   0  0  2  0  0  0  0  0  0  0  0  0
    8.2955  -15.9118   24.1060 N   0  0  0  0  0  0  0  0  0  0  0  0
    8.9525  -16.0799   26.3838 C   0  0  0  0  0  0  0  0  0  0  0  0
    8.3334  -17.1706   26.3846 O   0  0  0  0  0  0  0  0  0  0  0  0
    9.7590  -15.8484   27.4927 O   0  0  0  0  0  0  0  0  0  0  0  0
  2  1  1  0
  3  2  1  0
  3  5  1  0
  3  4  1  1
  5  6  2  0
  8  7  1  1
  9  8  1  0
  9  5  1  0
 10  8  1  0
 10 11  2  0
 12 13  1  0
 14 13  1  0
 14 15  1  0
 16 15  1  1
 16 17  1  0
 16 18  1  0
 17 10  1  0
 18 19  2  0
 18 20  1  0
M  END
$$$$
