SAM.pdb
     RDKit          3D

 20 19  0  0  1  0  0  0  0  0999 V2000
    6.1868  -18.8543   18.6138 O   0  0  0  0  0  0  0  0  0  0  0  0
    7.1239  -19.4316   19.4667 C   0  0  0  0  0  0  0  0  0  0  0  0
    7.0437  -18.7741   20.8515 C   0  0  2  0  0  0  0  0  0  0  0  0
    5.6523  -18.5312   21.1308 N   0  0  0  0  0  0  0  0  0  0  0  0
    7.8212  -17.5067   20.7371 C   0  0  0  0  0  0  0  0  0  0  0  0
    9.0580  -17.5959   20.5574 O   0  0  0  0  0  0  0  0  0  0  0  0
    7.3015  -13.9004   20.1733 C   0  0  0  0  0  0  0  0  0  0  0  0
    8.1073  -15.0500   20.7609 C   0  0  2  0  0  0  0  0  0  0  0  0
    7.2459  -16.2225   20.8195 N   0  0  0  0  0  0  0  0  0  0  0  0
    8.5738  -14.7024   22.1200 C   0  0  0  0  0  0  0  0  0  0  0  0
    9.3768  -13.7547   22.2753 O   0  0  0  0  0  0  0  0  0  0  0  0
    6.7262  -10.9930   27.7514 C   0  0  0  0  0  0  0  0  0  0  0  0
    6.2302  -12.4988   26.8755 S   0  0  0  0  0  0  0  0  0  0  0  0
    7.7405  -13.1841   26.0974 C   0  0  0  0  0  0  0  0  0  0  0  0
    7.4370  -14.4533   25.3701 C   0  0  0  0  0  0  0  0  0  0  0  0
    8.6047  -15.0026   24.6181 C   0  0  2  0  0  0  0  0  0  0  0  0
    8.1593  -15.3907   23.2850 N   0  0  0  0  0  0  0  0  0  0  0  0
    9.2822  -16.1375   25.2419 C   0  0  0  0  0  0  0  0  0  0  0  0
    9.1263  -17.2856   24.7620 O   0  0  0  0  0  0  0  0  0  0  0  0
   10.1123  -16.0616   26.3550 O   0  0  0  0  0  0  0  0  0  0  0  0
  2  1  1  0
  3  2  1  0
  3  5  1  0
  3  4  1  6
  5  6  2  0
  8  7  1  1
  9  8  1  0
  9  5  1  0
 10  8  1  0
 10 11  2  0
 12 13  1  0
 14 13  1  0
 14 15  1  0
 16 15  1  1
 16 17  1  0
 16 18  1  0
 17 10  1  0
 18 19  2  0
 18 20  1  0
M  END
$$$$
