SAM.pdb
     RDKit          3D

 20 19  0  0  1  0  0  0  0  0999 V2000
    9.8229  -12.4587   20.2225 O   0  0  0  0  0  0  0  0  0  0  0  0
    8.7561  -12.3581   19.3331 C   0  0  0  0  0  0  0  0  0  0  0  0
    8.4352  -13.7392   18.7450 C   0  0  2  0  0  0  0  0  0  0  0  0
    7.3330  -13.5716   17.8339 N   0  0  0  0  0  0  0  0  0  0  0  0
    8.0724  -14.5950   19.9111 C   0  0  0  0  0  0  0  0  0  0  0  0
    6.9228  -14.4669   20.3927 O   0  0  0  0  0  0  0  0  0  0  0  0
    9.0743  -17.7258   21.4932 C   0  0  0  0  0  0  0  0  0  0  0  0
    8.4820  -16.3301   21.6254 C   0  0  2  0  0  0  0  0  0  0  0  0
    8.9449  -15.5339   20.4976 N   0  0  0  0  0  0  0  0  0  0  0  0
    8.9223  -15.7082   22.8924 C   0  0  0  0  0  0  0  0  0  0  0  0
   10.0471  -15.1623   22.9558 O   0  0  0  0  0  0  0  0  0  0  0  0
    6.5256  -11.1176   27.3011 C   0  0  0  0  0  0  0  0  0  0  0  0
    5.7721  -12.1677   26.0323 S   0  0  0  0  0  0  0  0  0  0  0  0
    7.1382  -13.0600   25.1994 C   0  0  0  0  0  0  0  0  0  0  0  0
    7.4673  -14.3256   25.9218 C   0  0  0  0  0  0  0  0  0  0  0  0
    8.5980  -15.0847   25.3084 C   0  0  2  0  0  0  0  0  0  0  0  0
    8.1326  -15.6908   24.0665 N   0  0  0  0  0  0  0  0  0  0  0  0
    9.1942  -16.1212   26.1488 C   0  0  0  0  0  0  0  0  0  0  0  0
   10.0317  -15.7963   27.0240 O   0  0  0  0  0  0  0  0  0  0  0  0
    8.9103  -17.4801   26.0672 O   0  0  0  0  0  0  0  0  0  0  0  0
  2  1  1  0
  3  2  1  0
  3  5  1  0
  3  4  1  6
  5  6  2  0
  8  7  1  6
  9  8  1  0
  9  5  1  0
 10  8  1  0
 10 11  2  0
 12 13  1  0
 14 13  1  0
 14 15  1  0
 16 15  1  1
 16 17  1  0
 16 18  1  0
 17 10  1  0
 18 19  2  0
 18 20  1  0
M  END
$$$$
