SAM.pdb
     RDKit          3D

 20 19  0  0  1  0  0  0  0  0999 V2000
    6.7961  -18.3501   23.0954 O   0  0  0  0  0  0  0  0  0  0  0  0
    7.3790  -19.0630   22.0509 C   0  0  0  0  0  0  0  0  0  0  0  0
    7.1606  -18.3194   20.7259 C   0  0  2  0  0  0  0  0  0  0  0  0
    7.7391  -19.1247   19.6819 N   0  0  0  0  0  0  0  0  0  0  0  0
    7.8639  -17.0136   20.8804 C   0  0  0  0  0  0  0  0  0  0  0  0
    9.1167  -17.0252   20.9006 O   0  0  0  0  0  0  0  0  0  0  0  0
    7.1715  -13.4120   20.5274 C   0  0  0  0  0  0  0  0  0  0  0  0
    7.9884  -14.5544   21.1138 C   0  0  2  0  0  0  0  0  0  0  0  0
    7.2023  -15.7751   21.0042 N   0  0  0  0  0  0  0  0  0  0  0  0
    8.2972  -14.2829   22.5339 C   0  0  0  0  0  0  0  0  0  0  0  0
    8.1509  -13.1259   22.9889 O   0  0  0  0  0  0  0  0  0  0  0  0
    6.1835  -10.8770   26.8757 C   0  0  0  0  0  0  0  0  0  0  0  0
    6.3529  -12.6798   26.9160 S   0  0  0  0  0  0  0  0  0  0  0  0
    7.3433  -13.1544   25.4497 C   0  0  0  0  0  0  0  0  0  0  0  0
    7.5588  -14.6321   25.4070 C   0  0  0  0  0  0  0  0  0  0  0  0
    8.8936  -15.0238   24.8634 C   0  0  2  0  0  0  0  0  0  0  0  0
    8.7592  -15.2732   23.4331 N   0  0  0  0  0  0  0  0  0  0  0  0
    9.5165  -16.1869   25.4921 C   0  0  0  0  0  0  0  0  0  0  0  0
    9.4267  -17.3075   24.9362 O   0  0  0  0  0  0  0  0  0  0  0  0
   10.2241  -16.1675   26.6891 O   0  0  0  0  0  0  0  0  0  0  0  0
  2  1  1  0
  3  2  1  0
  3  5  1  0
  3  4  1  6
  5  6  2  0
  8  7  1  1
  9  8  1  0
  9  5  1  0
 10  8  1  0
 10 11  2  0
 12 13  1  0
 14 13  1  0
 14 15  1  0
 16 15  1  1
 16 17  1  0
 16 18  1  0
 17 10  1  0
 18 19  2  0
 18 20  1  0
M  END
$$$$
