SAM.pdb
     RDKit          3D

 20 19  0  0  1  0  0  0  0  0999 V2000
   11.4445  -12.8386   18.8659 O   0  0  0  0  0  0  0  0  0  0  0  0
   10.3499  -13.0778   19.6927 C   0  0  0  0  0  0  0  0  0  0  0  0
    9.3489  -13.9977   18.9799 C   0  0  2  0  0  0  0  0  0  0  0  0
    8.4276  -13.1549   18.2628 N   0  0  0  0  0  0  0  0  0  0  0  0
    8.6745  -14.7693   20.0633 C   0  0  0  0  0  0  0  0  0  0  0  0
    7.7107  -14.2267   20.6520 O   0  0  0  0  0  0  0  0  0  0  0  0
    8.7738  -18.1736   21.5957 C   0  0  0  0  0  0  0  0  0  0  0  0
    8.3679  -16.7070   21.5695 C   0  0  2  0  0  0  0  0  0  0  0  0
    9.0585  -16.0665   20.4591 N   0  0  0  0  0  0  0  0  0  0  0  0
    8.7454  -16.0515   22.8398 C   0  0  0  0  0  0  0  0  0  0  0  0
    9.9138  -15.6299   22.9953 O   0  0  0  0  0  0  0  0  0  0  0  0
    6.6252  -10.7000   26.3172 C   0  0  0  0  0  0  0  0  0  0  0  0
    6.0560  -12.2405   27.0808 S   0  0  0  0  0  0  0  0  0  0  0  0
    7.3583  -13.4945   26.7846 C   0  0  0  0  0  0  0  0  0  0  0  0
    7.1359  -14.1982   25.4857 C   0  0  0  0  0  0  0  0  0  0  0  0
    8.2257  -15.1567   25.1333 C   0  0  2  0  0  0  0  0  0  0  0  0
    7.8469  -15.8662   23.9171 N   0  0  0  0  0  0  0  0  0  0  0  0
    8.5685  -16.1328   26.1658 C   0  0  0  0  0  0  0  0  0  0  0  0
    8.0330  -17.2666   26.1414 O   0  0  0  0  0  0  0  0  0  0  0  0
    9.4633  -15.9157   27.2079 O   0  0  0  0  0  0  0  0  0  0  0  0
  2  1  1  0
  3  2  1  0
  3  5  1  0
  3  4  1  1
  5  6  2  0
  8  7  1  1
  9  8  1  0
  9  5  1  0
 10  8  1  0
 10 11  2  0
 12 13  1  0
 14 13  1  0
 14 15  1  0
 16 15  1  1
 16 17  1  0
 16 18  1  0
 17 10  1  0
 18 19  2  0
 18 20  1  0
M  END
$$$$
