SAM.pdb
     RDKit          3D

 20 19  0  0  1  0  0  0  0  0999 V2000
    6.2549  -17.5781   23.4946 O   0  0  0  0  0  0  0  0  0  0  0  0
    6.4462  -18.7527   22.7716 C   0  0  0  0  0  0  0  0  0  0  0  0
    6.3192  -18.4669   21.2688 C   0  0  2  0  0  0  0  0  0  0  0  0
    6.6278  -19.6887   20.5724 N   0  0  0  0  0  0  0  0  0  0  0  0
    7.3127  -17.3926   20.9815 C   0  0  0  0  0  0  0  0  0  0  0  0
    8.5270  -17.7006   21.0040 O   0  0  0  0  0  0  0  0  0  0  0  0
    7.4230  -13.8503   19.8365 C   0  0  0  0  0  0  0  0  0  0  0  0
    8.0159  -15.0628   20.5399 C   0  0  2  0  0  0  0  0  0  0  0  0
    6.9641  -16.0587   20.6881 N   0  0  0  0  0  0  0  0  0  0  0  0
    8.5324  -14.6774   21.8705 C   0  0  0  0  0  0  0  0  0  0  0  0
    9.5588  -13.9656   21.9536 O   0  0  0  0  0  0  0  0  0  0  0  0
    6.4999  -11.1380   28.0790 C   0  0  0  0  0  0  0  0  0  0  0  0
    5.8778  -12.4441   26.9892 S   0  0  0  0  0  0  0  0  0  0  0  0
    7.3371  -13.3683   26.3790 C   0  0  0  0  0  0  0  0  0  0  0  0
    7.0841  -13.9256   25.0162 C   0  0  0  0  0  0  0  0  0  0  0  0
    8.3041  -14.4951   24.3697 C   0  0  2  0  0  0  0  0  0  0  0  0
    7.9244  -15.0725   23.0857 N   0  0  0  0  0  0  0  0  0  0  0  0
    9.0225  -15.5011   25.1493 C   0  0  0  0  0  0  0  0  0  0  0  0
    9.0605  -16.6853   24.7382 O   0  0  0  0  0  0  0  0  0  0  0  0
    9.6913  -15.2608   26.3447 O   0  0  0  0  0  0  0  0  0  0  0  0
  2  1  1  0
  3  2  1  0
  3  5  1  0
  3  4  1  6
  5  6  2  0
  8  7  1  1
  9  8  1  0
  9  5  1  0
 10  8  1  0
 10 11  2  0
 12 13  1  0
 14 13  1  0
 14 15  1  0
 16 15  1  1
 16 17  1  0
 16 18  1  0
 17 10  1  0
 18 19  2  0
 18 20  1  0
M  END
$$$$
