SAM.pdb
     RDKit          3D

 20 19  0  0  1  0  0  0  0  0999 V2000
    5.9424  -19.4203   21.2813 O   0  0  0  0  0  0  0  0  0  0  0  0
    6.8809  -18.3955   21.3710 C   0  0  0  0  0  0  0  0  0  0  0  0
    7.1533  -17.8141   19.9767 C   0  0  2  0  0  0  0  0  0  0  0  0
    7.9247  -18.7883   19.2493 N   0  0  0  0  0  0  0  0  0  0  0  0
    7.9187  -16.5560   20.2115 C   0  0  0  0  0  0  0  0  0  0  0  0
    9.1264  -16.6592   20.5288 O   0  0  0  0  0  0  0  0  0  0  0  0
    7.4786  -12.8930   19.6858 C   0  0  0  0  0  0  0  0  0  0  0  0
    8.2286  -14.1022   20.2257 C   0  0  2  0  0  0  0  0  0  0  0  0
    7.3628  -15.2658   20.0970 N   0  0  0  0  0  0  0  0  0  0  0  0
    8.5777  -13.8920   21.6469 C   0  0  0  0  0  0  0  0  0  0  0  0
    9.3999  -13.0003   21.9568 O   0  0  0  0  0  0  0  0  0  0  0  0
    6.6234  -11.5875   28.1594 C   0  0  0  0  0  0  0  0  0  0  0  0
    5.8971  -12.4470   26.7402 S   0  0  0  0  0  0  0  0  0  0  0  0
    7.0984  -13.7300   26.2231 C   0  0  0  0  0  0  0  0  0  0  0  0
    6.9742  -14.0196   24.7628 C   0  0  0  0  0  0  0  0  0  0  0  0
    8.2774  -14.3357   24.1054 C   0  0  2  0  0  0  0  0  0  0  0  0
    8.0274  -14.6541   22.7046 N   0  0  0  0  0  0  0  0  0  0  0  0
    9.0443  -15.4230   24.7103 C   0  0  0  0  0  0  0  0  0  0  0  0
    9.3508  -15.3571   25.9246 O   0  0  0  0  0  0  0  0  0  0  0  0
    9.4805  -16.5628   24.0438 O   0  0  0  0  0  0  0  0  0  0  0  0
  2  1  1  0
  3  2  1  0
  3  5  1  0
  3  4  1  6
  5  6  2  0
  8  7  1  1
  9  8  1  0
  9  5  1  0
 10  8  1  0
 10 11  2  0
 12 13  1  0
 14 13  1  0
 14 15  1  0
 16 15  1  1
 16 17  1  0
 16 18  1  0
 17 10  1  0
 18 19  2  0
 18 20  1  0
M  END
$$$$
