SAM.pdb
     RDKit          3D

 20 19  0  0  1  0  0  0  0  0999 V2000
    7.7218  -20.2493   21.9775 O   0  0  0  0  0  0  0  0  0  0  0  0
    8.1481  -18.9238   21.9939 C   0  0  0  0  0  0  0  0  0  0  0  0
    8.0435  -18.3247   20.5845 C   0  0  2  0  0  0  0  0  0  0  0  0
    9.0004  -19.0101   19.7552 N   0  0  0  0  0  0  0  0  0  0  0  0
    8.3722  -16.8784   20.7402 C   0  0  0  0  0  0  0  0  0  0  0  0
    9.5751  -16.5686   20.9044 O   0  0  0  0  0  0  0  0  0  0  0  0
    6.6510  -13.5825   20.3901 C   0  0  0  0  0  0  0  0  0  0  0  0
    7.8537  -14.4603   20.7053 C   0  0  2  0  0  0  0  0  0  0  0  0
    7.4113  -15.8476   20.7131 N   0  0  0  0  0  0  0  0  0  0  0  0
    8.4111  -14.1046   22.0277 C   0  0  0  0  0  0  0  0  0  0  0  0
    8.9265  -12.9767   22.1990 O   0  0  0  0  0  0  0  0  0  0  0  0
    6.5310  -10.9755   28.0601 C   0  0  0  0  0  0  0  0  0  0  0  0
    6.2491  -11.6808   26.4158 S   0  0  0  0  0  0  0  0  0  0  0  0
    7.4301  -13.0678   26.2219 C   0  0  0  0  0  0  0  0  0  0  0  0
    7.3955  -13.6072   24.8291 C   0  0  0  0  0  0  0  0  0  0  0  0
    8.5471  -14.5026   24.5085 C   0  0  2  0  0  0  0  0  0  0  0  0
    8.3982  -14.9806   23.1390 N   0  0  0  0  0  0  0  0  0  0  0  0
    8.7227  -15.6504   25.3960 C   0  0  0  0  0  0  0  0  0  0  0  0
    8.8691  -15.4588   26.6267 O   0  0  0  0  0  0  0  0  0  0  0  0
    8.7430  -16.9806   24.9907 O   0  0  0  0  0  0  0  0  0  0  0  0
  2  1  1  0
  3  2  1  0
  3  5  1  0
  3  4  1  6
  5  6  2  0
  8  7  1  1
  9  8  1  0
  9  5  1  0
 10  8  1  0
 10 11  2  0
 12 13  1  0
 14 13  1  0
 14 15  1  0
 16 15  1  1
 16 17  1  0
 16 18  1  0
 17 10  1  0
 18 19  2  0
 18 20  1  0
M  END
$$$$
