SAM.pdb
     RDKit          3D

 20 19  0  0  1  0  0  0  0  0999 V2000
   11.0138  -12.6093   18.4118 O   0  0  0  0  0  0  0  0  0  0  0  0
   10.2520  -13.1179   19.4607 C   0  0  0  0  0  0  0  0  0  0  0  0
    9.0832  -13.9430   18.9043 C   0  0  2  0  0  0  0  0  0  0  0  0
    8.1143  -13.0152   18.3812 N   0  0  0  0  0  0  0  0  0  0  0  0
    8.5507  -14.7135   20.0646 C   0  0  0  0  0  0  0  0  0  0  0  0
    7.6397  -14.1871   20.7450 O   0  0  0  0  0  0  0  0  0  0  0  0
    8.8363  -18.1005   21.5930 C   0  0  0  0  0  0  0  0  0  0  0  0
    8.4807  -16.6213   21.6371 C   0  0  2  0  0  0  0  0  0  0  0  0
    9.0120  -15.9926   20.4361 N   0  0  0  0  0  0  0  0  0  0  0  0
    9.0724  -15.9910   22.8365 C   0  0  0  0  0  0  0  0  0  0  0  0
    9.7447  -14.9419   22.7163 O   0  0  0  0  0  0  0  0  0  0  0  0
    6.3079  -11.3759   27.4147 C   0  0  0  0  0  0  0  0  0  0  0  0
    6.4435  -12.3925   25.9219 S   0  0  0  0  0  0  0  0  0  0  0  0
    7.5054  -13.8235   26.3470 C   0  0  0  0  0  0  0  0  0  0  0  0
    7.7285  -14.6953   25.1544 C   0  0  0  0  0  0  0  0  0  0  0  0
    8.8615  -15.6540   25.3211 C   0  0  2  0  0  0  0  0  0  0  0  0
    8.9227  -16.5119   24.1436 N   0  0  0  0  0  0  0  0  0  0  0  0
    8.8109  -16.4919   26.5175 C   0  0  0  0  0  0  0  0  0  0  0  0
    8.0540  -17.4918   26.5358 O   0  0  0  0  0  0  0  0  0  0  0  0
    9.5484  -16.2781   27.6769 O   0  0  0  0  0  0  0  0  0  0  0  0
  2  1  1  0
  3  2  1  0
  3  5  1  0
  3  4  1  1
  5  6  2  0
  8  7  1  6
  9  8  1  0
  9  5  1  0
 10  8  1  0
 10 11  2  0
 12 13  1  0
 14 13  1  0
 14 15  1  0
 16 15  1  6
 16 17  1  0
 16 18  1  0
 17 10  1  0
 18 19  2  0
 18 20  1  0
M  END
$$$$
