SAM.pdb
     RDKit          3D

 20 19  0  0  1  0  0  0  0  0999 V2000
   -6.1978  -30.1254   28.2172 O   0  0  0  0  0  0  0  0  0  0  0  0
   -7.0342  -29.4416   27.3386 C   0  0  0  0  0  0  0  0  0  0  0  0
   -6.6185  -27.9658   27.2648 C   0  0  2  0  0  0  0  0  0  0  0  0
   -5.2046  -27.9316   26.9948 N   0  0  0  0  0  0  0  0  0  0  0  0
   -6.9472  -27.3914   28.6012 C   0  0  0  0  0  0  0  0  0  0  0  0
   -8.1565  -27.2200   28.8804 O   0  0  0  0  0  0  0  0  0  0  0  0
   -5.3291  -26.6534   31.8517 C   0  0  0  0  0  0  0  0  0  0  0  0
   -6.4062  -26.4074   30.8050 C   0  0  2  0  0  0  0  0  0  0  0  0
   -5.9794  -27.0329   29.5613 N   0  0  0  0  0  0  0  0  0  0  0  0
   -6.5925  -24.9554   30.5976 C   0  0  0  0  0  0  0  0  0  0  0  0
   -6.8625  -24.2204   31.5743 O   0  0  0  0  0  0  0  0  0  0  0  0
   -4.8417  -18.8591   25.9694 C   0  0  0  0  0  0  0  0  0  0  0  0
   -4.8894  -20.6619   26.1368 S   0  0  0  0  0  0  0  0  0  0  0  0
   -5.7995  -21.0290   27.6838 C   0  0  0  0  0  0  0  0  0  0  0  0
   -5.6815  -22.4746   28.0420 C   0  0  0  0  0  0  0  0  0  0  0  0
   -6.5699  -22.8828   29.1711 C   0  0  2  0  0  0  0  0  0  0  0  0
   -6.4819  -24.3292   29.3335 N   0  0  0  0  0  0  0  0  0  0  0  0
   -7.9753  -22.5039   29.0395 C   0  0  0  0  0  0  0  0  0  0  0  0
   -8.3421  -21.3646   29.4138 O   0  0  0  0  0  0  0  0  0  0  0  0
   -8.9784  -23.3152   28.5204 O   0  0  0  0  0  0  0  0  0  0  0  0
  2  1  1  0
  3  2  1  0
  3  5  1  0
  3  4  1  1
  5  6  2  0
  8  7  1  1
  9  8  1  0
  9  5  1  0
 10  8  1  0
 10 11  2  0
 12 13  1  0
 14 13  1  0
 14 15  1  0
 16 15  1  6
 16 17  1  0
 16 18  1  0
 17 10  1  0
 18 19  2  0
 18 20  1  0
M  END
$$$$
