QRH.pdb
     RDKit          3D

 31 31  0  0  1  0  0  0  0  0999 V2000
   13.9563  -14.3505  -21.0343 N   0  0  0  0  0  0  0  0  0  0  0  0
   13.4982  -14.6894  -19.7248 C   0  0  0  0  0  0  0  0  0  0  0  0
   12.3214  -15.0787  -19.5813 O   0  0  0  0  0  0  0  0  0  0  0  0
   14.3923  -14.5858  -18.5448 C   0  0  0  0  0  0  0  0  0  0  0  0
   15.7316  -14.0756  -18.9822 C   0  0  0  0  0  0  0  0  0  0  0  0
   16.7049  -13.9409  -17.8275 C   0  0  2  0  0  0  0  0  0  0  0  0
   16.0452  -13.9461  -16.5545 N   0  0  0  0  0  0  0  0  0  0  0  0
   17.3390  -12.5856  -18.0041 C   0  0  0  0  0  0  0  0  0  0  0  0
   17.9983  -12.3092  -19.0350 O   0  0  0  0  0  0  0  0  0  0  0  0
   13.1632   -6.0424  -14.7596 N   0  0  0  0  0  0  0  0  0  0  0  0
   13.4034   -7.1383  -13.8890 C   0  0  0  0  0  0  0  0  0  0  0  0
   12.8001   -7.2058  -12.7403 N   0  0  0  0  0  0  0  0  0  0  0  0
   14.3069   -8.1657  -14.2708 N   0  0  0  0  0  0  0  0  0  0  0  0
   14.9549   -8.1301  -15.5628 C   0  0  0  0  0  0  0  0  0  0  0  0
   15.9458   -9.2610  -15.7053 C   0  0  0  0  0  0  0  0  0  0  0  0
   16.6500   -9.2584  -17.0374 C   0  0  0  0  0  0  0  0  0  0  0  0
   17.7267  -10.2456  -17.1344 C   0  0  2  0  0  0  0  0  0  0  0  0
   17.2069  -11.5844  -17.0091 N   0  0  0  0  0  0  0  0  0  0  0  0
   18.8387  -10.0792  -16.1811 C   0  0  0  0  0  0  0  0  0  0  0  0
   18.8206  -10.7633  -15.1298 O   0  0  0  0  0  0  0  0  0  0  0  0
   12.8806   -8.0129  -12.1069 N   0  0  0  0  0  0  0  0  0  0  0  0
   19.9210   -9.1997  -16.3774 C   0  0  2  0  0  0  0  0  0  0  0  0
   21.1605   -9.2316  -15.5864 C   0  0  0  0  0  0  0  0  0  0  0  0
   22.2821   -9.8225  -16.3468 C   0  0  0  0  0  0  0  0  0  0  0  0
   23.5231   -9.8479  -15.5501 C   0  0  0  0  0  0  0  0  0  0  0  0
   23.7629  -10.3270  -14.2851 N   0  0  0  0  0  0  0  0  0  0  0  0
   25.0754  -10.2307  -13.9985 C   0  0  0  0  0  0  0  0  0  0  0  0
   25.6853   -9.6981  -15.0607 N   0  0  0  0  0  0  0  0  0  0  0  0
   24.7643   -9.4627  -16.0028 C   0  0  0  0  0  0  0  0  0  0  0  0
   21.5243   -7.8046  -15.3018 O   0  0  0  0  0  0  0  0  0  0  0  0
   20.8013   -6.7575  -15.7343 O   0  0  0  0  0  0  0  0  0  0  0  0
  2  3  2  0
  2  1  1  0
  4  2  1  0
  5  4  1  0
  6  5  1  0
  6  7  1  1
  8  9  2  0
  8  6  1  0
 10 11  1  0
 11 12  2  0
 13 11  1  0
 13 14  1  0
 14 15  1  0
 15 16  1  0
 17 16  1  1
 17 18  1  0
 18  8  1  0
 19 21  1  0
 19 17  1  0
 20 19  2  0
 22 21  1  0
 22 29  1  0
 23 24  1  0
 22 23  1  6
 24 25  2  0
 25 26  1  0
 27 26  1  0
 28 24  1  0
 28 27  2  0
 29 30  1  0
 31 29  2  0
M  END
$$$$
