QRH.pdb
     RDKit          3D

 31 31  0  0  1  0  0  0  0  0999 V2000
   26.2435  -19.1696  -17.8192 N   0  0  0  0  0  0  0  0  0  0  0  0
   27.3599  -19.2545  -18.7057 C   0  0  0  0  0  0  0  0  0  0  0  0
   27.8342  -18.2015  -19.1783 O   0  0  0  0  0  0  0  0  0  0  0  0
   27.9574  -20.5636  -19.0693 C   0  0  0  0  0  0  0  0  0  0  0  0
   27.2143  -21.6587  -18.3667 C   0  0  0  0  0  0  0  0  0  0  0  0
   28.0381  -22.3065  -17.2709 C   0  0  2  0  0  0  0  0  0  0  0  0
   28.5985  -23.5615  -17.6795 N   0  0  0  0  0  0  0  0  0  0  0  0
   27.0614  -22.5867  -16.1585 C   0  0  0  0  0  0  0  0  0  0  0  0
   26.4524  -23.6816  -16.0928 O   0  0  0  0  0  0  0  0  0  0  0  0
   23.1293  -20.1474  -10.7261 N   0  0  0  0  0  0  0  0  0  0  0  0
   23.6396  -20.6444   -9.4976 C   0  0  0  0  0  0  0  0  0  0  0  0
   22.8295  -20.9563   -8.5310 N   0  0  0  0  0  0  0  0  0  0  0  0
   25.0403  -20.8009   -9.3203 N   0  0  0  0  0  0  0  0  0  0  0  0
   25.9463  -20.6109  -10.4308 C   0  0  0  0  0  0  0  0  0  0  0  0
   25.4736  -21.3624  -11.6528 C   0  0  0  0  0  0  0  0  0  0  0  0
   26.3668  -21.1569  -12.8487 C   0  0  0  0  0  0  0  0  0  0  0  0
   25.8799  -21.8109  -14.0646 C   0  0  2  0  0  0  0  0  0  0  0  0
   26.8042  -21.6197  -15.1543 N   0  0  0  0  0  0  0  0  0  0  0  0
   24.5327  -21.4139  -14.5123 C   0  0  0  0  0  0  0  0  0  0  0  0
   24.3487  -20.2159  -14.8356 O   0  0  0  0  0  0  0  0  0  0  0  0
   23.1483  -21.3164   -7.6212 N   0  0  0  0  0  0  0  0  0  0  0  0
   23.4387  -22.2964  -14.6000 C   0  0  2  0  0  0  0  0  0  0  0  0
   22.1111  -21.9129  -15.1033 C   0  0  0  0  0  0  0  0  0  0  0  0
   21.1988  -23.0733  -15.1859 C   0  0  0  0  0  0  0  0  0  0  0  0
   19.8855  -22.6919  -15.7381 C   0  0  0  0  0  0  0  0  0  0  0  0
   19.5634  -21.8656  -16.7874 N   0  0  0  0  0  0  0  0  0  0  0  0
   18.2335  -21.8891  -16.9991 C   0  0  0  0  0  0  0  0  0  0  0  0
   17.6938  -22.7194  -16.1029 N   0  0  0  0  0  0  0  0  0  0  0  0
   18.6755  -23.2106  -15.3372 C   0  0  0  0  0  0  0  0  0  0  0  0
   21.5287  -20.9651  -14.0972 O   0  0  0  0  0  0  0  0  0  0  0  0
   20.8077  -19.8820  -14.4337 O   0  0  0  0  0  0  0  0  0  0  0  0
  2  3  2  0
  2  1  1  0
  4  2  1  0
  5  4  1  0
  6  5  1  0
  6  7  1  6
  8  9  2  0
  8  6  1  0
 10 11  1  0
 11 12  2  0
 13 11  1  0
 13 14  1  0
 14 15  1  0
 15 16  1  0
 17 16  1  1
 17 18  1  0
 18  8  1  0
 19 21  1  0
 19 17  1  0
 20 19  2  0
 22 21  1  0
 22 29  1  0
 23 24  1  0
 22 23  1  1
 24 25  2  0
 25 26  1  0
 27 26  1  0
 28 24  1  0
 28 27  2  0
 29 30  1  0
 31 29  2  0
M  END
$$$$
