QRH.pdb
     RDKit          3D

 31 31  0  0  1  0  0  0  0  0999 V2000
   24.1095  -15.4563  -17.6656 N   0  0  0  0  0  0  0  0  0  0  0  0
   24.0090  -15.1299  -19.0523 C   0  0  0  0  0  0  0  0  0  0  0  0
   24.6270  -14.1347  -19.4822 O   0  0  0  0  0  0  0  0  0  0  0  0
   23.1885  -15.9485  -19.9792 C   0  0  0  0  0  0  0  0  0  0  0  0
   22.6357  -17.1287  -19.2397 C   0  0  0  0  0  0  0  0  0  0  0  0
   23.6490  -18.2472  -19.0946 C   0  0  2  0  0  0  0  0  0  0  0  0
   23.9158  -18.9063  -20.3397 N   0  0  0  0  0  0  0  0  0  0  0  0
   22.9971  -19.2518  -18.1804 C   0  0  0  0  0  0  0  0  0  0  0  0
   22.0832  -20.0052  -18.5937 O   0  0  0  0  0  0  0  0  0  0  0  0
   26.7396  -21.4640  -11.0099 N   0  0  0  0  0  0  0  0  0  0  0  0
   25.4315  -20.9621  -10.7786 C   0  0  0  0  0  0  0  0  0  0  0  0
   25.0636  -20.6222   -9.5798 N   0  0  0  0  0  0  0  0  0  0  0  0
   24.5183  -20.8312  -11.8587 N   0  0  0  0  0  0  0  0  0  0  0  0
   24.2670  -21.9446  -12.7462 C   0  0  0  0  0  0  0  0  0  0  0  0
   23.2422  -21.5831  -13.7952 C   0  0  0  0  0  0  0  0  0  0  0  0
   23.7457  -20.5568  -14.7768 C   0  0  0  0  0  0  0  0  0  0  0  0
   22.8320  -20.3158  -15.8949 C   0  0  2  0  0  0  0  0  0  0  0  0
   23.4000  -19.3735  -16.8266 N   0  0  0  0  0  0  0  0  0  0  0  0
   21.4771  -19.8628  -15.5314 C   0  0  0  0  0  0  0  0  0  0  0  0
   21.2567  -18.6282  -15.5027 O   0  0  0  0  0  0  0  0  0  0  0  0
   24.1441  -20.2124   -9.3663 N   0  0  0  0  0  0  0  0  0  0  0  0
   20.4140  -20.7303  -15.2143 C   0  0  1  0  0  0  0  0  0  0  0  0
   19.0756  -20.2764  -14.8075 C   0  0  0  0  0  0  0  0  0  0  0  0
   18.1259  -20.2818  -15.9405 C   0  0  0  0  0  0  0  0  0  0  0  0
   18.1257  -18.9907  -16.6536 C   0  0  0  0  0  0  0  0  0  0  0  0
   18.8847  -17.8623  -16.4586 N   0  0  0  0  0  0  0  0  0  0  0  0
   18.6115  -16.9541  -17.4149 C   0  0  0  0  0  0  0  0  0  0  0  0
   17.6889  -17.4809  -18.2243 N   0  0  0  0  0  0  0  0  0  0  0  0
   17.3867  -18.7064  -17.7792 C   0  0  0  0  0  0  0  0  0  0  0  0
   18.5715  -21.2719  -13.8052 O   0  0  0  0  0  0  0  0  0  0  0  0
   17.3906  -21.1525  -13.1750 O   0  0  0  0  0  0  0  0  0  0  0  0
  2  3  2  0
  2  1  1  0
  4  2  1  0
  5  4  1  0
  6  5  1  0
  6  7  1  6
  8  9  2  0
  8  6  1  0
 10 11  1  0
 11 12  2  0
 13 11  1  0
 13 14  1  0
 14 15  1  0
 15 16  1  0
 17 16  1  1
 17 18  1  0
 18  8  1  0
 19 21  1  0
 19 17  1  0
 20 19  2  0
 22 21  1  0
 22 29  1  0
 23 24  1  0
 22 23  1  1
 24 25  2  0
 25 26  1  0
 27 26  1  0
 28 24  1  0
 28 27  2  0
 29 30  1  0
 31 29  2  0
M  END
$$$$
