QRH.pdb
     RDKit          3D

 31 31  0  0  1  0  0  0  0  0999 V2000
   26.9813  -15.2622  -17.8167 N   0  0  0  0  0  0  0  0  0  0  0  0
   26.6211  -14.7964  -19.1178 C   0  0  0  0  0  0  0  0  0  0  0  0
   27.2078  -13.7982  -19.5830 O   0  0  0  0  0  0  0  0  0  0  0  0
   25.5699  -15.4753  -19.9157 C   0  0  0  0  0  0  0  0  0  0  0  0
   25.0997  -16.6931  -19.1802 C   0  0  0  0  0  0  0  0  0  0  0  0
   26.1196  -17.8147  -19.2061 C   0  0  2  0  0  0  0  0  0  0  0  0
   26.0971  -18.5439  -20.4405 N   0  0  0  0  0  0  0  0  0  0  0  0
   25.6922  -18.7598  -18.1133 C   0  0  0  0  0  0  0  0  0  0  0  0
   24.7968  -19.6157  -18.3118 O   0  0  0  0  0  0  0  0  0  0  0  0
   25.8936  -19.2531  -10.5733 N   0  0  0  0  0  0  0  0  0  0  0  0
   26.3237  -20.5914  -10.3719 C   0  0  0  0  0  0  0  0  0  0  0  0
   25.8893  -21.2721   -9.3541 N   0  0  0  0  0  0  0  0  0  0  0  0
   27.2335  -21.1911  -11.2832 N   0  0  0  0  0  0  0  0  0  0  0  0
   27.6640  -20.4792  -12.4657 C   0  0  0  0  0  0  0  0  0  0  0  0
   26.5315  -20.3323  -13.4542 C   0  0  0  0  0  0  0  0  0  0  0  0
   26.9339  -19.5849  -14.6991 C   0  0  0  0  0  0  0  0  0  0  0  0
   25.8770  -19.5152  -15.7096 C   0  0  2  0  0  0  0  0  0  0  0  0
   26.2917  -18.7078  -16.8297 N   0  0  0  0  0  0  0  0  0  0  0  0
   24.5673  -19.0310  -15.2372 C   0  0  0  0  0  0  0  0  0  0  0  0
   24.4429  -17.8055  -15.0001 O   0  0  0  0  0  0  0  0  0  0  0  0
   26.2025  -22.2286   -9.1396 N   0  0  0  0  0  0  0  0  0  0  0  0
   23.4461  -19.8591  -15.0356 C   0  0  2  0  0  0  0  0  0  0  0  0
   22.0701  -19.3599  -14.8931 C   0  0  0  0  0  0  0  0  0  0  0  0
   21.6447  -18.5776  -16.0732 C   0  0  0  0  0  0  0  0  0  0  0  0
   20.2727  -18.0601  -15.9144 C   0  0  0  0  0  0  0  0  0  0  0  0
   19.7009  -17.3438  -14.8911 N   0  0  0  0  0  0  0  0  0  0  0  0
   18.4417  -16.9975  -15.2204 C   0  0  0  0  0  0  0  0  0  0  0  0
   18.1939  -17.4786  -16.4415 N   0  0  0  0  0  0  0  0  0  0  0  0
   19.2865  -18.1202  -16.8724 C   0  0  0  0  0  0  0  0  0  0  0  0
   21.1818  -20.5663  -14.8206 O   0  0  0  0  0  0  0  0  0  0  0  0
   21.6261  -21.8225  -14.9956 O   0  0  0  0  0  0  0  0  0  0  0  0
  2  3  2  0
  2  1  1  0
  4  2  1  0
  5  4  1  0
  6  5  1  0
  6  7  1  6
  8  9  2  0
  8  6  1  0
 10 11  1  0
 11 12  2  0
 13 11  1  0
 13 14  1  0
 14 15  1  0
 15 16  1  0
 17 16  1  1
 17 18  1  0
 18  8  1  0
 19 21  1  0
 19 17  1  0
 20 19  2  0
 22 21  1  0
 22 29  1  0
 23 24  1  0
 22 23  1  6
 24 25  2  0
 25 26  1  0
 27 26  1  0
 28 24  1  0
 28 27  2  0
 29 30  1  0
 31 29  2  0
M  END
$$$$
