QRH.pdb
     RDKit          3D

 31 31  0  0  1  0  0  0  0  0999 V2000
   25.4693  -20.9575  -20.6048 N   0  0  0  0  0  0  0  0  0  0  0  0
   24.1814  -20.5858  -21.0974 C   0  0  0  0  0  0  0  0  0  0  0  0
   23.9739  -19.3928  -21.3985 O   0  0  0  0  0  0  0  0  0  0  0  0
   23.0977  -21.5877  -21.2541 C   0  0  0  0  0  0  0  0  0  0  0  0
   22.0280  -21.3222  -20.2389 C   0  0  0  0  0  0  0  0  0  0  0  0
   22.1863  -22.1744  -18.9949 C   0  0  2  0  0  0  0  0  0  0  0  0
   21.6561  -23.4954  -19.1676 N   0  0  0  0  0  0  0  0  0  0  0  0
   21.3582  -21.4877  -17.9402 C   0  0  0  0  0  0  0  0  0  0  0  0
   20.1430  -21.7616  -17.7918 O   0  0  0  0  0  0  0  0  0  0  0  0
   18.7504  -22.8026  -13.4670 N   0  0  0  0  0  0  0  0  0  0  0  0
   19.6825  -22.8640  -12.3974 C   0  0  0  0  0  0  0  0  0  0  0  0
   19.6789  -23.8768  -11.5837 N   0  0  0  0  0  0  0  0  0  0  0  0
   20.6228  -21.8156  -12.2121 N   0  0  0  0  0  0  0  0  0  0  0  0
   20.6705  -20.7015  -13.1323 C   0  0  0  0  0  0  0  0  0  0  0  0
   21.9936  -20.6530  -13.8592 C   0  0  0  0  0  0  0  0  0  0  0  0
   22.0534  -19.5599  -14.8946 C   0  0  0  0  0  0  0  0  0  0  0  0
   21.2025  -19.8077  -16.0598 C   0  0  2  0  0  0  0  0  0  0  0  0
   21.9307  -20.5125  -17.0851 N   0  0  0  0  0  0  0  0  0  0  0  0
   20.5730  -18.6177  -16.6603 C   0  0  0  0  0  0  0  0  0  0  0  0
   21.1914  -18.0226  -17.5752 O   0  0  0  0  0  0  0  0  0  0  0  0
   20.3376  -23.9728  -10.7989 N   0  0  0  0  0  0  0  0  0  0  0  0
   19.3196  -18.1071  -16.2709 C   0  0  2  0  0  0  0  0  0  0  0  0
   18.5572  -17.1179  -17.0475 C   0  0  0  0  0  0  0  0  0  0  0  0
   18.5526  -17.4382  -18.4908 C   0  0  0  0  0  0  0  0  0  0  0  0
   17.8234  -16.4198  -19.2695 C   0  0  0  0  0  0  0  0  0  0  0  0
   17.6805  -15.0693  -19.0616 N   0  0  0  0  0  0  0  0  0  0  0  0
   17.0077  -14.5151  -20.0884 C   0  0  0  0  0  0  0  0  0  0  0  0
   16.7161  -15.4881  -20.9557 N   0  0  0  0  0  0  0  0  0  0  0  0
   17.2009  -16.6400  -20.4769 C   0  0  0  0  0  0  0  0  0  0  0  0
   17.1369  -17.2024  -16.5727 O   0  0  0  0  0  0  0  0  0  0  0  0
   16.1201  -16.5537  -17.1653 O   0  0  0  0  0  0  0  0  0  0  0  0
  2  3  2  0
  2  1  1  0
  4  2  1  0
  5  4  1  0
  6  5  1  0
  6  7  1  6
  8  9  2  0
  8  6  1  0
 10 11  1  0
 11 12  2  0
 13 11  1  0
 13 14  1  0
 14 15  1  0
 15 16  1  0
 17 16  1  1
 17 18  1  0
 18  8  1  0
 19 21  1  0
 19 17  1  0
 20 19  2  0
 22 21  1  0
 22 29  1  0
 23 24  1  0
 22 23  1  6
 24 25  2  0
 25 26  1  0
 27 26  1  0
 28 24  1  0
 28 27  2  0
 29 30  1  0
 31 29  2  0
M  END
$$$$
