QRH.pdb
     RDKit          3D

 31 31  0  0  1  0  0  0  0  0999 V2000
   27.2161  -22.1351  -16.8028 N   0  0  0  0  0  0  0  0  0  0  0  0
   27.2691  -23.2484  -15.9100 C   0  0  0  0  0  0  0  0  0  0  0  0
   28.1636  -24.1040  -16.0679 O   0  0  0  0  0  0  0  0  0  0  0  0
   26.2855  -23.4009  -14.8091 C   0  0  0  0  0  0  0  0  0  0  0  0
   25.3803  -22.2071  -14.7856 C   0  0  0  0  0  0  0  0  0  0  0  0
   25.7638  -21.2110  -13.7088 C   0  0  2  0  0  0  0  0  0  0  0  0
   25.5602  -21.7302  -12.3879 N   0  0  0  0  0  0  0  0  0  0  0  0
   24.8188  -20.0519  -13.8912 C   0  0  0  0  0  0  0  0  0  0  0  0
   23.8560  -19.8726  -13.1071 O   0  0  0  0  0  0  0  0  0  0  0  0
   28.0155  -13.1545  -16.9306 N   0  0  0  0  0  0  0  0  0  0  0  0
   26.7237  -13.6144  -17.3000 C   0  0  0  0  0  0  0  0  0  0  0  0
   26.0893  -13.0587  -18.2884 N   0  0  0  0  0  0  0  0  0  0  0  0
   26.1187  -14.6842  -16.5879 N   0  0  0  0  0  0  0  0  0  0  0  0
   26.7664  -15.2517  -15.4265 C   0  0  0  0  0  0  0  0  0  0  0  0
   25.9152  -16.3324  -14.8031 C   0  0  0  0  0  0  0  0  0  0  0  0
   24.8755  -16.8772  -15.7479 C   0  0  0  0  0  0  0  0  0  0  0  0
   24.1225  -18.0084  -15.2034 C   0  0  2  0  0  0  0  0  0  0  0  0
   24.9925  -19.1308  -14.9547 N   0  0  0  0  0  0  0  0  0  0  0  0
   22.9783  -18.4673  -16.0118 C   0  0  0  0  0  0  0  0  0  0  0  0
   23.1709  -19.3988  -16.8296 O   0  0  0  0  0  0  0  0  0  0  0  0
   25.1662  -13.3747  -18.6156 N   0  0  0  0  0  0  0  0  0  0  0  0
   21.6816  -17.9250  -15.9228 C   0  0  2  0  0  0  0  0  0  0  0  0
   20.4491  -18.7081  -16.0970 C   0  0  0  0  0  0  0  0  0  0  0  0
   20.3483  -19.8012  -15.1068 C   0  0  0  0  0  0  0  0  0  0  0  0
   19.1170  -20.5909  -15.2948 C   0  0  0  0  0  0  0  0  0  0  0  0
   18.6488  -21.2674  -16.3950 N   0  0  0  0  0  0  0  0  0  0  0  0
   17.5227  -21.9353  -16.0788 C   0  0  0  0  0  0  0  0  0  0  0  0
   17.2591  -21.7007  -14.7907 N   0  0  0  0  0  0  0  0  0  0  0  0
   18.2098  -20.8936  -14.3051 C   0  0  0  0  0  0  0  0  0  0  0  0
   19.3062  -17.7719  -15.8378 O   0  0  0  0  0  0  0  0  0  0  0  0
   19.4692  -16.4706  -15.5444 O   0  0  0  0  0  0  0  0  0  0  0  0
  2  3  2  0
  2  1  1  0
  4  2  1  0
  5  4  1  0
  6  5  1  0
  6  7  1  1
  8  9  2  0
  8  6  1  0
 10 11  1  0
 11 12  2  0
 13 11  1  0
 13 14  1  0
 14 15  1  0
 15 16  1  0
 17 16  1  6
 17 18  1  0
 18  8  1  0
 19 21  1  0
 19 17  1  0
 20 19  2  0
 22 21  1  0
 22 29  1  0
 23 24  1  0
 22 23  1  1
 24 25  2  0
 25 26  1  0
 27 26  1  0
 28 24  1  0
 28 27  2  0
 29 30  1  0
 31 29  2  0
M  END
$$$$
