QRH.pdb
     RDKit          3D

 31 31  0  0  1  0  0  0  0  0999 V2000
   18.2344  -23.2135  -11.0336 N   0  0  0  0  0  0  0  0  0  0  0  0
   18.6770  -22.7631  -12.3145 C   0  0  0  0  0  0  0  0  0  0  0  0
   18.8593  -21.5416  -12.4925 O   0  0  0  0  0  0  0  0  0  0  0  0
   18.9201  -23.7170  -13.4251 C   0  0  0  0  0  0  0  0  0  0  0  0
   18.7202  -25.1164  -12.9280 C   0  0  0  0  0  0  0  0  0  0  0  0
   19.6696  -26.1031  -13.5791 C   0  0  2  0  0  0  0  0  0  0  0  0
   19.3299  -26.3653  -14.9471 N   0  0  0  0  0  0  0  0  0  0  0  0
   19.4880  -27.3874  -12.8126 C   0  0  0  0  0  0  0  0  0  0  0  0
   18.3515  -27.8978  -12.6655 O   0  0  0  0  0  0  0  0  0  0  0  0
   23.7287  -32.4463   -8.2142 N   0  0  0  0  0  0  0  0  0  0  0  0
   23.1814  -33.5477   -8.9241 C   0  0  0  0  0  0  0  0  0  0  0  0
   22.9530  -34.6715   -8.3133 N   0  0  0  0  0  0  0  0  0  0  0  0
   22.8828  -33.4251  -10.3074 N   0  0  0  0  0  0  0  0  0  0  0  0
   22.9907  -32.1449  -10.9707 C   0  0  0  0  0  0  0  0  0  0  0  0
   21.7213  -31.3419  -10.8124 C   0  0  0  0  0  0  0  0  0  0  0  0
   21.7170  -30.0835  -11.6411 C   0  0  0  0  0  0  0  0  0  0  0  0
   20.5034  -29.2803  -11.4827 C   0  0  2  0  0  0  0  0  0  0  0  0
   20.5981  -28.0551  -12.2367 N   0  0  0  0  0  0  0  0  0  0  0  0
   20.1254  -28.9538  -10.0958 C   0  0  0  0  0  0  0  0  0  0  0  0
   20.8239  -28.1156   -9.4768 O   0  0  0  0  0  0  0  0  0  0  0  0
   22.5395  -35.4920   -8.7768 N   0  0  0  0  0  0  0  0  0  0  0  0
   19.0282  -29.5243   -9.4221 C   0  0  1  0  0  0  0  0  0  0  0  0
   18.6798  -29.2326   -8.0234 C   0  0  0  0  0  0  0  0  0  0  0  0
   17.4998  -28.3476   -7.9244 C   0  0  0  0  0  0  0  0  0  0  0  0
   17.8675  -26.9313   -8.1091 C   0  0  0  0  0  0  0  0  0  0  0  0
   19.0799  -26.3535   -8.3981 N   0  0  0  0  0  0  0  0  0  0  0  0
   18.9261  -25.0272   -8.5754 C   0  0  0  0  0  0  0  0  0  0  0  0
   17.6323  -24.7419   -8.4065 N   0  0  0  0  0  0  0  0  0  0  0  0
   16.9824  -25.8776   -8.1257 C   0  0  0  0  0  0  0  0  0  0  0  0
   18.3038  -30.5408   -7.3935 O   0  0  0  0  0  0  0  0  0  0  0  0
   18.0383  -30.6808   -6.0835 O   0  0  0  0  0  0  0  0  0  0  0  0
  2  3  2  0
  2  1  1  0
  4  2  1  0
  5  4  1  0
  6  5  1  0
  6  7  1  6
  8  9  2  0
  8  6  1  0
 10 11  1  0
 11 12  2  0
 13 11  1  0
 13 14  1  0
 14 15  1  0
 15 16  1  0
 17 16  1  1
 17 18  1  0
 18  8  1  0
 19 21  1  0
 19 17  1  0
 20 19  2  0
 22 21  1  0
 22 29  1  0
 23 24  1  0
 22 23  1  1
 24 25  2  0
 25 26  1  0
 27 26  1  0
 28 24  1  0
 28 27  2  0
 29 30  1  0
 31 29  2  0
M  END
$$$$
