QRH.pdb
     RDKit          3D

 31 31  0  0  1  0  0  0  0  0999 V2000
   12.8608  -10.7114   -7.4652 N   0  0  0  0  0  0  0  0  0  0  0  0
   12.0845  -10.1794   -8.5393 C   0  0  0  0  0  0  0  0  0  0  0  0
   10.8541  -10.3869   -8.5524 O   0  0  0  0  0  0  0  0  0  0  0  0
   12.7137   -9.3921   -9.6287 C   0  0  0  0  0  0  0  0  0  0  0  0
   14.1836   -9.2695   -9.3651 C   0  0  0  0  0  0  0  0  0  0  0  0
   15.0187  -10.0256  -10.3799 C   0  0  2  0  0  0  0  0  0  0  0  0
   15.1340  -11.4189  -10.0618 N   0  0  0  0  0  0  0  0  0  0  0  0
   16.3961   -9.4228  -10.2827 C   0  0  0  0  0  0  0  0  0  0  0  0
   17.3884  -10.1237   -9.9701 O   0  0  0  0  0  0  0  0  0  0  0  0
   22.8012  -10.2355  -14.0412 N   0  0  0  0  0  0  0  0  0  0  0  0
   22.6867   -8.8824  -14.4567 C   0  0  0  0  0  0  0  0  0  0  0  0
   23.6259   -8.3347  -15.1680 N   0  0  0  0  0  0  0  0  0  0  0  0
   21.5435   -8.1211  -14.0942 N   0  0  0  0  0  0  0  0  0  0  0  0
   20.5186   -8.6930  -13.2499 C   0  0  0  0  0  0  0  0  0  0  0  0
   19.3695   -7.7309  -13.0622 C   0  0  0  0  0  0  0  0  0  0  0  0
   18.2278   -8.3274  -12.2805 C   0  0  0  0  0  0  0  0  0  0  0  0
   17.8057   -7.5103  -11.1416 C   0  0  2  0  0  0  0  0  0  0  0  0
   16.6083   -8.0455  -10.5430 N   0  0  0  0  0  0  0  0  0  0  0  0
   17.5950   -6.0783  -11.4212 C   0  0  0  0  0  0  0  0  0  0  0  0
   16.8273   -5.7691  -12.3639 O   0  0  0  0  0  0  0  0  0  0  0  0
   23.5459   -7.3958  -15.5817 N   0  0  0  0  0  0  0  0  0  0  0  0
   18.2019   -5.0352  -10.6953 C   0  0  1  0  0  0  0  0  0  0  0  0
   17.9048   -3.6095  -10.9002 C   0  0  0  0  0  0  0  0  0  0  0  0
   17.6307   -2.9166   -9.6234 C   0  0  0  0  0  0  0  0  0  0  0  0
   16.3285   -3.3169   -9.0583 C   0  0  0  0  0  0  0  0  0  0  0  0
   16.0294   -4.0585   -7.9412 N   0  0  0  0  0  0  0  0  0  0  0  0
   14.6960   -4.0888   -7.7534 C   0  0  0  0  0  0  0  0  0  0  0  0
   14.1314   -3.3763   -8.7318 N   0  0  0  0  0  0  0  0  0  0  0  0
   15.1010   -2.9050   -9.5249 C   0  0  0  0  0  0  0  0  0  0  0  0
   19.1431   -2.9925  -11.4796 O   0  0  0  0  0  0  0  0  0  0  0  0
   19.2303   -1.6969  -11.8261 O   0  0  0  0  0  0  0  0  0  0  0  0
  2  3  2  0
  2  1  1  0
  4  2  1  0
  5  4  1  0
  6  5  1  0
  6  7  1  1
  8  9  2  0
  8  6  1  0
 10 11  1  0
 11 12  2  0
 13 11  1  0
 13 14  1  0
 14 15  1  0
 15 16  1  0
 17 16  1  6
 17 18  1  0
 18  8  1  0
 19 21  1  0
 19 17  1  0
 20 19  2  0
 22 21  1  0
 22 29  1  0
 23 24  1  0
 22 23  1  1
 24 25  2  0
 25 26  1  0
 27 26  1  0
 28 24  1  0
 28 27  2  0
 29 30  1  0
 31 29  2  0
M  END
$$$$
