QRH.pdb
     RDKit          3D

 31 31  0  0  1  0  0  0  0  0999 V2000
   27.4270  -17.1532  -18.9500 N   0  0  0  0  0  0  0  0  0  0  0  0
   28.8048  -17.5141  -19.0551 C   0  0  0  0  0  0  0  0  0  0  0  0
   29.5723  -16.7750  -19.7045 O   0  0  0  0  0  0  0  0  0  0  0  0
   29.3310  -18.7428  -18.4101 C   0  0  0  0  0  0  0  0  0  0  0  0
   28.2404  -19.3871  -17.6096 C   0  0  0  0  0  0  0  0  0  0  0  0
   28.6999  -20.6588  -16.9237 C   0  0  2  0  0  0  0  0  0  0  0  0
   29.1422  -21.6530  -17.8574 N   0  0  0  0  0  0  0  0  0  0  0  0
   27.4739  -21.1982  -16.2338 C   0  0  0  0  0  0  0  0  0  0  0  0
   27.2046  -22.4233  -16.2574 O   0  0  0  0  0  0  0  0  0  0  0  0
   25.4426  -20.2071   -8.9555 N   0  0  0  0  0  0  0  0  0  0  0  0
   24.5710  -20.8591   -9.8675 C   0  0  0  0  0  0  0  0  0  0  0  0
   23.2868  -20.6788   -9.7878 N   0  0  0  0  0  0  0  0  0  0  0  0
   25.1008  -21.7136  -10.8709 N   0  0  0  0  0  0  0  0  0  0  0  0
   26.5063  -21.6674  -11.2069 C   0  0  0  0  0  0  0  0  0  0  0  0
   26.7232  -21.0070  -12.5479 C   0  0  0  0  0  0  0  0  0  0  0  0
   25.9912  -21.7004  -13.6676 C   0  0  0  0  0  0  0  0  0  0  0  0
   25.5051  -20.7886  -14.7046 C   0  0  2  0  0  0  0  0  0  0  0  0
   26.5907  -20.3350  -15.5377 N   0  0  0  0  0  0  0  0  0  0  0  0
   24.7534  -19.6141  -14.2266 C   0  0  0  0  0  0  0  0  0  0  0  0
   25.4057  -18.6167  -13.8352 O   0  0  0  0  0  0  0  0  0  0  0  0
   22.6099  -21.1651  -10.3915 N   0  0  0  0  0  0  0  0  0  0  0  0
   23.3476  -19.5418  -14.1823 C   0  0  2  0  0  0  0  0  0  0  0  0
   22.5384  -18.7055  -15.0816 C   0  0  0  0  0  0  0  0  0  0  0  0
   22.9770  -18.8277  -16.4881 C   0  0  0  0  0  0  0  0  0  0  0  0
   22.1844  -17.9610  -17.3802 C   0  0  0  0  0  0  0  0  0  0  0  0
   21.2521  -16.9946  -17.0900 N   0  0  0  0  0  0  0  0  0  0  0  0
   20.8545  -16.3848  -18.2231 C   0  0  0  0  0  0  0  0  0  0  0  0
   21.5179  -16.9427  -19.2393 N   0  0  0  0  0  0  0  0  0  0  0  0
   22.3223  -17.8927  -18.7478 C   0  0  0  0  0  0  0  0  0  0  0  0
   21.1357  -19.2319  -15.0100 O   0  0  0  0  0  0  0  0  0  0  0  0
   20.1003  -18.6652  -15.6525 O   0  0  0  0  0  0  0  0  0  0  0  0
  2  3  2  0
  2  1  1  0
  4  2  1  0
  5  4  1  0
  6  5  1  0
  6  7  1  6
  8  9  2  0
  8  6  1  0
 10 11  1  0
 11 12  2  0
 13 11  1  0
 13 14  1  0
 14 15  1  0
 15 16  1  0
 17 16  1  1
 17 18  1  0
 18  8  1  0
 19 21  1  0
 19 17  1  0
 20 19  2  0
 22 21  1  0
 22 29  1  0
 23 24  1  0
 22 23  1  6
 24 25  2  0
 25 26  1  0
 27 26  1  0
 28 24  1  0
 28 27  2  0
 29 30  1  0
 31 29  2  0
M  END
$$$$
