QRH.pdb
     RDKit          3D

 31 31  0  0  1  0  0  0  0  0999 V2000
   29.3124  -18.1519  -18.1738 N   0  0  0  0  0  0  0  0  0  0  0  0
   29.1126  -17.8599  -19.5574 C   0  0  0  0  0  0  0  0  0  0  0  0
   30.0953  -17.5247  -20.2494 O   0  0  0  0  0  0  0  0  0  0  0  0
   27.7668  -17.9480  -20.1770 C   0  0  0  0  0  0  0  0  0  0  0  0
   26.7893  -18.4639  -19.1654 C   0  0  0  0  0  0  0  0  0  0  0  0
   26.9442  -19.9516  -18.9170 C   0  0  2  0  0  0  0  0  0  0  0  0
   26.5118  -20.7390  -20.0345 N   0  0  0  0  0  0  0  0  0  0  0  0
   26.0228  -20.2557  -17.7644 C   0  0  0  0  0  0  0  0  0  0  0  0
   24.7922  -20.4187  -17.9455 O   0  0  0  0  0  0  0  0  0  0  0  0
   26.1172  -19.5386   -9.6238 N   0  0  0  0  0  0  0  0  0  0  0  0
   25.3956  -20.7616   -9.6411 C   0  0  0  0  0  0  0  0  0  0  0  0
   24.3710  -20.9279   -8.8597 N   0  0  0  0  0  0  0  0  0  0  0  0
   25.7931  -21.8100  -10.5133 N   0  0  0  0  0  0  0  0  0  0  0  0
   26.6000  -21.5281  -11.6794 C   0  0  0  0  0  0  0  0  0  0  0  0
   25.7383  -21.1237  -12.8520 C   0  0  0  0  0  0  0  0  0  0  0  0
   26.5162  -21.0037  -14.1368 C   0  0  0  0  0  0  0  0  0  0  0  0
   25.6984  -20.6034  -15.2832 C   0  0  2  0  0  0  0  0  0  0  0  0
   26.5224  -20.3666  -16.4423 N   0  0  0  0  0  0  0  0  0  0  0  0
   24.8287  -19.4317  -15.0742 C   0  0  0  0  0  0  0  0  0  0  0  0
   25.2647  -18.3061  -15.4156 O   0  0  0  0  0  0  0  0  0  0  0  0
   23.8472  -21.8114   -8.7959 N   0  0  0  0  0  0  0  0  0  0  0  0
   23.5378  -19.4972  -14.5149 C   0  0  1  0  0  0  0  0  0  0  0  0
   22.3874  -18.7260  -15.0092 C   0  0  0  0  0  0  0  0  0  0  0  0
   22.6361  -18.1713  -16.3568 C   0  0  0  0  0  0  0  0  0  0  0  0
   21.4639  -17.4338  -16.8642 C   0  0  0  0  0  0  0  0  0  0  0  0
   20.3461  -16.9745  -16.2109 N   0  0  0  0  0  0  0  0  0  0  0  0
   19.5785  -16.2630  -17.0586 C   0  0  0  0  0  0  0  0  0  0  0  0
   20.1858  -16.2556  -18.2482 N   0  0  0  0  0  0  0  0  0  0  0  0
   21.3219  -16.9558  -18.1468 C   0  0  0  0  0  0  0  0  0  0  0  0
   21.2459  -19.6910  -15.1336 O   0  0  0  0  0  0  0  0  0  0  0  0
   21.3953  -21.0248  -15.0654 O   0  0  0  0  0  0  0  0  0  0  0  0
  2  3  2  0
  2  1  1  0
  4  2  1  0
  5  4  1  0
  6  5  1  0
  6  7  1  6
  8  9  2  0
  8  6  1  0
 10 11  1  0
 11 12  2  0
 13 11  1  0
 13 14  1  0
 14 15  1  0
 15 16  1  0
 17 16  1  1
 17 18  1  0
 18  8  1  0
 19 21  1  0
 19 17  1  0
 20 19  2  0
 22 21  1  0
 22 29  1  0
 23 24  1  0
 22 23  1  6
 24 25  2  0
 25 26  1  0
 27 26  1  0
 28 24  1  0
 28 27  2  0
 29 30  1  0
 31 29  2  0
M  END
$$$$
