QRH.pdb
     RDKit          3D

 31 31  0  0  1  0  0  0  0  0999 V2000
   22.9278   -9.2217  -14.0740 N   0  0  0  0  0  0  0  0  0  0  0  0
   22.0917   -8.1443  -14.4976 C   0  0  0  0  0  0  0  0  0  0  0  0
   22.5065   -6.9745  -14.3689 O   0  0  0  0  0  0  0  0  0  0  0  0
   20.7504   -8.3935  -15.0821 C   0  0  0  0  0  0  0  0  0  0  0  0
   20.4686   -9.8650  -15.0639 C   0  0  0  0  0  0  0  0  0  0  0  0
   19.1062  -10.2005  -15.6387 C   0  0  2  0  0  0  0  0  0  0  0  0
   18.9889   -9.8264  -17.0178 N   0  0  0  0  0  0  0  0  0  0  0  0
   18.1316   -9.3594  -14.8561 C   0  0  0  0  0  0  0  0  0  0  0  0
   17.6107   -8.3354  -15.3599 O   0  0  0  0  0  0  0  0  0  0  0  0
   12.3207  -12.6449   -9.6768 N   0  0  0  0  0  0  0  0  0  0  0  0
   12.5613  -12.4376  -11.0609 C   0  0  0  0  0  0  0  0  0  0  0  0
   12.0690  -13.2573  -11.9405 N   0  0  0  0  0  0  0  0  0  0  0  0
   13.3440  -11.3324  -11.4893 N   0  0  0  0  0  0  0  0  0  0  0  0
   13.9723  -10.4597  -10.5229 C   0  0  0  0  0  0  0  0  0  0  0  0
   14.8385   -9.4273  -11.2051 C   0  0  0  0  0  0  0  0  0  0  0  0
   15.9205  -10.0402  -12.0558 C   0  0  0  0  0  0  0  0  0  0  0  0
   16.7290   -9.0556  -12.7769 C   0  0  2  0  0  0  0  0  0  0  0  0
   17.7756   -9.7033  -13.5276 N   0  0  0  0  0  0  0  0  0  0  0  0
   17.3280   -7.9894  -11.9539 C   0  0  0  0  0  0  0  0  0  0  0  0
   18.2837   -8.2936  -11.2004 O   0  0  0  0  0  0  0  0  0  0  0  0
   12.2010  -13.1431  -12.9547 N   0  0  0  0  0  0  0  0  0  0  0  0
   16.8941   -6.6496  -11.9610 C   0  0  2  0  0  0  0  0  0  0  0  0
   17.4591   -5.5977  -11.1025 C   0  0  0  0  0  0  0  0  0  0  0  0
   16.7291   -4.3203  -11.2463 C   0  0  0  0  0  0  0  0  0  0  0  0
   17.3229   -3.2597  -10.4109 C   0  0  0  0  0  0  0  0  0  0  0  0
   18.5076   -3.2278   -9.7162 N   0  0  0  0  0  0  0  0  0  0  0  0
   18.6881   -2.0093   -9.1714 C   0  0  0  0  0  0  0  0  0  0  0  0
   17.6379   -1.2549   -9.5059 N   0  0  0  0  0  0  0  0  0  0  0  0
   16.8079   -1.9934  -10.2521 C   0  0  0  0  0  0  0  0  0  0  0  0
   17.2732   -6.0545   -9.6860 O   0  0  0  0  0  0  0  0  0  0  0  0
   18.2354   -5.9738   -8.7513 O   0  0  0  0  0  0  0  0  0  0  0  0
  2  3  2  0
  2  1  1  0
  4  2  1  0
  5  4  1  0
  6  5  1  0
  6  7  1  6
  8  9  2  0
  8  6  1  0
 10 11  1  0
 11 12  2  0
 13 11  1  0
 13 14  1  0
 14 15  1  0
 15 16  1  0
 17 16  1  1
 17 18  1  0
 18  8  1  0
 19 21  1  0
 19 17  1  0
 20 19  2  0
 22 21  1  0
 22 29  1  0
 23 24  1  0
 22 23  1  6
 24 25  2  0
 25 26  1  0
 27 26  1  0
 28 24  1  0
 28 27  2  0
 29 30  1  0
 31 29  2  0
M  END
$$$$
