QRH.pdb
     RDKit          3D

 31 31  0  0  1  0  0  0  0  0999 V2000
   30.1445  -20.5581  -19.1973 N   0  0  0  0  0  0  0  0  0  0  0  0
   29.0210  -20.7209  -20.0636 C   0  0  0  0  0  0  0  0  0  0  0  0
   29.2108  -20.7454  -21.2967 O   0  0  0  0  0  0  0  0  0  0  0  0
   27.6454  -20.8596  -19.5240 C   0  0  0  0  0  0  0  0  0  0  0  0
   27.6848  -20.7354  -18.0312 C   0  0  0  0  0  0  0  0  0  0  0  0
   27.8277  -22.0785  -17.3423 C   0  0  2  0  0  0  0  0  0  0  0  0
   27.3719  -23.1631  -18.1619 N   0  0  0  0  0  0  0  0  0  0  0  0
   26.9191  -22.0036  -16.1429 C   0  0  0  0  0  0  0  0  0  0  0  0
   26.0034  -22.8438  -15.9714 O   0  0  0  0  0  0  0  0  0  0  0  0
   23.1672  -20.9201  -10.6636 N   0  0  0  0  0  0  0  0  0  0  0  0
   23.9508  -20.9817   -9.4809 C   0  0  0  0  0  0  0  0  0  0  0  0
   23.3827  -21.1793   -8.3292 N   0  0  0  0  0  0  0  0  0  0  0  0
   25.3608  -20.8255   -9.5526 N   0  0  0  0  0  0  0  0  0  0  0  0
   26.0787  -21.1852  -10.7550 C   0  0  0  0  0  0  0  0  0  0  0  0
   26.2807  -19.9836  -11.6475 C   0  0  0  0  0  0  0  0  0  0  0  0
   27.0864  -20.2991  -12.8811 C   0  0  0  0  0  0  0  0  0  0  0  0
   26.2959  -20.8861  -13.9645 C   0  0  2  0  0  0  0  0  0  0  0  0
   27.0750  -20.9806  -15.1738 N   0  0  0  0  0  0  0  0  0  0  0  0
   25.0245  -20.2068  -14.2731 C   0  0  0  0  0  0  0  0  0  0  0  0
   25.0670  -18.9948  -14.5937 O   0  0  0  0  0  0  0  0  0  0  0  0
   23.9002  -21.1952   -7.4398 N   0  0  0  0  0  0  0  0  0  0  0  0
   23.7644  -20.8343  -14.2306 C   0  0  2  0  0  0  0  0  0  0  0  0
   22.5018  -20.1683  -14.5846 C   0  0  0  0  0  0  0  0  0  0  0  0
   22.0160  -19.2968  -13.4938 C   0  0  0  0  0  0  0  0  0  0  0  0
   21.0707  -20.0075  -12.6125 C   0  0  0  0  0  0  0  0  0  0  0  0
   20.6798  -21.3245  -12.5987 N   0  0  0  0  0  0  0  0  0  0  0  0
   19.8682  -21.5518  -11.5482 C   0  0  0  0  0  0  0  0  0  0  0  0
   19.7315  -20.4013  -10.8837 N   0  0  0  0  0  0  0  0  0  0  0  0
   20.4495  -19.4627  -11.5119 C   0  0  0  0  0  0  0  0  0  0  0  0
   22.7988  -19.2821  -15.7577 O   0  0  0  0  0  0  0  0  0  0  0  0
   23.9994  -18.7176  -15.9718 O   0  0  0  0  0  0  0  0  0  0  0  0
  2  3  2  0
  2  1  1  0
  4  2  1  0
  5  4  1  0
  6  5  1  0
  6  7  1  6
  8  9  2  0
  8  6  1  0
 10 11  1  0
 11 12  2  0
 13 11  1  0
 13 14  1  0
 14 15  1  0
 15 16  1  0
 17 16  1  1
 17 18  1  0
 18  8  1  0
 19 21  1  0
 19 17  1  0
 20 19  2  0
 22 21  1  0
 22 29  1  0
 23 24  1  0
 22 23  1  6
 24 25  2  0
 25 26  1  0
 27 26  1  0
 28 24  1  0
 28 27  2  0
 29 30  1  0
 31 29  2  0
M  END
$$$$
