QRH.pdb
     RDKit          3D

 31 31  0  0  1  0  0  0  0  0999 V2000
   15.4771  -26.0173   -6.4142 N   0  0  0  0  0  0  0  0  0  0  0  0
   16.4182  -27.0652   -6.6502 C   0  0  0  0  0  0  0  0  0  0  0  0
   16.1774  -28.2029   -6.1979 O   0  0  0  0  0  0  0  0  0  0  0  0
   17.6654  -26.8226   -7.4172 C   0  0  0  0  0  0  0  0  0  0  0  0
   17.6879  -25.4002   -7.8878 C   0  0  0  0  0  0  0  0  0  0  0  0
   18.6926  -24.5553   -7.1290 C   0  0  2  0  0  0  0  0  0  0  0  0
   18.2218  -24.1872   -5.8257 N   0  0  0  0  0  0  0  0  0  0  0  0
   18.8307  -23.2901   -7.9353 C   0  0  0  0  0  0  0  0  0  0  0  0
   17.8876  -22.4665   -8.0134 O   0  0  0  0  0  0  0  0  0  0  0  0
   25.6750  -22.1389  -11.9051 N   0  0  0  0  0  0  0  0  0  0  0  0
   24.9700  -21.0251  -12.4335 C   0  0  0  0  0  0  0  0  0  0  0  0
   24.9039  -20.8423  -13.7181 N   0  0  0  0  0  0  0  0  0  0  0  0
   24.3349  -20.1044  -11.5579 N   0  0  0  0  0  0  0  0  0  0  0  0
   23.7416  -20.5587  -10.3202 C   0  0  0  0  0  0  0  0  0  0  0  0
   22.2858  -20.9123  -10.5129 C   0  0  0  0  0  0  0  0  0  0  0  0
   21.5996  -21.2906   -9.2259 C   0  0  0  0  0  0  0  0  0  0  0  0
   20.2419  -21.8048   -9.4135 C   0  0  2  0  0  0  0  0  0  0  0  0
   20.0320  -22.9954   -8.6280 N   0  0  0  0  0  0  0  0  0  0  0  0
   19.8464  -22.0816  -10.8063 C   0  0  0  0  0  0  0  0  0  0  0  0
   20.2447  -23.1494  -11.3305 O   0  0  0  0  0  0  0  0  0  0  0  0
   24.4237  -20.0412  -14.1503 N   0  0  0  0  0  0  0  0  0  0  0  0
   19.0485  -21.2216  -11.5855 C   0  0  2  0  0  0  0  0  0  0  0  0
   18.6975  -21.4742  -12.9911 C   0  0  0  0  0  0  0  0  0  0  0  0
   17.2739  -21.1824  -13.2627 C   0  0  0  0  0  0  0  0  0  0  0  0
   16.9026  -21.5355  -14.6457 C   0  0  0  0  0  0  0  0  0  0  0  0
   17.5894  -22.2432  -15.6021 N   0  0  0  0  0  0  0  0  0  0  0  0
   16.8182  -22.4077  -16.6940 C   0  0  0  0  0  0  0  0  0  0  0  0
   15.6439  -21.8178  -16.4550 N   0  0  0  0  0  0  0  0  0  0  0  0
   15.6794  -21.2888  -15.2261 C   0  0  0  0  0  0  0  0  0  0  0  0
   19.5083  -20.5176  -13.8140 O   0  0  0  0  0  0  0  0  0  0  0  0
   20.2783  -19.5536  -13.2812 O   0  0  0  0  0  0  0  0  0  0  0  0
  2  3  2  0
  2  1  1  0
  4  2  1  0
  5  4  1  0
  6  5  1  0
  6  7  1  1
  8  9  2  0
  8  6  1  0
 10 11  1  0
 11 12  2  0
 13 11  1  0
 13 14  1  0
 14 15  1  0
 15 16  1  0
 17 16  1  6
 17 18  1  0
 18  8  1  0
 19 21  1  0
 19 17  1  0
 20 19  2  0
 22 21  1  0
 22 29  1  0
 23 24  1  0
 22 23  1  1
 24 25  2  0
 25 26  1  0
 27 26  1  0
 28 24  1  0
 28 27  2  0
 29 30  1  0
 31 29  2  0
M  END
$$$$
