QRH.pdb
     RDKit          3D

 31 31  0  0  1  0  0  0  0  0999 V2000
   47.3091  -15.2081   -6.6121 N   0  0  0  0  0  0  0  0  0  0  0  0
   46.7763  -14.9378   -7.9092 C   0  0  0  0  0  0  0  0  0  0  0  0
   47.2724  -15.5183   -8.8962 O   0  0  0  0  0  0  0  0  0  0  0  0
   45.6533  -13.9861   -8.0981 C   0  0  0  0  0  0  0  0  0  0  0  0
   45.3208  -13.3463   -6.7846 C   0  0  0  0  0  0  0  0  0  0  0  0
   45.6694  -11.8710   -6.7547 C   0  0  2  0  0  0  0  0  0  0  0  0
   45.4272  -11.2792   -5.4714 N   0  0  0  0  0  0  0  0  0  0  0  0
   44.7277  -11.2247   -7.7372 C   0  0  0  0  0  0  0  0  0  0  0  0
   44.8260  -11.4449   -8.9683 O   0  0  0  0  0  0  0  0  0  0  0  0
   37.9578   -6.0211   -6.5261 N   0  0  0  0  0  0  0  0  0  0  0  0
   38.0886   -6.1680   -7.9325 C   0  0  0  0  0  0  0  0  0  0  0  0
   37.8968   -5.1505   -8.7173 N   0  0  0  0  0  0  0  0  0  0  0  0
   38.4287   -7.4307   -8.4874 N   0  0  0  0  0  0  0  0  0  0  0  0
   39.2392   -8.3662   -7.7403 C   0  0  0  0  0  0  0  0  0  0  0  0
   40.6337   -8.4560   -8.3135 C   0  0  0  0  0  0  0  0  0  0  0  0
   41.5174   -9.4138   -7.5571 C   0  0  0  0  0  0  0  0  0  0  0  0
   42.8265   -9.6207   -8.1788 C   0  0  2  0  0  0  0  0  0  0  0  0
   43.7031  -10.3497   -7.2964 N   0  0  0  0  0  0  0  0  0  0  0  0
   43.5209   -8.4030   -8.6349 C   0  0  0  0  0  0  0  0  0  0  0  0
   43.9787   -7.6248   -7.7639 O   0  0  0  0  0  0  0  0  0  0  0  0
   37.9650   -5.2076   -9.7425 N   0  0  0  0  0  0  0  0  0  0  0  0
   43.7027   -8.0586   -9.9883 C   0  0  2  0  0  0  0  0  0  0  0  0
   44.2666   -6.7786  -10.4426 C   0  0  0  0  0  0  0  0  0  0  0  0
   44.6964   -6.8384  -11.8557 C   0  0  0  0  0  0  0  0  0  0  0  0
   45.2884   -5.5615  -12.2967 C   0  0  0  0  0  0  0  0  0  0  0  0
   45.8350   -4.5320  -11.5697 N   0  0  0  0  0  0  0  0  0  0  0  0
   46.3464   -3.6036  -12.4007 C   0  0  0  0  0  0  0  0  0  0  0  0
   46.1389   -4.0203  -13.6526 N   0  0  0  0  0  0  0  0  0  0  0  0
   45.5035   -5.1973  -13.6063 C   0  0  0  0  0  0  0  0  0  0  0  0
   43.1598   -5.7695  -10.3609 O   0  0  0  0  0  0  0  0  0  0  0  0
   41.9580   -5.9430  -10.9368 O   0  0  0  0  0  0  0  0  0  0  0  0
  2  3  2  0
  2  1  1  0
  4  2  1  0
  5  4  1  0
  6  5  1  0
  6  7  1  1
  8  9  2  0
  8  6  1  0
 10 11  1  0
 11 12  2  0
 13 11  1  0
 13 14  1  0
 14 15  1  0
 15 16  1  0
 17 16  1  1
 17 18  1  0
 18  8  1  0
 19 21  1  0
 19 17  1  0
 20 19  2  0
 22 21  1  0
 22 29  1  0
 23 24  1  0
 22 23  1  6
 24 25  2  0
 25 26  1  0
 27 26  1  0
 28 24  1  0
 28 27  2  0
 29 30  1  0
 31 29  2  0
M  END
$$$$
