LMY.pdb
     RDKit          3D

 29 29  0  0  1  0  0  0  0  0999 V2000
   27.2417  -20.4332  -19.6697 C   0  0  0  0  0  0  0  0  0  0  0  0
   27.9689  -21.4602  -18.8542 C   0  0  2  0  0  0  0  0  0  0  0  0
   28.0910  -22.7236  -19.7177 C   0  0  0  0  0  0  0  0  0  0  0  0
   27.2190  -21.8768  -17.6072 C   0  0  0  0  0  0  0  0  0  0  0  0
   27.2346  -20.7704  -16.5890 C   0  0  2  0  0  0  0  0  0  0  0  0
   28.1676  -19.7559  -16.9750 N   0  0  0  0  0  0  0  0  0  0  0  0
   27.4867  -21.2462  -15.2188 C   0  0  0  0  0  0  0  0  0  0  0  0
   26.8136  -22.2375  -14.8035 O   0  0  0  0  0  0  0  0  0  0  0  0
   32.2516  -22.9750   -9.9495 C   0  0  0  0  0  0  0  0  0  0  0  0
   31.5948  -21.3167  -10.3367 S   0  0  0  0  0  0  0  0  0  0  0  0
   29.9299  -21.4351  -10.9972 C   0  0  0  0  0  0  0  0  0  0  0  0
   29.9205  -20.9162  -12.4126 C   0  0  0  0  0  0  0  0  0  0  0  0
   28.5323  -21.1324  -12.9937 C   0  0  2  0  0  0  0  0  0  0  0  0
   28.4301  -20.6651  -14.3440 N   0  0  0  0  0  0  0  0  0  0  0  0
   27.6100  -20.3337  -12.1289 C   0  0  0  0  0  0  0  0  0  0  0  0
   27.5988  -19.1053  -12.2456 O   0  0  0  0  0  0  0  0  0  0  0  0
   21.3580  -22.1370  -14.4995 O   0  0  0  0  0  0  0  0  0  0  0  0
   22.2304  -21.4532  -13.6492 C   0  0  0  0  0  0  0  0  0  0  0  0
   21.9951  -21.3328  -12.2989 C   0  0  0  0  0  0  0  0  0  0  0  0
   22.8587  -20.6574  -11.4642 C   0  0  0  0  0  0  0  0  0  0  0  0
   24.0270  -20.0552  -11.9503 C   0  0  0  0  0  0  0  0  0  0  0  0
   24.9331  -19.3071  -11.0549 C   0  0  0  0  0  0  0  0  0  0  0  0
   25.8305  -20.2237  -10.3216 C   0  0  2  0  0  0  0  0  0  0  0  0
   26.7554  -20.9345  -11.1887 N   0  0  0  0  0  0  0  0  0  0  0  0
   25.1288  -21.1547   -9.4099 C   0  0  0  0  0  0  0  0  0  0  0  0
   24.3295  -20.6938   -8.5126 O   0  0  0  0  0  0  0  0  0  0  0  0
   24.2355  -20.1929  -13.3082 C   0  0  0  0  0  0  0  0  0  0  0  0
   23.3753  -20.8675  -14.1486 C   0  0  0  0  0  0  0  0  0  0  0  0
   25.2899  -22.5287   -9.4750 O   0  0  0  0  0  0  0  0  0  0  0  0
  2  1  1  6
  3  2  1  0
  4  2  1  0
  4  5  1  0
  5  6  1  6
  7  5  1  0
  7  8  2  0
  9 10  1  0
 10 11  1  0
 11 12  1  0
 13 12  1  1
 13 14  1  0
 14  7  1  0
 15 13  1  0
 16 15  2  0
 18 17  1  0
 19 18  2  0
 20 19  1  0
 21 27  1  0
 21 20  2  0
 22 21  1  0
 23 22  1  6
 23 24  1  0
 24 15  1  0
 25 23  1  0
 26 25  2  0
 27 28  2  0
 28 18  1  0
 29 25  1  0
M  END
$$$$
