LMY.pdb
     RDKit          3D

 29 29  0  0  1  0  0  0  0  0999 V2000
   24.2337  -17.7153  -16.0203 C   0  0  0  0  0  0  0  0  0  0  0  0
   25.5920  -17.1553  -15.7204 C   0  0  2  0  0  0  0  0  0  0  0  0
   26.1924  -18.0000  -14.5877 C   0  0  0  0  0  0  0  0  0  0  0  0
   25.5539  -15.7323  -15.2059 C   0  0  0  0  0  0  0  0  0  0  0  0
   25.0048  -14.8070  -16.2563 C   0  0  2  0  0  0  0  0  0  0  0  0
   25.7235  -14.9696  -17.4834 N   0  0  0  0  0  0  0  0  0  0  0  0
   24.9723  -13.3985  -15.8293 C   0  0  0  0  0  0  0  0  0  0  0  0
   24.4688  -13.1355  -14.6955 O   0  0  0  0  0  0  0  0  0  0  0  0
   30.4344  -10.0315  -17.7277 C   0  0  0  0  0  0  0  0  0  0  0  0
   28.7405   -9.3585  -17.6326 S   0  0  0  0  0  0  0  0  0  0  0  0
   27.6589  -10.4915  -16.7559 C   0  0  0  0  0  0  0  0  0  0  0  0
   26.2343  -10.0156  -16.8844 C   0  0  0  0  0  0  0  0  0  0  0  0
   25.3354  -10.9831  -16.1309 C   0  0  2  0  0  0  0  0  0  0  0  0
   25.4668  -12.3281  -16.6058 N   0  0  0  0  0  0  0  0  0  0  0  0
   23.9398  -10.5093  -16.3844 C   0  0  0  0  0  0  0  0  0  0  0  0
   23.2960  -11.0190  -17.3054 O   0  0  0  0  0  0  0  0  0  0  0  0
   15.7060   -8.2588  -16.8878 O   0  0  0  0  0  0  0  0  0  0  0  0
   16.9982   -8.7089  -16.6062 C   0  0  0  0  0  0  0  0  0  0  0  0
   17.9638   -8.8236  -17.5796 C   0  0  0  0  0  0  0  0  0  0  0  0
   19.2371   -9.2680  -17.2967 C   0  0  0  0  0  0  0  0  0  0  0  0
   19.6158   -9.6280  -15.9964 C   0  0  0  0  0  0  0  0  0  0  0  0
   20.9737  -10.1320  -15.7056 C   0  0  0  0  0  0  0  0  0  0  0  0
   21.9674   -9.0397  -15.7563 C   0  0  2  0  0  0  0  0  0  0  0  0
   23.3366   -9.5041  -15.6089 N   0  0  0  0  0  0  0  0  0  0  0  0
   21.6803   -7.9189  -14.8333 C   0  0  0  0  0  0  0  0  0  0  0  0
   22.2654   -7.8646  -13.6881 O   0  0  0  0  0  0  0  0  0  0  0  0
   18.6259   -9.5023  -15.0422 C   0  0  0  0  0  0  0  0  0  0  0  0
   17.3501   -9.0582  -15.3188 C   0  0  0  0  0  0  0  0  0  0  0  0
   20.7954   -6.9005  -15.1459 O   0  0  0  0  0  0  0  0  0  0  0  0
  2  1  1  1
  3  2  1  0
  4  2  1  0
  4  5  1  0
  5  6  1  6
  7  5  1  0
  7  8  2  0
  9 10  1  0
 10 11  1  0
 11 12  1  0
 13 12  1  6
 13 14  1  0
 14  7  1  0
 15 13  1  0
 16 15  2  0
 18 17  1  0
 19 18  2  0
 20 19  1  0
 21 27  1  0
 21 20  2  0
 22 21  1  0
 23 22  1  1
 23 24  1  0
 24 15  1  0
 25 23  1  0
 26 25  2  0
 27 28  2  0
 28 18  1  0
 29 25  1  0
M  END
$$$$
