LMY.pdb
     RDKit          3D

 29 29  0  0  1  0  0  0  0  0999 V2000
   21.8493  -13.7413  -23.3709 C   0  0  0  0  0  0  0  0  0  0  0  0
   20.5189  -13.2618  -22.8721 C   0  0  2  0  0  0  0  0  0  0  0  0
   20.0249  -12.1892  -23.8531 C   0  0  0  0  0  0  0  0  0  0  0  0
   20.5930  -12.5885  -21.5186 C   0  0  0  0  0  0  0  0  0  0  0  0
   21.1817  -13.5221  -20.4974 C   0  0  2  0  0  0  0  0  0  0  0  0
   20.2115  -14.4968  -20.1006 N   0  0  0  0  0  0  0  0  0  0  0  0
   21.7556  -12.8239  -19.3353 C   0  0  0  0  0  0  0  0  0  0  0  0
   20.9534  -12.2994  -18.5048 O   0  0  0  0  0  0  0  0  0  0  0  0
   27.5376  -11.3331  -14.2495 C   0  0  0  0  0  0  0  0  0  0  0  0
   27.1109  -12.0136  -15.8884 S   0  0  0  0  0  0  0  0  0  0  0  0
   25.3972  -11.6629  -16.2914 C   0  0  0  0  0  0  0  0  0  0  0  0
   25.0471  -12.3358  -17.5941 C   0  0  0  0  0  0  0  0  0  0  0  0
   23.6042  -11.9991  -17.9354 C   0  0  2  0  0  0  0  0  0  0  0  0
   23.1413  -12.7046  -19.0930 N   0  0  0  0  0  0  0  0  0  0  0  0
   23.5950  -10.5313  -18.2214 C   0  0  0  0  0  0  0  0  0  0  0  0
   23.9204  -10.1417  -19.3461 O   0  0  0  0  0  0  0  0  0  0  0  0
   16.6253   -8.3902  -17.4817 O   0  0  0  0  0  0  0  0  0  0  0  0
   17.9873   -8.2623  -17.7653 C   0  0  0  0  0  0  0  0  0  0  0  0
   18.7011   -7.1314  -17.4421 C   0  0  0  0  0  0  0  0  0  0  0  0
   20.0444   -7.0101  -17.7239 C   0  0  0  0  0  0  0  0  0  0  0  0
   20.7562   -8.0376  -18.3576 C   0  0  0  0  0  0  0  0  0  0  0  0
   22.1893   -7.8889  -18.6837 C   0  0  0  0  0  0  0  0  0  0  0  0
   23.0335   -8.1622  -17.5022 C   0  0  2  0  0  0  0  0  0  0  0  0
   23.2276   -9.5810  -17.2532 N   0  0  0  0  0  0  0  0  0  0  0  0
   22.6005   -7.4580  -16.2747 C   0  0  0  0  0  0  0  0  0  0  0  0
   22.3296   -8.1300  -15.2108 O   0  0  0  0  0  0  0  0  0  0  0  0
   20.0131   -9.1588  -18.6692 C   0  0  0  0  0  0  0  0  0  0  0  0
   18.6689   -9.2863  -18.3898 C   0  0  0  0  0  0  0  0  0  0  0  0
   22.4704   -6.0807  -16.2090 O   0  0  0  0  0  0  0  0  0  0  0  0
  2  1  1  6
  3  2  1  0
  4  2  1  0
  4  5  1  0
  5  6  1  1
  7  5  1  0
  7  8  2  0
  9 10  1  0
 10 11  1  0
 11 12  1  0
 13 12  1  6
 13 14  1  0
 14  7  1  0
 15 13  1  0
 16 15  2  0
 18 17  1  0
 19 18  2  0
 20 19  1  0
 21 27  1  0
 21 20  2  0
 22 21  1  0
 23 22  1  6
 23 24  1  0
 24 15  1  0
 25 23  1  0
 26 25  2  0
 27 28  2  0
 28 18  1  0
 29 25  1  0
M  END
$$$$
