LMY.pdb
     RDKit          3D

 29 29  0  0  1  0  0  0  0  0999 V2000
   27.2259  -20.2991  -17.4889 C   0  0  0  0  0  0  0  0  0  0  0  0
   27.2320  -18.8042  -17.3717 C   0  0  2  0  0  0  0  0  0  0  0  0
   28.6990  -18.3522  -17.3914 C   0  0  0  0  0  0  0  0  0  0  0  0
   26.6574  -18.3028  -16.0642 C   0  0  0  0  0  0  0  0  0  0  0  0
   25.2521  -18.8047  -15.8795 C   0  0  2  0  0  0  0  0  0  0  0  0
   24.3448  -18.0414  -16.6813 N   0  0  0  0  0  0  0  0  0  0  0  0
   24.8299  -18.8426  -14.4697 C   0  0  0  0  0  0  0  0  0  0  0  0
   24.8454  -17.7547  -13.8181 O   0  0  0  0  0  0  0  0  0  0  0  0
   19.9491  -22.0419  -12.2675 C   0  0  0  0  0  0  0  0  0  0  0  0
   20.5598  -21.3905  -10.6757 S   0  0  0  0  0  0  0  0  0  0  0  0
   22.0571  -20.4307  -10.9186 C   0  0  0  0  0  0  0  0  0  0  0  0
   22.5542  -20.6364  -12.3269 C   0  0  0  0  0  0  0  0  0  0  0  0
   23.8933  -19.9309  -12.4708 C   0  0  2  0  0  0  0  0  0  0  0  0
   24.4107  -20.0148  -13.8039 N   0  0  0  0  0  0  0  0  0  0  0  0
   24.8213  -20.6448  -11.5404 C   0  0  0  0  0  0  0  0  0  0  0  0
   25.2947  -21.7300  -11.8882 O   0  0  0  0  0  0  0  0  0  0  0  0
   28.5697  -19.3193   -3.6127 O   0  0  0  0  0  0  0  0  0  0  0  0
   28.2607  -19.5116   -4.9615 C   0  0  0  0  0  0  0  0  0  0  0  0
   28.0798  -20.7640   -5.5016 C   0  0  0  0  0  0  0  0  0  0  0  0
   27.7751  -20.9485   -6.8327 C   0  0  0  0  0  0  0  0  0  0  0  0
   27.6333  -19.8643   -7.7093 C   0  0  0  0  0  0  0  0  0  0  0  0
   27.3361  -20.0708   -9.1416 C   0  0  0  0  0  0  0  0  0  0  0  0
   26.0467  -20.7698   -9.3206 C   0  0  2  0  0  0  0  0  0  0  0  0
   25.1730  -20.1215  -10.2843 N   0  0  0  0  0  0  0  0  0  0  0  0
   25.3321  -21.0521   -8.0557 C   0  0  0  0  0  0  0  0  0  0  0  0
   24.2925  -20.3628   -7.7383 O   0  0  0  0  0  0  0  0  0  0  0  0
   27.8207  -18.6212   -7.1383 C   0  0  0  0  0  0  0  0  0  0  0  0
   28.1256  -18.4300   -5.8072 C   0  0  0  0  0  0  0  0  0  0  0  0
   25.7322  -22.0440   -7.1759 O   0  0  0  0  0  0  0  0  0  0  0  0
  2  1  1  1
  3  2  1  0
  4  2  1  0
  4  5  1  0
  5  6  1  6
  7  5  1  0
  7  8  2  0
  9 10  1  0
 10 11  1  0
 11 12  1  0
 13 12  1  6
 13 14  1  0
 14  7  1  0
 15 13  1  0
 16 15  2  0
 18 17  1  0
 19 18  2  0
 20 19  1  0
 21 27  1  0
 21 20  2  0
 22 21  1  0
 23 22  1  1
 23 24  1  0
 24 15  1  0
 25 23  1  0
 26 25  2  0
 27 28  2  0
 28 18  1  0
 29 25  1  0
M  END
$$$$
