LMY.pdb
     RDKit          3D

 29 29  0  0  1  0  0  0  0  0999 V2000
   25.2217  -22.1192  -19.7850 C   0  0  0  0  0  0  0  0  0  0  0  0
   26.7158  -22.0974  -19.6596 C   0  0  2  0  0  0  0  0  0  0  0  0
   27.2661  -23.1914  -20.5854 C   0  0  0  0  0  0  0  0  0  0  0  0
   27.2061  -22.4404  -18.2692 C   0  0  0  0  0  0  0  0  0  0  0  0
   26.7272  -21.4190  -17.2750 C   0  0  2  0  0  0  0  0  0  0  0  0
   27.4116  -20.1775  -17.4725 N   0  0  0  0  0  0  0  0  0  0  0  0
   26.8262  -21.8768  -15.8793 C   0  0  0  0  0  0  0  0  0  0  0  0
   27.6475  -22.8073  -15.6188 O   0  0  0  0  0  0  0  0  0  0  0  0
   30.2388  -20.7287   -9.6311 C   0  0  0  0  0  0  0  0  0  0  0  0
   29.8471  -20.5914  -11.4084 S   0  0  0  0  0  0  0  0  0  0  0  0
   28.1979  -21.2169  -11.7419 C   0  0  0  0  0  0  0  0  0  0  0  0
   27.8650  -20.9862  -13.1940 C   0  0  0  0  0  0  0  0  0  0  0  0
   26.4799  -21.5519  -13.4644 C   0  0  2  0  0  0  0  0  0  0  0  0
   26.0628  -21.3424  -14.8187 N   0  0  0  0  0  0  0  0  0  0  0  0
   25.5606  -20.8079  -12.5491 C   0  0  0  0  0  0  0  0  0  0  0  0
   25.3912  -19.5990  -12.7290 O   0  0  0  0  0  0  0  0  0  0  0  0
   27.6281  -20.1742   -5.7255 O   0  0  0  0  0  0  0  0  0  0  0  0
   26.7506  -20.0258   -6.8025 C   0  0  0  0  0  0  0  0  0  0  0  0
   25.7260  -20.9122   -7.0417 C   0  0  0  0  0  0  0  0  0  0  0  0
   24.8630  -20.7615   -8.1053 C   0  0  0  0  0  0  0  0  0  0  0  0
   24.9854  -19.6920   -9.0027 C   0  0  0  0  0  0  0  0  0  0  0  0
   24.0753  -19.5531  -10.1580 C   0  0  0  0  0  0  0  0  0  0  0  0
   23.7678  -20.8703  -10.7527 C   0  0  2  0  0  0  0  0  0  0  0  0
   24.8826  -21.4389  -11.4920 N   0  0  0  0  0  0  0  0  0  0  0  0
   22.5250  -20.8949  -11.5560 C   0  0  0  0  0  0  0  0  0  0  0  0
   22.5272  -21.4322  -12.7256 O   0  0  0  0  0  0  0  0  0  0  0  0
   26.0223  -18.8200   -8.7365 C   0  0  0  0  0  0  0  0  0  0  0  0
   26.8891  -18.9654   -7.6740 C   0  0  0  0  0  0  0  0  0  0  0  0
   21.3311  -20.3589  -11.1030 O   0  0  0  0  0  0  0  0  0  0  0  0
  2  1  1  1
  3  2  1  0
  4  2  1  0
  4  5  1  0
  5  6  1  1
  7  5  1  0
  7  8  2  0
  9 10  1  0
 10 11  1  0
 11 12  1  0
 13 12  1  6
 13 14  1  0
 14  7  1  0
 15 13  1  0
 16 15  2  0
 18 17  1  0
 19 18  2  0
 20 19  1  0
 21 27  1  0
 21 20  2  0
 22 21  1  0
 23 22  1  6
 23 24  1  0
 24 15  1  0
 25 23  1  0
 26 25  2  0
 27 28  2  0
 28 18  1  0
 29 25  1  0
M  END
$$$$
