LMY.pdb
     RDKit          3D

 29 29  0  0  1  0  0  0  0  0999 V2000
   17.4356  -12.0547  -21.5551 C   0  0  0  0  0  0  0  0  0  0  0  0
   18.8595  -11.6166  -21.3849 C   0  0  2  0  0  0  0  0  0  0  0  0
   19.7487  -12.7199  -21.9755 C   0  0  0  0  0  0  0  0  0  0  0  0
   19.2746  -11.4755  -19.9362 C   0  0  0  0  0  0  0  0  0  0  0  0
   20.6204  -10.8122  -19.8361 C   0  0  2  0  0  0  0  0  0  0  0  0
   21.6391  -11.6813  -20.3417 N   0  0  0  0  0  0  0  0  0  0  0  0
   20.9352  -10.3403  -18.4776 C   0  0  0  0  0  0  0  0  0  0  0  0
   20.0107   -9.7752  -17.8186 O   0  0  0  0  0  0  0  0  0  0  0  0
   24.8552  -14.6925  -15.0934 C   0  0  0  0  0  0  0  0  0  0  0  0
   24.9986  -12.8748  -15.1743 S   0  0  0  0  0  0  0  0  0  0  0  0
   23.4757  -12.1476  -15.7860 C   0  0  0  0  0  0  0  0  0  0  0  0
   23.6499  -10.6543  -15.8976 C   0  0  0  0  0  0  0  0  0  0  0  0
   22.3872  -10.0684  -16.5091 C   0  0  2  0  0  0  0  0  0  0  0  0
   22.2013  -10.4794  -17.8687 N   0  0  0  0  0  0  0  0  0  0  0  0
   22.5763   -8.5855  -16.4682 C   0  0  0  0  0  0  0  0  0  0  0  0
   23.2943   -8.0531  -17.3188 O   0  0  0  0  0  0  0  0  0  0  0  0
   22.1904    0.0475  -16.0040 O   0  0  0  0  0  0  0  0  0  0  0  0
   22.0115   -1.3338  -16.1134 C   0  0  0  0  0  0  0  0  0  0  0  0
   22.8505   -2.1252  -16.8636 C   0  0  0  0  0  0  0  0  0  0  0  0
   22.6700   -3.4872  -16.9685 C   0  0  0  0  0  0  0  0  0  0  0  0
   21.6170   -4.1396  -16.3131 C   0  0  0  0  0  0  0  0  0  0  0  0
   21.4117   -5.5958  -16.4540 C   0  0  0  0  0  0  0  0  0  0  0  0
   22.1135   -6.3365  -15.3853 C   0  0  2  0  0  0  0  0  0  0  0  0
   21.9635   -7.7780  -15.4946 N   0  0  0  0  0  0  0  0  0  0  0  0
   21.7970   -5.8678  -14.0177 C   0  0  0  0  0  0  0  0  0  0  0  0
   20.9768   -6.5355  -13.2841 O   0  0  0  0  0  0  0  0  0  0  0  0
   20.7928   -3.3194  -15.5686 C   0  0  0  0  0  0  0  0  0  0  0  0
   20.9682   -1.9560  -15.4597 C   0  0  0  0  0  0  0  0  0  0  0  0
   22.3521   -4.7221  -13.4725 O   0  0  0  0  0  0  0  0  0  0  0  0
  2  1  1  1
  3  2  1  0
  4  2  1  0
  4  5  1  0
  5  6  1  1
  7  5  1  0
  7  8  2  0
  9 10  1  0
 10 11  1  0
 11 12  1  0
 13 12  1  6
 13 14  1  0
 14  7  1  0
 15 13  1  0
 16 15  2  0
 18 17  1  0
 19 18  2  0
 20 19  1  0
 21 27  1  0
 21 20  2  0
 22 21  1  0
 23 22  1  6
 23 24  1  0
 24 15  1  0
 25 23  1  0
 26 25  2  0
 27 28  2  0
 28 18  1  0
 29 25  1  0
M  END
$$$$
