LMY.pdb
     RDKit          3D

 29 29  0  0  1  0  0  0  0  0999 V2000
   11.8802  -11.9463    4.0141 C   0  0  0  0  0  0  0  0  0  0  0  0
   12.8491  -11.8155    2.8770 C   0  0  2  0  0  0  0  0  0  0  0  0
   12.0262  -11.5744    1.6036 C   0  0  0  0  0  0  0  0  0  0  0  0
   13.6512  -13.0741    2.6247 C   0  0  0  0  0  0  0  0  0  0  0  0
   14.5145  -13.3956    3.8131 C   0  0  2  0  0  0  0  0  0  0  0  0
   15.3360  -12.2718    4.1463 N   0  0  0  0  0  0  0  0  0  0  0  0
   15.3145  -14.6186    3.6354 C   0  0  0  0  0  0  0  0  0  0  0  0
   14.6986  -15.6952    3.3711 O   0  0  0  0  0  0  0  0  0  0  0  0
   21.5640  -16.3317    1.1607 C   0  0  0  0  0  0  0  0  0  0  0  0
   20.6427  -14.7876    1.4734 S   0  0  0  0  0  0  0  0  0  0  0  0
   18.9315  -15.1445    1.8816 C   0  0  0  0  0  0  0  0  0  0  0  0
   18.8671  -15.7486    3.2613 C   0  0  0  0  0  0  0  0  0  0  0  0
   17.4052  -15.9172    3.6434 C   0  0  2  0  0  0  0  0  0  0  0  0
   16.7216  -14.6622    3.7420 N   0  0  0  0  0  0  0  0  0  0  0  0
   17.4182  -16.5737    4.9870 C   0  0  0  0  0  0  0  0  0  0  0  0
   17.4875  -15.8655    5.9951 O   0  0  0  0  0  0  0  0  0  0  0  0
   16.5040  -20.9953   12.2983 O   0  0  0  0  0  0  0  0  0  0  0  0
   16.4499  -20.2929   11.0918 C   0  0  0  0  0  0  0  0  0  0  0  0
   15.3804  -20.3925   10.2322 C   0  0  0  0  0  0  0  0  0  0  0  0
   15.3316  -19.6976    9.0432 C   0  0  0  0  0  0  0  0  0  0  0  0
   16.3744  -18.8496    8.6465 C   0  0  0  0  0  0  0  0  0  0  0  0
   16.3291  -18.1309    7.3567 C   0  0  0  0  0  0  0  0  0  0  0  0
   17.3276  -18.6728    6.4119 C   0  0  2  0  0  0  0  0  0  0  0  0
   17.3534  -17.9693    5.1404 N   0  0  0  0  0  0  0  0  0  0  0  0
   17.2376  -20.1364    6.2119 C   0  0  0  0  0  0  0  0  0  0  0  0
   17.4403  -20.9332    7.2022 O   0  0  0  0  0  0  0  0  0  0  0  0
   17.4330  -18.7706    9.5294 C   0  0  0  0  0  0  0  0  0  0  0  0
   17.4877  -19.4632   10.7205 C   0  0  0  0  0  0  0  0  0  0  0  0
   16.9377  -20.7067    4.9860 O   0  0  0  0  0  0  0  0  0  0  0  0
  2  1  1  1
  3  2  1  0
  4  2  1  0
  4  5  1  0
  5  6  1  6
  7  5  1  0
  7  8  2  0
  9 10  1  0
 10 11  1  0
 11 12  1  0
 13 12  1  1
 13 14  1  0
 14  7  1  0
 15 13  1  0
 16 15  2  0
 18 17  1  0
 19 18  2  0
 20 19  1  0
 21 27  1  0
 21 20  2  0
 22 21  1  0
 23 22  1  1
 23 24  1  0
 24 15  1  0
 25 23  1  0
 26 25  2  0
 27 28  2  0
 28 18  1  0
 29 25  1  0
M  END
$$$$
