LMY.pdb
     RDKit          3D

 29 29  0  0  1  0  0  0  0  0999 V2000
   24.3251  -16.4304  -15.2309 C   0  0  0  0  0  0  0  0  0  0  0  0
   25.6551  -16.0215  -15.7899 C   0  0  2  0  0  0  0  0  0  0  0  0
   26.7192  -16.9063  -15.1256 C   0  0  0  0  0  0  0  0  0  0  0  0
   26.0318  -14.5935  -15.4579 C   0  0  0  0  0  0  0  0  0  0  0  0
   25.1160  -13.6302  -16.1608 C   0  0  2  0  0  0  0  0  0  0  0  0
   24.9157  -14.0387  -17.5179 N   0  0  0  0  0  0  0  0  0  0  0  0
   25.5691  -12.2320  -16.0766 C   0  0  0  0  0  0  0  0  0  0  0  0
   25.8369  -11.7651  -14.9282 O   0  0  0  0  0  0  0  0  0  0  0  0
   30.2240   -8.3401  -18.5085 C   0  0  0  0  0  0  0  0  0  0  0  0
   28.6484   -7.4905  -18.8648 S   0  0  0  0  0  0  0  0  0  0  0  0
   27.3582   -8.0604  -17.7546 C   0  0  0  0  0  0  0  0  0  0  0  0
   27.1123   -9.5284  -17.9932 C   0  0  0  0  0  0  0  0  0  0  0  0
   26.0614  -10.0059  -17.0037 C   0  0  2  0  0  0  0  0  0  0  0  0
   25.7219  -11.3844  -17.1952 N   0  0  0  0  0  0  0  0  0  0  0  0
   24.8541   -9.1639  -17.2680 C   0  0  0  0  0  0  0  0  0  0  0  0
   24.5533   -8.9043  -18.4362 O   0  0  0  0  0  0  0  0  0  0  0  0
   19.0359  -12.7903  -15.1929 O   0  0  0  0  0  0  0  0  0  0  0  0
   19.7425  -11.7191  -15.7452 C   0  0  0  0  0  0  0  0  0  0  0  0
   20.7952  -11.9033  -16.6117 C   0  0  0  0  0  0  0  0  0  0  0  0
   21.4891  -10.8435  -17.1540 C   0  0  0  0  0  0  0  0  0  0  0  0
   21.1566   -9.5168  -16.8490 C   0  0  0  0  0  0  0  0  0  0  0  0
   21.9238   -8.3860  -17.4105 C   0  0  0  0  0  0  0  0  0  0  0  0
   22.8658   -7.8368  -16.4134 C   0  0  2  0  0  0  0  0  0  0  0  0
   24.0504   -8.6590  -16.2314 N   0  0  0  0  0  0  0  0  0  0  0  0
   22.2420   -7.5020  -15.1136 C   0  0  0  0  0  0  0  0  0  0  0  0
   22.6661   -8.0620  -14.0351 O   0  0  0  0  0  0  0  0  0  0  0  0
   20.0967   -9.3642  -15.9774 C   0  0  0  0  0  0  0  0  0  0  0  0
   19.3984  -10.4205  -15.4315 C   0  0  0  0  0  0  0  0  0  0  0  0
   21.2026   -6.5946  -14.9946 O   0  0  0  0  0  0  0  0  0  0  0  0
  2  1  1  1
  3  2  1  0
  4  2  1  0
  4  5  1  0
  5  6  1  6
  7  5  1  0
  7  8  2  0
  9 10  1  0
 10 11  1  0
 11 12  1  0
 13 12  1  6
 13 14  1  0
 14  7  1  0
 15 13  1  0
 16 15  2  0
 18 17  1  0
 19 18  2  0
 20 19  1  0
 21 27  1  0
 21 20  2  0
 22 21  1  0
 23 22  1  6
 23 24  1  0
 24 15  1  0
 25 23  1  0
 26 25  2  0
 27 28  2  0
 28 18  1  0
 29 25  1  0
M  END
$$$$
