LMY.pdb
     RDKit          3D

 29 29  0  0  1  0  0  0  0  0999 V2000
   28.3933  -18.1626  -15.8379 C   0  0  0  0  0  0  0  0  0  0  0  0
   27.2553  -18.6925  -16.6580 C   0  0  2  0  0  0  0  0  0  0  0  0
   26.5995  -17.4923  -17.3553 C   0  0  0  0  0  0  0  0  0  0  0  0
   26.1676  -19.3393  -15.8275 C   0  0  0  0  0  0  0  0  0  0  0  0
   26.7191  -20.5035  -15.0521 C   0  0  2  0  0  0  0  0  0  0  0  0
   27.1441  -21.5369  -15.9466 N   0  0  0  0  0  0  0  0  0  0  0  0
   25.7874  -21.0165  -14.0343 C   0  0  0  0  0  0  0  0  0  0  0  0
   25.1097  -22.0498  -14.3198 O   0  0  0  0  0  0  0  0  0  0  0  0
   25.1108  -20.5752   -7.2926 C   0  0  0  0  0  0  0  0  0  0  0  0
   26.5337  -20.2477   -8.3877 S   0  0  0  0  0  0  0  0  0  0  0  0
   26.2120  -20.8637  -10.0428 C   0  0  0  0  0  0  0  0  0  0  0  0
   24.8081  -20.4906  -10.4459 C   0  0  0  0  0  0  0  0  0  0  0  0
   24.5902  -20.9276  -11.8857 C   0  0  2  0  0  0  0  0  0  0  0  0
   25.6051  -20.4274  -12.7644 N   0  0  0  0  0  0  0  0  0  0  0  0
   23.2705  -20.3469  -12.2825 C   0  0  0  0  0  0  0  0  0  0  0  0
   23.1656  -19.1217  -12.3849 O   0  0  0  0  0  0  0  0  0  0  0  0
   22.3948  -22.0874  -18.9206 O   0  0  0  0  0  0  0  0  0  0  0  0
   22.0262  -21.4814  -17.7170 C   0  0  0  0  0  0  0  0  0  0  0  0
   22.9064  -20.7281  -16.9750 C   0  0  0  0  0  0  0  0  0  0  0  0
   22.5381  -20.1322  -15.7884 C   0  0  0  0  0  0  0  0  0  0  0  0
   21.2412  -20.2638  -15.2738 C   0  0  0  0  0  0  0  0  0  0  0  0
   20.8616  -19.6472  -13.9861 C   0  0  0  0  0  0  0  0  0  0  0  0
   20.8285  -20.6539  -12.9050 C   0  0  2  0  0  0  0  0  0  0  0  0
   22.1462  -21.1491  -12.5434 N   0  0  0  0  0  0  0  0  0  0  0  0
   19.8857  -21.7688  -13.1468 C   0  0  0  0  0  0  0  0  0  0  0  0
   18.6435  -21.5208  -13.3753 O   0  0  0  0  0  0  0  0  0  0  0  0
   20.3814  -21.0250  -16.0403 C   0  0  0  0  0  0  0  0  0  0  0  0
   20.7439  -21.6237  -17.2284 C   0  0  0  0  0  0  0  0  0  0  0  0
   20.2803  -23.0963  -13.1418 O   0  0  0  0  0  0  0  0  0  0  0  0
  2  1  1  1
  3  2  1  0
  4  2  1  0
  4  5  1  0
  5  6  1  6
  7  5  1  0
  7  8  2  0
  9 10  1  0
 10 11  1  0
 11 12  1  0
 13 12  1  1
 13 14  1  0
 14  7  1  0
 15 13  1  0
 16 15  2  0
 18 17  1  0
 19 18  2  0
 20 19  1  0
 21 27  1  0
 21 20  2  0
 22 21  1  0
 23 22  1  6
 23 24  1  0
 24 15  1  0
 25 23  1  0
 26 25  2  0
 27 28  2  0
 28 18  1  0
 29 25  1  0
M  END
$$$$
