LMY.pdb
     RDKit          3D

 29 29  0  0  1  0  0  0  0  0999 V2000
   24.8249  -29.1586  -18.8734 C   0  0  0  0  0  0  0  0  0  0  0  0
   23.9094  -30.3276  -18.6637 C   0  0  2  0  0  0  0  0  0  0  0  0
   22.7445  -29.8422  -17.7895 C   0  0  0  0  0  0  0  0  0  0  0  0
   24.5554  -31.4668  -17.9049 C   0  0  0  0  0  0  0  0  0  0  0  0
   25.7430  -31.9961  -18.6601 C   0  0  2  0  0  0  0  0  0  0  0  0
   25.3099  -32.7812  -19.7759 N   0  0  0  0  0  0  0  0  0  0  0  0
   26.6882  -32.7379  -17.8094 C   0  0  0  0  0  0  0  0  0  0  0  0
   26.4437  -33.9611  -17.5805 O   0  0  0  0  0  0  0  0  0  0  0  0
   33.2833  -32.3500  -19.2577 C   0  0  0  0  0  0  0  0  0  0  0  0
   32.4840  -32.1521  -17.6289 S   0  0  0  0  0  0  0  0  0  0  0  0
   30.7696  -32.6797  -17.6982 C   0  0  0  0  0  0  0  0  0  0  0  0
   30.1212  -32.4337  -16.3597 C   0  0  0  0  0  0  0  0  0  0  0  0
   28.6993  -32.9696  -16.4097 C   0  0  2  0  0  0  0  0  0  0  0  0
   27.8460  -32.1688  -17.2359 N   0  0  0  0  0  0  0  0  0  0  0  0
   28.2042  -32.9166  -14.9995 C   0  0  0  0  0  0  0  0  0  0  0  0
   28.0062  -31.8155  -14.4790 O   0  0  0  0  0  0  0  0  0  0  0  0
   21.9064  -36.2664  -15.1417 O   0  0  0  0  0  0  0  0  0  0  0  0
   22.9491  -35.5494  -14.5498 C   0  0  0  0  0  0  0  0  0  0  0  0
   23.5086  -34.4422  -15.1448 C   0  0  0  0  0  0  0  0  0  0  0  0
   24.5370  -33.7381  -14.5569 C   0  0  0  0  0  0  0  0  0  0  0  0
   25.0686  -34.1158  -13.3164 C   0  0  0  0  0  0  0  0  0  0  0  0
   26.1910  -33.3743  -12.7060 C   0  0  0  0  0  0  0  0  0  0  0  0
   27.4650  -34.1023  -12.8800 C   0  0  2  0  0  0  0  0  0  0  0  0
   27.9561  -34.0778  -14.2477 N   0  0  0  0  0  0  0  0  0  0  0  0
   27.4513  -35.4806  -12.3409 C   0  0  0  0  0  0  0  0  0  0  0  0
   27.7390  -36.4728  -13.1086 O   0  0  0  0  0  0  0  0  0  0  0  0
   24.4869  -35.2298  -12.7447 C   0  0  0  0  0  0  0  0  0  0  0  0
   23.4577  -35.9385  -13.3278 C   0  0  0  0  0  0  0  0  0  0  0  0
   27.1396  -35.7646  -11.0218 O   0  0  0  0  0  0  0  0  0  0  0  0
  2  1  1  1
  3  2  1  0
  4  2  1  0
  4  5  1  0
  5  6  1  6
  7  5  1  0
  7  8  2  0
  9 10  1  0
 10 11  1  0
 11 12  1  0
 13 12  1  1
 13 14  1  0
 14  7  1  0
 15 13  1  0
 16 15  2  0
 18 17  1  0
 19 18  2  0
 20 19  1  0
 21 27  1  0
 21 20  2  0
 22 21  1  0
 23 22  1  6
 23 24  1  0
 24 15  1  0
 25 23  1  0
 26 25  2  0
 27 28  2  0
 28 18  1  0
 29 25  1  0
M  END
$$$$
