LMY.pdb
     RDKit          3D

 29 29  0  0  1  0  0  0  0  0999 V2000
   28.5436  -16.9372  -15.4256 C   0  0  0  0  0  0  0  0  0  0  0  0
   27.2620  -17.1594  -16.1719 C   0  0  2  0  0  0  0  0  0  0  0  0
   26.5319  -15.8104  -16.2339 C   0  0  0  0  0  0  0  0  0  0  0  0
   26.3184  -18.1140  -15.4724 C   0  0  0  0  0  0  0  0  0  0  0  0
   26.9770  -19.4502  -15.2677 C   0  0  2  0  0  0  0  0  0  0  0  0
   27.3839  -19.9990  -16.5255 N   0  0  0  0  0  0  0  0  0  0  0  0
   26.1451  -20.3968  -14.5067 C   0  0  0  0  0  0  0  0  0  0  0  0
   25.4942  -21.2687  -15.1584 O   0  0  0  0  0  0  0  0  0  0  0  0
   26.0133  -20.5751   -7.6155 C   0  0  0  0  0  0  0  0  0  0  0  0
   25.4999  -19.4711   -8.9752 S   0  0  0  0  0  0  0  0  0  0  0  0
   26.1004  -20.0876  -10.5504 C   0  0  0  0  0  0  0  0  0  0  0  0
   25.3009  -21.3036  -10.9437 C   0  0  0  0  0  0  0  0  0  0  0  0
   25.1274  -21.2959  -12.4541 C   0  0  2  0  0  0  0  0  0  0  0  0
   26.0301  -20.3901  -13.0997 N   0  0  0  0  0  0  0  0  0  0  0  0
   23.7234  -20.8386  -12.6911 C   0  0  0  0  0  0  0  0  0  0  0  0
   23.4231  -19.6728  -12.4201 O   0  0  0  0  0  0  0  0  0  0  0  0
   22.4753  -16.0170  -16.7345 O   0  0  0  0  0  0  0  0  0  0  0  0
   22.1073  -17.2744  -16.2494 C   0  0  0  0  0  0  0  0  0  0  0  0
   23.0078  -18.3078  -16.1315 C   0  0  0  0  0  0  0  0  0  0  0  0
   22.6399  -19.5463  -15.6525 C   0  0  0  0  0  0  0  0  0  0  0  0
   21.3227  -19.8183  -15.2588 C   0  0  0  0  0  0  0  0  0  0  0  0
   20.9287  -21.1570  -14.7743 C   0  0  0  0  0  0  0  0  0  0  0  0
   21.3303  -21.3510  -13.3656 C   0  0  2  0  0  0  0  0  0  0  0  0
   22.7350  -21.6910  -13.2125 N   0  0  0  0  0  0  0  0  0  0  0  0
   20.4675  -22.2910  -12.6157 C   0  0  0  0  0  0  0  0  0  0  0  0
   20.8692  -23.4936  -12.3941 O   0  0  0  0  0  0  0  0  0  0  0  0
   20.4428  -18.7622  -15.3887 C   0  0  0  0  0  0  0  0  0  0  0  0
   20.8048  -17.5207  -15.8672 C   0  0  0  0  0  0  0  0  0  0  0  0
   19.2216  -21.9349  -12.1267 O   0  0  0  0  0  0  0  0  0  0  0  0
  2  1  1  1
  3  2  1  0
  4  2  1  0
  4  5  1  0
  5  6  1  6
  7  5  1  0
  7  8  2  0
  9 10  1  0
 10 11  1  0
 11 12  1  0
 13 12  1  1
 13 14  1  0
 14  7  1  0
 15 13  1  0
 16 15  2  0
 18 17  1  0
 19 18  2  0
 20 19  1  0
 21 27  1  0
 21 20  2  0
 22 21  1  0
 23 22  1  6
 23 24  1  0
 24 15  1  0
 25 23  1  0
 26 25  2  0
 27 28  2  0
 28 18  1  0
 29 25  1  0
M  END
$$$$
