LMY.pdb
     RDKit          3D

 29 29  0  0  1  0  0  0  0  0999 V2000
   27.7581  -20.2794  -19.0044 C   0  0  0  0  0  0  0  0  0  0  0  0
   28.6569  -21.4290  -18.6589 C   0  0  2  0  0  0  0  0  0  0  0  0
   28.3189  -22.5761  -19.6215 C   0  0  0  0  0  0  0  0  0  0  0  0
   28.4276  -21.9716  -17.2646 C   0  0  0  0  0  0  0  0  0  0  0  0
   28.3872  -20.8507  -16.2632 C   0  0  2  0  0  0  0  0  0  0  0  0
   29.5207  -19.9935  -16.4342 N   0  0  0  0  0  0  0  0  0  0  0  0
   28.2661  -21.3187  -14.8727 C   0  0  0  0  0  0  0  0  0  0  0  0
   27.3376  -22.1396  -14.6036 O   0  0  0  0  0  0  0  0  0  0  0  0
   32.2480  -22.2088   -9.2655 C   0  0  0  0  0  0  0  0  0  0  0  0
   32.6112  -21.8858  -11.0247 S   0  0  0  0  0  0  0  0  0  0  0  0
   31.1429  -22.1295  -12.0280 C   0  0  0  0  0  0  0  0  0  0  0  0
   30.0721  -21.1672  -11.5808 C   0  0  0  0  0  0  0  0  0  0  0  0
   28.8623  -21.3415  -12.4850 C   0  0  2  0  0  0  0  0  0  0  0  0
   29.1198  -20.9083  -13.8259 N   0  0  0  0  0  0  0  0  0  0  0  0
   27.7936  -20.4811  -11.8900 C   0  0  0  0  0  0  0  0  0  0  0  0
   27.7840  -19.2757  -12.1537 O   0  0  0  0  0  0  0  0  0  0  0  0
   22.3755  -22.9132  -15.2106 O   0  0  0  0  0  0  0  0  0  0  0  0
   22.9985  -22.0785  -14.2796 C   0  0  0  0  0  0  0  0  0  0  0  0
   22.5140  -21.9131  -13.0025 C   0  0  0  0  0  0  0  0  0  0  0  0
   23.1322  -21.0886  -12.0877 C   0  0  0  0  0  0  0  0  0  0  0  0
   24.2921  -20.3725  -12.4129 C   0  0  0  0  0  0  0  0  0  0  0  0
   24.9326  -19.4673  -11.4368 C   0  0  0  0  0  0  0  0  0  0  0  0
   25.7213  -20.2281  -10.4456 C   0  0  2  0  0  0  0  0  0  0  0  0
   26.7996  -20.9988  -11.0418 N   0  0  0  0  0  0  0  0  0  0  0  0
   24.9047  -21.0641   -9.5375 C   0  0  0  0  0  0  0  0  0  0  0  0
   25.2130  -22.2999   -9.3520 O   0  0  0  0  0  0  0  0  0  0  0  0
   24.7537  -20.5589  -13.7007 C   0  0  0  0  0  0  0  0  0  0  0  0
   24.1398  -21.3825  -14.6206 C   0  0  0  0  0  0  0  0  0  0  0  0
   23.8012  -20.5737   -8.8594 O   0  0  0  0  0  0  0  0  0  0  0  0
  2  1  1  6
  3  2  1  0
  4  2  1  0
  4  5  1  0
  5  6  1  1
  7  5  1  0
  7  8  2  0
  9 10  1  0
 10 11  1  0
 11 12  1  0
 13 12  1  1
 13 14  1  0
 14  7  1  0
 15 13  1  0
 16 15  2  0
 18 17  1  0
 19 18  2  0
 20 19  1  0
 21 27  1  0
 21 20  2  0
 22 21  1  0
 23 22  1  6
 23 24  1  0
 24 15  1  0
 25 23  1  0
 26 25  2  0
 27 28  2  0
 28 18  1  0
 29 25  1  0
M  END
$$$$
