LMY.pdb
     RDKit          3D

 29 29  0  0  1  0  0  0  0  0999 V2000
   26.9904  -19.5486  -19.1225 C   0  0  0  0  0  0  0  0  0  0  0  0
   27.5862  -20.6950  -18.3614 C   0  0  2  0  0  0  0  0  0  0  0  0
   27.8638  -21.8168  -19.3719 C   0  0  0  0  0  0  0  0  0  0  0  0
   26.6468  -21.2835  -17.3307 C   0  0  0  0  0  0  0  0  0  0  0  0
   26.3195  -20.2650  -16.2740 C   0  0  2  0  0  0  0  0  0  0  0  0
   27.4919  -19.5235  -15.9215 N   0  0  0  0  0  0  0  0  0  0  0  0
   25.6691  -20.8471  -15.0885 C   0  0  0  0  0  0  0  0  0  0  0  0
   24.6560  -21.5873  -15.2732 O   0  0  0  0  0  0  0  0  0  0  0  0
   26.4012  -19.7260   -8.2362 C   0  0  0  0  0  0  0  0  0  0  0  0
   26.0176  -21.4539   -8.6818 S   0  0  0  0  0  0  0  0  0  0  0  0
   25.1511  -21.5239  -10.2522 C   0  0  0  0  0  0  0  0  0  0  0  0
   26.0700  -21.0440  -11.3467 C   0  0  0  0  0  0  0  0  0  0  0  0
   25.3174  -21.1057  -12.6664 C   0  0  2  0  0  0  0  0  0  0  0  0
   26.1058  -20.6298  -13.7637 N   0  0  0  0  0  0  0  0  0  0  0  0
   24.1326  -20.2102  -12.4911 C   0  0  0  0  0  0  0  0  0  0  0  0
   24.3066  -18.9887  -12.4755 O   0  0  0  0  0  0  0  0  0  0  0  0
   16.9176  -15.7373  -13.5067 O   0  0  0  0  0  0  0  0  0  0  0  0
   18.0641  -16.5349  -13.5395 C   0  0  0  0  0  0  0  0  0  0  0  0
   18.1769  -17.6239  -14.3728 C   0  0  0  0  0  0  0  0  0  0  0  0
   19.3099  -18.4075  -14.4015 C   0  0  0  0  0  0  0  0  0  0  0  0
   20.4112  -18.1342  -13.5790 C   0  0  0  0  0  0  0  0  0  0  0  0
   21.6109  -18.9961  -13.5933 C   0  0  0  0  0  0  0  0  0  0  0  0
   21.6104  -19.9254  -12.4445 C   0  0  2  0  0  0  0  0  0  0  0  0
   22.8282  -20.7125  -12.3444 N   0  0  0  0  0  0  0  0  0  0  0  0
   20.4090  -20.7861  -12.3645 C   0  0  0  0  0  0  0  0  0  0  0  0
   20.3976  -21.9288  -12.9567 O   0  0  0  0  0  0  0  0  0  0  0  0
   20.2681  -17.0360  -12.7545 C   0  0  0  0  0  0  0  0  0  0  0  0
   19.1371  -16.2479  -12.7212 C   0  0  0  0  0  0  0  0  0  0  0  0
   19.2703  -20.4179  -11.6676 O   0  0  0  0  0  0  0  0  0  0  0  0
  2  1  1  6
  3  2  1  0
  4  2  1  0
  4  5  1  0
  5  6  1  1
  7  5  1  0
  7  8  2  0
  9 10  1  0
 10 11  1  0
 11 12  1  0
 13 12  1  1
 13 14  1  0
 14  7  1  0
 15 13  1  0
 16 15  2  0
 18 17  1  0
 19 18  2  0
 20 19  1  0
 21 27  1  0
 21 20  2  0
 22 21  1  0
 23 22  1  6
 23 24  1  0
 24 15  1  0
 25 23  1  0
 26 25  2  0
 27 28  2  0
 28 18  1  0
 29 25  1  0
M  END
$$$$
