SPC.pdb
     RDKit          3D

 20 20  0  0  1  0  0  0  0  0999 V2000
   11.2382  -13.5123   19.6015 O   0  0  0  0  0  0  0  0  0  0  0  0
   10.2290  -14.3445   19.1202 C   0  0  0  0  0  0  0  0  0  0  0  0
    8.8550  -13.7101   19.2057 C   0  0  2  0  0  0  0  0  0  0  0  0
    8.9901  -12.3126   18.9577 N   0  0  0  0  0  0  0  0  0  0  0  0
    8.2599  -13.9644   20.5363 C   0  0  0  0  0  0  0  0  0  0  0  0
    8.4998  -13.0714   21.4301 O   0  0  0  0  0  0  0  0  0  0  0  0
    7.4679  -15.1237   20.8245 N   0  0  0  0  0  0  0  0  0  0  0  0
    7.1191  -16.1107   19.8752 C   0  0  0  0  0  0  0  0  0  0  0  0
    6.0456  -16.9588   20.5786 C   0  0  0  0  0  0  0  0  0  0  0  0
    6.4032  -16.8047   22.0327 C   0  0  0  0  0  0  0  0  0  0  0  0
    6.9368  -15.4218   22.0940 C   0  0  1  0  0  0  0  0  0  0  0  0
    7.9498  -15.2746   23.1854 C   0  0  0  0  0  0  0  0  0  0  0  0
    9.1404  -15.4628   22.8712 O   0  0  0  0  0  0  0  0  0  0  0  0
    7.6156  -14.9431   24.5052 N   0  0  0  0  0  0  0  0  0  0  0  0
    8.5749  -14.9129   25.5958 C   0  0  1  0  0  0  0  0  0  0  0  0
    8.1306  -14.0267   26.7375 C   0  0  0  0  0  0  0  0  0  0  0  0
    7.4952  -12.4909   26.0123 S   0  0  0  0  0  0  0  0  0  0  0  0
    8.8006  -16.2753   26.1149 C   0  0  0  0  0  0  0  0  0  0  0  0
    8.0549  -17.2100   25.7453 O   0  0  0  0  0  0  0  0  0  0  0  0
    9.8149  -16.5618   27.0023 O   0  0  0  0  0  0  0  0  0  0  0  0
  2  1  1  0
  3  2  1  0
  3  4  1  1
  5  3  1  0
  5  6  2  0
  7  5  1  0
  8  7  1  0
  9 10  1  0
  9  8  1  0
 10 11  1  0
 11  7  1  0
 11 12  1  1
 12 14  1  0
 12 13  2  0
 14 15  1  0
 15 16  1  1
 16 17  1  0
 18 20  1  0
 18 15  1  0
 19 18  2  0
M  END
$$$$
