SPC.pdb
     RDKit          3D

 20 20  0  0  1  0  0  0  0  0999 V2000
    9.0815  -17.7980   16.7641 O   0  0  0  0  0  0  0  0  0  0  0  0
    8.3387  -16.7332   16.2570 C   0  0  0  0  0  0  0  0  0  0  0  0
    9.1460  -15.4550   16.1464 C   0  0  2  0  0  0  0  0  0  0  0  0
   10.2472  -15.6943   15.2730 N   0  0  0  0  0  0  0  0  0  0  0  0
    9.6060  -15.0270   17.4860 C   0  0  0  0  0  0  0  0  0  0  0  0
   10.7581  -15.4721   17.8442 O   0  0  0  0  0  0  0  0  0  0  0  0
    8.8304  -14.1747   18.3382 N   0  0  0  0  0  0  0  0  0  0  0  0
    7.6226  -13.5476   17.9576 C   0  0  0  0  0  0  0  0  0  0  0  0
    7.3462  -12.5320   19.0795 C   0  0  0  0  0  0  0  0  0  0  0  0
    8.0138  -13.1656   20.2706 C   0  0  0  0  0  0  0  0  0  0  0  0
    9.1791  -13.8553   19.6645 C   0  0  1  0  0  0  0  0  0  0  0  0
    9.5737  -15.0614   20.4572 C   0  0  0  0  0  0  0  0  0  0  0  0
    8.9999  -16.1296   20.1714 O   0  0  0  0  0  0  0  0  0  0  0  0
   10.5348  -15.0313   21.4764 N   0  0  0  0  0  0  0  0  0  0  0  0
   10.8942  -16.1874   22.2793 C   0  0  1  0  0  0  0  0  0  0  0  0
   12.2866  -16.0831   22.8594 C   0  0  0  0  0  0  0  0  0  0  0  0
   12.6154  -17.6262   23.7534 S   0  0  0  0  0  0  0  0  0  0  0  0
    9.9329  -16.3597   23.3850 C   0  0  0  0  0  0  0  0  0  0  0  0
    9.4979  -15.3539   23.9895 O   0  0  0  0  0  0  0  0  0  0  0  0
    9.4893  -17.6021   23.7824 O   0  0  0  0  0  0  0  0  0  0  0  0
  2  1  1  0
  3  2  1  0
  3  4  1  6
  5  3  1  0
  5  6  2  0
  7  5  1  0
  8  7  1  0
  9 10  1  0
  9  8  1  0
 10 11  1  0
 11  7  1  0
 11 12  1  1
 12 14  1  0
 12 13  2  0
 14 15  1  0
 15 16  1  1
 16 17  1  0
 18 20  1  0
 18 15  1  0
 19 18  2  0
M  END
$$$$
