SPC.pdb
     RDKit          3D

 20 20  0  0  1  0  0  0  0  0999 V2000
    7.3271  -16.7820   23.1291 O   0  0  0  0  0  0  0  0  0  0  0  0
    6.5441  -15.7550   22.6050 C   0  0  0  0  0  0  0  0  0  0  0  0
    7.3050  -14.4517   22.4624 C   0  0  2  0  0  0  0  0  0  0  0  0
    8.1533  -14.5503   21.3207 N   0  0  0  0  0  0  0  0  0  0  0  0
    8.0859  -14.1824   23.6900 C   0  0  0  0  0  0  0  0  0  0  0  0
    9.2944  -14.6220   23.6853 O   0  0  0  0  0  0  0  0  0  0  0  0
    7.5449  -13.4808   24.8167 N   0  0  0  0  0  0  0  0  0  0  0  0
    6.2653  -12.8818   24.8472 C   0  0  0  0  0  0  0  0  0  0  0  0
    6.2733  -12.0221   26.1229 C   0  0  0  0  0  0  0  0  0  0  0  0
    7.2474  -12.7529   27.0078 C   0  0  0  0  0  0  0  0  0  0  0  0
    8.2256  -13.3003   26.0360 C   0  0  1  0  0  0  0  0  0  0  0  0
    8.8439  -14.5673   26.5374 C   0  0  0  0  0  0  0  0  0  0  0  0
    8.2081  -15.6185   26.3314 O   0  0  0  0  0  0  0  0  0  0  0  0
   10.0731  -14.6100   27.2088 N   0  0  0  0  0  0  0  0  0  0  0  0
   10.6470  -15.8244   27.7623 C   0  0  1  0  0  0  0  0  0  0  0  0
   12.1589  -15.8076   27.7592 C   0  0  0  0  0  0  0  0  0  0  0  0
   12.7169  -17.3359   28.5599 S   0  0  0  0  0  0  0  0  0  0  0  0
   10.1790  -16.0250   29.1469 C   0  0  0  0  0  0  0  0  0  0  0  0
    9.9720  -15.0323   29.8804 O   0  0  0  0  0  0  0  0  0  0  0  0
    9.9576  -17.2802   29.6701 O   0  0  0  0  0  0  0  0  0  0  0  0
  2  1  1  0
  3  2  1  0
  3  4  1  6
  5  3  1  0
  5  6  2  0
  7  5  1  0
  8  7  1  0
  9 10  1  0
  9  8  1  0
 10 11  1  0
 11  7  1  0
 11 12  1  1
 12 14  1  0
 12 13  2  0
 14 15  1  0
 15 16  1  1
 16 17  1  0
 18 20  1  0
 18 15  1  0
 19 18  2  0
M  END
$$$$
