SPC.pdb
     RDKit          3D

 20 20  0  0  1  0  0  0  0  0999 V2000
    9.0311  -17.5992   16.6229 O   0  0  0  0  0  0  0  0  0  0  0  0
    8.4784  -16.4545   16.0513 C   0  0  0  0  0  0  0  0  0  0  0  0
    9.3503  -15.2281   16.2340 C   0  0  2  0  0  0  0  0  0  0  0  0
   10.5340  -15.3998   15.4580 N   0  0  0  0  0  0  0  0  0  0  0  0
    9.6698  -15.0407   17.6665 C   0  0  0  0  0  0  0  0  0  0  0  0
   10.7766  -15.5639   18.0602 O   0  0  0  0  0  0  0  0  0  0  0  0
    8.8127  -14.3271   18.5668 N   0  0  0  0  0  0  0  0  0  0  0  0
    7.6351  -13.6476   18.1811 C   0  0  0  0  0  0  0  0  0  0  0  0
    7.2498  -12.8145   19.4156 C   0  0  0  0  0  0  0  0  0  0  0  0
    7.8187  -13.6231   20.5507 C   0  0  0  0  0  0  0  0  0  0  0  0
    9.0407  -14.2140   19.9517 C   0  0  1  0  0  0  0  0  0  0  0  0
    9.3791  -15.5274   20.5835 C   0  0  0  0  0  0  0  0  0  0  0  0
    8.7948  -16.5309   20.1327 O   0  0  0  0  0  0  0  0  0  0  0  0
   10.3005  -15.6624   21.6306 N   0  0  0  0  0  0  0  0  0  0  0  0
   10.7469  -16.9432   22.1508 C   0  0  1  0  0  0  0  0  0  0  0  0
   12.1302  -16.8749   22.7575 C   0  0  0  0  0  0  0  0  0  0  0  0
   12.1302  -15.5067   23.9476 S   0  0  0  0  0  0  0  0  0  0  0  0
    9.8051  -17.4344   23.1747 C   0  0  0  0  0  0  0  0  0  0  0  0
    9.9689  -18.5711   23.6720 O   0  0  0  0  0  0  0  0  0  0  0  0
    8.7384  -16.6791   23.6105 O   0  0  0  0  0  0  0  0  0  0  0  0
  2  1  1  0
  3  2  1  0
  3  4  1  6
  5  3  1  0
  5  6  2  0
  7  5  1  0
  8  7  1  0
  9 10  1  0
  9  8  1  0
 10 11  1  0
 11  7  1  0
 11 12  1  1
 12 14  1  0
 12 13  2  0
 14 15  1  0
 15 16  1  1
 16 17  1  0
 18 20  1  0
 18 15  1  0
 19 18  2  0
M  END
$$$$
