SPC.pdb
     RDKit          3D

 20 20  0  0  1  0  0  0  0  0999 V2000
    9.0621  -17.9976   17.7694 O   0  0  0  0  0  0  0  0  0  0  0  0
    8.3786  -16.9483   17.1574 C   0  0  0  0  0  0  0  0  0  0  0  0
    9.2114  -15.6857   17.0564 C   0  0  2  0  0  0  0  0  0  0  0  0
   10.4000  -15.9895   16.3300 N   0  0  0  0  0  0  0  0  0  0  0  0
    9.5246  -15.1740   18.4090 C   0  0  0  0  0  0  0  0  0  0  0  0
   10.6435  -15.5686   18.9050 O   0  0  0  0  0  0  0  0  0  0  0  0
    8.6492  -14.2977   19.1300 N   0  0  0  0  0  0  0  0  0  0  0  0
    7.4979  -13.6880   18.5821 C   0  0  0  0  0  0  0  0  0  0  0  0
    7.0844  -12.6377   19.6273 C   0  0  0  0  0  0  0  0  0  0  0  0
    7.5989  -13.2297   20.9121 C   0  0  0  0  0  0  0  0  0  0  0  0
    8.8305  -13.9340   20.4782 C   0  0  1  0  0  0  0  0  0  0  0  0
    9.1235  -15.1122   21.3527 C   0  0  0  0  0  0  0  0  0  0  0  0
    8.6456  -16.2056   20.9950 O   0  0  0  0  0  0  0  0  0  0  0  0
    9.8916  -15.0301   22.5217 N   0  0  0  0  0  0  0  0  0  0  0  0
   10.1090  -16.1486   23.4231 C   0  0  1  0  0  0  0  0  0  0  0  0
   11.1434  -15.8484   24.4843 C   0  0  0  0  0  0  0  0  0  0  0  0
   11.3002  -17.3295   25.5188 S   0  0  0  0  0  0  0  0  0  0  0  0
    8.8454  -16.5223   24.0866 C   0  0  0  0  0  0  0  0  0  0  0  0
    8.0373  -15.6293   24.4272 O   0  0  0  0  0  0  0  0  0  0  0  0
    8.5163  -17.8343   24.3485 O   0  0  0  0  0  0  0  0  0  0  0  0
  2  1  1  0
  3  2  1  0
  3  4  1  1
  5  3  1  0
  5  6  2  0
  7  5  1  0
  8  7  1  0
  9 10  1  0
  9  8  1  0
 10 11  1  0
 11  7  1  0
 11 12  1  1
 12 14  1  0
 12 13  2  0
 14 15  1  0
 15 16  1  1
 16 17  1  0
 18 20  1  0
 18 15  1  0
 19 18  2  0
M  END
$$$$
