SPC.pdb
     RDKit          3D

 20 20  0  0  1  0  0  0  0  0999 V2000
    8.4513  -17.9389   16.7604 O   0  0  0  0  0  0  0  0  0  0  0  0
    7.9342  -16.7803   16.1834 C   0  0  0  0  0  0  0  0  0  0  0  0
    8.9387  -15.6457   16.1445 C   0  0  2  0  0  0  0  0  0  0  0  0
   10.0462  -16.0546   15.3450 N   0  0  0  0  0  0  0  0  0  0  0  0
    9.3668  -15.2987   17.5177 C   0  0  0  0  0  0  0  0  0  0  0  0
   10.4047  -15.9236   17.9488 O   0  0  0  0  0  0  0  0  0  0  0  0
    8.6801  -14.3338   18.3250 N   0  0  0  0  0  0  0  0  0  0  0  0
    7.5944  -13.5459   17.8806 C   0  0  0  0  0  0  0  0  0  0  0  0
    7.4114  -12.4871   18.9814 C   0  0  0  0  0  0  0  0  0  0  0  0
    7.9226  -13.1940   20.2082 C   0  0  0  0  0  0  0  0  0  0  0  0
    9.0056  -14.0503   19.6653 C   0  0  1  0  0  0  0  0  0  0  0  0
    9.1845  -15.2902   20.4837 C   0  0  0  0  0  0  0  0  0  0  0  0
    8.4529  -16.2574   20.1991 O   0  0  0  0  0  0  0  0  0  0  0  0
   10.1160  -15.3966   21.5250 N   0  0  0  0  0  0  0  0  0  0  0  0
   10.3611  -16.6228   22.2645 C   0  0  1  0  0  0  0  0  0  0  0  0
   11.8289  -16.9799   22.3295 C   0  0  0  0  0  0  0  0  0  0  0  0
   12.7137  -15.5168   22.9336 S   0  0  0  0  0  0  0  0  0  0  0  0
    9.8425  -16.5013   23.6403 C   0  0  0  0  0  0  0  0  0  0  0  0
    9.4169  -15.3966   24.0462 O   0  0  0  0  0  0  0  0  0  0  0  0
    9.8079  -17.5720   24.5067 O   0  0  0  0  0  0  0  0  0  0  0  0
  2  1  1  0
  3  2  1  0
  3  4  1  6
  5  3  1  0
  5  6  2  0
  7  5  1  0
  8  7  1  0
  9 10  1  0
  9  8  1  0
 10 11  1  0
 11  7  1  0
 11 12  1  1
 12 14  1  0
 12 13  2  0
 14 15  1  0
 15 16  1  1
 16 17  1  0
 18 20  1  0
 18 15  1  0
 19 18  2  0
M  END
$$$$
