SPC.pdb
     RDKit          3D

 20 20  0  0  1  0  0  0  0  0999 V2000
    7.8578  -18.1162   17.5177 O   0  0  0  0  0  0  0  0  0  0  0  0
    7.4818  -16.9233   16.9025 C   0  0  0  0  0  0  0  0  0  0  0  0
    8.6344  -15.9496   16.7573 C   0  0  2  0  0  0  0  0  0  0  0  0
    9.6604  -16.5799   15.9937 N   0  0  0  0  0  0  0  0  0  0  0  0
    9.1295  -15.5456   18.0918 C   0  0  0  0  0  0  0  0  0  0  0  0
   10.1181  -16.2309   18.5466 O   0  0  0  0  0  0  0  0  0  0  0  0
    8.5554  -14.4659   18.8394 N   0  0  0  0  0  0  0  0  0  0  0  0
    7.5454  -13.6047   18.3541 C   0  0  0  0  0  0  0  0  0  0  0  0
    7.4866  -12.4626   19.3830 C   0  0  0  0  0  0  0  0  0  0  0  0
    7.9460  -13.1346   20.6492 C   0  0  0  0  0  0  0  0  0  0  0  0
    8.9298  -14.1286   20.1541 C   0  0  1  0  0  0  0  0  0  0  0  0
    8.9991  -15.3234   21.0522 C   0  0  0  0  0  0  0  0  0  0  0  0
    8.0703  -16.1480   20.9570 O   0  0  0  0  0  0  0  0  0  0  0  0
   10.0388  -15.5390   21.9665 N   0  0  0  0  0  0  0  0  0  0  0  0
   10.1535  -16.7305   22.7898 C   0  0  1  0  0  0  0  0  0  0  0  0
   10.9963  -17.8062   22.1427 C   0  0  0  0  0  0  0  0  0  0  0  0
   12.5990  -17.0628   21.7340 S   0  0  0  0  0  0  0  0  0  0  0  0
   10.7430  -16.3914   24.0990 C   0  0  0  0  0  0  0  0  0  0  0  0
   10.8023  -17.2626   24.9955 O   0  0  0  0  0  0  0  0  0  0  0  0
   11.2379  -15.1357   24.3757 O   0  0  0  0  0  0  0  0  0  0  0  0
  2  1  1  0
  3  2  1  0
  3  4  1  6
  5  3  1  0
  5  6  2  0
  7  5  1  0
  8  7  1  0
  9 10  1  0
  9  8  1  0
 10 11  1  0
 11  7  1  0
 11 12  1  1
 12 14  1  0
 12 13  2  0
 14 15  1  0
 15 16  1  6
 16 17  1  0
 18 20  1  0
 18 15  1  0
 19 18  2  0
M  END
$$$$
