SPC.pdb
     RDKit          3D

 20 20  0  0  1  0  0  0  0  0999 V2000
    8.1870  -18.0353   17.3510 O   0  0  0  0  0  0  0  0  0  0  0  0
    7.6698  -16.8171   16.9136 C   0  0  0  0  0  0  0  0  0  0  0  0
    8.7306  -15.7421   16.7842 C   0  0  2  0  0  0  0  0  0  0  0  0
    9.7757  -16.2412   15.9526 N   0  0  0  0  0  0  0  0  0  0  0  0
    9.2408  -15.3681   18.1218 C   0  0  0  0  0  0  0  0  0  0  0  0
   10.2903  -16.0012   18.5111 O   0  0  0  0  0  0  0  0  0  0  0  0
    8.6173  -14.3701   18.9400 N   0  0  0  0  0  0  0  0  0  0  0  0
    7.5511  -13.5429   18.5203 C   0  0  0  0  0  0  0  0  0  0  0  0
    7.4431  -12.4689   19.6163 C   0  0  0  0  0  0  0  0  0  0  0  0
    7.9617  -13.1859   20.8340 C   0  0  0  0  0  0  0  0  0  0  0  0
    8.9933  -14.0892   20.2675 C   0  0  1  0  0  0  0  0  0  0  0  0
    9.1468  -15.3287   21.0916 C   0  0  0  0  0  0  0  0  0  0  0  0
    8.3961  -16.2823   20.8110 O   0  0  0  0  0  0  0  0  0  0  0  0
   10.0756  -15.4490   22.1339 N   0  0  0  0  0  0  0  0  0  0  0  0
   10.2689  -16.6655   22.9042 C   0  0  1  0  0  0  0  0  0  0  0  0
   11.1402  -17.6742   22.1905 C   0  0  0  0  0  0  0  0  0  0  0  0
   12.7301  -16.8704   21.8527 S   0  0  0  0  0  0  0  0  0  0  0  0
   10.8810  -16.3513   24.2092 C   0  0  0  0  0  0  0  0  0  0  0  0
   11.0942  -17.2712   25.0306 O   0  0  0  0  0  0  0  0  0  0  0  0
   11.2321  -15.0667   24.5627 O   0  0  0  0  0  0  0  0  0  0  0  0
  2  1  1  0
  3  2  1  0
  3  4  1  6
  5  3  1  0
  5  6  2  0
  7  5  1  0
  8  7  1  0
  9 10  1  0
  9  8  1  0
 10 11  1  0
 11  7  1  0
 11 12  1  1
 12 14  1  0
 12 13  2  0
 14 15  1  0
 15 16  1  6
 16 17  1  0
 18 20  1  0
 18 15  1  0
 19 18  2  0
M  END
$$$$
