SPC.pdb
     RDKit          3D

 20 20  0  0  1  0  0  0  0  0999 V2000
   10.4287  -18.9967   21.8981 O   0  0  0  0  0  0  0  0  0  0  0  0
    9.6989  -18.4214   20.8593 C   0  0  0  0  0  0  0  0  0  0  0  0
   10.1658  -17.0196   20.5206 C   0  0  2  0  0  0  0  0  0  0  0  0
   11.5174  -17.0932   20.0726 N   0  0  0  0  0  0  0  0  0  0  0  0
   10.0397  -16.1419   21.7051 C   0  0  0  0  0  0  0  0  0  0  0  0
   11.0899  -16.0516   22.4418 O   0  0  0  0  0  0  0  0  0  0  0  0
    8.8345  -15.4345   22.0231 N   0  0  0  0  0  0  0  0  0  0  0  0
    7.6990  -15.3705   21.1841 C   0  0  0  0  0  0  0  0  0  0  0  0
    6.8165  -14.2791   21.8136 C   0  0  0  0  0  0  0  0  0  0  0  0
    7.1973  -14.3446   23.2685 C   0  0  0  0  0  0  0  0  0  0  0  0
    8.6336  -14.7121   23.2149 C   0  0  1  0  0  0  0  0  0  0  0  0
    9.0457  -15.4858   24.4276 C   0  0  0  0  0  0  0  0  0  0  0  0
    9.7303  -16.5078   24.2318 O   0  0  0  0  0  0  0  0  0  0  0  0
    8.6989  -15.1120   25.7328 N   0  0  0  0  0  0  0  0  0  0  0  0
    9.6668  -14.9124   26.7976 C   0  0  1  0  0  0  0  0  0  0  0  0
    9.3340  -13.7241   27.6714 C   0  0  0  0  0  0  0  0  0  0  0  0
   10.6375  -13.5949   28.9254 S   0  0  0  0  0  0  0  0  0  0  0  0
    9.7469  -16.1161   27.6468 C   0  0  0  0  0  0  0  0  0  0  0  0
   10.7753  -16.3255   28.3286 O   0  0  0  0  0  0  0  0  0  0  0  0
    8.7188  -17.0305   27.7193 O   0  0  0  0  0  0  0  0  0  0  0  0
  2  1  1  0
  3  2  1  0
  3  4  1  1
  5  3  1  0
  5  6  2  0
  7  5  1  0
  8  7  1  0
  9 10  1  0
  9  8  1  0
 10 11  1  0
 11  7  1  0
 11 12  1  1
 12 14  1  0
 12 13  2  0
 14 15  1  0
 15 16  1  1
 16 17  1  0
 18 20  1  0
 18 15  1  0
 19 18  2  0
M  END
$$$$
