SPC.pdb
     RDKit          3D

 20 20  0  0  1  0  0  0  0  0999 V2000
    7.8609  -16.7587   22.2932 O   0  0  0  0  0  0  0  0  0  0  0  0
    6.8949  -15.7749   22.0887 C   0  0  0  0  0  0  0  0  0  0  0  0
    7.4718  -14.3732   22.1093 C   0  0  2  0  0  0  0  0  0  0  0  0
    8.3923  -14.2513   21.0274 N   0  0  0  0  0  0  0  0  0  0  0  0
    8.1320  -14.1145   23.4079 C   0  0  0  0  0  0  0  0  0  0  0  0
    9.3944  -14.3571   23.4455 O   0  0  0  0  0  0  0  0  0  0  0  0
    7.4250  -13.6271   24.5555 N   0  0  0  0  0  0  0  0  0  0  0  0
    6.0594  -13.2635   24.5592 C   0  0  0  0  0  0  0  0  0  0  0  0
    5.8574  -12.5405   25.9019 C   0  0  0  0  0  0  0  0  0  0  0  0
    6.9048  -13.1731   26.7786 C   0  0  0  0  0  0  0  0  0  0  0  0
    8.0073  -13.4487   25.8250 C   0  0  1  0  0  0  0  0  0  0  0  0
    8.8173  -14.6318   26.2528 C   0  0  0  0  0  0  0  0  0  0  0  0
    8.6463  -15.6866   25.6124 O   0  0  0  0  0  0  0  0  0  0  0  0
    9.7314  -14.5949   27.3141 N   0  0  0  0  0  0  0  0  0  0  0  0
   10.6790  -15.6587   27.5986 C   0  0  1  0  0  0  0  0  0  0  0  0
   11.7613  -15.2313   28.5641 C   0  0  0  0  0  0  0  0  0  0  0  0
   10.9529  -14.3384   29.9197 S   0  0  0  0  0  0  0  0  0  0  0  0
    9.9788  -16.8291   28.1609 C   0  0  0  0  0  0  0  0  0  0  0  0
    8.7784  -16.7281   28.5005 O   0  0  0  0  0  0  0  0  0  0  0  0
   10.6039  -18.0454   28.3281 O   0  0  0  0  0  0  0  0  0  0  0  0
  2  1  1  0
  3  2  1  0
  3  4  1  6
  5  3  1  0
  5  6  2  0
  7  5  1  0
  8  7  1  0
  9 10  1  0
  9  8  1  0
 10 11  1  0
 11  7  1  0
 11 12  1  1
 12 14  1  0
 12 13  2  0
 14 15  1  0
 15 16  1  1
 16 17  1  0
 18 20  1  0
 18 15  1  0
 19 18  2  0
M  END
$$$$
