SPC.pdb
     RDKit          3D

 20 20  0  0  1  0  0  0  0  0999 V2000
   11.0995  -17.0150   16.1635 O   0  0  0  0  0  0  0  0  0  0  0  0
   11.0089  -16.6566   17.5074 C   0  0  0  0  0  0  0  0  0  0  0  0
   11.3617  -15.2029   17.7519 C   0  0  2  0  0  0  0  0  0  0  0  0
   12.7820  -15.0780   17.7400 N   0  0  0  0  0  0  0  0  0  0  0  0
   10.7937  -14.7520   19.0416 C   0  0  0  0  0  0  0  0  0  0  0  0
   11.5076  -15.0068   20.0804 O   0  0  0  0  0  0  0  0  0  0  0  0
    9.5335  -14.0766   19.1418 N   0  0  0  0  0  0  0  0  0  0  0  0
    8.7398  -13.6952   18.0365 C   0  0  0  0  0  0  0  0  0  0  0  0
    7.6707  -12.7642   18.6335 C   0  0  0  0  0  0  0  0  0  0  0  0
    7.5484  -13.2654   20.0476 C   0  0  0  0  0  0  0  0  0  0  0  0
    8.9300  -13.7072   20.3591 C   0  0  1  0  0  0  0  0  0  0  0  0
    8.9357  -14.8198   21.3597 C   0  0  0  0  0  0  0  0  0  0  0  0
    8.9947  -15.9784   20.9060 O   0  0  0  0  0  0  0  0  0  0  0  0
    8.8786  -14.6096   22.7439 N   0  0  0  0  0  0  0  0  0  0  0  0
    8.9388  -15.6798   23.7245 C   0  0  1  0  0  0  0  0  0  0  0  0
    9.2083  -15.1731   25.1234 C   0  0  0  0  0  0  0  0  0  0  0  0
    7.8927  -13.9941   25.5327 S   0  0  0  0  0  0  0  0  0  0  0  0
    7.6729  -16.4373   23.7315 C   0  0  0  0  0  0  0  0  0  0  0  0
    6.6608  -15.9569   23.1736 O   0  0  0  0  0  0  0  0  0  0  0  0
    7.5610  -17.6702   24.3363 O   0  0  0  0  0  0  0  0  0  0  0  0
  2  1  1  0
  3  2  1  0
  3  4  1  1
  5  3  1  0
  5  6  2  0
  7  5  1  0
  8  7  1  0
  9 10  1  0
  9  8  1  0
 10 11  1  0
 11  7  1  0
 11 12  1  1
 12 14  1  0
 12 13  2  0
 14 15  1  0
 15 16  1  1
 16 17  1  0
 18 20  1  0
 18 15  1  0
 19 18  2  0
M  END
$$$$
