SPC.pdb
     RDKit          3D

 20 20  0  0  1  0  0  0  0  0999 V2000
    8.2714  -17.3964   15.3400 O   0  0  0  0  0  0  0  0  0  0  0  0
    8.7909  -16.9509   16.5543 C   0  0  0  0  0  0  0  0  0  0  0  0
    9.4419  -15.5861   16.4482 C   0  0  2  0  0  0  0  0  0  0  0  0
   10.5967  -15.7032   15.6202 N   0  0  0  0  0  0  0  0  0  0  0  0
    9.7953  -15.0857   17.7951 C   0  0  0  0  0  0  0  0  0  0  0  0
   10.9269  -15.4871   18.2557 O   0  0  0  0  0  0  0  0  0  0  0  0
    8.9435  -14.2127   18.5478 N   0  0  0  0  0  0  0  0  0  0  0  0
    7.7859  -13.5856   18.0342 C   0  0  0  0  0  0  0  0  0  0  0  0
    7.4044  -12.5472   19.1031 C   0  0  0  0  0  0  0  0  0  0  0  0
    7.9419  -13.1620   20.3677 C   0  0  0  0  0  0  0  0  0  0  0  0
    9.1575  -13.8701   19.8966 C   0  0  1  0  0  0  0  0  0  0  0  0
    9.4594  -15.0633   20.7476 C   0  0  0  0  0  0  0  0  0  0  0  0
    8.8543  -16.1157   20.4684 O   0  0  0  0  0  0  0  0  0  0  0  0
   10.3696  -15.0378   21.8126 N   0  0  0  0  0  0  0  0  0  0  0  0
   10.6528  -16.1849   22.6579 C   0  0  1  0  0  0  0  0  0  0  0  0
   11.7298  -15.9024   23.6809 C   0  0  0  0  0  0  0  0  0  0  0  0
   12.0189  -17.4396   24.5983 S   0  0  0  0  0  0  0  0  0  0  0  0
    9.4303  -16.6128   23.3641 C   0  0  0  0  0  0  0  0  0  0  0  0
    8.6447  -15.7514   23.8194 O   0  0  0  0  0  0  0  0  0  0  0  0
    9.1157  -17.9422   23.5433 O   0  0  0  0  0  0  0  0  0  0  0  0
  2  1  1  0
  3  2  1  0
  3  4  1  6
  5  3  1  0
  5  6  2  0
  7  5  1  0
  8  7  1  0
  9 10  1  0
  9  8  1  0
 10 11  1  0
 11  7  1  0
 11 12  1  1
 12 14  1  0
 12 13  2  0
 14 15  1  0
 15 16  1  1
 16 17  1  0
 18 20  1  0
 18 15  1  0
 19 18  2  0
M  END
$$$$
