HLI.pdb
     RDKit          3D

 27 27  0  0  1  0  0  0  0  0999 V2000
    7.5194  -20.0244   20.9131 N   0  0  0  0  0  0  0  0  0  0  0  0
    7.2753  -18.9619   21.8577 C   0  0  1  0  0  0  0  0  0  0  0  0
    7.0473  -19.6104   23.1944 C   0  0  0  0  0  0  0  0  0  0  0  0
    5.8558  -20.4795   23.2089 C   0  0  0  0  0  0  0  0  0  0  0  0
    5.0805  -20.7260   22.0958 C   0  0  0  0  0  0  0  0  0  0  0  0
    4.0895  -21.5516   22.4547 N   0  0  0  0  0  0  0  0  0  0  0  0
    4.2277  -21.8298   23.7774 C   0  0  0  0  0  0  0  0  0  0  0  0
    5.3015  -21.1705   24.2105 N   0  0  0  0  0  0  0  0  0  0  0  0
    8.3222  -17.9422   21.8252 C   0  0  0  0  0  0  0  0  0  0  0  0
    9.5242  -18.3293   21.6459 O   0  0  0  0  0  0  0  0  0  0  0  0
    7.2543  -12.4108   20.9094 C   0  0  0  0  0  0  0  0  0  0  0  0
    7.3942  -13.8525   21.3610 C   0  0  1  0  0  0  0  0  0  0  0  0
    6.2295  -14.6152   20.7135 C   0  0  0  0  0  0  0  0  0  0  0  0
    8.6994  -14.4527   20.9516 C   0  0  0  0  0  0  0  0  0  0  0  0
    9.1252  -15.5323   21.8781 C   0  0  2  0  0  0  0  0  0  0  0  0
    8.0928  -16.5736   21.9762 N   0  0  0  0  0  0  0  0  0  0  0  0
    9.3349  -14.9925   23.2386 C   0  0  0  0  0  0  0  0  0  0  0  0
   10.1791  -14.1068   23.5455 O   0  0  0  0  0  0  0  0  0  0  0  0
    5.7685  -12.5101   25.8022 C   0  0  0  0  0  0  0  0  0  0  0  0
    7.1174  -13.0740   25.4227 C   0  0  0  0  0  0  0  0  0  0  0  0
    7.5127  -14.2723   26.2139 C   0  0  2  0  0  0  0  0  0  0  0  0
    7.6550  -13.8499   27.6610 C   0  0  0  0  0  0  0  0  0  0  0  0
    8.7750  -14.9356   25.7136 C   0  0  2  0  0  0  0  0  0  0  0  0
    8.5607  -15.4526   24.3709 N   0  0  0  0  0  0  0  0  0  0  0  0
    9.2037  -16.0656   26.5663 C   0  0  0  0  0  0  0  0  0  0  0  0
    9.0913  -17.3815   26.1419 O   0  0  0  0  0  0  0  0  0  0  0  0
    9.6935  -15.8907   27.7226 O   0  0  0  0  0  0  0  0  0  0  0  0
  2  1  1  6
  3  2  1  0
  4  3  1  0
  4  8  1  0
  5  6  1  0
  5  4  2  0
  6  7  1  0
  7  8  2  0
  9  2  1  0
 10  9  2  0
 12 14  1  0
 12 11  1  6
 13 12  1  0
 15 14  1  6
 15 16  1  0
 16  9  1  0
 17 18  2  0
 17 15  1  0
 19 20  1  0
 20 21  1  0
 21 23  1  0
 21 22  1  1
 23 24  1  6
 24 17  1  0
 25 26  1  0
 25 23  1  0
 27 25  2  0
M  END
$$$$
