HLI.pdb
     RDKit          3D

 27 27  0  0  1  0  0  0  0  0999 V2000
   12.3081  -17.4556   19.0924 N   0  0  0  0  0  0  0  0  0  0  0  0
   11.3021  -17.7945   20.0691 C   0  0  1  0  0  0  0  0  0  0  0  0
   11.7767  -19.0356   20.7717 C   0  0  0  0  0  0  0  0  0  0  0  0
   11.3824  -20.2719   20.0706 C   0  0  0  0  0  0  0  0  0  0  0  0
   10.6985  -20.2824   18.8736 C   0  0  0  0  0  0  0  0  0  0  0  0
   10.5051  -21.5584   18.5171 N   0  0  0  0  0  0  0  0  0  0  0  0
   11.0566  -22.3531   19.4711 C   0  0  0  0  0  0  0  0  0  0  0  0
   11.5801  -21.5529   20.3989 N   0  0  0  0  0  0  0  0  0  0  0  0
   10.9749  -16.6668   20.9397 C   0  0  0  0  0  0  0  0  0  0  0  0
   11.9375  -15.9510   21.3731 O   0  0  0  0  0  0  0  0  0  0  0  0
    6.2515  -13.8647   20.5769 C   0  0  0  0  0  0  0  0  0  0  0  0
    7.7057  -14.2361   20.7995 C   0  0  1  0  0  0  0  0  0  0  0  0
    8.5049  -12.9343   20.6446 C   0  0  0  0  0  0  0  0  0  0  0  0
    7.9403  -14.8322   22.1488 C   0  0  0  0  0  0  0  0  0  0  0  0
    9.3444  -15.2864   22.3150 C   0  0  2  0  0  0  0  0  0  0  0  0
    9.6790  -16.3213   21.3265 N   0  0  0  0  0  0  0  0  0  0  0  0
    9.5402  -15.8797   23.6551 C   0  0  0  0  0  0  0  0  0  0  0  0
    9.9484  -17.0525   23.8766 O   0  0  0  0  0  0  0  0  0  0  0  0
   10.6261  -13.3683   29.2739 C   0  0  0  0  0  0  0  0  0  0  0  0
   10.4220  -14.5949   28.4164 C   0  0  0  0  0  0  0  0  0  0  0  0
    9.8928  -14.2971   27.0565 C   0  0  2  0  0  0  0  0  0  0  0  0
    8.5117  -13.6968   27.2144 C   0  0  0  0  0  0  0  0  0  0  0  0
    9.8620  -15.5015   26.1443 C   0  0  2  0  0  0  0  0  0  0  0  0
    9.2698  -15.1366   24.8667 N   0  0  0  0  0  0  0  0  0  0  0  0
    9.0720  -16.6208   26.7017 C   0  0  0  0  0  0  0  0  0  0  0  0
    7.8317  -16.9650   26.1843 O   0  0  0  0  0  0  0  0  0  0  0  0
    9.4854  -17.3196   27.6754 O   0  0  0  0  0  0  0  0  0  0  0  0
  2  1  1  6
  3  2  1  0
  4  3  1  0
  4  8  1  0
  5  6  1  0
  5  4  2  0
  6  7  1  0
  7  8  2  0
  9  2  1  0
 10  9  2  0
 12 14  1  0
 12 11  1  1
 13 12  1  0
 15 14  1  1
 15 16  1  0
 16  9  1  0
 17 18  2  0
 17 15  1  0
 19 20  1  0
 20 21  1  0
 21 23  1  0
 21 22  1  1
 23 24  1  6
 24 17  1  0
 25 26  1  0
 25 23  1  0
 27 25  2  0
M  END
$$$$
