HLI.pdb
     RDKit          3D

 27 27  0  0  1  0  0  0  0  0999 V2000
   10.3122  -16.0854   19.9532 N   0  0  0  0  0  0  0  0  0  0  0  0
    9.3665  -16.5791   20.9240 C   0  0  1  0  0  0  0  0  0  0  0  0
    9.6098  -18.0563   21.0580 C   0  0  0  0  0  0  0  0  0  0  0  0
    9.1719  -18.8146   19.8711 C   0  0  0  0  0  0  0  0  0  0  0  0
    8.0517  -18.4939   19.1343 C   0  0  0  0  0  0  0  0  0  0  0  0
    7.9472  -19.3759   18.1324 N   0  0  0  0  0  0  0  0  0  0  0  0
    8.9845  -20.2483   18.2260 C   0  0  0  0  0  0  0  0  0  0  0  0
    9.7101  -19.8886   19.2841 N   0  0  0  0  0  0  0  0  0  0  0  0
    9.4091  -15.8203   22.1727 C   0  0  0  0  0  0  0  0  0  0  0  0
   10.5532  -15.4868   22.6274 O   0  0  0  0  0  0  0  0  0  0  0  0
    7.6161  -12.0883   25.6825 C   0  0  0  0  0  0  0  0  0  0  0  0
    6.9641  -13.4517   25.8172 C   0  0  1  0  0  0  0  0  0  0  0  0
    5.5271  -13.1904   26.2905 C   0  0  0  0  0  0  0  0  0  0  0  0
    6.9572  -14.2087   24.5295 C   0  0  0  0  0  0  0  0  0  0  0  0
    8.3103  -14.7076   24.1752 C   0  0  2  0  0  0  0  0  0  0  0  0
    8.2807  -15.4358   22.8990 N   0  0  0  0  0  0  0  0  0  0  0  0
    8.8004  -15.6477   25.2058 C   0  0  0  0  0  0  0  0  0  0  0  0
    8.8153  -16.9041   25.0934 O   0  0  0  0  0  0  0  0  0  0  0  0
   10.5825  -13.1779   29.8560 C   0  0  0  0  0  0  0  0  0  0  0  0
   10.8018  -13.9833   28.5972 C   0  0  0  0  0  0  0  0  0  0  0  0
   10.3034  -15.3841   28.6847 C   0  0  2  0  0  0  0  0  0  0  0  0
   11.2668  -16.1689   29.5500 C   0  0  0  0  0  0  0  0  0  0  0  0
   10.1198  -16.0440   27.3377 C   0  0  2  0  0  0  0  0  0  0  0  0
    9.3223  -15.1870   26.4741 N   0  0  0  0  0  0  0  0  0  0  0  0
    9.4338  -17.3511   27.4300 C   0  0  0  0  0  0  0  0  0  0  0  0
   10.1410  -18.5442   27.4559 O   0  0  0  0  0  0  0  0  0  0  0  0
    8.1711  -17.4478   27.4902 O   0  0  0  0  0  0  0  0  0  0  0  0
  2  1  1  6
  3  2  1  0
  4  3  1  0
  4  8  1  0
  5  6  1  0
  5  4  2  0
  6  7  1  0
  7  8  2  0
  9  2  1  0
 10  9  2  0
 12 14  1  0
 12 11  1  6
 13 12  1  0
 15 14  1  1
 15 16  1  0
 16  9  1  0
 17 18  2  0
 17 15  1  0
 19 20  1  0
 20 21  1  0
 21 23  1  0
 21 22  1  1
 23 24  1  6
 24 17  1  0
 25 26  1  0
 25 23  1  0
 27 25  2  0
M  END
$$$$
