HLI.pdb
     RDKit          3D

 27 27  0  0  1  0  0  0  0  0999 V2000
    7.7540  -19.9466   21.8350 N   0  0  0  0  0  0  0  0  0  0  0  0
    7.2882  -18.8627   22.6649 C   0  0  1  0  0  0  0  0  0  0  0  0
    7.2307  -19.3849   24.0732 C   0  0  0  0  0  0  0  0  0  0  0  0
    6.2686  -20.4918   24.2303 C   0  0  0  0  0  0  0  0  0  0  0  0
    5.5453  -21.0250   23.1847 C   0  0  0  0  0  0  0  0  0  0  0  0
    4.7761  -22.0074   23.6705 N   0  0  0  0  0  0  0  0  0  0  0  0
    5.0032  -22.1021   25.0066 C   0  0  0  0  0  0  0  0  0  0  0  0
    5.9084  -21.1762   25.3209 N   0  0  0  0  0  0  0  0  0  0  0  0
    8.0764  -17.6458   22.4785 C   0  0  0  0  0  0  0  0  0  0  0  0
    9.3393  -17.7690   22.3496 O   0  0  0  0  0  0  0  0  0  0  0  0
    6.3140  -13.0995   19.6789 C   0  0  0  0  0  0  0  0  0  0  0  0
    7.1998  -14.1997   20.2331 C   0  0  1  0  0  0  0  0  0  0  0  0
    8.5178  -14.1188   19.4495 C   0  0  0  0  0  0  0  0  0  0  0  0
    7.4550  -14.0416   21.6963 C   0  0  0  0  0  0  0  0  0  0  0  0
    8.3161  -15.1289   22.2271 C   0  0  2  0  0  0  0  0  0  0  0  0
    7.5379  -16.3588   22.4311 N   0  0  0  0  0  0  0  0  0  0  0  0
    8.8830  -14.7456   23.5378 C   0  0  0  0  0  0  0  0  0  0  0  0
    9.6815  -13.7884   23.7309 O   0  0  0  0  0  0  0  0  0  0  0  0
    6.2676  -12.1938   26.2728 C   0  0  0  0  0  0  0  0  0  0  0  0
    7.4758  -12.9581   25.7855 C   0  0  0  0  0  0  0  0  0  0  0  0
    7.8364  -14.1226   26.6411 C   0  0  2  0  0  0  0  0  0  0  0  0
    8.2088  -13.5971   28.0115 C   0  0  0  0  0  0  0  0  0  0  0  0
    8.9439  -14.9742   26.0650 C   0  0  2  0  0  0  0  0  0  0  0  0
    8.5562  -15.4631   24.7509 N   0  0  0  0  0  0  0  0  0  0  0  0
    9.2580  -16.1495   26.9063 C   0  0  0  0  0  0  0  0  0  0  0  0
   10.2954  -16.1292   27.8271 O   0  0  0  0  0  0  0  0  0  0  0  0
    8.5990  -17.2298   26.8297 O   0  0  0  0  0  0  0  0  0  0  0  0
  2  1  1  6
  3  2  1  0
  4  3  1  0
  4  8  1  0
  5  6  1  0
  5  4  2  0
  6  7  1  0
  7  8  2  0
  9  2  1  0
 10  9  2  0
 12 14  1  0
 12 11  1  6
 13 12  1  0
 15 14  1  1
 15 16  1  0
 16  9  1  0
 17 18  2  0
 17 15  1  0
 19 20  1  0
 20 21  1  0
 21 23  1  0
 21 22  1  1
 23 24  1  6
 24 17  1  0
 25 26  1  0
 25 23  1  0
 27 25  2  0
M  END
$$$$
