HLI.pdb
     RDKit          3D

 27 27  0  0  1  0  0  0  0  0999 V2000
   10.6713  -18.4091   19.9631 N   0  0  0  0  0  0  0  0  0  0  0  0
   11.6828  -17.4615   20.3624 C   0  0  1  0  0  0  0  0  0  0  0  0
   12.2533  -16.8748   19.1015 C   0  0  0  0  0  0  0  0  0  0  0  0
   12.9979  -17.8643   18.3003 C   0  0  0  0  0  0  0  0  0  0  0  0
   13.4308  -19.0751   18.7976 C   0  0  0  0  0  0  0  0  0  0  0  0
   14.0643  -19.7254   17.8135 N   0  0  0  0  0  0  0  0  0  0  0  0
   14.0378  -18.9433   16.7029 C   0  0  0  0  0  0  0  0  0  0  0  0
   13.3883  -17.8245   17.0221 N   0  0  0  0  0  0  0  0  0  0  0  0
   11.1793  -16.4920   21.3337 C   0  0  0  0  0  0  0  0  0  0  0  0
   12.0041  -15.6434   21.8095 O   0  0  0  0  0  0  0  0  0  0  0  0
    6.0030  -14.6512   21.1570 C   0  0  0  0  0  0  0  0  0  0  0  0
    7.5058  -14.7152   21.3566 C   0  0  1  0  0  0  0  0  0  0  0  0
    8.0056  -13.2652   21.2857 C   0  0  0  0  0  0  0  0  0  0  0  0
    7.8801  -15.3301   22.6655 C   0  0  0  0  0  0  0  0  0  0  0  0
    9.3493  -15.5042   22.7934 C   0  0  2  0  0  0  0  0  0  0  0  0
    9.8558  -16.4333   21.7735 N   0  0  0  0  0  0  0  0  0  0  0  0
    9.6887  -16.0750   24.1145 C   0  0  0  0  0  0  0  0  0  0  0  0
   10.1848  -17.2191   24.3047 O   0  0  0  0  0  0  0  0  0  0  0  0
   10.0172  -12.3211   28.1932 C   0  0  0  0  0  0  0  0  0  0  0  0
   10.4207  -13.4825   27.3158 C   0  0  0  0  0  0  0  0  0  0  0  0
    9.7660  -14.7691   27.6821 C   0  0  2  0  0  0  0  0  0  0  0  0
   10.3338  -15.2197   29.0115 C   0  0  0  0  0  0  0  0  0  0  0  0
    9.9199  -15.8446   26.6317 C   0  0  2  0  0  0  0  0  0  0  0  0
    9.4718  -15.3413   25.3424 N   0  0  0  0  0  0  0  0  0  0  0  0
    9.1333  -17.0592   26.9373 C   0  0  0  0  0  0  0  0  0  0  0  0
    7.8171  -17.1979   26.5214 O   0  0  0  0  0  0  0  0  0  0  0  0
    9.6187  -18.0308   27.5913 O   0  0  0  0  0  0  0  0  0  0  0  0
  2  1  1  6
  3  2  1  0
  4  3  1  0
  4  8  1  0
  5  6  1  0
  5  4  2  0
  6  7  1  0
  7  8  2  0
  9  2  1  0
 10  9  2  0
 12 14  1  0
 12 11  1  1
 13 12  1  0
 15 14  1  1
 15 16  1  0
 16  9  1  0
 17 18  2  0
 17 15  1  0
 19 20  1  0
 20 21  1  0
 21 23  1  0
 21 22  1  1
 23 24  1  6
 24 17  1  0
 25 26  1  0
 25 23  1  0
 27 25  2  0
M  END
$$$$
