HLI.pdb
     RDKit          3D

 27 27  0  0  1  0  0  0  0  0999 V2000
   11.0325  -18.3599   20.0555 N   0  0  0  0  0  0  0  0  0  0  0  0
   11.9340  -17.2753   20.3581 C   0  0  1  0  0  0  0  0  0  0  0  0
   12.3051  -16.6380   19.0484 C   0  0  0  0  0  0  0  0  0  0  0  0
   12.9435  -17.5856   18.1157 C   0  0  0  0  0  0  0  0  0  0  0  0
   13.0390  -17.3685   16.7576 C   0  0  0  0  0  0  0  0  0  0  0  0
   13.6730  -18.4147   16.2134 N   0  0  0  0  0  0  0  0  0  0  0  0
   13.9789  -19.2887   17.2076 C   0  0  0  0  0  0  0  0  0  0  0  0
   13.5280  -18.7657   18.3471 N   0  0  0  0  0  0  0  0  0  0  0  0
   11.3881  -16.3674   21.3654 C   0  0  0  0  0  0  0  0  0  0  0  0
   12.1857  -15.5342   21.9099 O   0  0  0  0  0  0  0  0  0  0  0  0
    6.0624  -14.7189   21.3293 C   0  0  0  0  0  0  0  0  0  0  0  0
    7.5734  -14.7448   21.4648 C   0  0  1  0  0  0  0  0  0  0  0  0
    8.0261  -13.2778   21.4511 C   0  0  0  0  0  0  0  0  0  0  0  0
    8.0202  -15.4145   22.7230 C   0  0  0  0  0  0  0  0  0  0  0  0
    9.5008  -15.4809   22.8171 C   0  0  2  0  0  0  0  0  0  0  0  0
   10.0520  -16.3516   21.7692 N   0  0  0  0  0  0  0  0  0  0  0  0
    9.9106  -16.0482   24.1196 C   0  0  0  0  0  0  0  0  0  0  0  0
   10.4622  -17.1711   24.2806 O   0  0  0  0  0  0  0  0  0  0  0  0
   10.2420  -12.3990   28.3111 C   0  0  0  0  0  0  0  0  0  0  0  0
   10.5526  -13.5059   27.3313 C   0  0  0  0  0  0  0  0  0  0  0  0
    9.9866  -14.8281   27.7180 C   0  0  2  0  0  0  0  0  0  0  0  0
   10.6596  -15.2663   29.0017 C   0  0  0  0  0  0  0  0  0  0  0  0
   10.1257  -15.8812   26.6432 C   0  0  2  0  0  0  0  0  0  0  0  0
    9.7053  -15.3356   25.3619 N   0  0  0  0  0  0  0  0  0  0  0  0
    9.3052  -17.0826   26.9102 C   0  0  0  0  0  0  0  0  0  0  0  0
    9.8400  -18.2089   27.5183 O   0  0  0  0  0  0  0  0  0  0  0  0
    8.0778  -17.1444   26.5990 O   0  0  0  0  0  0  0  0  0  0  0  0
  2  1  1  6
  3  2  1  0
  4  3  1  0
  4  8  1  0
  5  6  1  0
  5  4  2  0
  6  7  1  0
  7  8  2  0
  9  2  1  0
 10  9  2  0
 12 14  1  0
 12 11  1  1
 13 12  1  0
 15 14  1  1
 15 16  1  0
 16  9  1  0
 17 18  2  0
 17 15  1  0
 19 20  1  0
 20 21  1  0
 21 23  1  0
 21 22  1  1
 23 24  1  6
 24 17  1  0
 25 26  1  0
 25 23  1  0
 27 25  2  0
M  END
$$$$
