HLI.pdb
     RDKit          3D

 27 27  0  0  1  0  0  0  0  0999 V2000
    9.4858  -18.6868   20.6047 N   0  0  0  0  0  0  0  0  0  0  0  0
   10.7676  -18.0751   20.8562 C   0  0  1  0  0  0  0  0  0  0  0  0
   11.5939  -18.2674   19.6155 C   0  0  0  0  0  0  0  0  0  0  0  0
   12.0802  -19.6518   19.4652 C   0  0  0  0  0  0  0  0  0  0  0  0
   12.4320  -20.4541   20.5297 C   0  0  0  0  0  0  0  0  0  0  0  0
   12.8231  -21.6392   20.0448 N   0  0  0  0  0  0  0  0  0  0  0  0
   12.7236  -21.5967   18.6905 C   0  0  0  0  0  0  0  0  0  0  0  0
   12.2728  -20.3860   18.3645 N   0  0  0  0  0  0  0  0  0  0  0  0
   10.6398  -16.6937   21.3172 C   0  0  0  0  0  0  0  0  0  0  0  0
   11.7040  -16.0809   21.6621 O   0  0  0  0  0  0  0  0  0  0  0  0
    6.2096  -13.4454   19.9961 C   0  0  0  0  0  0  0  0  0  0  0  0
    7.6417  -13.8721   20.2588 C   0  0  1  0  0  0  0  0  0  0  0  0
    8.5263  -12.7210   19.7591 C   0  0  0  0  0  0  0  0  0  0  0  0
    7.9004  -14.1353   21.7062 C   0  0  0  0  0  0  0  0  0  0  0  0
    9.2773  -14.6410   21.9378 C   0  0  2  0  0  0  0  0  0  0  0  0
    9.4308  -16.0015   21.4035 N   0  0  0  0  0  0  0  0  0  0  0  0
    9.5680  -14.7029   23.3863 C   0  0  0  0  0  0  0  0  0  0  0  0
   10.4983  -14.0793   23.9667 O   0  0  0  0  0  0  0  0  0  0  0  0
    7.1629  -12.0466   27.4119 C   0  0  0  0  0  0  0  0  0  0  0  0
    7.8458  -13.3852   27.2582 C   0  0  0  0  0  0  0  0  0  0  0  0
    7.9342  -13.8571   25.8483 C   0  0  2  0  0  0  0  0  0  0  0  0
    6.5285  -13.9228   25.2893 C   0  0  0  0  0  0  0  0  0  0  0  0
    8.6417  -15.1841   25.6999 C   0  0  2  0  0  0  0  0  0  0  0  0
    8.7804  -15.5132   24.2897 N   0  0  0  0  0  0  0  0  0  0  0  0
    7.9147  -16.2957   26.3507 C   0  0  0  0  0  0  0  0  0  0  0  0
    8.2280  -16.7177   27.6345 O   0  0  0  0  0  0  0  0  0  0  0  0
    6.9729  -16.9166   25.7720 O   0  0  0  0  0  0  0  0  0  0  0  0
  2  1  1  6
  3  2  1  0
  4  3  1  0
  4  8  1  0
  5  6  1  0
  5  4  2  0
  6  7  1  0
  7  8  2  0
  9  2  1  0
 10  9  2  0
 12 14  1  0
 12 11  1  1
 13 12  1  0
 15 14  1  1
 15 16  1  0
 16  9  1  0
 17 18  2  0
 17 15  1  0
 19 20  1  0
 20 21  1  0
 21 23  1  0
 21 22  1  1
 23 24  1  6
 24 17  1  0
 25 26  1  0
 25 23  1  0
 27 25  2  0
M  END
$$$$
