HLI.pdb
     RDKit          3D

 27 27  0  0  1  0  0  0  0  0999 V2000
   10.1038  -19.1790   20.6547 N   0  0  0  0  0  0  0  0  0  0  0  0
    9.1632  -18.5094   21.5193 C   0  0  1  0  0  0  0  0  0  0  0  0
    9.1320  -19.2794   22.8098 C   0  0  0  0  0  0  0  0  0  0  0  0
    8.5222  -20.6141   22.6609 C   0  0  0  0  0  0  0  0  0  0  0  0
    8.0480  -21.1043   21.4627 C   0  0  0  0  0  0  0  0  0  0  0  0
    7.5668  -22.3349   21.6789 N   0  0  0  0  0  0  0  0  0  0  0  0
    7.7302  -22.6285   22.9953 C   0  0  0  0  0  0  0  0  0  0  0  0
    8.3092  -21.5736   23.5674 N   0  0  0  0  0  0  0  0  0  0  0  0
    9.4496  -17.0816   21.6472 C   0  0  0  0  0  0  0  0  0  0  0  0
   10.6719  -16.7171   21.6401 O   0  0  0  0  0  0  0  0  0  0  0  0
    6.2507  -13.1140   19.4477 C   0  0  0  0  0  0  0  0  0  0  0  0
    7.5044  -13.8134   19.9388 C   0  0  1  0  0  0  0  0  0  0  0  0
    8.6863  -13.0223   19.3602 C   0  0  0  0  0  0  0  0  0  0  0  0
    7.5864  -13.8535   21.4298 C   0  0  0  0  0  0  0  0  0  0  0  0
    8.7474  -14.6527   21.8974 C   0  0  2  0  0  0  0  0  0  0  0  0
    8.4740  -16.0915   21.7753 N   0  0  0  0  0  0  0  0  0  0  0  0
    9.0229  -14.3777   23.3239 C   0  0  0  0  0  0  0  0  0  0  0  0
    9.4223  -13.2740   23.7859 O   0  0  0  0  0  0  0  0  0  0  0  0
    6.9150  -11.7930   25.7227 C   0  0  0  0  0  0  0  0  0  0  0  0
    8.0357  -12.7652   25.4394 C   0  0  0  0  0  0  0  0  0  0  0  0
    7.8917  -14.0706   26.1417 C   0  0  2  0  0  0  0  0  0  0  0  0
    7.9028  -13.8025   27.6319 C   0  0  0  0  0  0  0  0  0  0  0  0
    8.9507  -15.0796   25.7621 C   0  0  2  0  0  0  0  0  0  0  0  0
    8.8504  -15.3889   24.3441 N   0  0  0  0  0  0  0  0  0  0  0  0
    8.8236  -16.3502   26.5085 C   0  0  0  0  0  0  0  0  0  0  0  0
    8.4463  -17.5285   25.8811 O   0  0  0  0  0  0  0  0  0  0  0  0
    9.0520  -16.4275   27.7532 O   0  0  0  0  0  0  0  0  0  0  0  0
  2  1  1  6
  3  2  1  0
  4  3  1  0
  4  8  1  0
  5  6  1  0
  5  4  2  0
  6  7  1  0
  7  8  2  0
  9  2  1  0
 10  9  2  0
 12 14  1  0
 12 11  1  1
 13 12  1  0
 15 14  1  1
 15 16  1  0
 16  9  1  0
 17 18  2  0
 17 15  1  0
 19 20  1  0
 20 21  1  0
 21 23  1  0
 21 22  1  1
 23 24  1  6
 24 17  1  0
 25 26  1  0
 25 23  1  0
 27 25  2  0
M  END
$$$$
