HLI.pdb
     RDKit          3D

 27 27  0  0  1  0  0  0  0  0999 V2000
   12.1565  -17.5733   19.7923 N   0  0  0  0  0  0  0  0  0  0  0  0
   10.9526  -17.7766   20.5604 C   0  0  1  0  0  0  0  0  0  0  0  0
   11.2046  -18.9513   21.4636 C   0  0  0  0  0  0  0  0  0  0  0  0
   11.1841  -20.2378   20.7424 C   0  0  0  0  0  0  0  0  0  0  0  0
   10.0239  -20.8910   20.3849 C   0  0  0  0  0  0  0  0  0  0  0  0
   10.3620  -22.0182   19.7464 N   0  0  0  0  0  0  0  0  0  0  0  0
   11.7180  -22.0861   19.6957 C   0  0  0  0  0  0  0  0  0  0  0  0
   12.1918  -20.9994   20.3040 N   0  0  0  0  0  0  0  0  0  0  0  0
   10.5106  -16.5542   21.2291 C   0  0  0  0  0  0  0  0  0  0  0  0
   11.3958  -15.8354   21.8005 O   0  0  0  0  0  0  0  0  0  0  0  0
    6.4439  -13.4845   19.1804 C   0  0  0  0  0  0  0  0  0  0  0  0
    7.7173  -13.9545   19.8584 C   0  0  1  0  0  0  0  0  0  0  0  0
    8.6869  -12.7649   19.8123 C   0  0  0  0  0  0  0  0  0  0  0  0
    7.4855  -14.3812   21.2710 C   0  0  0  0  0  0  0  0  0  0  0  0
    8.7323  -14.8725   21.9108 C   0  0  2  0  0  0  0  0  0  0  0  0
    9.1845  -16.1217   21.2823 N   0  0  0  0  0  0  0  0  0  0  0  0
    8.4993  -15.1607   23.3423 C   0  0  0  0  0  0  0  0  0  0  0  0
    8.5454  -16.3062   23.8685 O   0  0  0  0  0  0  0  0  0  0  0  0
    6.7065  -10.7737   26.3154 C   0  0  0  0  0  0  0  0  0  0  0  0
    7.6401  -11.9485   26.1427 C   0  0  0  0  0  0  0  0  0  0  0  0
    6.9601  -13.2720   26.2074 C   0  0  2  0  0  0  0  0  0  0  0  0
    6.5697  -13.5260   27.6482 C   0  0  0  0  0  0  0  0  0  0  0  0
    7.7957  -14.4066   25.6615 C   0  0  2  0  0  0  0  0  0  0  0  0
    8.1881  -14.1142   24.2916 N   0  0  0  0  0  0  0  0  0  0  0  0
    7.0734  -15.6973   25.6556 C   0  0  0  0  0  0  0  0  0  0  0  0
    6.2056  -16.0412   24.6294 O   0  0  0  0  0  0  0  0  0  0  0  0
    7.2096  -16.5511   26.5829 O   0  0  0  0  0  0  0  0  0  0  0  0
  2  1  1  1
  3  2  1  0
  4  3  1  0
  4  8  1  0
  5  6  1  0
  5  4  2  0
  6  7  1  0
  7  8  2  0
  9  2  1  0
 10  9  2  0
 12 14  1  0
 12 11  1  1
 13 12  1  0
 15 14  1  6
 15 16  1  0
 16  9  1  0
 17 18  2  0
 17 15  1  0
 19 20  1  0
 20 21  1  0
 21 23  1  0
 21 22  1  1
 23 24  1  6
 24 17  1  0
 25 26  1  0
 25 23  1  0
 27 25  2  0
M  END
$$$$
