HLI.pdb
     RDKit          3D

 27 27  0  0  1  0  0  0  0  0999 V2000
    9.2477  -19.5784   21.4560 N   0  0  0  0  0  0  0  0  0  0  0  0
   10.2494  -18.8873   20.6816 C   0  0  1  0  0  0  0  0  0  0  0  0
    9.9788  -19.2030   19.2371 C   0  0  0  0  0  0  0  0  0  0  0  0
   11.0782  -18.7834   18.3478 C   0  0  0  0  0  0  0  0  0  0  0  0
   11.3485  -17.4666   18.0418 C   0  0  0  0  0  0  0  0  0  0  0  0
   12.4044  -17.4399   17.2190 N   0  0  0  0  0  0  0  0  0  0  0  0
   12.8044  -18.7199   17.0012 C   0  0  0  0  0  0  0  0  0  0  0  0
   11.9878  -19.5131   17.6937 N   0  0  0  0  0  0  0  0  0  0  0  0
   10.3185  -17.4648   21.0108 C   0  0  0  0  0  0  0  0  0  0  0  0
   11.2549  -16.7771   20.4843 O   0  0  0  0  0  0  0  0  0  0  0  0
    6.2830  -13.7371   21.3264 C   0  0  0  0  0  0  0  0  0  0  0  0
    7.6706  -14.3329   21.1794 C   0  0  1  0  0  0  0  0  0  0  0  0
    8.5446  -13.2281   20.5686 C   0  0  0  0  0  0  0  0  0  0  0  0
    8.2385  -14.7814   22.4862 C   0  0  0  0  0  0  0  0  0  0  0  0
    9.5686  -15.4204   22.3198 C   0  0  2  0  0  0  0  0  0  0  0  0
    9.4268  -16.8097   21.8618 N   0  0  0  0  0  0  0  0  0  0  0  0
   10.2900  -15.4550   23.6100 C   0  0  0  0  0  0  0  0  0  0  0  0
   11.3195  -14.7794   23.8839 O   0  0  0  0  0  0  0  0  0  0  0  0
    9.9591  -13.1149   28.4811 C   0  0  0  0  0  0  0  0  0  0  0  0
   10.4579  -14.4265   27.9224 C   0  0  0  0  0  0  0  0  0  0  0  0
    9.9107  -14.7542   26.5765 C   0  0  2  0  0  0  0  0  0  0  0  0
    8.4015  -14.6566   26.6500 C   0  0  0  0  0  0  0  0  0  0  0  0
   10.3444  -16.1075   26.0624 C   0  0  2  0  0  0  0  0  0  0  0  0
    9.8585  -16.2972   24.7044 N   0  0  0  0  0  0  0  0  0  0  0  0
    9.8278  -17.2237   26.8839 C   0  0  0  0  0  0  0  0  0  0  0  0
   10.4901  -17.6561   28.0236 O   0  0  0  0  0  0  0  0  0  0  0  0
    8.7590  -17.8392   26.5905 O   0  0  0  0  0  0  0  0  0  0  0  0
  2  1  1  1
  3  2  1  0
  4  3  1  0
  4  8  1  0
  5  6  1  0
  5  4  2  0
  6  7  1  0
  7  8  2  0
  9  2  1  0
 10  9  2  0
 12 14  1  0
 12 11  1  1
 13 12  1  0
 15 14  1  1
 15 16  1  0
 16  9  1  0
 17 18  2  0
 17 15  1  0
 19 20  1  0
 20 21  1  0
 21 23  1  0
 21 22  1  1
 23 24  1  6
 24 17  1  0
 25 26  1  0
 25 23  1  0
 27 25  2  0
M  END
$$$$
