HLI.pdb
     RDKit          3D

 27 27  0  0  1  0  0  0  0  0999 V2000
    9.6586  -15.6239   19.9632 N   0  0  0  0  0  0  0  0  0  0  0  0
    9.0610  -16.3259   21.0725 C   0  0  1  0  0  0  0  0  0  0  0  0
    9.6011  -17.7283   21.0435 C   0  0  0  0  0  0  0  0  0  0  0  0
    8.8061  -18.6260   20.1846 C   0  0  0  0  0  0  0  0  0  0  0  0
    7.7506  -18.1979   19.4079 C   0  0  0  0  0  0  0  0  0  0  0  0
    7.2569  -19.2588   18.7572 N   0  0  0  0  0  0  0  0  0  0  0  0
    7.9849  -20.3498   19.1117 C   0  0  0  0  0  0  0  0  0  0  0  0
    8.9145  -19.9420   19.9748 N   0  0  0  0  0  0  0  0  0  0  0  0
    9.2351  -15.6124   22.3365 C   0  0  0  0  0  0  0  0  0  0  0  0
   10.3428  -15.0112   22.5325 O   0  0  0  0  0  0  0  0  0  0  0  0
    5.3196  -12.8639   25.5328 C   0  0  0  0  0  0  0  0  0  0  0  0
    6.5788  -13.2614   24.7856 C   0  0  1  0  0  0  0  0  0  0  0  0
    7.5917  -12.1336   25.0302 C   0  0  0  0  0  0  0  0  0  0  0  0
    7.1314  -14.5669   25.2563 C   0  0  0  0  0  0  0  0  0  0  0  0
    8.4458  -14.8667   24.6335 C   0  0  2  0  0  0  0  0  0  0  0  0
    8.2689  -15.5448   23.3417 N   0  0  0  0  0  0  0  0  0  0  0  0
    9.2336  -15.7700   25.4993 C   0  0  0  0  0  0  0  0  0  0  0  0
    9.6228  -16.9260   25.1778 O   0  0  0  0  0  0  0  0  0  0  0  0
   11.0942  -13.3000   30.0467 C   0  0  0  0  0  0  0  0  0  0  0  0
   11.2814  -14.1563   28.8165 C   0  0  0  0  0  0  0  0  0  0  0  0
   10.7777  -15.5494   28.9709 C   0  0  2  0  0  0  0  0  0  0  0  0
   11.7951  -16.3264   29.7797 C   0  0  0  0  0  0  0  0  0  0  0  0
   10.4890  -16.2354   27.6557 C   0  0  2  0  0  0  0  0  0  0  0  0
    9.6376  -15.3881   26.8350 N   0  0  0  0  0  0  0  0  0  0  0  0
    9.7997  -17.5328   27.8267 C   0  0  0  0  0  0  0  0  0  0  0  0
   10.4949  -18.7332   27.8180 O   0  0  0  0  0  0  0  0  0  0  0  0
    8.5450  -17.6141   27.9894 O   0  0  0  0  0  0  0  0  0  0  0  0
  2  1  1  6
  3  2  1  0
  4  3  1  0
  4  8  1  0
  5  6  1  0
  5  4  2  0
  6  7  1  0
  7  8  2  0
  9  2  1  0
 10  9  2  0
 12 14  1  0
 12 11  1  1
 13 12  1  0
 15 14  1  1
 15 16  1  0
 16  9  1  0
 17 18  2  0
 17 15  1  0
 19 20  1  0
 20 21  1  0
 21 23  1  0
 21 22  1  6
 23 24  1  6
 24 17  1  0
 25 26  1  0
 25 23  1  0
 27 25  2  0
M  END
$$$$
