HLI.pdb
     RDKit          3D

 27 27  0  0  1  0  0  0  0  0999 V2000
    9.5362  -19.3325   20.3172 N   0  0  0  0  0  0  0  0  0  0  0  0
    8.6402  -18.4722   21.0505 C   0  0  1  0  0  0  0  0  0  0  0  0
    8.2116  -19.2309   22.2753 C   0  0  0  0  0  0  0  0  0  0  0  0
    7.4317  -20.4400   21.9510 C   0  0  0  0  0  0  0  0  0  0  0  0
    7.1512  -20.8414   20.6623 C   0  0  0  0  0  0  0  0  0  0  0  0
    6.4338  -21.9701   20.7258 N   0  0  0  0  0  0  0  0  0  0  0  0
    6.2573  -22.2869   22.0351 C   0  0  0  0  0  0  0  0  0  0  0  0
    6.8691  -21.3477   22.7556 N   0  0  0  0  0  0  0  0  0  0  0  0
    9.2205  -17.1539   21.3000 C   0  0  0  0  0  0  0  0  0  0  0  0
   10.4920  -17.0617   21.3408 O   0  0  0  0  0  0  0  0  0  0  0  0
    6.5521  -12.7513   19.5830 C   0  0  0  0  0  0  0  0  0  0  0  0
    7.7059  -13.6736   19.9301 C   0  0  1  0  0  0  0  0  0  0  0  0
    8.8808  -13.2358   19.0440 C   0  0  0  0  0  0  0  0  0  0  0  0
    8.0848  -13.5923   21.3727 C   0  0  0  0  0  0  0  0  0  0  0  0
    9.0448  -14.6599   21.7521 C   0  0  2  0  0  0  0  0  0  0  0  0
    8.4750  -15.9900   21.4951 N   0  0  0  0  0  0  0  0  0  0  0  0
    9.3546  -14.5865   23.1961 C   0  0  0  0  0  0  0  0  0  0  0  0
   10.3137  -13.9408   23.7004 O   0  0  0  0  0  0  0  0  0  0  0  0
    6.3760  -12.1882   26.0608 C   0  0  0  0  0  0  0  0  0  0  0  0
    7.6335  -12.9275   25.6687 C   0  0  0  0  0  0  0  0  0  0  0  0
    7.7324  -14.2959   26.2482 C   0  0  2  0  0  0  0  0  0  0  0  0
    7.9583  -14.1562   27.7389 C   0  0  0  0  0  0  0  0  0  0  0  0
    8.8089  -15.1440   25.6115 C   0  0  2  0  0  0  0  0  0  0  0  0
    8.5538  -15.2745   24.1853 N   0  0  0  0  0  0  0  0  0  0  0  0
    8.8753  -16.5070   26.1820 C   0  0  0  0  0  0  0  0  0  0  0  0
    8.5770  -17.6292   25.4229 O   0  0  0  0  0  0  0  0  0  0  0  0
    9.2065  -16.7188   27.3873 O   0  0  0  0  0  0  0  0  0  0  0  0
  2  1  1  1
  3  2  1  0
  4  3  1  0
  4  8  1  0
  5  6  1  0
  5  4  2  0
  6  7  1  0
  7  8  2  0
  9  2  1  0
 10  9  2  0
 12 14  1  0
 12 11  1  1
 13 12  1  0
 15 14  1  1
 15 16  1  0
 16  9  1  0
 17 18  2  0
 17 15  1  0
 19 20  1  0
 20 21  1  0
 21 23  1  0
 21 22  1  1
 23 24  1  6
 24 17  1  0
 25 26  1  0
 25 23  1  0
 27 25  2  0
M  END
$$$$
