HLI.pdb
     RDKit          3D

 27 27  0  0  1  0  0  0  0  0999 V2000
    9.8195  -15.6332   19.9237 N   0  0  0  0  0  0  0  0  0  0  0  0
    8.8167  -16.0703   20.8638 C   0  0  1  0  0  0  0  0  0  0  0  0
    8.6696  -17.5556   20.6859 C   0  0  0  0  0  0  0  0  0  0  0  0
    8.2428  -17.9254   19.3233 C   0  0  0  0  0  0  0  0  0  0  0  0
    7.0651  -17.4932   18.7516 C   0  0  0  0  0  0  0  0  0  0  0  0
    6.9895  -18.0071   17.5176 N   0  0  0  0  0  0  0  0  0  0  0  0
    8.1018  -18.7570   17.3020 C   0  0  0  0  0  0  0  0  0  0  0  0
    8.8432  -18.6922   18.4072 N   0  0  0  0  0  0  0  0  0  0  0  0
    9.1060  -15.6271   22.2265 C   0  0  0  0  0  0  0  0  0  0  0  0
   10.2421  -15.9287   22.7215 O   0  0  0  0  0  0  0  0  0  0  0  0
    8.7271  -12.3545   26.5809 C   0  0  0  0  0  0  0  0  0  0  0  0
    7.5599  -13.2997   26.3661 C   0  0  1  0  0  0  0  0  0  0  0  0
    6.3206  -12.5745   26.9098 C   0  0  0  0  0  0  0  0  0  0  0  0
    7.3677  -13.6483   24.9264 C   0  0  0  0  0  0  0  0  0  0  0  0
    8.4805  -14.4834   24.4073 C   0  0  2  0  0  0  0  0  0  0  0  0
    8.2215  -14.8951   23.0204 N   0  0  0  0  0  0  0  0  0  0  0  0
    8.6203  -15.7158   25.2122 C   0  0  0  0  0  0  0  0  0  0  0  0
    7.7374  -16.6089   25.3307 O   0  0  0  0  0  0  0  0  0  0  0  0
   12.5094  -18.8746   24.1098 C   0  0  0  0  0  0  0  0  0  0  0  0
   11.2392  -18.2570   24.6454 C   0  0  0  0  0  0  0  0  0  0  0  0
   11.2921  -17.9372   26.0990 C   0  0  2  0  0  0  0  0  0  0  0  0
   11.5958  -19.2179   26.8478 C   0  0  0  0  0  0  0  0  0  0  0  0
   10.0309  -17.2880   26.6199 C   0  0  2  0  0  0  0  0  0  0  0  0
    9.8254  -16.0094   25.9571 N   0  0  0  0  0  0  0  0  0  0  0  0
   10.0771  -17.0359   28.0766 C   0  0  0  0  0  0  0  0  0  0  0  0
    9.6806  -17.9973   28.9947 O   0  0  0  0  0  0  0  0  0  0  0  0
   10.4793  -15.9344   28.5585 O   0  0  0  0  0  0  0  0  0  0  0  0
  2  1  1  6
  3  2  1  0
  4  3  1  0
  4  8  1  0
  5  6  1  0
  5  4  2  0
  6  7  1  0
  7  8  2  0
  9  2  1  0
 10  9  2  0
 12 14  1  0
 12 11  1  6
 13 12  1  0
 15 14  1  1
 15 16  1  0
 16  9  1  0
 17 18  2  0
 17 15  1  0
 19 20  1  0
 20 21  1  0
 21 23  1  0
 21 22  1  1
 23 24  1  6
 24 17  1  0
 25 26  1  0
 25 23  1  0
 27 25  2  0
M  END
$$$$
