NCG.pdb
     RDKit          3D

 19 18  0  0  1  0  0  0  0  0999 V2000
   16.0911  -10.0586  -19.1111 N   0  0  0  0  0  0  0  0  0  0  0  0
   17.4951  -10.0907  -18.8837 C   0  0  0  0  0  0  0  0  0  0  0  0
   18.2069  -10.4915  -19.8146 O   0  0  0  0  0  0  0  0  0  0  0  0
   18.0130   -9.6672  -17.6156 C   0  0  0  0  0  0  0  0  0  0  0  0
   19.2401  -10.3483  -17.0718 C   0  0  2  0  0  0  0  0  0  0  0  0
   18.6770  -11.6018  -16.4706 N   0  0  0  0  0  0  0  0  0  0  0  0
   19.8686   -9.6587  -15.9266 C   0  0  0  0  0  0  0  0  0  0  0  0
   19.1700   -9.4018  -14.9140 O   0  0  0  0  0  0  0  0  0  0  0  0
   21.2255   -9.2632  -15.8873 N   0  0  0  0  0  0  0  0  0  0  0  0
   21.8101   -8.5520  -14.7563 C   0  0  1  0  0  0  0  0  0  0  0  0
   23.1698   -9.1530  -14.5004 C   0  0  0  0  0  0  0  0  0  0  0  0
   23.0448  -10.8012  -13.7574 S   0  0  0  0  0  0  0  0  0  0  0  0
   21.9243   -7.1137  -15.0264 C   0  0  0  0  0  0  0  0  0  0  0  0
   22.4155   -6.3239  -14.1608 O   0  0  0  0  0  0  0  0  0  0  0  0
   21.4965   -6.5688  -16.2439 N   0  0  0  0  0  0  0  0  0  0  0  0
   21.5258   -5.1333  -16.4562 C   0  0  0  0  0  0  0  0  0  0  0  0
   20.3010   -4.4938  -15.9480 C   0  0  0  0  0  0  0  0  0  0  0  0
   19.1964   -5.0804  -16.0391 O   0  0  0  0  0  0  0  0  0  0  0  0
   20.3778   -3.2388  -15.3682 O   0  0  0  0  0  0  0  0  0  0  0  0
  1  2  1  0
  2  3  2  0
  4  5  1  0
  4  2  1  0
  5  6  1  1
  7  5  1  0
  7  8  2  0
  9  7  1  0
 10  9  1  0
 10 11  1  6
 12 11  1  0
 13 10  1  0
 14 13  2  0
 15 13  1  0
 16 15  1  0
 17 19  1  0
 17 16  1  0
 18 17  2  0
M  END
$$$$
