NCG.pdb
     RDKit          3D

 19 18  0  0  1  0  0  0  0  0999 V2000
   16.7852  -13.5976  -18.1090 N   0  0  0  0  0  0  0  0  0  0  0  0
   16.4184  -12.6707  -17.0939 C   0  0  0  0  0  0  0  0  0  0  0  0
   15.2076  -12.4809  -16.9161 O   0  0  0  0  0  0  0  0  0  0  0  0
   17.4433  -12.0119  -16.3381 C   0  0  0  0  0  0  0  0  0  0  0  0
   18.8831  -12.2801  -16.6853 C   0  0  2  0  0  0  0  0  0  0  0  0
   19.1268  -13.6178  -16.0521 N   0  0  0  0  0  0  0  0  0  0  0  0
   19.8525  -11.3899  -16.0146 C   0  0  0  0  0  0  0  0  0  0  0  0
   19.9151  -11.3952  -14.7594 O   0  0  0  0  0  0  0  0  0  0  0  0
   20.7329  -10.5192  -16.6973 N   0  0  0  0  0  0  0  0  0  0  0  0
   21.6264   -9.5961  -16.0071 C   0  0  1  0  0  0  0  0  0  0  0  0
   22.9180   -9.5528  -16.7851 C   0  0  0  0  0  0  0  0  0  0  0  0
   23.9259  -11.0304  -16.4930 S   0  0  0  0  0  0  0  0  0  0  0  0
   21.0397   -8.2543  -15.9061 C   0  0  0  0  0  0  0  0  0  0  0  0
   20.1623   -7.8612  -16.7368 O   0  0  0  0  0  0  0  0  0  0  0  0
   21.4278   -7.3681  -14.8931 N   0  0  0  0  0  0  0  0  0  0  0  0
   20.7552   -6.0914  -14.7374 C   0  0  0  0  0  0  0  0  0  0  0  0
   21.2758   -5.3525  -13.5754 C   0  0  0  0  0  0  0  0  0  0  0  0
   21.6974   -5.9711  -12.5693 O   0  0  0  0  0  0  0  0  0  0  0  0
   21.2966   -3.9683  -13.6015 O   0  0  0  0  0  0  0  0  0  0  0  0
  1  2  1  0
  2  3  2  0
  4  5  1  0
  4  2  1  0
  5  6  1  1
  7  5  1  0
  7  8  2  0
  9  7  1  0
 10  9  1  0
 10 11  1  6
 12 11  1  0
 13 10  1  0
 14 13  2  0
 15 13  1  0
 16 15  1  0
 17 19  1  0
 17 16  1  0
 18 17  2  0
M  END
$$$$
