NCG.pdb
     RDKit          3D

 19 18  0  0  1  0  0  0  0  0999 V2000
   21.7825  -14.2416  -18.9953 N   0  0  0  0  0  0  0  0  0  0  0  0
   20.8772  -13.2861  -18.4554 C   0  0  0  0  0  0  0  0  0  0  0  0
   19.6938  -13.3682  -18.8115 O   0  0  0  0  0  0  0  0  0  0  0  0
   21.3632  -12.2925  -17.5432 C   0  0  0  0  0  0  0  0  0  0  0  0
   22.8398  -12.2341  -17.2573 C   0  0  2  0  0  0  0  0  0  0  0  0
   23.0342  -13.3833  -16.3132 N   0  0  0  0  0  0  0  0  0  0  0  0
   23.2674  -11.0570  -16.4739 C   0  0  0  0  0  0  0  0  0  0  0  0
   22.7165  -10.8308  -15.3672 O   0  0  0  0  0  0  0  0  0  0  0  0
   24.2728  -10.1528  -16.8869 N   0  0  0  0  0  0  0  0  0  0  0  0
   24.7280   -9.0427  -16.0580 C   0  0  1  0  0  0  0  0  0  0  0  0
   26.2336   -9.0054  -16.1421 C   0  0  0  0  0  0  0  0  0  0  0  0
   26.9886  -10.3972  -15.2604 S   0  0  0  0  0  0  0  0  0  0  0  0
   24.1545   -7.7674  -16.5050 C   0  0  0  0  0  0  0  0  0  0  0  0
   24.2749   -7.3844  -17.7104 O   0  0  0  0  0  0  0  0  0  0  0  0
   23.4584   -6.9356  -15.6186 N   0  0  0  0  0  0  0  0  0  0  0  0
   22.8452   -5.7083  -16.0921 C   0  0  0  0  0  0  0  0  0  0  0  0
   22.1366   -5.0123  -15.0054 C   0  0  0  0  0  0  0  0  0  0  0  0
   21.2940   -5.6237  -14.3061 O   0  0  0  0  0  0  0  0  0  0  0  0
   22.4076   -3.6767  -14.7609 O   0  0  0  0  0  0  0  0  0  0  0  0
  1  2  1  0
  2  3  2  0
  4  5  1  0
  4  2  1  0
  5  6  1  1
  7  5  1  0
  7  8  2  0
  9  7  1  0
 10  9  1  0
 10 11  1  6
 12 11  1  0
 13 10  1  0
 14 13  2  0
 15 13  1  0
 16 15  1  0
 17 19  1  0
 17 16  1  0
 18 17  2  0
M  END
$$$$
