NCG.pdb
     RDKit          3D

 19 18  0  0  1  0  0  0  0  0999 V2000
   15.3079  -11.2696  -16.6535 N   0  0  0  0  0  0  0  0  0  0  0  0
   15.4339  -11.2717  -15.2364 C   0  0  0  0  0  0  0  0  0  0  0  0
   14.8335  -12.1620  -14.6194 O   0  0  0  0  0  0  0  0  0  0  0  0
   16.2324  -10.2659  -14.5989 C   0  0  0  0  0  0  0  0  0  0  0  0
   16.9484   -9.2589  -15.4585 C   0  0  2  0  0  0  0  0  0  0  0  0
   17.9471  -10.1065  -16.1893 N   0  0  0  0  0  0  0  0  0  0  0  0
   17.7823   -8.2958  -14.7108 C   0  0  0  0  0  0  0  0  0  0  0  0
   17.2332   -7.5433  -13.8672 O   0  0  0  0  0  0  0  0  0  0  0  0
   19.1797   -8.1607  -14.8778 N   0  0  0  0  0  0  0  0  0  0  0  0
   19.9705   -7.1682  -14.1591 C   0  0  1  0  0  0  0  0  0  0  0  0
   21.2067   -7.8633  -13.6452 C   0  0  0  0  0  0  0  0  0  0  0  0
   22.3226   -6.7099  -12.8031 S   0  0  0  0  0  0  0  0  0  0  0  0
   20.3350   -6.0409  -15.0258 C   0  0  0  0  0  0  0  0  0  0  0  0
   20.8145   -6.2377  -16.1858 O   0  0  0  0  0  0  0  0  0  0  0  0
   20.1656   -4.7166  -14.6018 N   0  0  0  0  0  0  0  0  0  0  0  0
   20.6005   -3.6157  -15.4419 C   0  0  0  0  0  0  0  0  0  0  0  0
   20.3324   -2.3177  -14.8012 C   0  0  0  0  0  0  0  0  0  0  0  0
   19.7134   -2.2657  -13.7117 O   0  0  0  0  0  0  0  0  0  0  0  0
   20.7691   -1.1537  -15.4107 O   0  0  0  0  0  0  0  0  0  0  0  0
  1  2  1  0
  2  3  2  0
  4  5  1  0
  4  2  1  0
  5  6  1  6
  7  5  1  0
  7  8  2  0
  9  7  1  0
 10  9  1  0
 10 11  1  6
 12 11  1  0
 13 10  1  0
 14 13  2  0
 15 13  1  0
 16 15  1  0
 17 19  1  0
 17 16  1  0
 18 17  2  0
M  END
$$$$
