NCG.pdb
     RDKit          3D

 19 18  0  0  1  0  0  0  0  0999 V2000
   17.5137  -12.0834  -16.7107 N   0  0  0  0  0  0  0  0  0  0  0  0
   17.9669  -12.0274  -15.3632 C   0  0  0  0  0  0  0  0  0  0  0  0
   17.8528  -13.0593  -14.6879 O   0  0  0  0  0  0  0  0  0  0  0  0
   18.5235  -10.8068  -14.8575 C   0  0  0  0  0  0  0  0  0  0  0  0
   18.6296   -9.6232  -15.7814 C   0  0  2  0  0  0  0  0  0  0  0  0
   19.7987   -9.9897  -16.6467 N   0  0  0  0  0  0  0  0  0  0  0  0
   19.0543   -8.3691  -15.1265 C   0  0  0  0  0  0  0  0  0  0  0  0
   18.3079   -7.8554  -14.2556 O   0  0  0  0  0  0  0  0  0  0  0  0
   20.2641   -7.6958  -15.4128 N   0  0  0  0  0  0  0  0  0  0  0  0
   20.6010   -6.3966  -14.8425 C   0  0  1  0  0  0  0  0  0  0  0  0
   21.8677   -6.5707  -14.0422 C   0  0  0  0  0  0  0  0  0  0  0  0
   22.3109   -5.0559  -13.1514 S   0  0  0  0  0  0  0  0  0  0  0  0
   20.7863   -5.3824  -15.8875 C   0  0  0  0  0  0  0  0  0  0  0  0
   21.4973   -5.6236  -16.9125 O   0  0  0  0  0  0  0  0  0  0  0  0
   20.1861   -4.1207  -15.7873 N   0  0  0  0  0  0  0  0  0  0  0  0
   20.2488   -3.1879  -16.8976 C   0  0  0  0  0  0  0  0  0  0  0  0
   21.5466   -2.4944  -16.9389 C   0  0  0  0  0  0  0  0  0  0  0  0
   21.9692   -2.0060  -18.0140 O   0  0  0  0  0  0  0  0  0  0  0  0
   22.2981   -2.3851  -15.7812 O   0  0  0  0  0  0  0  0  0  0  0  0
  1  2  1  0
  2  3  2  0
  4  5  1  0
  4  2  1  0
  5  6  1  6
  7  5  1  0
  7  8  2  0
  9  7  1  0
 10  9  1  0
 10 11  1  6
 12 11  1  0
 13 10  1  0
 14 13  2  0
 15 13  1  0
 16 15  1  0
 17 19  1  0
 17 16  1  0
 18 17  2  0
M  END
$$$$
