NCG.pdb
     RDKit          3D

 19 18  0  0  1  0  0  0  0  0999 V2000
   23.8041   -6.4183  -22.0200 N   0  0  0  0  0  0  0  0  0  0  0  0
   24.4357   -7.5224  -21.3827 C   0  0  0  0  0  0  0  0  0  0  0  0
   25.4380   -7.9939  -21.9368 O   0  0  0  0  0  0  0  0  0  0  0  0
   23.8968   -8.0293  -20.1547 C   0  0  0  0  0  0  0  0  0  0  0  0
   22.6849   -7.3585  -19.5656 C   0  0  2  0  0  0  0  0  0  0  0  0
   23.2657   -6.1207  -18.9488 N   0  0  0  0  0  0  0  0  0  0  0  0
   22.0823   -8.0736  -18.4221 C   0  0  0  0  0  0  0  0  0  0  0  0
   21.5763   -9.2081  -18.6131 O   0  0  0  0  0  0  0  0  0  0  0  0
   22.0368   -7.5644  -17.1039 N   0  0  0  0  0  0  0  0  0  0  0  0
   21.3820   -8.2667  -16.0063 C   0  0  1  0  0  0  0  0  0  0  0  0
   22.2869   -8.1662  -14.8036 C   0  0  0  0  0  0  0  0  0  0  0  0
   21.5497   -8.9465  -13.3434 S   0  0  0  0  0  0  0  0  0  0  0  0
   20.0643   -7.6915  -15.7100 C   0  0  0  0  0  0  0  0  0  0  0  0
   19.8645   -6.4396  -15.7942 O   0  0  0  0  0  0  0  0  0  0  0  0
   18.9890   -8.5032  -15.3263 N   0  0  0  0  0  0  0  0  0  0  0  0
   17.6792   -7.9237  -15.0913 C   0  0  0  0  0  0  0  0  0  0  0  0
   16.6168   -8.7435  -15.6967 C   0  0  0  0  0  0  0  0  0  0  0  0
   16.9078   -9.7691  -16.3570 O   0  0  0  0  0  0  0  0  0  0  0  0
   15.2929   -8.3735  -15.5314 O   0  0  0  0  0  0  0  0  0  0  0  0
  1  2  1  0
  2  3  2  0
  4  5  1  0
  4  2  1  0
  5  6  1  1
  7  5  1  0
  7  8  2  0
  9  7  1  0
 10  9  1  0
 10 11  1  1
 12 11  1  0
 13 10  1  0
 14 13  2  0
 15 13  1  0
 16 15  1  0
 17 19  1  0
 17 16  1  0
 18 17  2  0
M  END
$$$$
