NCG.pdb
     RDKit          3D

 19 18  0  0  1  0  0  0  0  0999 V2000
   17.4348  -12.3991  -18.0408 N   0  0  0  0  0  0  0  0  0  0  0  0
   17.9543  -12.7702  -16.7694 C   0  0  0  0  0  0  0  0  0  0  0  0
   17.6517  -13.8933  -16.3440 O   0  0  0  0  0  0  0  0  0  0  0  0
   18.7865  -11.8489  -16.0524 C   0  0  0  0  0  0  0  0  0  0  0  0
   19.0941  -10.5148  -16.6781 C   0  0  2  0  0  0  0  0  0  0  0  0
   20.1590  -10.8612  -17.6759 N   0  0  0  0  0  0  0  0  0  0  0  0
   19.7560   -9.5512  -15.7751 C   0  0  0  0  0  0  0  0  0  0  0  0
   19.0786   -9.0023  -14.8700 O   0  0  0  0  0  0  0  0  0  0  0  0
   21.1229   -9.1991  -15.8565 N   0  0  0  0  0  0  0  0  0  0  0  0
   21.7664   -8.2992  -14.9064 C   0  0  1  0  0  0  0  0  0  0  0  0
   23.1701   -8.8055  -14.6859 C   0  0  0  0  0  0  0  0  0  0  0  0
   23.1857  -10.3359  -13.7153 S   0  0  0  0  0  0  0  0  0  0  0  0
   21.7882   -6.9183  -15.4038 C   0  0  0  0  0  0  0  0  0  0  0  0
   22.4182   -6.0091  -14.7787 O   0  0  0  0  0  0  0  0  0  0  0  0
   21.1171   -6.5612  -16.5804 N   0  0  0  0  0  0  0  0  0  0  0  0
   21.1008   -5.1798  -17.0257 C   0  0  0  0  0  0  0  0  0  0  0  0
   19.9718   -4.4424  -16.4352 C   0  0  0  0  0  0  0  0  0  0  0  0
   19.1997   -5.0094  -15.6257 O   0  0  0  0  0  0  0  0  0  0  0  0
   19.7684   -3.1170  -16.7803 O   0  0  0  0  0  0  0  0  0  0  0  0
  1  2  1  0
  2  3  2  0
  4  5  1  0
  4  2  1  0
  5  6  1  6
  7  5  1  0
  7  8  2  0
  9  7  1  0
 10  9  1  0
 10 11  1  6
 12 11  1  0
 13 10  1  0
 14 13  2  0
 15 13  1  0
 16 15  1  0
 17 19  1  0
 17 16  1  0
 18 17  2  0
M  END
$$$$
