NCG.pdb
     RDKit          3D

 19 18  0  0  1  0  0  0  0  0999 V2000
   22.2787  -13.3093  -20.6355 N   0  0  0  0  0  0  0  0  0  0  0  0
   21.4094  -12.2918  -20.1527 C   0  0  0  0  0  0  0  0  0  0  0  0
   20.3927  -12.0571  -20.8198 O   0  0  0  0  0  0  0  0  0  0  0  0
   21.7407  -11.5985  -18.9424 C   0  0  0  0  0  0  0  0  0  0  0  0
   23.0215  -11.9511  -18.2345 C   0  0  2  0  0  0  0  0  0  0  0  0
   22.6238  -13.1446  -17.4177 N   0  0  0  0  0  0  0  0  0  0  0  0
   23.4583  -10.9630  -17.2270 C   0  0  0  0  0  0  0  0  0  0  0  0
   22.7898  -10.8365  -16.1703 O   0  0  0  0  0  0  0  0  0  0  0  0
   24.5973  -10.1375  -17.3685 N   0  0  0  0  0  0  0  0  0  0  0  0
   25.0503   -9.2276  -16.3228 C   0  0  1  0  0  0  0  0  0  0  0  0
   26.5535   -9.3327  -16.2541 C   0  0  0  0  0  0  0  0  0  0  0  0
   27.0845  -10.9540  -15.6427 S   0  0  0  0  0  0  0  0  0  0  0  0
   24.6419   -7.8449  -16.5992 C   0  0  0  0  0  0  0  0  0  0  0  0
   24.9627   -7.2748  -17.6883 O   0  0  0  0  0  0  0  0  0  0  0  0
   23.8874   -7.1133  -15.6730 N   0  0  0  0  0  0  0  0  0  0  0  0
   23.4790   -5.7526  -15.9705 C   0  0  0  0  0  0  0  0  0  0  0  0
   22.7009   -5.1750  -14.8623 C   0  0  0  0  0  0  0  0  0  0  0  0
   22.3881   -5.8803  -13.8737 O   0  0  0  0  0  0  0  0  0  0  0  0
   22.3165   -3.8461  -14.9196 O   0  0  0  0  0  0  0  0  0  0  0  0
  1  2  1  0
  2  3  2  0
  4  5  1  0
  4  2  1  0
  5  6  1  1
  7  5  1  0
  7  8  2  0
  9  7  1  0
 10  9  1  0
 10 11  1  6
 12 11  1  0
 13 10  1  0
 14 13  2  0
 15 13  1  0
 16 15  1  0
 17 19  1  0
 17 16  1  0
 18 17  2  0
M  END
$$$$
