NCG.pdb
     RDKit          3D

 19 18  0  0  1  0  0  0  0  0999 V2000
   29.2058  -18.3912  -16.8175 N   0  0  0  0  0  0  0  0  0  0  0  0
   27.8285  -18.0727  -16.6568 C   0  0  0  0  0  0  0  0  0  0  0  0
   27.4010  -17.0924  -17.2814 O   0  0  0  0  0  0  0  0  0  0  0  0
   27.0141  -18.8822  -15.7983 C   0  0  0  0  0  0  0  0  0  0  0  0
   27.6468  -20.0522  -15.0938 C   0  0  2  0  0  0  0  0  0  0  0  0
   27.7850  -21.0599  -16.1962 N   0  0  0  0  0  0  0  0  0  0  0  0
   26.7724  -20.7226  -14.1099 C   0  0  0  0  0  0  0  0  0  0  0  0
   25.9616  -21.5945  -14.5122 O   0  0  0  0  0  0  0  0  0  0  0  0
   26.7857  -20.4501  -12.7226 N   0  0  0  0  0  0  0  0  0  0  0  0
   25.8242  -21.0308  -11.7926 C   0  0  1  0  0  0  0  0  0  0  0  0
   26.2884  -20.6959  -10.3970 C   0  0  0  0  0  0  0  0  0  0  0  0
   25.0749  -21.1990   -9.1485 S   0  0  0  0  0  0  0  0  0  0  0  0
   24.4708  -20.5117  -12.0246 C   0  0  0  0  0  0  0  0  0  0  0  0
   24.2754  -19.2774  -12.2535 O   0  0  0  0  0  0  0  0  0  0  0  0
   23.3557  -21.3593  -12.0012 N   0  0  0  0  0  0  0  0  0  0  0  0
   22.0161  -20.8131  -12.1180 C   0  0  0  0  0  0  0  0  0  0  0  0
   21.4788  -21.0038  -13.4753 C   0  0  0  0  0  0  0  0  0  0  0  0
   22.1923  -21.5122  -14.3726 O   0  0  0  0  0  0  0  0  0  0  0  0
   20.1788  -20.6175  -13.7542 O   0  0  0  0  0  0  0  0  0  0  0  0
  1  2  1  0
  2  3  2  0
  4  5  1  0
  4  2  1  0
  5  6  1  6
  7  5  1  0
  7  8  2  0
  9  7  1  0
 10  9  1  0
 10 11  1  1
 12 11  1  0
 13 10  1  0
 14 13  2  0
 15 13  1  0
 16 15  1  0
 17 19  1  0
 17 16  1  0
 18 17  2  0
M  END
$$$$
