NCG.pdb
     RDKit          3D

 19 18  0  0  1  0  0  0  0  0999 V2000
   23.4003  -15.2586  -20.7661 N   0  0  0  0  0  0  0  0  0  0  0  0
   23.6274  -15.6570  -19.4193 C   0  0  0  0  0  0  0  0  0  0  0  0
   23.5344  -16.8659  -19.1668 O   0  0  0  0  0  0  0  0  0  0  0  0
   23.9469  -14.6642  -18.4356 C   0  0  0  0  0  0  0  0  0  0  0  0
   23.9654  -13.2169  -18.8486 C   0  0  2  0  0  0  0  0  0  0  0  0
   25.2620  -13.1079  -19.5948 N   0  0  0  0  0  0  0  0  0  0  0  0
   24.1189  -12.2617  -17.7323 C   0  0  0  0  0  0  0  0  0  0  0  0
   23.2306  -12.2168  -16.8444 O   0  0  0  0  0  0  0  0  0  0  0  0
   25.2156  -11.3812  -17.5879 N   0  0  0  0  0  0  0  0  0  0  0  0
   25.2989  -10.3887  -16.5227 C   0  0  1  0  0  0  0  0  0  0  0  0
   26.7617  -10.1516  -16.2411 C   0  0  0  0  0  0  0  0  0  0  0  0
   27.5629  -11.6314  -15.5682 S   0  0  0  0  0  0  0  0  0  0  0  0
   24.6369   -9.1349  -16.9031 C   0  0  0  0  0  0  0  0  0  0  0  0
   24.7475   -8.6692  -18.0800 O   0  0  0  0  0  0  0  0  0  0  0  0
   23.8645   -8.4150  -15.9825 N   0  0  0  0  0  0  0  0  0  0  0  0
   23.0668   -7.2838  -16.4196 C   0  0  0  0  0  0  0  0  0  0  0  0
   22.2956   -6.7122  -15.3036 C   0  0  0  0  0  0  0  0  0  0  0  0
   22.2310   -7.3140  -14.2052 O   0  0  0  0  0  0  0  0  0  0  0  0
   21.6414   -5.5040  -15.4756 O   0  0  0  0  0  0  0  0  0  0  0  0
  1  2  1  0
  2  3  2  0
  4  5  1  0
  4  2  1  0
  5  6  1  6
  7  5  1  0
  7  8  2  0
  9  7  1  0
 10  9  1  0
 10 11  1  6
 12 11  1  0
 13 10  1  0
 14 13  2  0
 15 13  1  0
 16 15  1  0
 17 19  1  0
 17 16  1  0
 18 17  2  0
M  END
$$$$
