NCG.pdb
     RDKit          3D

 19 18  0  0  1  0  0  0  0  0999 V2000
   16.6560  -12.1357  -16.3412 N   0  0  0  0  0  0  0  0  0  0  0  0
   15.6499  -11.5938  -15.4938 C   0  0  0  0  0  0  0  0  0  0  0  0
   14.5202  -12.0959  -15.5692 O   0  0  0  0  0  0  0  0  0  0  0  0
   15.9800  -10.5146  -14.6096 C   0  0  0  0  0  0  0  0  0  0  0  0
   17.3971  -10.0076  -14.5853 C   0  0  2  0  0  0  0  0  0  0  0  0
   18.0933  -11.0281  -13.7347 N   0  0  0  0  0  0  0  0  0  0  0  0
   17.5842   -8.7432  -13.8446 C   0  0  0  0  0  0  0  0  0  0  0  0
   17.0303   -7.6999  -14.2737 O   0  0  0  0  0  0  0  0  0  0  0  0
   18.3532   -8.6226  -12.6644 N   0  0  0  0  0  0  0  0  0  0  0  0
   18.6128   -7.3423  -12.0162 C   0  0  1  0  0  0  0  0  0  0  0  0
   18.4442   -7.5467  -10.5312 C   0  0  0  0  0  0  0  0  0  0  0  0
   18.9066   -6.0658   -9.5944 S   0  0  0  0  0  0  0  0  0  0  0  0
   19.9622   -6.8500  -12.3193 C   0  0  0  0  0  0  0  0  0  0  0  0
   20.9801   -7.5922  -12.1545 O   0  0  0  0  0  0  0  0  0  0  0  0
   20.1686   -5.5501  -12.7987 N   0  0  0  0  0  0  0  0  0  0  0  0
   21.5065   -5.0925  -13.1264 C   0  0  0  0  0  0  0  0  0  0  0  0
   21.4783   -3.7490  -13.7277 C   0  0  0  0  0  0  0  0  0  0  0  0
   20.3837   -3.1891  -13.9746 O   0  0  0  0  0  0  0  0  0  0  0  0
   22.6703   -3.1076  -14.0188 O   0  0  0  0  0  0  0  0  0  0  0  0
  1  2  1  0
  2  3  2  0
  4  5  1  0
  4  2  1  0
  5  6  1  1
  7  5  1  0
  7  8  2  0
  9  7  1  0
 10  9  1  0
 10 11  1  1
 12 11  1  0
 13 10  1  0
 14 13  2  0
 15 13  1  0
 16 15  1  0
 17 19  1  0
 17 16  1  0
 18 17  2  0
M  END
$$$$
