NCG.pdb
     RDKit          3D

 19 18  0  0  1  0  0  0  0  0999 V2000
   17.4185  -14.7878  -16.2191 N   0  0  0  0  0  0  0  0  0  0  0  0
   18.2664  -13.8897  -16.9254 C   0  0  0  0  0  0  0  0  0  0  0  0
   18.1249  -13.8312  -18.1544 O   0  0  0  0  0  0  0  0  0  0  0  0
   19.2257  -13.1093  -16.2000 C   0  0  0  0  0  0  0  0  0  0  0  0
   19.7269  -11.8286  -16.8118 C   0  0  2  0  0  0  0  0  0  0  0  0
   20.6395  -12.3210  -17.8955 N   0  0  0  0  0  0  0  0  0  0  0  0
   20.6139  -11.0358  -15.9361 C   0  0  0  0  0  0  0  0  0  0  0  0
   20.2129  -10.7248  -14.7864 O   0  0  0  0  0  0  0  0  0  0  0  0
   21.9063  -10.5973  -16.3054 N   0  0  0  0  0  0  0  0  0  0  0  0
   22.7842   -9.8680  -15.3975 C   0  0  1  0  0  0  0  0  0  0  0  0
   24.1913  -10.3515  -15.6461 C   0  0  0  0  0  0  0  0  0  0  0  0
   24.4255  -12.0548  -15.0731 S   0  0  0  0  0  0  0  0  0  0  0  0
   22.6919   -8.4183  -15.6090 C   0  0  0  0  0  0  0  0  0  0  0  0
   22.4658   -7.9402  -16.7643 O   0  0  0  0  0  0  0  0  0  0  0  0
   22.8494   -7.5195  -14.5462 N   0  0  0  0  0  0  0  0  0  0  0  0
   22.5921   -6.1040  -14.7379 C   0  0  0  0  0  0  0  0  0  0  0  0
   21.7831   -5.5552  -13.6372 C   0  0  0  0  0  0  0  0  0  0  0  0
   20.6373   -6.0097  -13.4064 O   0  0  0  0  0  0  0  0  0  0  0  0
   22.2970   -4.5326  -12.8579 O   0  0  0  0  0  0  0  0  0  0  0  0
  1  2  1  0
  2  3  2  0
  4  5  1  0
  4  2  1  0
  5  6  1  6
  7  5  1  0
  7  8  2  0
  9  7  1  0
 10  9  1  0
 10 11  1  6
 12 11  1  0
 13 10  1  0
 14 13  2  0
 15 13  1  0
 16 15  1  0
 17 19  1  0
 17 16  1  0
 18 17  2  0
M  END
$$$$
