NCG.pdb
     RDKit          3D

 19 18  0  0  1  0  0  0  0  0999 V2000
   16.5275  -12.8343  -16.9081 N   0  0  0  0  0  0  0  0  0  0  0  0
   15.4491  -12.1958  -16.2347 C   0  0  0  0  0  0  0  0  0  0  0  0
   14.3397  -12.7418  -16.3047 O   0  0  0  0  0  0  0  0  0  0  0  0
   15.6883  -10.9758  -15.5205 C   0  0  0  0  0  0  0  0  0  0  0  0
   17.0880  -10.4237  -15.4811 C   0  0  2  0  0  0  0  0  0  0  0  0
   17.7658  -11.3254  -14.4925 N   0  0  0  0  0  0  0  0  0  0  0  0
   17.2021   -9.0826  -14.8722 C   0  0  0  0  0  0  0  0  0  0  0  0
   16.1876   -8.3417  -14.8396 O   0  0  0  0  0  0  0  0  0  0  0  0
   18.3924   -8.5660  -14.3106 N   0  0  0  0  0  0  0  0  0  0  0  0
   18.4607   -7.2611  -13.6631 C   0  0  1  0  0  0  0  0  0  0  0  0
   17.7695   -7.3839  -12.3280 C   0  0  0  0  0  0  0  0  0  0  0  0
   18.6481   -8.5179  -11.2205 S   0  0  0  0  0  0  0  0  0  0  0  0
   19.8498   -6.8206  -13.4863 C   0  0  0  0  0  0  0  0  0  0  0  0
   20.8037   -7.6596  -13.4705 O   0  0  0  0  0  0  0  0  0  0  0  0
   20.1658   -5.4648  -13.3304 N   0  0  0  0  0  0  0  0  0  0  0  0
   21.5482   -5.0446  -13.1917 C   0  0  0  0  0  0  0  0  0  0  0  0
   22.1627   -4.7907  -14.5051 C   0  0  0  0  0  0  0  0  0  0  0  0
   23.3214   -4.3169  -14.5806 O   0  0  0  0  0  0  0  0  0  0  0  0
   21.4515   -5.0792  -15.6575 O   0  0  0  0  0  0  0  0  0  0  0  0
  1  2  1  0
  2  3  2  0
  4  5  1  0
  4  2  1  0
  5  6  1  1
  7  5  1  0
  7  8  2  0
  9  7  1  0
 10  9  1  0
 10 11  1  1
 12 11  1  0
 13 10  1  0
 14 13  2  0
 15 13  1  0
 16 15  1  0
 17 19  1  0
 17 16  1  0
 18 17  2  0
M  END
$$$$
