EKD.pdb
     RDKit          3D

 27 26  0  0  1  0  0  0  0  0999 V2000
   33.7560  -33.6764  -14.8097 N   0  0  0  0  0  0  0  0  0  0  0  0
   34.3305  -32.4279  -15.2187 C   0  0  1  0  0  0  0  0  0  0  0  0
   35.8249  -32.5007  -15.3293 C   0  0  0  0  0  0  0  0  0  0  0  0
   36.3320  -33.1195  -14.0202 C   0  0  0  0  0  0  0  0  0  0  0  0
   37.7618  -33.4583  -14.1296 C   0  0  0  0  0  0  0  0  0  0  0  0
   38.3826  -33.1865  -15.1727 O   0  0  0  0  0  0  0  0  0  0  0  0
   33.6711  -31.8688  -16.4102 C   0  0  0  0  0  0  0  0  0  0  0  0
   33.9946  -30.7982  -16.9718 O   0  0  0  0  0  0  0  0  0  0  0  0
   38.4100  -34.0747  -13.0776 O   0  0  0  0  0  0  0  0  0  0  0  0
   32.5716  -32.6106  -16.9697 N   0  0  0  0  0  0  0  0  0  0  0  0
   31.9821  -32.1801  -18.2242 C   0  0  1  0  0  0  0  0  0  0  0  0
   32.2182  -33.1535  -19.3568 C   0  0  0  0  0  0  0  0  0  0  0  0
   32.9416  -32.4410  -20.4596 C   0  0  0  0  0  0  0  0  0  0  0  0
   34.2578  -31.8394  -20.0210 C   0  0  0  0  0  0  0  0  0  0  0  0
   34.9204  -31.1282  -21.1577 C   0  0  0  0  0  0  0  0  0  0  0  0
   36.1372  -30.4624  -20.7393 N   0  0  0  0  0  0  0  0  0  0  0  0
   30.5025  -32.0561  -18.0618 C   0  0  0  0  0  0  0  0  0  0  0  0
   29.9242  -32.9414  -17.3707 O   0  0  0  0  0  0  0  0  0  0  0  0
   29.7567  -31.0107  -18.6396 N   0  0  0  0  0  0  0  0  0  0  0  0
   28.3258  -30.9838  -18.4342 C   0  0  1  0  0  0  0  0  0  0  0  0
   27.9384  -29.8448  -17.4880 C   0  0  0  0  0  0  0  0  0  0  0  0
   26.4840  -29.9178  -17.2201 C   0  0  0  0  0  0  0  0  0  0  0  0
   25.7641  -30.8018  -17.7185 O   0  0  0  0  0  0  0  0  0  0  0  0
   27.6299  -30.8193  -19.7200 C   0  0  0  0  0  0  0  0  0  0  0  0
   26.4587  -31.2395  -19.8435 O   0  0  0  0  0  0  0  0  0  0  0  0
   25.9024  -28.9575  -16.3769 O   0  0  0  0  0  0  0  0  0  0  0  0
   28.2570  -30.2134  -20.7709 O   0  0  0  0  0  0  0  0  0  0  0  0
  2  1  1  6
  2  7  1  0
  2  3  1  0
  4  3  1  0
  4  5  1  0
  5  6  2  0
  7  8  2  0
  9  5  1  0
 10 11  1  0
 10  7  1  0
 11 12  1  6
 13 12  1  0
 14 15  1  0
 14 13  1  0
 16 15  1  0
 17 11  1  0
 18 17  2  0
 19 17  1  0
 20 24  1  0
 20 19  1  0
 20 21  1  1
 22 21  1  0
 23 22  2  0
 24 27  1  0
 25 24  2  0
 26 22  1  0
M  END
$$$$
