EKD.pdb
     RDKit          3D

 27 26  0  0  1  0  0  0  0  0999 V2000
   25.7727  -15.8133  -18.1660 N   0  0  0  0  0  0  0  0  0  0  0  0
   24.5696  -16.3986  -18.6821 C   0  0  1  0  0  0  0  0  0  0  0  0
   24.6320  -16.6067  -20.1665 C   0  0  0  0  0  0  0  0  0  0  0  0
   25.9600  -17.3190  -20.4542 C   0  0  0  0  0  0  0  0  0  0  0  0
   26.1278  -17.5326  -21.9024 C   0  0  0  0  0  0  0  0  0  0  0  0
   26.6156  -16.6309  -22.6069 O   0  0  0  0  0  0  0  0  0  0  0  0
   24.1582  -17.5949  -17.9292 C   0  0  0  0  0  0  0  0  0  0  0  0
   23.1025  -18.2374  -18.1265 O   0  0  0  0  0  0  0  0  0  0  0  0
   25.7452  -18.7296  -22.4750 O   0  0  0  0  0  0  0  0  0  0  0  0
   25.0375  -18.0586  -16.8881 N   0  0  0  0  0  0  0  0  0  0  0  0
   24.6649  -19.2196  -16.1006 C   0  0  1  0  0  0  0  0  0  0  0  0
   25.7307  -19.6335  -15.1112 C   0  0  0  0  0  0  0  0  0  0  0  0
   25.3119  -20.9193  -14.4641 C   0  0  0  0  0  0  0  0  0  0  0  0
   25.5392  -22.1314  -15.3393 C   0  0  0  0  0  0  0  0  0  0  0  0
   25.0946  -23.3783  -14.6433 C   0  0  0  0  0  0  0  0  0  0  0  0
   25.0960  -24.5210  -15.5340 N   0  0  0  0  0  0  0  0  0  0  0  0
   23.4365  -18.9104  -15.3091 C   0  0  0  0  0  0  0  0  0  0  0  0
   23.3896  -17.7848  -14.7376 O   0  0  0  0  0  0  0  0  0  0  0  0
   22.3613  -19.8113  -15.1866 N   0  0  0  0  0  0  0  0  0  0  0  0
   21.1967  -19.4029  -14.4333 C   0  0  1  0  0  0  0  0  0  0  0  0
   20.4653  -18.2635  -15.1470 C   0  0  0  0  0  0  0  0  0  0  0  0
   19.1739  -18.0209  -14.4646 C   0  0  0  0  0  0  0  0  0  0  0  0
   18.4348  -18.9526  -14.0989 O   0  0  0  0  0  0  0  0  0  0  0  0
   20.2832  -20.5417  -14.2509 C   0  0  0  0  0  0  0  0  0  0  0  0
   19.4633  -20.5272  -13.3070 O   0  0  0  0  0  0  0  0  0  0  0  0
   18.7739  -16.6966  -14.2244 O   0  0  0  0  0  0  0  0  0  0  0  0
   20.3299  -21.6066  -15.1045 O   0  0  0  0  0  0  0  0  0  0  0  0
  2  1  1  1
  2  7  1  0
  2  3  1  0
  4  3  1  0
  4  5  1  0
  5  6  2  0
  7  8  2  0
  9  5  1  0
 10 11  1  0
 10  7  1  0
 11 12  1  1
 13 12  1  0
 14 15  1  0
 14 13  1  0
 16 15  1  0
 17 11  1  0
 18 17  2  0
 19 17  1  0
 20 24  1  0
 20 19  1  0
 20 21  1  6
 22 21  1  0
 23 22  2  0
 24 27  1  0
 25 24  2  0
 26 22  1  0
M  END
$$$$
