EKD.pdb
     RDKit          3D

 27 26  0  0  1  0  0  0  0  0999 V2000
   16.1970  -14.9159  -16.2113 N   0  0  0  0  0  0  0  0  0  0  0  0
   16.5563  -14.0320  -15.1409 C   0  0  1  0  0  0  0  0  0  0  0  0
   18.0262  -14.0707  -14.8430 C   0  0  0  0  0  0  0  0  0  0  0  0
   18.7231  -14.5255  -16.1319 C   0  0  0  0  0  0  0  0  0  0  0  0
   19.1742  -15.9228  -16.0091 C   0  0  0  0  0  0  0  0  0  0  0  0
   18.8641  -16.5855  -15.0031 O   0  0  0  0  0  0  0  0  0  0  0  0
   16.0221  -12.6733  -15.3299 C   0  0  0  0  0  0  0  0  0  0  0  0
   15.8099  -12.1350  -16.4396 O   0  0  0  0  0  0  0  0  0  0  0  0
   19.9381  -16.4944  -17.0075 O   0  0  0  0  0  0  0  0  0  0  0  0
   15.7221  -11.9079  -14.1482 N   0  0  0  0  0  0  0  0  0  0  0  0
   15.0346  -10.6359  -14.2744 C   0  0  1  0  0  0  0  0  0  0  0  0
   14.0924  -10.3531  -13.1262 C   0  0  0  0  0  0  0  0  0  0  0  0
   12.8878  -11.2345  -13.2652 C   0  0  0  0  0  0  0  0  0  0  0  0
   11.8353  -10.9801  -12.2095 C   0  0  0  0  0  0  0  0  0  0  0  0
   10.7049  -11.9502  -12.3436 C   0  0  0  0  0  0  0  0  0  0  0  0
    9.7185  -11.7746  -11.2971 N   0  0  0  0  0  0  0  0  0  0  0  0
   16.0369   -9.5286  -14.2942 C   0  0  0  0  0  0  0  0  0  0  0  0
   16.9635   -9.5770  -13.4369 O   0  0  0  0  0  0  0  0  0  0  0  0
   15.9799   -8.4646  -15.2147 N   0  0  0  0  0  0  0  0  0  0  0  0
   16.9996   -7.4411  -15.1559 C   0  0  1  0  0  0  0  0  0  0  0  0
   17.3349   -6.9330  -16.5601 C   0  0  0  0  0  0  0  0  0  0  0  0
   18.3694   -5.8790  -16.4542 C   0  0  0  0  0  0  0  0  0  0  0  0
   18.8729   -5.5548  -15.3635 O   0  0  0  0  0  0  0  0  0  0  0  0
   16.5479   -6.3201  -14.3170 C   0  0  0  0  0  0  0  0  0  0  0  0
   15.3239   -6.0912  -14.2034 O   0  0  0  0  0  0  0  0  0  0  0  0
   18.7930   -5.2270  -17.6233 O   0  0  0  0  0  0  0  0  0  0  0  0
   17.4571   -5.5349  -13.6676 O   0  0  0  0  0  0  0  0  0  0  0  0
  2  1  1  6
  2  7  1  0
  2  3  1  0
  4  3  1  0
  4  5  1  0
  5  6  2  0
  7  8  2  0
  9  5  1  0
 10 11  1  0
 10  7  1  0
 11 12  1  1
 13 12  1  0
 14 15  1  0
 14 13  1  0
 16 15  1  0
 17 11  1  0
 18 17  2  0
 19 17  1  0
 20 24  1  0
 20 19  1  0
 20 21  1  6
 22 21  1  0
 23 22  2  0
 24 27  1  0
 25 24  2  0
 26 22  1  0
M  END
$$$$
