EKD.pdb
     RDKit          3D

 27 26  0  0  1  0  0  0  0  0999 V2000
   18.1463  -11.6320  -17.3520 N   0  0  0  0  0  0  0  0  0  0  0  0
   18.2395  -11.7437  -15.9255 C   0  0  1  0  0  0  0  0  0  0  0  0
   17.8756  -13.1156  -15.4393 C   0  0  0  0  0  0  0  0  0  0  0  0
   16.4345  -13.3753  -15.8972 C   0  0  0  0  0  0  0  0  0  0  0  0
   15.4867  -13.0859  -14.8069 C   0  0  0  0  0  0  0  0  0  0  0  0
   15.3254  -13.9143  -13.8929 O   0  0  0  0  0  0  0  0  0  0  0  0
   19.5244  -11.2483  -15.4051 C   0  0  0  0  0  0  0  0  0  0  0  0
   19.8685  -11.2756  -14.2022 O   0  0  0  0  0  0  0  0  0  0  0  0
   14.7804  -11.8993  -14.7997 O   0  0  0  0  0  0  0  0  0  0  0  0
   20.4534  -10.6906  -16.3529 N   0  0  0  0  0  0  0  0  0  0  0  0
   21.7126  -10.1422  -15.8835 C   0  0  1  0  0  0  0  0  0  0  0  0
   22.8737  -10.4494  -16.8018 C   0  0  0  0  0  0  0  0  0  0  0  0
   24.1418  -10.0024  -16.1389 C   0  0  0  0  0  0  0  0  0  0  0  0
   25.3651  -10.1713  -17.0118 C   0  0  0  0  0  0  0  0  0  0  0  0
   26.6096   -9.8471  -16.2484 C   0  0  0  0  0  0  0  0  0  0  0  0
   27.7945   -9.9756  -17.0722 N   0  0  0  0  0  0  0  0  0  0  0  0
   21.6076   -8.6545  -15.8016 C   0  0  0  0  0  0  0  0  0  0  0  0
   21.6915   -8.0122  -16.8861 O   0  0  0  0  0  0  0  0  0  0  0  0
   21.4223   -7.9687  -14.5858 N   0  0  0  0  0  0  0  0  0  0  0  0
   21.4405   -6.5230  -14.5952 C   0  0  1  0  0  0  0  0  0  0  0  0
   20.0519   -5.9644  -14.2754 C   0  0  0  0  0  0  0  0  0  0  0  0
   19.1949   -6.0940  -15.4758 C   0  0  0  0  0  0  0  0  0  0  0  0
   19.6348   -6.5208  -16.5586 O   0  0  0  0  0  0  0  0  0  0  0  0
   22.4158   -6.0197  -13.6155 C   0  0  0  0  0  0  0  0  0  0  0  0
   22.7359   -4.8111  -13.6317 O   0  0  0  0  0  0  0  0  0  0  0  0
   17.8438   -5.7227  -15.3858 O   0  0  0  0  0  0  0  0  0  0  0  0
   22.9679   -6.8646  -12.6957 O   0  0  0  0  0  0  0  0  0  0  0  0
  2  1  1  6
  2  7  1  0
  2  3  1  0
  4  3  1  0
  4  5  1  0
  5  6  2  0
  7  8  2  0
  9  5  1  0
 10 11  1  0
 10  7  1  0
 11 12  1  6
 13 12  1  0
 14 15  1  0
 14 13  1  0
 16 15  1  0
 17 11  1  0
 18 17  2  0
 19 17  1  0
 20 24  1  0
 20 19  1  0
 20 21  1  1
 22 21  1  0
 23 22  2  0
 24 27  1  0
 25 24  2  0
 26 22  1  0
M  END
$$$$
