EKD.pdb
     RDKit          3D

 27 26  0  0  1  0  0  0  0  0999 V2000
   27.8064  -18.9696  -15.3060 N   0  0  0  0  0  0  0  0  0  0  0  0
   26.9451  -18.1901  -16.1467 C   0  0  1  0  0  0  0  0  0  0  0  0
   27.6548  -17.6771  -17.3648 C   0  0  0  0  0  0  0  0  0  0  0  0
   28.8532  -18.6062  -17.5982 C   0  0  0  0  0  0  0  0  0  0  0  0
   29.5543  -18.2416  -18.8418 C   0  0  0  0  0  0  0  0  0  0  0  0
   29.2327  -17.2057  -19.4508 O   0  0  0  0  0  0  0  0  0  0  0  0
   25.6756  -18.8750  -16.4406 C   0  0  0  0  0  0  0  0  0  0  0  0
   24.8025  -18.4560  -17.2333 O   0  0  0  0  0  0  0  0  0  0  0  0
   30.5648  -19.0469  -19.3290 O   0  0  0  0  0  0  0  0  0  0  0  0
   25.4211  -20.1199  -15.7642 N   0  0  0  0  0  0  0  0  0  0  0  0
   24.1770  -20.8263  -16.0086 C   0  0  1  0  0  0  0  0  0  0  0  0
   24.2694  -22.3085  -15.7246 C   0  0  0  0  0  0  0  0  0  0  0  0
   25.5067  -22.8466  -16.3779 C   0  0  0  0  0  0  0  0  0  0  0  0
   25.6483  -24.3465  -16.2472 C   0  0  0  0  0  0  0  0  0  0  0  0
   26.8901  -24.8231  -16.9312 C   0  0  0  0  0  0  0  0  0  0  0  0
   27.0947  -26.2452  -16.7445 N   0  0  0  0  0  0  0  0  0  0  0  0
   23.1113  -20.2804  -15.1157 C   0  0  0  0  0  0  0  0  0  0  0  0
   23.4862  -19.5617  -14.1468 O   0  0  0  0  0  0  0  0  0  0  0  0
   21.7415  -20.5361  -15.3183 N   0  0  0  0  0  0  0  0  0  0  0  0
   20.7735  -19.7488  -14.5877 C   0  0  1  0  0  0  0  0  0  0  0  0
   20.9117  -18.2650  -14.9368 C   0  0  0  0  0  0  0  0  0  0  0  0
   19.8725  -17.5023  -14.2083 C   0  0  0  0  0  0  0  0  0  0  0  0
   19.2931  -17.9642  -13.2087 O   0  0  0  0  0  0  0  0  0  0  0  0
   19.4093  -20.2060  -14.8949 C   0  0  0  0  0  0  0  0  0  0  0  0
   19.1623  -20.6916  -16.0203 O   0  0  0  0  0  0  0  0  0  0  0  0
   19.5328  -16.2180  -14.6626 O   0  0  0  0  0  0  0  0  0  0  0  0
   18.4199  -20.1010  -13.9595 O   0  0  0  0  0  0  0  0  0  0  0  0
  2  1  1  6
  2  7  1  0
  2  3  1  0
  4  3  1  0
  4  5  1  0
  5  6  2  0
  7  8  2  0
  9  5  1  0
 10 11  1  0
 10  7  1  0
 11 12  1  1
 13 12  1  0
 14 15  1  0
 14 13  1  0
 16 15  1  0
 17 11  1  0
 18 17  2  0
 19 17  1  0
 20 24  1  0
 20 19  1  0
 20 21  1  6
 22 21  1  0
 23 22  2  0
 24 27  1  0
 25 24  2  0
 26 22  1  0
M  END
$$$$
