EKD.pdb
     RDKit          3D

 27 26  0  0  1  0  0  0  0  0999 V2000
   19.9986  -14.4207  -17.3794 N   0  0  0  0  0  0  0  0  0  0  0  0
   19.2938  -13.1979  -17.1260 C   0  0  1  0  0  0  0  0  0  0  0  0
   18.4620  -13.2708  -15.8796 C   0  0  0  0  0  0  0  0  0  0  0  0
   17.4968  -14.4489  -16.0647 C   0  0  0  0  0  0  0  0  0  0  0  0
   16.5613  -14.5327  -14.9294 C   0  0  0  0  0  0  0  0  0  0  0  0
   16.6612  -15.4676  -14.1149 O   0  0  0  0  0  0  0  0  0  0  0  0
   20.1729  -12.0187  -17.1878 C   0  0  0  0  0  0  0  0  0  0  0  0
   21.1412  -11.8064  -16.4239 O   0  0  0  0  0  0  0  0  0  0  0  0
   15.5777  -13.5766  -14.7703 O   0  0  0  0  0  0  0  0  0  0  0  0
   19.8962  -11.0372  -18.2038 N   0  0  0  0  0  0  0  0  0  0  0  0
   20.7295   -9.8528  -18.3010 C   0  0  1  0  0  0  0  0  0  0  0  0
   20.6630   -9.1891  -19.6579 C   0  0  0  0  0  0  0  0  0  0  0  0
   21.1964  -10.1416  -20.6852 C   0  0  0  0  0  0  0  0  0  0  0  0
   21.2459   -9.5538  -22.0777 C   0  0  0  0  0  0  0  0  0  0  0  0
   21.7248  -10.5700  -23.0651 C   0  0  0  0  0  0  0  0  0  0  0  0
   21.7423  -10.0421  -24.4142 N   0  0  0  0  0  0  0  0  0  0  0  0
   20.2738   -8.8406  -17.3016 C   0  0  0  0  0  0  0  0  0  0  0  0
   19.0645   -8.4799  -17.3596 O   0  0  0  0  0  0  0  0  0  0  0  0
   21.1288   -8.2942  -16.3253 N   0  0  0  0  0  0  0  0  0  0  0  0
   20.6266   -7.2363  -15.4772 C   0  0  1  0  0  0  0  0  0  0  0  0
   21.0453   -7.4664  -14.0232 C   0  0  0  0  0  0  0  0  0  0  0  0
   19.9156   -8.0825  -13.2907 C   0  0  0  0  0  0  0  0  0  0  0  0
   18.8405   -8.3639  -13.8503 O   0  0  0  0  0  0  0  0  0  0  0  0
   21.1289   -5.9326  -15.9380 C   0  0  0  0  0  0  0  0  0  0  0  0
   20.6989   -4.8853  -15.4071 O   0  0  0  0  0  0  0  0  0  0  0  0
   20.0657   -8.3561  -11.9217 O   0  0  0  0  0  0  0  0  0  0  0  0
   22.0569   -5.8653  -16.9376 O   0  0  0  0  0  0  0  0  0  0  0  0
  2  1  1  1
  2  7  1  0
  2  3  1  0
  4  3  1  0
  4  5  1  0
  5  6  2  0
  7  8  2  0
  9  5  1  0
 10 11  1  0
 10  7  1  0
 11 12  1  6
 13 12  1  0
 14 15  1  0
 14 13  1  0
 16 15  1  0
 17 11  1  0
 18 17  2  0
 19 17  1  0
 20 24  1  0
 20 19  1  0
 20 21  1  1
 22 21  1  0
 23 22  2  0
 24 27  1  0
 25 24  2  0
 26 22  1  0
M  END
$$$$
