EKD.pdb
     RDKit          3D

 27 26  0  0  1  0  0  0  0  0999 V2000
   26.5743  -12.4211  -16.2456 N   0  0  0  0  0  0  0  0  0  0  0  0
   26.2524  -11.1179  -15.7415 C   0  0  1  0  0  0  0  0  0  0  0  0
   27.4012  -10.1614  -15.8685 C   0  0  0  0  0  0  0  0  0  0  0  0
   27.9957  -10.3730  -17.2670 C   0  0  0  0  0  0  0  0  0  0  0  0
   29.0783   -9.4059  -17.5191 C   0  0  0  0  0  0  0  0  0  0  0  0
   30.2205   -9.6294  -17.0798 O   0  0  0  0  0  0  0  0  0  0  0  0
   24.9847  -10.6023  -16.2839 C   0  0  0  0  0  0  0  0  0  0  0  0
   24.8354  -10.1355  -17.4355 O   0  0  0  0  0  0  0  0  0  0  0  0
   28.8258   -8.2560  -18.2408 O   0  0  0  0  0  0  0  0  0  0  0  0
   23.8313  -10.6383  -15.4233 N   0  0  0  0  0  0  0  0  0  0  0  0
   22.5345  -10.2509  -15.9475 C   0  0  1  0  0  0  0  0  0  0  0  0
   21.5002  -11.3491  -15.8457 C   0  0  0  0  0  0  0  0  0  0  0  0
   20.2495  -10.8966  -16.5371 C   0  0  0  0  0  0  0  0  0  0  0  0
   19.1149  -11.8910  -16.4329 C   0  0  0  0  0  0  0  0  0  0  0  0
   17.9065  -11.3944  -17.1609 C   0  0  0  0  0  0  0  0  0  0  0  0
   16.8027  -12.3284  -17.0705 N   0  0  0  0  0  0  0  0  0  0  0  0
   22.0100   -9.0892  -15.1688 C   0  0  0  0  0  0  0  0  0  0  0  0
   21.9617   -9.2144  -13.9127 O   0  0  0  0  0  0  0  0  0  0  0  0
   21.5815   -7.8940  -15.7775 N   0  0  0  0  0  0  0  0  0  0  0  0
   21.0704   -6.8329  -14.9388 C   0  0  1  0  0  0  0  0  0  0  0  0
   21.5926   -5.4739  -15.4108 C   0  0  0  0  0  0  0  0  0  0  0  0
   22.6054   -4.9880  -14.4462 C   0  0  0  0  0  0  0  0  0  0  0  0
   23.4882   -4.1730  -14.7696 O   0  0  0  0  0  0  0  0  0  0  0  0
   19.5993   -6.8331  -14.9572 C   0  0  0  0  0  0  0  0  0  0  0  0
   18.9981   -6.8830  -16.0523 O   0  0  0  0  0  0  0  0  0  0  0  0
   22.5655   -5.4643  -13.1259 O   0  0  0  0  0  0  0  0  0  0  0  0
   18.8952   -6.7788  -13.7884 O   0  0  0  0  0  0  0  0  0  0  0  0
  2  1  1  6
  2  7  1  0
  2  3  1  0
  4  3  1  0
  4  5  1  0
  5  6  2  0
  7  8  2  0
  9  5  1  0
 10 11  1  0
 10  7  1  0
 11 12  1  1
 13 12  1  0
 14 15  1  0
 14 13  1  0
 16 15  1  0
 17 11  1  0
 18 17  2  0
 19 17  1  0
 20 24  1  0
 20 19  1  0
 20 21  1  6
 22 21  1  0
 23 22  2  0
 24 27  1  0
 25 24  2  0
 26 22  1  0
M  END
$$$$
