EKD.pdb
     RDKit          3D

 27 26  0  0  1  0  0  0  0  0999 V2000
   16.5453  -12.2343  -12.2538 N   0  0  0  0  0  0  0  0  0  0  0  0
   16.3242  -11.2984  -13.3174 C   0  0  1  0  0  0  0  0  0  0  0  0
   15.6195  -11.9235  -14.4852 C   0  0  0  0  0  0  0  0  0  0  0  0
   16.4905  -13.1001  -14.9444 C   0  0  0  0  0  0  0  0  0  0  0  0
   15.8599  -13.7966  -16.0794 C   0  0  0  0  0  0  0  0  0  0  0  0
   15.8754  -13.2758  -17.2090 O   0  0  0  0  0  0  0  0  0  0  0  0
   15.7050  -10.0484  -12.8472 C   0  0  0  0  0  0  0  0  0  0  0  0
   15.3035   -9.1244  -13.5897 O   0  0  0  0  0  0  0  0  0  0  0  0
   15.2543  -15.0231  -15.8897 O   0  0  0  0  0  0  0  0  0  0  0  0
   15.5510   -9.8778  -11.4261 N   0  0  0  0  0  0  0  0  0  0  0  0
   14.7765   -8.7600  -10.9189 C   0  0  1  0  0  0  0  0  0  0  0  0
   13.9815   -9.1016   -9.6790 C   0  0  0  0  0  0  0  0  0  0  0  0
   12.7763   -9.8954  -10.0848 C   0  0  0  0  0  0  0  0  0  0  0  0
   11.9352  -10.3477   -8.9122 C   0  0  0  0  0  0  0  0  0  0  0  0
   10.7044  -11.0543   -9.3841 C   0  0  0  0  0  0  0  0  0  0  0  0
    9.8567  -11.4537   -8.2793 N   0  0  0  0  0  0  0  0  0  0  0  0
   15.6977   -7.6441  -10.5483 C   0  0  0  0  0  0  0  0  0  0  0  0
   16.7476   -7.9516   -9.9168 O   0  0  0  0  0  0  0  0  0  0  0  0
   15.4365   -6.2993  -10.8743 N   0  0  0  0  0  0  0  0  0  0  0  0
   16.3837   -5.2887  -10.4596 C   0  0  1  0  0  0  0  0  0  0  0  0
   16.5095   -4.1979  -11.5259 C   0  0  0  0  0  0  0  0  0  0  0  0
   17.1584   -4.7732  -12.7260 C   0  0  0  0  0  0  0  0  0  0  0  0
   17.5308   -5.9596  -12.7709 O   0  0  0  0  0  0  0  0  0  0  0  0
   15.9627   -4.6893   -9.1837 C   0  0  0  0  0  0  0  0  0  0  0  0
   14.8766   -5.0358   -8.6702 O   0  0  0  0  0  0  0  0  0  0  0  0
   17.3585   -3.9512  -13.8466 O   0  0  0  0  0  0  0  0  0  0  0  0
   16.7506   -3.7616   -8.5644 O   0  0  0  0  0  0  0  0  0  0  0  0
  2  1  1  1
  2  7  1  0
  2  3  1  0
  4  3  1  0
  4  5  1  0
  5  6  2  0
  7  8  2  0
  9  5  1  0
 10 11  1  0
 10  7  1  0
 11 12  1  1
 13 12  1  0
 14 15  1  0
 14 13  1  0
 16 15  1  0
 17 11  1  0
 18 17  2  0
 19 17  1  0
 20 24  1  0
 20 19  1  0
 20 21  1  6
 22 21  1  0
 23 22  2  0
 24 27  1  0
 25 24  2  0
 26 22  1  0
M  END
$$$$
