EKD.pdb
     RDKit          3D

 27 26  0  0  1  0  0  0  0  0999 V2000
   23.5928  -11.0031  -14.7927 N   0  0  0  0  0  0  0  0  0  0  0  0
   23.9360  -10.0062  -15.7646 C   0  0  1  0  0  0  0  0  0  0  0  0
   24.7036  -10.5804  -16.9187 C   0  0  0  0  0  0  0  0  0  0  0  0
   24.0117  -11.8974  -17.2939 C   0  0  0  0  0  0  0  0  0  0  0  0
   24.6896  -12.5280  -18.4401 C   0  0  0  0  0  0  0  0  0  0  0  0
   25.8341  -12.9947  -18.3001 O   0  0  0  0  0  0  0  0  0  0  0  0
   22.7786   -9.1896  -16.1658 C   0  0  0  0  0  0  0  0  0  0  0  0
   22.3568   -9.0722  -17.3381 O   0  0  0  0  0  0  0  0  0  0  0  0
   24.0562  -12.6008  -19.6651 O   0  0  0  0  0  0  0  0  0  0  0  0
   22.0813   -8.4729  -15.1303 N   0  0  0  0  0  0  0  0  0  0  0  0
   20.9071   -7.6895  -15.4679 C   0  0  1  0  0  0  0  0  0  0  0  0
   19.6145   -8.3320  -15.0182 C   0  0  0  0  0  0  0  0  0  0  0  0
   18.4676   -7.5140  -15.5310 C   0  0  0  0  0  0  0  0  0  0  0  0
   17.1173   -8.0383  -15.0966 C   0  0  0  0  0  0  0  0  0  0  0  0
   16.0145   -7.2642  -15.7458 C   0  0  0  0  0  0  0  0  0  0  0  0
   14.7114   -7.8031  -15.4134 N   0  0  0  0  0  0  0  0  0  0  0  0
   20.9862   -6.3589  -14.7937 C   0  0  0  0  0  0  0  0  0  0  0  0
   21.5027   -6.3286  -13.6413 O   0  0  0  0  0  0  0  0  0  0  0  0
   20.5159   -5.1729  -15.3894 N   0  0  0  0  0  0  0  0  0  0  0  0
   20.6737   -3.9270  -14.6729 C   0  0  1  0  0  0  0  0  0  0  0  0
   21.6665   -3.0124  -15.3943 C   0  0  0  0  0  0  0  0  0  0  0  0
   21.7430   -1.7227  -14.6710 C   0  0  0  0  0  0  0  0  0  0  0  0
   21.1253   -1.5230  -13.6095 O   0  0  0  0  0  0  0  0  0  0  0  0
   19.3759   -3.2464  -14.5431 C   0  0  0  0  0  0  0  0  0  0  0  0
   18.5132   -3.3917  -15.4366 O   0  0  0  0  0  0  0  0  0  0  0  0
   22.5383   -0.6950  -15.2027 O   0  0  0  0  0  0  0  0  0  0  0  0
   19.1144   -2.4617  -13.4565 O   0  0  0  0  0  0  0  0  0  0  0  0
  2  1  1  1
  2  7  1  0
  2  3  1  0
  4  3  1  0
  4  5  1  0
  5  6  2  0
  7  8  2  0
  9  5  1  0
 10 11  1  0
 10  7  1  0
 11 12  1  1
 13 12  1  0
 14 15  1  0
 14 13  1  0
 16 15  1  0
 17 11  1  0
 18 17  2  0
 19 17  1  0
 20 24  1  0
 20 19  1  0
 20 21  1  6
 22 21  1  0
 23 22  2  0
 24 27  1  0
 25 24  2  0
 26 22  1  0
M  END
$$$$
