EKD.pdb
     RDKit          3D

 27 26  0  0  1  0  0  0  0  0999 V2000
   15.4505  -21.6551    0.5818 N   0  0  0  0  0  0  0  0  0  0  0  0
   15.4196  -22.0810    1.9507 C   0  0  1  0  0  0  0  0  0  0  0  0
   15.7284  -23.5419    2.0968 C   0  0  0  0  0  0  0  0  0  0  0  0
   14.8374  -24.2814    1.0903 C   0  0  0  0  0  0  0  0  0  0  0  0
   15.1753  -25.7152    1.0581 C   0  0  0  0  0  0  0  0  0  0  0  0
   16.1030  -26.1468    1.7656 O   0  0  0  0  0  0  0  0  0  0  0  0
   16.2203  -21.2118    2.8285 C   0  0  0  0  0  0  0  0  0  0  0  0
   17.3723  -20.7977    2.5689 O   0  0  0  0  0  0  0  0  0  0  0  0
   14.4644  -26.5764    0.2457 O   0  0  0  0  0  0  0  0  0  0  0  0
   15.6321  -20.8094    4.0793 N   0  0  0  0  0  0  0  0  0  0  0  0
   16.3408  -19.8770    4.9366 C   0  0  1  0  0  0  0  0  0  0  0  0
   15.4179  -19.0104    5.7632 C   0  0  0  0  0  0  0  0  0  0  0  0
   14.9211  -17.8847    4.9070 C   0  0  0  0  0  0  0  0  0  0  0  0
   13.9874  -16.9451    5.6366 C   0  0  0  0  0  0  0  0  0  0  0  0
   13.5606  -15.8234    4.7441 C   0  0  0  0  0  0  0  0  0  0  0  0
   12.6317  -14.9316    5.4080 N   0  0  0  0  0  0  0  0  0  0  0  0
   17.1967  -20.6362    5.8968 C   0  0  0  0  0  0  0  0  0  0  0  0
   16.7776  -21.7683    6.2689 O   0  0  0  0  0  0  0  0  0  0  0  0
   18.4214  -20.1403    6.3837 N   0  0  0  0  0  0  0  0  0  0  0  0
   19.2048  -20.9739    7.2681 C   0  0  1  0  0  0  0  0  0  0  0  0
   20.6795  -20.5666    7.2269 C   0  0  0  0  0  0  0  0  0  0  0  0
   20.7865  -19.1214    7.5305 C   0  0  0  0  0  0  0  0  0  0  0  0
   20.7006  -18.6822    8.6915 O   0  0  0  0  0  0  0  0  0  0  0  0
   18.6995  -20.8700    8.6459 C   0  0  0  0  0  0  0  0  0  0  0  0
   19.1311  -21.6533    9.5198 O   0  0  0  0  0  0  0  0  0  0  0  0
   20.9910  -18.2211    6.4726 O   0  0  0  0  0  0  0  0  0  0  0  0
   17.7663  -19.9268    8.9689 O   0  0  0  0  0  0  0  0  0  0  0  0
  2  1  1  6
  2  7  1  0
  2  3  1  0
  4  3  1  0
  4  5  1  0
  5  6  2  0
  7  8  2  0
  9  5  1  0
 10 11  1  0
 10  7  1  0
 11 12  1  1
 13 12  1  0
 14 15  1  0
 14 13  1  0
 16 15  1  0
 17 11  1  0
 18 17  2  0
 19 17  1  0
 20 24  1  0
 20 19  1  0
 20 21  1  1
 22 21  1  0
 23 22  2  0
 24 27  1  0
 25 24  2  0
 26 22  1  0
M  END
$$$$
