EKD.pdb
     RDKit          3D

 27 26  0  0  1  0  0  0  0  0999 V2000
   13.5160  -12.3994  -12.4473 N   0  0  0  0  0  0  0  0  0  0  0  0
   14.8852  -11.9840  -12.3536 C   0  0  1  0  0  0  0  0  0  0  0  0
   15.7413  -12.6098  -13.4148 C   0  0  0  0  0  0  0  0  0  0  0  0
   15.4427  -14.1144  -13.3885 C   0  0  0  0  0  0  0  0  0  0  0  0
   16.1911  -14.8076  -14.4518 C   0  0  0  0  0  0  0  0  0  0  0  0
   15.5754  -15.4395  -15.3287 O   0  0  0  0  0  0  0  0  0  0  0  0
   15.0244  -10.5213  -12.2612 C   0  0  0  0  0  0  0  0  0  0  0  0
   14.7087   -9.7134  -13.1633 O   0  0  0  0  0  0  0  0  0  0  0  0
   17.5709  -14.7554  -14.4746 O   0  0  0  0  0  0  0  0  0  0  0  0
   15.5645   -9.9819  -11.0408 N   0  0  0  0  0  0  0  0  0  0  0  0
   15.6785   -8.5437  -10.8824 C   0  0  1  0  0  0  0  0  0  0  0  0
   15.2088   -8.0556   -9.5306 C   0  0  0  0  0  0  0  0  0  0  0  0
   13.7141   -8.1566   -9.4762 C   0  0  0  0  0  0  0  0  0  0  0  0
   13.1435   -7.8564   -8.1083 C   0  0  0  0  0  0  0  0  0  0  0  0
   11.6578   -8.0284   -8.1045 C   0  0  0  0  0  0  0  0  0  0  0  0
   11.0974   -7.8345   -6.7826 N   0  0  0  0  0  0  0  0  0  0  0  0
   17.1107   -8.1407  -11.0141 C   0  0  0  0  0  0  0  0  0  0  0  0
   17.9406   -8.7117  -10.2519 O   0  0  0  0  0  0  0  0  0  0  0  0
   17.5486   -7.1716  -11.9371 N   0  0  0  0  0  0  0  0  0  0  0  0
   18.9700   -6.9815  -12.1212 C   0  0  1  0  0  0  0  0  0  0  0  0
   19.6406   -8.2943  -12.5326 C   0  0  0  0  0  0  0  0  0  0  0  0
   21.0596   -8.0260  -12.8593 C   0  0  0  0  0  0  0  0  0  0  0  0
   21.9028   -7.7702  -11.9808 O   0  0  0  0  0  0  0  0  0  0  0  0
   19.2179   -5.9551  -13.1457 C   0  0  0  0  0  0  0  0  0  0  0  0
   20.3632   -5.4673  -13.2628 O   0  0  0  0  0  0  0  0  0  0  0  0
   21.4628   -8.0620  -14.2038 O   0  0  0  0  0  0  0  0  0  0  0  0
   18.2062   -5.5374  -13.9622 O   0  0  0  0  0  0  0  0  0  0  0  0
  2  1  1  6
  2  7  1  0
  2  3  1  0
  4  3  1  0
  4  5  1  0
  5  6  2  0
  7  8  2  0
  9  5  1  0
 10 11  1  0
 10  7  1  0
 11 12  1  1
 13 12  1  0
 14 15  1  0
 14 13  1  0
 16 15  1  0
 17 11  1  0
 18 17  2  0
 19 17  1  0
 20 24  1  0
 20 19  1  0
 20 21  1  6
 22 21  1  0
 23 22  2  0
 24 27  1  0
 25 24  2  0
 26 22  1  0
M  END
$$$$
