EKD.pdb
     RDKit          3D

 27 26  0  0  1  0  0  0  0  0999 V2000
   24.6266  -20.3081  -10.4973 N   0  0  0  0  0  0  0  0  0  0  0  0
   23.2636  -20.3771  -10.9373 C   0  0  1  0  0  0  0  0  0  0  0  0
   22.2934  -20.1888   -9.8086 C   0  0  0  0  0  0  0  0  0  0  0  0
   21.8056  -21.5882   -9.4114 C   0  0  0  0  0  0  0  0  0  0  0  0
   20.6290  -21.9708  -10.2115 C   0  0  0  0  0  0  0  0  0  0  0  0
   20.7857  -22.4702  -11.3400 O   0  0  0  0  0  0  0  0  0  0  0  0
   23.0027  -19.5106  -12.0984 C   0  0  0  0  0  0  0  0  0  0  0  0
   22.4657  -18.3815  -12.0432 O   0  0  0  0  0  0  0  0  0  0  0  0
   19.3572  -21.7760   -9.7101 O   0  0  0  0  0  0  0  0  0  0  0  0
   23.3953  -20.0008  -13.3937 N   0  0  0  0  0  0  0  0  0  0  0  0
   23.2324  -19.1522  -14.5599 C   0  0  1  0  0  0  0  0  0  0  0  0
   24.3494  -19.3057  -15.5673 C   0  0  0  0  0  0  0  0  0  0  0  0
   24.1420  -18.3114  -16.6698 C   0  0  0  0  0  0  0  0  0  0  0  0
   25.1212  -18.4705  -17.8112 C   0  0  0  0  0  0  0  0  0  0  0  0
   24.8560  -17.4602  -18.8816 C   0  0  0  0  0  0  0  0  0  0  0  0
   25.7448  -17.6297  -20.0131 N   0  0  0  0  0  0  0  0  0  0  0  0
   21.9639  -19.5104  -15.2624 C   0  0  0  0  0  0  0  0  0  0  0  0
   21.7022  -20.7402  -15.3843 O   0  0  0  0  0  0  0  0  0  0  0  0
   21.0778  -18.5444  -15.7767 N   0  0  0  0  0  0  0  0  0  0  0  0
   19.8461  -18.9894  -16.3894 C   0  0  1  0  0  0  0  0  0  0  0  0
   18.8221  -17.8525  -16.4284 C   0  0  0  0  0  0  0  0  0  0  0  0
   18.4194  -17.5222  -15.0424 C   0  0  0  0  0  0  0  0  0  0  0  0
   18.1153  -18.4010  -14.2157 O   0  0  0  0  0  0  0  0  0  0  0  0
   20.1026  -19.4735  -17.7548 C   0  0  0  0  0  0  0  0  0  0  0  0
   21.1200  -19.0799  -18.3658 O   0  0  0  0  0  0  0  0  0  0  0  0
   18.3803  -16.1740  -14.6523 O   0  0  0  0  0  0  0  0  0  0  0  0
   19.2371  -20.3452  -18.3512 O   0  0  0  0  0  0  0  0  0  0  0  0
  2  1  1  1
  2  7  1  0
  2  3  1  0
  4  3  1  0
  4  5  1  0
  5  6  2  0
  7  8  2  0
  9  5  1  0
 10 11  1  0
 10  7  1  0
 11 12  1  6
 13 12  1  0
 14 15  1  0
 14 13  1  0
 16 15  1  0
 17 11  1  0
 18 17  2  0
 19 17  1  0
 20 24  1  0
 20 19  1  0
 20 21  1  6
 22 21  1  0
 23 22  2  0
 24 27  1  0
 25 24  2  0
 26 22  1  0
M  END
$$$$
