EKD.pdb
     RDKit          3D

 27 26  0  0  1  0  0  0  0  0999 V2000
   24.4765  -19.9281  -14.0215 N   0  0  0  0  0  0  0  0  0  0  0  0
   23.9590  -19.5367  -15.3002 C   0  0  1  0  0  0  0  0  0  0  0  0
   24.9526  -19.7512  -16.4036 C   0  0  0  0  0  0  0  0  0  0  0  0
   26.2836  -19.1647  -15.9153 C   0  0  0  0  0  0  0  0  0  0  0  0
   27.2826  -19.1806  -16.9983 C   0  0  0  0  0  0  0  0  0  0  0  0
   28.1958  -20.0252  -16.9835 O   0  0  0  0  0  0  0  0  0  0  0  0
   22.6329  -20.1155  -15.5715 C   0  0  0  0  0  0  0  0  0  0  0  0
   22.0338  -20.0507  -16.6684 O   0  0  0  0  0  0  0  0  0  0  0  0
   27.2050  -18.2614  -18.0259 O   0  0  0  0  0  0  0  0  0  0  0  0
   21.9775  -20.8074  -14.4926 N   0  0  0  0  0  0  0  0  0  0  0  0
   20.7070  -21.4669  -14.7320 C   0  0  1  0  0  0  0  0  0  0  0  0
   20.5578  -22.7642  -13.9699 C   0  0  0  0  0  0  0  0  0  0  0  0
   19.3167  -23.4593  -14.4429 C   0  0  0  0  0  0  0  0  0  0  0  0
   19.1427  -24.8407  -13.8527 C   0  0  0  0  0  0  0  0  0  0  0  0
   17.8716  -25.4658  -14.3329 C   0  0  0  0  0  0  0  0  0  0  0  0
   17.7577  -26.8464  -13.9087 N   0  0  0  0  0  0  0  0  0  0  0  0
   19.5928  -20.5754  -14.2906 C   0  0  0  0  0  0  0  0  0  0  0  0
   19.6746  -20.0858  -13.1290 O   0  0  0  0  0  0  0  0  0  0  0  0
   18.4873  -20.2739  -15.1091 N   0  0  0  0  0  0  0  0  0  0  0  0
   17.4918  -19.3481  -14.6167 C   0  0  1  0  0  0  0  0  0  0  0  0
   16.9021  -18.5285  -15.7669 C   0  0  0  0  0  0  0  0  0  0  0  0
   15.9123  -17.5742  -15.2174 C   0  0  0  0  0  0  0  0  0  0  0  0
   15.3798  -16.6967  -15.9207 O   0  0  0  0  0  0  0  0  0  0  0  0
   16.4173  -20.0767  -13.9245 C   0  0  0  0  0  0  0  0  0  0  0  0
   15.9267  -21.0978  -14.4538 O   0  0  0  0  0  0  0  0  0  0  0  0
   15.5663  -17.6651  -13.8597 O   0  0  0  0  0  0  0  0  0  0  0  0
   15.9582  -19.6420  -12.7141 O   0  0  0  0  0  0  0  0  0  0  0  0
  2  1  1  1
  2  7  1  0
  2  3  1  0
  4  3  1  0
  4  5  1  0
  5  6  2  0
  7  8  2  0
  9  5  1  0
 10 11  1  0
 10  7  1  0
 11 12  1  1
 13 12  1  0
 14 15  1  0
 14 13  1  0
 16 15  1  0
 17 11  1  0
 18 17  2  0
 19 17  1  0
 20 24  1  0
 20 19  1  0
 20 21  1  6
 22 21  1  0
 23 22  2  0
 24 27  1  0
 25 24  2  0
 26 22  1  0
M  END
$$$$
