EKD.pdb
     RDKit          3D

 27 26  0  0  1  0  0  0  0  0999 V2000
   14.3628  -12.2875  -13.8063 N   0  0  0  0  0  0  0  0  0  0  0  0
   14.4837  -11.3570  -14.8906 C   0  0  1  0  0  0  0  0  0  0  0  0
   13.2536  -10.5138  -15.0537 C   0  0  0  0  0  0  0  0  0  0  0  0
   12.0673  -11.4821  -15.1478 C   0  0  0  0  0  0  0  0  0  0  0  0
   10.8163  -10.7432  -15.3927 C   0  0  0  0  0  0  0  0  0  0  0  0
    9.7823  -11.0587  -14.7772 O   0  0  0  0  0  0  0  0  0  0  0  0
   15.7339  -10.5820  -14.8301 C   0  0  0  0  0  0  0  0  0  0  0  0
   16.1371   -9.9500  -13.8280 O   0  0  0  0  0  0  0  0  0  0  0  0
   10.7922   -9.7040  -16.3019 O   0  0  0  0  0  0  0  0  0  0  0  0
   16.5525  -10.5499  -16.0137 N   0  0  0  0  0  0  0  0  0  0  0  0
   17.8256   -9.8534  -15.9850 C   0  0  1  0  0  0  0  0  0  0  0  0
   18.8068  -10.3659  -17.0150 C   0  0  0  0  0  0  0  0  0  0  0  0
   19.0352  -11.8279  -16.7752 C   0  0  0  0  0  0  0  0  0  0  0  0
   20.1289  -12.4125  -17.6406 C   0  0  0  0  0  0  0  0  0  0  0  0
   20.3701  -13.8469  -17.2927 C   0  0  0  0  0  0  0  0  0  0  0  0
   21.4777  -14.4032  -18.0429 N   0  0  0  0  0  0  0  0  0  0  0  0
   17.6071   -8.4053  -16.2786 C   0  0  0  0  0  0  0  0  0  0  0  0
   16.8306   -8.1237  -17.2344 O   0  0  0  0  0  0  0  0  0  0  0  0
   18.2235   -7.3761  -15.5414 N   0  0  0  0  0  0  0  0  0  0  0  0
   18.0026   -6.0055  -15.9454 C   0  0  1  0  0  0  0  0  0  0  0  0
   16.8249   -5.4004  -15.1776 C   0  0  0  0  0  0  0  0  0  0  0  0
   16.7486   -3.9529  -15.4797 C   0  0  0  0  0  0  0  0  0  0  0  0
   16.5900   -3.5273  -16.6380 O   0  0  0  0  0  0  0  0  0  0  0  0
   19.2133   -5.2037  -15.7096 C   0  0  0  0  0  0  0  0  0  0  0  0
   19.2754   -4.0376  -16.1565 O   0  0  0  0  0  0  0  0  0  0  0  0
   16.8594   -3.0346  -14.4233 O   0  0  0  0  0  0  0  0  0  0  0  0
   20.2618   -5.7279  -15.0089 O   0  0  0  0  0  0  0  0  0  0  0  0
  2  1  1  1
  2  7  1  0
  2  3  1  0
  4  3  1  0
  4  5  1  0
  5  6  2  0
  7  8  2  0
  9  5  1  0
 10 11  1  0
 10  7  1  0
 11 12  1  6
 13 12  1  0
 14 15  1  0
 14 13  1  0
 16 15  1  0
 17 11  1  0
 18 17  2  0
 19 17  1  0
 20 24  1  0
 20 19  1  0
 20 21  1  1
 22 21  1  0
 23 22  2  0
 24 27  1  0
 25 24  2  0
 26 22  1  0
M  END
$$$$
