EKD.pdb
     RDKit          3D

 27 26  0  0  1  0  0  0  0  0999 V2000
   22.9010  -11.6367  -16.1870 N   0  0  0  0  0  0  0  0  0  0  0  0
   23.0460  -10.7427  -17.2987 C   0  0  1  0  0  0  0  0  0  0  0  0
   23.3562  -11.4697  -18.5739 C   0  0  0  0  0  0  0  0  0  0  0  0
   24.1752  -12.7074  -18.1851 C   0  0  0  0  0  0  0  0  0  0  0  0
   24.5129  -13.4992  -19.3811 C   0  0  0  0  0  0  0  0  0  0  0  0
   23.9615  -14.5982  -19.5698 O   0  0  0  0  0  0  0  0  0  0  0  0
   21.9237   -9.7965  -17.4099 C   0  0  0  0  0  0  0  0  0  0  0  0
   21.7938   -8.9425  -18.3154 O   0  0  0  0  0  0  0  0  0  0  0  0
   25.4377  -13.0225  -20.2890 O   0  0  0  0  0  0  0  0  0  0  0  0
   20.9000   -9.8598  -16.3999 N   0  0  0  0  0  0  0  0  0  0  0  0
   19.7338   -9.0025  -16.5077 C   0  0  1  0  0  0  0  0  0  0  0  0
   18.4317   -9.7706  -16.5325 C   0  0  0  0  0  0  0  0  0  0  0  0
   17.3085   -8.8047  -16.7626 C   0  0  0  0  0  0  0  0  0  0  0  0
   15.9505   -9.4679  -16.8158 C   0  0  0  0  0  0  0  0  0  0  0  0
   15.8465  -10.3679  -18.0059 C   0  0  0  0  0  0  0  0  0  0  0  0
   14.5309  -10.9645  -18.1155 N   0  0  0  0  0  0  0  0  0  0  0  0
   19.6758   -8.0906  -15.3261 C   0  0  0  0  0  0  0  0  0  0  0  0
   19.5720   -8.6302  -14.1887 O   0  0  0  0  0  0  0  0  0  0  0  0
   19.7327   -6.6884  -15.4412 N   0  0  0  0  0  0  0  0  0  0  0  0
   19.7147   -5.8921  -14.2345 C   0  0  1  0  0  0  0  0  0  0  0  0
   20.6475   -4.6863  -14.3705 C   0  0  0  0  0  0  0  0  0  0  0  0
   22.0491   -5.1485  -14.2499 C   0  0  0  0  0  0  0  0  0  0  0  0
   22.3454   -6.2207  -13.6925 O   0  0  0  0  0  0  0  0  0  0  0  0
   18.3469   -5.4318  -13.9486 C   0  0  0  0  0  0  0  0  0  0  0  0
   17.5459   -5.2598  -14.8932 O   0  0  0  0  0  0  0  0  0  0  0  0
   23.0732   -4.3490  -14.7823 O   0  0  0  0  0  0  0  0  0  0  0  0
   17.9543   -5.1934  -12.6626 O   0  0  0  0  0  0  0  0  0  0  0  0
  2  1  1  1
  2  7  1  0
  2  3  1  0
  4  3  1  0
  4  5  1  0
  5  6  2  0
  7  8  2  0
  9  5  1  0
 10 11  1  0
 10  7  1  0
 11 12  1  1
 13 12  1  0
 14 15  1  0
 14 13  1  0
 16 15  1  0
 17 11  1  0
 18 17  2  0
 19 17  1  0
 20 24  1  0
 20 19  1  0
 20 21  1  6
 22 21  1  0
 23 22  2  0
 24 27  1  0
 25 24  2  0
 26 22  1  0
M  END
$$$$
