GNG.pdb
     RDKit          3D

 17 16  0  0  1  0  0  0  0  0999 V2000
   13.1779  -20.3078   20.2539 N   0  0  0  0  0  0  0  0  0  0  0  0
   11.8691  -19.8781   20.7683 C   0  0  0  0  0  0  0  0  0  0  0  0
   12.0212  -18.4967   21.2832 C   0  0  0  0  0  0  0  0  0  0  0  0
   13.1732  -18.0367   21.5400 O   0  0  0  0  0  0  0  0  0  0  0  0
   11.7918  -14.6471   19.4189 N   0  0  0  0  0  0  0  0  0  0  0  0
   10.6681  -15.2959   19.9956 C   0  0  0  0  0  0  0  0  0  0  0  0
    9.9115  -15.9363   19.2211 O   0  0  0  0  0  0  0  0  0  0  0  0
   10.3452  -15.2513   21.4524 C   0  0  0  0  0  0  0  0  0  0  0  0
   11.1345  -16.3674   22.1266 C   0  0  2  0  0  0  0  0  0  0  0  0
   10.9080  -17.6351   21.5097 N   0  0  0  0  0  0  0  0  0  0  0  0
   10.7492  -16.4556   23.5512 C   0  0  0  0  0  0  0  0  0  0  0  0
    9.6339  -16.0478   23.9576 O   0  0  0  0  0  0  0  0  0  0  0  0
   11.6324  -17.0134   24.5405 N   0  0  0  0  0  0  0  0  0  0  0  0
   11.2186  -17.1764   25.9138 C   0  0  0  0  0  0  0  0  0  0  0  0
   12.2722  -17.8620   26.6989 C   0  0  0  0  0  0  0  0  0  0  0  0
   13.3259  -18.2176   26.1460 O   0  0  0  0  0  0  0  0  0  0  0  0
   12.1069  -18.1183   28.0581 O   0  0  0  0  0  0  0  0  0  0  0  0
  1  2  1  0
  2  3  1  0
  3  4  2  0
  3 10  1  0
  6  7  2  0
  6  5  1  0
  9  8  1  6
  8  6  1  0
  9 11  1  0
 10  9  1  0
 11 12  2  0
 13 11  1  0
 13 14  1  0
 15 14  1  0
 15 17  1  0
 16 15  2  0
M  END
$$$$
