GNG.pdb
     RDKit          3D

 17 16  0  0  1  0  0  0  0  0999 V2000
   -3.3684  -23.2912   26.5537 N   0  0  0  0  0  0  0  0  0  0  0  0
   -4.6613  -23.9616   26.7561 C   0  0  0  0  0  0  0  0  0  0  0  0
   -5.0515  -23.7651   28.1723 C   0  0  0  0  0  0  0  0  0  0  0  0
   -4.1713  -23.4993   29.0436 O   0  0  0  0  0  0  0  0  0  0  0  0
   -5.6789  -21.1426   30.3386 N   0  0  0  0  0  0  0  0  0  0  0  0
   -7.0832  -21.3223   30.4480 C   0  0  0  0  0  0  0  0  0  0  0  0
   -7.7727  -20.3123   30.7427 O   0  0  0  0  0  0  0  0  0  0  0  0
   -7.7680  -22.6319   30.2375 C   0  0  0  0  0  0  0  0  0  0  0  0
   -6.6847  -23.6783   30.0044 C   0  0  2  0  0  0  0  0  0  0  0  0
   -6.4028  -23.8611   28.6166 N   0  0  0  0  0  0  0  0  0  0  0  0
   -7.1140  -24.9718   30.5775 C   0  0  0  0  0  0  0  0  0  0  0  0
   -8.0648  -25.6265   30.0848 O   0  0  0  0  0  0  0  0  0  0  0  0
   -6.4631  -25.5436   31.7260 N   0  0  0  0  0  0  0  0  0  0  0  0
   -6.9234  -26.7778   32.3163 C   0  0  0  0  0  0  0  0  0  0  0  0
   -6.0391  -27.1839   33.4343 C   0  0  0  0  0  0  0  0  0  0  0  0
   -5.0381  -27.8842   33.2110 O   0  0  0  0  0  0  0  0  0  0  0  0
   -6.3068  -26.7924   34.7441 O   0  0  0  0  0  0  0  0  0  0  0  0
  1  2  1  0
  2  3  1  0
  3  4  2  0
  3 10  1  0
  6  7  2  0
  6  5  1  0
  9  8  1  6
  8  6  1  0
  9 11  1  0
 10  9  1  0
 11 12  2  0
 13 11  1  0
 13 14  1  0
 15 14  1  0
 15 17  1  0
 16 15  2  0
M  END
$$$$
