GNG.pdb
     RDKit          3D

 17 16  0  0  1  0  0  0  0  0999 V2000
   -0.9097  -22.9292   23.2324 N   0  0  0  0  0  0  0  0  0  0  0  0
   -0.2593  -21.6601   23.5910 C   0  0  0  0  0  0  0  0  0  0  0  0
    0.9839  -21.5517   22.7913 C   0  0  0  0  0  0  0  0  0  0  0  0
    1.8212  -22.5022   22.7852 O   0  0  0  0  0  0  0  0  0  0  0  0
    1.2475  -21.4267   19.2389 N   0  0  0  0  0  0  0  0  0  0  0  0
    1.7778  -20.1177   19.0912 C   0  0  0  0  0  0  0  0  0  0  0  0
    1.5724  -19.5323   17.9969 O   0  0  0  0  0  0  0  0  0  0  0  0
    2.5579  -19.4170   20.1536 C   0  0  0  0  0  0  0  0  0  0  0  0
    2.5738  -20.3243   21.3781 C   0  0  2  0  0  0  0  0  0  0  0  0
    1.2940  -20.4024   22.0067 N   0  0  0  0  0  0  0  0  0  0  0  0
    3.5558  -19.8151   22.3591 C   0  0  0  0  0  0  0  0  0  0  0  0
    3.2785  -18.8707   23.1379 O   0  0  0  0  0  0  0  0  0  0  0  0
    4.8755  -20.3771   22.4698 N   0  0  0  0  0  0  0  0  0  0  0  0
    5.8332  -19.8693   23.4231 C   0  0  0  0  0  0  0  0  0  0  0  0
    6.0659  -20.8549   24.5052 C   0  0  0  0  0  0  0  0  0  0  0  0
    5.1926  -21.6947   24.7782 O   0  0  0  0  0  0  0  0  0  0  0  0
    7.2553  -20.8623   25.2302 O   0  0  0  0  0  0  0  0  0  0  0  0
  1  2  1  0
  2  3  1  0
  3  4  2  0
  3 10  1  0
  6  7  2  0
  6  5  1  0
  9  8  1  6
  8  6  1  0
  9 11  1  0
 10  9  1  0
 11 12  2  0
 13 11  1  0
 13 14  1  0
 15 14  1  0
 15 17  1  0
 16 15  2  0
M  END
$$$$
