GNG.pdb
     RDKit          3D

 17 16  0  0  1  0  0  0  0  0999 V2000
    5.7987  -18.9142   22.7367 N   0  0  0  0  0  0  0  0  0  0  0  0
    5.9556  -18.3271   24.0756 C   0  0  0  0  0  0  0  0  0  0  0  0
    6.8721  -17.1689   23.9529 C   0  0  0  0  0  0  0  0  0  0  0  0
    7.4806  -16.9519   22.8632 O   0  0  0  0  0  0  0  0  0  0  0  0
    5.3441  -13.2906   26.1748 N   0  0  0  0  0  0  0  0  0  0  0  0
    6.4503  -13.4531   25.2995 C   0  0  0  0  0  0  0  0  0  0  0  0
    6.2922  -13.1088   24.1000 O   0  0  0  0  0  0  0  0  0  0  0  0
    7.7685  -14.0079   25.7272 C   0  0  0  0  0  0  0  0  0  0  0  0
    8.0624  -15.2133   24.8419 C   0  0  2  0  0  0  0  0  0  0  0  0
    7.1102  -16.2613   25.0263 N   0  0  0  0  0  0  0  0  0  0  0  0
    9.4110  -15.7359   25.1485 C   0  0  0  0  0  0  0  0  0  0  0  0
    9.7376  -16.0708   26.3132 O   0  0  0  0  0  0  0  0  0  0  0  0
   10.4136  -15.8871   24.1280 N   0  0  0  0  0  0  0  0  0  0  0  0
   11.6941  -16.4896   24.4131 C   0  0  0  0  0  0  0  0  0  0  0  0
   12.5062  -16.5995   23.1781 C   0  0  0  0  0  0  0  0  0  0  0  0
   12.1074  -17.3001   22.2334 O   0  0  0  0  0  0  0  0  0  0  0  0
   13.7191  -15.9264   23.0504 O   0  0  0  0  0  0  0  0  0  0  0  0
  1  2  1  0
  2  3  1  0
  3  4  2  0
  3 10  1  0
  6  7  2  0
  6  5  1  0
  9  8  1  1
  8  6  1  0
  9 11  1  0
 10  9  1  0
 11 12  2  0
 13 11  1  0
 13 14  1  0
 15 14  1  0
 15 17  1  0
 16 15  2  0
M  END
$$$$
