GNG.pdb
     RDKit          3D

 17 16  0  0  1  0  0  0  0  0999 V2000
    9.6060  -12.5744   18.7589 N   0  0  0  0  0  0  0  0  0  0  0  0
   10.4650  -13.7447   18.9924 C   0  0  0  0  0  0  0  0  0  0  0  0
   10.0867  -14.3243   20.3030 C   0  0  0  0  0  0  0  0  0  0  0  0
    9.1785  -13.7820   21.0000 O   0  0  0  0  0  0  0  0  0  0  0  0
   10.7246  -18.8073   20.1531 N   0  0  0  0  0  0  0  0  0  0  0  0
    9.7980  -17.8188   20.5778 C   0  0  0  0  0  0  0  0  0  0  0  0
    9.0678  -17.2962   19.6968 O   0  0  0  0  0  0  0  0  0  0  0  0
    9.6546  -17.3748   21.9958 C   0  0  0  0  0  0  0  0  0  0  0  0
   10.2741  -15.9862   22.1014 C   0  0  2  0  0  0  0  0  0  0  0  0
   10.7079  -15.4927   20.8337 N   0  0  0  0  0  0  0  0  0  0  0  0
   11.4336  -16.0296   23.0177 C   0  0  0  0  0  0  0  0  0  0  0  0
   11.3128  -16.3852   24.2153 O   0  0  0  0  0  0  0  0  0  0  0  0
   12.7560  -15.6677   22.5817 N   0  0  0  0  0  0  0  0  0  0  0  0
   13.8825  -15.7025   23.4837 C   0  0  0  0  0  0  0  0  0  0  0  0
   15.1296  -15.3263   22.7765 C   0  0  0  0  0  0  0  0  0  0  0  0
   15.0954  -15.0371   21.5692 O   0  0  0  0  0  0  0  0  0  0  0  0
   16.3525  -15.2876   23.4424 O   0  0  0  0  0  0  0  0  0  0  0  0
  1  2  1  0
  2  3  1  0
  3  4  2  0
  3 10  1  0
  6  7  2  0
  6  5  1  0
  9  8  1  6
  8  6  1  0
  9 11  1  0
 10  9  1  0
 11 12  2  0
 13 11  1  0
 13 14  1  0
 15 14  1  0
 15 17  1  0
 16 15  2  0
M  END
$$$$
