GNG.pdb
     RDKit          3D

 17 16  0  0  1  0  0  0  0  0999 V2000
   10.3285  -16.4268   14.3427 N   0  0  0  0  0  0  0  0  0  0  0  0
    9.3439  -16.6311   15.4155 C   0  0  0  0  0  0  0  0  0  0  0  0
    9.6315  -15.6433   16.4823 C   0  0  0  0  0  0  0  0  0  0  0  0
   10.7793  -15.1139   16.5663 O   0  0  0  0  0  0  0  0  0  0  0  0
    8.5547  -11.2692   19.8613 N   0  0  0  0  0  0  0  0  0  0  0  0
    8.3663  -12.6567   20.0974 C   0  0  0  0  0  0  0  0  0  0  0  0
    8.6658  -13.0935   21.2383 O   0  0  0  0  0  0  0  0  0  0  0  0
    7.8425  -13.6062   19.0716 C   0  0  0  0  0  0  0  0  0  0  0  0
    9.0401  -14.3373   18.4763 C   0  0  2  0  0  0  0  0  0  0  0  0
    8.6568  -15.2467   17.4442 N   0  0  0  0  0  0  0  0  0  0  0  0
    9.7388  -15.0908   19.5393 C   0  0  0  0  0  0  0  0  0  0  0  0
    9.1841  -16.0385   20.1472 O   0  0  0  0  0  0  0  0  0  0  0  0
   11.0877  -14.7758   19.9280 N   0  0  0  0  0  0  0  0  0  0  0  0
   11.7725  -15.5293   20.9512 C   0  0  0  0  0  0  0  0  0  0  0  0
   13.1367  -14.9930   21.1701 C   0  0  0  0  0  0  0  0  0  0  0  0
   13.5656  -14.0755   20.4513 O   0  0  0  0  0  0  0  0  0  0  0  0
   13.9576  -15.4987   22.1755 O   0  0  0  0  0  0  0  0  0  0  0  0
  1  2  1  0
  2  3  1  0
  3  4  2  0
  3 10  1  0
  6  7  2  0
  6  5  1  0
  9  8  1  1
  8  6  1  0
  9 11  1  0
 10  9  1  0
 11 12  2  0
 13 11  1  0
 13 14  1  0
 15 14  1  0
 15 17  1  0
 16 15  2  0
M  END
$$$$
