GNG.pdb
     RDKit          3D

 17 16  0  0  1  0  0  0  0  0999 V2000
    9.9478  -18.4353   17.6338 N   0  0  0  0  0  0  0  0  0  0  0  0
    8.9412  -18.0780   18.6444 C   0  0  0  0  0  0  0  0  0  0  0  0
    9.3146  -16.7564   19.2016 C   0  0  0  0  0  0  0  0  0  0  0  0
   10.3849  -16.1892   18.8309 O   0  0  0  0  0  0  0  0  0  0  0  0
    7.7417  -12.2599   18.5364 N   0  0  0  0  0  0  0  0  0  0  0  0
    7.4006  -13.4789   19.1797 C   0  0  0  0  0  0  0  0  0  0  0  0
    6.7741  -14.3333   18.5018 O   0  0  0  0  0  0  0  0  0  0  0  0
    7.7410  -13.7875   20.6001 C   0  0  0  0  0  0  0  0  0  0  0  0
    8.9076  -14.7681   20.5845 C   0  0  2  0  0  0  0  0  0  0  0  0
    8.5094  -16.0715   20.1582 N   0  0  0  0  0  0  0  0  0  0  0  0
    9.4892  -14.8676   21.9401 C   0  0  0  0  0  0  0  0  0  0  0  0
    9.9239  -13.8575   22.5452 O   0  0  0  0  0  0  0  0  0  0  0  0
    9.5843  -16.1253   22.6320 N   0  0  0  0  0  0  0  0  0  0  0  0
   10.2191  -16.2283   23.9243 C   0  0  0  0  0  0  0  0  0  0  0  0
   11.4809  -16.9998   23.8266 C   0  0  0  0  0  0  0  0  0  0  0  0
   11.9172  -17.3376   22.7139 O   0  0  0  0  0  0  0  0  0  0  0  0
   12.1976  -17.3573   24.9663 O   0  0  0  0  0  0  0  0  0  0  0  0
  1  2  1  0
  2  3  1  0
  3  4  2  0
  3 10  1  0
  6  7  2  0
  6  5  1  0
  9  8  1  1
  8  6  1  0
  9 11  1  0
 10  9  1  0
 11 12  2  0
 13 11  1  0
 13 14  1  0
 15 14  1  0
 15 17  1  0
 16 15  2  0
M  END
$$$$
