GNG.pdb
     RDKit          3D

 17 16  0  0  1  0  0  0  0  0999 V2000
    9.0211  -18.3172   16.9845 N   0  0  0  0  0  0  0  0  0  0  0  0
    8.1197  -17.9205   18.0764 C   0  0  0  0  0  0  0  0  0  0  0  0
    8.7731  -16.8166   18.8186 C   0  0  0  0  0  0  0  0  0  0  0  0
   10.0065  -16.5804   18.6518 O   0  0  0  0  0  0  0  0  0  0  0  0
    6.0404  -13.0124   19.1324 N   0  0  0  0  0  0  0  0  0  0  0  0
    7.4106  -13.1754   19.4675 C   0  0  0  0  0  0  0  0  0  0  0  0
    8.2605  -12.8010   18.6191 O   0  0  0  0  0  0  0  0  0  0  0  0
    7.8823  -13.7641   20.7557 C   0  0  0  0  0  0  0  0  0  0  0  0
    8.7786  -14.9481   20.4124 C   0  0  2  0  0  0  0  0  0  0  0  0
    8.0662  -15.9835   19.7346 N   0  0  0  0  0  0  0  0  0  0  0  0
    9.3612  -15.5040   21.6523 C   0  0  0  0  0  0  0  0  0  0  0  0
    8.6395  -15.8706   22.6116 O   0  0  0  0  0  0  0  0  0  0  0  0
   10.7823  -15.6529   21.8197 N   0  0  0  0  0  0  0  0  0  0  0  0
   11.3474  -16.1607   23.0471 C   0  0  0  0  0  0  0  0  0  0  0  0
   12.8266  -16.2020   22.9634 C   0  0  0  0  0  0  0  0  0  0  0  0
   13.3997  -15.8380   21.9235 O   0  0  0  0  0  0  0  0  0  0  0  0
   13.5975  -16.6428   24.0366 O   0  0  0  0  0  0  0  0  0  0  0  0
  1  2  1  0
  2  3  1  0
  3  4  2  0
  3 10  1  0
  6  7  2  0
  6  5  1  0
  9  8  1  1
  8  6  1  0
  9 11  1  0
 10  9  1  0
 11 12  2  0
 13 11  1  0
 13 14  1  0
 15 14  1  0
 15 17  1  0
 16 15  2  0
M  END
$$$$
