GNG.pdb
     RDKit          3D

 17 16  0  0  1  0  0  0  0  0999 V2000
    4.5392  -18.7778   19.8208 N   0  0  0  0  0  0  0  0  0  0  0  0
    4.3399  -17.4254   20.3626 C   0  0  0  0  0  0  0  0  0  0  0  0
    5.6361  -16.9693   20.9178 C   0  0  0  0  0  0  0  0  0  0  0  0
    6.5601  -17.8054   21.1457 O   0  0  0  0  0  0  0  0  0  0  0  0
    7.3139  -12.8271   19.1066 N   0  0  0  0  0  0  0  0  0  0  0  0
    7.8803  -13.7782   19.9959 C   0  0  0  0  0  0  0  0  0  0  0  0
    8.6767  -14.6210   19.5084 O   0  0  0  0  0  0  0  0  0  0  0  0
    7.5771  -13.8271   21.4568 C   0  0  0  0  0  0  0  0  0  0  0  0
    7.1672  -15.2573   21.7876 C   0  0  2  0  0  0  0  0  0  0  0  0
    5.9047  -15.6012   21.2159 N   0  0  0  0  0  0  0  0  0  0  0  0
    7.0863  -15.4226   23.2546 C   0  0  0  0  0  0  0  0  0  0  0  0
    6.1782  -14.8785   23.9289 O   0  0  0  0  0  0  0  0  0  0  0  0
    8.0428  -16.2151   23.9804 N   0  0  0  0  0  0  0  0  0  0  0  0
    7.9422  -16.3962   25.4090 C   0  0  0  0  0  0  0  0  0  0  0  0
    9.1241  -17.1246   25.9277 C   0  0  0  0  0  0  0  0  0  0  0  0
   10.0017  -17.5217   25.1438 O   0  0  0  0  0  0  0  0  0  0  0  0
    9.2760  -17.3755   27.2895 O   0  0  0  0  0  0  0  0  0  0  0  0
  1  2  1  0
  2  3  1  0
  3  4  2  0
  3 10  1  0
  6  7  2  0
  6  5  1  0
  9  8  1  1
  8  6  1  0
  9 11  1  0
 10  9  1  0
 11 12  2  0
 13 11  1  0
 13 14  1  0
 15 14  1  0
 15 17  1  0
 16 15  2  0
M  END
$$$$
