GNG.pdb
     RDKit          3D

 17 16  0  0  1  0  0  0  0  0999 V2000
   -2.5267  -25.9849   28.3970 N   0  0  0  0  0  0  0  0  0  0  0  0
   -3.9254  -26.0742   27.9522 C   0  0  0  0  0  0  0  0  0  0  0  0
   -4.6763  -24.9793   28.6110 C   0  0  0  0  0  0  0  0  0  0  0  0
   -4.6685  -24.8724   29.8732 O   0  0  0  0  0  0  0  0  0  0  0  0
   -3.7350  -21.9027   28.1468 N   0  0  0  0  0  0  0  0  0  0  0  0
   -4.8896  -21.1884   27.7310 C   0  0  0  0  0  0  0  0  0  0  0  0
   -4.7133  -20.0472   27.2321 O   0  0  0  0  0  0  0  0  0  0  0  0
   -6.2797  -21.7170   27.8597 C   0  0  0  0  0  0  0  0  0  0  0  0
   -6.1928  -23.0476   28.5980 C   0  0  2  0  0  0  0  0  0  0  0  0
   -5.4263  -24.0135   27.8779 N   0  0  0  0  0  0  0  0  0  0  0  0
   -7.5535  -23.5842   28.8135 C   0  0  0  0  0  0  0  0  0  0  0  0
   -8.2199  -24.0840   27.8747 O   0  0  0  0  0  0  0  0  0  0  0  0
   -8.1794  -23.5608   30.1087 N   0  0  0  0  0  0  0  0  0  0  0  0
   -9.4643  -24.1783   30.3358 C   0  0  0  0  0  0  0  0  0  0  0  0
   -9.8694  -24.0346   31.7542 C   0  0  0  0  0  0  0  0  0  0  0  0
   -9.0929  -23.5139   32.5718 O   0  0  0  0  0  0  0  0  0  0  0  0
  -11.1154  -24.4734   32.1962 O   0  0  0  0  0  0  0  0  0  0  0  0
  1  2  1  0
  2  3  1  0
  3  4  2  0
  3 10  1  0
  6  7  2  0
  6  5  1  0
  9  8  1  6
  8  6  1  0
  9 11  1  0
 10  9  1  0
 11 12  2  0
 13 11  1  0
 13 14  1  0
 15 14  1  0
 15 17  1  0
 16 15  2  0
M  END
$$$$
