GNG.pdb
     RDKit          3D

 17 16  0  0  1  0  0  0  0  0999 V2000
   12.3303  -16.0340   15.8202 N   0  0  0  0  0  0  0  0  0  0  0  0
   11.1781  -16.3087   16.6913 C   0  0  0  0  0  0  0  0  0  0  0  0
   11.2859  -15.4188   17.8716 C   0  0  0  0  0  0  0  0  0  0  0  0
   12.3665  -14.8005   18.1054 O   0  0  0  0  0  0  0  0  0  0  0  0
    9.0700  -12.7608   18.1617 N   0  0  0  0  0  0  0  0  0  0  0  0
    8.4853  -12.9908   19.4350 C   0  0  0  0  0  0  0  0  0  0  0  0
    7.3830  -12.4334   19.6728 O   0  0  0  0  0  0  0  0  0  0  0  0
    9.1084  -13.8451   20.4887 C   0  0  0  0  0  0  0  0  0  0  0  0
   10.4169  -14.3830   19.9218 C   0  0  2  0  0  0  0  0  0  0  0  0
   10.2071  -15.2163   18.7814 N   0  0  0  0  0  0  0  0  0  0  0  0
   11.1220  -15.1652   20.9597 C   0  0  0  0  0  0  0  0  0  0  0  0
   10.5438  -16.0730   21.6054 O   0  0  0  0  0  0  0  0  0  0  0  0
   12.5039  -14.9251   21.2793 N   0  0  0  0  0  0  0  0  0  0  0  0
   13.1896  -15.6988   22.2868 C   0  0  0  0  0  0  0  0  0  0  0  0
   14.6200  -15.3165   22.3553 C   0  0  0  0  0  0  0  0  0  0  0  0
   15.1007  -14.5556   21.4994 O   0  0  0  0  0  0  0  0  0  0  0  0
   15.4465  -15.7948   23.3695 O   0  0  0  0  0  0  0  0  0  0  0  0
  1  2  1  0
  2  3  1  0
  3  4  2  0
  3 10  1  0
  6  7  2  0
  6  5  1  0
  9  8  1  1
  8  6  1  0
  9 11  1  0
 10  9  1  0
 11 12  2  0
 13 11  1  0
 13 14  1  0
 15 14  1  0
 15 17  1  0
 16 15  2  0
M  END
$$$$
