PQH.pdb
     RDKit          3D

 27 28  0  0  1  0  0  0  0  0999 V2000
   22.2880  -13.6920  -19.3989 N   0  0  0  0  0  0  0  0  0  0  0  0
   22.5282  -15.0721  -19.6881 C   0  0  0  0  0  0  0  0  0  0  0  0
   22.3056  -15.8605  -18.4358 C   0  0  0  0  0  0  0  0  0  0  0  0
   21.3835  -14.9885  -17.6377 C   0  0  0  0  0  0  0  0  0  0  0  0
   21.3909  -13.6135  -18.2811 C   0  0  1  0  0  0  0  0  0  0  0  0
   21.8301  -12.6260  -17.2663 C   0  0  0  0  0  0  0  0  0  0  0  0
   21.1448  -12.5409  -16.2157 O   0  0  0  0  0  0  0  0  0  0  0  0
   27.6329  -10.8620  -16.1147 N   0  0  0  0  0  0  0  0  0  0  0  0
   26.9435  -12.0394  -15.7176 C   0  0  0  0  0  0  0  0  0  0  0  0
   27.6332  -12.9888  -15.2883 O   0  0  0  0  0  0  0  0  0  0  0  0
   25.4854  -12.0451  -15.8443 C   0  0  0  0  0  0  0  0  0  0  0  0
   24.8672  -10.7625  -16.3088 C   0  0  0  0  0  0  0  0  0  0  0  0
   23.3939  -10.8417  -16.3647 C   0  0  2  0  0  0  0  0  0  0  0  0
   22.9423  -11.7904  -17.3931 N   0  0  0  0  0  0  0  0  0  0  0  0
   22.7071   -9.5395  -16.5511 C   0  0  0  0  0  0  0  0  0  0  0  0
   22.7901   -8.8167  -17.5689 O   0  0  0  0  0  0  0  0  0  0  0  0
   21.8584   -9.0055  -15.5108 N   0  0  0  0  0  0  0  0  0  0  0  0
   21.1710   -7.7157  -15.7099 C   0  0  1  0  0  0  0  0  0  0  0  0
   19.7069   -8.0414  -15.9097 C   0  0  0  0  0  0  0  0  0  0  0  0
   18.8517   -6.8616  -16.0778 C   0  0  0  0  0  0  0  0  0  0  0  0
   19.2994   -5.7270  -16.7716 C   0  0  0  0  0  0  0  0  0  0  0  0
   18.3363   -4.8102  -16.7771 N   0  0  0  0  0  0  0  0  0  0  0  0
   17.2869   -5.3283  -16.1062 C   0  0  0  0  0  0  0  0  0  0  0  0
   17.6073   -6.5703  -15.6864 N   0  0  0  0  0  0  0  0  0  0  0  0
   21.3223   -6.9143  -14.4609 C   0  0  0  0  0  0  0  0  0  0  0  0
   21.6760   -7.6283  -13.2964 O   0  0  0  0  0  0  0  0  0  0  0  0
   21.1544   -5.6694  -14.3994 O   0  0  0  0  0  0  0  0  0  0  0  0
  1  2  1  0
  3  2  1  0
  4  3  1  0
  5  4  1  0
  5  1  1  0
  5  6  1  1
  7  6  2  0
  9  8  1  0
  9 10  2  0
 11 12  1  0
 11  9  1  0
 13 12  1  6
 13 14  1  0
 14  6  1  0
 15 17  1  0
 15 13  1  0
 16 15  2  0
 18 25  1  0
 18 17  1  0
 18 19  1  1
 20 19  1  0
 21 20  2  0
 22 21  1  0
 23 22  1  0
 23 24  2  0
 24 20  1  0
 25 26  1  0
 27 25  2  0
M  END
$$$$
