PQH.pdb
     RDKit          3D

 27 28  0  0  1  0  0  0  0  0999 V2000
   21.2268  -17.4187  -15.6029 N   0  0  0  0  0  0  0  0  0  0  0  0
   22.3221  -18.3326  -15.4973 C   0  0  0  0  0  0  0  0  0  0  0  0
   22.3705  -19.1548  -16.7467 C   0  0  0  0  0  0  0  0  0  0  0  0
   21.6777  -18.2900  -17.7566 C   0  0  0  0  0  0  0  0  0  0  0  0
   20.9618  -17.1892  -16.9949 C   0  0  1  0  0  0  0  0  0  0  0  0
   19.5170  -17.2613  -17.3192 C   0  0  0  0  0  0  0  0  0  0  0  0
   19.1936  -17.1280  -18.5268 O   0  0  0  0  0  0  0  0  0  0  0  0
   15.3144  -21.1708  -15.6304 N   0  0  0  0  0  0  0  0  0  0  0  0
   16.1038  -21.1315  -16.8113 C   0  0  0  0  0  0  0  0  0  0  0  0
   16.2269  -22.1969  -17.4527 O   0  0  0  0  0  0  0  0  0  0  0  0
   16.7080  -19.8503  -17.1791 C   0  0  0  0  0  0  0  0  0  0  0  0
   16.4003  -18.7005  -16.2701 C   0  0  0  0  0  0  0  0  0  0  0  0
   17.0621  -17.4540  -16.7039 C   0  0  2  0  0  0  0  0  0  0  0  0
   18.4976  -17.4654  -16.3863 N   0  0  0  0  0  0  0  0  0  0  0  0
   16.4459  -16.2083  -16.1834 C   0  0  0  0  0  0  0  0  0  0  0  0
   16.7277  -15.6620  -15.0939 O   0  0  0  0  0  0  0  0  0  0  0  0
   15.4313  -15.5203  -16.9482 N   0  0  0  0  0  0  0  0  0  0  0  0
   14.8090  -14.2948  -16.4127 C   0  0  1  0  0  0  0  0  0  0  0  0
   14.0716  -13.6536  -17.5680 C   0  0  0  0  0  0  0  0  0  0  0  0
   13.2755  -12.4812  -17.1893 C   0  0  0  0  0  0  0  0  0  0  0  0
   13.8780  -11.2400  -16.9334 C   0  0  0  0  0  0  0  0  0  0  0  0
   12.9378  -10.3558  -16.6137 N   0  0  0  0  0  0  0  0  0  0  0  0
   11.7525  -10.9983  -16.6584 C   0  0  0  0  0  0  0  0  0  0  0  0
   11.9660  -12.2843  -17.0077 N   0  0  0  0  0  0  0  0  0  0  0  0
   13.8200  -14.6967  -15.3708 C   0  0  0  0  0  0  0  0  0  0  0  0
   13.4501  -13.7027  -14.4403 O   0  0  0  0  0  0  0  0  0  0  0  0
   13.3158  -15.8458  -15.2858 O   0  0  0  0  0  0  0  0  0  0  0  0
  1  2  1  0
  3  2  1  0
  4  3  1  0
  5  4  1  0
  5  1  1  0
  5  6  1  1
  7  6  2  0
  9  8  1  0
  9 10  2  0
 11 12  1  0
 11  9  1  0
 13 12  1  1
 13 14  1  0
 14  6  1  0
 15 17  1  0
 15 13  1  0
 16 15  2  0
 18 25  1  0
 18 17  1  0
 18 19  1  6
 20 19  1  0
 21 20  2  0
 22 21  1  0
 23 22  1  0
 23 24  2  0
 24 20  1  0
 25 26  1  0
 27 25  2  0
M  END
$$$$
