PQH.pdb
     RDKit          3D

 27 28  0  0  1  0  0  0  0  0999 V2000
   22.4980  -14.0765  -19.7774 N   0  0  0  0  0  0  0  0  0  0  0  0
   22.3061  -14.9693  -20.8784 C   0  0  0  0  0  0  0  0  0  0  0  0
   22.6531  -14.2421  -22.1393 C   0  0  0  0  0  0  0  0  0  0  0  0
   23.5845  -13.1643  -21.6717 C   0  0  0  0  0  0  0  0  0  0  0  0
   23.4654  -13.0875  -20.1602 C   0  0  1  0  0  0  0  0  0  0  0  0
   23.0497  -11.7124  -19.7944 C   0  0  0  0  0  0  0  0  0  0  0  0
   23.8870  -10.7928  -19.9784 O   0  0  0  0  0  0  0  0  0  0  0  0
   17.5874   -8.9303  -18.0855 N   0  0  0  0  0  0  0  0  0  0  0  0
   17.9079  -10.2947  -17.8515 C   0  0  0  0  0  0  0  0  0  0  0  0
   17.1637  -10.9322  -17.0760 O   0  0  0  0  0  0  0  0  0  0  0  0
   19.0810  -10.8411  -18.5350 C   0  0  0  0  0  0  0  0  0  0  0  0
   19.8920   -9.8588  -19.3225 C   0  0  0  0  0  0  0  0  0  0  0  0
   21.3385   -9.9892  -19.0563 C   0  0  2  0  0  0  0  0  0  0  0  0
   21.8040  -11.3683  -19.2642 N   0  0  0  0  0  0  0  0  0  0  0  0
   21.7707   -9.5130  -17.7189 C   0  0  0  0  0  0  0  0  0  0  0  0
   21.7814  -10.2013  -16.6743 O   0  0  0  0  0  0  0  0  0  0  0  0
   22.2283   -8.1542  -17.5399 N   0  0  0  0  0  0  0  0  0  0  0  0
   22.7311   -7.7129  -16.2253 C   0  0  1  0  0  0  0  0  0  0  0  0
   23.7971   -6.6761  -16.5049 C   0  0  0  0  0  0  0  0  0  0  0  0
   25.0182   -7.2240  -17.1052 C   0  0  0  0  0  0  0  0  0  0  0  0
   25.1650   -8.6001  -17.3368 C   0  0  0  0  0  0  0  0  0  0  0  0
   26.3554   -8.8263  -17.8844 N   0  0  0  0  0  0  0  0  0  0  0  0
   26.9720   -7.6329  -18.0086 C   0  0  0  0  0  0  0  0  0  0  0  0
   26.1556   -6.6684  -17.5345 N   0  0  0  0  0  0  0  0  0  0  0  0
   21.6045   -7.0637  -15.4944 C   0  0  0  0  0  0  0  0  0  0  0  0
   21.8830   -6.6102  -14.1876 O   0  0  0  0  0  0  0  0  0  0  0  0
   20.4526   -6.9065  -15.9743 O   0  0  0  0  0  0  0  0  0  0  0  0
  1  2  1  0
  3  2  1  0
  4  3  1  0
  5  4  1  0
  5  1  1  0
  5  6  1  6
  7  6  2  0
  9  8  1  0
  9 10  2  0
 11 12  1  0
 11  9  1  0
 13 12  1  1
 13 14  1  0
 14  6  1  0
 15 17  1  0
 15 13  1  0
 16 15  2  0
 18 25  1  0
 18 17  1  0
 18 19  1  6
 20 19  1  0
 21 20  2  0
 22 21  1  0
 23 22  1  0
 23 24  2  0
 24 20  1  0
 25 26  1  0
 27 25  2  0
M  END
$$$$
