PQH.pdb
     RDKit          3D

 27 28  0  0  1  0  0  0  0  0999 V2000
   24.8384  -11.0955  -18.1812 N   0  0  0  0  0  0  0  0  0  0  0  0
   24.6839  -12.4874  -18.4723 C   0  0  0  0  0  0  0  0  0  0  0  0
   23.2336  -12.8351  -18.3498 C   0  0  0  0  0  0  0  0  0  0  0  0
   22.5436  -11.5227  -18.5712 C   0  0  0  0  0  0  0  0  0  0  0  0
   23.5959  -10.4339  -18.4622 C   0  0  1  0  0  0  0  0  0  0  0  0
   23.1911   -9.5003  -17.3842 C   0  0  0  0  0  0  0  0  0  0  0  0
   23.2348   -9.9335  -16.2048 O   0  0  0  0  0  0  0  0  0  0  0  0
   24.5416   -3.6816  -17.0514 N   0  0  0  0  0  0  0  0  0  0  0  0
   25.2584   -4.8298  -16.6187 C   0  0  0  0  0  0  0  0  0  0  0  0
   26.4873   -4.7004  -16.4327 O   0  0  0  0  0  0  0  0  0  0  0  0
   24.5016   -6.0677  -16.4275 C   0  0  0  0  0  0  0  0  0  0  0  0
   23.0199   -5.9610  -16.6179 C   0  0  0  0  0  0  0  0  0  0  0  0
   22.3480   -7.2714  -16.5103 C   0  0  2  0  0  0  0  0  0  0  0  0
   22.7683   -8.1839  -17.5838 N   0  0  0  0  0  0  0  0  0  0  0  0
   20.8662   -7.2089  -16.4603 C   0  0  0  0  0  0  0  0  0  0  0  0
   20.1076   -7.2150  -17.4551 O   0  0  0  0  0  0  0  0  0  0  0  0
   20.1805   -7.1336  -15.1907 N   0  0  0  0  0  0  0  0  0  0  0  0
   18.7103   -7.0204  -15.1526 C   0  0  1  0  0  0  0  0  0  0  0  0
   18.2352   -8.0105  -14.1116 C   0  0  0  0  0  0  0  0  0  0  0  0
   18.0760   -9.3777  -14.6188 C   0  0  0  0  0  0  0  0  0  0  0  0
   18.3776   -9.7034  -15.9499 C   0  0  0  0  0  0  0  0  0  0  0  0
   18.1469  -10.9982  -16.1457 N   0  0  0  0  0  0  0  0  0  0  0  0
   17.7066  -11.5074  -14.9767 C   0  0  0  0  0  0  0  0  0  0  0  0
   17.6667  -10.5198  -14.0578 N   0  0  0  0  0  0  0  0  0  0  0  0
   18.3651   -5.6411  -14.7014 C   0  0  0  0  0  0  0  0  0  0  0  0
   17.0270   -5.2356  -14.8908 O   0  0  0  0  0  0  0  0  0  0  0  0
   19.1866   -4.8468  -14.1761 O   0  0  0  0  0  0  0  0  0  0  0  0
  1  2  1  0
  3  2  1  0
  4  3  1  0
  5  4  1  0
  5  1  1  0
  5  6  1  1
  7  6  2  0
  9  8  1  0
  9 10  2  0
 11 12  1  0
 11  9  1  0
 13 12  1  6
 13 14  1  0
 14  6  1  0
 15 17  1  0
 15 13  1  0
 16 15  2  0
 18 25  1  0
 18 17  1  0
 18 19  1  1
 20 19  1  0
 21 20  2  0
 22 21  1  0
 23 22  1  0
 23 24  2  0
 24 20  1  0
 25 26  1  0
 27 25  2  0
M  END
$$$$
