PQH.pdb
     RDKit          3D

 27 28  0  0  1  0  0  0  0  0999 V2000
   26.5824  -21.1377  -16.6050 N   0  0  0  0  0  0  0  0  0  0  0  0
   27.9764  -21.0652  -16.9174 C   0  0  0  0  0  0  0  0  0  0  0  0
   28.7036  -22.0458  -16.0520 C   0  0  0  0  0  0  0  0  0  0  0  0
   27.6462  -23.0497  -15.7031 C   0  0  0  0  0  0  0  0  0  0  0  0
   26.3052  -22.4418  -16.0728 C   0  0  1  0  0  0  0  0  0  0  0  0
   25.4634  -22.3924  -14.8536 C   0  0  0  0  0  0  0  0  0  0  0  0
   25.1087  -23.4918  -14.3574 O   0  0  0  0  0  0  0  0  0  0  0  0
   26.4705  -20.8148   -9.4877 N   0  0  0  0  0  0  0  0  0  0  0  0
   25.0554  -20.8167   -9.3581 C   0  0  0  0  0  0  0  0  0  0  0  0
   24.5864  -20.9801   -8.2114 O   0  0  0  0  0  0  0  0  0  0  0  0
   24.2641  -20.6288  -10.5748 C   0  0  0  0  0  0  0  0  0  0  0  0
   25.0350  -20.6255  -11.8588 C   0  0  0  0  0  0  0  0  0  0  0  0
   24.2522  -21.1808  -12.9808 C   0  0  2  0  0  0  0  0  0  0  0  0
   25.0397  -21.2209  -14.2217 N   0  0  0  0  0  0  0  0  0  0  0  0
   22.9576  -20.5008  -13.2332 C   0  0  0  0  0  0  0  0  0  0  0  0
   22.5834  -19.4345  -12.6965 O   0  0  0  0  0  0  0  0  0  0  0  0
   22.0061  -21.0634  -14.1638 N   0  0  0  0  0  0  0  0  0  0  0  0
   20.7084  -20.3975  -14.3840 C   0  0  1  0  0  0  0  0  0  0  0  0
   20.2055  -19.9856  -13.0176 C   0  0  0  0  0  0  0  0  0  0  0  0
   19.6707  -21.0948  -12.2205 C   0  0  0  0  0  0  0  0  0  0  0  0
   19.7671  -22.4239  -12.6599 C   0  0  0  0  0  0  0  0  0  0  0  0
   19.2079  -23.2240  -11.7570 N   0  0  0  0  0  0  0  0  0  0  0  0
   18.7576  -22.4425  -10.7541 C   0  0  0  0  0  0  0  0  0  0  0  0
   19.0418  -21.1550  -11.0426 N   0  0  0  0  0  0  0  0  0  0  0  0
   20.9508  -19.1724  -15.1999 C   0  0  0  0  0  0  0  0  0  0  0  0
   19.8068  -18.4574  -15.6130 O   0  0  0  0  0  0  0  0  0  0  0  0
   22.0931  -18.7599  -15.5267 O   0  0  0  0  0  0  0  0  0  0  0  0
  1  2  1  0
  3  2  1  0
  4  3  1  0
  5  4  1  0
  5  1  1  0
  5  6  1  1
  7  6  2  0
  9  8  1  0
  9 10  2  0
 11 12  1  0
 11  9  1  0
 13 12  1  1
 13 14  1  0
 14  6  1  0
 15 17  1  0
 15 13  1  0
 16 15  2  0
 18 25  1  0
 18 17  1  0
 18 19  1  1
 20 19  1  0
 21 20  2  0
 22 21  1  0
 23 22  1  0
 23 24  2  0
 24 20  1  0
 25 26  1  0
 27 25  2  0
M  END
$$$$
