PQH.pdb
     RDKit          3D

 27 28  0  0  1  0  0  0  0  0999 V2000
   18.4840  -15.8008    2.9179 N   0  0  0  0  0  0  0  0  0  0  0  0
   17.6358  -15.3061    1.8777 C   0  0  0  0  0  0  0  0  0  0  0  0
   16.5761  -14.4532    2.5011 C   0  0  0  0  0  0  0  0  0  0  0  0
   17.1994  -14.0159    3.7925 C   0  0  0  0  0  0  0  0  0  0  0  0
   18.4169  -14.8919    4.0269 C   0  0  1  0  0  0  0  0  0  0  0  0
   18.2476  -15.5882    5.3247 C   0  0  0  0  0  0  0  0  0  0  0  0
   18.3117  -14.8849    6.3648 O   0  0  0  0  0  0  0  0  0  0  0  0
   15.4465  -21.0756    6.2436 N   0  0  0  0  0  0  0  0  0  0  0  0
   14.8795  -19.8093    5.9367 C   0  0  0  0  0  0  0  0  0  0  0  0
   13.7015  -19.7959    5.5201 O   0  0  0  0  0  0  0  0  0  0  0  0
   15.7192  -18.6266    6.1320 C   0  0  0  0  0  0  0  0  0  0  0  0
   17.1024  -18.8875    6.6436 C   0  0  0  0  0  0  0  0  0  0  0  0
   17.8949  -17.6477    6.7657 C   0  0  2  0  0  0  0  0  0  0  0  0
   18.0234  -16.9590    5.4731 N   0  0  0  0  0  0  0  0  0  0  0  0
   19.2375  -17.8244    7.3726 C   0  0  0  0  0  0  0  0  0  0  0  0
   20.2974  -18.0254    6.7390 O   0  0  0  0  0  0  0  0  0  0  0  0
   19.4039  -17.7707    8.8069 N   0  0  0  0  0  0  0  0  0  0  0  0
   20.7479  -17.9088    9.3987 C   0  0  1  0  0  0  0  0  0  0  0  0
   21.5463  -16.7153    8.9217 C   0  0  0  0  0  0  0  0  0  0  0  0
   22.8494  -16.5691    9.5791 C   0  0  0  0  0  0  0  0  0  0  0  0
   23.7337  -17.6520    9.6982 C   0  0  0  0  0  0  0  0  0  0  0  0
   24.8330  -17.2507   10.3297 N   0  0  0  0  0  0  0  0  0  0  0  0
   24.6745  -15.9422   10.6166 C   0  0  0  0  0  0  0  0  0  0  0  0
   23.4712  -15.5375   10.1588 N   0  0  0  0  0  0  0  0  0  0  0  0
   20.6087  -17.8361   10.8822 C   0  0  0  0  0  0  0  0  0  0  0  0
   21.7099  -18.2901   11.6385 O   0  0  0  0  0  0  0  0  0  0  0  0
   19.5862  -17.4022   11.4721 O   0  0  0  0  0  0  0  0  0  0  0  0
  1  2  1  0
  3  2  1  0
  4  3  1  0
  5  4  1  0
  5  1  1  0
  5  6  1  1
  7  6  2  0
  9  8  1  0
  9 10  2  0
 11 12  1  0
 11  9  1  0
 13 12  1  6
 13 14  1  0
 14  6  1  0
 15 17  1  0
 15 13  1  0
 16 15  2  0
 18 25  1  0
 18 17  1  0
 18 19  1  6
 20 19  1  0
 21 20  2  0
 22 21  1  0
 23 22  1  0
 23 24  2  0
 24 20  1  0
 25 26  1  0
 27 25  2  0
M  END
$$$$
