PQH.pdb
     RDKit          3D

 27 28  0  0  1  0  0  0  0  0999 V2000
   27.6638  -20.8574  -17.9664 N   0  0  0  0  0  0  0  0  0  0  0  0
   28.9627  -21.4564  -17.9761 C   0  0  0  0  0  0  0  0  0  0  0  0
   29.0895  -22.3237  -16.7633 C   0  0  0  0  0  0  0  0  0  0  0  0
   27.6667  -22.6503  -16.4215 C   0  0  0  0  0  0  0  0  0  0  0  0
   26.7825  -21.7005  -17.2094 C   0  0  1  0  0  0  0  0  0  0  0  0
   25.9477  -20.9374  -16.2511 C   0  0  0  0  0  0  0  0  0  0  0  0
   26.2459  -19.7300  -16.0666 O   0  0  0  0  0  0  0  0  0  0  0  0
   19.8904  -21.4252  -14.9652 N   0  0  0  0  0  0  0  0  0  0  0  0
   20.3058  -20.5216  -13.9502 C   0  0  0  0  0  0  0  0  0  0  0  0
   19.4292  -20.1005  -13.1655 O   0  0  0  0  0  0  0  0  0  0  0  0
   21.7227  -20.1575  -13.9069 C   0  0  0  0  0  0  0  0  0  0  0  0
   22.5939  -20.8080  -14.9369 C   0  0  0  0  0  0  0  0  0  0  0  0
   24.0286  -20.6910  -14.6083 C   0  0  2  0  0  0  0  0  0  0  0  0
   24.8619  -21.4597  -15.5444 N   0  0  0  0  0  0  0  0  0  0  0  0
   24.3794  -21.0553  -13.2132 C   0  0  0  0  0  0  0  0  0  0  0  0
   24.2324  -22.1877  -12.7022 O   0  0  0  0  0  0  0  0  0  0  0  0
   24.9409  -20.0685  -12.3195 N   0  0  0  0  0  0  0  0  0  0  0  0
   25.2872  -20.4403  -10.9347 C   0  0  1  0  0  0  0  0  0  0  0  0
   26.0140  -19.2513  -10.3451 C   0  0  0  0  0  0  0  0  0  0  0  0
   26.5223  -19.4771   -8.9878 C   0  0  0  0  0  0  0  0  0  0  0  0
   26.4124  -20.7296   -8.3649 C   0  0  0  0  0  0  0  0  0  0  0  0
   26.9481  -20.6616   -7.1499 N   0  0  0  0  0  0  0  0  0  0  0  0
   27.3966  -19.4007   -6.9803 C   0  0  0  0  0  0  0  0  0  0  0  0
   27.1349  -18.6904   -8.0976 N   0  0  0  0  0  0  0  0  0  0  0  0
   24.0167  -20.6526  -10.1823 C   0  0  0  0  0  0  0  0  0  0  0  0
   24.0281  -21.6724   -9.2072 O   0  0  0  0  0  0  0  0  0  0  0  0
   22.9677  -19.9851  -10.3711 O   0  0  0  0  0  0  0  0  0  0  0  0
  1  2  1  0
  3  2  1  0
  4  3  1  0
  5  4  1  0
  5  1  1  0
  5  6  1  1
  7  6  2  0
  9  8  1  0
  9 10  2  0
 11 12  1  0
 11  9  1  0
 13 12  1  6
 13 14  1  0
 14  6  1  0
 15 17  1  0
 15 13  1  0
 16 15  2  0
 18 25  1  0
 18 17  1  0
 18 19  1  1
 20 19  1  0
 21 20  2  0
 22 21  1  0
 23 22  1  0
 23 24  2  0
 24 20  1  0
 25 26  1  0
 27 25  2  0
M  END
$$$$
