PQH.pdb
     RDKit          3D

 27 28  0  0  1  0  0  0  0  0999 V2000
   27.3175  -22.0580  -18.4947 N   0  0  0  0  0  0  0  0  0  0  0  0
   27.6016  -22.1678  -19.8923 C   0  0  0  0  0  0  0  0  0  0  0  0
   28.8490  -21.3932  -20.1807 C   0  0  0  0  0  0  0  0  0  0  0  0
   29.5502  -21.3613  -18.8560 C   0  0  0  0  0  0  0  0  0  0  0  0
   28.5473  -21.7955  -17.8023 C   0  0  1  0  0  0  0  0  0  0  0  0
   28.4181  -20.7067  -16.8046 C   0  0  0  0  0  0  0  0  0  0  0  0
   29.4543  -20.3867  -16.1685 O   0  0  0  0  0  0  0  0  0  0  0  0
   27.3307  -15.2997  -17.4514 N   0  0  0  0  0  0  0  0  0  0  0  0
   26.9245  -15.2428  -16.0909 C   0  0  0  0  0  0  0  0  0  0  0  0
   27.0167  -14.1391  -15.5121 O   0  0  0  0  0  0  0  0  0  0  0  0
   26.4335  -16.4783  -15.4790 C   0  0  0  0  0  0  0  0  0  0  0  0
   26.4976  -17.7016  -16.3406 C   0  0  0  0  0  0  0  0  0  0  0  0
   27.1488  -18.8345  -15.6531 C   0  0  2  0  0  0  0  0  0  0  0  0
   27.2368  -20.0163  -16.5232 N   0  0  0  0  0  0  0  0  0  0  0  0
   26.5329  -19.2136  -14.3573 C   0  0  0  0  0  0  0  0  0  0  0  0
   26.3330  -18.4378  -13.3965 O   0  0  0  0  0  0  0  0  0  0  0  0
   26.1065  -20.5738  -14.1213 N   0  0  0  0  0  0  0  0  0  0  0  0
   25.4911  -20.9401  -12.8318 C   0  0  1  0  0  0  0  0  0  0  0  0
   26.3835  -20.3608  -11.7558 C   0  0  0  0  0  0  0  0  0  0  0  0
   25.9439  -20.6648  -10.3898 C   0  0  0  0  0  0  0  0  0  0  0  0
   24.8856  -21.5525  -10.1429 C   0  0  0  0  0  0  0  0  0  0  0  0
   24.6934  -21.6487   -8.8307 N   0  0  0  0  0  0  0  0  0  0  0  0
   25.5995  -20.8472   -8.2338 C   0  0  0  0  0  0  0  0  0  0  0  0
   26.3524  -20.2554   -9.1848 N   0  0  0  0  0  0  0  0  0  0  0  0
   24.1534  -20.2844  -12.7558 C   0  0  0  0  0  0  0  0  0  0  0  0
   23.0800  -21.0960  -12.3315 O   0  0  0  0  0  0  0  0  0  0  0  0
   23.9442  -19.0781  -13.0438 O   0  0  0  0  0  0  0  0  0  0  0  0
  1  2  1  0
  3  2  1  0
  4  3  1  0
  5  4  1  0
  5  1  1  0
  5  6  1  1
  7  6  2  0
  9  8  1  0
  9 10  2  0
 11 12  1  0
 11  9  1  0
 13 12  1  6
 13 14  1  0
 14  6  1  0
 15 17  1  0
 15 13  1  0
 16 15  2  0
 18 25  1  0
 18 17  1  0
 18 19  1  1
 20 19  1  0
 21 20  2  0
 22 21  1  0
 23 22  1  0
 23 24  2  0
 24 20  1  0
 25 26  1  0
 27 25  2  0
M  END
$$$$
