PQH.pdb
     RDKit          3D

 27 28  0  0  1  0  0  0  0  0999 V2000
   13.7400  -12.9427  -13.1043 N   0  0  0  0  0  0  0  0  0  0  0  0
   14.4343  -13.7272  -14.0783 C   0  0  0  0  0  0  0  0  0  0  0  0
   15.8885  -13.3811  -14.0109 C   0  0  0  0  0  0  0  0  0  0  0  0
   16.0543  -12.8541  -12.6171 C   0  0  0  0  0  0  0  0  0  0  0  0
   14.6651  -12.5894  -12.0651 C   0  0  1  0  0  0  0  0  0  0  0  0
   14.5782  -11.1585  -11.6874 C   0  0  0  0  0  0  0  0  0  0  0  0
   14.2361  -10.3485  -12.5860 O   0  0  0  0  0  0  0  0  0  0  0  0
   12.2893   -8.2884   -6.7570 N   0  0  0  0  0  0  0  0  0  0  0  0
   13.0953   -7.2450   -7.2870 C   0  0  0  0  0  0  0  0  0  0  0  0
   12.9945   -6.1185   -6.7559 O   0  0  0  0  0  0  0  0  0  0  0  0
   13.9751   -7.5733   -8.4096 C   0  0  0  0  0  0  0  0  0  0  0  0
   13.9703   -9.0068   -8.8431 C   0  0  0  0  0  0  0  0  0  0  0  0
   14.7846   -9.2257  -10.0551 C   0  0  2  0  0  0  0  0  0  0  0  0
   14.8469  -10.6500  -10.4144 N   0  0  0  0  0  0  0  0  0  0  0  0
   16.1577   -8.6665   -9.9920 C   0  0  0  0  0  0  0  0  0  0  0  0
   17.0795   -9.0921   -9.2611 O   0  0  0  0  0  0  0  0  0  0  0  0
   16.5258   -7.5384  -10.8163 N   0  0  0  0  0  0  0  0  0  0  0  0
   17.9158   -7.0448  -10.8121 C   0  0  1  0  0  0  0  0  0  0  0  0
   18.5229   -7.4747  -12.1297 C   0  0  0  0  0  0  0  0  0  0  0  0
   19.8103   -6.8382  -12.4282 C   0  0  0  0  0  0  0  0  0  0  0  0
   21.0237   -7.5139  -12.2285 C   0  0  0  0  0  0  0  0  0  0  0  0
   22.0298   -6.7165  -12.5749 N   0  0  0  0  0  0  0  0  0  0  0  0
   21.4921   -5.5511  -12.9899 C   0  0  0  0  0  0  0  0  0  0  0  0
   20.1481   -5.6332  -12.8980 N   0  0  0  0  0  0  0  0  0  0  0  0
   17.8762   -5.5545  -10.7609 C   0  0  0  0  0  0  0  0  0  0  0  0
   19.0674   -4.9085  -10.3677 O   0  0  0  0  0  0  0  0  0  0  0  0
   16.8611   -4.8678  -11.0434 O   0  0  0  0  0  0  0  0  0  0  0  0
  1  2  1  0
  3  2  1  0
  4  3  1  0
  5  4  1  0
  5  1  1  0
  5  6  1  6
  7  6  2  0
  9  8  1  0
  9 10  2  0
 11 12  1  0
 11  9  1  0
 13 12  1  1
 13 14  1  0
 14  6  1  0
 15 17  1  0
 15 13  1  0
 16 15  2  0
 18 25  1  0
 18 17  1  0
 18 19  1  6
 20 19  1  0
 21 20  2  0
 22 21  1  0
 23 22  1  0
 23 24  2  0
 24 20  1  0
 25 26  1  0
 27 25  2  0
M  END
$$$$
