PQH.pdb
     RDKit          3D

 27 28  0  0  1  0  0  0  0  0999 V2000
   45.9719  -14.7730   -6.8788 N   0  0  0  0  0  0  0  0  0  0  0  0
   46.6058  -15.9721   -6.4245 C   0  0  0  0  0  0  0  0  0  0  0  0
   47.6068  -16.3937   -7.4539 C   0  0  0  0  0  0  0  0  0  0  0  0
   47.9254  -15.1157   -8.1700 C   0  0  0  0  0  0  0  0  0  0  0  0
   46.8667  -14.1009   -7.7777 C   0  0  1  0  0  0  0  0  0  0  0  0
   46.1901  -13.6324   -9.0108 C   0  0  0  0  0  0  0  0  0  0  0  0
   46.8973  -13.0328   -9.8598 O   0  0  0  0  0  0  0  0  0  0  0  0
   43.0951  -17.3790  -11.8301 N   0  0  0  0  0  0  0  0  0  0  0  0
   42.8060  -17.0284  -10.4837 C   0  0  0  0  0  0  0  0  0  0  0  0
   42.3682  -17.9312   -9.7390 O   0  0  0  0  0  0  0  0  0  0  0  0
   43.0426  -15.6417  -10.0798 C   0  0  0  0  0  0  0  0  0  0  0  0
   43.5533  -14.7293  -11.1520 C   0  0  0  0  0  0  0  0  0  0  0  0
   44.2111  -13.5297  -10.5968 C   0  0  2  0  0  0  0  0  0  0  0  0
   44.8337  -13.8086   -9.2944 N   0  0  0  0  0  0  0  0  0  0  0  0
   43.3372  -12.3354  -10.4865 C   0  0  0  0  0  0  0  0  0  0  0  0
   42.5561  -11.9257  -11.3737 O   0  0  0  0  0  0  0  0  0  0  0  0
   43.3403  -11.5365   -9.2826 N   0  0  0  0  0  0  0  0  0  0  0  0
   42.4857  -10.3377   -9.1913 C   0  0  1  0  0  0  0  0  0  0  0  0
   42.0590  -10.2299   -7.7436 C   0  0  0  0  0  0  0  0  0  0  0  0
   40.8726  -11.0260   -7.4114 C   0  0  0  0  0  0  0  0  0  0  0  0
   40.1542  -11.7150   -8.4004 C   0  0  0  0  0  0  0  0  0  0  0  0
   39.1331  -12.3516   -7.8347 N   0  0  0  0  0  0  0  0  0  0  0  0
   39.1801  -12.0879   -6.5126 C   0  0  0  0  0  0  0  0  0  0  0  0
   40.2361  -11.2849   -6.2649 N   0  0  0  0  0  0  0  0  0  0  0  0
   43.3179   -9.1498   -9.5401 C   0  0  0  0  0  0  0  0  0  0  0  0
   44.7161   -9.3134   -9.4441 O   0  0  0  0  0  0  0  0  0  0  0  0
   42.8455   -8.0428   -9.9048 O   0  0  0  0  0  0  0  0  0  0  0  0
  1  2  1  0
  3  2  1  0
  4  3  1  0
  5  4  1  0
  5  1  1  0
  5  6  1  6
  7  6  2  0
  9  8  1  0
  9 10  2  0
 11 12  1  0
 11  9  1  0
 13 12  1  1
 13 14  1  0
 14  6  1  0
 15 17  1  0
 15 13  1  0
 16 15  2  0
 18 25  1  0
 18 17  1  0
 18 19  1  1
 20 19  1  0
 21 20  2  0
 22 21  1  0
 23 22  1  0
 23 24  2  0
 24 20  1  0
 25 26  1  0
 27 25  2  0
M  END
$$$$
