PQH.pdb
     RDKit          3D

 27 28  0  0  1  0  0  0  0  0999 V2000
   27.1697  -20.2304  -16.7830 N   0  0  0  0  0  0  0  0  0  0  0  0
   28.5697  -20.4596  -16.5997 C   0  0  0  0  0  0  0  0  0  0  0  0
   28.8924  -20.2641  -15.1517 C   0  0  0  0  0  0  0  0  0  0  0  0
   27.5802  -20.5088  -14.4690 C   0  0  0  0  0  0  0  0  0  0  0  0
   26.5026  -20.4861  -15.5380 C   0  0  1  0  0  0  0  0  0  0  0  0
   25.5221  -19.4302  -15.1897 C   0  0  0  0  0  0  0  0  0  0  0  0
   24.9145  -19.5511  -14.0957 O   0  0  0  0  0  0  0  0  0  0  0  0
   26.6694  -14.4587  -17.5143 N   0  0  0  0  0  0  0  0  0  0  0  0
   27.1752  -14.9288  -16.2724 C   0  0  0  0  0  0  0  0  0  0  0  0
   28.3615  -14.6502  -15.9957 O   0  0  0  0  0  0  0  0  0  0  0  0
   26.2686  -15.6999  -15.4207 C   0  0  0  0  0  0  0  0  0  0  0  0
   24.8868  -15.9066  -15.9600 C   0  0  0  0  0  0  0  0  0  0  0  0
   24.3329  -17.2230  -15.5851 C   0  0  2  0  0  0  0  0  0  0  0  0
   25.2278  -18.3193  -15.9837 N   0  0  0  0  0  0  0  0  0  0  0  0
   22.9630  -17.4886  -16.0899 C   0  0  0  0  0  0  0  0  0  0  0  0
   22.6841  -17.9400  -17.2229 O   0  0  0  0  0  0  0  0  0  0  0  0
   21.8131  -17.2265  -15.2552 N   0  0  0  0  0  0  0  0  0  0  0  0
   20.4528  -17.4030  -15.7977 C   0  0  1  0  0  0  0  0  0  0  0  0
   19.8807  -18.6281  -15.1185 C   0  0  0  0  0  0  0  0  0  0  0  0
   18.5245  -18.9739  -15.5576 C   0  0  0  0  0  0  0  0  0  0  0  0
   17.9035  -18.2945  -16.6167 C   0  0  0  0  0  0  0  0  0  0  0  0
   16.6891  -18.8011  -16.8081 N   0  0  0  0  0  0  0  0  0  0  0  0
   16.5181  -19.7846  -15.9008 C   0  0  0  0  0  0  0  0  0  0  0  0
   17.6339  -19.8826  -15.1478 N   0  0  0  0  0  0  0  0  0  0  0  0
   19.6429  -16.2120  -15.4096 C   0  0  0  0  0  0  0  0  0  0  0  0
   18.5728  -15.8752  -16.2654 O   0  0  0  0  0  0  0  0  0  0  0  0
   19.8630  -15.5151  -14.3861 O   0  0  0  0  0  0  0  0  0  0  0  0
  1  2  1  0
  3  2  1  0
  4  3  1  0
  5  4  1  0
  5  1  1  0
  5  6  1  1
  7  6  2  0
  9  8  1  0
  9 10  2  0
 11 12  1  0
 11  9  1  0
 13 12  1  6
 13 14  1  0
 14  6  1  0
 15 17  1  0
 15 13  1  0
 16 15  2  0
 18 25  1  0
 18 17  1  0
 18 19  1  1
 20 19  1  0
 21 20  2  0
 22 21  1  0
 23 22  1  0
 23 24  2  0
 24 20  1  0
 25 26  1  0
 27 25  2  0
M  END
$$$$
