PQH.pdb
     RDKit          3D

 27 28  0  0  1  0  0  0  0  0999 V2000
   14.7386  -19.0010    3.5002 N   0  0  0  0  0  0  0  0  0  0  0  0
   13.8267  -18.1274    2.8284 C   0  0  0  0  0  0  0  0  0  0  0  0
   14.2443  -16.7157    3.0964 C   0  0  0  0  0  0  0  0  0  0  0  0
   15.7035  -16.8416    3.4163 C   0  0  0  0  0  0  0  0  0  0  0  0
   15.9874  -18.3123    3.6637 C   0  0  1  0  0  0  0  0  0  0  0  0
   16.5428  -18.4566    5.0306 C   0  0  0  0  0  0  0  0  0  0  0  0
   15.7409  -18.7785    5.9438 O   0  0  0  0  0  0  0  0  0  0  0  0
   21.7779  -20.9228    6.9659 N   0  0  0  0  0  0  0  0  0  0  0  0
   20.5591  -21.4724    6.4845 C   0  0  0  0  0  0  0  0  0  0  0  0
   20.5643  -22.6793    6.1609 O   0  0  0  0  0  0  0  0  0  0  0  0
   19.3998  -20.5824    6.4060 C   0  0  0  0  0  0  0  0  0  0  0  0
   19.6446  -19.1581    6.7989 C   0  0  0  0  0  0  0  0  0  0  0  0
   18.4138  -18.3445    6.7422 C   0  0  2  0  0  0  0  0  0  0  0  0
   17.8830  -18.2623    5.3735 N   0  0  0  0  0  0  0  0  0  0  0  0
   18.5431  -16.9796    7.3100 C   0  0  0  0  0  0  0  0  0  0  0  0
   18.9639  -16.7097    8.4568 O   0  0  0  0  0  0  0  0  0  0  0  0
   18.1700  -15.8241    6.5268 N   0  0  0  0  0  0  0  0  0  0  0  0
   18.2150  -14.4789    7.1302 C   0  0  1  0  0  0  0  0  0  0  0  0
   18.4608  -13.5116    5.9929 C   0  0  0  0  0  0  0  0  0  0  0  0
   19.6115  -12.6263    6.2021 C   0  0  0  0  0  0  0  0  0  0  0  0
   20.3912  -12.7035    7.3661 C   0  0  0  0  0  0  0  0  0  0  0  0
   21.3622  -11.7973    7.3023 N   0  0  0  0  0  0  0  0  0  0  0  0
   21.2237  -11.1443    6.1300 C   0  0  0  0  0  0  0  0  0  0  0  0
   20.1616  -11.6524    5.4702 N   0  0  0  0  0  0  0  0  0  0  0  0
   16.8772  -14.1952    7.7261 C   0  0  0  0  0  0  0  0  0  0  0  0
   16.8406  -13.2310    8.7555 O   0  0  0  0  0  0  0  0  0  0  0  0
   15.8125  -14.7587    7.3644 O   0  0  0  0  0  0  0  0  0  0  0  0
  1  2  1  0
  3  2  1  0
  4  3  1  0
  5  4  1  0
  5  1  1  0
  5  6  1  1
  7  6  2  0
  9  8  1  0
  9 10  2  0
 11 12  1  0
 11  9  1  0
 13 12  1  6
 13 14  1  0
 14  6  1  0
 15 17  1  0
 15 13  1  0
 16 15  2  0
 18 25  1  0
 18 17  1  0
 18 19  1  6
 20 19  1  0
 21 20  2  0
 22 21  1  0
 23 22  1  0
 23 24  2  0
 24 20  1  0
 25 26  1  0
 27 25  2  0
M  END
$$$$
