PQH.pdb
     RDKit          3D

 27 28  0  0  1  0  0  0  0  0999 V2000
   26.9896  -18.9737  -15.3215 N   0  0  0  0  0  0  0  0  0  0  0  0
   28.3707  -18.6043  -15.2768 C   0  0  0  0  0  0  0  0  0  0  0  0
   29.1549  -19.7767  -14.7769 C   0  0  0  0  0  0  0  0  0  0  0  0
   28.2799  -20.9467  -15.1133 C   0  0  0  0  0  0  0  0  0  0  0  0
   26.9070  -20.4000  -15.4610 C   0  0  1  0  0  0  0  0  0  0  0  0
   25.9165  -21.0061  -14.5395 C   0  0  0  0  0  0  0  0  0  0  0  0
   25.7273  -22.2453  -14.6364 O   0  0  0  0  0  0  0  0  0  0  0  0
   25.4136  -20.5944   -8.6315 N   0  0  0  0  0  0  0  0  0  0  0  0
   26.3469  -21.1155   -9.5679 C   0  0  0  0  0  0  0  0  0  0  0  0
   27.4902  -21.3889   -9.1442 O   0  0  0  0  0  0  0  0  0  0  0  0
   25.8950  -21.2881  -10.9492 C   0  0  0  0  0  0  0  0  0  0  0  0
   24.5427  -20.7281  -11.2666 C   0  0  0  0  0  0  0  0  0  0  0  0
   24.1837  -20.9090  -12.6874 C   0  0  2  0  0  0  0  0  0  0  0  0
   25.1844  -20.3044  -13.5788 N   0  0  0  0  0  0  0  0  0  0  0  0
   22.8304  -20.4231  -13.0542 C   0  0  0  0  0  0  0  0  0  0  0  0
   22.4341  -19.2407  -12.9538 O   0  0  0  0  0  0  0  0  0  0  0  0
   21.8420  -21.3387  -13.5761 N   0  0  0  0  0  0  0  0  0  0  0  0
   20.5080  -20.8416  -13.9624 C   0  0  1  0  0  0  0  0  0  0  0  0
   20.2336  -21.3926  -15.3447 C   0  0  0  0  0  0  0  0  0  0  0  0
   18.9204  -21.0227  -15.8835 C   0  0  0  0  0  0  0  0  0  0  0  0
   18.5203  -19.6811  -15.9775 C   0  0  0  0  0  0  0  0  0  0  0  0
   17.2971  -19.6255  -16.4959 N   0  0  0  0  0  0  0  0  0  0  0  0
   16.9058  -20.8941  -16.7351 C   0  0  0  0  0  0  0  0  0  0  0  0
   17.8944  -21.7336  -16.3616 N   0  0  0  0  0  0  0  0  0  0  0  0
   19.5104  -21.4081  -13.0089 C   0  0  0  0  0  0  0  0  0  0  0  0
   18.3148  -20.6772  -12.8441 O   0  0  0  0  0  0  0  0  0  0  0  0
   19.6804  -22.4748  -12.3646 O   0  0  0  0  0  0  0  0  0  0  0  0
  1  2  1  0
  3  2  1  0
  4  3  1  0
  5  4  1  0
  5  1  1  0
  5  6  1  1
  7  6  2  0
  9  8  1  0
  9 10  2  0
 11 12  1  0
 11  9  1  0
 13 12  1  1
 13 14  1  0
 14  6  1  0
 15 17  1  0
 15 13  1  0
 16 15  2  0
 18 25  1  0
 18 17  1  0
 18 19  1  6
 20 19  1  0
 21 20  2  0
 22 21  1  0
 23 22  1  0
 23 24  2  0
 24 20  1  0
 25 26  1  0
 27 25  2  0
M  END
$$$$
