GPT.pdb
     RDKit          3D

 19 19  0  0  1  0  0  0  0  0999 V2000
    8.4866  -16.4422   15.6419 N   0  0  0  0  0  0  0  0  0  0  0  0
    7.9572  -15.5259   16.6345 C   0  0  0  0  0  0  0  0  0  0  0  0
    8.9458  -15.2092   17.6836 C   0  0  0  0  0  0  0  0  0  0  0  0
   10.0547  -15.7813   17.6628 O   0  0  0  0  0  0  0  0  0  0  0  0
    8.6354  -14.2811   18.6823 N   0  0  0  0  0  0  0  0  0  0  0  0
    7.3810  -13.5280   18.7739 C   0  0  0  0  0  0  0  0  0  0  0  0
    7.9000  -12.1728   19.2808 C   0  0  0  0  0  0  0  0  0  0  0  0
    8.8677  -12.6121   20.3501 C   0  0  0  0  0  0  0  0  0  0  0  0
    9.4546  -13.8873   19.7838 C   0  0  1  0  0  0  0  0  0  0  0  0
    9.4643  -14.8922   20.8821 C   0  0  0  0  0  0  0  0  0  0  0  0
    8.3773  -15.2978   21.3708 O   0  0  0  0  0  0  0  0  0  0  0  0
    9.9871  -18.4318   20.9585 C   0  0  0  0  0  0  0  0  0  0  0  0
   11.0681  -17.8379   21.8405 C   0  0  1  0  0  0  0  0  0  0  0  0
   12.2927  -17.7852   21.2056 O   0  0  0  0  0  0  0  0  0  0  0  0
   10.6463  -16.5053   22.4136 C   0  0  2  0  0  0  0  0  0  0  0  0
   10.6490  -15.4510   21.4427 N   0  0  0  0  0  0  0  0  0  0  0  0
   11.6222  -16.1681   23.4808 C   0  0  0  0  0  0  0  0  0  0  0  0
   12.4980  -15.2809   23.3076 O   0  0  0  0  0  0  0  0  0  0  0  0
   11.5928  -16.8351   24.7192 O   0  0  0  0  0  0  0  0  0  0  0  0
  2  1  1  0
  3  2  1  0
  3  4  2  0
  5  3  1  0
  6  5  1  0
  7  8  1  0
  7  6  1  0
  8  9  1  0
  9 10  1  1
  9  5  1  0
 10 11  2  0
 13 12  1  6
 13 15  1  0
 13 14  1  0
 15 16  1  6
 16 10  1  0
 17 15  1  0
 17 19  1  0
 18 17  2  0
M  END
$$$$
