GPT.pdb
     RDKit          3D

 19 19  0  0  1  0  0  0  0  0999 V2000
    6.7371  -13.8406   21.0798 N   0  0  0  0  0  0  0  0  0  0  0  0
    6.3622  -13.3245   22.3830 C   0  0  0  0  0  0  0  0  0  0  0  0
    7.3903  -13.5961   23.4065 C   0  0  0  0  0  0  0  0  0  0  0  0
    8.4711  -14.1125   23.0565 O   0  0  0  0  0  0  0  0  0  0  0  0
    7.1477  -13.2769   24.7460 N   0  0  0  0  0  0  0  0  0  0  0  0
    5.9070  -12.6915   25.2625 C   0  0  0  0  0  0  0  0  0  0  0  0
    6.4658  -11.7415   26.3340 C   0  0  0  0  0  0  0  0  0  0  0  0
    7.4927  -12.6227   26.9986 C   0  0  0  0  0  0  0  0  0  0  0  0
    8.0347  -13.4491   25.8519 C   0  0  1  0  0  0  0  0  0  0  0  0
    8.1029  -14.8602   26.3210 C   0  0  0  0  0  0  0  0  0  0  0  0
    7.0411  -15.5014   26.5365 O   0  0  0  0  0  0  0  0  0  0  0  0
    9.4441  -17.7599   24.4282 C   0  0  0  0  0  0  0  0  0  0  0  0
   10.1698  -17.7296   25.7592 C   0  0  1  0  0  0  0  0  0  0  0  0
   11.4681  -17.2768   25.6383 O   0  0  0  0  0  0  0  0  0  0  0  0
    9.3804  -16.9766   26.8043 C   0  0  2  0  0  0  0  0  0  0  0  0
    9.3181  -15.5670   26.5524 N   0  0  0  0  0  0  0  0  0  0  0  0
   10.0677  -17.1952   28.1023 C   0  0  0  0  0  0  0  0  0  0  0  0
   10.5792  -16.2377   28.7393 O   0  0  0  0  0  0  0  0  0  0  0  0
   10.1652  -18.4848   28.6562 O   0  0  0  0  0  0  0  0  0  0  0  0
  2  1  1  0
  3  2  1  0
  3  4  2  0
  5  3  1  0
  6  5  1  0
  7  8  1  0
  7  6  1  0
  8  9  1  0
  9 10  1  1
  9  5  1  0
 10 11  2  0
 13 12  1  6
 13 15  1  0
 13 14  1  0
 15 16  1  6
 16 10  1  0
 17 15  1  0
 17 19  1  0
 18 17  2  0
M  END
$$$$
