GPT.pdb
     RDKit          3D

 19 19  0  0  1  0  0  0  0  0999 V2000
    8.4469  -16.8122   16.0126 N   0  0  0  0  0  0  0  0  0  0  0  0
    7.9493  -15.7561   16.8742 C   0  0  0  0  0  0  0  0  0  0  0  0
    8.8988  -15.4250   17.9546 C   0  0  0  0  0  0  0  0  0  0  0  0
    9.9691  -16.0616   18.0359 O   0  0  0  0  0  0  0  0  0  0  0  0
    8.5947  -14.4121   18.8692 N   0  0  0  0  0  0  0  0  0  0  0  0
    7.3761  -13.5973   18.8516 C   0  0  0  0  0  0  0  0  0  0  0  0
    7.9403  -12.2335   19.2813 C   0  0  0  0  0  0  0  0  0  0  0  0
    8.8418  -12.6363   20.4205 C   0  0  0  0  0  0  0  0  0  0  0  0
    9.3876  -13.9757   19.9739 C   0  0  1  0  0  0  0  0  0  0  0  0
    9.3042  -14.8956   21.1413 C   0  0  0  0  0  0  0  0  0  0  0  0
    8.1818  -15.1861   21.6319 O   0  0  0  0  0  0  0  0  0  0  0  0
    9.2282  -18.3351   21.7145 C   0  0  0  0  0  0  0  0  0  0  0  0
   10.4687  -17.8557   22.4428 C   0  0  1  0  0  0  0  0  0  0  0  0
   11.6243  -18.1049   21.7301 O   0  0  0  0  0  0  0  0  0  0  0  0
   10.3399  -16.4113   22.8661 C   0  0  2  0  0  0  0  0  0  0  0  0
   10.4347  -15.4946   21.7683 N   0  0  0  0  0  0  0  0  0  0  0  0
   11.4550  -16.1382   23.8079 C   0  0  0  0  0  0  0  0  0  0  0  0
   11.4852  -16.6606   24.9526 O   0  0  0  0  0  0  0  0  0  0  0  0
   12.5119  -15.2843   23.4428 O   0  0  0  0  0  0  0  0  0  0  0  0
  2  1  1  0
  3  2  1  0
  3  4  2  0
  5  3  1  0
  6  5  1  0
  7  8  1  0
  7  6  1  0
  8  9  1  0
  9 10  1  1
  9  5  1  0
 10 11  2  0
 13 12  1  6
 13 15  1  0
 13 14  1  0
 15 16  1  6
 16 10  1  0
 17 15  1  0
 17 19  1  0
 18 17  2  0
M  END
$$$$
