GPT.pdb
     RDKit          3D

 19 19  0  0  1  0  0  0  0  0999 V2000
    7.1543  -13.6243   21.0647 N   0  0  0  0  0  0  0  0  0  0  0  0
    6.5861  -13.2312   22.3406 C   0  0  0  0  0  0  0  0  0  0  0  0
    7.4866  -13.5369   23.4692 C   0  0  0  0  0  0  0  0  0  0  0  0
    8.5968  -14.0561   23.2343 O   0  0  0  0  0  0  0  0  0  0  0  0
    7.0927  -13.2462   24.7790 N   0  0  0  0  0  0  0  0  0  0  0  0
    5.8060  -12.6577   25.1622 C   0  0  0  0  0  0  0  0  0  0  0  0
    6.2455  -11.7401   26.3145 C   0  0  0  0  0  0  0  0  0  0  0  0
    7.1794  -12.6495   27.0719 C   0  0  0  0  0  0  0  0  0  0  0  0
    7.8432  -13.4554   25.9759 C   0  0  1  0  0  0  0  0  0  0  0  0
    7.8427  -14.8779   26.4146 C   0  0  0  0  0  0  0  0  0  0  0  0
    6.7521  -15.4923   26.5491 O   0  0  0  0  0  0  0  0  0  0  0  0
    8.6664  -17.7323   24.4981 C   0  0  0  0  0  0  0  0  0  0  0  0
    9.6066  -17.7823   25.6866 C   0  0  1  0  0  0  0  0  0  0  0  0
   10.8832  -17.3689   25.3630 O   0  0  0  0  0  0  0  0  0  0  0  0
    9.0357  -17.0476   26.8768 C   0  0  2  0  0  0  0  0  0  0  0  0
    9.0210  -15.6250   26.7034 N   0  0  0  0  0  0  0  0  0  0  0  0
    9.9010  -17.3736   28.0387 C   0  0  0  0  0  0  0  0  0  0  0  0
    9.9172  -18.5295   28.5364 O   0  0  0  0  0  0  0  0  0  0  0  0
   10.7292  -16.3935   28.6159 O   0  0  0  0  0  0  0  0  0  0  0  0
  2  1  1  0
  3  2  1  0
  3  4  2  0
  5  3  1  0
  6  5  1  0
  7  8  1  0
  7  6  1  0
  8  9  1  0
  9 10  1  1
  9  5  1  0
 10 11  2  0
 13 12  1  6
 13 15  1  0
 13 14  1  0
 15 16  1  6
 16 10  1  0
 17 15  1  0
 17 19  1  0
 18 17  2  0
M  END
$$$$
