GPT.pdb
     RDKit          3D

 19 19  0  0  1  0  0  0  0  0999 V2000
    8.1918  -16.7350   15.9141 N   0  0  0  0  0  0  0  0  0  0  0  0
    7.6900  -15.7275   16.8297 C   0  0  0  0  0  0  0  0  0  0  0  0
    8.6338  -15.4568   17.9316 C   0  0  0  0  0  0  0  0  0  0  0  0
    9.6919  -16.1151   17.9977 O   0  0  0  0  0  0  0  0  0  0  0  0
    8.3380  -14.4759   18.8831 N   0  0  0  0  0  0  0  0  0  0  0  0
    7.1124  -13.6721   18.9133 C   0  0  0  0  0  0  0  0  0  0  0  0
    7.6728  -12.3174   19.3756 C   0  0  0  0  0  0  0  0  0  0  0  0
    8.5984  -12.7476   20.4851 C   0  0  0  0  0  0  0  0  0  0  0  0
    9.1472  -14.0673   19.9866 C   0  0  1  0  0  0  0  0  0  0  0  0
    9.0931  -15.0242   21.1256 C   0  0  0  0  0  0  0  0  0  0  0  0
    7.9798  -15.3783   21.5948 O   0  0  0  0  0  0  0  0  0  0  0  0
    9.6433  -18.6047   21.4592 C   0  0  0  0  0  0  0  0  0  0  0  0
   10.6485  -17.9310   22.3729 C   0  0  1  0  0  0  0  0  0  0  0  0
   11.9196  -17.9175   21.8348 O   0  0  0  0  0  0  0  0  0  0  0  0
   10.1777  -16.5609   22.8010 C   0  0  2  0  0  0  0  0  0  0  0  0
   10.2427  -15.5911   21.7477 N   0  0  0  0  0  0  0  0  0  0  0  0
   11.0724  -16.1236   23.9025 C   0  0  0  0  0  0  0  0  0  0  0  0
   11.9288  -15.2181   23.7272 O   0  0  0  0  0  0  0  0  0  0  0  0
   10.9853  -16.7134   25.1769 O   0  0  0  0  0  0  0  0  0  0  0  0
  2  1  1  0
  3  2  1  0
  3  4  2  0
  5  3  1  0
  6  5  1  0
  7  8  1  0
  7  6  1  0
  8  9  1  0
  9 10  1  1
  9  5  1  0
 10 11  2  0
 13 12  1  6
 13 15  1  0
 13 14  1  0
 15 16  1  6
 16 10  1  0
 17 15  1  0
 17 19  1  0
 18 17  2  0
M  END
$$$$
