GPT.pdb
     RDKit          3D

 19 19  0  0  1  0  0  0  0  0999 V2000
    8.3650  -16.4831   15.6791 N   0  0  0  0  0  0  0  0  0  0  0  0
    7.7892  -15.7298   16.7774 C   0  0  0  0  0  0  0  0  0  0  0  0
    8.7846  -15.4186   17.8216 C   0  0  0  0  0  0  0  0  0  0  0  0
    9.8553  -16.0591   17.8473 O   0  0  0  0  0  0  0  0  0  0  0  0
    8.5229  -14.4196   18.7643 N   0  0  0  0  0  0  0  0  0  0  0  0
    7.3025  -13.6092   18.8182 C   0  0  0  0  0  0  0  0  0  0  0  0
    7.8831  -12.2494   19.2389 C   0  0  0  0  0  0  0  0  0  0  0  0
    8.8408  -12.6648   20.3267 C   0  0  0  0  0  0  0  0  0  0  0  0
    9.3679  -13.9959   19.8348 C   0  0  1  0  0  0  0  0  0  0  0  0
    9.3448  -14.9323   20.9918 C   0  0  0  0  0  0  0  0  0  0  0  0
    8.2448  -15.2757   21.4988 O   0  0  0  0  0  0  0  0  0  0  0  0
    9.5955  -18.4431   21.3991 C   0  0  0  0  0  0  0  0  0  0  0  0
   10.7649  -17.8633   22.1709 C   0  0  1  0  0  0  0  0  0  0  0  0
   11.9522  -17.9582   21.4733 O   0  0  0  0  0  0  0  0  0  0  0  0
   10.4740  -16.4593   22.6465 C   0  0  2  0  0  0  0  0  0  0  0  0
   10.5108  -15.4906   21.5907 N   0  0  0  0  0  0  0  0  0  0  0  0
   11.5228  -16.1160   23.6400 C   0  0  0  0  0  0  0  0  0  0  0  0
   12.4310  -15.2873   23.3704 O   0  0  0  0  0  0  0  0  0  0  0  0
   11.5283  -16.7115   24.9148 O   0  0  0  0  0  0  0  0  0  0  0  0
  2  1  1  0
  3  2  1  0
  3  4  2  0
  5  3  1  0
  6  5  1  0
  7  8  1  0
  7  6  1  0
  8  9  1  0
  9 10  1  1
  9  5  1  0
 10 11  2  0
 13 12  1  6
 13 15  1  0
 13 14  1  0
 15 16  1  6
 16 10  1  0
 17 15  1  0
 17 19  1  0
 18 17  2  0
M  END
$$$$
