GPT.pdb
     RDKit          3D

 19 19  0  0  1  0  0  0  0  0999 V2000
    8.1392  -16.8263   15.8808 N   0  0  0  0  0  0  0  0  0  0  0  0
    7.6618  -15.8009   16.7896 C   0  0  0  0  0  0  0  0  0  0  0  0
    8.6518  -15.4791   17.8358 C   0  0  0  0  0  0  0  0  0  0  0  0
    9.7189  -16.1247   17.8784 O   0  0  0  0  0  0  0  0  0  0  0  0
    8.3889  -14.4648   18.7617 N   0  0  0  0  0  0  0  0  0  0  0  0
    7.1820  -13.6330   18.7819 C   0  0  0  0  0  0  0  0  0  0  0  0
    7.7777  -12.2786   19.1986 C   0  0  0  0  0  0  0  0  0  0  0  0
    8.7064  -12.6975   20.3098 C   0  0  0  0  0  0  0  0  0  0  0  0
    9.2199  -14.0430   19.8438 C   0  0  1  0  0  0  0  0  0  0  0  0
    9.1577  -14.9653   21.0107 C   0  0  0  0  0  0  0  0  0  0  0  0
    8.0427  -15.2752   21.5065 O   0  0  0  0  0  0  0  0  0  0  0  0
    9.6803  -18.5475   21.3346 C   0  0  0  0  0  0  0  0  0  0  0  0
   10.6837  -17.8885   22.2608 C   0  0  1  0  0  0  0  0  0  0  0  0
   11.9608  -17.8902   21.7369 O   0  0  0  0  0  0  0  0  0  0  0  0
   10.2257  -16.5132   22.6864 C   0  0  2  0  0  0  0  0  0  0  0  0
   10.3012  -15.5456   21.6317 N   0  0  0  0  0  0  0  0  0  0  0  0
   11.1235  -16.0830   23.7881 C   0  0  0  0  0  0  0  0  0  0  0  0
   11.9482  -15.1455   23.6296 O   0  0  0  0  0  0  0  0  0  0  0  0
   11.0751  -16.7155   25.0439 O   0  0  0  0  0  0  0  0  0  0  0  0
  2  1  1  0
  3  2  1  0
  3  4  2  0
  5  3  1  0
  6  5  1  0
  7  8  1  0
  7  6  1  0
  8  9  1  0
  9 10  1  1
  9  5  1  0
 10 11  2  0
 13 12  1  6
 13 15  1  0
 13 14  1  0
 15 16  1  6
 16 10  1  0
 17 15  1  0
 17 19  1  0
 18 17  2  0
M  END
$$$$
