GPT.pdb
     RDKit          3D

 19 19  0  0  1  0  0  0  0  0999 V2000
    4.7578  -17.5693   19.3762 N   0  0  0  0  0  0  0  0  0  0  0  0
    5.1746  -16.2999   19.9420 C   0  0  0  0  0  0  0  0  0  0  0  0
    6.6436  -16.1791   20.0171 C   0  0  0  0  0  0  0  0  0  0  0  0
    7.3496  -17.1386   19.6452 O   0  0  0  0  0  0  0  0  0  0  0  0
    7.2266  -15.0034   20.4997 N   0  0  0  0  0  0  0  0  0  0  0  0
    6.4894  -13.8177   20.9463 C   0  0  0  0  0  0  0  0  0  0  0  0
    7.4109  -12.7000   20.4318 C   0  0  0  0  0  0  0  0  0  0  0  0
    8.7642  -13.2297   20.8327 C   0  0  0  0  0  0  0  0  0  0  0  0
    8.6194  -14.7253   20.6494 C   0  0  1  0  0  0  0  0  0  0  0  0
    9.2101  -15.3746   21.8517 C   0  0  0  0  0  0  0  0  0  0  0  0
    8.5444  -15.4437   22.9180 O   0  0  0  0  0  0  0  0  0  0  0  0
   12.0231  -19.0002   23.5451 C   0  0  0  0  0  0  0  0  0  0  0  0
   11.4442  -18.1536   22.4282 C   0  0  1  0  0  0  0  0  0  0  0  0
   10.4776  -18.8260   21.7078 O   0  0  0  0  0  0  0  0  0  0  0  0
   10.9704  -16.8126   22.9372 C   0  0  2  0  0  0  0  0  0  0  0  0
   10.5153  -15.9446   21.8914 N   0  0  0  0  0  0  0  0  0  0  0  0
   12.1298  -16.1743   23.6106 C   0  0  0  0  0  0  0  0  0  0  0  0
   12.9331  -15.4438   22.9741 O   0  0  0  0  0  0  0  0  0  0  0  0
   12.3611  -16.3708   24.9844 O   0  0  0  0  0  0  0  0  0  0  0  0
  2  1  1  0
  3  2  1  0
  3  4  2  0
  5  3  1  0
  6  5  1  0
  7  8  1  0
  7  6  1  0
  8  9  1  0
  9 10  1  1
  9  5  1  0
 10 11  2  0
 13 12  1  1
 13 15  1  0
 13 14  1  0
 15 16  1  6
 16 10  1  0
 17 15  1  0
 17 19  1  0
 18 17  2  0
M  END
$$$$
