MQE.pdb
     RDKit          3D

 27 26  0  0  1  0  0  0  0  0999 V2000
   26.9251  -20.0473   -6.4180 C   0  0  0  0  0  0  0  0  0  0  0  0
   27.0505  -19.4436   -8.1437 S   0  0  0  0  0  0  0  0  0  0  0  0
   25.8576  -20.3837   -9.1421 C   0  0  0  0  0  0  0  0  0  0  0  0
   25.9161  -19.8503  -10.5407 C   0  0  0  0  0  0  0  0  0  0  0  0
   24.9669  -20.5592  -11.4788 C   0  0  2  0  0  0  0  0  0  0  0  0
   25.2694  -21.9554  -11.5947 N   0  0  0  0  0  0  0  0  0  0  0  0
   24.9081  -19.9535  -12.8256 C   0  0  0  0  0  0  0  0  0  0  0  0
   24.7532  -18.7157  -12.9317 O   0  0  0  0  0  0  0  0  0  0  0  0
   28.0346  -21.1052  -17.9430 N   0  0  0  0  0  0  0  0  0  0  0  0
   28.3926  -21.2604  -16.5829 C   0  0  0  0  0  0  0  0  0  0  0  0
   29.5820  -21.4531  -16.2676 O   0  0  0  0  0  0  0  0  0  0  0  0
   27.3659  -21.1961  -15.5284 C   0  0  0  0  0  0  0  0  0  0  0  0
   26.0401  -20.9411  -16.1526 C   0  0  0  0  0  0  0  0  0  0  0  0
   25.1124  -20.0836  -15.3323 C   0  0  2  0  0  0  0  0  0  0  0  0
   25.0194  -20.7057  -14.0263 N   0  0  0  0  0  0  0  0  0  0  0  0
   23.7704  -19.9468  -15.8958 C   0  0  0  0  0  0  0  0  0  0  0  0
   22.8422  -20.7708  -15.6782 O   0  0  0  0  0  0  0  0  0  0  0  0
   23.4670  -18.8431  -16.7325 N   0  0  0  0  0  0  0  0  0  0  0  0
   22.1210  -18.6788  -17.2495 C   0  0  1  0  0  0  0  0  0  0  0  0
   21.9884  -17.2740  -17.7660 C   0  0  0  0  0  0  0  0  0  0  0  0
   20.5832  -17.0371  -18.2361 C   0  0  0  0  0  0  0  0  0  0  0  0
   20.4254  -15.6484  -18.7421 C   0  0  0  0  0  0  0  0  0  0  0  0
   20.5198  -14.6360  -18.0062 O   0  0  0  0  0  0  0  0  0  0  0  0
   21.9398  -19.6423  -18.3618 C   0  0  0  0  0  0  0  0  0  0  0  0
   20.6813  -20.1852  -18.5989 O   0  0  0  0  0  0  0  0  0  0  0  0
   20.1624  -15.4696  -20.0880 O   0  0  0  0  0  0  0  0  0  0  0  0
   22.8971  -19.9711  -19.0850 O   0  0  0  0  0  0  0  0  0  0  0  0
  1  2  1  0
  3  2  1  0
  4  3  1  0
  5  6  1  6
  5  4  1  0
  7  8  2  0
  7  5  1  0
  9 10  1  0
 10 12  1  0
 11 10  2  0
 13 12  1  0
 14 15  1  0
 14 13  1  6
 15  7  1  0
 16 14  1  0
 17 16  2  0
 18 16  1  0
 19 18  1  0
 20 21  1  0
 19 20  1  6
 22 21  1  0
 22 23  2  0
 24 25  1  0
 24 19  1  0
 26 22  1  0
 27 24  2  0
M  END
$$$$
