MQE.pdb
     RDKit          3D

 27 26  0  0  1  0  0  0  0  0999 V2000
   27.5518  -13.8063  -14.7485 C   0  0  0  0  0  0  0  0  0  0  0  0
   28.4144  -13.5360  -16.3425 S   0  0  0  0  0  0  0  0  0  0  0  0
   27.1697  -13.6332  -17.6635 C   0  0  0  0  0  0  0  0  0  0  0  0
   26.1386  -12.5805  -17.3940 C   0  0  0  0  0  0  0  0  0  0  0  0
   25.0407  -12.5558  -18.4321 C   0  0  2  0  0  0  0  0  0  0  0  0
   25.5489  -12.2868  -19.7450 N   0  0  0  0  0  0  0  0  0  0  0  0
   23.9550  -11.6033  -18.1184 C   0  0  0  0  0  0  0  0  0  0  0  0
   23.9779  -10.4616  -18.6318 O   0  0  0  0  0  0  0  0  0  0  0  0
   18.5319  -13.4915  -15.9692 N   0  0  0  0  0  0  0  0  0  0  0  0
   18.2298  -12.1194  -16.1375 C   0  0  0  0  0  0  0  0  0  0  0  0
   17.0596  -11.7155  -16.0006 O   0  0  0  0  0  0  0  0  0  0  0  0
   19.2925  -11.1568  -16.4755 C   0  0  0  0  0  0  0  0  0  0  0  0
   20.5573  -11.8962  -16.7329 C   0  0  0  0  0  0  0  0  0  0  0  0
   21.7376  -11.0249  -17.0740 C   0  0  2  0  0  0  0  0  0  0  0  0
   22.8693  -11.9125  -17.2551 N   0  0  0  0  0  0  0  0  0  0  0  0
   22.0640  -10.0332  -16.0506 C   0  0  0  0  0  0  0  0  0  0  0  0
   22.7118  -10.3067  -15.0049 O   0  0  0  0  0  0  0  0  0  0  0  0
   21.6446   -8.6887  -16.2136 N   0  0  0  0  0  0  0  0  0  0  0  0
   21.9485   -7.7091  -15.1870 C   0  0  1  0  0  0  0  0  0  0  0  0
   21.8462   -6.3421  -15.8023 C   0  0  0  0  0  0  0  0  0  0  0  0
   22.1062   -5.2955  -14.7588 C   0  0  0  0  0  0  0  0  0  0  0  0
   21.9380   -3.9327  -15.3279 C   0  0  0  0  0  0  0  0  0  0  0  0
   20.9044   -3.5684  -15.9399 O   0  0  0  0  0  0  0  0  0  0  0  0
   20.9405   -7.8516  -14.1090 C   0  0  0  0  0  0  0  0  0  0  0  0
   21.2703   -7.4795  -12.8099 O   0  0  0  0  0  0  0  0  0  0  0  0
   22.9723   -3.0280  -15.1729 O   0  0  0  0  0  0  0  0  0  0  0  0
   19.8052   -8.2990  -14.3507 O   0  0  0  0  0  0  0  0  0  0  0  0
  1  2  1  0
  3  2  1  0
  4  3  1  0
  5  6  1  6
  5  4  1  0
  7  8  2  0
  7  5  1  0
  9 10  1  0
 10 12  1  0
 11 10  2  0
 13 12  1  0
 14 15  1  0
 14 13  1  1
 15  7  1  0
 16 14  1  0
 17 16  2  0
 18 16  1  0
 19 18  1  0
 20 21  1  0
 19 20  1  6
 22 21  1  0
 22 23  2  0
 24 25  1  0
 24 19  1  0
 26 22  1  0
 27 24  2  0
M  END
$$$$
