MQE.pdb
     RDKit          3D

 27 26  0  0  1  0  0  0  0  0999 V2000
   18.5792  -14.9405  -17.2559 C   0  0  0  0  0  0  0  0  0  0  0  0
   18.8873  -13.4105  -16.2957 S   0  0  0  0  0  0  0  0  0  0  0  0
   20.6172  -12.9270  -16.5737 C   0  0  0  0  0  0  0  0  0  0  0  0
   20.8422  -11.6223  -15.8729 C   0  0  0  0  0  0  0  0  0  0  0  0
   20.2037  -10.4545  -16.5887 C   0  0  2  0  0  0  0  0  0  0  0  0
   20.7458  -10.2685  -17.9024 N   0  0  0  0  0  0  0  0  0  0  0  0
   20.2873   -9.1854  -15.8360 C   0  0  0  0  0  0  0  0  0  0  0  0
   19.7806   -9.1194  -14.6931 O   0  0  0  0  0  0  0  0  0  0  0  0
   21.8472   -6.0702  -12.9832 N   0  0  0  0  0  0  0  0  0  0  0  0
   22.2249   -4.8721  -13.6344 C   0  0  0  0  0  0  0  0  0  0  0  0
   22.3608   -3.8210  -12.9803 O   0  0  0  0  0  0  0  0  0  0  0  0
   22.4606   -4.8549  -15.0885 C   0  0  0  0  0  0  0  0  0  0  0  0
   22.3065   -6.2338  -15.6246 C   0  0  0  0  0  0  0  0  0  0  0  0
   20.8910   -6.7482  -15.6415 C   0  0  2  0  0  0  0  0  0  0  0  0
   20.9196   -8.0173  -16.3415 N   0  0  0  0  0  0  0  0  0  0  0  0
   19.9390   -5.8567  -16.3019 C   0  0  0  0  0  0  0  0  0  0  0  0
   20.0105   -5.5513  -17.5224 O   0  0  0  0  0  0  0  0  0  0  0  0
   18.8715   -5.2917  -15.5595 N   0  0  0  0  0  0  0  0  0  0  0  0
   17.9407   -4.3875  -16.2091 C   0  0  1  0  0  0  0  0  0  0  0  0
   16.5464   -4.8145  -15.8467 C   0  0  0  0  0  0  0  0  0  0  0  0
   15.5559   -3.8281  -16.3926 C   0  0  0  0  0  0  0  0  0  0  0  0
   14.1665   -4.3251  -16.2141 C   0  0  0  0  0  0  0  0  0  0  0  0
   13.8907   -5.3811  -15.5942 O   0  0  0  0  0  0  0  0  0  0  0  0
   18.1979   -3.0214  -15.6934 C   0  0  0  0  0  0  0  0  0  0  0  0
   17.6571   -1.9257  -16.3581 O   0  0  0  0  0  0  0  0  0  0  0  0
   13.1331   -3.5850  -16.7589 O   0  0  0  0  0  0  0  0  0  0  0  0
   18.8902   -2.8423  -14.6754 O   0  0  0  0  0  0  0  0  0  0  0  0
  1  2  1  0
  3  2  1  0
  4  3  1  0
  5  6  1  6
  5  4  1  0
  7  8  2  0
  7  5  1  0
  9 10  1  0
 10 12  1  0
 11 10  2  0
 13 12  1  0
 14 15  1  0
 14 13  1  6
 15  7  1  0
 16 14  1  0
 17 16  2  0
 18 16  1  0
 19 18  1  0
 20 21  1  0
 19 20  1  1
 22 21  1  0
 22 23  2  0
 24 25  1  0
 24 19  1  0
 26 22  1  0
 27 24  2  0
M  END
$$$$
