MQE.pdb
     RDKit          3D

 27 26  0  0  1  0  0  0  0  0999 V2000
   10.7782  -10.3335  -10.9738 C   0  0  0  0  0  0  0  0  0  0  0  0
   11.2167  -12.1084  -10.8500 S   0  0  0  0  0  0  0  0  0  0  0  0
   12.9711  -12.2726  -11.2960 C   0  0  0  0  0  0  0  0  0  0  0  0
   13.7184  -11.1684  -10.6133 C   0  0  0  0  0  0  0  0  0  0  0  0
   15.1923  -11.1642  -10.9467 C   0  0  2  0  0  0  0  0  0  0  0  0
   15.8241  -12.4041  -10.6036 N   0  0  0  0  0  0  0  0  0  0  0  0
   15.9330  -10.0450  -10.3278 C   0  0  0  0  0  0  0  0  0  0  0  0
   16.3110  -10.1473   -9.1387 O   0  0  0  0  0  0  0  0  0  0  0  0
   20.4833   -7.3201  -12.6512 N   0  0  0  0  0  0  0  0  0  0  0  0
   20.2679   -6.3459  -11.6479 C   0  0  0  0  0  0  0  0  0  0  0  0
   21.0776   -5.4113  -11.4998 O   0  0  0  0  0  0  0  0  0  0  0  0
   19.0873   -6.4263  -10.7704 C   0  0  0  0  0  0  0  0  0  0  0  0
   18.2456   -7.5792  -11.1884 C   0  0  0  0  0  0  0  0  0  0  0  0
   16.9787   -7.7550  -10.3930 C   0  0  2  0  0  0  0  0  0  0  0  0
   16.2465   -8.8408  -11.0144 N   0  0  0  0  0  0  0  0  0  0  0  0
   16.1297   -6.5655  -10.3508 C   0  0  0  0  0  0  0  0  0  0  0  0
   15.5059   -6.1258  -11.3535 O   0  0  0  0  0  0  0  0  0  0  0  0
   15.9808   -5.8493   -9.1363 N   0  0  0  0  0  0  0  0  0  0  0  0
   15.1026   -4.6952   -9.0830 C   0  0  1  0  0  0  0  0  0  0  0  0
   14.6491   -4.5199   -7.6612 C   0  0  0  0  0  0  0  0  0  0  0  0
   13.8551   -3.2529   -7.5346 C   0  0  0  0  0  0  0  0  0  0  0  0
   13.4171   -3.0453   -6.1295 C   0  0  0  0  0  0  0  0  0  0  0  0
   13.6934   -3.8430   -5.2006 O   0  0  0  0  0  0  0  0  0  0  0  0
   15.8827   -3.5093   -9.5113 C   0  0  0  0  0  0  0  0  0  0  0  0
   15.2149   -2.3885   -9.9940 O   0  0  0  0  0  0  0  0  0  0  0  0
   12.6703   -1.9185   -5.8379 O   0  0  0  0  0  0  0  0  0  0  0  0
   17.1249   -3.5033   -9.4450 O   0  0  0  0  0  0  0  0  0  0  0  0
  1  2  1  0
  3  2  1  0
  4  3  1  0
  5  6  1  1
  5  4  1  0
  7  8  2  0
  7  5  1  0
  9 10  1  0
 10 12  1  0
 11 10  2  0
 13 12  1  0
 14 15  1  0
 14 13  1  6
 15  7  1  0
 16 14  1  0
 17 16  2  0
 18 16  1  0
 19 18  1  0
 20 21  1  0
 19 20  1  1
 22 21  1  0
 22 23  2  0
 24 25  1  0
 24 19  1  0
 26 22  1  0
 27 24  2  0
M  END
$$$$
