MQE.pdb
     RDKit          3D

 27 26  0  0  1  0  0  0  0  0999 V2000
   28.7702  -19.7536   -4.5055 C   0  0  0  0  0  0  0  0  0  0  0  0
   27.7292  -19.1884   -5.9036 S   0  0  0  0  0  0  0  0  0  0  0  0
   27.9460  -20.3744   -7.2638 C   0  0  0  0  0  0  0  0  0  0  0  0
   27.0736  -19.9295   -8.3974 C   0  0  0  0  0  0  0  0  0  0  0  0
   27.0666  -20.9064   -9.5503 C   0  0  2  0  0  0  0  0  0  0  0  0
   28.3848  -21.1447  -10.0602 N   0  0  0  0  0  0  0  0  0  0  0  0
   26.1744  -20.5042  -10.6577 C   0  0  0  0  0  0  0  0  0  0  0  0
   26.4359  -19.4650  -11.3051 O   0  0  0  0  0  0  0  0  0  0  0  0
   24.7770  -20.0845  -15.0856 N   0  0  0  0  0  0  0  0  0  0  0  0
   26.0001  -20.7369  -14.8018 C   0  0  0  0  0  0  0  0  0  0  0  0
   27.0493  -20.3701  -15.3637 O   0  0  0  0  0  0  0  0  0  0  0  0
   26.0457  -21.8533  -13.8418 C   0  0  0  0  0  0  0  0  0  0  0  0
   24.6961  -22.0395  -13.2447 C   0  0  0  0  0  0  0  0  0  0  0  0
   24.2901  -20.9734  -12.2613 C   0  0  2  0  0  0  0  0  0  0  0  0
   25.0190  -21.2398  -11.0369 N   0  0  0  0  0  0  0  0  0  0  0  0
   22.8577  -20.9429  -11.9704 C   0  0  0  0  0  0  0  0  0  0  0  0
   22.2994  -21.7331  -11.1630 O   0  0  0  0  0  0  0  0  0  0  0  0
   22.0288  -19.9887  -12.6128 N   0  0  0  0  0  0  0  0  0  0  0  0
   20.6250  -19.8969  -12.2564 C   0  0  1  0  0  0  0  0  0  0  0  0
   20.0415  -18.7064  -12.9636 C   0  0  0  0  0  0  0  0  0  0  0  0
   18.5748  -18.6065  -12.6627 C   0  0  0  0  0  0  0  0  0  0  0  0
   17.9757  -17.4337  -13.3518 C   0  0  0  0  0  0  0  0  0  0  0  0
   18.5693  -16.7906  -14.2516 O   0  0  0  0  0  0  0  0  0  0  0  0
   19.9554  -21.1354  -12.7213 C   0  0  0  0  0  0  0  0  0  0  0  0
   18.8974  -21.6590  -11.9854 O   0  0  0  0  0  0  0  0  0  0  0  0
   16.7041  -17.0370  -12.9799 O   0  0  0  0  0  0  0  0  0  0  0  0
   20.3267  -21.7118  -13.7593 O   0  0  0  0  0  0  0  0  0  0  0  0
  1  2  1  0
  3  2  1  0
  4  3  1  0
  5  6  1  6
  5  4  1  0
  7  8  2  0
  7  5  1  0
  9 10  1  0
 10 12  1  0
 11 10  2  0
 13 12  1  0
 14 15  1  0
 14 13  1  6
 15  7  1  0
 16 14  1  0
 17 16  2  0
 18 16  1  0
 19 18  1  0
 20 21  1  0
 19 20  1  6
 22 21  1  0
 22 23  2  0
 24 25  1  0
 24 19  1  0
 26 22  1  0
 27 24  2  0
M  END
$$$$
