MQE.pdb
     RDKit          3D

 27 26  0  0  1  0  0  0  0  0999 V2000
   28.9833  -13.7959  -14.8531 C   0  0  0  0  0  0  0  0  0  0  0  0
   28.1828  -12.2657  -15.4659 S   0  0  0  0  0  0  0  0  0  0  0  0
   26.3884  -12.5545  -15.4845 C   0  0  0  0  0  0  0  0  0  0  0  0
   25.7350  -11.3175  -16.0201 C   0  0  0  0  0  0  0  0  0  0  0  0
   24.2591  -11.5024  -16.2867 C   0  0  2  0  0  0  0  0  0  0  0  0
   23.9856  -12.7380  -16.9597 N   0  0  0  0  0  0  0  0  0  0  0  0
   23.6522  -10.3853  -17.0402 C   0  0  0  0  0  0  0  0  0  0  0  0
   23.6112  -10.4435  -18.2901 O   0  0  0  0  0  0  0  0  0  0  0  0
   19.9312  -11.2329  -18.2929 N   0  0  0  0  0  0  0  0  0  0  0  0
   19.5180  -10.5993  -17.0971 C   0  0  0  0  0  0  0  0  0  0  0  0
   18.5986  -11.0899  -16.4151 O   0  0  0  0  0  0  0  0  0  0  0  0
   20.1687   -9.3566  -16.6473 C   0  0  0  0  0  0  0  0  0  0  0  0
   21.1289   -8.9033  -17.6889 C   0  0  0  0  0  0  0  0  0  0  0  0
   22.3631   -8.2249  -17.1551 C   0  0  2  0  0  0  0  0  0  0  0  0
   23.1034   -9.2307  -16.4192 N   0  0  0  0  0  0  0  0  0  0  0  0
   22.0881   -7.0908  -16.2744 C   0  0  0  0  0  0  0  0  0  0  0  0
   21.9657   -7.1999  -15.0249 O   0  0  0  0  0  0  0  0  0  0  0  0
   21.9464   -5.7912  -16.8230 N   0  0  0  0  0  0  0  0  0  0  0  0
   21.7617   -4.6528  -15.9421 C   0  0  1  0  0  0  0  0  0  0  0  0
   21.8986   -3.4015  -16.7626 C   0  0  0  0  0  0  0  0  0  0  0  0
   21.8090   -2.1980  -15.8708 C   0  0  0  0  0  0  0  0  0  0  0  0
   21.9230   -0.9463  -16.6644 C   0  0  0  0  0  0  0  0  0  0  0  0
   22.3183   -0.9236  -17.8554 O   0  0  0  0  0  0  0  0  0  0  0  0
   20.3948   -4.7340  -15.3737 C   0  0  0  0  0  0  0  0  0  0  0  0
   20.1391   -4.1795  -14.1238 O   0  0  0  0  0  0  0  0  0  0  0  0
   21.5757    0.2463  -16.0564 O   0  0  0  0  0  0  0  0  0  0  0  0
   19.4746   -5.2908  -15.9988 O   0  0  0  0  0  0  0  0  0  0  0  0
  1  2  1  0
  3  2  1  0
  4  3  1  0
  5  6  1  6
  5  4  1  0
  7  8  2  0
  7  5  1  0
  9 10  1  0
 10 12  1  0
 11 10  2  0
 13 12  1  0
 14 15  1  0
 14 13  1  1
 15  7  1  0
 16 14  1  0
 17 16  2  0
 18 16  1  0
 19 18  1  0
 20 21  1  0
 19 20  1  6
 22 21  1  0
 22 23  2  0
 24 25  1  0
 24 19  1  0
 26 22  1  0
 27 24  2  0
M  END
$$$$
