MQE.pdb
     RDKit          3D

 27 26  0  0  1  0  0  0  0  0999 V2000
   20.9131  -19.3787   -9.6347 C   0  0  0  0  0  0  0  0  0  0  0  0
   20.8287  -18.7758  -11.3631 S   0  0  0  0  0  0  0  0  0  0  0  0
   20.6077  -20.2238  -12.4393 C   0  0  0  0  0  0  0  0  0  0  0  0
   19.7418  -21.2041  -11.7092 C   0  0  0  0  0  0  0  0  0  0  0  0
   19.4438  -22.4425  -12.5224 C   0  0  2  0  0  0  0  0  0  0  0  0
   18.6060  -22.1561  -13.6495 N   0  0  0  0  0  0  0  0  0  0  0  0
   18.8473  -23.5380  -11.7298 C   0  0  0  0  0  0  0  0  0  0  0  0
   17.6436  -23.4625  -11.3938 O   0  0  0  0  0  0  0  0  0  0  0  0
   21.5348  -29.0263  -10.7926 N   0  0  0  0  0  0  0  0  0  0  0  0
   20.4323  -29.1751   -9.9183 C   0  0  0  0  0  0  0  0  0  0  0  0
   20.2542  -30.2495   -9.3140 O   0  0  0  0  0  0  0  0  0  0  0  0
   19.4862  -28.0646   -9.7140 C   0  0  0  0  0  0  0  0  0  0  0  0
   19.9000  -26.9094  -10.5548 C   0  0  0  0  0  0  0  0  0  0  0  0
   19.0022  -25.7043  -10.4548 C   0  0  2  0  0  0  0  0  0  0  0  0
   19.5713  -24.6905  -11.3207 N   0  0  0  0  0  0  0  0  0  0  0  0
   18.8751  -25.1643   -9.1022 C   0  0  0  0  0  0  0  0  0  0  0  0
   19.7715  -24.4748   -8.5463 O   0  0  0  0  0  0  0  0  0  0  0  0
   17.6971  -25.4115   -8.3529 N   0  0  0  0  0  0  0  0  0  0  0  0
   17.5735  -24.8810   -7.0078 C   0  0  1  0  0  0  0  0  0  0  0  0
   16.1142  -24.6595   -6.7265 C   0  0  0  0  0  0  0  0  0  0  0  0
   15.9493  -24.0143   -5.3817 C   0  0  0  0  0  0  0  0  0  0  0  0
   14.5099  -23.8252   -5.0625 C   0  0  0  0  0  0  0  0  0  0  0  0
   14.1078  -23.2974   -3.9971 O   0  0  0  0  0  0  0  0  0  0  0  0
   18.1188  -25.8903   -6.0685 C   0  0  0  0  0  0  0  0  0  0  0  0
   18.6300  -25.4783   -4.8422 O   0  0  0  0  0  0  0  0  0  0  0  0
   13.5744  -24.2529   -5.9868 O   0  0  0  0  0  0  0  0  0  0  0  0
   18.1252  -27.0991   -6.3621 O   0  0  0  0  0  0  0  0  0  0  0  0
  1  2  1  0
  3  2  1  0
  4  3  1  0
  5  6  1  6
  5  4  1  0
  7  8  2  0
  7  5  1  0
  9 10  1  0
 10 12  1  0
 11 10  2  0
 13 12  1  0
 14 15  1  0
 14 13  1  1
 15  7  1  0
 16 14  1  0
 17 16  2  0
 18 16  1  0
 19 18  1  0
 20 21  1  0
 19 20  1  1
 22 21  1  0
 22 23  2  0
 24 25  1  0
 24 19  1  0
 26 22  1  0
 27 24  2  0
M  END
$$$$
