MQE.pdb
     RDKit          3D

 27 26  0  0  1  0  0  0  0  0999 V2000
   25.2398  -14.8159  -15.0721 C   0  0  0  0  0  0  0  0  0  0  0  0
   26.9424  -15.4547  -15.2978 S   0  0  0  0  0  0  0  0  0  0  0  0
   26.8788  -16.7477  -16.5737 C   0  0  0  0  0  0  0  0  0  0  0  0
   25.9429  -17.8141  -16.0931 C   0  0  0  0  0  0  0  0  0  0  0  0
   26.6054  -18.7965  -15.1552 C   0  0  2  0  0  0  0  0  0  0  0  0
   27.6203  -19.5660  -15.8128 N   0  0  0  0  0  0  0  0  0  0  0  0
   25.6522  -19.7064  -14.4861 C   0  0  0  0  0  0  0  0  0  0  0  0
   25.2161  -20.6999  -15.1108 O   0  0  0  0  0  0  0  0  0  0  0  0
   25.6469  -22.4224  -11.9099 N   0  0  0  0  0  0  0  0  0  0  0  0
   26.3877  -21.6232  -11.0073 C   0  0  0  0  0  0  0  0  0  0  0  0
   27.5333  -21.9685  -10.6618 O   0  0  0  0  0  0  0  0  0  0  0  0
   25.8138  -20.3781  -10.4682 C   0  0  0  0  0  0  0  0  0  0  0  0
   24.4412  -20.1974  -11.0121 C   0  0  0  0  0  0  0  0  0  0  0  0
   24.3108  -20.4548  -12.4904 C   0  0  2  0  0  0  0  0  0  0  0  0
   25.1947  -19.5169  -13.1540 N   0  0  0  0  0  0  0  0  0  0  0  0
   22.9544  -20.2857  -13.0091 C   0  0  0  0  0  0  0  0  0  0  0  0
   22.3311  -19.1912  -12.9702 O   0  0  0  0  0  0  0  0  0  0  0  0
   22.2801  -21.3891  -13.5904 N   0  0  0  0  0  0  0  0  0  0  0  0
   20.9834  -21.1953  -14.2126 C   0  0  1  0  0  0  0  0  0  0  0  0
   20.8101  -22.2512  -15.2675 C   0  0  0  0  0  0  0  0  0  0  0  0
   19.4651  -22.1040  -15.9163 C   0  0  0  0  0  0  0  0  0  0  0  0
   19.2735  -23.1360  -16.9687 C   0  0  0  0  0  0  0  0  0  0  0  0
   18.1423  -23.5146  -17.3595 O   0  0  0  0  0  0  0  0  0  0  0  0
   19.9470  -21.3570  -13.1648 C   0  0  0  0  0  0  0  0  0  0  0  0
   20.1818  -22.2165  -12.0966 O   0  0  0  0  0  0  0  0  0  0  0  0
   20.3981  -23.7022  -17.5407 O   0  0  0  0  0  0  0  0  0  0  0  0
   18.8715  -20.7351  -13.2282 O   0  0  0  0  0  0  0  0  0  0  0  0
  1  2  1  0
  3  2  1  0
  4  3  1  0
  5  6  1  6
  5  4  1  0
  7  8  2  0
  7  5  1  0
  9 10  1  0
 10 12  1  0
 11 10  2  0
 13 12  1  0
 14 15  1  0
 14 13  1  1
 15  7  1  0
 16 14  1  0
 17 16  2  0
 18 16  1  0
 19 18  1  0
 20 21  1  0
 19 20  1  6
 22 21  1  0
 22 23  2  0
 24 25  1  0
 24 19  1  0
 26 22  1  0
 27 24  2  0
M  END
$$$$
