MQE.pdb
     RDKit          3D

 27 26  0  0  1  0  0  0  0  0999 V2000
   29.6241  -18.6420  -15.3716 C   0  0  0  0  0  0  0  0  0  0  0  0
   28.5814  -17.6108  -16.4704 S   0  0  0  0  0  0  0  0  0  0  0  0
   27.6844  -18.7312  -17.5858 C   0  0  0  0  0  0  0  0  0  0  0  0
   26.6899  -19.4910  -16.7626 C   0  0  0  0  0  0  0  0  0  0  0  0
   27.3149  -20.6318  -15.9935 C   0  0  2  0  0  0  0  0  0  0  0  0
   27.8035  -21.6615  -16.8627 N   0  0  0  0  0  0  0  0  0  0  0  0
   26.4135  -21.2250  -14.9837 C   0  0  0  0  0  0  0  0  0  0  0  0
   25.5370  -22.0397  -15.3518 O   0  0  0  0  0  0  0  0  0  0  0  0
   23.0463  -20.6607   -9.1692 N   0  0  0  0  0  0  0  0  0  0  0  0
   24.3611  -20.4432   -9.6449 C   0  0  0  0  0  0  0  0  0  0  0  0
   24.8507  -19.2981   -9.6275 O   0  0  0  0  0  0  0  0  0  0  0  0
   25.1624  -21.5649  -10.1640 C   0  0  0  0  0  0  0  0  0  0  0  0
   26.0190  -21.0786  -11.2787 C   0  0  0  0  0  0  0  0  0  0  0  0
   25.4583  -21.3210  -12.6554 C   0  0  2  0  0  0  0  0  0  0  0  0
   26.4848  -20.9203  -13.5973 N   0  0  0  0  0  0  0  0  0  0  0  0
   24.2303  -20.5805  -12.9395 C   0  0  0  0  0  0  0  0  0  0  0  0
   24.2056  -19.3386  -13.1518 O   0  0  0  0  0  0  0  0  0  0  0  0
   22.9896  -21.2650  -12.9851 N   0  0  0  0  0  0  0  0  0  0  0  0
   21.7988  -20.5701  -13.4380 C   0  0  1  0  0  0  0  0  0  0  0  0
   21.7694  -20.6257  -14.9393 C   0  0  0  0  0  0  0  0  0  0  0  0
   22.0011  -19.2541  -15.5022 C   0  0  0  0  0  0  0  0  0  0  0  0
   22.9991  -19.2994  -16.6028 C   0  0  0  0  0  0  0  0  0  0  0  0
   23.7644  -18.3421  -16.8738 O   0  0  0  0  0  0  0  0  0  0  0  0
   20.6198  -21.2795  -12.8857 C   0  0  0  0  0  0  0  0  0  0  0  0
   19.4343  -20.5811  -12.6817 O   0  0  0  0  0  0  0  0  0  0  0  0
   23.0839  -20.4532  -17.3604 O   0  0  0  0  0  0  0  0  0  0  0  0
   20.6767  -22.4896  -12.6027 O   0  0  0  0  0  0  0  0  0  0  0  0
  1  2  1  0
  3  2  1  0
  4  3  1  0
  5  6  1  6
  5  4  1  0
  7  8  2  0
  7  5  1  0
  9 10  1  0
 10 12  1  0
 11 10  2  0
 13 12  1  0
 14 15  1  0
 14 13  1  1
 15  7  1  0
 16 14  1  0
 17 16  2  0
 18 16  1  0
 19 18  1  0
 20 21  1  0
 19 20  1  6
 22 21  1  0
 22 23  2  0
 24 25  1  0
 24 19  1  0
 26 22  1  0
 27 24  2  0
M  END
$$$$
