MQE.pdb
     RDKit          3D

 27 26  0  0  1  0  0  0  0  0999 V2000
   30.3969  -19.6988  -11.8867 C   0  0  0  0  0  0  0  0  0  0  0  0
   28.6000  -20.0327  -11.7544 S   0  0  0  0  0  0  0  0  0  0  0  0
   28.3830  -21.8341  -11.6461 C   0  0  0  0  0  0  0  0  0  0  0  0
   26.9123  -22.1109  -11.5792 C   0  0  0  0  0  0  0  0  0  0  0  0
   26.0767  -20.8521  -11.6082 C   0  0  2  0  0  0  0  0  0  0  0  0
   25.2841  -20.7063  -10.4229 N   0  0  0  0  0  0  0  0  0  0  0  0
   25.2074  -20.7495  -12.7990 C   0  0  0  0  0  0  0  0  0  0  0  0
   25.6405  -21.1421  -13.9061 O   0  0  0  0  0  0  0  0  0  0  0  0
   19.0921  -20.4821  -12.5371 N   0  0  0  0  0  0  0  0  0  0  0  0
   19.6173  -21.6332  -13.1707 C   0  0  0  0  0  0  0  0  0  0  0  0
   18.9131  -22.6524  -13.2991 O   0  0  0  0  0  0  0  0  0  0  0  0
   20.9983  -21.6387  -13.6836 C   0  0  0  0  0  0  0  0  0  0  0  0
   21.6170  -20.3091  -13.4346 C   0  0  0  0  0  0  0  0  0  0  0  0
   23.0328  -20.1708  -13.9296 C   0  0  2  0  0  0  0  0  0  0  0  0
   23.8877  -20.2235  -12.7601 N   0  0  0  0  0  0  0  0  0  0  0  0
   23.2925  -18.9307  -14.6589 C   0  0  0  0  0  0  0  0  0  0  0  0
   23.4983  -17.8249  -14.0906 O   0  0  0  0  0  0  0  0  0  0  0  0
   23.3203  -18.9398  -16.0764 N   0  0  0  0  0  0  0  0  0  0  0  0
   23.7045  -17.7406  -16.7978 C   0  0  1  0  0  0  0  0  0  0  0  0
   24.9228  -18.0600  -17.6174 C   0  0  0  0  0  0  0  0  0  0  0  0
   25.3122  -16.8633  -18.4347 C   0  0  0  0  0  0  0  0  0  0  0  0
   26.4711  -17.1793  -19.3101 C   0  0  0  0  0  0  0  0  0  0  0  0
   26.4270  -18.0420  -20.2207 O   0  0  0  0  0  0  0  0  0  0  0  0
   22.5816  -17.3672  -17.6910 C   0  0  0  0  0  0  0  0  0  0  0  0
   22.4121  -16.0361  -18.0575 O   0  0  0  0  0  0  0  0  0  0  0  0
   27.6509  -16.4870  -19.1069 O   0  0  0  0  0  0  0  0  0  0  0  0
   21.7901  -18.2274  -18.1166 O   0  0  0  0  0  0  0  0  0  0  0  0
  1  2  1  0
  3  2  1  0
  4  3  1  0
  5  6  1  1
  5  4  1  0
  7  8  2  0
  7  5  1  0
  9 10  1  0
 10 12  1  0
 11 10  2  0
 13 12  1  0
 14 15  1  0
 14 13  1  1
 15  7  1  0
 16 14  1  0
 17 16  2  0
 18 16  1  0
 19 18  1  0
 20 21  1  0
 19 20  1  6
 22 21  1  0
 22 23  2  0
 24 25  1  0
 24 19  1  0
 26 22  1  0
 27 24  2  0
M  END
$$$$
