MQE.pdb
     RDKit          3D

 27 26  0  0  1  0  0  0  0  0999 V2000
    9.8938  -10.1831  -10.1129 C   0  0  0  0  0  0  0  0  0  0  0  0
    9.4437  -10.5188  -11.8572 S   0  0  0  0  0  0  0  0  0  0  0  0
   10.8581  -11.3510  -12.6386 C   0  0  0  0  0  0  0  0  0  0  0  0
   11.9654  -10.3492  -12.7572 C   0  0  0  0  0  0  0  0  0  0  0  0
   13.2368  -10.9439  -13.3171 C   0  0  2  0  0  0  0  0  0  0  0  0
   13.4995  -12.2483  -12.7843 N   0  0  0  0  0  0  0  0  0  0  0  0
   14.4235  -10.0842  -13.1251 C   0  0  0  0  0  0  0  0  0  0  0  0
   14.8321   -9.8588  -11.9634 O   0  0  0  0  0  0  0  0  0  0  0  0
   19.1147   -9.7649  -16.8520 N   0  0  0  0  0  0  0  0  0  0  0  0
   19.4680   -8.6612  -16.0402 C   0  0  0  0  0  0  0  0  0  0  0  0
   20.5760   -8.1102  -16.1818 O   0  0  0  0  0  0  0  0  0  0  0  0
   18.5324   -8.1533  -15.0220 C   0  0  0  0  0  0  0  0  0  0  0  0
   17.2830   -8.9597  -15.0612 C   0  0  0  0  0  0  0  0  0  0  0  0
   16.2798   -8.6189  -13.9907 C   0  0  2  0  0  0  0  0  0  0  0  0
   15.1396   -9.4895  -14.1990 N   0  0  0  0  0  0  0  0  0  0  0  0
   15.8319   -7.2274  -14.0126 C   0  0  0  0  0  0  0  0  0  0  0  0
   14.9623   -6.7938  -14.8149 O   0  0  0  0  0  0  0  0  0  0  0  0
   16.3848   -6.2952  -13.0986 N   0  0  0  0  0  0  0  0  0  0  0  0
   16.0048   -4.8968  -13.1766 C   0  0  1  0  0  0  0  0  0  0  0  0
   15.6992   -4.4185  -11.7853 C   0  0  0  0  0  0  0  0  0  0  0  0
   15.3250   -2.9657  -11.8191 C   0  0  0  0  0  0  0  0  0  0  0  0
   15.0372   -2.4651  -10.4495 C   0  0  0  0  0  0  0  0  0  0  0  0
   14.6897   -1.2828  -10.2109 O   0  0  0  0  0  0  0  0  0  0  0  0
   17.1566   -4.1419  -13.7258 C   0  0  0  0  0  0  0  0  0  0  0  0
   16.9387   -2.9159  -14.3457 O   0  0  0  0  0  0  0  0  0  0  0  0
   15.1596   -3.3481   -9.3923 O   0  0  0  0  0  0  0  0  0  0  0  0
   18.3140   -4.5898  -13.6397 O   0  0  0  0  0  0  0  0  0  0  0  0
  1  2  1  0
  3  2  1  0
  4  3  1  0
  5  6  1  1
  5  4  1  0
  7  8  2  0
  7  5  1  0
  9 10  1  0
 10 12  1  0
 11 10  2  0
 13 12  1  0
 14 15  1  0
 14 13  1  6
 15  7  1  0
 16 14  1  0
 17 16  2  0
 18 16  1  0
 19 18  1  0
 20 21  1  0
 19 20  1  1
 22 21  1  0
 22 23  2  0
 24 25  1  0
 24 19  1  0
 26 22  1  0
 27 24  2  0
M  END
$$$$
