MQE.pdb
     RDKit          3D

 27 26  0  0  1  0  0  0  0  0999 V2000
   10.6373  -12.7797  -11.2000 C   0  0  0  0  0  0  0  0  0  0  0  0
   11.7576  -11.7381  -10.1911 S   0  0  0  0  0  0  0  0  0  0  0  0
   13.4016  -11.7916  -10.9645 C   0  0  0  0  0  0  0  0  0  0  0  0
   14.3278  -10.9720  -10.1193 C   0  0  0  0  0  0  0  0  0  0  0  0
   15.7287  -10.9032  -10.6818 C   0  0  2  0  0  0  0  0  0  0  0  0
   16.4655  -12.1080  -10.4367 N   0  0  0  0  0  0  0  0  0  0  0  0
   16.5031   -9.7431  -10.1935 C   0  0  0  0  0  0  0  0  0  0  0  0
   17.0427   -9.8010   -9.0652 O   0  0  0  0  0  0  0  0  0  0  0  0
   20.8782   -7.2860  -12.8640 N   0  0  0  0  0  0  0  0  0  0  0  0
   20.8394   -6.3669  -11.7888 C   0  0  0  0  0  0  0  0  0  0  0  0
   21.7999   -5.6003  -11.5866 O   0  0  0  0  0  0  0  0  0  0  0  0
   19.6663   -6.3070  -10.8997 C   0  0  0  0  0  0  0  0  0  0  0  0
   18.7064   -7.3760  -11.2850 C   0  0  0  0  0  0  0  0  0  0  0  0
   17.4513   -7.4246  -10.4538 C   0  0  2  0  0  0  0  0  0  0  0  0
   16.6743   -8.5470  -10.9416 N   0  0  0  0  0  0  0  0  0  0  0  0
   16.6394   -6.2109  -10.5259 C   0  0  0  0  0  0  0  0  0  0  0  0
   16.1229   -5.7875  -11.5945 O   0  0  0  0  0  0  0  0  0  0  0  0
   16.4034   -5.4506   -9.3527 N   0  0  0  0  0  0  0  0  0  0  0  0
   15.6946   -4.1875   -9.4425 C   0  0  1  0  0  0  0  0  0  0  0  0
   15.0463   -3.9214   -8.1133 C   0  0  0  0  0  0  0  0  0  0  0  0
   13.7476   -4.6679   -8.0240 C   0  0  0  0  0  0  0  0  0  0  0  0
   13.0914   -4.4259   -6.7125 C   0  0  0  0  0  0  0  0  0  0  0  0
   12.7174   -3.2895   -6.3326 O   0  0  0  0  0  0  0  0  0  0  0  0
   16.6885   -3.1277   -9.7379 C   0  0  0  0  0  0  0  0  0  0  0  0
   18.0415   -3.4487   -9.7730 O   0  0  0  0  0  0  0  0  0  0  0  0
   12.8860   -5.5075   -5.8755 O   0  0  0  0  0  0  0  0  0  0  0  0
   16.3290   -1.9566   -9.9544 O   0  0  0  0  0  0  0  0  0  0  0  0
  1  2  1  0
  3  2  1  0
  4  3  1  0
  5  6  1  1
  5  4  1  0
  7  8  2  0
  7  5  1  0
  9 10  1  0
 10 12  1  0
 11 10  2  0
 13 12  1  0
 14 15  1  0
 14 13  1  6
 15  7  1  0
 16 14  1  0
 17 16  2  0
 18 16  1  0
 19 18  1  0
 20 21  1  0
 19 20  1  1
 22 21  1  0
 22 23  2  0
 24 25  1  0
 24 19  1  0
 26 22  1  0
 27 24  2  0
M  END
$$$$
