MQE.pdb
     RDKit          3D

 27 26  0  0  1  0  0  0  0  0999 V2000
   31.1247  -21.9663  -12.0151 C   0  0  0  0  0  0  0  0  0  0  0  0
   30.6658  -20.1939  -11.9379 S   0  0  0  0  0  0  0  0  0  0  0  0
   29.1801  -19.9666  -12.9601 C   0  0  0  0  0  0  0  0  0  0  0  0
   29.0520  -21.1664  -13.8479 C   0  0  0  0  0  0  0  0  0  0  0  0
   27.8869  -21.0659  -14.8050 C   0  0  2  0  0  0  0  0  0  0  0  0
   27.8760  -19.8172  -15.5085 N   0  0  0  0  0  0  0  0  0  0  0  0
   26.5746  -21.2802  -14.1598 C   0  0  0  0  0  0  0  0  0  0  0  0
   25.9916  -22.3775  -14.3128 O   0  0  0  0  0  0  0  0  0  0  0  0
   25.0486  -21.7475   -9.5748 N   0  0  0  0  0  0  0  0  0  0  0  0
   23.8066  -21.0695   -9.5662 C   0  0  0  0  0  0  0  0  0  0  0  0
   22.9093  -21.4184   -8.7761 O   0  0  0  0  0  0  0  0  0  0  0  0
   23.5622  -19.9473  -10.4887 C   0  0  0  0  0  0  0  0  0  0  0  0
   24.7445  -19.7774  -11.3753 C   0  0  0  0  0  0  0  0  0  0  0  0
   24.6832  -20.5568  -12.6627 C   0  0  2  0  0  0  0  0  0  0  0  0
   25.9258  -20.2984  -13.3631 N   0  0  0  0  0  0  0  0  0  0  0  0
   23.5607  -20.1957  -13.5270 C   0  0  0  0  0  0  0  0  0  0  0  0
   23.4962  -19.1064  -14.1571 O   0  0  0  0  0  0  0  0  0  0  0  0
   22.4756  -21.0945  -13.6844 N   0  0  0  0  0  0  0  0  0  0  0  0
   21.3715  -20.7457  -14.5592 C   0  0  1  0  0  0  0  0  0  0  0  0
   21.2867  -21.7860  -15.6402 C   0  0  0  0  0  0  0  0  0  0  0  0
   22.0268  -21.3141  -16.8573 C   0  0  0  0  0  0  0  0  0  0  0  0
   22.3375  -22.4546  -17.7585 C   0  0  0  0  0  0  0  0  0  0  0  0
   22.0046  -23.6381  -17.5057 O   0  0  0  0  0  0  0  0  0  0  0  0
   20.1286  -20.7585  -13.7509 C   0  0  0  0  0  0  0  0  0  0  0  0
   18.9333  -20.3405  -14.3266 O   0  0  0  0  0  0  0  0  0  0  0  0
   23.0259  -22.1932  -18.9290 O   0  0  0  0  0  0  0  0  0  0  0  0
   20.1405  -21.1376  -12.5661 O   0  0  0  0  0  0  0  0  0  0  0  0
  1  2  1  0
  3  2  1  0
  4  3  1  0
  5  6  1  1
  5  4  1  0
  7  8  2  0
  7  5  1  0
  9 10  1  0
 10 12  1  0
 11 10  2  0
 13 12  1  0
 14 15  1  0
 14 13  1  1
 15  7  1  0
 16 14  1  0
 17 16  2  0
 18 16  1  0
 19 18  1  0
 20 21  1  0
 19 20  1  6
 22 21  1  0
 22 23  2  0
 24 25  1  0
 24 19  1  0
 26 22  1  0
 27 24  2  0
M  END
$$$$
