EHL.pdb
     RDKit          3D

 28 28  0  0  1  0  0  0  0  0999 V2000
   14.1880  -22.5240   -0.0423 N   0  0  0  0  0  0  0  0  0  0  0  0
   13.9417  -22.5579    1.3959 C   0  0  1  0  0  0  0  0  0  0  0  0
   15.1026  -23.3125    1.9963 C   0  0  0  0  0  0  0  0  0  0  0  0
   15.4058  -24.6248    1.3546 C   0  0  0  0  0  0  0  0  0  0  0  0
   16.5264  -25.3624    1.9627 C   0  0  0  0  0  0  0  0  0  0  0  0
   17.1041  -24.8460    2.9626 O   0  0  0  0  0  0  0  0  0  0  0  0
   13.9446  -21.1885    1.9676 C   0  0  0  0  0  0  0  0  0  0  0  0
   13.9407  -20.2202    1.1516 O   0  0  0  0  0  0  0  0  0  0  0  0
   16.9090  -26.5753    1.4330 O   0  0  0  0  0  0  0  0  0  0  0  0
   13.9513  -20.9162    3.3574 N   0  0  0  0  0  0  0  0  0  0  0  0
   13.8894  -19.5461    3.8244 C   0  0  1  0  0  0  0  0  0  0  0  0
   13.3676  -19.5798    5.2687 C   0  0  0  0  0  0  0  0  0  0  0  0
   13.1574  -18.1834    5.6962 C   0  0  0  0  0  0  0  0  0  0  0  0
   12.4701  -17.2312    4.9897 C   0  0  0  0  0  0  0  0  0  0  0  0
   12.5144  -16.1105    5.7285 N   0  0  0  0  0  0  0  0  0  0  0  0
   13.1966  -16.3319    6.8545 C   0  0  0  0  0  0  0  0  0  0  0  0
   13.5928  -17.6249    6.8253 N   0  0  0  0  0  0  0  0  0  0  0  0
   15.2186  -18.8963    3.8696 C   0  0  0  0  0  0  0  0  0  0  0  0
   16.1937  -19.7029    4.0647 O   0  0  0  0  0  0  0  0  0  0  0  0
   19.5132  -15.6427    3.1012 C   0  0  0  0  0  0  0  0  0  0  0  0
   18.4447  -15.9439    2.1356 C   0  0  2  0  0  0  0  0  0  0  0  0
   18.3590  -14.7340    1.1820 C   0  0  0  0  0  0  0  0  0  0  0  0
   17.1180  -16.3479    2.5440 C   0  0  0  0  0  0  0  0  0  0  0  0
   16.7649  -16.9440    3.8267 C   0  0  2  0  0  0  0  0  0  0  0  0
   15.4145  -17.5075    3.7128 N   0  0  0  0  0  0  0  0  0  0  0  0
   16.8019  -16.1821    5.0574 C   0  0  0  0  0  0  0  0  0  0  0  0
   15.7975  -15.5872    5.5277 O   0  0  0  0  0  0  0  0  0  0  0  0
   17.9285  -16.0226    5.8497 O   0  0  0  0  0  0  0  0  0  0  0  0
  2  1  1  6
  2  7  1  0
  2  3  1  0
  3  4  1  0
  4  5  1  0
  5  9  1  0
  5  6  2  0
  7  8  2  0
 10  7  1  0
 11 10  1  0
 12 13  1  0
 11 12  1  1
 13 17  1  0
 14 13  2  0
 14 15  1  0
 15 16  1  0
 17 16  2  0
 18 11  1  0
 19 18  2  0
 21 20  1  1
 22 21  1  0
 23 21  1  0
 24 23  1  6
 24 25  1  0
 25 18  1  0
 26 24  1  0
 27 26  2  0
 28 26  1  0
M  END
$$$$
