EHL.pdb
     RDKit          3D

 28 28  0  0  1  0  0  0  0  0999 V2000
   21.8018  -11.6330  -17.0882 N   0  0  0  0  0  0  0  0  0  0  0  0
   21.2176  -10.7121  -18.0583 C   0  0  1  0  0  0  0  0  0  0  0  0
   20.0131  -11.4210  -18.6277 C   0  0  0  0  0  0  0  0  0  0  0  0
   19.1559  -12.1193  -17.6259 C   0  0  0  0  0  0  0  0  0  0  0  0
   17.9261  -12.7139  -18.1767 C   0  0  0  0  0  0  0  0  0  0  0  0
   16.9532  -11.9439  -18.4235 O   0  0  0  0  0  0  0  0  0  0  0  0
   20.7443   -9.4719  -17.3949 C   0  0  0  0  0  0  0  0  0  0  0  0
   19.4949   -9.3403  -17.2367 O   0  0  0  0  0  0  0  0  0  0  0  0
   17.8700  -14.0717  -18.4034 O   0  0  0  0  0  0  0  0  0  0  0  0
   21.6069   -8.4459  -16.9377 N   0  0  0  0  0  0  0  0  0  0  0  0
   21.0516   -7.2558  -16.3259 C   0  0  1  0  0  0  0  0  0  0  0  0
   21.5571   -7.2101  -14.8762 C   0  0  0  0  0  0  0  0  0  0  0  0
   20.5635   -7.9086  -14.0387 C   0  0  0  0  0  0  0  0  0  0  0  0
   19.3700   -8.4178  -14.4797 C   0  0  0  0  0  0  0  0  0  0  0  0
   18.7770   -8.9677  -13.4074 N   0  0  0  0  0  0  0  0  0  0  0  0
   19.5516   -8.8191  -12.3303 C   0  0  0  0  0  0  0  0  0  0  0  0
   20.6612   -8.1587  -12.7331 N   0  0  0  0  0  0  0  0  0  0  0  0
   21.5152   -6.0090  -16.9754 C   0  0  0  0  0  0  0  0  0  0  0  0
   22.7519   -6.0154  -17.3072 O   0  0  0  0  0  0  0  0  0  0  0  0
   21.4182   -1.4351  -20.2251 C   0  0  0  0  0  0  0  0  0  0  0  0
   21.6013   -2.8944  -20.2677 C   0  0  2  0  0  0  0  0  0  0  0  0
   21.1857   -3.3493  -21.6822 C   0  0  0  0  0  0  0  0  0  0  0  0
   21.0332   -3.7792  -19.2755 C   0  0  0  0  0  0  0  0  0  0  0  0
   21.2363   -3.6879  -17.8348 C   0  0  2  0  0  0  0  0  0  0  0  0
   20.6800   -4.8974  -17.2170 N   0  0  0  0  0  0  0  0  0  0  0  0
   20.7515   -2.5603  -17.0666 C   0  0  0  0  0  0  0  0  0  0  0  0
   19.6486   -2.5651  -16.4605 O   0  0  0  0  0  0  0  0  0  0  0  0
   21.4346   -1.3640  -16.9097 O   0  0  0  0  0  0  0  0  0  0  0  0
  2  1  1  1
  2  7  1  0
  2  3  1  0
  3  4  1  0
  4  5  1  0
  5  9  1  0
  5  6  2  0
  7  8  2  0
 10  7  1  0
 11 10  1  0
 12 13  1  0
 11 12  1  1
 13 17  1  0
 14 13  2  0
 14 15  1  0
 15 16  1  0
 17 16  2  0
 18 11  1  0
 19 18  2  0
 21 20  1  1
 22 21  1  0
 23 21  1  0
 24 23  1  6
 24 25  1  0
 25 18  1  0
 26 24  1  0
 27 26  2  0
 28 26  1  0
M  END
$$$$
