EHL.pdb
     RDKit          3D

 28 28  0  0  1  0  0  0  0  0999 V2000
   26.1255  -19.0795  -16.1466 N   0  0  0  0  0  0  0  0  0  0  0  0
   26.7207  -19.6925  -14.9632 C   0  0  1  0  0  0  0  0  0  0  0  0
   27.9882  -18.9201  -14.6908 C   0  0  0  0  0  0  0  0  0  0  0  0
   29.1163  -19.2025  -15.6254 C   0  0  0  0  0  0  0  0  0  0  0  0
   29.1275  -20.5664  -16.1813 C   0  0  0  0  0  0  0  0  0  0  0  0
   29.2542  -20.6963  -17.4333 O   0  0  0  0  0  0  0  0  0  0  0  0
   25.8331  -19.5412  -13.7836 C   0  0  0  0  0  0  0  0  0  0  0  0
   25.2902  -18.4107  -13.6084 O   0  0  0  0  0  0  0  0  0  0  0  0
   29.0007  -21.6464  -15.3354 O   0  0  0  0  0  0  0  0  0  0  0  0
   25.5679  -20.5816  -12.8600 N   0  0  0  0  0  0  0  0  0  0  0  0
   24.6801  -20.3432  -11.7401 C   0  0  1  0  0  0  0  0  0  0  0  0
   23.4029  -21.1594  -11.9889 C   0  0  0  0  0  0  0  0  0  0  0  0
   22.5841  -20.4139  -12.9638 C   0  0  0  0  0  0  0  0  0  0  0  0
   22.5722  -20.6253  -14.3178 C   0  0  0  0  0  0  0  0  0  0  0  0
   21.6968  -19.7436  -14.8279 N   0  0  0  0  0  0  0  0  0  0  0  0
   21.1721  -19.0022  -13.8495 C   0  0  0  0  0  0  0  0  0  0  0  0
   21.7305  -19.4267  -12.6930 N   0  0  0  0  0  0  0  0  0  0  0  0
   25.2410  -20.8162  -10.4544 C   0  0  0  0  0  0  0  0  0  0  0  0
   25.6836  -22.0174  -10.4821 O   0  0  0  0  0  0  0  0  0  0  0  0
   28.9145  -20.1961   -7.2646 C   0  0  0  0  0  0  0  0  0  0  0  0
   27.8274  -19.2105   -7.3729 C   0  0  2  0  0  0  0  0  0  0  0  0
   28.1603  -18.0768   -6.3807 C   0  0  0  0  0  0  0  0  0  0  0  0
   26.4328  -19.5745   -7.2598 C   0  0  0  0  0  0  0  0  0  0  0  0
   25.7580  -20.6149   -8.0262 C   0  0  2  0  0  0  0  0  0  0  0  0
   25.2926  -20.0250   -9.2870 N   0  0  0  0  0  0  0  0  0  0  0  0
   24.6494  -21.3679   -7.4780 C   0  0  0  0  0  0  0  0  0  0  0  0
   23.4495  -21.1474   -7.7867 O   0  0  0  0  0  0  0  0  0  0  0  0
   24.7777  -22.4040   -6.5654 O   0  0  0  0  0  0  0  0  0  0  0  0
  2  1  1  6
  2  7  1  0
  2  3  1  0
  3  4  1  0
  4  5  1  0
  5  9  1  0
  5  6  2  0
  7  8  2  0
 10  7  1  0
 11 10  1  0
 12 13  1  0
 11 12  1  6
 13 17  1  0
 14 13  2  0
 14 15  1  0
 15 16  1  0
 17 16  2  0
 18 11  1  0
 19 18  2  0
 21 20  1  1
 22 21  1  0
 23 21  1  0
 24 23  1  1
 24 25  1  0
 25 18  1  0
 26 24  1  0
 27 26  2  0
 28 26  1  0
M  END
$$$$
