EHL.pdb
     RDKit          3D

 28 28  0  0  1  0  0  0  0  0999 V2000
   22.4954  -17.4083  -18.3908 N   0  0  0  0  0  0  0  0  0  0  0  0
   22.3287  -16.7611  -17.0932 C   0  0  1  0  0  0  0  0  0  0  0  0
   23.6633  -16.8785  -16.3984 C   0  0  0  0  0  0  0  0  0  0  0  0
   24.6879  -17.6836  -17.1250 C   0  0  0  0  0  0  0  0  0  0  0  0
   25.9717  -17.8278  -16.4176 C   0  0  0  0  0  0  0  0  0  0  0  0
   26.0436  -18.6804  -15.4857 O   0  0  0  0  0  0  0  0  0  0  0  0
   22.0253  -15.3175  -17.2550 C   0  0  0  0  0  0  0  0  0  0  0  0
   22.6910  -14.6794  -18.1228 O   0  0  0  0  0  0  0  0  0  0  0  0
   27.0420  -17.0415  -16.7841 O   0  0  0  0  0  0  0  0  0  0  0  0
   21.0442  -14.6303  -16.4993 N   0  0  0  0  0  0  0  0  0  0  0  0
   20.7558  -13.2398  -16.7862 C   0  0  1  0  0  0  0  0  0  0  0  0
   19.3011  -12.9799  -16.3669 C   0  0  0  0  0  0  0  0  0  0  0  0
   19.0057  -11.5622  -16.6486 C   0  0  0  0  0  0  0  0  0  0  0  0
   19.1917  -10.5230  -15.7748 C   0  0  0  0  0  0  0  0  0  0  0  0
   18.8033   -9.4128  -16.4233 N   0  0  0  0  0  0  0  0  0  0  0  0
   18.3883   -9.7236  -17.6535 C   0  0  0  0  0  0  0  0  0  0  0  0
   18.5178  -11.0636  -17.7844 N   0  0  0  0  0  0  0  0  0  0  0  0
   21.5956  -12.3074  -16.0010 C   0  0  0  0  0  0  0  0  0  0  0  0
   21.9615  -12.7599  -14.8604 O   0  0  0  0  0  0  0  0  0  0  0  0
   26.7988  -10.2535  -16.1411 C   0  0  0  0  0  0  0  0  0  0  0  0
   25.4950  -10.1090  -15.4746 C   0  0  2  0  0  0  0  0  0  0  0  0
   25.6775  -10.6272  -14.0329 C   0  0  0  0  0  0  0  0  0  0  0  0
   24.2708  -10.6323  -16.0381 C   0  0  0  0  0  0  0  0  0  0  0  0
   22.9202  -10.2238  -15.6716 C   0  0  2  0  0  0  0  0  0  0  0  0
   21.9718  -11.0250  -16.4545 N   0  0  0  0  0  0  0  0  0  0  0  0
   22.4881   -8.8452  -15.7678 C   0  0  0  0  0  0  0  0  0  0  0  0
   22.0648   -8.3307  -16.8354 O   0  0  0  0  0  0  0  0  0  0  0  0
   22.4884   -7.9458  -14.7125 O   0  0  0  0  0  0  0  0  0  0  0  0
  2  1  1  6
  2  7  1  0
  2  3  1  0
  3  4  1  0
  4  5  1  0
  5  9  1  0
  5  6  2  0
  7  8  2  0
 10  7  1  0
 11 10  1  0
 12 13  1  0
 11 12  1  1
 13 17  1  0
 14 13  2  0
 14 15  1  0
 15 16  1  0
 17 16  2  0
 18 11  1  0
 19 18  2  0
 21 20  1  6
 22 21  1  0
 23 21  1  0
 24 23  1  6
 24 25  1  0
 25 18  1  0
 26 24  1  0
 27 26  2  0
 28 26  1  0
M  END
$$$$
