EHL.pdb
     RDKit          3D

 28 28  0  0  1  0  0  0  0  0999 V2000
   25.0941  -19.1160  -20.0850 N   0  0  0  0  0  0  0  0  0  0  0  0
   24.1407  -20.2208  -20.1119 C   0  0  1  0  0  0  0  0  0  0  0  0
   24.8406  -21.3534  -20.8225 C   0  0  0  0  0  0  0  0  0  0  0  0
   26.1464  -20.9976  -21.4503 C   0  0  0  0  0  0  0  0  0  0  0  0
   27.3235  -21.6089  -20.8098 C   0  0  0  0  0  0  0  0  0  0  0  0
   27.1471  -22.2548  -19.7365 O   0  0  0  0  0  0  0  0  0  0  0  0
   23.8174  -20.6768  -18.7372 C   0  0  0  0  0  0  0  0  0  0  0  0
   23.0017  -21.6385  -18.6227 O   0  0  0  0  0  0  0  0  0  0  0  0
   28.5653  -21.4616  -21.3882 O   0  0  0  0  0  0  0  0  0  0  0  0
   24.3675  -20.0989  -17.5670 N   0  0  0  0  0  0  0  0  0  0  0  0
   23.9625  -20.5849  -16.2635 C   0  0  1  0  0  0  0  0  0  0  0  0
   25.1833  -20.4778  -15.3375 C   0  0  0  0  0  0  0  0  0  0  0  0
   26.2551  -21.3074  -15.9202 C   0  0  0  0  0  0  0  0  0  0  0  0
   26.1628  -22.0196  -17.0875 C   0  0  0  0  0  0  0  0  0  0  0  0
   27.3498  -22.6262  -17.2521 N   0  0  0  0  0  0  0  0  0  0  0  0
   28.1645  -22.3188  -16.2403 C   0  0  0  0  0  0  0  0  0  0  0  0
   27.4743  -21.4976  -15.4164 N   0  0  0  0  0  0  0  0  0  0  0  0
   22.8942  -19.7621  -15.6526 C   0  0  0  0  0  0  0  0  0  0  0  0
   22.9529  -18.5176  -15.9480 O   0  0  0  0  0  0  0  0  0  0  0  0
   17.9815  -19.2656  -17.4961 C   0  0  0  0  0  0  0  0  0  0  0  0
   18.8989  -18.7132  -16.4871 C   0  0  2  0  0  0  0  0  0  0  0  0
   19.1844  -17.2550  -16.9027 C   0  0  0  0  0  0  0  0  0  0  0  0
   20.1300  -19.3714  -16.1112 C   0  0  0  0  0  0  0  0  0  0  0  0
   20.5773  -19.6299  -14.7480 C   0  0  2  0  0  0  0  0  0  0  0  0
   21.8881  -20.2869  -14.8137 N   0  0  0  0  0  0  0  0  0  0  0  0
   19.7723  -20.3866  -13.8121 C   0  0  0  0  0  0  0  0  0  0  0  0
   19.7757  -21.6441  -13.7629 O   0  0  0  0  0  0  0  0  0  0  0  0
   18.9190  -19.8241  -12.8750 O   0  0  0  0  0  0  0  0  0  0  0  0
  2  1  1  1
  2  7  1  0
  2  3  1  0
  3  4  1  0
  4  5  1  0
  5  9  1  0
  5  6  2  0
  7  8  2  0
 10  7  1  0
 11 10  1  0
 12 13  1  0
 11 12  1  1
 13 17  1  0
 14 13  2  0
 14 15  1  0
 15 16  1  0
 17 16  2  0
 18 11  1  0
 19 18  2  0
 21 20  1  6
 22 21  1  0
 23 21  1  0
 24 23  1  6
 24 25  1  0
 25 18  1  0
 26 24  1  0
 27 26  2  0
 28 26  1  0
M  END
$$$$
