EHL.pdb
     RDKit          3D

 28 28  0  0  1  0  0  0  0  0999 V2000
   25.2013  -22.3478  -15.1780 N   0  0  0  0  0  0  0  0  0  0  0  0
   24.0693  -23.2542  -15.0126 C   0  0  1  0  0  0  0  0  0  0  0  0
   24.6328  -24.5109  -14.3958 C   0  0  0  0  0  0  0  0  0  0  0  0
   25.2582  -25.4643  -15.3579 C   0  0  0  0  0  0  0  0  0  0  0  0
   24.3024  -26.2057  -16.1982 C   0  0  0  0  0  0  0  0  0  0  0  0
   23.0692  -26.0835  -15.9440 O   0  0  0  0  0  0  0  0  0  0  0  0
   23.0721  -22.6915  -14.0685 C   0  0  0  0  0  0  0  0  0  0  0  0
   23.5166  -22.0644  -13.0623 O   0  0  0  0  0  0  0  0  0  0  0  0
   24.7709  -27.0004  -17.2215 O   0  0  0  0  0  0  0  0  0  0  0  0
   21.6715  -22.8192  -14.2352 N   0  0  0  0  0  0  0  0  0  0  0  0
   20.7718  -22.1627  -13.3086 C   0  0  1  0  0  0  0  0  0  0  0  0
   19.9308  -21.1650  -14.1189 C   0  0  0  0  0  0  0  0  0  0  0  0
   20.7948  -20.0115  -14.4346 C   0  0  0  0  0  0  0  0  0  0  0  0
   21.4118  -19.7867  -15.6374 C   0  0  0  0  0  0  0  0  0  0  0  0
   22.0929  -18.6371  -15.5011 N   0  0  0  0  0  0  0  0  0  0  0  0
   21.9216  -18.1474  -14.2710 C   0  0  0  0  0  0  0  0  0  0  0  0
   21.1123  -19.0098  -13.6147 N   0  0  0  0  0  0  0  0  0  0  0  0
   19.8195  -23.1013  -12.6734 C   0  0  0  0  0  0  0  0  0  0  0  0
   19.3858  -24.0203  -13.4524 O   0  0  0  0  0  0  0  0  0  0  0  0
   17.8192  -24.6751   -7.0392 C   0  0  0  0  0  0  0  0  0  0  0  0
   18.0416  -25.0250   -8.4510 C   0  0  2  0  0  0  0  0  0  0  0  0
   18.6609  -26.4381   -8.4623 C   0  0  0  0  0  0  0  0  0  0  0  0
   18.7587  -24.1623   -9.3629 C   0  0  0  0  0  0  0  0  0  0  0  0
   18.4649  -23.9864  -10.7799 C   0  0  2  0  0  0  0  0  0  0  0  0
   19.4126  -23.0075  -11.3254 N   0  0  0  0  0  0  0  0  0  0  0  0
   17.1479  -23.6026  -11.2435 C   0  0  0  0  0  0  0  0  0  0  0  0
   16.3308  -24.4186  -11.7439 O   0  0  0  0  0  0  0  0  0  0  0  0
   16.6404  -22.3134  -11.1899 O   0  0  0  0  0  0  0  0  0  0  0  0
  2  1  1  1
  2  7  1  0
  2  3  1  0
  3  4  1  0
  4  5  1  0
  5  9  1  0
  5  6  2  0
  7  8  2  0
 10  7  1  0
 11 10  1  0
 12 13  1  0
 11 12  1  6
 13 17  1  0
 14 13  2  0
 14 15  1  0
 15 16  1  0
 17 16  2  0
 18 11  1  0
 19 18  2  0
 21 20  1  1
 22 21  1  0
 23 21  1  0
 24 23  1  1
 24 25  1  0
 25 18  1  0
 26 24  1  0
 27 26  2  0
 28 26  1  0
M  END
$$$$
