EHL.pdb
     RDKit          3D

 28 28  0  0  1  0  0  0  0  0999 V2000
   16.2696  -10.7575  -15.9180 N   0  0  0  0  0  0  0  0  0  0  0  0
   16.1295  -11.3253  -14.5807 C   0  0  1  0  0  0  0  0  0  0  0  0
   16.8863  -12.6307  -14.6046 C   0  0  0  0  0  0  0  0  0  0  0  0
   16.2547  -13.7153  -15.4112 C   0  0  0  0  0  0  0  0  0  0  0  0
   17.0838  -14.9214  -15.5763 C   0  0  0  0  0  0  0  0  0  0  0  0
   18.2234  -14.9383  -15.0272 O   0  0  0  0  0  0  0  0  0  0  0  0
   16.7633  -10.4504  -13.5633 C   0  0  0  0  0  0  0  0  0  0  0  0
   16.7735  -10.8661  -12.3673 O   0  0  0  0  0  0  0  0  0  0  0  0
   16.6029  -15.9812  -16.3137 O   0  0  0  0  0  0  0  0  0  0  0  0
   17.3476   -9.1947  -13.8597 N   0  0  0  0  0  0  0  0  0  0  0  0
   18.0182   -8.4466  -12.8157 C   0  0  1  0  0  0  0  0  0  0  0  0
   18.9443   -7.4330  -13.5042 C   0  0  0  0  0  0  0  0  0  0  0  0
   20.0870   -8.1831  -14.0593 C   0  0  0  0  0  0  0  0  0  0  0  0
   20.3242   -9.5203  -13.8754 C   0  0  0  0  0  0  0  0  0  0  0  0
   21.4550   -9.7968  -14.5453 N   0  0  0  0  0  0  0  0  0  0  0  0
   21.9213   -8.6915  -15.1310 C   0  0  0  0  0  0  0  0  0  0  0  0
   21.0632   -7.6924  -14.8226 N   0  0  0  0  0  0  0  0  0  0  0  0
   17.0802   -7.6636  -11.9801 C   0  0  0  0  0  0  0  0  0  0  0  0
   16.1244   -7.1153  -12.6324 O   0  0  0  0  0  0  0  0  0  0  0  0
   13.3199   -8.2484   -7.6910 C   0  0  0  0  0  0  0  0  0  0  0  0
   14.0803   -7.2806   -8.4972 C   0  0  2  0  0  0  0  0  0  0  0  0
   13.0578   -6.5600   -9.4003 C   0  0  0  0  0  0  0  0  0  0  0  0
   15.2451   -7.6546   -9.2676 C   0  0  0  0  0  0  0  0  0  0  0  0
   16.2250   -6.7351   -9.8329 C   0  0  2  0  0  0  0  0  0  0  0  0
   17.2115   -7.5222  -10.5822 N   0  0  0  0  0  0  0  0  0  0  0  0
   16.9664   -5.8073   -9.0047 C   0  0  0  0  0  0  0  0  0  0  0  0
   18.1120   -6.0580   -8.5480 O   0  0  0  0  0  0  0  0  0  0  0  0
   16.5098   -4.5542   -8.6254 O   0  0  0  0  0  0  0  0  0  0  0  0
  2  1  1  6
  2  7  1  0
  2  3  1  0
  3  4  1  0
  4  5  1  0
  5  9  1  0
  5  6  2  0
  7  8  2  0
 10  7  1  0
 11 10  1  0
 12 13  1  0
 11 12  1  6
 13 17  1  0
 14 13  2  0
 14 15  1  0
 15 16  1  0
 17 16  2  0
 18 11  1  0
 19 18  2  0
 21 20  1  6
 22 21  1  0
 23 21  1  0
 24 23  1  1
 24 25  1  0
 25 18  1  0
 26 24  1  0
 27 26  2  0
 28 26  1  0
M  END
$$$$
