EHL.pdb
     RDKit          3D

 28 28  0  0  1  0  0  0  0  0999 V2000
   24.9743  -22.3577  -18.1950 N   0  0  0  0  0  0  0  0  0  0  0  0
   24.0937  -21.2334  -18.4965 C   0  0  1  0  0  0  0  0  0  0  0  0
   23.2749  -21.6586  -19.6908 C   0  0  0  0  0  0  0  0  0  0  0  0
   22.1949  -20.7098  -20.0895 C   0  0  0  0  0  0  0  0  0  0  0  0
   22.3958  -20.0637  -21.3978 C   0  0  0  0  0  0  0  0  0  0  0  0
   23.0012  -20.7172  -22.2960 O   0  0  0  0  0  0  0  0  0  0  0  0
   23.1593  -20.9747  -17.3730 C   0  0  0  0  0  0  0  0  0  0  0  0
   22.6712  -21.9824  -16.7817 O   0  0  0  0  0  0  0  0  0  0  0  0
   21.9269  -18.7846  -21.6035 O   0  0  0  0  0  0  0  0  0  0  0  0
   22.7933  -19.6778  -16.9370 N   0  0  0  0  0  0  0  0  0  0  0  0
   21.8287  -19.5218  -15.8673 C   0  0  1  0  0  0  0  0  0  0  0  0
   21.9472  -18.0793  -15.3532 C   0  0  0  0  0  0  0  0  0  0  0  0
   20.9418  -17.9050  -14.2876 C   0  0  0  0  0  0  0  0  0  0  0  0
   19.8593  -17.0665  -14.3461 C   0  0  0  0  0  0  0  0  0  0  0  0
   19.2076  -17.2127  -13.1809 N   0  0  0  0  0  0  0  0  0  0  0  0
   19.8403  -18.1016  -12.4116 C   0  0  0  0  0  0  0  0  0  0  0  0
   20.9185  -18.5268  -13.1089 N   0  0  0  0  0  0  0  0  0  0  0  0
   20.4320  -19.6941  -16.3265 C   0  0  0  0  0  0  0  0  0  0  0  0
   20.2146  -19.2836  -17.5197 O   0  0  0  0  0  0  0  0  0  0  0  0
   15.2421  -21.4716  -17.1525 C   0  0  0  0  0  0  0  0  0  0  0  0
   16.6263  -21.7351  -17.5761 C   0  0  2  0  0  0  0  0  0  0  0  0
   16.6635  -23.1939  -18.0769 C   0  0  0  0  0  0  0  0  0  0  0  0
   17.7641  -21.4747  -16.7230 C   0  0  0  0  0  0  0  0  0  0  0  0
   18.0227  -20.2352  -16.0006 C   0  0  2  0  0  0  0  0  0  0  0  0
   19.4131  -20.2608  -15.5314 N   0  0  0  0  0  0  0  0  0  0  0  0
   17.2061  -19.8223  -14.8784 C   0  0  0  0  0  0  0  0  0  0  0  0
   17.5392  -20.0118  -13.6797 O   0  0  0  0  0  0  0  0  0  0  0  0
   15.9829  -19.1790  -14.9908 O   0  0  0  0  0  0  0  0  0  0  0  0
  2  1  1  1
  2  7  1  0
  2  3  1  0
  3  4  1  0
  4  5  1  0
  5  9  1  0
  5  6  2  0
  7  8  2  0
 10  7  1  0
 11 10  1  0
 12 13  1  0
 11 12  1  6
 13 17  1  0
 14 13  2  0
 14 15  1  0
 15 16  1  0
 17 16  2  0
 18 11  1  0
 19 18  2  0
 21 20  1  1
 22 21  1  0
 23 21  1  0
 24 23  1  1
 24 25  1  0
 25 18  1  0
 26 24  1  0
 27 26  2  0
 28 26  1  0
M  END
$$$$
