HYG.pdb
     RDKit          3D

 27 28  0  0  1  0  0  0  0  0999 V2000
   10.5985  -17.5913   19.9522 N   0  0  0  0  0  0  0  0  0  0  0  0
    9.4979  -17.8139   20.8564 C   0  0  1  0  0  0  0  0  0  0  0  0
    9.6531  -19.1579   21.5257 C   0  0  0  0  0  0  0  0  0  0  0  0
    9.3534  -20.2635   20.5967 C   0  0  0  0  0  0  0  0  0  0  0  0
    8.9772  -20.1673   19.2761 C   0  0  0  0  0  0  0  0  0  0  0  0
    8.7925  -21.4107   18.7625 N   0  0  0  0  0  0  0  0  0  0  0  0
    9.0525  -22.2827   19.7592 C   0  0  0  0  0  0  0  0  0  0  0  0
    9.3916  -21.5787   20.8669 N   0  0  0  0  0  0  0  0  0  0  0  0
    9.5113  -16.7013   21.8498 C   0  0  0  0  0  0  0  0  0  0  0  0
   10.5361  -15.9727   22.0198 O   0  0  0  0  0  0  0  0  0  0  0  0
    6.8081  -10.4375   27.5703 O   0  0  0  0  0  0  0  0  0  0  0  0
    6.8361  -11.5155   26.6673 C   0  0  0  0  0  0  0  0  0  0  0  0
    6.2127  -12.7011   26.9226 C   0  0  0  0  0  0  0  0  0  0  0  0
    6.2837  -13.7217   25.9828 C   0  0  0  0  0  0  0  0  0  0  0  0
    6.9619  -13.5934   24.7906 C   0  0  0  0  0  0  0  0  0  0  0  0
    7.0442  -14.6815   23.8015 C   0  0  0  0  0  0  0  0  0  0  0  0
    8.3784  -15.3080   23.6338 C   0  0  2  0  0  0  0  0  0  0  0  0
    8.3917  -16.3830   22.6653 N   0  0  0  0  0  0  0  0  0  0  0  0
    8.8538  -15.8604   24.9209 C   0  0  0  0  0  0  0  0  0  0  0  0
    9.0762  -15.1490   25.9424 O   0  0  0  0  0  0  0  0  0  0  0  0
    7.5847  -12.3898   24.5502 C   0  0  0  0  0  0  0  0  0  0  0  0
    7.5224  -11.3573   25.4825 C   0  0  0  0  0  0  0  0  0  0  0  0
    9.0941  -17.2532   25.0905 N   0  0  0  0  0  0  0  0  0  0  0  0
    9.5941  -17.7858   26.3643 C   0  0  0  0  0  0  0  0  0  0  0  0
    8.5454  -18.5512   27.0500 C   0  0  0  0  0  0  0  0  0  0  0  0
    7.3598  -18.5869   26.5890 O   0  0  0  0  0  0  0  0  0  0  0  0
    8.8640  -19.2360   28.2089 O   0  0  0  0  0  0  0  0  0  0  0  0
  2  9  1  0
  2  1  1  6
  2  3  1  0
  4  3  1  0
  4  8  1  0
  5  4  2  0
  6  5  1  0
  6  7  1  0
  7  8  2  0
  9 18  1  0
 10  9  2  0
 12 11  1  0
 13 12  2  0
 14 13  1  0
 15 21  1  0
 15 14  2  0
 16 15  1  0
 17 16  1  1
 18 17  1  0
 19 23  1  0
 19 17  1  0
 20 19  2  0
 21 22  2  0
 22 12  1  0
 24 23  1  0
 25 24  1  0
 26 25  2  0
 27 25  1  0
M  END
$$$$
