HYG.pdb
     RDKit          3D

 27 28  0  0  1  0  0  0  0  0999 V2000
    8.0371  -16.2402   20.9643 N   0  0  0  0  0  0  0  0  0  0  0  0
    8.9842  -15.1684   21.1451 C   0  0  1  0  0  0  0  0  0  0  0  0
    8.3996  -13.8791   20.6215 C   0  0  0  0  0  0  0  0  0  0  0  0
    8.1279  -13.9560   19.1739 C   0  0  0  0  0  0  0  0  0  0  0  0
    8.3500  -15.0262   18.3372 C   0  0  0  0  0  0  0  0  0  0  0  0
    7.9692  -14.7046   17.0740 N   0  0  0  0  0  0  0  0  0  0  0  0
    7.5100  -13.4363   17.1203 C   0  0  0  0  0  0  0  0  0  0  0  0
    7.6099  -12.9907   18.3967 N   0  0  0  0  0  0  0  0  0  0  0  0
    9.2810  -15.0836   22.6045 C   0  0  0  0  0  0  0  0  0  0  0  0
   10.0713  -14.2089   23.0735 O   0  0  0  0  0  0  0  0  0  0  0  0
    6.0629  -10.3614   26.7554 O   0  0  0  0  0  0  0  0  0  0  0  0
    6.5021  -11.6820   26.5516 C   0  0  0  0  0  0  0  0  0  0  0  0
    7.5283  -12.2305   27.2626 C   0  0  0  0  0  0  0  0  0  0  0  0
    7.9072  -13.5422   27.0060 C   0  0  0  0  0  0  0  0  0  0  0  0
    7.2894  -14.3259   26.0563 C   0  0  0  0  0  0  0  0  0  0  0  0
    7.7010  -15.7127   25.7796 C   0  0  0  0  0  0  0  0  0  0  0  0
    8.9430  -15.8758   24.9848 C   0  0  2  0  0  0  0  0  0  0  0  0
    8.7068  -15.9652   23.5600 N   0  0  0  0  0  0  0  0  0  0  0  0
    9.6609  -17.1018   25.3963 C   0  0  0  0  0  0  0  0  0  0  0  0
    9.8624  -17.4163   26.6044 O   0  0  0  0  0  0  0  0  0  0  0  0
    6.2557  -13.7556   25.3489 C   0  0  0  0  0  0  0  0  0  0  0  0
    5.8644  -12.4420   25.5948 C   0  0  0  0  0  0  0  0  0  0  0  0
   10.1783  -18.0191   24.4387 N   0  0  0  0  0  0  0  0  0  0  0  0
   10.8829  -19.2367   24.8600 C   0  0  0  0  0  0  0  0  0  0  0  0
   12.3356  -19.0571   24.7455 C   0  0  0  0  0  0  0  0  0  0  0  0
   12.8263  -17.9387   24.3878 O   0  0  0  0  0  0  0  0  0  0  0  0
   13.1679  -20.1240   25.0327 O   0  0  0  0  0  0  0  0  0  0  0  0
  2  9  1  0
  2  1  1  1
  2  3  1  0
  4  3  1  0
  4  8  1  0
  5  4  2  0
  6  5  1  0
  6  7  1  0
  7  8  2  0
  9 18  1  0
 10  9  2  0
 12 11  1  0
 13 12  2  0
 14 13  1  0
 15 21  1  0
 15 14  2  0
 16 15  1  0
 17 16  1  1
 18 17  1  0
 19 23  1  0
 19 17  1  0
 20 19  2  0
 21 22  2  0
 22 12  1  0
 24 23  1  0
 25 24  1  0
 26 25  2  0
 27 25  1  0
M  END
$$$$
