HYG.pdb
     RDKit          3D

 27 28  0  0  1  0  0  0  0  0999 V2000
   11.6770  -13.8989   19.3829 N   0  0  0  0  0  0  0  0  0  0  0  0
   10.2675  -14.0775   19.6271 C   0  0  1  0  0  0  0  0  0  0  0  0
    9.7778  -15.3085   18.9039 C   0  0  0  0  0  0  0  0  0  0  0  0
    9.2184  -14.9731   17.5811 C   0  0  0  0  0  0  0  0  0  0  0  0
    9.1852  -13.7371   16.9762 C   0  0  0  0  0  0  0  0  0  0  0  0
    8.5871  -13.8394   15.7614 N   0  0  0  0  0  0  0  0  0  0  0  0
    8.2470  -15.1362   15.6066 C   0  0  0  0  0  0  0  0  0  0  0  0
    8.6333  -15.8158   16.7141 N   0  0  0  0  0  0  0  0  0  0  0  0
   10.0876  -14.1999   21.1027 C   0  0  0  0  0  0  0  0  0  0  0  0
   11.0556  -14.4908   21.8697 O   0  0  0  0  0  0  0  0  0  0  0  0
    6.5183  -12.8333   29.1808 O   0  0  0  0  0  0  0  0  0  0  0  0
    6.7331  -12.9444   27.7952 C   0  0  0  0  0  0  0  0  0  0  0  0
    6.2833  -14.0059   27.0670 C   0  0  0  0  0  0  0  0  0  0  0  0
    6.5335  -14.0471   25.7011 C   0  0  0  0  0  0  0  0  0  0  0  0
    7.2227  -13.0558   25.0378 C   0  0  0  0  0  0  0  0  0  0  0  0
    7.4954  -13.1084   23.5914 C   0  0  0  0  0  0  0  0  0  0  0  0
    8.6694  -13.9168   23.1803 C   0  0  2  0  0  0  0  0  0  0  0  0
    8.8355  -14.0019   21.7453 N   0  0  0  0  0  0  0  0  0  0  0  0
    8.5518  -15.2970   23.6989 C   0  0  0  0  0  0  0  0  0  0  0  0
    8.4459  -15.5702   24.9290 O   0  0  0  0  0  0  0  0  0  0  0  0
    7.6689  -11.9923   25.7889 C   0  0  0  0  0  0  0  0  0  0  0  0
    7.4257  -11.9367   27.1589 C   0  0  0  0  0  0  0  0  0  0  0  0
    8.5506  -16.4227   22.8276 N   0  0  0  0  0  0  0  0  0  0  0  0
    8.3780  -17.7843   23.3497 C   0  0  0  0  0  0  0  0  0  0  0  0
    8.3475  -18.7576   22.2508 C   0  0  0  0  0  0  0  0  0  0  0  0
    7.9705  -18.4112   21.0858 O   0  0  0  0  0  0  0  0  0  0  0  0
    8.7355  -20.0619   22.4993 O   0  0  0  0  0  0  0  0  0  0  0  0
  2  9  1  0
  2  1  1  1
  2  3  1  0
  4  3  1  0
  4  8  1  0
  5  4  2  0
  6  5  1  0
  6  7  1  0
  7  8  2  0
  9 18  1  0
 10  9  2  0
 12 11  1  0
 13 12  2  0
 14 13  1  0
 15 21  1  0
 15 14  2  0
 16 15  1  0
 17 16  1  6
 18 17  1  0
 19 23  1  0
 19 17  1  0
 20 19  2  0
 21 22  2  0
 22 12  1  0
 24 23  1  0
 25 24  1  0
 26 25  2  0
 27 25  1  0
M  END
$$$$
