HYG.pdb
     RDKit          3D

 27 28  0  0  1  0  0  0  0  0999 V2000
   10.9962  -15.5318   19.1320 N   0  0  0  0  0  0  0  0  0  0  0  0
    9.6256  -15.1651   19.3875 C   0  0  1  0  0  0  0  0  0  0  0  0
    8.7015  -16.1676   18.7399 C   0  0  0  0  0  0  0  0  0  0  0  0
    8.3441  -15.7665   17.3664 C   0  0  0  0  0  0  0  0  0  0  0  0
    8.7759  -14.6534   16.6812 C   0  0  0  0  0  0  0  0  0  0  0  0
    8.2221  -14.6373   15.4414 N   0  0  0  0  0  0  0  0  0  0  0  0
    7.4458  -15.7377   15.3511 C   0  0  0  0  0  0  0  0  0  0  0  0
    7.5258  -16.4159   16.5221 N   0  0  0  0  0  0  0  0  0  0  0  0
    9.4469  -15.1305   20.8679 C   0  0  0  0  0  0  0  0  0  0  0  0
   10.1973  -15.7961   21.6450 O   0  0  0  0  0  0  0  0  0  0  0  0
    6.8897  -12.3572   28.9575 O   0  0  0  0  0  0  0  0  0  0  0  0
    6.9763  -12.5639   27.5689 C   0  0  0  0  0  0  0  0  0  0  0  0
    5.9991  -13.1985   26.8606 C   0  0  0  0  0  0  0  0  0  0  0  0
    6.1542  -13.3664   25.4902 C   0  0  0  0  0  0  0  0  0  0  0  0
    7.2608  -12.9180   24.8032 C   0  0  0  0  0  0  0  0  0  0  0  0
    7.4265  -13.1077   23.3522 C   0  0  0  0  0  0  0  0  0  0  0  0
    8.3037  -14.2305   22.9394 C   0  0  2  0  0  0  0  0  0  0  0  0
    8.4368  -14.3594   21.5043 N   0  0  0  0  0  0  0  0  0  0  0  0
    7.7772  -15.5126   23.4560 C   0  0  0  0  0  0  0  0  0  0  0  0
    6.7123  -16.0473   23.0327 O   0  0  0  0  0  0  0  0  0  0  0  0
    8.2365  -12.2798   25.5346 C   0  0  0  0  0  0  0  0  0  0  0  0
    8.0954  -12.1038   26.9088 C   0  0  0  0  0  0  0  0  0  0  0  0
    8.4506  -16.2358   24.4807 N   0  0  0  0  0  0  0  0  0  0  0  0
    7.9162  -17.5063   24.9873 C   0  0  0  0  0  0  0  0  0  0  0  0
    8.7563  -18.0213   26.0758 C   0  0  0  0  0  0  0  0  0  0  0  0
    9.8347  -17.4289   26.4007 O   0  0  0  0  0  0  0  0  0  0  0  0
    8.3588  -19.1638   26.7466 O   0  0  0  0  0  0  0  0  0  0  0  0
  2  9  1  0
  2  1  1  1
  2  3  1  0
  4  3  1  0
  4  8  1  0
  5  4  2  0
  6  5  1  0
  6  7  1  0
  7  8  2  0
  9 18  1  0
 10  9  2  0
 12 11  1  0
 13 12  2  0
 14 13  1  0
 15 21  1  0
 15 14  2  0
 16 15  1  0
 17 16  1  6
 18 17  1  0
 19 23  1  0
 19 17  1  0
 20 19  2  0
 21 22  2  0
 22 12  1  0
 24 23  1  0
 25 24  1  0
 26 25  2  0
 27 25  1  0
M  END
$$$$
