HYG.pdb
     RDKit          3D

 27 28  0  0  1  0  0  0  0  0999 V2000
   11.0298  -14.0596   20.5804 N   0  0  0  0  0  0  0  0  0  0  0  0
    9.7251  -14.3787   21.1042 C   0  0  1  0  0  0  0  0  0  0  0  0
    9.0415  -15.3724   20.1966 C   0  0  0  0  0  0  0  0  0  0  0  0
    8.6041  -14.7433   18.9364 C   0  0  0  0  0  0  0  0  0  0  0  0
    8.9005  -13.4763   18.4873 C   0  0  0  0  0  0  0  0  0  0  0  0
    8.3107  -13.2697   17.2818 N   0  0  0  0  0  0  0  0  0  0  0  0
    7.6468  -14.4047   16.9773 C   0  0  0  0  0  0  0  0  0  0  0  0
    7.8302  -15.2921   17.9855 N   0  0  0  0  0  0  0  0  0  0  0  0
    9.9236  -14.9333   22.4745 C   0  0  0  0  0  0  0  0  0  0  0  0
   11.0795  -15.0503   22.9846 O   0  0  0  0  0  0  0  0  0  0  0  0
    6.4292  -10.2574   26.9576 O   0  0  0  0  0  0  0  0  0  0  0  0
    6.7115  -11.5775   26.5627 C   0  0  0  0  0  0  0  0  0  0  0  0
    5.8517  -12.3146   25.8033 C   0  0  0  0  0  0  0  0  0  0  0  0
    6.1987  -13.6130   25.4515 C   0  0  0  0  0  0  0  0  0  0  0  0
    7.3836  -14.2001   25.8375 C   0  0  0  0  0  0  0  0  0  0  0  0
    7.7430  -15.5807   25.4718 C   0  0  0  0  0  0  0  0  0  0  0  0
    8.9902  -15.7409   24.6846 C   0  0  2  0  0  0  0  0  0  0  0  0
    8.8460  -15.3642   23.2949 N   0  0  0  0  0  0  0  0  0  0  0  0
    9.4455  -17.1477   24.7210 C   0  0  0  0  0  0  0  0  0  0  0  0
    9.6407  -17.7871   25.7944 O   0  0  0  0  0  0  0  0  0  0  0  0
    8.2389  -13.4410   26.6034 C   0  0  0  0  0  0  0  0  0  0  0  0
    7.9052  -12.1380   26.9638 C   0  0  0  0  0  0  0  0  0  0  0  0
    9.6963  -17.8808   23.5269 N   0  0  0  0  0  0  0  0  0  0  0  0
   10.1786  -19.2669   23.5764 C   0  0  0  0  0  0  0  0  0  0  0  0
   11.6447  -19.3002   23.6489 C   0  0  0  0  0  0  0  0  0  0  0  0
   12.2992  -18.2839   24.0468 O   0  0  0  0  0  0  0  0  0  0  0  0
   12.3084  -20.4555   23.2774 O   0  0  0  0  0  0  0  0  0  0  0  0
  2  9  1  0
  2  1  1  6
  2  3  1  0
  4  3  1  0
  4  8  1  0
  5  4  2  0
  6  5  1  0
  6  7  1  0
  7  8  2  0
  9 18  1  0
 10  9  2  0
 12 11  1  0
 13 12  2  0
 14 13  1  0
 15 21  1  0
 15 14  2  0
 16 15  1  0
 17 16  1  1
 18 17  1  0
 19 23  1  0
 19 17  1  0
 20 19  2  0
 21 22  2  0
 22 12  1  0
 24 23  1  0
 25 24  1  0
 26 25  2  0
 27 25  1  0
M  END
$$$$
