HYG.pdb
     RDKit          3D

 27 28  0  0  1  0  0  0  0  0999 V2000
    8.3157  -16.2184   21.3415 N   0  0  0  0  0  0  0  0  0  0  0  0
    9.2742  -15.1464   21.4448 C   0  0  1  0  0  0  0  0  0  0  0  0
    8.6555  -13.8614   20.9506 C   0  0  0  0  0  0  0  0  0  0  0  0
    8.2833  -13.9521   19.5264 C   0  0  0  0  0  0  0  0  0  0  0  0
    7.7728  -12.9519   18.7302 C   0  0  0  0  0  0  0  0  0  0  0  0
    7.5599  -13.4299   17.4772 N   0  0  0  0  0  0  0  0  0  0  0  0
    7.9362  -14.7260   17.4893 C   0  0  0  0  0  0  0  0  0  0  0  0
    8.3732  -15.0337   18.7350 N   0  0  0  0  0  0  0  0  0  0  0  0
    9.6726  -15.0478   22.8788 C   0  0  0  0  0  0  0  0  0  0  0  0
   10.5609  -14.2298   23.2683 O   0  0  0  0  0  0  0  0  0  0  0  0
    5.8651  -10.6134   26.9341 O   0  0  0  0  0  0  0  0  0  0  0  0
    6.4115  -11.8936   26.7318 C   0  0  0  0  0  0  0  0  0  0  0  0
    5.6726  -12.9397   26.2635 C   0  0  0  0  0  0  0  0  0  0  0  0
    6.2811  -14.1763   26.0888 C   0  0  0  0  0  0  0  0  0  0  0  0
    7.6110  -14.4007   26.3692 C   0  0  0  0  0  0  0  0  0  0  0  0
    8.2498  -15.7159   26.1929 C   0  0  0  0  0  0  0  0  0  0  0  0
    9.4334  -15.7491   25.2992 C   0  0  2  0  0  0  0  0  0  0  0  0
    9.0929  -15.8525   23.8967 N   0  0  0  0  0  0  0  0  0  0  0  0
   10.3001  -16.9000   25.6344 C   0  0  0  0  0  0  0  0  0  0  0  0
   10.8945  -17.0220   26.7438 O   0  0  0  0  0  0  0  0  0  0  0  0
    8.3409  -13.3333   26.8406 C   0  0  0  0  0  0  0  0  0  0  0  0
    7.7452  -12.0876   27.0208 C   0  0  0  0  0  0  0  0  0  0  0  0
   10.5216  -17.9599   24.7104 N   0  0  0  0  0  0  0  0  0  0  0  0
   11.3138  -19.1381   25.0851 C   0  0  0  0  0  0  0  0  0  0  0  0
   10.6951  -19.8357   26.2193 C   0  0  0  0  0  0  0  0  0  0  0  0
   10.5238  -19.2429   27.3322 O   0  0  0  0  0  0  0  0  0  0  0  0
   10.2989  -21.1516   26.0618 O   0  0  0  0  0  0  0  0  0  0  0  0
  2  9  1  0
  2  1  1  1
  2  3  1  0
  4  3  1  0
  4  8  1  0
  5  4  2  0
  6  5  1  0
  6  7  1  0
  7  8  2  0
  9 18  1  0
 10  9  2  0
 12 11  1  0
 13 12  2  0
 14 13  1  0
 15 21  1  0
 15 14  2  0
 16 15  1  0
 17 16  1  1
 18 17  1  0
 19 23  1  0
 19 17  1  0
 20 19  2  0
 21 22  2  0
 22 12  1  0
 24 23  1  0
 25 24  1  0
 26 25  2  0
 27 25  1  0
M  END
$$$$
