HYG.pdb
     RDKit          3D

 27 28  0  0  1  0  0  0  0  0999 V2000
    8.2308  -16.0006   21.1483 N   0  0  0  0  0  0  0  0  0  0  0  0
    9.3314  -15.0972   21.3746 C   0  0  1  0  0  0  0  0  0  0  0  0
    8.9904  -13.7327   20.8268 C   0  0  0  0  0  0  0  0  0  0  0  0
    8.6276  -13.7974   19.3988 C   0  0  0  0  0  0  0  0  0  0  0  0
    7.4490  -13.3895   18.8161 C   0  0  0  0  0  0  0  0  0  0  0  0
    7.4995  -13.6147   17.4780 N   0  0  0  0  0  0  0  0  0  0  0  0
    8.7068  -14.1621   17.2240 C   0  0  0  0  0  0  0  0  0  0  0  0
    9.3835  -14.2690   18.3936 N   0  0  0  0  0  0  0  0  0  0  0  0
    9.5709  -15.0537   22.8462 C   0  0  0  0  0  0  0  0  0  0  0  0
   10.4244  -14.2673   23.3590 O   0  0  0  0  0  0  0  0  0  0  0  0
    6.0871  -10.2569   26.9171 O   0  0  0  0  0  0  0  0  0  0  0  0
    6.4500  -11.5849   26.6290 C   0  0  0  0  0  0  0  0  0  0  0  0
    5.7877  -12.3418   25.7082 C   0  0  0  0  0  0  0  0  0  0  0  0
    6.2035  -13.6470   25.4765 C   0  0  0  0  0  0  0  0  0  0  0  0
    7.2652  -14.2215   26.1401 C   0  0  0  0  0  0  0  0  0  0  0  0
    7.6962  -15.6092   25.8996 C   0  0  0  0  0  0  0  0  0  0  0  0
    8.9956  -15.7748   25.2034 C   0  0  2  0  0  0  0  0  0  0  0  0
    8.8691  -15.8793   23.7657 N   0  0  0  0  0  0  0  0  0  0  0  0
    9.6844  -16.9937   25.6809 C   0  0  0  0  0  0  0  0  0  0  0  0
    9.8700  -17.2524   26.9047 O   0  0  0  0  0  0  0  0  0  0  0  0
    7.9216  -13.4425   27.0656 C   0  0  0  0  0  0  0  0  0  0  0  0
    7.5167  -12.1325   27.3087 C   0  0  0  0  0  0  0  0  0  0  0  0
   10.1895  -17.9677   24.7740 N   0  0  0  0  0  0  0  0  0  0  0  0
   10.8131  -19.2047   25.2611 C   0  0  0  0  0  0  0  0  0  0  0  0
   11.1548  -20.0865   24.1380 C   0  0  0  0  0  0  0  0  0  0  0  0
   10.4242  -20.1261   23.0968 O   0  0  0  0  0  0  0  0  0  0  0  0
   12.2863  -20.8773   24.2265 O   0  0  0  0  0  0  0  0  0  0  0  0
  2  9  1  0
  2  1  1  1
  2  3  1  0
  4  3  1  0
  4  8  1  0
  5  4  2  0
  6  5  1  0
  6  7  1  0
  7  8  2  0
  9 18  1  0
 10  9  2  0
 12 11  1  0
 13 12  2  0
 14 13  1  0
 15 21  1  0
 15 14  2  0
 16 15  1  0
 17 16  1  1
 18 17  1  0
 19 23  1  0
 19 17  1  0
 20 19  2  0
 21 22  2  0
 22 12  1  0
 24 23  1  0
 25 24  1  0
 26 25  2  0
 27 25  1  0
M  END
$$$$
