HYG.pdb
     RDKit          3D

 27 28  0  0  1  0  0  0  0  0999 V2000
    9.7705  -12.7074   19.6414 N   0  0  0  0  0  0  0  0  0  0  0  0
    8.8752  -13.6671   20.2378 C   0  0  1  0  0  0  0  0  0  0  0  0
    8.7332  -14.8637   19.3290 C   0  0  0  0  0  0  0  0  0  0  0  0
    8.0616  -14.5074   18.0651 C   0  0  0  0  0  0  0  0  0  0  0  0
    7.7336  -13.2472   17.6189 C   0  0  0  0  0  0  0  0  0  0  0  0
    7.1248  -13.3358   16.4084 N   0  0  0  0  0  0  0  0  0  0  0  0
    7.0719  -14.6482   16.0979 C   0  0  0  0  0  0  0  0  0  0  0  0
    7.6419  -15.3506   17.1075 N   0  0  0  0  0  0  0  0  0  0  0  0
    9.4530  -14.0472   21.5594 C   0  0  0  0  0  0  0  0  0  0  0  0
   10.6986  -14.2335   21.7128 O   0  0  0  0  0  0  0  0  0  0  0  0
   10.1964  -15.4139   30.3631 O   0  0  0  0  0  0  0  0  0  0  0  0
    9.7557  -15.0507   29.0777 C   0  0  0  0  0  0  0  0  0  0  0  0
    9.9411  -13.8005   28.5660 C   0  0  0  0  0  0  0  0  0  0  0  0
    9.4783  -13.5145   27.2877 C   0  0  0  0  0  0  0  0  0  0  0  0
    8.8328  -14.4437   26.5018 C   0  0  0  0  0  0  0  0  0  0  0  0
    8.3338  -14.1336   25.1513 C   0  0  0  0  0  0  0  0  0  0  0  0
    9.1984  -14.5624   24.0246 C   0  0  2  0  0  0  0  0  0  0  0  0
    8.6593  -14.2252   22.7248 N   0  0  0  0  0  0  0  0  0  0  0  0
    9.3997  -16.0274   24.0582 C   0  0  0  0  0  0  0  0  0  0  0  0
    8.4540  -16.8610   23.9595 O   0  0  0  0  0  0  0  0  0  0  0  0
    8.6548  -15.7001   27.0348 C   0  0  0  0  0  0  0  0  0  0  0  0
    9.1133  -16.0019   28.3146 C   0  0  0  0  0  0  0  0  0  0  0  0
   10.6953  -16.5981   24.2065 N   0  0  0  0  0  0  0  0  0  0  0  0
   10.8774  -18.0531   24.2857 C   0  0  0  0  0  0  0  0  0  0  0  0
   11.6426  -18.4121   25.4863 C   0  0  0  0  0  0  0  0  0  0  0  0
   12.0693  -17.5122   26.2785 O   0  0  0  0  0  0  0  0  0  0  0  0
   11.8951  -19.7470   25.7463 O   0  0  0  0  0  0  0  0  0  0  0  0
  2  9  1  0
  2  1  1  6
  2  3  1  0
  4  3  1  0
  4  8  1  0
  5  4  2  0
  6  5  1  0
  6  7  1  0
  7  8  2  0
  9 18  1  0
 10  9  2  0
 12 11  1  0
 13 12  2  0
 14 13  1  0
 15 21  1  0
 15 14  2  0
 16 15  1  0
 17 16  1  1
 18 17  1  0
 19 23  1  0
 19 17  1  0
 20 19  2  0
 21 22  2  0
 22 12  1  0
 24 23  1  0
 25 24  1  0
 26 25  2  0
 27 25  1  0
M  END
$$$$
