HYG.pdb
     RDKit          3D

 27 28  0  0  1  0  0  0  0  0999 V2000
   11.6111  -13.4672   20.4377 N   0  0  0  0  0  0  0  0  0  0  0  0
   10.3163  -13.9742   20.8184 C   0  0  1  0  0  0  0  0  0  0  0  0
    9.9048  -15.0785   19.8753 C   0  0  0  0  0  0  0  0  0  0  0  0
    9.1930  -14.5478   18.6976 C   0  0  0  0  0  0  0  0  0  0  0  0
    9.0071  -13.2268   18.3580 C   0  0  0  0  0  0  0  0  0  0  0  0
    8.3005  -13.1481   17.2011 N   0  0  0  0  0  0  0  0  0  0  0  0
    8.0449  -14.4167   16.8178 C   0  0  0  0  0  0  0  0  0  0  0  0
    8.5894  -15.2581   17.7304 N   0  0  0  0  0  0  0  0  0  0  0  0
   10.4305  -14.4655   22.2221 C   0  0  0  0  0  0  0  0  0  0  0  0
   11.4914  -14.3056   22.8994 O   0  0  0  0  0  0  0  0  0  0  0  0
    6.3191  -10.5820   27.0981 O   0  0  0  0  0  0  0  0  0  0  0  0
    6.7927  -11.8081   26.5975 C   0  0  0  0  0  0  0  0  0  0  0  0
    7.9112  -12.4158   27.0863 C   0  0  0  0  0  0  0  0  0  0  0  0
    8.3189  -13.6271   26.5415 C   0  0  0  0  0  0  0  0  0  0  0  0
    7.6403  -14.2521   25.5186 C   0  0  0  0  0  0  0  0  0  0  0  0
    8.0818  -15.5308   24.9363 C   0  0  0  0  0  0  0  0  0  0  0  0
    9.4150  -15.5229   24.2857 C   0  0  2  0  0  0  0  0  0  0  0  0
    9.3726  -15.1386   22.8913 N   0  0  0  0  0  0  0  0  0  0  0  0
   10.0329  -16.8647   24.3606 C   0  0  0  0  0  0  0  0  0  0  0  0
   10.2666  -17.4620   25.4504 O   0  0  0  0  0  0  0  0  0  0  0  0
    6.5137  -13.6242   25.0382 C   0  0  0  0  0  0  0  0  0  0  0  0
    6.0924  -12.4099   25.5741 C   0  0  0  0  0  0  0  0  0  0  0  0
   10.4089  -17.5783   23.1876 N   0  0  0  0  0  0  0  0  0  0  0  0
   10.8868  -18.9647   23.2651 C   0  0  0  0  0  0  0  0  0  0  0  0
   12.3225  -18.9986   23.5707 C   0  0  0  0  0  0  0  0  0  0  0  0
   12.9684  -17.9222   23.7796 O   0  0  0  0  0  0  0  0  0  0  0  0
   12.9670  -20.2211   23.6289 O   0  0  0  0  0  0  0  0  0  0  0  0
  2  9  1  0
  2  1  1  6
  2  3  1  0
  4  3  1  0
  4  8  1  0
  5  4  2  0
  6  5  1  0
  6  7  1  0
  7  8  2  0
  9 18  1  0
 10  9  2  0
 12 11  1  0
 13 12  2  0
 14 13  1  0
 15 21  1  0
 15 14  2  0
 16 15  1  0
 17 16  1  6
 18 17  1  0
 19 23  1  0
 19 17  1  0
 20 19  2  0
 21 22  2  0
 22 12  1  0
 24 23  1  0
 25 24  1  0
 26 25  2  0
 27 25  1  0
M  END
$$$$
