HYG.pdb
     RDKit          3D

 27 28  0  0  1  0  0  0  0  0999 V2000
   11.2412  -15.0559   19.4838 N   0  0  0  0  0  0  0  0  0  0  0  0
    9.8708  -14.7578   19.8178 C   0  0  1  0  0  0  0  0  0  0  0  0
    8.9530  -15.7278   19.1142 C   0  0  0  0  0  0  0  0  0  0  0  0
    8.4777  -15.1872   17.8269 C   0  0  0  0  0  0  0  0  0  0  0  0
    8.2942  -13.8647   17.4920 C   0  0  0  0  0  0  0  0  0  0  0  0
    7.8449  -13.7758   16.2137 N   0  0  0  0  0  0  0  0  0  0  0  0
    7.7475  -15.0395   15.7499 C   0  0  0  0  0  0  0  0  0  0  0  0
    8.1330  -15.8881   16.7342 N   0  0  0  0  0  0  0  0  0  0  0  0
    9.7458  -14.8611   21.3006 C   0  0  0  0  0  0  0  0  0  0  0  0
   10.7450  -15.1264   22.0362 O   0  0  0  0  0  0  0  0  0  0  0  0
    6.5516  -11.4605   28.8994 O   0  0  0  0  0  0  0  0  0  0  0  0
    6.7037  -11.9348   27.5841 C   0  0  0  0  0  0  0  0  0  0  0  0
    6.0406  -13.0322   27.1200 C   0  0  0  0  0  0  0  0  0  0  0  0
    6.2412  -13.4421   25.8078 C   0  0  0  0  0  0  0  0  0  0  0  0
    7.0880  -12.7862   24.9416 C   0  0  0  0  0  0  0  0  0  0  0  0
    7.3063  -13.2302   23.5544 C   0  0  0  0  0  0  0  0  0  0  0  0
    8.4137  -14.1955   23.3475 C   0  0  2  0  0  0  0  0  0  0  0  0
    8.5147  -14.6721   21.9850 N   0  0  0  0  0  0  0  0  0  0  0  0
    8.2385  -15.3757   24.2218 C   0  0  0  0  0  0  0  0  0  0  0  0
    8.0906  -15.2960   25.4751 O   0  0  0  0  0  0  0  0  0  0  0  0
    7.7484  -11.6807   25.4274 C   0  0  0  0  0  0  0  0  0  0  0  0
    7.5576  -11.2575   26.7403 C   0  0  0  0  0  0  0  0  0  0  0  0
    8.2257  -16.6980   23.6947 N   0  0  0  0  0  0  0  0  0  0  0  0
    7.9853  -17.8572   24.5634 C   0  0  0  0  0  0  0  0  0  0  0  0
    9.2362  -18.2969   25.1940 C   0  0  0  0  0  0  0  0  0  0  0  0
   10.3625  -17.9271   24.7313 O   0  0  0  0  0  0  0  0  0  0  0  0
    9.1744  -19.1220   26.3025 O   0  0  0  0  0  0  0  0  0  0  0  0
  2  9  1  0
  2  1  1  1
  2  3  1  0
  4  3  1  0
  4  8  1  0
  5  4  2  0
  6  5  1  0
  6  7  1  0
  7  8  2  0
  9 18  1  0
 10  9  2  0
 12 11  1  0
 13 12  2  0
 14 13  1  0
 15 21  1  0
 15 14  2  0
 16 15  1  0
 17 16  1  6
 18 17  1  0
 19 23  1  0
 19 17  1  0
 20 19  2  0
 21 22  2  0
 22 12  1  0
 24 23  1  0
 25 24  1  0
 26 25  2  0
 27 25  1  0
M  END
$$$$
