HYG.pdb
     RDKit          3D

 27 28  0  0  1  0  0  0  0  0999 V2000
   10.9888  -16.2014   19.6564 N   0  0  0  0  0  0  0  0  0  0  0  0
    9.6926  -15.5986   19.8439 C   0  0  1  0  0  0  0  0  0  0  0  0
    8.6632  -16.3412   19.0271 C   0  0  0  0  0  0  0  0  0  0  0  0
    8.3774  -15.6487   17.7567 C   0  0  0  0  0  0  0  0  0  0  0  0
    8.9383  -14.4784   17.2976 C   0  0  0  0  0  0  0  0  0  0  0  0
    8.4137  -14.1660   16.0847 N   0  0  0  0  0  0  0  0  0  0  0  0
    7.5268  -15.1384   15.7856 C   0  0  0  0  0  0  0  0  0  0  0  0
    7.5114  -16.0325   16.8043 N   0  0  0  0  0  0  0  0  0  0  0  0
    9.3846  -15.6598   21.3020 C   0  0  0  0  0  0  0  0  0  0  0  0
   10.0855  -16.3514   22.1022 O   0  0  0  0  0  0  0  0  0  0  0  0
    7.1990  -12.2186   29.1828 O   0  0  0  0  0  0  0  0  0  0  0  0
    7.2300  -12.5199   27.8093 C   0  0  0  0  0  0  0  0  0  0  0  0
    6.1012  -12.7860   27.0921 C   0  0  0  0  0  0  0  0  0  0  0  0
    6.2098  -13.0757   25.7378 C   0  0  0  0  0  0  0  0  0  0  0  0
    7.4171  -13.1082   25.0753 C   0  0  0  0  0  0  0  0  0  0  0  0
    7.5292  -13.4265   23.6418 C   0  0  0  0  0  0  0  0  0  0  0  0
    8.1608  -14.7277   23.3123 C   0  0  2  0  0  0  0  0  0  0  0  0
    8.2983  -14.9571   21.8902 N   0  0  0  0  0  0  0  0  0  0  0  0
    7.3645  -15.8428   23.8695 C   0  0  0  0  0  0  0  0  0  0  0  0
    7.0970  -15.9583   25.1001 O   0  0  0  0  0  0  0  0  0  0  0  0
    8.5455  -12.8369   25.8153 C   0  0  0  0  0  0  0  0  0  0  0  0
    8.4528  -12.5446   27.1736 C   0  0  0  0  0  0  0  0  0  0  0  0
    6.8412  -16.8729   23.0381 N   0  0  0  0  0  0  0  0  0  0  0  0
    5.9712  -17.9207   23.5873 C   0  0  0  0  0  0  0  0  0  0  0  0
    6.7716  -19.0454   24.0874 C   0  0  0  0  0  0  0  0  0  0  0  0
    8.0417  -18.9740   24.1242 O   0  0  0  0  0  0  0  0  0  0  0  0
    6.1246  -20.1889   24.5200 O   0  0  0  0  0  0  0  0  0  0  0  0
  2  9  1  0
  2  1  1  1
  2  3  1  0
  4  3  1  0
  4  8  1  0
  5  4  2  0
  6  5  1  0
  6  7  1  0
  7  8  2  0
  9 18  1  0
 10  9  2  0
 12 11  1  0
 13 12  2  0
 14 13  1  0
 15 21  1  0
 15 14  2  0
 16 15  1  0
 17 16  1  6
 18 17  1  0
 19 23  1  0
 19 17  1  0
 20 19  2  0
 21 22  2  0
 22 12  1  0
 24 23  1  0
 25 24  1  0
 26 25  2  0
 27 25  1  0
M  END
$$$$
