LFL.pdb
     RDKit          3D

 28 28  0  0  1  0  0  0  0  0999 V2000
   11.0709  -17.5470   16.3417 C   0  0  0  0  0  0  0  0  0  0  0  0
   10.7575  -18.2013   17.6658 C   0  0  1  0  0  0  0  0  0  0  0  0
   11.5430  -19.4652   17.8636 C   0  0  0  0  0  0  0  0  0  0  0  0
   10.8341  -17.2384   18.8144 C   0  0  0  0  0  0  0  0  0  0  0  0
   10.4804  -17.8917   20.1329 C   0  0  2  0  0  0  0  0  0  0  0  0
    9.3230  -18.7277   20.0812 N   0  0  0  0  0  0  0  0  0  0  0  0
   10.2772  -16.8372   21.1532 C   0  0  0  0  0  0  0  0  0  0  0  0
   11.1793  -16.0000   21.3722 O   0  0  0  0  0  0  0  0  0  0  0  0
    9.0839  -16.7320   21.9070 N   0  0  0  0  0  0  0  0  0  0  0  0
    8.8744  -15.7676   22.9671 C   0  0  1  0  0  0  0  0  0  0  0  0
    7.4048  -15.4563   23.0207 C   0  0  0  0  0  0  0  0  0  0  0  0
    7.0815  -14.4553   24.0595 C   0  0  0  0  0  0  0  0  0  0  0  0
    6.4867  -14.7813   25.2637 C   0  0  0  0  0  0  0  0  0  0  0  0
    6.2111  -13.8021   26.1915 C   0  0  0  0  0  0  0  0  0  0  0  0
    6.5214  -12.4899   25.9361 C   0  0  0  0  0  0  0  0  0  0  0  0
    7.1113  -12.1665   24.7408 C   0  0  0  0  0  0  0  0  0  0  0  0
    7.3924  -13.1371   23.8049 C   0  0  0  0  0  0  0  0  0  0  0  0
    9.3637  -16.2901   24.2867 C   0  0  0  0  0  0  0  0  0  0  0  0
    9.3787  -17.5200   24.5433 O   0  0  0  0  0  0  0  0  0  0  0  0
   11.7165  -14.9260   29.3130 C   0  0  0  0  0  0  0  0  0  0  0  0
   10.3162  -14.6160   28.8802 C   0  0  1  0  0  0  0  0  0  0  0  0
    9.8814  -13.3632   29.6169 C   0  0  0  0  0  0  0  0  0  0  0  0
   10.0103  -14.6203   27.4532 C   0  0  0  0  0  0  0  0  0  0  0  0
   10.2490  -15.7697   26.5825 C   0  0  2  0  0  0  0  0  0  0  0  0
    9.8072  -15.3464   25.2288 N   0  0  0  0  0  0  0  0  0  0  0  0
    9.7374  -17.0801   26.9112 C   0  0  0  0  0  0  0  0  0  0  0  0
   10.4938  -18.0277   27.3598 O   0  0  0  0  0  0  0  0  0  0  0  0
    8.4177  -17.4879   26.8021 O   0  0  0  0  0  0  0  0  0  0  0  0
  2  3  1  1
  2  1  1  0
  4  2  1  0
  5  4  1  0
  5  6  1  6
  7  8  2  0
  7  5  1  0
  9  7  1  0
 10  9  1  0
 11 12  1  0
 10 11  1  1
 12 17  2  0
 12 13  1  0
 13 14  2  0
 14 15  1  0
 16 15  2  0
 17 16  1  0
 18 10  1  0
 18 19  2  0
 21 23  1  0
 21 20  1  6
 22 21  1  0
 24 25  1  0
 24 23  1  1
 25 18  1  0
 26 24  1  0
 27 26  2  0
 28 26  1  0
M  END
$$$$
