LFL.pdb
     RDKit          3D

 28 28  0  0  1  0  0  0  0  0999 V2000
   10.9018  -18.5823   17.7322 C   0  0  0  0  0  0  0  0  0  0  0  0
   12.0159  -17.7685   18.3458 C   0  0  1  0  0  0  0  0  0  0  0  0
   12.8118  -17.0372   17.3042 C   0  0  0  0  0  0  0  0  0  0  0  0
   11.5406  -16.9079   19.4797 C   0  0  0  0  0  0  0  0  0  0  0  0
   10.8843  -17.7182   20.5766 C   0  0  2  0  0  0  0  0  0  0  0  0
    9.6858  -18.3848   20.1759 N   0  0  0  0  0  0  0  0  0  0  0  0
   10.5890  -16.8269   21.7223 C   0  0  0  0  0  0  0  0  0  0  0  0
   11.4785  -16.0706   22.1688 O   0  0  0  0  0  0  0  0  0  0  0  0
    9.3198  -16.7918   22.3475 N   0  0  0  0  0  0  0  0  0  0  0  0
    9.0054  -15.9781   23.5038 C   0  0  1  0  0  0  0  0  0  0  0  0
    7.5401  -15.6473   23.4477 C   0  0  0  0  0  0  0  0  0  0  0  0
    7.1766  -14.5541   24.3742 C   0  0  0  0  0  0  0  0  0  0  0  0
    7.5670  -13.2419   24.1845 C   0  0  0  0  0  0  0  0  0  0  0  0
    7.1954  -12.2682   25.0841 C   0  0  0  0  0  0  0  0  0  0  0  0
    6.4335  -12.5841   26.1810 C   0  0  0  0  0  0  0  0  0  0  0  0
    6.0465  -13.8864   26.3692 C   0  0  0  0  0  0  0  0  0  0  0  0
    6.4115  -14.8693   25.4761 C   0  0  0  0  0  0  0  0  0  0  0  0
    9.3500  -16.6868   24.7816 C   0  0  0  0  0  0  0  0  0  0  0  0
    9.4785  -17.9358   24.8279 O   0  0  0  0  0  0  0  0  0  0  0  0
    9.2604  -13.1724   29.1297 C   0  0  0  0  0  0  0  0  0  0  0  0
    9.7361  -14.0745   28.0323 C   0  0  1  0  0  0  0  0  0  0  0  0
   11.0837  -13.5535   27.5700 C   0  0  0  0  0  0  0  0  0  0  0  0
    9.6808  -15.5176   28.2427 C   0  0  0  0  0  0  0  0  0  0  0  0
    9.9993  -16.4951   27.2038 C   0  0  2  0  0  0  0  0  0  0  0  0
    9.5249  -15.8958   25.9299 N   0  0  0  0  0  0  0  0  0  0  0  0
    9.5840  -17.8741   27.3171 C   0  0  0  0  0  0  0  0  0  0  0  0
   10.1773  -18.7153   28.0991 O   0  0  0  0  0  0  0  0  0  0  0  0
    8.5313  -18.4641   26.6361 O   0  0  0  0  0  0  0  0  0  0  0  0
  2  3  1  6
  2  1  1  0
  4  2  1  0
  5  4  1  0
  5  6  1  6
  7  8  2  0
  7  5  1  0
  9  7  1  0
 10  9  1  0
 11 12  1  0
 10 11  1  1
 12 17  2  0
 12 13  1  0
 13 14  2  0
 14 15  1  0
 16 15  2  0
 17 16  1  0
 18 10  1  0
 18 19  2  0
 21 23  1  0
 21 20  1  1
 22 21  1  0
 24 25  1  0
 24 23  1  1
 25 18  1  0
 26 24  1  0
 27 26  2  0
 28 26  1  0
M  END
$$$$
