LFL.pdb
     RDKit          3D

 28 28  0  0  1  0  0  0  0  0999 V2000
    0.5823  -19.3089   21.0691 C   0  0  0  0  0  0  0  0  0  0  0  0
    1.9937  -19.6927   21.4439 C   0  0  1  0  0  0  0  0  0  0  0  0
    2.7766  -20.1698   20.2552 C   0  0  0  0  0  0  0  0  0  0  0  0
    2.6812  -18.6324   22.2533 C   0  0  0  0  0  0  0  0  0  0  0  0
    4.1547  -18.9220   22.4414 C   0  0  2  0  0  0  0  0  0  0  0  0
    4.4356  -19.9150   23.4294 N   0  0  0  0  0  0  0  0  0  0  0  0
    4.8504  -17.6643   22.8000 C   0  0  0  0  0  0  0  0  0  0  0  0
    4.6817  -16.6390   22.1050 O   0  0  0  0  0  0  0  0  0  0  0  0
    5.7152  -17.5685   23.9162 N   0  0  0  0  0  0  0  0  0  0  0  0
    6.4315  -16.3659   24.2886 C   0  0  1  0  0  0  0  0  0  0  0  0
    6.5143  -16.3270   25.7890 C   0  0  0  0  0  0  0  0  0  0  0  0
    6.8872  -14.9889   26.2952 C   0  0  0  0  0  0  0  0  0  0  0  0
    6.0110  -13.9203   26.3222 C   0  0  0  0  0  0  0  0  0  0  0  0
    6.4190  -12.6979   26.8067 C   0  0  0  0  0  0  0  0  0  0  0  0
    7.6990  -12.5211   27.2691 C   0  0  0  0  0  0  0  0  0  0  0  0
    8.5684  -13.5816   27.2418 C   0  0  0  0  0  0  0  0  0  0  0  0
    8.1720  -14.8094   26.7600 C   0  0  0  0  0  0  0  0  0  0  0  0
    7.7997  -16.3308   23.6717 C   0  0  0  0  0  0  0  0  0  0  0  0
    8.4974  -17.3694   23.5576 O   0  0  0  0  0  0  0  0  0  0  0  0
    8.3699  -11.6435   20.7256 C   0  0  0  0  0  0  0  0  0  0  0  0
    8.3171  -13.0765   21.1590 C   0  0  1  0  0  0  0  0  0  0  0  0
    7.7901  -13.8846   19.9884 C   0  0  0  0  0  0  0  0  0  0  0  0
    9.4871  -13.6496   21.8169 C   0  0  0  0  0  0  0  0  0  0  0  0
    9.5061  -14.9890   22.4016 C   0  0  2  0  0  0  0  0  0  0  0  0
    8.2725  -15.0855   23.2238 N   0  0  0  0  0  0  0  0  0  0  0  0
   10.6559  -15.4751   23.1286 C   0  0  0  0  0  0  0  0  0  0  0  0
   11.8080  -15.6490   22.5686 O   0  0  0  0  0  0  0  0  0  0  0  0
   10.6866  -15.8045   24.4741 O   0  0  0  0  0  0  0  0  0  0  0  0
  2  3  1  6
  2  1  1  0
  4  2  1  0
  5  4  1  0
  5  6  1  1
  7  8  2  0
  7  5  1  0
  9  7  1  0
 10  9  1  0
 11 12  1  0
 10 11  1  1
 12 17  2  0
 12 13  1  0
 13 14  2  0
 14 15  1  0
 16 15  2  0
 17 16  1  0
 18 10  1  0
 18 19  2  0
 21 23  1  0
 21 20  1  6
 22 21  1  0
 24 25  1  0
 24 23  1  1
 25 18  1  0
 26 24  1  0
 27 26  2  0
 28 26  1  0
M  END
$$$$
