LFL.pdb
     RDKit          3D

 28 28  0  0  1  0  0  0  0  0999 V2000
   11.5898  -18.1319   17.0647 C   0  0  0  0  0  0  0  0  0  0  0  0
   11.0093  -18.5650   18.3895 C   0  0  1  0  0  0  0  0  0  0  0  0
   11.7135  -19.7710   18.9399 C   0  0  0  0  0  0  0  0  0  0  0  0
   10.8801  -17.4269   19.3591 C   0  0  0  0  0  0  0  0  0  0  0  0
   10.3602  -17.8797   20.7064 C   0  0  2  0  0  0  0  0  0  0  0  0
    9.1122  -18.5729   20.6505 N   0  0  0  0  0  0  0  0  0  0  0  0
   10.2254  -16.6996   21.5916 C   0  0  0  0  0  0  0  0  0  0  0  0
   11.2005  -15.9371   21.7661 O   0  0  0  0  0  0  0  0  0  0  0  0
    9.0185  -16.3897   22.2627 N   0  0  0  0  0  0  0  0  0  0  0  0
    8.8340  -15.2290   23.1092 C   0  0  1  0  0  0  0  0  0  0  0  0
    7.3859  -15.1781   23.5092 C   0  0  0  0  0  0  0  0  0  0  0  0
    7.1024  -14.0717   24.4479 C   0  0  0  0  0  0  0  0  0  0  0  0
    7.5932  -12.7910   24.2766 C   0  0  0  0  0  0  0  0  0  0  0  0
    7.2926  -11.8029   25.1870 C   0  0  0  0  0  0  0  0  0  0  0  0
    6.5031  -12.0730   26.2766 C   0  0  0  0  0  0  0  0  0  0  0  0
    6.0165  -13.3440   26.4466 C   0  0  0  0  0  0  0  0  0  0  0  0
    6.3097  -14.3409   25.5426 C   0  0  0  0  0  0  0  0  0  0  0  0
    9.7254  -15.2845   24.3158 C   0  0  0  0  0  0  0  0  0  0  0  0
   10.6610  -14.4623   24.4816 O   0  0  0  0  0  0  0  0  0  0  0  0
    9.4501  -13.0484   28.7608 C   0  0  0  0  0  0  0  0  0  0  0  0
   10.1823  -14.2211   28.1839 C   0  0  1  0  0  0  0  0  0  0  0  0
   10.9118  -14.9053   29.3243 C   0  0  0  0  0  0  0  0  0  0  0  0
    9.4603  -15.1247   27.2938 C   0  0  0  0  0  0  0  0  0  0  0  0
   10.0893  -16.2521   26.6085 C   0  0  2  0  0  0  0  0  0  0  0  0
    9.4721  -16.2959   25.2579 N   0  0  0  0  0  0  0  0  0  0  0  0
   10.1293  -17.5668   27.2059 C   0  0  0  0  0  0  0  0  0  0  0  0
   11.1940  -18.0436   27.7629 O   0  0  0  0  0  0  0  0  0  0  0  0
    9.0744  -18.4630   27.2685 O   0  0  0  0  0  0  0  0  0  0  0  0
  2  3  1  1
  2  1  1  0
  4  2  1  0
  5  4  1  0
  5  6  1  6
  7  8  2  0
  7  5  1  0
  9  7  1  0
 10  9  1  0
 11 12  1  0
 10 11  1  1
 12 17  2  0
 12 13  1  0
 13 14  2  0
 14 15  1  0
 16 15  2  0
 17 16  1  0
 18 10  1  0
 18 19  2  0
 21 23  1  0
 21 20  1  1
 22 21  1  0
 24 25  1  0
 24 23  1  1
 25 18  1  0
 26 24  1  0
 27 26  2  0
 28 26  1  0
M  END
$$$$
