LFL.pdb
     RDKit          3D

 28 28  0  0  1  0  0  0  0  0999 V2000
    9.1736  -19.4354   16.8620 C   0  0  0  0  0  0  0  0  0  0  0  0
    9.0869  -19.4874   18.3685 C   0  0  1  0  0  0  0  0  0  0  0  0
    9.8262  -20.6671   18.9298 C   0  0  0  0  0  0  0  0  0  0  0  0
    9.4357  -18.1759   19.0091 C   0  0  0  0  0  0  0  0  0  0  0  0
    9.3583  -18.2385   20.5193 C   0  0  2  0  0  0  0  0  0  0  0  0
    8.0872  -18.6511   21.0245 N   0  0  0  0  0  0  0  0  0  0  0  0
    9.6970  -16.9075   21.0742 C   0  0  0  0  0  0  0  0  0  0  0  0
   10.7782  -16.3609   20.7662 O   0  0  0  0  0  0  0  0  0  0  0  0
    8.8349  -16.2122   21.9553 N   0  0  0  0  0  0  0  0  0  0  0  0
    9.1372  -14.9211   22.5379 C   0  0  1  0  0  0  0  0  0  0  0  0
    7.9253  -14.0474   22.3721 C   0  0  0  0  0  0  0  0  0  0  0  0
    7.6502  -13.7339   20.9537 C   0  0  0  0  0  0  0  0  0  0  0  0
    6.8388  -14.5137   20.1513 C   0  0  0  0  0  0  0  0  0  0  0  0
    6.6212  -14.1678   18.8365 C   0  0  0  0  0  0  0  0  0  0  0  0
    7.2051  -13.0464   18.3029 C   0  0  0  0  0  0  0  0  0  0  0  0
    8.0106  -12.2730   19.0993 C   0  0  0  0  0  0  0  0  0  0  0  0
    8.2356  -12.6082   20.4161 C   0  0  0  0  0  0  0  0  0  0  0  0
    9.5163  -15.0490   23.9849 C   0  0  0  0  0  0  0  0  0  0  0  0
   10.6540  -14.7140   24.3996 O   0  0  0  0  0  0  0  0  0  0  0  0
    6.0800  -12.7117   26.9547 C   0  0  0  0  0  0  0  0  0  0  0  0
    7.4031  -13.3210   26.6048 C   0  0  1  0  0  0  0  0  0  0  0  0
    8.4817  -12.4213   27.1778 C   0  0  0  0  0  0  0  0  0  0  0  0
    7.6025  -14.7452   26.8537 C   0  0  0  0  0  0  0  0  0  0  0  0
    8.7404  -15.5013   26.3340 C   0  0  2  0  0  0  0  0  0  0  0  0
    8.5450  -15.5599   24.8625 N   0  0  0  0  0  0  0  0  0  0  0  0
    9.0856  -16.7993   26.8658 C   0  0  0  0  0  0  0  0  0  0  0  0
    9.3225  -16.9939   28.1216 O   0  0  0  0  0  0  0  0  0  0  0  0
    9.2013  -17.9715   26.1361 O   0  0  0  0  0  0  0  0  0  0  0  0
  2  3  1  1
  2  1  1  0
  4  2  1  0
  5  4  1  0
  5  6  1  6
  7  8  2  0
  7  5  1  0
  9  7  1  0
 10  9  1  0
 11 12  1  0
 10 11  1  1
 12 17  2  0
 12 13  1  0
 13 14  2  0
 14 15  1  0
 16 15  2  0
 17 16  1  0
 18 10  1  0
 18 19  2  0
 21 23  1  0
 21 20  1  1
 22 21  1  0
 24 25  1  0
 24 23  1  1
 25 18  1  0
 26 24  1  0
 27 26  2  0
 28 26  1  0
M  END
$$$$
