LFL.pdb
     RDKit          3D

 28 28  0  0  1  0  0  0  0  0999 V2000
   11.3265  -21.5479   21.0256 C   0  0  0  0  0  0  0  0  0  0  0  0
   11.0863  -20.2185   20.3513 C   0  0  1  0  0  0  0  0  0  0  0  0
    9.8244  -20.2250   19.5383 C   0  0  0  0  0  0  0  0  0  0  0  0
   11.2049  -19.0630   21.3016 C   0  0  0  0  0  0  0  0  0  0  0  0
   10.7413  -17.7626   20.6815 C   0  0  2  0  0  0  0  0  0  0  0  0
   11.6572  -17.2035   19.7383 N   0  0  0  0  0  0  0  0  0  0  0  0
   10.4875  -16.7789   21.7596 C   0  0  0  0  0  0  0  0  0  0  0  0
   11.4291  -16.0904   22.2091 O   0  0  0  0  0  0  0  0  0  0  0  0
    9.2014  -16.5789   22.3154 N   0  0  0  0  0  0  0  0  0  0  0  0
    8.9362  -15.7497   23.4730 C   0  0  1  0  0  0  0  0  0  0  0  0
    7.5066  -15.2921   23.3921 C   0  0  0  0  0  0  0  0  0  0  0  0
    7.1720  -14.3103   24.4456 C   0  0  0  0  0  0  0  0  0  0  0  0
    6.4529  -14.6353   25.5803 C   0  0  0  0  0  0  0  0  0  0  0  0
    6.1736  -13.6747   26.5261 C   0  0  0  0  0  0  0  0  0  0  0  0
    6.6032  -12.3822   26.3578 C   0  0  0  0  0  0  0  0  0  0  0  0
    7.3164  -12.0598   25.2315 C   0  0  0  0  0  0  0  0  0  0  0  0
    7.6026  -13.0119   24.2784 C   0  0  0  0  0  0  0  0  0  0  0  0
    9.1924  -16.4955   24.7505 C   0  0  0  0  0  0  0  0  0  0  0  0
    8.6731  -17.6176   24.9734 O   0  0  0  0  0  0  0  0  0  0  0  0
   10.6002  -13.1699   28.8098 C   0  0  0  0  0  0  0  0  0  0  0  0
   10.7970  -14.1712   27.7130 C   0  0  1  0  0  0  0  0  0  0  0  0
   12.1795  -13.9413   27.1326 C   0  0  0  0  0  0  0  0  0  0  0  0
   10.4728  -15.5692   27.9787 C   0  0  0  0  0  0  0  0  0  0  0  0
   10.4266  -16.5961   26.9396 C   0  0  2  0  0  0  0  0  0  0  0  0
   10.0402  -15.8877   25.6922 N   0  0  0  0  0  0  0  0  0  0  0  0
    9.6553  -17.8053   27.1122 C   0  0  0  0  0  0  0  0  0  0  0  0
    9.9439  -18.6900   28.0095 O   0  0  0  0  0  0  0  0  0  0  0  0
    8.5403  -18.1698   26.3748 O   0  0  0  0  0  0  0  0  0  0  0  0
  2  3  1  1
  2  1  1  0
  4  2  1  0
  5  4  1  0
  5  6  1  6
  7  8  2  0
  7  5  1  0
  9  7  1  0
 10  9  1  0
 11 12  1  0
 10 11  1  1
 12 17  2  0
 12 13  1  0
 13 14  2  0
 14 15  1  0
 16 15  2  0
 17 16  1  0
 18 10  1  0
 18 19  2  0
 21 23  1  0
 21 20  1  1
 22 21  1  0
 24 25  1  0
 24 23  1  1
 25 18  1  0
 26 24  1  0
 27 26  2  0
 28 26  1  0
M  END
$$$$
