LFL.pdb
     RDKit          3D

 28 28  0  0  1  0  0  0  0  0999 V2000
    8.0165  -20.8238   19.7107 C   0  0  0  0  0  0  0  0  0  0  0  0
    8.0687  -19.3709   19.3033 C   0  0  1  0  0  0  0  0  0  0  0  0
    6.7921  -18.9284   18.6491 C   0  0  0  0  0  0  0  0  0  0  0  0
    8.5358  -18.4790   20.4163 C   0  0  0  0  0  0  0  0  0  0  0  0
    8.4800  -17.0148   20.0375 C   0  0  2  0  0  0  0  0  0  0  0  0
    9.3345  -16.6577   18.9496 N   0  0  0  0  0  0  0  0  0  0  0  0
    8.8289  -16.1975   21.2226 C   0  0  0  0  0  0  0  0  0  0  0  0
   10.0267  -16.0561   21.5512 O   0  0  0  0  0  0  0  0  0  0  0  0
    7.8481  -15.5563   22.0162 N   0  0  0  0  0  0  0  0  0  0  0  0
    8.1227  -14.9093   23.2826 C   0  0  1  0  0  0  0  0  0  0  0  0
    6.9088  -14.1079   23.6616 C   0  0  0  0  0  0  0  0  0  0  0  0
    7.0826  -13.4023   24.9490 C   0  0  0  0  0  0  0  0  0  0  0  0
    7.9203  -12.3143   25.1072 C   0  0  0  0  0  0  0  0  0  0  0  0
    8.0385  -11.6995   26.3333 C   0  0  0  0  0  0  0  0  0  0  0  0
    7.3287  -12.1559   27.4156 C   0  0  0  0  0  0  0  0  0  0  0  0
    6.4978  -13.2358   27.2585 C   0  0  0  0  0  0  0  0  0  0  0  0
    6.3706  -13.8590   26.0369 C   0  0  0  0  0  0  0  0  0  0  0  0
    8.4612  -15.9121   24.3473 C   0  0  0  0  0  0  0  0  0  0  0  0
    7.7258  -16.9053   24.5742 O   0  0  0  0  0  0  0  0  0  0  0  0
   13.3570  -18.7922   24.5979 C   0  0  0  0  0  0  0  0  0  0  0  0
   12.2239  -18.3924   25.4926 C   0  0  1  0  0  0  0  0  0  0  0  0
   12.7678  -18.3184   26.9067 C   0  0  0  0  0  0  0  0  0  0  0  0
   11.3919  -17.2593   25.1001 C   0  0  0  0  0  0  0  0  0  0  0  0
   10.2494  -16.7909   25.8821 C   0  0  2  0  0  0  0  0  0  0  0  0
    9.6383  -15.6969   25.0841 N   0  0  0  0  0  0  0  0  0  0  0  0
   10.3937  -16.4072   27.2673 C   0  0  0  0  0  0  0  0  0  0  0  0
   10.4219  -17.2723   28.2275 O   0  0  0  0  0  0  0  0  0  0  0  0
   10.5226  -15.1120   27.7423 O   0  0  0  0  0  0  0  0  0  0  0  0
  2  3  1  1
  2  1  1  0
  4  2  1  0
  5  4  1  0
  5  6  1  6
  7  8  2  0
  7  5  1  0
  9  7  1  0
 10  9  1  0
 11 12  1  0
 10 11  1  1
 12 17  2  0
 12 13  1  0
 13 14  2  0
 14 15  1  0
 16 15  2  0
 17 16  1  0
 18 10  1  0
 18 19  2  0
 21 23  1  0
 21 20  1  6
 22 21  1  0
 24 25  1  0
 24 23  1  6
 25 18  1  0
 26 24  1  0
 27 26  2  0
 28 26  1  0
M  END
$$$$
