LFL.pdb
     RDKit          3D

 28 28  0  0  1  0  0  0  0  0999 V2000
    9.3295  -19.6938   17.9965 C   0  0  0  0  0  0  0  0  0  0  0  0
   10.6478  -18.9891   18.2092 C   0  0  1  0  0  0  0  0  0  0  0  0
   11.3698  -18.7530   16.9144 C   0  0  0  0  0  0  0  0  0  0  0  0
   10.5141  -17.7706   19.0750 C   0  0  0  0  0  0  0  0  0  0  0  0
   10.1851  -18.1219   20.5099 C   0  0  2  0  0  0  0  0  0  0  0  0
    8.9955  -18.8976   20.6656 N   0  0  0  0  0  0  0  0  0  0  0  0
   10.0606  -16.8719   21.2950 C   0  0  0  0  0  0  0  0  0  0  0  0
   10.9504  -15.9971   21.2189 O   0  0  0  0  0  0  0  0  0  0  0  0
    8.9578  -16.6175   22.1447 N   0  0  0  0  0  0  0  0  0  0  0  0
    8.8418  -15.4543   22.9999 C   0  0  1  0  0  0  0  0  0  0  0  0
    7.4271  -15.3946   23.5044 C   0  0  0  0  0  0  0  0  0  0  0  0
    7.1912  -14.2225   24.3741 C   0  0  0  0  0  0  0  0  0  0  0  0
    7.6424  -12.9523   24.0687 C   0  0  0  0  0  0  0  0  0  0  0  0
    7.3897  -11.9005   24.9205 C   0  0  0  0  0  0  0  0  0  0  0  0
    6.6880  -12.0960   26.0836 C   0  0  0  0  0  0  0  0  0  0  0  0
    6.2408  -13.3567   26.3866 C   0  0  0  0  0  0  0  0  0  0  0  0
    6.4867  -14.4168   25.5424 C   0  0  0  0  0  0  0  0  0  0  0  0
    9.8187  -15.5127   24.1384 C   0  0  0  0  0  0  0  0  0  0  0  0
   10.7846  -14.7132   24.2188 O   0  0  0  0  0  0  0  0  0  0  0  0
   11.1938  -13.6515   28.4494 C   0  0  0  0  0  0  0  0  0  0  0  0
   10.2295  -14.7971   28.4077 C   0  0  1  0  0  0  0  0  0  0  0  0
    9.1305  -14.5007   29.4105 C   0  0  0  0  0  0  0  0  0  0  0  0
    9.7580  -15.2648   27.1081 C   0  0  0  0  0  0  0  0  0  0  0  0
   10.3071  -16.4354   26.4265 C   0  0  2  0  0  0  0  0  0  0  0  0
    9.6102  -16.5003   25.1161 N   0  0  0  0  0  0  0  0  0  0  0  0
   10.3376  -17.7309   27.0650 C   0  0  0  0  0  0  0  0  0  0  0  0
   11.3048  -18.1001   27.8392 O   0  0  0  0  0  0  0  0  0  0  0  0
    9.3719  -18.7175   26.9472 O   0  0  0  0  0  0  0  0  0  0  0  0
  2  3  1  6
  2  1  1  0
  4  2  1  0
  5  4  1  0
  5  6  1  6
  7  8  2  0
  7  5  1  0
  9  7  1  0
 10  9  1  0
 11 12  1  0
 10 11  1  1
 12 17  2  0
 12 13  1  0
 13 14  2  0
 14 15  1  0
 16 15  2  0
 17 16  1  0
 18 10  1  0
 18 19  2  0
 21 23  1  0
 21 20  1  6
 22 21  1  0
 24 25  1  0
 24 23  1  1
 25 18  1  0
 26 24  1  0
 27 26  2  0
 28 26  1  0
M  END
$$$$
