LFL.pdb
     RDKit          3D

 28 28  0  0  1  0  0  0  0  0999 V2000
    9.8490  -21.2734   20.2418 C   0  0  0  0  0  0  0  0  0  0  0  0
    9.3373  -19.9266   19.7900 C   0  0  1  0  0  0  0  0  0  0  0  0
    7.8642  -19.9568   19.5032 C   0  0  0  0  0  0  0  0  0  0  0  0
    9.7685  -18.8140   20.7001 C   0  0  0  0  0  0  0  0  0  0  0  0
    9.1277  -17.4932   20.3320 C   0  0  2  0  0  0  0  0  0  0  0  0
    9.6292  -16.9142   19.1260 N   0  0  0  0  0  0  0  0  0  0  0  0
    9.3170  -16.5386   21.4489 C   0  0  0  0  0  0  0  0  0  0  0  0
   10.4219  -15.9757   21.6068 O   0  0  0  0  0  0  0  0  0  0  0  0
    8.2830  -16.2285   22.3640 N   0  0  0  0  0  0  0  0  0  0  0  0
    8.4399  -15.3405   23.4975 C   0  0  1  0  0  0  0  0  0  0  0  0
    7.0948  -14.7425   23.8019 C   0  0  0  0  0  0  0  0  0  0  0  0
    7.1580  -13.7473   24.8934 C   0  0  0  0  0  0  0  0  0  0  0  0
    7.6764  -12.4767   24.7281 C   0  0  0  0  0  0  0  0  0  0  0  0
    7.7068  -11.5946   25.7847 C   0  0  0  0  0  0  0  0  0  0  0  0
    7.2246  -11.9618   27.0160 C   0  0  0  0  0  0  0  0  0  0  0  0
    6.7106  -13.2229   27.1798 C   0  0  0  0  0  0  0  0  0  0  0  0
    6.6742  -14.1141   26.1304 C   0  0  0  0  0  0  0  0  0  0  0  0
    8.9896  -16.0678   24.6903 C   0  0  0  0  0  0  0  0  0  0  0  0
    8.4288  -17.0928   25.1524 O   0  0  0  0  0  0  0  0  0  0  0  0
   14.3747  -16.0566   24.7090 C   0  0  0  0  0  0  0  0  0  0  0  0
   12.9340  -16.4283   24.8830 C   0  0  1  0  0  0  0  0  0  0  0  0
   12.7844  -17.8752   24.4529 C   0  0  0  0  0  0  0  0  0  0  0  0
   12.2754  -16.0962   26.1424 C   0  0  0  0  0  0  0  0  0  0  0  0
   10.8444  -16.2809   26.3753 C   0  0  2  0  0  0  0  0  0  0  0  0
   10.1615  -15.5561   25.2730 N   0  0  0  0  0  0  0  0  0  0  0  0
   10.2450  -15.9707   27.6526 C   0  0  0  0  0  0  0  0  0  0  0  0
   10.4813  -16.6654   28.7169 O   0  0  0  0  0  0  0  0  0  0  0  0
    9.3728  -14.9248   27.9080 O   0  0  0  0  0  0  0  0  0  0  0  0
  2  3  1  1
  2  1  1  0
  4  2  1  0
  5  4  1  0
  5  6  1  6
  7  8  2  0
  7  5  1  0
  9  7  1  0
 10  9  1  0
 11 12  1  0
 10 11  1  1
 12 17  2  0
 12 13  1  0
 13 14  2  0
 14 15  1  0
 16 15  2  0
 17 16  1  0
 18 10  1  0
 18 19  2  0
 21 23  1  0
 21 20  1  1
 22 21  1  0
 24 25  1  0
 24 23  1  1
 25 18  1  0
 26 24  1  0
 27 26  2  0
 28 26  1  0
M  END
$$$$
