LFL.pdb
     RDKit          3D

 28 28  0  0  1  0  0  0  0  0999 V2000
   10.1894  -17.7140   17.1440 C   0  0  0  0  0  0  0  0  0  0  0  0
    9.7904  -18.2957   18.4790 C   0  0  1  0  0  0  0  0  0  0  0  0
   10.4616  -19.6136   18.7365 C   0  0  0  0  0  0  0  0  0  0  0  0
    9.9205  -17.3051   19.5988 C   0  0  0  0  0  0  0  0  0  0  0  0
    9.4854  -17.8839   20.9278 C   0  0  2  0  0  0  0  0  0  0  0  0
    8.1634  -18.4257   20.9267 N   0  0  0  0  0  0  0  0  0  0  0  0
    9.5822  -16.8316   21.9658 C   0  0  0  0  0  0  0  0  0  0  0  0
   10.6166  -16.1349   22.0522 O   0  0  0  0  0  0  0  0  0  0  0  0
    8.5359  -16.5736   22.8832 N   0  0  0  0  0  0  0  0  0  0  0  0
    8.6253  -15.6225   23.9718 C   0  0  1  0  0  0  0  0  0  0  0  0
    7.2368  -15.1248   24.2619 C   0  0  0  0  0  0  0  0  0  0  0  0
    7.2276  -14.0491   25.2761 C   0  0  0  0  0  0  0  0  0  0  0  0
    7.2647  -14.2928   26.6361 C   0  0  0  0  0  0  0  0  0  0  0  0
    7.2541  -13.2466   27.5311 C   0  0  0  0  0  0  0  0  0  0  0  0
    7.2063  -11.9485   27.0885 C   0  0  0  0  0  0  0  0  0  0  0  0
    7.1690  -11.7070   25.7388 C   0  0  0  0  0  0  0  0  0  0  0  0
    7.1797  -12.7450   24.8336 C   0  0  0  0  0  0  0  0  0  0  0  0
    9.2418  -16.2435   25.1917 C   0  0  0  0  0  0  0  0  0  0  0  0
    8.8716  -17.3661   25.6176 O   0  0  0  0  0  0  0  0  0  0  0  0
   14.5147  -15.1861   25.2738 C   0  0  0  0  0  0  0  0  0  0  0  0
   13.1961  -15.8761   25.4448 C   0  0  1  0  0  0  0  0  0  0  0  0
   13.3987  -17.3358   25.0852 C   0  0  0  0  0  0  0  0  0  0  0  0
   12.4458  -15.6510   26.6763 C   0  0  0  0  0  0  0  0  0  0  0  0
   11.0897  -16.1504   26.8951 C   0  0  2  0  0  0  0  0  0  0  0  0
   10.2542  -15.5178   25.8423 N   0  0  0  0  0  0  0  0  0  0  0  0
   10.4548  -16.0579   28.1895 C   0  0  0  0  0  0  0  0  0  0  0  0
   10.9104  -16.6732   29.2312 O   0  0  0  0  0  0  0  0  0  0  0  0
    9.3185  -15.3228   28.4862 O   0  0  0  0  0  0  0  0  0  0  0  0
  2  3  1  1
  2  1  1  0
  4  2  1  0
  5  4  1  0
  5  6  1  6
  7  8  2  0
  7  5  1  0
  9  7  1  0
 10  9  1  0
 11 12  1  0
 10 11  1  1
 12 17  2  0
 12 13  1  0
 13 14  2  0
 14 15  1  0
 16 15  2  0
 17 16  1  0
 18 10  1  0
 18 19  2  0
 21 23  1  0
 21 20  1  1
 22 21  1  0
 24 25  1  0
 24 23  1  1
 25 18  1  0
 26 24  1  0
 27 26  2  0
 28 26  1  0
M  END
$$$$
