CFI.pdb
     RDKit          3D

 26 26  0  0  1  0  0  0  0  0999 V2000
   10.6150  -17.2763   19.0736 N   0  0  0  0  0  0  0  0  0  0  0  0
   10.0612  -17.6994   20.3452 C   0  0  1  0  0  0  0  0  0  0  0  0
   10.8505  -18.8292   20.9526 C   0  0  0  0  0  0  0  0  0  0  0  0
    9.9501  -19.6944   22.2414 S   0  0  0  0  0  0  0  0  0  0  0  0
   10.0733  -16.5604   21.3045 C   0  0  0  0  0  0  0  0  0  0  0  0
   11.0335  -15.7564   21.3293 O   0  0  0  0  0  0  0  0  0  0  0  0
    9.0099  -16.3746   22.1916 N   0  0  0  0  0  0  0  0  0  0  0  0
    8.9617  -15.2549   23.1655 C   0  0  1  0  0  0  0  0  0  0  0  0
    7.5264  -14.8354   23.1746 C   0  0  0  0  0  0  0  0  0  0  0  0
    7.1262  -13.9137   24.2472 C   0  0  0  0  0  0  0  0  0  0  0  0
    7.5779  -12.5897   24.2600 C   0  0  0  0  0  0  0  0  0  0  0  0
    7.2052  -11.7039   25.2300 C   0  0  0  0  0  0  0  0  0  0  0  0
    6.3537  -12.0873   26.2532 C   0  0  0  0  0  0  0  0  0  0  0  0
    5.8910  -13.3855   26.2689 C   0  0  0  0  0  0  0  0  0  0  0  0
    6.2822  -14.2594   25.2782 C   0  0  0  0  0  0  0  0  0  0  0  0
    9.4785  -15.7993   24.4275 C   0  0  0  0  0  0  0  0  0  0  0  0
    9.0618  -16.9364   24.8128 O   0  0  0  0  0  0  0  0  0  0  0  0
   10.5837  -13.6864   29.9092 C   0  0  0  0  0  0  0  0  0  0  0  0
   10.5732  -14.9629   29.0518 C   0  0  0  0  0  0  0  0  0  0  0  0
   10.1745  -14.6435   27.6567 C   0  0  2  0  0  0  0  0  0  0  0  0
    8.6977  -14.3863   27.5034 C   0  0  0  0  0  0  0  0  0  0  0  0
   10.6756  -15.6526   26.6452 C   0  0  2  0  0  0  0  0  0  0  0  0
   10.4177  -15.1962   25.2943 N   0  0  0  0  0  0  0  0  0  0  0  0
   10.2738  -17.0273   26.9110 C   0  0  0  0  0  0  0  0  0  0  0  0
   11.0254  -17.8156   27.5590 O   0  0  0  0  0  0  0  0  0  0  0  0
    9.0787  -17.5975   26.5034 O   0  0  0  0  0  0  0  0  0  0  0  0
  2  1  1  6
  2  3  1  0
  3  4  1  0
  5  2  1  0
  6  5  2  0
  7  5  1  0
  8  7  1  0
  8  9  1  1
  9 10  1  0
 10 15  2  0
 11 12  2  0
 11 10  1  0
 12 13  1  0
 13 14  2  0
 15 14  1  0
 16 23  1  0
 16  8  1  0
 17 16  2  0
 19 18  1  0
 20 22  1  0
 20 19  1  0
 20 21  1  1
 22 24  1  0
 22 23  1  6
 24 26  1  0
 25 24  2  0
M  END
$$$$
