CFI.pdb
     RDKit          3D

 26 26  0  0  1  0  0  0  0  0999 V2000
   11.1284  -16.8983   19.3147 N   0  0  0  0  0  0  0  0  0  0  0  0
   10.3180  -17.4503   20.3828 C   0  0  1  0  0  0  0  0  0  0  0  0
   10.8763  -18.7520   20.8951 C   0  0  0  0  0  0  0  0  0  0  0  0
   10.0550  -20.1860   20.1956 S   0  0  0  0  0  0  0  0  0  0  0  0
   10.2634  -16.4920   21.5214 C   0  0  0  0  0  0  0  0  0  0  0  0
   11.2461  -15.7632   21.7905 O   0  0  0  0  0  0  0  0  0  0  0  0
    9.1112  -16.3941   22.3059 N   0  0  0  0  0  0  0  0  0  0  0  0
    8.9574  -15.3871   23.3861 C   0  0  1  0  0  0  0  0  0  0  0  0
    7.5143  -14.9999   23.3268 C   0  0  0  0  0  0  0  0  0  0  0  0
    7.0591  -14.0341   24.3368 C   0  0  0  0  0  0  0  0  0  0  0  0
    6.2592  -14.4424   25.4095 C   0  0  0  0  0  0  0  0  0  0  0  0
    5.8398  -13.5733   26.3754 C   0  0  0  0  0  0  0  0  0  0  0  0
    6.1950  -12.2351   26.3301 C   0  0  0  0  0  0  0  0  0  0  0  0
    6.9827  -11.8012   25.2856 C   0  0  0  0  0  0  0  0  0  0  0  0
    7.3925  -12.6987   24.3239 C   0  0  0  0  0  0  0  0  0  0  0  0
    9.3921  -16.0540   24.6200 C   0  0  0  0  0  0  0  0  0  0  0  0
    9.1129  -17.2842   24.7747 O   0  0  0  0  0  0  0  0  0  0  0  0
   10.4368  -14.0146   29.9526 C   0  0  0  0  0  0  0  0  0  0  0  0
   10.1110  -14.3060   28.4782 C   0  0  0  0  0  0  0  0  0  0  0  0
   11.0938  -15.2663   27.9132 C   0  0  2  0  0  0  0  0  0  0  0  0
   12.3454  -14.6038   27.3983 C   0  0  0  0  0  0  0  0  0  0  0  0
   10.4928  -16.2033   26.8869 C   0  0  2  0  0  0  0  0  0  0  0  0
   10.1109  -15.4783   25.6918 N   0  0  0  0  0  0  0  0  0  0  0  0
    9.4691  -17.0981   27.4099 C   0  0  0  0  0  0  0  0  0  0  0  0
    9.7459  -17.9657   28.2914 O   0  0  0  0  0  0  0  0  0  0  0  0
    8.1400  -17.0977   27.0189 O   0  0  0  0  0  0  0  0  0  0  0  0
  2  1  1  6
  2  3  1  0
  3  4  1  0
  5  2  1  0
  6  5  2  0
  7  5  1  0
  8  7  1  0
  8  9  1  1
  9 10  1  0
 10 15  2  0
 11 12  2  0
 11 10  1  0
 12 13  1  0
 13 14  2  0
 15 14  1  0
 16 23  1  0
 16  8  1  0
 17 16  2  0
 19 18  1  0
 20 22  1  0
 20 19  1  0
 20 21  1  6
 22 24  1  0
 22 23  1  6
 24 26  1  0
 25 24  2  0
M  END
$$$$
