CFI.pdb
     RDKit          3D

 26 26  0  0  1  0  0  0  0  0999 V2000
   11.0399  -16.7991   19.1345 N   0  0  0  0  0  0  0  0  0  0  0  0
   10.5336  -17.4434   20.3307 C   0  0  1  0  0  0  0  0  0  0  0  0
   11.4624  -18.5223   20.8226 C   0  0  0  0  0  0  0  0  0  0  0  0
   10.7886  -19.4440   22.2072 S   0  0  0  0  0  0  0  0  0  0  0  0
   10.3783  -16.4377   21.4180 C   0  0  0  0  0  0  0  0  0  0  0  0
   11.2005  -15.5010   21.5440 O   0  0  0  0  0  0  0  0  0  0  0  0
    9.3097  -16.5273   22.3139 N   0  0  0  0  0  0  0  0  0  0  0  0
    9.0828  -15.5365   23.3962 C   0  0  1  0  0  0  0  0  0  0  0  0
    7.6125  -15.2680   23.3483 C   0  0  0  0  0  0  0  0  0  0  0  0
    7.1062  -14.2572   24.2874 C   0  0  0  0  0  0  0  0  0  0  0  0
    7.3442  -12.8956   24.0718 C   0  0  0  0  0  0  0  0  0  0  0  0
    6.8675  -11.9322   24.9138 C   0  0  0  0  0  0  0  0  0  0  0  0
    6.1194  -12.2703   26.0296 C   0  0  0  0  0  0  0  0  0  0  0  0
    5.8673  -13.6039   26.2700 C   0  0  0  0  0  0  0  0  0  0  0  0
    6.3599  -14.5562   25.4047 C   0  0  0  0  0  0  0  0  0  0  0  0
    9.5798  -16.1662   24.6261 C   0  0  0  0  0  0  0  0  0  0  0  0
    9.7225  -17.4289   24.6455 O   0  0  0  0  0  0  0  0  0  0  0  0
   10.3545  -13.0065   29.1448 C   0  0  0  0  0  0  0  0  0  0  0  0
   10.4751  -13.8650   27.8747 C   0  0  0  0  0  0  0  0  0  0  0  0
   10.3876  -15.3079   28.2177 C   0  0  2  0  0  0  0  0  0  0  0  0
   11.3878  -15.7337   29.2611 C   0  0  0  0  0  0  0  0  0  0  0  0
   10.4221  -16.2144   27.0053 C   0  0  2  0  0  0  0  0  0  0  0  0
    9.9353  -15.5190   25.8310 N   0  0  0  0  0  0  0  0  0  0  0  0
    9.8396  -17.5325   27.2180 C   0  0  0  0  0  0  0  0  0  0  0  0
    8.6049  -17.7420   27.0232 O   0  0  0  0  0  0  0  0  0  0  0  0
   10.5408  -18.6516   27.6367 O   0  0  0  0  0  0  0  0  0  0  0  0
  2  1  1  6
  2  3  1  0
  3  4  1  0
  5  2  1  0
  6  5  2  0
  7  5  1  0
  8  7  1  0
  8  9  1  1
  9 10  1  0
 10 15  2  0
 11 12  2  0
 11 10  1  0
 12 13  1  0
 13 14  2  0
 15 14  1  0
 16 23  1  0
 16  8  1  0
 17 16  2  0
 19 18  1  0
 20 22  1  0
 20 19  1  0
 20 21  1  1
 22 24  1  0
 22 23  1  6
 24 26  1  0
 25 24  2  0
M  END
$$$$
