CFI.pdb
     RDKit          3D

 26 26  0  0  1  0  0  0  0  0999 V2000
   11.5421  -17.0258   19.4157 N   0  0  0  0  0  0  0  0  0  0  0  0
   10.5731  -17.4966   20.3862 C   0  0  1  0  0  0  0  0  0  0  0  0
   10.9909  -18.8034   21.0075 C   0  0  0  0  0  0  0  0  0  0  0  0
   12.7727  -19.0077   21.0692 S   0  0  0  0  0  0  0  0  0  0  0  0
   10.4241  -16.4940   21.4773 C   0  0  0  0  0  0  0  0  0  0  0  0
   11.3210  -15.6466   21.6928 O   0  0  0  0  0  0  0  0  0  0  0  0
    9.2778  -16.4868   22.2764 N   0  0  0  0  0  0  0  0  0  0  0  0
    9.0033  -15.4263   23.2786 C   0  0  1  0  0  0  0  0  0  0  0  0
    7.5262  -15.2102   23.1917 C   0  0  0  0  0  0  0  0  0  0  0  0
    6.9667  -14.1837   24.0824 C   0  0  0  0  0  0  0  0  0  0  0  0
    7.1364  -12.8233   23.8037 C   0  0  0  0  0  0  0  0  0  0  0  0
    6.6093  -11.8470   24.5996 C   0  0  0  0  0  0  0  0  0  0  0  0
    5.8758  -12.1703   25.7294 C   0  0  0  0  0  0  0  0  0  0  0  0
    5.6905  -13.5022   26.0315 C   0  0  0  0  0  0  0  0  0  0  0  0
    6.2330  -14.4677   25.2119 C   0  0  0  0  0  0  0  0  0  0  0  0
    9.5009  -15.9464   24.5585 C   0  0  0  0  0  0  0  0  0  0  0  0
    9.6102  -17.2047   24.7000 O   0  0  0  0  0  0  0  0  0  0  0  0
   10.7590  -14.3760   30.4546 C   0  0  0  0  0  0  0  0  0  0  0  0
   11.1217  -15.2633   29.2523 C   0  0  0  0  0  0  0  0  0  0  0  0
   10.4532  -14.7641   28.0230 C   0  0  2  0  0  0  0  0  0  0  0  0
    9.0887  -14.1798   28.2825 C   0  0  0  0  0  0  0  0  0  0  0  0
   10.4231  -15.7822   26.9026 C   0  0  2  0  0  0  0  0  0  0  0  0
    9.8907  -15.1947   25.6898 N   0  0  0  0  0  0  0  0  0  0  0  0
    9.8371  -17.0654   27.2660 C   0  0  0  0  0  0  0  0  0  0  0  0
    8.6147  -17.3141   27.0418 O   0  0  0  0  0  0  0  0  0  0  0  0
   10.5218  -18.1081   27.8687 O   0  0  0  0  0  0  0  0  0  0  0  0
  2  1  1  6
  2  3  1  0
  3  4  1  0
  5  2  1  0
  6  5  2  0
  7  5  1  0
  8  7  1  0
  8  9  1  1
  9 10  1  0
 10 15  2  0
 11 12  2  0
 11 10  1  0
 12 13  1  0
 13 14  2  0
 15 14  1  0
 16 23  1  0
 16  8  1  0
 17 16  2  0
 19 18  1  0
 20 22  1  0
 20 19  1  0
 20 21  1  1
 22 24  1  0
 22 23  1  6
 24 26  1  0
 25 24  2  0
M  END
$$$$
