CFI.pdb
     RDKit          3D

 26 26  0  0  1  0  0  0  0  0999 V2000
   11.1292  -17.0696   19.2014 N   0  0  0  0  0  0  0  0  0  0  0  0
   10.4877  -17.6151   20.3817 C   0  0  1  0  0  0  0  0  0  0  0  0
   11.2762  -18.7542   20.9727 C   0  0  0  0  0  0  0  0  0  0  0  0
   10.8447  -20.3439   20.2606 S   0  0  0  0  0  0  0  0  0  0  0  0
   10.3583  -16.5560   21.4205 C   0  0  0  0  0  0  0  0  0  0  0  0
   11.2620  -15.7031   21.5791 O   0  0  0  0  0  0  0  0  0  0  0  0
    9.2233  -16.5008   22.2336 N   0  0  0  0  0  0  0  0  0  0  0  0
    9.0639  -15.5071   23.3251 C   0  0  1  0  0  0  0  0  0  0  0  0
    7.6091  -15.1621   23.3004 C   0  0  0  0  0  0  0  0  0  0  0  0
    7.1410  -14.2463   24.3504 C   0  0  0  0  0  0  0  0  0  0  0  0
    6.3610  -14.7138   25.4135 C   0  0  0  0  0  0  0  0  0  0  0  0
    5.9306  -13.8921   26.4154 C   0  0  0  0  0  0  0  0  0  0  0  0
    6.2540  -12.5451   26.4181 C   0  0  0  0  0  0  0  0  0  0  0  0
    7.0215  -12.0534   25.3842 C   0  0  0  0  0  0  0  0  0  0  0  0
    7.4430  -12.9039   24.3855 C   0  0  0  0  0  0  0  0  0  0  0  0
    9.5449  -16.1702   24.5438 C   0  0  0  0  0  0  0  0  0  0  0  0
    9.4603  -17.4361   24.6186 O   0  0  0  0  0  0  0  0  0  0  0  0
   10.5490  -13.6935   29.7554 C   0  0  0  0  0  0  0  0  0  0  0  0
    9.9384  -14.5993   28.6731 C   0  0  0  0  0  0  0  0  0  0  0  0
   11.0107  -15.3163   27.9361 C   0  0  2  0  0  0  0  0  0  0  0  0
   12.0639  -14.3972   27.3736 C   0  0  0  0  0  0  0  0  0  0  0  0
   10.4805  -16.2700   26.8863 C   0  0  2  0  0  0  0  0  0  0  0  0
   10.1138  -15.5539   25.6811 N   0  0  0  0  0  0  0  0  0  0  0  0
    9.4730  -17.2042   27.3702 C   0  0  0  0  0  0  0  0  0  0  0  0
    9.7768  -18.1374   28.1723 O   0  0  0  0  0  0  0  0  0  0  0  0
    8.1322  -17.1752   27.0230 O   0  0  0  0  0  0  0  0  0  0  0  0
  2  1  1  6
  2  3  1  0
  3  4  1  0
  5  2  1  0
  6  5  2  0
  7  5  1  0
  8  7  1  0
  8  9  1  1
  9 10  1  0
 10 15  2  0
 11 12  2  0
 11 10  1  0
 12 13  1  0
 13 14  2  0
 15 14  1  0
 16 23  1  0
 16  8  1  0
 17 16  2  0
 19 18  1  0
 20 22  1  0
 20 19  1  0
 20 21  1  6
 22 24  1  0
 22 23  1  6
 24 26  1  0
 25 24  2  0
M  END
$$$$
