CFI.pdb
     RDKit          3D

 26 26  0  0  1  0  0  0  0  0999 V2000
   11.4091  -16.9321   19.3958 N   0  0  0  0  0  0  0  0  0  0  0  0
   10.3194  -17.2865   20.2843 C   0  0  1  0  0  0  0  0  0  0  0  0
   10.4542  -18.6939   20.8035 C   0  0  0  0  0  0  0  0  0  0  0  0
   11.8782  -18.9084   21.8743 S   0  0  0  0  0  0  0  0  0  0  0  0
   10.3011  -16.3637   21.4530 C   0  0  0  0  0  0  0  0  0  0  0  0
   11.3030  -15.6653   21.7312 O   0  0  0  0  0  0  0  0  0  0  0  0
    9.1617  -16.2656   22.2560 N   0  0  0  0  0  0  0  0  0  0  0  0
    9.0362  -15.2761   23.3558 C   0  0  1  0  0  0  0  0  0  0  0  0
    7.6002  -14.8610   23.3166 C   0  0  0  0  0  0  0  0  0  0  0  0
    7.1641  -13.9311   24.3679 C   0  0  0  0  0  0  0  0  0  0  0  0
    6.3125  -14.3568   25.3929 C   0  0  0  0  0  0  0  0  0  0  0  0
    5.9086  -13.5226   26.3957 C   0  0  0  0  0  0  0  0  0  0  0  0
    6.3322  -12.2044   26.4374 C   0  0  0  0  0  0  0  0  0  0  0  0
    7.1721  -11.7542   25.4416 C   0  0  0  0  0  0  0  0  0  0  0  0
    7.5648  -12.6164   24.4412 C   0  0  0  0  0  0  0  0  0  0  0  0
    9.4689  -15.9737   24.5734 C   0  0  0  0  0  0  0  0  0  0  0  0
    9.3804  -17.2410   24.6096 O   0  0  0  0  0  0  0  0  0  0  0  0
    9.8306  -13.1583   29.2650 C   0  0  0  0  0  0  0  0  0  0  0  0
   10.1310  -13.8909   27.9467 C   0  0  0  0  0  0  0  0  0  0  0  0
   10.2073  -15.3566   28.1774 C   0  0  2  0  0  0  0  0  0  0  0  0
   11.1987  -15.7406   29.2453 C   0  0  0  0  0  0  0  0  0  0  0  0
   10.4165  -16.1523   26.9063 C   0  0  2  0  0  0  0  0  0  0  0  0
    9.9935  -15.3903   25.7487 N   0  0  0  0  0  0  0  0  0  0  0  0
    9.9094  -17.5170   26.9558 C   0  0  0  0  0  0  0  0  0  0  0  0
   10.6768  -18.4917   27.2157 O   0  0  0  0  0  0  0  0  0  0  0  0
    8.5914  -17.8822   26.7351 O   0  0  0  0  0  0  0  0  0  0  0  0
  2  1  1  6
  2  3  1  0
  3  4  1  0
  5  2  1  0
  6  5  2  0
  7  5  1  0
  8  7  1  0
  8  9  1  1
  9 10  1  0
 10 15  2  0
 11 12  2  0
 11 10  1  0
 12 13  1  0
 13 14  2  0
 15 14  1  0
 16 23  1  0
 16  8  1  0
 17 16  2  0
 19 18  1  0
 20 22  1  0
 20 19  1  0
 20 21  1  1
 22 24  1  0
 22 23  1  6
 24 26  1  0
 25 24  2  0
M  END
$$$$
