CFI.pdb
     RDKit          3D

 26 26  0  0  1  0  0  0  0  0999 V2000
   11.0857  -17.0292   19.4065 N   0  0  0  0  0  0  0  0  0  0  0  0
   10.0521  -17.4254   20.3429 C   0  0  1  0  0  0  0  0  0  0  0  0
   10.2925  -18.8072   20.8921 C   0  0  0  0  0  0  0  0  0  0  0  0
   11.7435  -18.8962   21.9442 S   0  0  0  0  0  0  0  0  0  0  0  0
   10.0169  -16.4738   21.4878 C   0  0  0  0  0  0  0  0  0  0  0  0
   11.0015  -15.7418   21.7404 O   0  0  0  0  0  0  0  0  0  0  0  0
    8.8810  -16.3859   22.2968 N   0  0  0  0  0  0  0  0  0  0  0  0
    8.7682  -15.4241   23.4223 C   0  0  1  0  0  0  0  0  0  0  0  0
    7.3181  -15.0603   23.4528 C   0  0  0  0  0  0  0  0  0  0  0  0
    6.9077  -14.1152   24.5009 C   0  0  0  0  0  0  0  0  0  0  0  0
    7.2551  -12.7624   24.4219 C   0  0  0  0  0  0  0  0  0  0  0  0
    6.8693  -11.8565   25.3679 C   0  0  0  0  0  0  0  0  0  0  0  0
    6.1083  -12.2473   26.4575 C   0  0  0  0  0  0  0  0  0  0  0  0
    5.7495  -13.5737   26.5642 C   0  0  0  0  0  0  0  0  0  0  0  0
    6.1518  -14.4675   25.5959 C   0  0  0  0  0  0  0  0  0  0  0  0
    9.2771  -16.1302   24.6050 C   0  0  0  0  0  0  0  0  0  0  0  0
    9.1688  -17.3957   24.6485 O   0  0  0  0  0  0  0  0  0  0  0  0
   10.5762  -13.7908   29.7954 C   0  0  0  0  0  0  0  0  0  0  0  0
    9.8993  -14.6670   28.7282 C   0  0  0  0  0  0  0  0  0  0  0  0
   10.9217  -15.4084   27.9458 C   0  0  2  0  0  0  0  0  0  0  0  0
   11.9926  -14.5180   27.3706 C   0  0  0  0  0  0  0  0  0  0  0  0
   10.3255  -16.3194   26.8936 C   0  0  2  0  0  0  0  0  0  0  0  0
    9.8975  -15.5571   25.7379 N   0  0  0  0  0  0  0  0  0  0  0  0
    9.3391  -17.2645   27.3994 C   0  0  0  0  0  0  0  0  0  0  0  0
    8.1033  -17.1099   27.1642 O   0  0  0  0  0  0  0  0  0  0  0  0
    9.6312  -18.3863   28.1581 O   0  0  0  0  0  0  0  0  0  0  0  0
  2  1  1  6
  2  3  1  0
  3  4  1  0
  5  2  1  0
  6  5  2  0
  7  5  1  0
  8  7  1  0
  8  9  1  1
  9 10  1  0
 10 15  2  0
 11 12  2  0
 11 10  1  0
 12 13  1  0
 13 14  2  0
 15 14  1  0
 16 23  1  0
 16  8  1  0
 17 16  2  0
 19 18  1  0
 20 22  1  0
 20 19  1  0
 20 21  1  6
 22 24  1  0
 22 23  1  6
 24 26  1  0
 25 24  2  0
M  END
$$$$
