CFI.pdb
     RDKit          3D

 26 26  0  0  1  0  0  0  0  0999 V2000
   10.4154  -16.4904   19.4005 N   0  0  0  0  0  0  0  0  0  0  0  0
    9.2743  -16.6758   20.2757 C   0  0  1  0  0  0  0  0  0  0  0  0
    9.0221  -18.1317   20.5676 C   0  0  0  0  0  0  0  0  0  0  0  0
   10.4270  -18.9421   21.3357 S   0  0  0  0  0  0  0  0  0  0  0  0
    9.5137  -15.9806   21.5707 C   0  0  0  0  0  0  0  0  0  0  0  0
   10.6701  -15.6355   21.9062 O   0  0  0  0  0  0  0  0  0  0  0  0
    8.4471  -15.7039   22.4300 N   0  0  0  0  0  0  0  0  0  0  0  0
    8.5968  -14.8849   23.6593 C   0  0  1  0  0  0  0  0  0  0  0  0
    7.2218  -14.3593   23.9222 C   0  0  0  0  0  0  0  0  0  0  0  0
    7.0651  -13.5205   25.1188 C   0  0  0  0  0  0  0  0  0  0  0  0
    6.3517  -13.9831   26.2298 C   0  0  0  0  0  0  0  0  0  0  0  0
    6.2083  -13.2363   27.3639 C   0  0  0  0  0  0  0  0  0  0  0  0
    6.7715  -11.9743   27.4597 C   0  0  0  0  0  0  0  0  0  0  0  0
    7.4808  -11.4897   26.3818 C   0  0  0  0  0  0  0  0  0  0  0  0
    7.6105  -12.2635   25.2492 C   0  0  0  0  0  0  0  0  0  0  0  0
    9.1432  -15.7893   24.6790 C   0  0  0  0  0  0  0  0  0  0  0  0
    8.6614  -16.9618   24.7700 O   0  0  0  0  0  0  0  0  0  0  0  0
   14.2165  -16.5240   24.6786 C   0  0  0  0  0  0  0  0  0  0  0  0
   12.6845  -16.5418   24.8104 C   0  0  0  0  0  0  0  0  0  0  0  0
   12.2904  -16.5420   26.2429 C   0  0  2  0  0  0  0  0  0  0  0  0
   12.9396  -17.6443   27.0391 C   0  0  0  0  0  0  0  0  0  0  0  0
   10.7910  -16.5087   26.4510 C   0  0  2  0  0  0  0  0  0  0  0  0
   10.1772  -15.5088   25.6005 N   0  0  0  0  0  0  0  0  0  0  0  0
   10.3741  -16.4610   27.8459 C   0  0  0  0  0  0  0  0  0  0  0  0
   10.6193  -17.4214   28.6358 O   0  0  0  0  0  0  0  0  0  0  0  0
    9.6952  -15.4071   28.4355 O   0  0  0  0  0  0  0  0  0  0  0  0
  2  1  1  6
  2  3  1  0
  3  4  1  0
  5  2  1  0
  6  5  2  0
  7  5  1  0
  8  7  1  0
  8  9  1  1
  9 10  1  0
 10 15  2  0
 11 12  2  0
 11 10  1  0
 12 13  1  0
 13 14  2  0
 15 14  1  0
 16 23  1  0
 16  8  1  0
 17 16  2  0
 19 18  1  0
 20 22  1  0
 20 19  1  0
 20 21  1  6
 22 24  1  0
 22 23  1  6
 24 26  1  0
 25 24  2  0
M  END
$$$$
