CFI.pdb
     RDKit          3D

 26 26  0  0  1  0  0  0  0  0999 V2000
    4.0792  -20.2181   23.4187 N   0  0  0  0  0  0  0  0  0  0  0  0
    5.3466  -19.8410   24.0135 C   0  0  1  0  0  0  0  0  0  0  0  0
    6.5002  -20.5866   23.3956 C   0  0  0  0  0  0  0  0  0  0  0  0
    8.0326  -20.3780   24.3059 S   0  0  0  0  0  0  0  0  0  0  0  0
    5.5817  -18.3835   23.8179 C   0  0  0  0  0  0  0  0  0  0  0  0
    5.2554  -17.8220   22.7467 O   0  0  0  0  0  0  0  0  0  0  0  0
    6.1713  -17.6224   24.8306 N   0  0  0  0  0  0  0  0  0  0  0  0
    6.4322  -16.1671   24.6940 C   0  0  1  0  0  0  0  0  0  0  0  0
    6.4003  -15.6532   26.0979 C   0  0  0  0  0  0  0  0  0  0  0  0
    6.6567  -14.2162   26.2693 C   0  0  0  0  0  0  0  0  0  0  0  0
    6.5111  -13.6065   27.5200 C   0  0  0  0  0  0  0  0  0  0  0  0
    6.7639  -12.2790   27.7153 C   0  0  0  0  0  0  0  0  0  0  0  0
    7.1802  -11.4733   26.6681 C   0  0  0  0  0  0  0  0  0  0  0  0
    7.3333  -12.0442   25.4229 C   0  0  0  0  0  0  0  0  0  0  0  0
    7.0716  -13.3861   25.2528 C   0  0  0  0  0  0  0  0  0  0  0  0
    7.7211  -16.0549   23.9993 C   0  0  0  0  0  0  0  0  0  0  0  0
    8.5834  -16.9728   24.1699 O   0  0  0  0  0  0  0  0  0  0  0  0
    7.2206  -12.9255   19.5455 C   0  0  0  0  0  0  0  0  0  0  0  0
    7.3891  -13.9726   20.6590 C   0  0  0  0  0  0  0  0  0  0  0  0
    8.8302  -14.1929   20.9454 C   0  0  2  0  0  0  0  0  0  0  0  0
    9.6421  -14.5006   19.7139 C   0  0  0  0  0  0  0  0  0  0  0  0
    9.0739  -15.2053   22.0447 C   0  0  2  0  0  0  0  0  0  0  0  0
    8.1337  -15.0188   23.1314 N   0  0  0  0  0  0  0  0  0  0  0  0
   10.4655  -15.3280   22.4574 C   0  0  0  0  0  0  0  0  0  0  0  0
   10.8464  -14.9359   23.6009 O   0  0  0  0  0  0  0  0  0  0  0  0
   11.4793  -15.8639   21.6800 O   0  0  0  0  0  0  0  0  0  0  0  0
  2  1  1  6
  2  3  1  0
  3  4  1  0
  5  2  1  0
  6  5  2  0
  7  5  1  0
  8  7  1  0
  8  9  1  1
  9 10  1  0
 10 15  2  0
 11 12  2  0
 11 10  1  0
 12 13  1  0
 13 14  2  0
 15 14  1  0
 16 23  1  0
 16  8  1  0
 17 16  2  0
 19 18  1  0
 20 22  1  0
 20 19  1  0
 20 21  1  6
 22 24  1  0
 22 23  1  1
 24 26  1  0
 25 24  2  0
M  END
$$$$
