CFI.pdb
     RDKit          3D

 26 26  0  0  1  0  0  0  0  0999 V2000
   11.5004  -16.8198   19.4637 N   0  0  0  0  0  0  0  0  0  0  0  0
   10.4719  -17.2702   20.3811 C   0  0  1  0  0  0  0  0  0  0  0  0
   10.8072  -18.6079   20.9867 C   0  0  0  0  0  0  0  0  0  0  0  0
   12.4055  -18.6227   21.8025 S   0  0  0  0  0  0  0  0  0  0  0  0
   10.3192  -16.2875   21.4896 C   0  0  0  0  0  0  0  0  0  0  0  0
   11.2393  -15.4817   21.7601 O   0  0  0  0  0  0  0  0  0  0  0  0
    9.1434  -16.2526   22.2438 N   0  0  0  0  0  0  0  0  0  0  0  0
    8.9480  -15.3236   23.3854 C   0  0  1  0  0  0  0  0  0  0  0  0
    7.5014  -14.9514   23.3147 C   0  0  0  0  0  0  0  0  0  0  0  0
    7.0055  -14.0678   24.3792 C   0  0  0  0  0  0  0  0  0  0  0  0
    7.2993  -12.7000   24.3701 C   0  0  0  0  0  0  0  0  0  0  0  0
    6.8341  -11.8502   25.3323 C   0  0  0  0  0  0  0  0  0  0  0  0
    6.0424  -12.3160   26.3692 C   0  0  0  0  0  0  0  0  0  0  0  0
    5.7349  -13.6590   26.4067 C   0  0  0  0  0  0  0  0  0  0  0  0
    6.2170  -14.4951   25.4234 C   0  0  0  0  0  0  0  0  0  0  0  0
    9.3608  -16.0675   24.5822 C   0  0  0  0  0  0  0  0  0  0  0  0
    9.3108  -17.3372   24.5539 O   0  0  0  0  0  0  0  0  0  0  0  0
   10.7599  -13.8170   29.7943 C   0  0  0  0  0  0  0  0  0  0  0  0
   10.0148  -14.6725   28.7562 C   0  0  0  0  0  0  0  0  0  0  0  0
   10.9811  -15.4610   27.9490 C   0  0  2  0  0  0  0  0  0  0  0  0
   12.0860  -14.6241   27.3579 C   0  0  0  0  0  0  0  0  0  0  0  0
   10.3171  -16.3319   26.9034 C   0  0  2  0  0  0  0  0  0  0  0  0
    9.8268  -15.5278   25.8022 N   0  0  0  0  0  0  0  0  0  0  0  0
    9.3558  -17.2890   27.4342 C   0  0  0  0  0  0  0  0  0  0  0  0
    9.7165  -18.2056   28.2318 O   0  0  0  0  0  0  0  0  0  0  0  0
    8.0022  -17.3007   27.1390 O   0  0  0  0  0  0  0  0  0  0  0  0
  2  1  1  6
  2  3  1  0
  3  4  1  0
  5  2  1  0
  6  5  2  0
  7  5  1  0
  8  7  1  0
  8  9  1  1
  9 10  1  0
 10 15  2  0
 11 12  2  0
 11 10  1  0
 12 13  1  0
 13 14  2  0
 15 14  1  0
 16 23  1  0
 16  8  1  0
 17 16  2  0
 19 18  1  0
 20 22  1  0
 20 19  1  0
 20 21  1  6
 22 24  1  0
 22 23  1  6
 24 26  1  0
 25 24  2  0
M  END
$$$$
