VDE.pdb
     RDKit          3D

 25 24  0  0  1  0  0  0  0  0999 V2000
   18.4240   -8.8508  -15.6281 C   0  0  0  0  0  0  0  0  0  0  0  0
   18.3983  -10.0245  -16.6021 C   0  0  2  0  0  0  0  0  0  0  0  0
   17.1808  -10.8823  -16.3345 C   0  0  0  0  0  0  0  0  0  0  0  0
   19.6892  -10.7762  -16.4354 C   0  0  2  0  0  0  0  0  0  0  0  0
   19.8334  -11.3451  -15.1151 N   0  0  0  0  0  0  0  0  0  0  0  0
   20.8810   -9.9213  -16.6732 C   0  0  0  0  0  0  0  0  0  0  0  0
   21.5068   -9.5094  -15.6481 O   0  0  0  0  0  0  0  0  0  0  0  0
   21.3253   -9.5642  -17.9601 N   0  0  0  0  0  0  0  0  0  0  0  0
   22.5921   -8.8246  -18.1053 C   0  0  1  0  0  0  0  0  0  0  0  0
   23.1164   -9.1753  -19.4515 C   0  0  0  0  0  0  0  0  0  0  0  0
   24.3859   -8.6087  -19.8604 C   0  0  0  0  0  0  0  0  0  0  0  0
   24.8452   -8.7230  -21.0077 O   0  0  0  0  0  0  0  0  0  0  0  0
   22.3062   -7.3670  -17.9158 C   0  0  0  0  0  0  0  0  0  0  0  0
   21.1596   -6.9584  -18.1953 O   0  0  0  0  0  0  0  0  0  0  0  0
   25.1320   -7.9016  -18.9299 O   0  0  0  0  0  0  0  0  0  0  0  0
   23.2979   -6.4781  -17.4367 N   0  0  0  0  0  0  0  0  0  0  0  0
   23.0068   -5.1060  -17.1186 C   0  0  1  0  0  0  0  0  0  0  0  0
   22.1326   -5.0563  -15.9161 C   0  0  0  0  0  0  0  0  0  0  0  0
   22.7288   -5.5336  -14.6406 C   0  0  0  0  0  0  0  0  0  0  0  0
   21.8464   -5.5138  -13.4738 C   0  0  0  0  0  0  0  0  0  0  0  0
   20.8903   -4.7313  -13.3894 O   0  0  0  0  0  0  0  0  0  0  0  0
   24.3062   -4.3892  -16.9216 C   0  0  0  0  0  0  0  0  0  0  0  0
   25.5128   -5.0934  -16.9682 O   0  0  0  0  0  0  0  0  0  0  0  0
   22.0826   -6.4052  -12.4122 O   0  0  0  0  0  0  0  0  0  0  0  0
   24.3310   -3.1659  -16.7144 O   0  0  0  0  0  0  0  0  0  0  0  0
  2  1  1  1
  3  2  1  0
  4  2  1  0
  4  5  1  1
  6  7  2  0
  6  4  1  0
  8  6  1  0
  9 13  1  0
  9  8  1  0
  9 10  1  6
 11 12  2  0
 11 10  1  0
 13 16  1  0
 14 13  2  0
 15 11  1  0
 16 17  1  0
 17 22  1  0
 18 19  1  0
 17 18  1  1
 19 20  1  0
 20 21  2  0
 20 24  1  0
 22 25  2  0
 22 23  1  0
M  END
$$$$
