VDE.pdb
     RDKit          3D

 25 24  0  0  1  0  0  0  0  0999 V2000
   18.3204   -7.3760  -19.6875 C   0  0  0  0  0  0  0  0  0  0  0  0
   18.9117   -8.5152  -20.5119 C   0  0  2  0  0  0  0  0  0  0  0  0
   18.3266   -8.4917  -21.9071 C   0  0  0  0  0  0  0  0  0  0  0  0
   18.6241   -9.7965  -19.7805 C   0  0  2  0  0  0  0  0  0  0  0  0
   17.2195  -10.1352  -19.7859 N   0  0  0  0  0  0  0  0  0  0  0  0
   19.0549   -9.7502  -18.3592 C   0  0  0  0  0  0  0  0  0  0  0  0
   18.1596   -9.4974  -17.4951 O   0  0  0  0  0  0  0  0  0  0  0  0
   20.3840   -9.9710  -17.9522 N   0  0  0  0  0  0  0  0  0  0  0  0
   20.7507   -9.7538  -16.5411 C   0  0  1  0  0  0  0  0  0  0  0  0
   21.5818  -10.9233  -16.1516 C   0  0  0  0  0  0  0  0  0  0  0  0
   20.9105  -12.1758  -15.8680 C   0  0  0  0  0  0  0  0  0  0  0  0
   19.8088  -12.2453  -15.3008 O   0  0  0  0  0  0  0  0  0  0  0  0
   21.4547   -8.4361  -16.4389 C   0  0  0  0  0  0  0  0  0  0  0  0
   21.9942   -7.9839  -17.4705 O   0  0  0  0  0  0  0  0  0  0  0  0
   21.5222  -13.3615  -16.2456 O   0  0  0  0  0  0  0  0  0  0  0  0
   21.5100   -7.7233  -15.2174 N   0  0  0  0  0  0  0  0  0  0  0  0
   22.0731   -6.4030  -15.1266 C   0  0  1  0  0  0  0  0  0  0  0  0
   21.4056   -5.5161  -16.1168 C   0  0  0  0  0  0  0  0  0  0  0  0
   21.7482   -4.0709  -16.0518 C   0  0  0  0  0  0  0  0  0  0  0  0
   21.0260   -3.1987  -16.9783 C   0  0  0  0  0  0  0  0  0  0  0  0
   20.3387   -3.6523  -17.9032 O   0  0  0  0  0  0  0  0  0  0  0  0
   21.9110   -5.9249  -13.7172 C   0  0  0  0  0  0  0  0  0  0  0  0
   22.6646   -4.8446  -13.2493 O   0  0  0  0  0  0  0  0  0  0  0  0
   21.1083   -1.8036  -16.8222 O   0  0  0  0  0  0  0  0  0  0  0  0
   21.1100   -6.4782  -12.9475 O   0  0  0  0  0  0  0  0  0  0  0  0
  2  1  1  1
  3  2  1  0
  4  2  1  0
  4  5  1  1
  6  7  2  0
  6  4  1  0
  8  6  1  0
  9 13  1  0
  9  8  1  0
  9 10  1  6
 11 12  2  0
 11 10  1  0
 13 16  1  0
 14 13  2  0
 15 11  1  0
 16 17  1  0
 17 22  1  0
 18 19  1  0
 17 18  1  6
 19 20  1  0
 20 21  2  0
 20 24  1  0
 22 25  2  0
 22 23  1  0
M  END
$$$$
