VDE.pdb
     RDKit          3D

 25 24  0  0  1  0  0  0  0  0999 V2000
   24.5433  -13.8558  -17.7891 C   0  0  0  0  0  0  0  0  0  0  0  0
   25.8234  -13.1432  -18.2138 C   0  0  2  0  0  0  0  0  0  0  0  0
   27.0112  -14.0541  -17.9925 C   0  0  0  0  0  0  0  0  0  0  0  0
   25.9119  -11.8675  -17.4239 C   0  0  2  0  0  0  0  0  0  0  0  0
   26.0857  -12.1020  -16.0088 N   0  0  0  0  0  0  0  0  0  0  0  0
   24.7035  -11.0167  -17.5786 C   0  0  0  0  0  0  0  0  0  0  0  0
   24.4302  -10.6140  -18.7513 O   0  0  0  0  0  0  0  0  0  0  0  0
   23.8767  -10.6538  -16.4989 N   0  0  0  0  0  0  0  0  0  0  0  0
   22.7399   -9.7458  -16.7357 C   0  0  1  0  0  0  0  0  0  0  0  0
   21.5161  -10.5723  -16.5644 C   0  0  0  0  0  0  0  0  0  0  0  0
   20.2277   -9.9270  -16.7174 C   0  0  0  0  0  0  0  0  0  0  0  0
   19.7572   -9.1381  -15.8827 O   0  0  0  0  0  0  0  0  0  0  0  0
   22.8493   -8.6006  -15.7771 C   0  0  0  0  0  0  0  0  0  0  0  0
   23.1904   -8.8559  -14.6030 O   0  0  0  0  0  0  0  0  0  0  0  0
   19.4753  -10.1985  -17.8500 O   0  0  0  0  0  0  0  0  0  0  0  0
   22.5766   -7.2723  -16.1823 N   0  0  0  0  0  0  0  0  0  0  0  0
   22.6939   -6.1577  -15.2809 C   0  0  1  0  0  0  0  0  0  0  0  0
   22.6389   -4.8906  -16.0581 C   0  0  0  0  0  0  0  0  0  0  0  0
   22.6201   -3.6288  -15.2720 C   0  0  0  0  0  0  0  0  0  0  0  0
   22.4595   -2.3958  -16.0430 C   0  0  0  0  0  0  0  0  0  0  0  0
   21.6796   -1.5007  -15.6910 O   0  0  0  0  0  0  0  0  0  0  0  0
   21.5986   -6.2640  -14.2658 C   0  0  0  0  0  0  0  0  0  0  0  0
   21.8426   -5.9332  -12.9298 O   0  0  0  0  0  0  0  0  0  0  0  0
   23.2080   -2.2126  -17.2192 O   0  0  0  0  0  0  0  0  0  0  0  0
   20.4643   -6.6459  -14.5938 O   0  0  0  0  0  0  0  0  0  0  0  0
  2  1  1  1
  3  2  1  0
  4  2  1  0
  4  5  1  1
  6  7  2  0
  6  4  1  0
  8  6  1  0
  9 13  1  0
  9  8  1  0
  9 10  1  1
 11 12  2  0
 11 10  1  0
 13 16  1  0
 14 13  2  0
 15 11  1  0
 16 17  1  0
 17 22  1  0
 18 19  1  0
 17 18  1  6
 19 20  1  0
 20 21  2  0
 20 24  1  0
 22 25  2  0
 22 23  1  0
M  END
$$$$
