VDE.pdb
     RDKit          3D

 25 24  0  0  1  0  0  0  0  0999 V2000
   19.0161  -11.8126  -18.2176 C   0  0  0  0  0  0  0  0  0  0  0  0
   18.5087  -12.4414  -16.9237 C   0  0  2  0  0  0  0  0  0  0  0  0
   17.1741  -13.1100  -17.1713 C   0  0  0  0  0  0  0  0  0  0  0  0
   18.4319  -11.3503  -15.8928 C   0  0  2  0  0  0  0  0  0  0  0  0
   17.4083  -10.3754  -16.1919 N   0  0  0  0  0  0  0  0  0  0  0  0
   19.7115  -10.6082  -15.7523 C   0  0  0  0  0  0  0  0  0  0  0  0
   20.7319  -11.2815  -15.4093 O   0  0  0  0  0  0  0  0  0  0  0  0
   19.8254   -9.2240  -15.9805 N   0  0  0  0  0  0  0  0  0  0  0  0
   21.1592   -8.5972  -15.9550 C   0  0  1  0  0  0  0  0  0  0  0  0
   21.9389   -9.2546  -17.0368 C   0  0  0  0  0  0  0  0  0  0  0  0
   23.3110   -8.8367  -17.2424 C   0  0  0  0  0  0  0  0  0  0  0  0
   24.1419   -8.7503  -16.3244 O   0  0  0  0  0  0  0  0  0  0  0  0
   20.9848   -7.1204  -16.1315 C   0  0  0  0  0  0  0  0  0  0  0  0
   20.7622   -6.6950  -17.2844 O   0  0  0  0  0  0  0  0  0  0  0  0
   23.7257   -8.5150  -18.5257 O   0  0  0  0  0  0  0  0  0  0  0  0
   21.0683   -6.2324  -15.0326 N   0  0  0  0  0  0  0  0  0  0  0  0
   20.8875   -4.8132  -15.1799 C   0  0  1  0  0  0  0  0  0  0  0  0
   19.5195   -4.4436  -14.7276 C   0  0  0  0  0  0  0  0  0  0  0  0
   18.3892   -4.9328  -15.5602 C   0  0  0  0  0  0  0  0  0  0  0  0
   17.0492   -4.7067  -15.0183 C   0  0  0  0  0  0  0  0  0  0  0  0
   16.8131   -3.7934  -14.2159 O   0  0  0  0  0  0  0  0  0  0  0  0
   21.9630   -4.1244  -14.3988 C   0  0  0  0  0  0  0  0  0  0  0  0
   22.1054   -2.7357  -14.4704 O   0  0  0  0  0  0  0  0  0  0  0  0
   15.9920   -5.5453  -15.4138 O   0  0  0  0  0  0  0  0  0  0  0  0
   22.7401   -4.7728  -13.6808 O   0  0  0  0  0  0  0  0  0  0  0  0
  2  1  1  6
  3  2  1  0
  4  2  1  0
  4  5  1  6
  6  7  2  0
  6  4  1  0
  8  6  1  0
  9 13  1  0
  9  8  1  0
  9 10  1  6
 11 12  2  0
 11 10  1  0
 13 16  1  0
 14 13  2  0
 15 11  1  0
 16 17  1  0
 17 22  1  0
 18 19  1  0
 17 18  1  1
 19 20  1  0
 20 21  2  0
 20 24  1  0
 22 25  2  0
 22 23  1  0
M  END
$$$$
