VDE.pdb
     RDKit          3D

 25 24  0  0  1  0  0  0  0  0999 V2000
   27.1825  -21.3626  -10.2682 C   0  0  0  0  0  0  0  0  0  0  0  0
   26.5540  -20.2153   -9.4836 C   0  0  2  0  0  0  0  0  0  0  0  0
   26.6942  -20.4758   -7.9997 C   0  0  0  0  0  0  0  0  0  0  0  0
   25.1210  -20.1014   -9.9228 C   0  0  2  0  0  0  0  0  0  0  0  0
   24.3232  -21.2338   -9.5121 N   0  0  0  0  0  0  0  0  0  0  0  0
   24.9848  -19.9854  -11.3978 C   0  0  0  0  0  0  0  0  0  0  0  0
   25.5800  -19.0123  -11.9554 O   0  0  0  0  0  0  0  0  0  0  0  0
   24.2394  -20.8928  -12.1738 N   0  0  0  0  0  0  0  0  0  0  0  0
   24.1495  -20.6901  -13.6310 C   0  0  1  0  0  0  0  0  0  0  0  0
   24.6284  -21.9548  -14.2484 C   0  0  0  0  0  0  0  0  0  0  0  0
   25.7430  -21.8864  -15.1718 C   0  0  0  0  0  0  0  0  0  0  0  0
   26.2830  -22.8898  -15.6637 O   0  0  0  0  0  0  0  0  0  0  0  0
   22.7334  -20.3379  -13.9671 C   0  0  0  0  0  0  0  0  0  0  0  0
   21.8281  -20.8397  -13.2683 O   0  0  0  0  0  0  0  0  0  0  0  0
   26.2380  -20.6417  -15.5298 O   0  0  0  0  0  0  0  0  0  0  0  0
   22.4257  -19.4665  -15.0391 N   0  0  0  0  0  0  0  0  0  0  0  0
   21.0929  -18.9778  -15.2698 C   0  0  1  0  0  0  0  0  0  0  0  0
   21.1399  -17.8796  -16.2721 C   0  0  0  0  0  0  0  0  0  0  0  0
   21.5215  -18.2601  -17.6577 C   0  0  0  0  0  0  0  0  0  0  0  0
   21.5242  -17.1775  -18.6418 C   0  0  0  0  0  0  0  0  0  0  0  0
   21.1819  -16.0244  -18.3474 O   0  0  0  0  0  0  0  0  0  0  0  0
   20.2454  -20.1303  -15.7110 C   0  0  0  0  0  0  0  0  0  0  0  0
   20.8272  -21.2257  -16.3557 O   0  0  0  0  0  0  0  0  0  0  0  0
   21.9256  -17.4441  -19.9629 O   0  0  0  0  0  0  0  0  0  0  0  0
   19.0204  -20.1299  -15.5124 O   0  0  0  0  0  0  0  0  0  0  0  0
  2  1  1  6
  3  2  1  0
  4  2  1  0
  4  5  1  6
  6  7  2  0
  6  4  1  0
  8  6  1  0
  9 13  1  0
  9  8  1  0
  9 10  1  6
 11 12  2  0
 11 10  1  0
 13 16  1  0
 14 13  2  0
 15 11  1  0
 16 17  1  0
 17 22  1  0
 18 19  1  0
 17 18  1  6
 19 20  1  0
 20 21  2  0
 20 24  1  0
 22 25  2  0
 22 23  1  0
M  END
$$$$
