VDE.pdb
     RDKit          3D

 25 24  0  0  1  0  0  0  0  0999 V2000
   14.1602  -10.8508  -17.8757 C   0  0  0  0  0  0  0  0  0  0  0  0
   14.9537   -9.9446  -16.9396 C   0  0  2  0  0  0  0  0  0  0  0  0
   15.1909   -8.6068  -17.6055 C   0  0  0  0  0  0  0  0  0  0  0  0
   16.2306  -10.6595  -16.5963 C   0  0  2  0  0  0  0  0  0  0  0  0
   16.0011  -11.8864  -15.8685 N   0  0  0  0  0  0  0  0  0  0  0  0
   17.1444   -9.8284  -15.7703 C   0  0  0  0  0  0  0  0  0  0  0  0
   16.8965   -9.7639  -14.5268 O   0  0  0  0  0  0  0  0  0  0  0  0
   18.2432   -9.1311  -16.3064 N   0  0  0  0  0  0  0  0  0  0  0  0
   19.0939   -8.3283  -15.4094 C   0  0  1  0  0  0  0  0  0  0  0  0
   20.3510   -9.1034  -15.2388 C   0  0  0  0  0  0  0  0  0  0  0  0
   21.3596   -8.5819  -14.3386 C   0  0  0  0  0  0  0  0  0  0  0  0
   21.2252   -7.5237  -13.7040 O   0  0  0  0  0  0  0  0  0  0  0  0
   19.2819   -6.9780  -16.0288 C   0  0  0  0  0  0  0  0  0  0  0  0
   19.3692   -6.9162  -17.2731 O   0  0  0  0  0  0  0  0  0  0  0  0
   22.5376   -9.2939  -14.1713 O   0  0  0  0  0  0  0  0  0  0  0  0
   19.3586   -5.8082  -15.2358 N   0  0  0  0  0  0  0  0  0  0  0  0
   19.5548   -4.5048  -15.8113 C   0  0  1  0  0  0  0  0  0  0  0  0
   18.2375   -3.8292  -15.9557 C   0  0  0  0  0  0  0  0  0  0  0  0
   18.2662   -2.3840  -16.3035 C   0  0  0  0  0  0  0  0  0  0  0  0
   16.9665   -1.7158  -16.3734 C   0  0  0  0  0  0  0  0  0  0  0  0
   15.9328   -2.2488  -15.9482 O   0  0  0  0  0  0  0  0  0  0  0  0
   20.5025   -3.7475  -14.9340 C   0  0  0  0  0  0  0  0  0  0  0  0
   21.3432   -2.7740  -15.4813 O   0  0  0  0  0  0  0  0  0  0  0  0
   16.8784   -0.4310  -16.9381 O   0  0  0  0  0  0  0  0  0  0  0  0
   20.5558   -3.9722  -13.7148 O   0  0  0  0  0  0  0  0  0  0  0  0
  2  1  1  6
  3  2  1  0
  4  2  1  0
  4  5  1  1
  6  7  2  0
  6  4  1  0
  8  6  1  0
  9 13  1  0
  9  8  1  0
  9 10  1  6
 11 12  2  0
 11 10  1  0
 13 16  1  0
 14 13  2  0
 15 11  1  0
 16 17  1  0
 17 22  1  0
 18 19  1  0
 17 18  1  1
 19 20  1  0
 20 21  2  0
 20 24  1  0
 22 25  2  0
 22 23  1  0
M  END
$$$$
