VDE.pdb
     RDKit          3D

 25 24  0  0  1  0  0  0  0  0999 V2000
   15.6279   -8.4869  -17.4449 C   0  0  0  0  0  0  0  0  0  0  0  0
   16.2271   -9.5543  -18.3550 C   0  0  2  0  0  0  0  0  0  0  0  0
   15.1330  -10.1881  -19.1861 C   0  0  0  0  0  0  0  0  0  0  0  0
   16.9410  -10.5446  -17.4781 C   0  0  2  0  0  0  0  0  0  0  0  0
   16.0355  -11.3014  -16.6446 N   0  0  0  0  0  0  0  0  0  0  0  0
   17.9268   -9.8978  -16.5738 C   0  0  0  0  0  0  0  0  0  0  0  0
   17.5612   -9.6963  -15.3747 O   0  0  0  0  0  0  0  0  0  0  0  0
   19.2146   -9.5128  -16.9914 N   0  0  0  0  0  0  0  0  0  0  0  0
   20.1835   -9.0334  -15.9893 C   0  0  1  0  0  0  0  0  0  0  0  0
   21.3971   -9.8747  -16.1611 C   0  0  0  0  0  0  0  0  0  0  0  0
   22.5361   -9.6160  -15.3035 C   0  0  0  0  0  0  0  0  0  0  0  0
   22.5387   -8.7466  -14.4177 O   0  0  0  0  0  0  0  0  0  0  0  0
   20.4095   -7.5712  -16.2203 C   0  0  0  0  0  0  0  0  0  0  0  0
   20.6218   -7.1938  -17.3917 O   0  0  0  0  0  0  0  0  0  0  0  0
   23.6854  -10.3728  -15.4737 O   0  0  0  0  0  0  0  0  0  0  0  0
   20.3845   -6.6441  -15.1512 N   0  0  0  0  0  0  0  0  0  0  0  0
   20.6189   -5.2392  -15.3507 C   0  0  1  0  0  0  0  0  0  0  0  0
   19.3999   -4.4791  -14.9646 C   0  0  0  0  0  0  0  0  0  0  0  0
   19.4882   -2.9971  -15.0424 C   0  0  0  0  0  0  0  0  0  0  0  0
   18.2790   -2.2626  -14.6697 C   0  0  0  0  0  0  0  0  0  0  0  0
   18.2812   -1.0341  -14.5142 O   0  0  0  0  0  0  0  0  0  0  0  0
   21.8229   -4.8509  -14.5503 C   0  0  0  0  0  0  0  0  0  0  0  0
   22.6582   -3.8200  -14.9905 O   0  0  0  0  0  0  0  0  0  0  0  0
   17.0745   -2.9631  -14.4802 O   0  0  0  0  0  0  0  0  0  0  0  0
   22.0960   -5.4357  -13.4905 O   0  0  0  0  0  0  0  0  0  0  0  0
  2  1  1  1
  3  2  1  0
  4  2  1  0
  4  5  1  1
  6  7  2  0
  6  4  1  0
  8  6  1  0
  9 13  1  0
  9  8  1  0
  9 10  1  6
 11 12  2  0
 11 10  1  0
 13 16  1  0
 14 13  2  0
 15 11  1  0
 16 17  1  0
 17 22  1  0
 18 19  1  0
 17 18  1  1
 19 20  1  0
 20 21  2  0
 20 24  1  0
 22 25  2  0
 22 23  1  0
M  END
$$$$
