VDE.pdb
     RDKit          3D

 25 24  0  0  1  0  0  0  0  0999 V2000
   26.2427   -9.4184  -15.3582 C   0  0  0  0  0  0  0  0  0  0  0  0
   25.4957  -10.7481  -15.3880 C   0  0  2  0  0  0  0  0  0  0  0  0
   26.3506  -11.7977  -16.0641 C   0  0  0  0  0  0  0  0  0  0  0  0
   24.1901  -10.5154  -16.0955 C   0  0  2  0  0  0  0  0  0  0  0  0
   24.3691  -10.0836  -17.4626 N   0  0  0  0  0  0  0  0  0  0  0  0
   23.3520   -9.4899  -15.4217 C   0  0  0  0  0  0  0  0  0  0  0  0
   22.9054   -9.7794  -14.2689 O   0  0  0  0  0  0  0  0  0  0  0  0
   23.0465   -8.2450  -16.0031 N   0  0  0  0  0  0  0  0  0  0  0  0
   22.1260   -7.3302  -15.3042 C   0  0  1  0  0  0  0  0  0  0  0  0
   22.8852   -6.0691  -15.0961 C   0  0  0  0  0  0  0  0  0  0  0  0
   22.4445   -5.1700  -14.0486 C   0  0  0  0  0  0  0  0  0  0  0  0
   23.0625   -4.1425  -13.7279 O   0  0  0  0  0  0  0  0  0  0  0  0
   20.8944   -7.1769  -16.1420 C   0  0  0  0  0  0  0  0  0  0  0  0
   21.0240   -7.2381  -17.3827 O   0  0  0  0  0  0  0  0  0  0  0  0
   21.2748   -5.4641  -13.3646 O   0  0  0  0  0  0  0  0  0  0  0  0
   19.6241   -6.9695  -15.5532 N   0  0  0  0  0  0  0  0  0  0  0  0
   18.4169   -6.9249  -16.3336 C   0  0  1  0  0  0  0  0  0  0  0  0
   18.1782   -8.2601  -16.9445 C   0  0  0  0  0  0  0  0  0  0  0  0
   17.9729   -9.3938  -16.0049 C   0  0  0  0  0  0  0  0  0  0  0  0
   17.6698  -10.6872  -16.6179 C   0  0  0  0  0  0  0  0  0  0  0  0
   18.0846  -10.9910  -17.7445 O   0  0  0  0  0  0  0  0  0  0  0  0
   17.3001   -6.4888  -15.4371 C   0  0  0  0  0  0  0  0  0  0  0  0
   16.0204   -6.2778  -15.9584 O   0  0  0  0  0  0  0  0  0  0  0  0
   16.8853  -11.6192  -15.9154 O   0  0  0  0  0  0  0  0  0  0  0  0
   17.4932   -6.3086  -14.2246 O   0  0  0  0  0  0  0  0  0  0  0  0
  2  1  1  6
  3  2  1  0
  4  2  1  0
  4  5  1  6
  6  7  2  0
  6  4  1  0
  8  6  1  0
  9 13  1  0
  9  8  1  0
  9 10  1  6
 11 12  2  0
 11 10  1  0
 13 16  1  0
 14 13  2  0
 15 11  1  0
 16 17  1  0
 17 22  1  0
 18 19  1  0
 17 18  1  1
 19 20  1  0
 20 21  2  0
 20 24  1  0
 22 25  2  0
 22 23  1  0
M  END
$$$$
