VDE.pdb
     RDKit          3D

 25 24  0  0  1  0  0  0  0  0999 V2000
   18.4699  -12.2359  -17.4108 C   0  0  0  0  0  0  0  0  0  0  0  0
   19.5125  -11.9364  -18.4832 C   0  0  2  0  0  0  0  0  0  0  0  0
   20.0219  -13.2326  -19.0748 C   0  0  0  0  0  0  0  0  0  0  0  0
   20.5997  -11.1225  -17.8393 C   0  0  2  0  0  0  0  0  0  0  0  0
   21.4282  -11.9063  -16.9523 N   0  0  0  0  0  0  0  0  0  0  0  0
   20.0659   -9.9860  -17.0447 C   0  0  0  0  0  0  0  0  0  0  0  0
   19.4147   -9.0982  -17.6771 O   0  0  0  0  0  0  0  0  0  0  0  0
   20.2532   -9.8657  -15.6549 N   0  0  0  0  0  0  0  0  0  0  0  0
   19.8418   -8.6229  -14.9776 C   0  0  1  0  0  0  0  0  0  0  0  0
   19.1792   -9.0467  -13.7161 C   0  0  0  0  0  0  0  0  0  0  0  0
   17.7589   -9.3316  -13.7513 C   0  0  0  0  0  0  0  0  0  0  0  0
   17.0342   -9.0646  -14.7229 O   0  0  0  0  0  0  0  0  0  0  0  0
   21.0594   -7.7741  -14.7791 C   0  0  0  0  0  0  0  0  0  0  0  0
   22.1591   -8.2411  -15.1428 O   0  0  0  0  0  0  0  0  0  0  0  0
   17.1709   -9.9325  -12.6487 O   0  0  0  0  0  0  0  0  0  0  0  0
   20.9727   -6.4858  -14.1995 N   0  0  0  0  0  0  0  0  0  0  0  0
   21.9528   -5.4645  -14.4539 C   0  0  1  0  0  0  0  0  0  0  0  0
   22.1802   -5.3575  -15.9200 C   0  0  0  0  0  0  0  0  0  0  0  0
   23.0259   -4.2249  -16.3807 C   0  0  0  0  0  0  0  0  0  0  0  0
   23.2021   -4.1039  -17.8280 C   0  0  0  0  0  0  0  0  0  0  0  0
   24.0165   -3.3142  -18.3245 O   0  0  0  0  0  0  0  0  0  0  0  0
   21.4604   -4.1870  -13.8482 C   0  0  0  0  0  0  0  0  0  0  0  0
   22.3651   -3.2740  -13.2986 O   0  0  0  0  0  0  0  0  0  0  0  0
   22.4290   -4.9034  -18.6886 O   0  0  0  0  0  0  0  0  0  0  0  0
   20.2484   -3.9216  -13.8247 O   0  0  0  0  0  0  0  0  0  0  0  0
  2  1  1  1
  3  2  1  0
  4  2  1  0
  4  5  1  1
  6  7  2  0
  6  4  1  0
  8  6  1  0
  9 13  1  0
  9  8  1  0
  9 10  1  1
 11 12  2  0
 11 10  1  0
 13 16  1  0
 14 13  2  0
 15 11  1  0
 16 17  1  0
 17 22  1  0
 18 19  1  0
 17 18  1  6
 19 20  1  0
 20 21  2  0
 20 24  1  0
 22 25  2  0
 22 23  1  0
M  END
$$$$
