ATI.pdb
     RDKit          3D

 21 20  0  0  1  0  0  0  0  0999 V2000
    8.4953  -12.2772   18.9792 C   0  0  0  0  0  0  0  0  0  0  0  0
    8.5066  -13.7652   18.8597 C   0  0  2  0  0  0  0  0  0  0  0  0
    7.7998  -14.1958   17.6557 N   0  0  0  0  0  0  0  0  0  0  0  0
    8.0533  -14.4996   20.0291 C   0  0  0  0  0  0  0  0  0  0  0  0
    6.8178  -14.6095   20.2463 O   0  0  0  0  0  0  0  0  0  0  0  0
    8.9719  -18.1696   23.0678 C   0  0  0  0  0  0  0  0  0  0  0  0
    9.1845  -17.2793   21.8707 C   0  0  1  0  0  0  0  0  0  0  0  0
    8.6593  -17.8213   20.7085 O   0  0  0  0  0  0  0  0  0  0  0  0
    8.5673  -15.9001   22.0768 C   0  0  2  0  0  0  0  0  0  0  0  0
    8.9593  -15.0916   20.9260 N   0  0  0  0  0  0  0  0  0  0  0  0
    9.0387  -15.2693   23.3425 C   0  0  0  0  0  0  0  0  0  0  0  0
   10.2468  -14.8434   23.3648 O   0  0  0  0  0  0  0  0  0  0  0  0
    5.8146  -12.0767   26.1042 C   0  0  0  0  0  0  0  0  0  0  0  0
    6.9920  -12.7705   25.5060 C   0  0  0  0  0  0  0  0  0  0  0  0
    7.6368  -13.7983   26.4082 C   0  0  2  0  0  0  0  0  0  0  0  0
    8.2214  -13.1999   27.6402 C   0  0  0  0  0  0  0  0  0  0  0  0
    8.7145  -14.5682   25.6789 C   0  0  2  0  0  0  0  0  0  0  0  0
    8.1959  -15.1427   24.4717 N   0  0  0  0  0  0  0  0  0  0  0  0
    9.2589  -15.6352   26.5782 C   0  0  0  0  0  0  0  0  0  0  0  0
   10.1506  -15.2964   27.4134 O   0  0  0  0  0  0  0  0  0  0  0  0
    8.8539  -16.9469   26.5534 O   0  0  0  0  0  0  0  0  0  0  0  0
  2  4  1  0
  2  3  1  0
  2  1  1  1
  4  5  2  0
  7  6  1  1
  7  9  1  0
  8  7  1  0
  9 11  1  0
  9 10  1  6
 10  4  1  0
 11 18  1  0
 11 12  2  0
 13 14  1  0
 14 15  1  0
 15 16  1  1
 17 15  1  0
 17 18  1  6
 19 17  1  0
 19 21  1  0
 20 19  2  0
M  END
$$$$
