ATI.pdb
     RDKit          3D

 21 20  0  0  1  0  0  0  0  0999 V2000
    8.7169  -12.4052   18.8140 C   0  0  0  0  0  0  0  0  0  0  0  0
    8.7721  -13.8958   18.7534 C   0  0  2  0  0  0  0  0  0  0  0  0
    8.3484  -14.3790   17.4413 N   0  0  0  0  0  0  0  0  0  0  0  0
    8.0852  -14.6007   19.8227 C   0  0  0  0  0  0  0  0  0  0  0  0
    6.9579  -15.1143   19.5967 O   0  0  0  0  0  0  0  0  0  0  0  0
    7.8218  -17.4023   20.5423 C   0  0  0  0  0  0  0  0  0  0  0  0
    8.3901  -16.9775   21.8717 C   0  0  1  0  0  0  0  0  0  0  0  0
    9.7647  -17.1414   21.9360 O   0  0  0  0  0  0  0  0  0  0  0  0
    8.0671  -15.5201   22.1835 C   0  0  2  0  0  0  0  0  0  0  0  0
    8.6469  -14.7245   21.1052 N   0  0  0  0  0  0  0  0  0  0  0  0
    8.6270  -15.1014   23.5000 C   0  0  0  0  0  0  0  0  0  0  0  0
    9.8729  -14.8051   23.5340 O   0  0  0  0  0  0  0  0  0  0  0  0
    5.5173  -12.0085   26.4904 C   0  0  0  0  0  0  0  0  0  0  0  0
    6.6315  -12.7266   25.8062 C   0  0  0  0  0  0  0  0  0  0  0  0
    7.3311  -13.7568   26.6637 C   0  0  2  0  0  0  0  0  0  0  0  0
    7.9660  -13.1659   27.8743 C   0  0  0  0  0  0  0  0  0  0  0  0
    8.3824  -14.5038   25.8746 C   0  0  2  0  0  0  0  0  0  0  0  0
    7.8249  -15.0314   24.6633 N   0  0  0  0  0  0  0  0  0  0  0  0
    8.9480  -15.6053   26.7174 C   0  0  0  0  0  0  0  0  0  0  0  0
    8.4031  -16.7466   26.6298 O   0  0  0  0  0  0  0  0  0  0  0  0
   10.0125  -15.4553   27.5717 O   0  0  0  0  0  0  0  0  0  0  0  0
  2  4  1  0
  2  3  1  0
  2  1  1  6
  4  5  2  0
  7  6  1  6
  7  9  1  0
  8  7  1  0
  9 11  1  0
  9 10  1  6
 10  4  1  0
 11 18  1  0
 11 12  2  0
 13 14  1  0
 14 15  1  0
 15 16  1  1
 17 15  1  0
 17 18  1  6
 19 17  1  0
 19 21  1  0
 20 19  2  0
M  END
$$$$
