ATI.pdb
     RDKit          3D

 21 20  0  0  1  0  0  0  0  0999 V2000
    8.7653  -12.3635   19.0234 C   0  0  0  0  0  0  0  0  0  0  0  0
    8.5492  -13.8341   18.8839 C   0  0  2  0  0  0  0  0  0  0  0  0
    7.8588  -14.1422   17.6338 N   0  0  0  0  0  0  0  0  0  0  0  0
    7.9150  -14.4927   20.0136 C   0  0  0  0  0  0  0  0  0  0  0  0
    6.6579  -14.5313   20.0773 O   0  0  0  0  0  0  0  0  0  0  0  0
    7.6421  -17.7975   20.8106 C   0  0  0  0  0  0  0  0  0  0  0  0
    8.3540  -17.2492   22.0203 C   0  0  1  0  0  0  0  0  0  0  0  0
    9.7246  -17.4456   21.9617 O   0  0  0  0  0  0  0  0  0  0  0  0
    8.0918  -15.7580   22.2014 C   0  0  2  0  0  0  0  0  0  0  0  0
    8.6690  -15.0888   21.0392 N   0  0  0  0  0  0  0  0  0  0  0  0
    8.7029  -15.2400   23.4585 C   0  0  0  0  0  0  0  0  0  0  0  0
    9.9538  -14.9653   23.4265 O   0  0  0  0  0  0  0  0  0  0  0  0
    5.6841  -11.9026   26.2132 C   0  0  0  0  0  0  0  0  0  0  0  0
    6.8126  -12.6497   25.5859 C   0  0  0  0  0  0  0  0  0  0  0  0
    7.5373  -13.5898   26.5224 C   0  0  2  0  0  0  0  0  0  0  0  0
    8.2280  -12.8792   27.6340 C   0  0  0  0  0  0  0  0  0  0  0  0
    8.5473  -14.4337   25.7783 C   0  0  2  0  0  0  0  0  0  0  0  0
    7.9422  -15.0568   24.6373 N   0  0  0  0  0  0  0  0  0  0  0  0
    9.1118  -15.4665   26.7047 C   0  0  0  0  0  0  0  0  0  0  0  0
    8.5267  -16.5902   26.7531 O   0  0  0  0  0  0  0  0  0  0  0  0
   10.2157  -15.2719   27.4977 O   0  0  0  0  0  0  0  0  0  0  0  0
  2  4  1  0
  2  3  1  0
  2  1  1  1
  4  5  2  0
  7  6  1  6
  7  9  1  0
  8  7  1  0
  9 11  1  0
  9 10  1  6
 10  4  1  0
 11 18  1  0
 11 12  2  0
 13 14  1  0
 14 15  1  0
 15 16  1  1
 17 15  1  0
 17 18  1  6
 19 17  1  0
 19 21  1  0
 20 19  2  0
M  END
$$$$
