ATI.pdb
     RDKit          3D

 21 20  0  0  1  0  0  0  0  0999 V2000
    8.5776  -12.2596   18.9870 C   0  0  0  0  0  0  0  0  0  0  0  0
    8.6029  -13.7510   18.9233 C   0  0  2  0  0  0  0  0  0  0  0  0
    8.1092  -14.2248   17.6325 N   0  0  0  0  0  0  0  0  0  0  0  0
    7.9546  -14.4446   20.0236 C   0  0  0  0  0  0  0  0  0  0  0  0
    6.7060  -14.6069   19.9987 O   0  0  0  0  0  0  0  0  0  0  0  0
    7.7532  -17.6542   20.8571 C   0  0  0  0  0  0  0  0  0  0  0  0
    8.3786  -17.0965   22.1095 C   0  0  1  0  0  0  0  0  0  0  0  0
    9.7521  -17.2779   22.1407 O   0  0  0  0  0  0  0  0  0  0  0  0
    8.0890  -15.6080   22.2702 C   0  0  2  0  0  0  0  0  0  0  0  0
    8.6856  -14.9401   21.1170 N   0  0  0  0  0  0  0  0  0  0  0  0
    8.6594  -15.0696   23.5378 C   0  0  0  0  0  0  0  0  0  0  0  0
    9.8815  -14.6863   23.5085 O   0  0  0  0  0  0  0  0  0  0  0  0
    5.7711  -11.8552   26.6135 C   0  0  0  0  0  0  0  0  0  0  0  0
    6.8624  -12.5952   25.9159 C   0  0  0  0  0  0  0  0  0  0  0  0
    7.4962  -13.6951   26.7372 C   0  0  2  0  0  0  0  0  0  0  0  0
    8.1670  -13.1856   27.9652 C   0  0  0  0  0  0  0  0  0  0  0  0
    8.4985  -14.4797   25.9214 C   0  0  2  0  0  0  0  0  0  0  0  0
    7.8920  -14.9822   24.7231 N   0  0  0  0  0  0  0  0  0  0  0  0
    9.0416  -15.6045   26.7483 C   0  0  0  0  0  0  0  0  0  0  0  0
    8.4735  -16.7331   26.6445 O   0  0  0  0  0  0  0  0  0  0  0  0
   10.1088  -15.4885   27.6043 O   0  0  0  0  0  0  0  0  0  0  0  0
  2  4  1  0
  2  3  1  0
  2  1  1  1
  4  5  2  0
  7  6  1  6
  7  9  1  0
  8  7  1  0
  9 11  1  0
  9 10  1  6
 10  4  1  0
 11 18  1  0
 11 12  2  0
 13 14  1  0
 14 15  1  0
 15 16  1  1
 17 15  1  0
 17 18  1  6
 19 17  1  0
 19 21  1  0
 20 19  2  0
M  END
$$$$
