ATI.pdb
     RDKit          3D

 21 20  0  0  1  0  0  0  0  0999 V2000
    6.5502  -19.8047   19.2801 C   0  0  0  0  0  0  0  0  0  0  0  0
    7.1888  -18.6237   18.6273 C   0  0  2  0  0  0  0  0  0  0  0  0
    8.1836  -19.0472   17.6447 N   0  0  0  0  0  0  0  0  0  0  0  0
    7.7289  -17.6167   19.5253 C   0  0  0  0  0  0  0  0  0  0  0  0
    8.5903  -17.9527   20.3802 O   0  0  0  0  0  0  0  0  0  0  0  0
    7.7155  -12.7223   20.5959 C   0  0  0  0  0  0  0  0  0  0  0  0
    7.3599  -13.8954   19.7193 C   0  0  1  0  0  0  0  0  0  0  0  0
    7.8878  -13.7811   18.4430 O   0  0  0  0  0  0  0  0  0  0  0  0
    7.8390  -15.2132   20.3187 C   0  0  2  0  0  0  0  0  0  0  0  0
    7.3146  -16.2750   19.4647 N   0  0  0  0  0  0  0  0  0  0  0  0
    7.3609  -15.3868   21.7200 C   0  0  0  0  0  0  0  0  0  0  0  0
    6.1156  -15.6403   21.8820 O   0  0  0  0  0  0  0  0  0  0  0  0
    9.1313  -18.8686   25.0025 C   0  0  0  0  0  0  0  0  0  0  0  0
    8.3366  -17.8025   24.3264 C   0  0  0  0  0  0  0  0  0  0  0  0
    8.4794  -16.4297   24.9438 C   0  0  2  0  0  0  0  0  0  0  0  0
    8.0314  -16.3852   26.3633 C   0  0  0  0  0  0  0  0  0  0  0  0
    7.7126  -15.3921   24.1556 C   0  0  2  0  0  0  0  0  0  0  0  0
    8.2369  -15.2787   22.8257 N   0  0  0  0  0  0  0  0  0  0  0  0
    7.7855  -14.0746   24.8644 C   0  0  0  0  0  0  0  0  0  0  0  0
    7.0414  -13.9147   25.8783 O   0  0  0  0  0  0  0  0  0  0  0  0
    8.6029  -13.0383   24.4861 O   0  0  0  0  0  0  0  0  0  0  0  0
  2  4  1  0
  2  3  1  0
  2  1  1  1
  4  5  2  0
  7  6  1  1
  7  9  1  0
  8  7  1  0
  9 11  1  0
  9 10  1  6
 10  4  1  0
 11 18  1  0
 11 12  2  0
 13 14  1  0
 14 15  1  0
 15 16  1  1
 17 15  1  0
 17 18  1  6
 19 17  1  0
 19 21  1  0
 20 19  2  0
M  END
$$$$
