ATI.pdb
     RDKit          3D

 21 20  0  0  1  0  0  0  0  0999 V2000
    9.2325  -19.3027   17.4558 C   0  0  0  0  0  0  0  0  0  0  0  0
    8.4941  -18.0212   17.6591 C   0  0  2  0  0  0  0  0  0  0  0  0
    8.2743  -17.3398   16.3856 N   0  0  0  0  0  0  0  0  0  0  0  0
    9.0512  -17.1180   18.6520 C   0  0  0  0  0  0  0  0  0  0  0  0
   10.1973  -16.6303   18.4664 O   0  0  0  0  0  0  0  0  0  0  0  0
    7.0500  -14.1906   20.2825 C   0  0  0  0  0  0  0  0  0  0  0  0
    7.6325  -15.0795   21.3509 C   0  0  1  0  0  0  0  0  0  0  0  0
    6.7086  -15.9856   21.8467 O   0  0  0  0  0  0  0  0  0  0  0  0
    8.8399  -15.8585   20.8401 C   0  0  2  0  0  0  0  0  0  0  0  0
    8.3433  -16.7735   19.8164 N   0  0  0  0  0  0  0  0  0  0  0  0
    9.5105  -16.6153   21.9354 C   0  0  0  0  0  0  0  0  0  0  0  0
    9.1553  -17.8350   22.1011 O   0  0  0  0  0  0  0  0  0  0  0  0
   14.6964  -15.7877   22.9587 C   0  0  0  0  0  0  0  0  0  0  0  0
   13.3310  -16.3719   22.8193 C   0  0  0  0  0  0  0  0  0  0  0  0
   12.5010  -16.3300   24.0824 C   0  0  2  0  0  0  0  0  0  0  0  0
   13.0769  -17.1557   25.1798 C   0  0  0  0  0  0  0  0  0  0  0  0
   11.0825  -16.7835   23.8211 C   0  0  2  0  0  0  0  0  0  0  0  0
   10.4958  -16.0205   22.7581 N   0  0  0  0  0  0  0  0  0  0  0  0
   10.2765  -16.6445   25.0760 C   0  0  0  0  0  0  0  0  0  0  0  0
   10.5178  -17.4574   26.0184 O   0  0  0  0  0  0  0  0  0  0  0  0
    9.3007  -15.6975   25.2662 O   0  0  0  0  0  0  0  0  0  0  0  0
  2  4  1  0
  2  3  1  0
  2  1  1  6
  4  5  2  0
  7  6  1  6
  7  9  1  0
  8  7  1  0
  9 11  1  0
  9 10  1  6
 10  4  1  0
 11 18  1  0
 11 12  2  0
 13 14  1  0
 14 15  1  0
 15 16  1  1
 17 15  1  0
 17 18  1  6
 19 17  1  0
 19 21  1  0
 20 19  2  0
M  END
$$$$
