ATI.pdb
     RDKit          3D

 21 20  0  0  1  0  0  0  0  0999 V2000
    8.3036  -12.0859   19.4354 C   0  0  0  0  0  0  0  0  0  0  0  0
    8.4029  -13.5372   19.0998 C   0  0  2  0  0  0  0  0  0  0  0  0
    7.7490  -13.8221   17.8248 N   0  0  0  0  0  0  0  0  0  0  0  0
    7.9667  -14.4595   20.1347 C   0  0  0  0  0  0  0  0  0  0  0  0
    6.7520  -14.7861   20.1962 O   0  0  0  0  0  0  0  0  0  0  0  0
    8.8884  -18.1017   23.1755 C   0  0  0  0  0  0  0  0  0  0  0  0
    9.1076  -17.1935   21.9932 C   0  0  1  0  0  0  0  0  0  0  0  0
    8.6041  -17.7257   20.8168 O   0  0  0  0  0  0  0  0  0  0  0  0
    8.4727  -15.8238   22.2087 C   0  0  2  0  0  0  0  0  0  0  0  0
    8.8664  -14.9979   21.0709 N   0  0  0  0  0  0  0  0  0  0  0  0
    8.9249  -15.2021   23.4859 C   0  0  0  0  0  0  0  0  0  0  0  0
   10.1319  -14.7748   23.5290 O   0  0  0  0  0  0  0  0  0  0  0  0
    5.9594  -11.8826   26.3912 C   0  0  0  0  0  0  0  0  0  0  0  0
    7.0623  -12.6678   25.7647 C   0  0  0  0  0  0  0  0  0  0  0  0
    7.5686  -13.8167   26.6072 C   0  0  2  0  0  0  0  0  0  0  0  0
    8.1579  -13.3695   27.8996 C   0  0  0  0  0  0  0  0  0  0  0  0
    8.5957  -14.6347   25.8577 C   0  0  2  0  0  0  0  0  0  0  0  0
    8.0655  -15.0851   24.6037 N   0  0  0  0  0  0  0  0  0  0  0  0
    9.0156  -15.7995   26.7006 C   0  0  0  0  0  0  0  0  0  0  0  0
    9.9687  -15.6169   27.5164 O   0  0  0  0  0  0  0  0  0  0  0  0
    8.4354  -17.0427   26.6442 O   0  0  0  0  0  0  0  0  0  0  0  0
  2  4  1  0
  2  3  1  0
  2  1  1  1
  4  5  2  0
  7  6  1  1
  7  9  1  0
  8  7  1  0
  9 11  1  0
  9 10  1  6
 10  4  1  0
 11 18  1  0
 11 12  2  0
 13 14  1  0
 14 15  1  0
 15 16  1  1
 17 15  1  0
 17 18  1  6
 19 17  1  0
 19 21  1  0
 20 19  2  0
M  END
$$$$
