ATI.pdb
     RDKit          3D

 21 20  0  0  1  0  0  0  0  0999 V2000
    8.6797  -12.2807   18.9288 C   0  0  0  0  0  0  0  0  0  0  0  0
    8.5966  -13.7683   18.8349 C   0  0  2  0  0  0  0  0  0  0  0  0
    8.0172  -14.1773   17.5576 N   0  0  0  0  0  0  0  0  0  0  0  0
    7.9471  -14.4395   19.9483 C   0  0  0  0  0  0  0  0  0  0  0  0
    6.6928  -14.5520   19.9524 O   0  0  0  0  0  0  0  0  0  0  0  0
    7.8421  -17.7134   20.7701 C   0  0  0  0  0  0  0  0  0  0  0  0
    8.4307  -17.1258   22.0267 C   0  0  1  0  0  0  0  0  0  0  0  0
    9.8089  -17.2612   22.0787 O   0  0  0  0  0  0  0  0  0  0  0  0
    8.0897  -15.6465   22.1713 C   0  0  2  0  0  0  0  0  0  0  0  0
    8.6832  -14.9675   21.0230 N   0  0  0  0  0  0  0  0  0  0  0  0
    8.6210  -15.0807   23.4439 C   0  0  0  0  0  0  0  0  0  0  0  0
    9.8324  -14.6638   23.4336 O   0  0  0  0  0  0  0  0  0  0  0  0
    5.6970  -11.8222   26.3865 C   0  0  0  0  0  0  0  0  0  0  0  0
    6.7959  -12.5919   25.7343 C   0  0  0  0  0  0  0  0  0  0  0  0
    7.3937  -13.6807   26.5963 C   0  0  2  0  0  0  0  0  0  0  0  0
    8.0393  -13.1520   27.8297 C   0  0  0  0  0  0  0  0  0  0  0  0
    8.4062  -14.4964   25.8247 C   0  0  2  0  0  0  0  0  0  0  0  0
    7.8292  -15.0036   24.6138 N   0  0  0  0  0  0  0  0  0  0  0  0
    8.8990  -15.6199   26.6840 C   0  0  0  0  0  0  0  0  0  0  0  0
    8.3174  -16.7407   26.5706 O   0  0  0  0  0  0  0  0  0  0  0  0
    9.9342  -15.5107   27.5794 O   0  0  0  0  0  0  0  0  0  0  0  0
  2  4  1  0
  2  3  1  0
  2  1  1  1
  4  5  2  0
  7  6  1  6
  7  9  1  0
  8  7  1  0
  9 11  1  0
  9 10  1  6
 10  4  1  0
 11 18  1  0
 11 12  2  0
 13 14  1  0
 14 15  1  0
 15 16  1  1
 17 15  1  0
 17 18  1  6
 19 17  1  0
 19 21  1  0
 20 19  2  0
M  END
$$$$
