ATI.pdb
     RDKit          3D

 21 20  0  0  1  0  0  0  0  0999 V2000
    8.7212  -12.4618   19.1815 C   0  0  0  0  0  0  0  0  0  0  0  0
    8.4834  -13.9347   19.1270 C   0  0  2  0  0  0  0  0  0  0  0  0
    7.6749  -14.2883   17.9626 N   0  0  0  0  0  0  0  0  0  0  0  0
    7.9556  -14.5379   20.3393 C   0  0  0  0  0  0  0  0  0  0  0  0
    6.7087  -14.5949   20.5060 O   0  0  0  0  0  0  0  0  0  0  0  0
    8.0873  -17.8337   21.0883 C   0  0  0  0  0  0  0  0  0  0  0  0
    8.7321  -17.2421   22.3151 C   0  0  1  0  0  0  0  0  0  0  0  0
   10.1154  -17.3149   22.2729 O   0  0  0  0  0  0  0  0  0  0  0  0
    8.3357  -15.7830   22.5128 C   0  0  2  0  0  0  0  0  0  0  0  0
    8.8016  -15.0606   21.3326 N   0  0  0  0  0  0  0  0  0  0  0  0
    8.9419  -15.2100   23.7483 C   0  0  0  0  0  0  0  0  0  0  0  0
   10.1490  -14.7896   23.6622 O   0  0  0  0  0  0  0  0  0  0  0  0
    5.9670  -12.0733   26.4610 C   0  0  0  0  0  0  0  0  0  0  0  0
    7.2406  -12.6562   25.9478 C   0  0  0  0  0  0  0  0  0  0  0  0
    7.8787  -13.6722   26.8680 C   0  0  2  0  0  0  0  0  0  0  0  0
    8.5862  -13.0453   28.0187 C   0  0  0  0  0  0  0  0  0  0  0  0
    8.8498  -14.5561   26.1188 C   0  0  2  0  0  0  0  0  0  0  0  0
    8.2228  -15.1304   24.9641 N   0  0  0  0  0  0  0  0  0  0  0  0
    9.3527  -15.6303   27.0338 C   0  0  0  0  0  0  0  0  0  0  0  0
   10.2008  -15.2971   27.9152 O   0  0  0  0  0  0  0  0  0  0  0  0
    8.9537  -16.9428   26.9765 O   0  0  0  0  0  0  0  0  0  0  0  0
  2  4  1  0
  2  3  1  0
  2  1  1  1
  4  5  2  0
  7  6  1  6
  7  9  1  0
  8  7  1  0
  9 11  1  0
  9 10  1  6
 10  4  1  0
 11 18  1  0
 11 12  2  0
 13 14  1  0
 14 15  1  0
 15 16  1  1
 17 15  1  0
 17 18  1  6
 19 17  1  0
 19 21  1  0
 20 19  2  0
M  END
$$$$
