ATI.pdb
     RDKit          3D

 21 20  0  0  1  0  0  0  0  0999 V2000
   12.1710  -17.2489   19.7593 C   0  0  0  0  0  0  0  0  0  0  0  0
   10.7412  -17.4539   19.3820 C   0  0  2  0  0  0  0  0  0  0  0  0
   10.5792  -17.4394   17.9300 N   0  0  0  0  0  0  0  0  0  0  0  0
    9.7814  -16.5751   20.0291 C   0  0  0  0  0  0  0  0  0  0  0  0
    9.6004  -15.4166   19.5700 O   0  0  0  0  0  0  0  0  0  0  0  0
    6.1823  -17.4905   20.5951 C   0  0  0  0  0  0  0  0  0  0  0  0
    6.7876  -17.1345   21.9284 C   0  0  1  0  0  0  0  0  0  0  0  0
    7.1979  -18.2518   22.6382 O   0  0  0  0  0  0  0  0  0  0  0  0
    7.9830  -16.2004   21.7738 C   0  0  2  0  0  0  0  0  0  0  0  0
    9.0483  -16.9849   21.1561 N   0  0  0  0  0  0  0  0  0  0  0  0
    8.4304  -15.6564   23.0877 C   0  0  0  0  0  0  0  0  0  0  0  0
    9.5951  -16.0024   23.4938 O   0  0  0  0  0  0  0  0  0  0  0  0
    7.0523  -11.2866   27.2890 C   0  0  0  0  0  0  0  0  0  0  0  0
    7.8074  -12.4817   26.8126 C   0  0  0  0  0  0  0  0  0  0  0  0
    7.2268  -13.1378   25.5803 C   0  0  2  0  0  0  0  0  0  0  0  0
    5.8525  -13.6671   25.8008 C   0  0  0  0  0  0  0  0  0  0  0  0
    8.1114  -14.2614   25.0896 C   0  0  2  0  0  0  0  0  0  0  0  0
    7.6116  -14.7962   23.8565 N   0  0  0  0  0  0  0  0  0  0  0  0
    8.1843  -15.3306   26.1361 C   0  0  0  0  0  0  0  0  0  0  0  0
    8.9010  -15.1016   27.1564 O   0  0  0  0  0  0  0  0  0  0  0  0
    7.5270  -16.5336   26.0582 O   0  0  0  0  0  0  0  0  0  0  0  0
  2  4  1  0
  2  3  1  0
  2  1  1  6
  4  5  2  0
  7  6  1  6
  7  9  1  0
  8  7  1  0
  9 11  1  0
  9 10  1  1
 10  4  1  0
 11 18  1  0
 11 12  2  0
 13 14  1  0
 14 15  1  0
 15 16  1  1
 17 15  1  0
 17 18  1  6
 19 17  1  0
 19 21  1  0
 20 19  2  0
M  END
$$$$
