ATI.pdb
     RDKit          3D

 21 20  0  0  1  0  0  0  0  0999 V2000
    8.4029  -12.1581   19.2282 C   0  0  0  0  0  0  0  0  0  0  0  0
    8.5039  -13.6205   18.9454 C   0  0  2  0  0  0  0  0  0  0  0  0
    7.9734  -13.9319   17.6202 N   0  0  0  0  0  0  0  0  0  0  0  0
    7.9478  -14.5029   19.9574 C   0  0  0  0  0  0  0  0  0  0  0  0
    6.7219  -14.7882   19.9191 O   0  0  0  0  0  0  0  0  0  0  0  0
    8.3634  -18.1413   23.0630 C   0  0  0  0  0  0  0  0  0  0  0  0
    8.6974  -17.2629   21.8850 C   0  0  1  0  0  0  0  0  0  0  0  0
    8.1464  -17.7313   20.7029 O   0  0  0  0  0  0  0  0  0  0  0  0
    8.2239  -15.8291   22.0984 C   0  0  2  0  0  0  0  0  0  0  0  0
    8.7436  -15.0475   20.9800 N   0  0  0  0  0  0  0  0  0  0  0  0
    8.7116  -15.2750   23.3935 C   0  0  0  0  0  0  0  0  0  0  0  0
    9.9753  -15.1009   23.5121 O   0  0  0  0  0  0  0  0  0  0  0  0
    5.5576  -11.7927   25.9949 C   0  0  0  0  0  0  0  0  0  0  0  0
    6.7134  -12.5490   25.4313 C   0  0  0  0  0  0  0  0  0  0  0  0
    7.3087  -13.5729   26.3711 C   0  0  2  0  0  0  0  0  0  0  0  0
    7.9215  -12.9587   27.5814 C   0  0  0  0  0  0  0  0  0  0  0  0
    8.3482  -14.4193   25.6719 C   0  0  2  0  0  0  0  0  0  0  0  0
    7.8251  -14.9530   24.4480 N   0  0  0  0  0  0  0  0  0  0  0  0
    8.7855  -15.5243   26.5837 C   0  0  0  0  0  0  0  0  0  0  0  0
    8.0637  -16.5656   26.6278 O   0  0  0  0  0  0  0  0  0  0  0  0
    9.9117  -15.4785   27.3678 O   0  0  0  0  0  0  0  0  0  0  0  0
  2  4  1  0
  2  3  1  0
  2  1  1  1
  4  5  2  0
  7  6  1  1
  7  9  1  0
  8  7  1  0
  9 11  1  0
  9 10  1  6
 10  4  1  0
 11 18  1  0
 11 12  2  0
 13 14  1  0
 14 15  1  0
 15 16  1  1
 17 15  1  0
 17 18  1  6
 19 17  1  0
 19 21  1  0
 20 19  2  0
M  END
$$$$
