ATI.pdb
     RDKit          3D

 21 20  0  0  1  0  0  0  0  0999 V2000
    8.6203  -12.3773   18.6720 C   0  0  0  0  0  0  0  0  0  0  0  0
    8.5990  -13.8700   18.6701 C   0  0  2  0  0  0  0  0  0  0  0  0
    7.9667  -14.3797   17.4556 N   0  0  0  0  0  0  0  0  0  0  0  0
    8.0449  -14.4987   19.8575 C   0  0  0  0  0  0  0  0  0  0  0  0
    6.7946  -14.5678   19.9909 O   0  0  0  0  0  0  0  0  0  0  0  0
    8.6072  -17.8833   20.6794 C   0  0  0  0  0  0  0  0  0  0  0  0
    9.0021  -17.1643   21.9435 C   0  0  1  0  0  0  0  0  0  0  0  0
   10.3758  -17.0317   22.0695 O   0  0  0  0  0  0  0  0  0  0  0  0
    8.3784  -15.7749   22.0205 C   0  0  2  0  0  0  0  0  0  0  0  0
    8.8692  -15.0326   20.8630 N   0  0  0  0  0  0  0  0  0  0  0  0
    8.7472  -15.0749   23.2839 C   0  0  0  0  0  0  0  0  0  0  0  0
    9.8256  -14.3834   23.2717 O   0  0  0  0  0  0  0  0  0  0  0  0
    6.6825  -11.4805   27.4852 C   0  0  0  0  0  0  0  0  0  0  0  0
    7.6132  -12.6067   27.1841 C   0  0  0  0  0  0  0  0  0  0  0  0
    7.2212  -13.4378   25.9834 C   0  0  2  0  0  0  0  0  0  0  0  0
    5.9507  -14.1868   26.1891 C   0  0  0  0  0  0  0  0  0  0  0  0
    8.3127  -14.4170   25.6150 C   0  0  2  0  0  0  0  0  0  0  0  0
    7.9473  -15.1650   24.4473 N   0  0  0  0  0  0  0  0  0  0  0  0
    8.5678  -15.3356   26.7703 C   0  0  0  0  0  0  0  0  0  0  0  0
    9.0352  -14.8236   27.8317 O   0  0  0  0  0  0  0  0  0  0  0  0
    8.3277  -16.6874   26.7498 O   0  0  0  0  0  0  0  0  0  0  0  0
  2  4  1  0
  2  3  1  0
  2  1  1  1
  4  5  2  0
  7  6  1  6
  7  9  1  0
  8  7  1  0
  9 11  1  0
  9 10  1  6
 10  4  1  0
 11 18  1  0
 11 12  2  0
 13 14  1  0
 14 15  1  0
 15 16  1  1
 17 15  1  0
 17 18  1  6
 19 17  1  0
 19 21  1  0
 20 19  2  0
M  END
$$$$
