ANG.pdb
     RDKit          3D

 18 17  0  0  1  0  0  0  0  0999 V2000
   28.8091  -20.4713  -16.7743 C   0  0  0  0  0  0  0  0  0  0  0  0
   27.3150  -20.1984  -16.8637 C   0  0  2  0  0  0  0  0  0  0  0  0
   27.1378  -18.7665  -16.7349 N   0  0  0  0  0  0  0  0  0  0  0  0
   26.6849  -20.9224  -15.7230 C   0  0  0  0  0  0  0  0  0  0  0  0
   26.6529  -22.1903  -15.6876 O   0  0  0  0  0  0  0  0  0  0  0  0
   25.7616  -22.3482  -10.9073 N   0  0  0  0  0  0  0  0  0  0  0  0
   25.7514  -20.9474  -11.0628 C   0  0  0  0  0  0  0  0  0  0  0  0
   25.2772  -20.2467  -10.1352 O   0  0  0  0  0  0  0  0  0  0  0  0
   26.2975  -20.3660  -12.3070 C   0  0  0  0  0  0  0  0  0  0  0  0
   25.4858  -20.7447  -13.5369 C   0  0  2  0  0  0  0  0  0  0  0  0
   26.1242  -20.1351  -14.6818 N   0  0  0  0  0  0  0  0  0  0  0  0
   24.1567  -20.1178  -13.3590 C   0  0  0  0  0  0  0  0  0  0  0  0
   24.0342  -18.8927  -13.6078 O   0  0  0  0  0  0  0  0  0  0  0  0
   23.0262  -20.8824  -12.9128 N   0  0  0  0  0  0  0  0  0  0  0  0
   21.7740  -20.1651  -12.7870 C   0  0  0  0  0  0  0  0  0  0  0  0
   20.9355  -20.4854  -13.9645 C   0  0  0  0  0  0  0  0  0  0  0  0
   21.4517  -20.3589  -15.1079 O   0  0  0  0  0  0  0  0  0  0  0  0
   19.6313  -20.9119  -13.8986 O   0  0  0  0  0  0  0  0  0  0  0  0
  2  1  1  1
  2  3  1  0
  4  5  2  0
  4  2  1  0
  6  7  1  0
  7  8  2  0
  9  7  1  0
 10  9  1  1
 10 11  1  0
 11  4  1  0
 12 10  1  0
 12 14  1  0
 13 12  2  0
 15 14  1  0
 15 16  1  0
 16 17  2  0
 16 18  1  0
M  END
$$$$
