ANG.pdb
     RDKit          3D

 18 17  0  0  1  0  0  0  0  0999 V2000
   22.3382  -13.4355  -16.1072 C   0  0  0  0  0  0  0  0  0  0  0  0
   21.7584  -12.0451  -16.3216 C   0  0  2  0  0  0  0  0  0  0  0  0
   21.8698  -11.7536  -17.7361 N   0  0  0  0  0  0  0  0  0  0  0  0
   22.5929  -11.1109  -15.5132 C   0  0  0  0  0  0  0  0  0  0  0  0
   22.6806  -11.2320  -14.2533 O   0  0  0  0  0  0  0  0  0  0  0  0
   25.9815  -11.1579  -14.8973 N   0  0  0  0  0  0  0  0  0  0  0  0
   26.4152  -10.2367  -15.8717 C   0  0  0  0  0  0  0  0  0  0  0  0
   27.5739  -10.3620  -16.3387 O   0  0  0  0  0  0  0  0  0  0  0  0
   25.4903   -9.1664  -16.3001 C   0  0  0  0  0  0  0  0  0  0  0  0
   24.1799   -9.1797  -15.5273 C   0  0  2  0  0  0  0  0  0  0  0  0
   23.2828  -10.0838  -16.2112 N   0  0  0  0  0  0  0  0  0  0  0  0
   23.6280   -7.8103  -15.6338 C   0  0  0  0  0  0  0  0  0  0  0  0
   24.2395   -6.8722  -15.0646 O   0  0  0  0  0  0  0  0  0  0  0  0
   22.4224   -7.5481  -16.3681 N   0  0  0  0  0  0  0  0  0  0  0  0
   21.9770   -6.1701  -16.4022 C   0  0  0  0  0  0  0  0  0  0  0  0
   20.9602   -5.9848  -15.3420 C   0  0  0  0  0  0  0  0  0  0  0  0
   20.4055   -4.8564  -15.2477 O   0  0  0  0  0  0  0  0  0  0  0  0
   20.5778   -6.9584  -14.4515 O   0  0  0  0  0  0  0  0  0  0  0  0
  2  1  1  6
  2  3  1  0
  4  5  2  0
  4  2  1  0
  6  7  1  0
  7  8  2  0
  9  7  1  0
 10  9  1  6
 10 11  1  0
 11  4  1  0
 12 10  1  0
 12 14  1  0
 13 12  2  0
 15 14  1  0
 15 16  1  0
 16 17  2  0
 16 18  1  0
M  END
$$$$
