ANG.pdb
     RDKit          3D

 18 17  0  0  1  0  0  0  0  0999 V2000
   21.7373  -11.8862  -19.0956 C   0  0  0  0  0  0  0  0  0  0  0  0
   22.4910  -11.3423  -17.8910 C   0  0  2  0  0  0  0  0  0  0  0  0
   22.2669  -12.2669  -16.7987 N   0  0  0  0  0  0  0  0  0  0  0  0
   21.9015  -10.0057  -17.5930 C   0  0  0  0  0  0  0  0  0  0  0  0
   22.0387   -9.0339  -18.3970 O   0  0  0  0  0  0  0  0  0  0  0  0
   18.2682   -7.2731  -16.9419 N   0  0  0  0  0  0  0  0  0  0  0  0
   18.0058   -8.2876  -15.9995 C   0  0  0  0  0  0  0  0  0  0  0  0
   16.8130   -8.5078  -15.6752 O   0  0  0  0  0  0  0  0  0  0  0  0
   19.1422   -9.0459  -15.4357 C   0  0  0  0  0  0  0  0  0  0  0  0
   20.4754   -8.6491  -16.0521 C   0  0  2  0  0  0  0  0  0  0  0  0
   21.1829   -9.8677  -16.3753 N   0  0  0  0  0  0  0  0  0  0  0  0
   21.2256   -7.9461  -14.9872 C   0  0  0  0  0  0  0  0  0  0  0  0
   21.8568   -8.6329  -14.1459 O   0  0  0  0  0  0  0  0  0  0  0  0
   21.2390   -6.5125  -14.9077 N   0  0  0  0  0  0  0  0  0  0  0  0
   22.1168   -5.9318  -13.9124 C   0  0  0  0  0  0  0  0  0  0  0  0
   22.0012   -4.4580  -13.9951 C   0  0  0  0  0  0  0  0  0  0  0  0
   21.3178   -3.9721  -14.9369 O   0  0  0  0  0  0  0  0  0  0  0  0
   22.5876   -3.5807  -13.1157 O   0  0  0  0  0  0  0  0  0  0  0  0
  2  1  1  6
  2  3  1  0
  4  5  2  0
  4  2  1  0
  6  7  1  0
  7  8  2  0
  9  7  1  0
 10  9  1  1
 10 11  1  0
 11  4  1  0
 12 10  1  0
 12 14  1  0
 13 12  2  0
 15 14  1  0
 15 16  1  0
 16 17  2  0
 16 18  1  0
M  END
$$$$
