ANG.pdb
     RDKit          3D

 18 17  0  0  1  0  0  0  0  0999 V2000
   26.4304  -19.2128  -17.8233 C   0  0  0  0  0  0  0  0  0  0  0  0
   27.1806  -19.0464  -16.5101 C   0  0  2  0  0  0  0  0  0  0  0  0
   28.5574  -19.4220  -16.7586 N   0  0  0  0  0  0  0  0  0  0  0  0
   26.5379  -19.9747  -15.5365 C   0  0  0  0  0  0  0  0  0  0  0  0
   26.0192  -21.0683  -15.9168 O   0  0  0  0  0  0  0  0  0  0  0  0
   25.4801  -22.0624  -10.9756 N   0  0  0  0  0  0  0  0  0  0  0  0
   26.3635  -20.9930  -10.7265 C   0  0  0  0  0  0  0  0  0  0  0  0
   26.8276  -20.8588   -9.5677 O   0  0  0  0  0  0  0  0  0  0  0  0
   26.7043  -20.0787  -11.8367 C   0  0  0  0  0  0  0  0  0  0  0  0
   26.0160  -20.4566  -13.1399 C   0  0  2  0  0  0  0  0  0  0  0  0
   26.5312  -19.5838  -14.1708 N   0  0  0  0  0  0  0  0  0  0  0  0
   24.5805  -20.1506  -12.9483 C   0  0  0  0  0  0  0  0  0  0  0  0
   24.2248  -18.9466  -12.9090 O   0  0  0  0  0  0  0  0  0  0  0  0
   23.6078  -21.1977  -12.8093 N   0  0  0  0  0  0  0  0  0  0  0  0
   22.2316  -20.7785  -12.6401 C   0  0  0  0  0  0  0  0  0  0  0  0
   21.4504  -21.2735  -13.7964 C   0  0  0  0  0  0  0  0  0  0  0  0
   21.9229  -21.0871  -14.9504 O   0  0  0  0  0  0  0  0  0  0  0  0
   20.2439  -21.9234  -13.6999 O   0  0  0  0  0  0  0  0  0  0  0  0
  2  1  1  6
  2  3  1  0
  4  5  2  0
  4  2  1  0
  6  7  1  0
  7  8  2  0
  9  7  1  0
 10  9  1  1
 10 11  1  0
 11  4  1  0
 12 10  1  0
 12 14  1  0
 13 12  2  0
 15 14  1  0
 15 16  1  0
 16 17  2  0
 16 18  1  0
M  END
$$$$
