ANG.pdb
     RDKit          3D

 18 17  0  0  1  0  0  0  0  0999 V2000
   18.5376   -9.9150  -15.0045 C   0  0  0  0  0  0  0  0  0  0  0  0
   17.9680   -8.5465  -15.3474 C   0  0  2  0  0  0  0  0  0  0  0  0
   18.0603   -8.3978  -16.7854 N   0  0  0  0  0  0  0  0  0  0  0  0
   18.8237   -7.5460  -14.6479 C   0  0  0  0  0  0  0  0  0  0  0  0
   18.8552   -7.4807  -13.3812 O   0  0  0  0  0  0  0  0  0  0  0  0
   22.2394   -7.2115  -12.8395 N   0  0  0  0  0  0  0  0  0  0  0  0
   22.3262   -7.4826  -14.2198 C   0  0  0  0  0  0  0  0  0  0  0  0
   22.7116   -8.6213  -14.5820 O   0  0  0  0  0  0  0  0  0  0  0  0
   21.9610   -6.4182  -15.1780 C   0  0  0  0  0  0  0  0  0  0  0  0
   20.6010   -5.8039  -14.8818 C   0  0  2  0  0  0  0  0  0  0  0  0
   19.5988   -6.6727  -15.4570 N   0  0  0  0  0  0  0  0  0  0  0  0
   20.5678   -4.5140  -15.6071 C   0  0  0  0  0  0  0  0  0  0  0  0
   20.5940   -4.5322  -16.8628 O   0  0  0  0  0  0  0  0  0  0  0  0
   20.5071   -3.2645  -14.9024 N   0  0  0  0  0  0  0  0  0  0  0  0
   20.5083   -2.0663  -15.7165 C   0  0  0  0  0  0  0  0  0  0  0  0
   20.4688   -0.8927  -14.8146 C   0  0  0  0  0  0  0  0  0  0  0  0
   20.3321   -1.1030  -13.5789 O   0  0  0  0  0  0  0  0  0  0  0  0
   20.5710    0.4125  -15.2307 O   0  0  0  0  0  0  0  0  0  0  0  0
  2  1  1  6
  2  3  1  0
  4  5  2  0
  4  2  1  0
  6  7  1  0
  7  8  2  0
  9  7  1  0
 10  9  1  6
 10 11  1  0
 11  4  1  0
 12 10  1  0
 12 14  1  0
 13 12  2  0
 15 14  1  0
 15 16  1  0
 16 17  2  0
 16 18  1  0
M  END
$$$$
