ANG.pdb
     RDKit          3D

 18 17  0  0  1  0  0  0  0  0999 V2000
   19.3154  -11.5564  -16.5755 C   0  0  0  0  0  0  0  0  0  0  0  0
   19.3244  -10.2720  -17.3911 C   0  0  2  0  0  0  0  0  0  0  0  0
   20.5278  -10.2909  -18.1972 N   0  0  0  0  0  0  0  0  0  0  0  0
   19.3525   -9.1497  -16.4101 C   0  0  0  0  0  0  0  0  0  0  0  0
   18.3895   -8.9555  -15.6072 O   0  0  0  0  0  0  0  0  0  0  0  0
   22.1920   -9.2871  -13.1619 N   0  0  0  0  0  0  0  0  0  0  0  0
   21.6703   -7.9994  -13.3982 C   0  0  0  0  0  0  0  0  0  0  0  0
   21.0304   -7.4355  -12.4769 O   0  0  0  0  0  0  0  0  0  0  0  0
   21.8985   -7.3705  -14.7161 C   0  0  0  0  0  0  0  0  0  0  0  0
   20.6130   -7.1881  -15.5093 C   0  0  2  0  0  0  0  0  0  0  0  0
   20.4988   -8.3106  -16.4131 N   0  0  0  0  0  0  0  0  0  0  0  0
   20.8003   -5.9609  -16.3156 C   0  0  0  0  0  0  0  0  0  0  0  0
   21.4236   -6.0479  -17.4026 O   0  0  0  0  0  0  0  0  0  0  0  0
   20.2857   -4.6948  -15.8755 N   0  0  0  0  0  0  0  0  0  0  0  0
   20.4797   -3.5746  -16.7733 C   0  0  0  0  0  0  0  0  0  0  0  0
   19.8358   -2.3833  -16.1746 C   0  0  0  0  0  0  0  0  0  0  0  0
   19.9679   -1.2798  -16.7703 O   0  0  0  0  0  0  0  0  0  0  0  0
   19.1028   -2.3959  -15.0129 O   0  0  0  0  0  0  0  0  0  0  0  0
  2  1  1  1
  2  3  1  0
  4  5  2  0
  4  2  1  0
  6  7  1  0
  7  8  2  0
  9  7  1  0
 10  9  1  1
 10 11  1  0
 11  4  1  0
 12 10  1  0
 12 14  1  0
 13 12  2  0
 15 14  1  0
 15 16  1  0
 16 17  2  0
 16 18  1  0
M  END
$$$$
