ANG.pdb
     RDKit          3D

 18 17  0  0  1  0  0  0  0  0999 V2000
   21.4379  -10.7896  -19.5573 C   0  0  0  0  0  0  0  0  0  0  0  0
   21.9691   -9.7514  -18.5801 C   0  0  2  0  0  0  0  0  0  0  0  0
   22.8993  -10.4326  -17.7031 N   0  0  0  0  0  0  0  0  0  0  0  0
   20.7901   -9.2434  -17.8221 C   0  0  0  0  0  0  0  0  0  0  0  0
   19.8621   -8.6031  -18.4040 O   0  0  0  0  0  0  0  0  0  0  0  0
   17.3956  -10.2746  -16.4759 N   0  0  0  0  0  0  0  0  0  0  0  0
   17.9922  -10.8349  -15.3285 C   0  0  0  0  0  0  0  0  0  0  0  0
   17.4891  -11.8772  -14.8419 O   0  0  0  0  0  0  0  0  0  0  0  0
   19.1804  -10.1733  -14.7497 C   0  0  0  0  0  0  0  0  0  0  0  0
   19.6752   -9.0105  -15.5970 C   0  0  2  0  0  0  0  0  0  0  0  0
   20.7506   -9.5058  -16.4265 N   0  0  0  0  0  0  0  0  0  0  0  0
   20.2382   -8.0234  -14.6485 C   0  0  0  0  0  0  0  0  0  0  0  0
   19.4612   -7.4622  -13.8367 O   0  0  0  0  0  0  0  0  0  0  0  0
   21.6387   -7.7067  -14.6470 N   0  0  0  0  0  0  0  0  0  0  0  0
   22.0794   -6.7446  -13.6577 C   0  0  0  0  0  0  0  0  0  0  0  0
   21.9750   -5.3909  -14.2483 C   0  0  0  0  0  0  0  0  0  0  0  0
   21.5238   -5.2928  -15.4217 O   0  0  0  0  0  0  0  0  0  0  0  0
   22.3359   -4.2315  -13.6061 O   0  0  0  0  0  0  0  0  0  0  0  0
  2  1  1  6
  2  3  1  0
  4  5  2  0
  4  2  1  0
  6  7  1  0
  7  8  2  0
  9  7  1  0
 10  9  1  1
 10 11  1  0
 11  4  1  0
 12 10  1  0
 12 14  1  0
 13 12  2  0
 15 14  1  0
 15 16  1  0
 16 17  2  0
 16 18  1  0
M  END
$$$$
