ANG.pdb
     RDKit          3D

 18 17  0  0  1  0  0  0  0  0999 V2000
   21.3688  -12.1013  -17.6614 C   0  0  0  0  0  0  0  0  0  0  0  0
   20.7587  -10.8904  -18.3516 C   0  0  2  0  0  0  0  0  0  0  0  0
   21.7985  -10.3014  -19.1703 N   0  0  0  0  0  0  0  0  0  0  0  0
   20.3342   -9.9573  -17.2691 C   0  0  0  0  0  0  0  0  0  0  0  0
   19.4030  -10.2659  -16.4644 O   0  0  0  0  0  0  0  0  0  0  0  0
   20.5004   -5.9188  -14.1022 N   0  0  0  0  0  0  0  0  0  0  0  0
   21.8117   -6.2792  -14.4725 C   0  0  0  0  0  0  0  0  0  0  0  0
   22.7695   -5.8151  -13.8066 O   0  0  0  0  0  0  0  0  0  0  0  0
   22.0017   -7.1847  -15.6251 C   0  0  0  0  0  0  0  0  0  0  0  0
   20.6902   -7.7517  -16.1479 C   0  0  2  0  0  0  0  0  0  0  0  0
   21.0140   -8.7133  -17.1777 N   0  0  0  0  0  0  0  0  0  0  0  0
   19.9773   -6.6186  -16.7793 C   0  0  0  0  0  0  0  0  0  0  0  0
   20.3693   -6.2155  -17.9026 O   0  0  0  0  0  0  0  0  0  0  0  0
   18.8620   -5.9868  -16.1324 N   0  0  0  0  0  0  0  0  0  0  0  0
   18.1824   -4.9531  -16.8862 C   0  0  0  0  0  0  0  0  0  0  0  0
   18.6679   -3.6374  -16.4113 C   0  0  0  0  0  0  0  0  0  0  0  0
   19.5109   -3.6234  -15.4737 O   0  0  0  0  0  0  0  0  0  0  0  0
   18.2634   -2.4280  -16.9219 O   0  0  0  0  0  0  0  0  0  0  0  0
  2  1  1  1
  2  3  1  0
  4  5  2  0
  4  2  1  0
  6  7  1  0
  7  8  2  0
  9  7  1  0
 10  9  1  6
 10 11  1  0
 11  4  1  0
 12 10  1  0
 12 14  1  0
 13 12  2  0
 15 14  1  0
 15 16  1  0
 16 17  2  0
 16 18  1  0
M  END
$$$$
