ANG.pdb
     RDKit          3D

 18 17  0  0  1  0  0  0  0  0999 V2000
   16.8654  -11.7533  -17.0303 C   0  0  0  0  0  0  0  0  0  0  0  0
   16.7659  -10.4531  -16.2464 C   0  0  2  0  0  0  0  0  0  0  0  0
   16.5818   -9.3895  -17.2125 N   0  0  0  0  0  0  0  0  0  0  0  0
   18.0578  -10.2997  -15.5182 C   0  0  0  0  0  0  0  0  0  0  0  0
   18.3711  -11.0779  -14.5664 O   0  0  0  0  0  0  0  0  0  0  0  0
   22.8853   -9.1424  -14.6210 N   0  0  0  0  0  0  0  0  0  0  0  0
   22.6366   -9.4517  -15.9733 C   0  0  0  0  0  0  0  0  0  0  0  0
   23.6099   -9.7577  -16.7050 O   0  0  0  0  0  0  0  0  0  0  0  0
   21.2454   -9.4025  -16.4699 C   0  0  0  0  0  0  0  0  0  0  0  0
   20.2409   -9.0913  -15.3704 C   0  0  2  0  0  0  0  0  0  0  0  0
   18.9191   -9.2493  -15.9340 N   0  0  0  0  0  0  0  0  0  0  0  0
   20.4332   -7.6630  -15.0327 C   0  0  0  0  0  0  0  0  0  0  0  0
   20.1438   -6.7989  -15.8973 O   0  0  0  0  0  0  0  0  0  0  0  0
   20.9382   -7.2624  -13.7497 N   0  0  0  0  0  0  0  0  0  0  0  0
   20.9282   -5.8411  -13.4700 C   0  0  0  0  0  0  0  0  0  0  0  0
   22.1388   -5.2407  -14.0752 C   0  0  0  0  0  0  0  0  0  0  0  0
   22.9318   -6.0047  -14.6895 O   0  0  0  0  0  0  0  0  0  0  0  0
   22.4594   -3.9063  -14.0144 O   0  0  0  0  0  0  0  0  0  0  0  0
  2  1  1  6
  2  3  1  0
  4  5  2  0
  4  2  1  0
  6  7  1  0
  7  8  2  0
  9  7  1  0
 10  9  1  6
 10 11  1  0
 11  4  1  0
 12 10  1  0
 12 14  1  0
 13 12  2  0
 15 14  1  0
 15 16  1  0
 16 17  2  0
 16 18  1  0
M  END
$$$$
