ANG.pdb
     RDKit          3D

 18 17  0  0  1  0  0  0  0  0999 V2000
   12.3235  -10.0503  -10.0352 C   0  0  0  0  0  0  0  0  0  0  0  0
   13.5435  -10.4355  -10.8587 C   0  0  2  0  0  0  0  0  0  0  0  0
   14.2726  -11.4282  -10.0962 N   0  0  0  0  0  0  0  0  0  0  0  0
   14.3476   -9.1917  -11.0286 C   0  0  0  0  0  0  0  0  0  0  0  0
   13.8902   -8.1970  -11.6698 O   0  0  0  0  0  0  0  0  0  0  0  0
   14.7778   -6.5612   -7.7079 N   0  0  0  0  0  0  0  0  0  0  0  0
   15.7115   -6.3771   -8.7473 C   0  0  0  0  0  0  0  0  0  0  0  0
   15.7182   -5.2796   -9.3571 O   0  0  0  0  0  0  0  0  0  0  0  0
   16.6395   -7.4802   -9.0735 C   0  0  0  0  0  0  0  0  0  0  0  0
   16.4719   -7.9855  -10.4988 C   0  0  2  0  0  0  0  0  0  0  0  0
   15.6423   -9.1681  -10.4444 N   0  0  0  0  0  0  0  0  0  0  0  0
   17.8226   -8.3872  -10.9521 C   0  0  0  0  0  0  0  0  0  0  0  0
   18.4123   -9.3083  -10.3343 O   0  0  0  0  0  0  0  0  0  0  0  0
   18.4541   -7.7460  -12.0708 N   0  0  0  0  0  0  0  0  0  0  0  0
   19.7761   -8.2224  -12.4229 C   0  0  0  0  0  0  0  0  0  0  0  0
   20.2784   -7.4055  -13.5510 C   0  0  0  0  0  0  0  0  0  0  0  0
   19.4656   -6.6325  -14.1270 O   0  0  0  0  0  0  0  0  0  0  0  0
   21.5710   -7.4306  -14.0153 O   0  0  0  0  0  0  0  0  0  0  0  0
  2  1  1  1
  2  3  1  0
  4  5  2  0
  4  2  1  0
  6  7  1  0
  7  8  2  0
  9  7  1  0
 10  9  1  1
 10 11  1  0
 11  4  1  0
 12 10  1  0
 12 14  1  0
 13 12  2  0
 15 14  1  0
 15 16  1  0
 16 17  2  0
 16 18  1  0
M  END
$$$$
