ANG.pdb
     RDKit          3D

 18 17  0  0  1  0  0  0  0  0999 V2000
   20.3933   -3.5705  -21.1962 C   0  0  0  0  0  0  0  0  0  0  0  0
   19.6910   -3.8593  -19.8777 C   0  0  2  0  0  0  0  0  0  0  0  0
   20.0824   -2.8159  -18.9523 N   0  0  0  0  0  0  0  0  0  0  0  0
   20.1797   -5.1922  -19.4226 C   0  0  0  0  0  0  0  0  0  0  0  0
   19.8824   -6.2512  -20.0550 O   0  0  0  0  0  0  0  0  0  0  0  0
   22.8435   -8.6649  -16.7444 N   0  0  0  0  0  0  0  0  0  0  0  0
   23.5747   -7.8329  -17.6159 C   0  0  0  0  0  0  0  0  0  0  0  0
   24.7250   -8.1963  -17.9640 O   0  0  0  0  0  0  0  0  0  0  0  0
   22.9578   -6.5729  -18.0808 C   0  0  0  0  0  0  0  0  0  0  0  0
   21.4838   -6.4725  -17.7173 C   0  0  2  0  0  0  0  0  0  0  0  0
   20.9889   -5.2254  -18.2555 N   0  0  0  0  0  0  0  0  0  0  0  0
   21.4311   -6.3933  -16.2401 C   0  0  0  0  0  0  0  0  0  0  0  0
   22.0435   -5.4574  -15.6683 O   0  0  0  0  0  0  0  0  0  0  0  0
   20.7001   -7.3582  -15.4680 N   0  0  0  0  0  0  0  0  0  0  0  0
   20.7798   -7.2232  -14.0279 C   0  0  0  0  0  0  0  0  0  0  0  0
   19.9939   -8.3182  -13.4151 C   0  0  0  0  0  0  0  0  0  0  0  0
   19.3271   -9.0656  -14.1811 O   0  0  0  0  0  0  0  0  0  0  0  0
   19.9400   -8.5777  -12.0672 O   0  0  0  0  0  0  0  0  0  0  0  0
  2  1  1  6
  2  3  1  0
  4  5  2  0
  4  2  1  0
  6  7  1  0
  7  8  2  0
  9  7  1  0
 10  9  1  1
 10 11  1  0
 11  4  1  0
 12 10  1  0
 12 14  1  0
 13 12  2  0
 15 14  1  0
 15 16  1  0
 16 17  2  0
 16 18  1  0
M  END
$$$$
