ANG.pdb
     RDKit          3D

 18 17  0  0  1  0  0  0  0  0999 V2000
   23.7844  -12.1277  -18.3003 C   0  0  0  0  0  0  0  0  0  0  0  0
   24.0460  -10.8060  -17.5935 C   0  0  2  0  0  0  0  0  0  0  0  0
   24.4020  -11.1210  -16.2252 N   0  0  0  0  0  0  0  0  0  0  0  0
   22.7707  -10.0361  -17.6532 C   0  0  0  0  0  0  0  0  0  0  0  0
   22.2957   -9.6379  -18.7603 O   0  0  0  0  0  0  0  0  0  0  0  0
   18.0849  -10.2271  -17.5714 N   0  0  0  0  0  0  0  0  0  0  0  0
   19.1722  -10.7476  -16.8413 C   0  0  0  0  0  0  0  0  0  0  0  0
   19.5614  -11.9132  -17.0984 O   0  0  0  0  0  0  0  0  0  0  0  0
   19.8051   -9.9015  -15.8078 C   0  0  0  0  0  0  0  0  0  0  0  0
   20.8909   -8.9982  -16.3736 C   0  0  2  0  0  0  0  0  0  0  0  0
   22.1131   -9.7687  -16.4227 N   0  0  0  0  0  0  0  0  0  0  0  0
   21.0697   -7.9073  -15.3893 C   0  0  0  0  0  0  0  0  0  0  0  0
   20.0802   -7.1866  -15.1076 O   0  0  0  0  0  0  0  0  0  0  0  0
   22.3402   -7.6688  -14.7644 N   0  0  0  0  0  0  0  0  0  0  0  0
   22.4069   -6.5467  -13.8506 C   0  0  0  0  0  0  0  0  0  0  0  0
   22.6708   -5.3215  -14.6389 C   0  0  0  0  0  0  0  0  0  0  0  0
   22.7560   -5.4335  -15.8919 O   0  0  0  0  0  0  0  0  0  0  0  0
   22.8298   -4.0681  -14.0995 O   0  0  0  0  0  0  0  0  0  0  0  0
  2  1  1  6
  2  3  1  0
  4  5  2  0
  4  2  1  0
  6  7  1  0
  7  8  2  0
  9  7  1  0
 10  9  1  1
 10 11  1  0
 11  4  1  0
 12 10  1  0
 12 14  1  0
 13 12  2  0
 15 14  1  0
 15 16  1  0
 16 17  2  0
 16 18  1  0
M  END
$$$$
