ANG.pdb
     RDKit          3D

 18 17  0  0  1  0  0  0  0  0999 V2000
   18.1475  -12.0690  -16.2028 C   0  0  0  0  0  0  0  0  0  0  0  0
   18.2482  -10.5986  -16.5806 C   0  0  2  0  0  0  0  0  0  0  0  0
   18.5566  -10.5452  -17.9950 N   0  0  0  0  0  0  0  0  0  0  0  0
   19.3597  -10.0290  -15.7665 C   0  0  0  0  0  0  0  0  0  0  0  0
   19.2728   -9.9472  -14.5034 O   0  0  0  0  0  0  0  0  0  0  0  0
   22.8377  -11.4813  -15.0554 N   0  0  0  0  0  0  0  0  0  0  0  0
   23.4556  -10.8041  -16.1258 C   0  0  0  0  0  0  0  0  0  0  0  0
   24.4535  -11.3349  -16.6724 O   0  0  0  0  0  0  0  0  0  0  0  0
   22.9041   -9.5025  -16.5571 C   0  0  0  0  0  0  0  0  0  0  0  0
   21.6768   -9.0915  -15.7571 C   0  0  2  0  0  0  0  0  0  0  0  0
   20.5151   -9.5837  -16.4628 N   0  0  0  0  0  0  0  0  0  0  0  0
   21.6452   -7.6119  -15.7873 C   0  0  0  0  0  0  0  0  0  0  0  0
   21.3828   -7.0406  -16.8747 O   0  0  0  0  0  0  0  0  0  0  0  0
   21.9068   -6.8371  -14.6071 N   0  0  0  0  0  0  0  0  0  0  0  0
   21.8099   -5.3986  -14.7477 C   0  0  0  0  0  0  0  0  0  0  0  0
   22.0329   -4.7865  -13.4181 C   0  0  0  0  0  0  0  0  0  0  0  0
   22.1954   -5.5576  -12.4337 O   0  0  0  0  0  0  0  0  0  0  0  0
   22.0755   -3.4340  -13.1811 O   0  0  0  0  0  0  0  0  0  0  0  0
  2  1  1  1
  2  3  1  0
  4  5  2  0
  4  2  1  0
  6  7  1  0
  7  8  2  0
  9  7  1  0
 10  9  1  6
 10 11  1  0
 11  4  1  0
 12 10  1  0
 12 14  1  0
 13 12  2  0
 15 14  1  0
 15 16  1  0
 16 17  2  0
 16 18  1  0
M  END
$$$$
