ANG.pdb
     RDKit          3D

 18 17  0  0  1  0  0  0  0  0999 V2000
   20.5246  -20.8761  -11.1697 C   0  0  0  0  0  0  0  0  0  0  0  0
   21.1306  -20.6658  -12.5494 C   0  0  2  0  0  0  0  0  0  0  0  0
   20.9925  -21.9164  -13.2673 N   0  0  0  0  0  0  0  0  0  0  0  0
   22.5660  -20.3266  -12.3326 C   0  0  0  0  0  0  0  0  0  0  0  0
   22.9108  -19.4340  -11.4994 O   0  0  0  0  0  0  0  0  0  0  0  0
   24.9832  -19.8216  -10.3378 N   0  0  0  0  0  0  0  0  0  0  0  0
   25.3288  -21.1845  -10.4356 C   0  0  0  0  0  0  0  0  0  0  0  0
   25.5943  -21.8108   -9.3803 O   0  0  0  0  0  0  0  0  0  0  0  0
   25.3636  -21.8152  -11.7717 C   0  0  0  0  0  0  0  0  0  0  0  0
   24.9452  -20.8620  -12.8813 C   0  0  2  0  0  0  0  0  0  0  0  0
   23.5269  -21.0426  -13.0955 N   0  0  0  0  0  0  0  0  0  0  0  0
   25.6587  -21.3116  -14.0978 C   0  0  0  0  0  0  0  0  0  0  0  0
   25.5407  -22.5108  -14.4525 O   0  0  0  0  0  0  0  0  0  0  0  0
   26.4698  -20.4069  -14.8628 N   0  0  0  0  0  0  0  0  0  0  0  0
   26.7775  -20.8096  -16.2198 C   0  0  0  0  0  0  0  0  0  0  0  0
   27.5639  -19.7292  -16.8574 C   0  0  0  0  0  0  0  0  0  0  0  0
   26.9328  -18.7858  -17.4065 O   0  0  0  0  0  0  0  0  0  0  0  0
   28.9364  -19.6823  -16.8926 O   0  0  0  0  0  0  0  0  0  0  0  0
  2  1  1  1
  2  3  1  0
  4  5  2  0
  4  2  1  0
  6  7  1  0
  7  8  2  0
  9  7  1  0
 10  9  1  1
 10 11  1  0
 11  4  1  0
 12 10  1  0
 12 14  1  0
 13 12  2  0
 15 14  1  0
 15 16  1  0
 16 17  2  0
 16 18  1  0
M  END
$$$$
