DSM.pdb
     RDKit          3D

 23 22  0  0  1  0  0  0  0  0999 V2000
   16.3430  -10.2050  -14.7647 N   0  0  0  0  0  0  0  0  0  0  0  0
   17.3529   -9.9463  -15.7425 C   0  0  1  0  0  0  0  0  0  0  0  0
   16.7381   -9.2867  -16.9715 C   0  0  0  0  0  0  0  0  0  0  0  0
   15.7685  -10.1978  -17.5944 C   0  0  0  0  0  0  0  0  0  0  0  0
   14.5624   -9.8416  -17.6982 O   0  0  0  0  0  0  0  0  0  0  0  0
   18.4169   -9.0238  -15.2199 C   0  0  0  0  0  0  0  0  0  0  0  0
   18.1119   -7.8989  -14.7556 O   0  0  0  0  0  0  0  0  0  0  0  0
   16.1413  -11.4263  -18.0661 O   0  0  0  0  0  0  0  0  0  0  0  0
   22.3393  -10.1400  -15.5942 O   0  0  0  0  0  0  0  0  0  0  0  0
   22.1258   -9.3066  -14.5051 C   0  0  0  0  0  0  0  0  0  0  0  0
   20.8545   -8.5167  -14.7140 C   0  0  2  0  0  0  0  0  0  0  0  0
   19.7880   -9.3831  -15.2309 N   0  0  0  0  0  0  0  0  0  0  0  0
   21.1174   -7.4662  -15.7300 C   0  0  0  0  0  0  0  0  0  0  0  0
   20.8325   -7.6936  -16.9515 O   0  0  0  0  0  0  0  0  0  0  0  0
   18.7411   -2.1312  -19.8381 C   0  0  0  0  0  0  0  0  0  0  0  0
   18.8005   -3.5824  -18.7663 S   0  0  0  0  0  0  0  0  0  0  0  0
   20.4710   -3.7758  -18.0405 C   0  0  0  0  0  0  0  0  0  0  0  0
   20.4941   -4.9737  -17.1364 C   0  0  0  0  0  0  0  0  0  0  0  0
   21.8380   -5.2108  -16.5228 C   0  0  2  0  0  0  0  0  0  0  0  0
   21.6691   -6.2027  -15.4577 N   0  0  0  0  0  0  0  0  0  0  0  0
   22.4351   -3.9671  -15.9731 C   0  0  0  0  0  0  0  0  0  0  0  0
   22.9709   -3.0274  -16.8417 O   0  0  0  0  0  0  0  0  0  0  0  0
   22.4828   -3.7155  -14.7528 O   0  0  0  0  0  0  0  0  0  0  0  0
  2  1  1  1
  3  4  1  0
  3  2  1  0
  4  8  1  0
  5  4  2  0
  6  7  2  0
  6  2  1  0
  9 10  1  0
 11 10  1  6
 11 13  1  0
 11 12  1  0
 12  6  1  0
 13 14  2  0
 16 15  1  0
 17 16  1  0
 18 17  1  0
 19 18  1  1
 20 13  1  0
 20 19  1  0
 21 22  1  0
 21 19  1  0
 23 21  2  0
M  END
$$$$
