DSM.pdb
     RDKit          3D

 23 22  0  0  1  0  0  0  0  0999 V2000
   22.7863  -21.5199  -14.9457 N   0  0  0  0  0  0  0  0  0  0  0  0
   22.8012  -20.0915  -14.9921 C   0  0  1  0  0  0  0  0  0  0  0  0
   22.2712  -19.5173  -13.6833 C   0  0  0  0  0  0  0  0  0  0  0  0
   20.9206  -20.0332  -13.4227 C   0  0  0  0  0  0  0  0  0  0  0  0
   20.2907  -19.6331  -12.4051 O   0  0  0  0  0  0  0  0  0  0  0  0
   24.1881  -19.5508  -15.1933 C   0  0  0  0  0  0  0  0  0  0  0  0
   24.4807  -18.3918  -14.8125 O   0  0  0  0  0  0  0  0  0  0  0  0
   20.3269  -20.9392  -14.2578 O   0  0  0  0  0  0  0  0  0  0  0  0
   27.7538  -21.6340  -15.2525 O   0  0  0  0  0  0  0  0  0  0  0  0
   27.5023  -20.9199  -16.4156 C   0  0  0  0  0  0  0  0  0  0  0  0
   26.5418  -19.7916  -16.1190 C   0  0  2  0  0  0  0  0  0  0  0  0
   25.2062  -20.3184  -15.8126 N   0  0  0  0  0  0  0  0  0  0  0  0
   26.4270  -18.9431  -17.3322 C   0  0  0  0  0  0  0  0  0  0  0  0
   25.3220  -18.9069  -17.9666 O   0  0  0  0  0  0  0  0  0  0  0  0
   23.7757  -13.6591  -20.5684 C   0  0  0  0  0  0  0  0  0  0  0  0
   24.1891  -14.9910  -19.4224 S   0  0  0  0  0  0  0  0  0  0  0  0
   25.9476  -14.8834  -18.9216 C   0  0  0  0  0  0  0  0  0  0  0  0
   26.3053  -16.0687  -18.0730 C   0  0  0  0  0  0  0  0  0  0  0  0
   27.1669  -17.0578  -18.7927 C   0  0  2  0  0  0  0  0  0  0  0  0
   27.4597  -18.1499  -17.8608 N   0  0  0  0  0  0  0  0  0  0  0  0
   28.4308  -16.4530  -19.2847 C   0  0  0  0  0  0  0  0  0  0  0  0
   29.6368  -16.8420  -18.7201 O   0  0  0  0  0  0  0  0  0  0  0  0
   28.4697  -15.5997  -20.1931 O   0  0  0  0  0  0  0  0  0  0  0  0
  2  1  1  1
  3  4  1  0
  3  2  1  0
  4  8  1  0
  5  4  2  0
  6  7  2  0
  6  2  1  0
  9 10  1  0
 11 10  1  6
 11 13  1  0
 11 12  1  0
 12  6  1  0
 13 14  2  0
 16 15  1  0
 17 16  1  0
 18 17  1  0
 19 18  1  1
 20 13  1  0
 20 19  1  0
 21 22  1  0
 21 19  1  0
 23 21  2  0
M  END
$$$$
