DSM.pdb
     RDKit          3D

 23 22  0  0  1  0  0  0  0  0999 V2000
   14.7308  -12.4889  -14.8654 N   0  0  0  0  0  0  0  0  0  0  0  0
   15.4395  -12.2708  -13.6435 C   0  0  1  0  0  0  0  0  0  0  0  0
   16.9304  -12.1159  -13.9208 C   0  0  0  0  0  0  0  0  0  0  0  0
   17.4953  -13.4035  -14.3461 C   0  0  0  0  0  0  0  0  0  0  0  0
   17.0330  -14.4729  -13.8612 O   0  0  0  0  0  0  0  0  0  0  0  0
   14.9791  -11.0249  -12.9422 C   0  0  0  0  0  0  0  0  0  0  0  0
   14.8073   -9.9603  -13.5833 O   0  0  0  0  0  0  0  0  0  0  0  0
   18.5130  -13.4728  -15.2573 O   0  0  0  0  0  0  0  0  0  0  0  0
   12.3741  -11.1513   -9.7387 O   0  0  0  0  0  0  0  0  0  0  0  0
   13.4903  -10.3520   -9.5353 C   0  0  0  0  0  0  0  0  0  0  0  0
   14.0373   -9.8980  -10.8689 C   0  0  2  0  0  0  0  0  0  0  0  0
   14.7243  -11.0036  -11.5479 N   0  0  0  0  0  0  0  0  0  0  0  0
   15.0351   -8.8257  -10.6254 C   0  0  0  0  0  0  0  0  0  0  0  0
   16.2329   -9.1434  -10.3267 O   0  0  0  0  0  0  0  0  0  0  0  0
   17.0227   -1.2598  -11.7670 C   0  0  0  0  0  0  0  0  0  0  0  0
   15.7843   -2.5712  -11.8364 S   0  0  0  0  0  0  0  0  0  0  0  0
   16.4098   -4.0878  -11.0220 C   0  0  0  0  0  0  0  0  0  0  0  0
   15.3984   -5.1886  -11.1575 C   0  0  0  0  0  0  0  0  0  0  0  0
   15.8418   -6.4652  -10.5153 C   0  0  2  0  0  0  0  0  0  0  0  0
   14.7700   -7.4475  -10.6976 N   0  0  0  0  0  0  0  0  0  0  0  0
   16.1401   -6.2964   -9.0703 C   0  0  0  0  0  0  0  0  0  0  0  0
   17.4256   -5.9552   -8.6758 O   0  0  0  0  0  0  0  0  0  0  0  0
   15.2848   -6.4469   -8.1756 O   0  0  0  0  0  0  0  0  0  0  0  0
  2  1  1  6
  3  4  1  0
  3  2  1  0
  4  8  1  0
  5  4  2  0
  6  7  2  0
  6  2  1  0
  9 10  1  0
 11 10  1  1
 11 13  1  0
 11 12  1  0
 12  6  1  0
 13 14  2  0
 16 15  1  0
 17 16  1  0
 18 17  1  0
 19 18  1  1
 20 13  1  0
 20 19  1  0
 21 22  1  0
 21 19  1  0
 23 21  2  0
M  END
$$$$
