DSM.pdb
     RDKit          3D

 23 22  0  0  1  0  0  0  0  0999 V2000
   19.5386  -12.1710  -16.9076 N   0  0  0  0  0  0  0  0  0  0  0  0
   19.6329  -11.1504  -17.9037 C   0  0  1  0  0  0  0  0  0  0  0  0
   18.6561  -11.4324  -19.0395 C   0  0  0  0  0  0  0  0  0  0  0  0
   18.7293  -12.8494  -19.4204 C   0  0  0  0  0  0  0  0  0  0  0  0
   19.6556  -13.2381  -20.1840 O   0  0  0  0  0  0  0  0  0  0  0  0
   19.3021   -9.7937  -17.3505 C   0  0  0  0  0  0  0  0  0  0  0  0
   19.2831   -8.7880  -18.1003 O   0  0  0  0  0  0  0  0  0  0  0  0
   17.8157  -13.7607  -18.9667 O   0  0  0  0  0  0  0  0  0  0  0  0
   18.9458   -9.3439  -13.2626 O   0  0  0  0  0  0  0  0  0  0  0  0
   18.2228   -8.4065  -13.9870 C   0  0  0  0  0  0  0  0  0  0  0  0
   18.8100   -8.2759  -15.3733 C   0  0  2  0  0  0  0  0  0  0  0  0
   19.0028   -9.5994  -15.9786 N   0  0  0  0  0  0  0  0  0  0  0  0
   20.1429   -7.6315  -15.2585 C   0  0  0  0  0  0  0  0  0  0  0  0
   21.1806   -8.3613  -15.1335 O   0  0  0  0  0  0  0  0  0  0  0  0
   25.4006   -2.5645  -17.6573 C   0  0  0  0  0  0  0  0  0  0  0  0
   23.7676   -3.3293  -17.7385 S   0  0  0  0  0  0  0  0  0  0  0  0
   23.4152   -4.2543  -16.1974 C   0  0  0  0  0  0  0  0  0  0  0  0
   22.0810   -4.9330  -16.3087 C   0  0  0  0  0  0  0  0  0  0  0  0
   21.7177   -5.7022  -15.0778 C   0  0  2  0  0  0  0  0  0  0  0  0
   20.3714   -6.2450  -15.2768 N   0  0  0  0  0  0  0  0  0  0  0  0
   21.7540   -4.8607  -13.8548 C   0  0  0  0  0  0  0  0  0  0  0  0
   22.9451   -4.7254  -13.1565 O   0  0  0  0  0  0  0  0  0  0  0  0
   20.7562   -4.2580  -13.4122 O   0  0  0  0  0  0  0  0  0  0  0  0
  2  1  1  1
  3  4  1  0
  3  2  1  0
  4  8  1  0
  5  4  2  0
  6  7  2  0
  6  2  1  0
  9 10  1  0
 11 10  1  1
 11 13  1  0
 11 12  1  0
 12  6  1  0
 13 14  2  0
 16 15  1  0
 17 16  1  0
 18 17  1  0
 19 18  1  6
 20 13  1  0
 20 19  1  0
 21 22  1  0
 21 19  1  0
 23 21  2  0
M  END
$$$$
