DSM.pdb
     RDKit          3D

 23 22  0  0  1  0  0  0  0  0999 V2000
   17.0324  -14.0662  -17.7015 N   0  0  0  0  0  0  0  0  0  0  0  0
   17.1530  -13.0086  -16.7477 C   0  0  1  0  0  0  0  0  0  0  0  0
   17.4912  -13.5756  -15.3738 C   0  0  0  0  0  0  0  0  0  0  0  0
   16.3502  -14.3425  -14.8558 C   0  0  0  0  0  0  0  0  0  0  0  0
   15.1793  -14.0132  -15.1918 O   0  0  0  0  0  0  0  0  0  0  0  0
   18.2411  -12.0411  -17.1169 C   0  0  0  0  0  0  0  0  0  0  0  0
   19.3900  -12.4550  -17.4045 O   0  0  0  0  0  0  0  0  0  0  0  0
   16.5257  -15.4076  -14.0159 O   0  0  0  0  0  0  0  0  0  0  0  0
   17.6810   -7.9474  -16.6524 O   0  0  0  0  0  0  0  0  0  0  0  0
   18.4242   -8.3068  -17.7680 C   0  0  0  0  0  0  0  0  0  0  0  0
   19.0414   -9.6685  -17.5475 C   0  0  2  0  0  0  0  0  0  0  0  0
   18.0154  -10.6422  -17.1543 N   0  0  0  0  0  0  0  0  0  0  0  0
   20.0186   -9.5652  -16.4342 C   0  0  0  0  0  0  0  0  0  0  0  0
   19.6200   -9.7364  -15.2356 O   0  0  0  0  0  0  0  0  0  0  0  0
   26.2601  -11.7734  -15.4737 C   0  0  0  0  0  0  0  0  0  0  0  0
   26.2772   -9.9792  -15.2771 S   0  0  0  0  0  0  0  0  0  0  0  0
   24.6396   -9.3795  -14.7174 C   0  0  0  0  0  0  0  0  0  0  0  0
   23.6391   -9.5322  -15.8260 C   0  0  0  0  0  0  0  0  0  0  0  0
   22.2575   -9.1265  -15.4195 C   0  0  2  0  0  0  0  0  0  0  0  0
   21.3877   -9.2876  -16.5875 N   0  0  0  0  0  0  0  0  0  0  0  0
   22.2014   -7.7256  -14.9298 C   0  0  0  0  0  0  0  0  0  0  0  0
   22.2059   -7.4810  -13.5642 O   0  0  0  0  0  0  0  0  0  0  0  0
   22.1496   -6.7391  -15.6906 O   0  0  0  0  0  0  0  0  0  0  0  0
  2  1  1  6
  3  4  1  0
  3  2  1  0
  4  8  1  0
  5  4  2  0
  6  7  2  0
  6  2  1  0
  9 10  1  0
 11 10  1  1
 11 13  1  0
 11 12  1  0
 12  6  1  0
 13 14  2  0
 16 15  1  0
 17 16  1  0
 18 17  1  0
 19 18  1  6
 20 13  1  0
 20 19  1  0
 21 22  1  0
 21 19  1  0
 23 21  2  0
M  END
$$$$
