DSM.pdb
     RDKit          3D

 23 22  0  0  1  0  0  0  0  0999 V2000
   16.8342  -11.6128  -17.1348 N   0  0  0  0  0  0  0  0  0  0  0  0
   16.9066  -10.6544  -16.0770 C   0  0  1  0  0  0  0  0  0  0  0  0
   17.3995  -11.3199  -14.7973 C   0  0  0  0  0  0  0  0  0  0  0  0
   16.4549  -12.3660  -14.3831 C   0  0  0  0  0  0  0  0  0  0  0  0
   15.2527  -12.0590  -14.1534 O   0  0  0  0  0  0  0  0  0  0  0  0
   17.8553   -9.5349  -16.3977 C   0  0  0  0  0  0  0  0  0  0  0  0
   19.0033   -9.7806  -16.8401 O   0  0  0  0  0  0  0  0  0  0  0  0
   16.8470  -13.6685  -14.2397 O   0  0  0  0  0  0  0  0  0  0  0  0
   16.6731   -5.6389  -15.7175 O   0  0  0  0  0  0  0  0  0  0  0  0
   17.5762   -5.7896  -16.7605 C   0  0  0  0  0  0  0  0  0  0  0  0
   18.3787   -7.0537  -16.5562 C   0  0  2  0  0  0  0  0  0  0  0  0
   17.4955   -8.1759  -16.2157 N   0  0  0  0  0  0  0  0  0  0  0  0
   19.3035   -6.8419  -15.4139 C   0  0  0  0  0  0  0  0  0  0  0  0
   18.8589   -6.9432  -14.2235 O   0  0  0  0  0  0  0  0  0  0  0  0
   23.9430  -11.2227  -14.6856 C   0  0  0  0  0  0  0  0  0  0  0  0
   24.1701   -9.4321  -14.7059 S   0  0  0  0  0  0  0  0  0  0  0  0
   22.5695   -8.5797  -14.4489 C   0  0  0  0  0  0  0  0  0  0  0  0
   22.7676   -7.0944  -14.5366 C   0  0  0  0  0  0  0  0  0  0  0  0
   21.4979   -6.3277  -14.3392 C   0  0  2  0  0  0  0  0  0  0  0  0
   20.6690   -6.5307  -15.5302 N   0  0  0  0  0  0  0  0  0  0  0  0
   21.7408   -4.8782  -14.1264 C   0  0  0  0  0  0  0  0  0  0  0  0
   22.2951   -4.4493  -12.9292 O   0  0  0  0  0  0  0  0  0  0  0  0
   21.4696   -4.0094  -14.9787 O   0  0  0  0  0  0  0  0  0  0  0  0
  2  1  1  6
  3  4  1  0
  3  2  1  0
  4  8  1  0
  5  4  2  0
  6  7  2  0
  6  2  1  0
  9 10  1  0
 11 10  1  1
 11 13  1  0
 11 12  1  0
 12  6  1  0
 13 14  2  0
 16 15  1  0
 17 16  1  0
 18 17  1  0
 19 18  1  6
 20 13  1  0
 20 19  1  0
 21 22  1  0
 21 19  1  0
 23 21  2  0
M  END
$$$$
