DSM.pdb
     RDKit          3D

 23 22  0  0  1  0  0  0  0  0999 V2000
   15.6297  -12.5336  -12.2961 N   0  0  0  0  0  0  0  0  0  0  0  0
   15.3235  -11.2053  -12.7258 C   0  0  1  0  0  0  0  0  0  0  0  0
   13.8213  -10.9594  -12.6443 C   0  0  0  0  0  0  0  0  0  0  0  0
   13.1148  -11.8861  -13.5389 C   0  0  0  0  0  0  0  0  0  0  0  0
   13.4244  -11.9233  -14.7616 O   0  0  0  0  0  0  0  0  0  0  0  0
   15.9972  -10.1696  -11.8716 C   0  0  0  0  0  0  0  0  0  0  0  0
   15.9015  -10.2155  -10.6215 O   0  0  0  0  0  0  0  0  0  0  0  0
   12.1267  -12.7121  -13.0783 O   0  0  0  0  0  0  0  0  0  0  0  0
   18.0461   -7.0926  -13.6935 O   0  0  0  0  0  0  0  0  0  0  0  0
   18.5586   -7.4559  -12.4561 C   0  0  0  0  0  0  0  0  0  0  0  0
   17.4762   -8.1174  -11.6346 C   0  0  2  0  0  0  0  0  0  0  0  0
   16.7568   -9.1146  -12.4367 N   0  0  0  0  0  0  0  0  0  0  0  0
   16.4998   -7.0775  -11.2222 C   0  0  0  0  0  0  0  0  0  0  0  0
   15.5315   -6.7870  -11.9987 O   0  0  0  0  0  0  0  0  0  0  0  0
   12.8397   -3.1113   -5.5282 C   0  0  0  0  0  0  0  0  0  0  0  0
   13.8600   -4.4875   -6.0968 S   0  0  0  0  0  0  0  0  0  0  0  0
   14.2564   -4.3002   -7.8751 C   0  0  0  0  0  0  0  0  0  0  0  0
   15.1739   -5.4064   -8.3081 C   0  0  0  0  0  0  0  0  0  0  0  0
   15.5931   -5.2848   -9.7393 C   0  0  2  0  0  0  0  0  0  0  0  0
   16.5477   -6.3620  -10.0135 N   0  0  0  0  0  0  0  0  0  0  0  0
   16.2098   -3.9671  -10.0370 C   0  0  0  0  0  0  0  0  0  0  0  0
   15.3935   -2.8668  -10.2548 O   0  0  0  0  0  0  0  0  0  0  0  0
   17.4424   -3.7909  -10.1034 O   0  0  0  0  0  0  0  0  0  0  0  0
  2  1  1  1
  3  4  1  0
  3  2  1  0
  4  8  1  0
  5  4  2  0
  6  7  2  0
  6  2  1  0
  9 10  1  0
 11 10  1  6
 11 13  1  0
 11 12  1  0
 12  6  1  0
 13 14  2  0
 16 15  1  0
 17 16  1  0
 18 17  1  0
 19 18  1  1
 20 13  1  0
 20 19  1  0
 21 22  1  0
 21 19  1  0
 23 21  2  0
M  END
$$$$
