DSM.pdb
     RDKit          3D

 23 22  0  0  1  0  0  0  0  0999 V2000
   27.9506  -20.2118  -14.4747 N   0  0  0  0  0  0  0  0  0  0  0  0
   26.8594  -20.7201  -15.2452 C   0  0  1  0  0  0  0  0  0  0  0  0
   27.3097  -21.9244  -16.0640 C   0  0  0  0  0  0  0  0  0  0  0  0
   28.4470  -21.5516  -16.9159 C   0  0  0  0  0  0  0  0  0  0  0  0
   28.5041  -20.3866  -17.3976 O   0  0  0  0  0  0  0  0  0  0  0  0
   25.7184  -21.1663  -14.3763 C   0  0  0  0  0  0  0  0  0  0  0  0
   24.6997  -21.6936  -14.8846 O   0  0  0  0  0  0  0  0  0  0  0  0
   29.4488  -22.4381  -17.2009 O   0  0  0  0  0  0  0  0  0  0  0  0
   26.1565  -21.6675  -10.3245 O   0  0  0  0  0  0  0  0  0  0  0  0
   24.9549  -21.0544  -10.6507 C   0  0  0  0  0  0  0  0  0  0  0  0
   24.6150  -21.3436  -12.0946 C   0  0  2  0  0  0  0  0  0  0  0  0
   25.7475  -21.0113  -12.9676 N   0  0  0  0  0  0  0  0  0  0  0  0
   23.4713  -20.4822  -12.4880 C   0  0  0  0  0  0  0  0  0  0  0  0
   23.6799  -19.2556  -12.7655 O   0  0  0  0  0  0  0  0  0  0  0  0
   22.9632  -18.1984  -16.9908 C   0  0  0  0  0  0  0  0  0  0  0  0
   21.2186  -18.6536  -17.0769 S   0  0  0  0  0  0  0  0  0  0  0  0
   20.5613  -18.9946  -15.4017 C   0  0  0  0  0  0  0  0  0  0  0  0
   21.5485  -19.8203  -14.6293 C   0  0  0  0  0  0  0  0  0  0  0  0
   21.1198  -20.0651  -13.2169 C   0  0  2  0  0  0  0  0  0  0  0  0
   22.1366  -20.9109  -12.5863 N   0  0  0  0  0  0  0  0  0  0  0  0
   19.7890  -20.7191  -13.1360 C   0  0  0  0  0  0  0  0  0  0  0  0
   19.7112  -22.1040  -13.1123 O   0  0  0  0  0  0  0  0  0  0  0  0
   18.7182  -20.0820  -13.0874 O   0  0  0  0  0  0  0  0  0  0  0  0
  2  1  1  1
  3  4  1  0
  3  2  1  0
  4  8  1  0
  5  4  2  0
  6  7  2  0
  6  2  1  0
  9 10  1  0
 11 10  1  1
 11 13  1  0
 11 12  1  0
 12  6  1  0
 13 14  2  0
 16 15  1  0
 17 16  1  0
 18 17  1  0
 19 18  1  6
 20 13  1  0
 20 19  1  0
 21 22  1  0
 21 19  1  0
 23 21  2  0
M  END
$$$$
