DSM.pdb
     RDKit          3D

 23 22  0  0  1  0  0  0  0  0999 V2000
   19.7090  -10.8143  -15.2847 N   0  0  0  0  0  0  0  0  0  0  0  0
   19.2744   -9.4531  -15.3152 C   0  0  1  0  0  0  0  0  0  0  0  0
   17.8075   -9.3785  -15.7226 C   0  0  0  0  0  0  0  0  0  0  0  0
   17.6504   -9.8391  -17.1087 C   0  0  0  0  0  0  0  0  0  0  0  0
   18.4204   -9.3893  -18.0015 O   0  0  0  0  0  0  0  0  0  0  0  0
   19.4041   -8.7922  -13.9726 C   0  0  0  0  0  0  0  0  0  0  0  0
   19.0639   -9.3996  -12.9288 O   0  0  0  0  0  0  0  0  0  0  0  0
   16.6876  -10.7460  -17.4569 O   0  0  0  0  0  0  0  0  0  0  0  0
   20.9884   -4.8911  -11.4799 O   0  0  0  0  0  0  0  0  0  0  0  0
   20.9441   -5.5751  -12.6867 C   0  0  0  0  0  0  0  0  0  0  0  0
   20.0835   -6.8085  -12.5379 C   0  0  2  0  0  0  0  0  0  0  0  0
   19.9088   -7.4748  -13.8344 N   0  0  0  0  0  0  0  0  0  0  0  0
   18.7419   -6.3885  -12.0598 C   0  0  0  0  0  0  0  0  0  0  0  0
   17.8809   -5.9717  -12.9023 O   0  0  0  0  0  0  0  0  0  0  0  0
   12.7730   -7.5975   -7.2147 C   0  0  0  0  0  0  0  0  0  0  0  0
   14.4736   -7.9296   -7.7204 S   0  0  0  0  0  0  0  0  0  0  0  0
   15.0735   -6.6204   -8.8522 C   0  0  0  0  0  0  0  0  0  0  0  0
   16.4432   -6.9740   -9.3539 C   0  0  0  0  0  0  0  0  0  0  0  0
   16.9689   -5.9871  -10.3481 C   0  0  2  0  0  0  0  0  0  0  0  0
   18.3215   -6.4107  -10.7189 N   0  0  0  0  0  0  0  0  0  0  0  0
   16.9961   -4.6033   -9.8099 C   0  0  0  0  0  0  0  0  0  0  0  0
   15.8039   -3.9134   -9.6447 O   0  0  0  0  0  0  0  0  0  0  0  0
   18.0492   -4.0160   -9.4924 O   0  0  0  0  0  0  0  0  0  0  0  0
  2  1  1  1
  3  4  1  0
  3  2  1  0
  4  8  1  0
  5  4  2  0
  6  7  2  0
  6  2  1  0
  9 10  1  0
 11 10  1  6
 11 13  1  0
 11 12  1  0
 12  6  1  0
 13 14  2  0
 16 15  1  0
 17 16  1  0
 18 17  1  0
 19 18  1  1
 20 13  1  0
 20 19  1  0
 21 22  1  0
 21 19  1  0
 23 21  2  0
M  END
$$$$
