DSM.pdb
     RDKit          3D

 23 22  0  0  1  0  0  0  0  0999 V2000
   20.4555  -11.3865  -18.7192 N   0  0  0  0  0  0  0  0  0  0  0  0
   21.1324  -11.0422  -17.5084 C   0  0  1  0  0  0  0  0  0  0  0  0
   22.6397  -11.0250  -17.7352 C   0  0  0  0  0  0  0  0  0  0  0  0
   23.1135  -12.3809  -18.0434 C   0  0  0  0  0  0  0  0  0  0  0  0
   22.6546  -13.3599  -17.3926 O   0  0  0  0  0  0  0  0  0  0  0  0
   20.7354   -9.6816  -17.0108 C   0  0  0  0  0  0  0  0  0  0  0  0
   20.7550   -8.6916  -17.7812 O   0  0  0  0  0  0  0  0  0  0  0  0
   24.0423  -12.6098  -19.0209 O   0  0  0  0  0  0  0  0  0  0  0  0
   18.0664   -9.0236  -13.8700 O   0  0  0  0  0  0  0  0  0  0  0  0
   19.2608   -8.3217  -13.7866 C   0  0  0  0  0  0  0  0  0  0  0  0
   19.8561   -8.1704  -15.1674 C   0  0  2  0  0  0  0  0  0  0  0  0
   20.3288   -9.4662  -15.6701 N   0  0  0  0  0  0  0  0  0  0  0  0
   21.0293   -7.2648  -15.0749 C   0  0  0  0  0  0  0  0  0  0  0  0
   22.2039   -7.7567  -15.1325 O   0  0  0  0  0  0  0  0  0  0  0  0
   24.3838   -6.4774  -18.6226 C   0  0  0  0  0  0  0  0  0  0  0  0
   24.8326   -4.8133  -18.0863 S   0  0  0  0  0  0  0  0  0  0  0  0
   24.0620   -4.4308  -16.4694 C   0  0  0  0  0  0  0  0  0  0  0  0
   22.8344   -5.2741  -16.2819 C   0  0  0  0  0  0  0  0  0  0  0  0
   22.1725   -5.0480  -14.9593 C   0  0  2  0  0  0  0  0  0  0  0  0
   20.9595   -5.8692  -14.9257 N   0  0  0  0  0  0  0  0  0  0  0  0
   21.8296   -3.6204  -14.7362 C   0  0  0  0  0  0  0  0  0  0  0  0
   22.7972   -2.7566  -14.2440 O   0  0  0  0  0  0  0  0  0  0  0  0
   20.7006   -3.1459  -14.9705 O   0  0  0  0  0  0  0  0  0  0  0  0
  2  1  1  6
  3  4  1  0
  3  2  1  0
  4  8  1  0
  5  4  2  0
  6  7  2  0
  6  2  1  0
  9 10  1  0
 11 10  1  1
 11 13  1  0
 11 12  1  0
 12  6  1  0
 13 14  2  0
 16 15  1  0
 17 16  1  0
 18 17  1  0
 19 18  1  6
 20 13  1  0
 20 19  1  0
 21 22  1  0
 21 19  1  0
 23 21  2  0
M  END
$$$$
