DSM.pdb
     RDKit          3D

 23 22  0  0  1  0  0  0  0  0999 V2000
   14.1839   -9.2061  -13.2834 N   0  0  0  0  0  0  0  0  0  0  0  0
   15.3692   -9.3180  -12.4926 C   0  0  1  0  0  0  0  0  0  0  0  0
   16.2952  -10.3768  -13.0800 C   0  0  0  0  0  0  0  0  0  0  0  0
   15.7476  -11.7158  -12.8246 C   0  0  0  0  0  0  0  0  0  0  0  0
   14.6920  -11.8334  -12.1433 O   0  0  0  0  0  0  0  0  0  0  0  0
   16.1347   -8.0266  -12.4426 C   0  0  0  0  0  0  0  0  0  0  0  0
   16.5954   -7.5188  -13.4932 O   0  0  0  0  0  0  0  0  0  0  0  0
   16.3551  -12.8418  -13.3082 O   0  0  0  0  0  0  0  0  0  0  0  0
   17.4679   -6.3905   -8.8087 O   0  0  0  0  0  0  0  0  0  0  0  0
   16.9904   -5.4884   -9.7491 C   0  0  0  0  0  0  0  0  0  0  0  0
   17.1173   -6.0844  -11.1320 C   0  0  2  0  0  0  0  0  0  0  0  0
   16.3632   -7.3407  -11.2233 N   0  0  0  0  0  0  0  0  0  0  0  0
   18.5481   -6.3957  -11.3784 C   0  0  0  0  0  0  0  0  0  0  0  0
   19.0218   -7.5108  -10.9822 O   0  0  0  0  0  0  0  0  0  0  0  0
   23.6446   -9.9506  -14.7793 C   0  0  0  0  0  0  0  0  0  0  0  0
   22.0118   -9.2929  -14.3800 S   0  0  0  0  0  0  0  0  0  0  0  0
   22.1628   -7.7359  -13.4273 C   0  0  0  0  0  0  0  0  0  0  0  0
   20.7978   -7.2424  -13.0449 C   0  0  0  0  0  0  0  0  0  0  0  0
   20.8403   -5.9635  -12.2695 C   0  0  2  0  0  0  0  0  0  0  0  0
   19.4566   -5.5448  -12.0309 N   0  0  0  0  0  0  0  0  0  0  0  0
   21.5819   -4.8939  -12.9846 C   0  0  0  0  0  0  0  0  0  0  0  0
   22.9597   -4.8109  -12.8457 O   0  0  0  0  0  0  0  0  0  0  0  0
   21.0257   -4.0511  -13.7161 O   0  0  0  0  0  0  0  0  0  0  0  0
  2  1  1  6
  3  4  1  0
  3  2  1  0
  4  8  1  0
  5  4  2  0
  6  7  2  0
  6  2  1  0
  9 10  1  0
 11 10  1  1
 11 13  1  0
 11 12  1  0
 12  6  1  0
 13 14  2  0
 16 15  1  0
 17 16  1  0
 18 17  1  0
 19 18  1  6
 20 13  1  0
 20 19  1  0
 21 22  1  0
 21 19  1  0
 23 21  2  0
M  END
$$$$
