DSM.pdb
     RDKit          3D

 23 22  0  0  1  0  0  0  0  0999 V2000
   23.8488  -20.3085  -17.0285 N   0  0  0  0  0  0  0  0  0  0  0  0
   22.4426  -20.1964  -16.7984 C   0  0  1  0  0  0  0  0  0  0  0  0
   21.6745  -21.0215  -17.8245 C   0  0  0  0  0  0  0  0  0  0  0  0
   21.1947  -20.1513  -18.9065 C   0  0  0  0  0  0  0  0  0  0  0  0
   21.4397  -18.9143  -18.8608 O   0  0  0  0  0  0  0  0  0  0  0  0
   22.0551  -20.6963  -15.4360 C   0  0  0  0  0  0  0  0  0  0  0  0
   22.3447  -21.8641  -15.0805 O   0  0  0  0  0  0  0  0  0  0  0  0
   20.4869  -20.6497  -19.9654 O   0  0  0  0  0  0  0  0  0  0  0  0
   19.6191  -18.4285  -12.8876 O   0  0  0  0  0  0  0  0  0  0  0  0
   20.6867  -19.0868  -12.2935 C   0  0  0  0  0  0  0  0  0  0  0  0
   21.0710  -20.2853  -13.1300 C   0  0  2  0  0  0  0  0  0  0  0  0
   21.3567  -19.8795  -14.5117 N   0  0  0  0  0  0  0  0  0  0  0  0
   19.9199  -21.2228  -13.1617 C   0  0  0  0  0  0  0  0  0  0  0  0
   19.0799  -21.1481  -14.1177 O   0  0  0  0  0  0  0  0  0  0  0  0
   16.7203  -27.9771  -10.5734 C   0  0  0  0  0  0  0  0  0  0  0  0
   18.0268  -26.7360  -10.4688 S   0  0  0  0  0  0  0  0  0  0  0  0
   17.6159  -25.2832  -11.5058 C   0  0  0  0  0  0  0  0  0  0  0  0
   18.7602  -24.3118  -11.4918 C   0  0  0  0  0  0  0  0  0  0  0  0
   18.4970  -23.0945  -12.3210 C   0  0  2  0  0  0  0  0  0  0  0  0
   19.6650  -22.2178  -12.2026 N   0  0  0  0  0  0  0  0  0  0  0  0
   17.2714  -22.3737  -11.8927 C   0  0  0  0  0  0  0  0  0  0  0  0
   16.0321  -22.8183  -12.3298 O   0  0  0  0  0  0  0  0  0  0  0  0
   17.2938  -21.3733  -11.1487 O   0  0  0  0  0  0  0  0  0  0  0  0
  2  1  1  6
  3  4  1  0
  3  2  1  0
  4  8  1  0
  5  4  2  0
  6  7  2  0
  6  2  1  0
  9 10  1  0
 11 10  1  1
 11 13  1  0
 11 12  1  0
 12  6  1  0
 13 14  2  0
 16 15  1  0
 17 16  1  0
 18 17  1  0
 19 18  1  1
 20 13  1  0
 20 19  1  0
 21 22  1  0
 21 19  1  0
 23 21  2  0
M  END
$$$$
