FHC.pdb
     RDKit          3D

 28 29  0  0  1  0  0  0  0  0999 V2000
    5.6926  -17.9617   25.4679 N   0  0  0  0  0  0  0  0  0  0  0  0
    6.0529  -16.5602   25.4106 C   0  0  1  0  0  0  0  0  0  0  0  0
    6.7799  -16.1537   26.6725 C   0  0  0  0  0  0  0  0  0  0  0  0
    6.8299  -14.6891   26.7355 C   0  0  0  0  0  0  0  0  0  0  0  0
    5.6430  -13.9922   26.9175 C   0  0  0  0  0  0  0  0  0  0  0  0
    5.6423  -12.6009   26.9820 C   0  0  0  0  0  0  0  0  0  0  0  0
    6.8397  -11.9362   26.8617 C   0  0  0  0  0  0  0  0  0  0  0  0
    8.0043  -12.6271   26.6828 C   0  0  0  0  0  0  0  0  0  0  0  0
    8.0209  -14.0013   26.6171 C   0  0  0  0  0  0  0  0  0  0  0  0
    6.9544  -16.3119   24.2464 C   0  0  0  0  0  0  0  0  0  0  0  0
    7.8946  -17.1045   23.9837 O   0  0  0  0  0  0  0  0  0  0  0  0
    6.7621  -15.1798   23.4220 N   0  0  0  0  0  0  0  0  0  0  0  0
    7.5712  -14.9944   22.2233 C   0  0  1  0  0  0  0  0  0  0  0  0
    7.0354  -13.8555   21.3872 C   0  0  0  0  0  0  0  0  0  0  0  0
    7.7053  -13.8129   20.0799 C   0  0  0  0  0  0  0  0  0  0  0  0
    8.4136  -12.7430   19.5865 C   0  0  0  0  0  0  0  0  0  0  0  0
    8.8739  -13.1016   18.3516 N   0  0  0  0  0  0  0  0  0  0  0  0
    8.4697  -14.3452   18.0839 C   0  0  0  0  0  0  0  0  0  0  0  0
    7.7630  -14.7558   19.1460 N   0  0  0  0  0  0  0  0  0  0  0  0
    9.0070  -14.8057   22.5910 C   0  0  0  0  0  0  0  0  0  0  0  0
    9.3327  -13.8282   23.2955 O   0  0  0  0  0  0  0  0  0  0  0  0
    9.9823  -15.7347   22.1382 N   0  0  0  0  0  0  0  0  0  0  0  0
   11.3839  -15.7049   22.4758 C   0  0  1  0  0  0  0  0  0  0  0  0
   11.6887  -16.7334   23.5062 C   0  0  0  0  0  0  0  0  0  0  0  0
   10.9460  -16.4012   25.1023 S   0  0  0  0  0  0  0  0  0  0  0  0
   12.2763  -15.7362   21.2873 C   0  0  0  0  0  0  0  0  0  0  0  0
   11.7795  -15.9033   20.0061 O   0  0  0  0  0  0  0  0  0  0  0  0
   13.5071  -15.6093   21.4396 O   0  0  0  0  0  0  0  0  0  0  0  0
  2  1  1  1
  2  3  1  0
  3  4  1  0
  4  9  2  0
  5  6  2  0
  5  4  1  0
  6  7  1  0
  7  8  2  0
  9  8  1  0
 10 12  1  0
 10  2  1  0
 11 10  2  0
 13 12  1  0
 13 14  1  1
 14 15  1  0
 15 16  2  0
 16 17  1  0
 18 17  1  0
 19 15  1  0
 19 18  2  0
 20 13  1  0
 21 20  2  0
 22 20  1  0
 23 26  1  0
 23 22  1  0
 23 24  1  1
 25 24  1  0
 26 27  1  0
 28 26  2  0
M  END
$$$$
