FHC.pdb
     RDKit          3D

 28 29  0  0  1  0  0  0  0  0999 V2000
    6.4447  -17.0091   22.4426 N   0  0  0  0  0  0  0  0  0  0  0  0
    7.0488  -15.9728   23.2541 C   0  0  1  0  0  0  0  0  0  0  0  0
    6.1152  -15.5731   24.3743 C   0  0  0  0  0  0  0  0  0  0  0  0
    6.5966  -14.3185   24.9626 C   0  0  0  0  0  0  0  0  0  0  0  0
    6.8145  -14.2693   26.3328 C   0  0  0  0  0  0  0  0  0  0  0  0
    7.2700  -13.0991   26.9352 C   0  0  0  0  0  0  0  0  0  0  0  0
    7.4979  -11.9978   26.1443 C   0  0  0  0  0  0  0  0  0  0  0  0
    7.2817  -12.0522   24.7967 C   0  0  0  0  0  0  0  0  0  0  0  0
    6.8320  -13.2008   24.1875 C   0  0  0  0  0  0  0  0  0  0  0  0
    8.3208  -16.4722   23.8560 C   0  0  0  0  0  0  0  0  0  0  0  0
    8.3088  -17.4123   24.6910 O   0  0  0  0  0  0  0  0  0  0  0  0
    9.5585  -15.8932   23.4941 N   0  0  0  0  0  0  0  0  0  0  0  0
   10.8114  -16.4994   23.9283 C   0  0  1  0  0  0  0  0  0  0  0  0
   11.8665  -16.3748   22.8539 C   0  0  0  0  0  0  0  0  0  0  0  0
   11.4705  -17.1191   21.6501 C   0  0  0  0  0  0  0  0  0  0  0  0
   11.6487  -18.4685   21.4580 C   0  0  0  0  0  0  0  0  0  0  0  0
   11.1506  -18.7670   20.2217 N   0  0  0  0  0  0  0  0  0  0  0  0
   10.6802  -17.6494   19.6637 C   0  0  0  0  0  0  0  0  0  0  0  0
   10.8850  -16.6635   20.5482 N   0  0  0  0  0  0  0  0  0  0  0  0
   11.2495  -15.9092   25.2290 C   0  0  0  0  0  0  0  0  0  0  0  0
   11.8705  -14.8264   25.2291 O   0  0  0  0  0  0  0  0  0  0  0  0
   10.9572  -16.5815   26.4463 N   0  0  0  0  0  0  0  0  0  0  0  0
   11.6623  -16.3992   27.6910 C   0  0  1  0  0  0  0  0  0  0  0  0
   11.0585  -15.2836   28.4677 C   0  0  0  0  0  0  0  0  0  0  0  0
    9.2735  -15.3720   28.5931 S   0  0  0  0  0  0  0  0  0  0  0  0
   11.8405  -17.6610   28.4567 C   0  0  0  0  0  0  0  0  0  0  0  0
   11.2599  -18.8498   28.0495 O   0  0  0  0  0  0  0  0  0  0  0  0
   12.5303  -17.6572   29.4951 O   0  0  0  0  0  0  0  0  0  0  0  0
  2  1  1  1
  2  3  1  0
  3  4  1  0
  4  9  2  0
  5  6  2  0
  5  4  1  0
  6  7  1  0
  7  8  2  0
  9  8  1  0
 10 12  1  0
 10  2  1  0
 11 10  2  0
 13 12  1  0
 13 14  1  6
 14 15  1  0
 15 16  2  0
 16 17  1  0
 18 17  1  0
 19 15  1  0
 19 18  2  0
 20 13  1  0
 21 20  2  0
 22 20  1  0
 23 26  1  0
 23 22  1  0
 23 24  1  1
 25 24  1  0
 26 27  1  0
 28 26  2  0
M  END
$$$$
