FHC.pdb
     RDKit          3D

 28 29  0  0  1  0  0  0  0  0999 V2000
    6.3804  -17.4109   25.7237 N   0  0  0  0  0  0  0  0  0  0  0  0
    6.6958  -16.0587   25.3119 C   0  0  1  0  0  0  0  0  0  0  0  0
    7.6467  -15.4186   26.2979 C   0  0  0  0  0  0  0  0  0  0  0  0
    7.1504  -14.0782   26.6275 C   0  0  0  0  0  0  0  0  0  0  0  0
    5.8093  -13.7948   26.4071 C   0  0  0  0  0  0  0  0  0  0  0  0
    5.2943  -12.5352   26.7038 C   0  0  0  0  0  0  0  0  0  0  0  0
    6.1417  -11.5826   27.2182 C   0  0  0  0  0  0  0  0  0  0  0  0
    7.4602  -11.8671   27.4329 C   0  0  0  0  0  0  0  0  0  0  0  0
    7.9834  -13.1065   27.1447 C   0  0  0  0  0  0  0  0  0  0  0  0
    7.3484  -16.0732   23.9689 C   0  0  0  0  0  0  0  0  0  0  0  0
    7.8551  -17.1303   23.5141 O   0  0  0  0  0  0  0  0  0  0  0  0
    7.4054  -14.8955   23.1891 N   0  0  0  0  0  0  0  0  0  0  0  0
    7.9944  -14.9217   21.8556 C   0  0  1  0  0  0  0  0  0  0  0  0
    7.3817  -13.8543   20.9791 C   0  0  0  0  0  0  0  0  0  0  0  0
    7.9432  -13.9128   19.6222 C   0  0  0  0  0  0  0  0  0  0  0  0
    8.5302  -12.8602   18.9611 C   0  0  0  0  0  0  0  0  0  0  0  0
    8.9187  -13.3223   17.7359 N   0  0  0  0  0  0  0  0  0  0  0  0
    8.5879  -14.6116   17.6354 C   0  0  0  0  0  0  0  0  0  0  0  0
    7.9979  -14.9474   18.7908 N   0  0  0  0  0  0  0  0  0  0  0  0
    9.4812  -14.8036   21.9432 C   0  0  0  0  0  0  0  0  0  0  0  0
   10.0631  -13.9213   21.2793 O   0  0  0  0  0  0  0  0  0  0  0  0
   10.2146  -15.6911   22.7762 N   0  0  0  0  0  0  0  0  0  0  0  0
   11.4561  -16.3339   22.4226 C   0  0  1  0  0  0  0  0  0  0  0  0
   11.4007  -17.7824   22.7562 C   0  0  0  0  0  0  0  0  0  0  0  0
   11.0106  -18.1155   24.4727 S   0  0  0  0  0  0  0  0  0  0  0  0
   11.8996  -16.0348   21.0356 C   0  0  0  0  0  0  0  0  0  0  0  0
   11.3362  -16.6626   19.9380 O   0  0  0  0  0  0  0  0  0  0  0  0
   12.8030  -15.1968   20.8467 O   0  0  0  0  0  0  0  0  0  0  0  0
  2  1  1  1
  2  3  1  0
  3  4  1  0
  4  9  2  0
  5  6  2  0
  5  4  1  0
  6  7  1  0
  7  8  2  0
  9  8  1  0
 10 12  1  0
 10  2  1  0
 11 10  2  0
 13 12  1  0
 13 14  1  6
 14 15  1  0
 15 16  2  0
 16 17  1  0
 18 17  1  0
 19 15  1  0
 19 18  2  0
 20 13  1  0
 21 20  2  0
 22 20  1  0
 23 26  1  0
 23 22  1  0
 23 24  1  6
 25 24  1  0
 26 27  1  0
 28 26  2  0
M  END
$$$$
