FHC.pdb
     RDKit          3D

 28 29  0  0  1  0  0  0  0  0999 V2000
    5.7286  -17.6412   25.1622 N   0  0  0  0  0  0  0  0  0  0  0  0
    6.1692  -16.2683   25.0271 C   0  0  1  0  0  0  0  0  0  0  0  0
    6.9274  -15.8370   26.2621 C   0  0  0  0  0  0  0  0  0  0  0  0
    6.8457  -14.3770   26.3783 C   0  0  0  0  0  0  0  0  0  0  0  0
    6.1013  -13.8350   27.4172 C   0  0  0  0  0  0  0  0  0  0  0  0
    5.9946  -12.4543   27.5658 C   0  0  0  0  0  0  0  0  0  0  0  0
    6.6412  -11.6437   26.6631 C   0  0  0  0  0  0  0  0  0  0  0  0
    7.3722  -12.1826   25.6429 C   0  0  0  0  0  0  0  0  0  0  0  0
    7.4869  -13.5443   25.4832 C   0  0  0  0  0  0  0  0  0  0  0  0
    7.0752  -16.1365   23.8476 C   0  0  0  0  0  0  0  0  0  0  0  0
    7.9660  -16.9956   23.6248 O   0  0  0  0  0  0  0  0  0  0  0  0
    6.9431  -15.0414   22.9635 N   0  0  0  0  0  0  0  0  0  0  0  0
    7.7883  -14.9433   21.7795 C   0  0  1  0  0  0  0  0  0  0  0  0
    7.3080  -13.8367   20.8696 C   0  0  0  0  0  0  0  0  0  0  0  0
    8.0857  -13.8169   19.6228 C   0  0  0  0  0  0  0  0  0  0  0  0
    7.6185  -14.2087   18.3908 C   0  0  0  0  0  0  0  0  0  0  0  0
    8.6411  -14.0389   17.5013 N   0  0  0  0  0  0  0  0  0  0  0  0
    9.7043  -13.5603   18.1512 C   0  0  0  0  0  0  0  0  0  0  0  0
    9.3438  -13.4339   19.4357 N   0  0  0  0  0  0  0  0  0  0  0  0
    9.2188  -14.7748   22.1763 C   0  0  0  0  0  0  0  0  0  0  0  0
    9.4944  -14.1141   23.1988 O   0  0  0  0  0  0  0  0  0  0  0  0
   10.2460  -15.3644   21.3911 N   0  0  0  0  0  0  0  0  0  0  0  0
   11.5218  -15.8165   21.8885 C   0  0  1  0  0  0  0  0  0  0  0  0
   11.3334  -16.6720   23.0906 C   0  0  0  0  0  0  0  0  0  0  0  0
   12.3937  -16.2315   24.4658 S   0  0  0  0  0  0  0  0  0  0  0  0
   12.3870  -16.4106   20.8356 C   0  0  0  0  0  0  0  0  0  0  0  0
   13.7072  -16.0269   20.6737 O   0  0  0  0  0  0  0  0  0  0  0  0
   11.9188  -17.2787   20.0732 O   0  0  0  0  0  0  0  0  0  0  0  0
  2  1  1  1
  2  3  1  0
  3  4  1  0
  4  9  2  0
  5  6  2  0
  5  4  1  0
  6  7  1  0
  7  8  2  0
  9  8  1  0
 10 12  1  0
 10  2  1  0
 11 10  2  0
 13 12  1  0
 13 14  1  6
 14 15  1  0
 15 16  2  0
 16 17  1  0
 18 17  1  0
 19 15  1  0
 19 18  2  0
 20 13  1  0
 21 20  2  0
 22 20  1  0
 23 26  1  0
 23 22  1  0
 23 24  1  1
 25 24  1  0
 26 27  1  0
 28 26  2  0
M  END
$$$$
