FHC.pdb
     RDKit          3D

 28 29  0  0  1  0  0  0  0  0999 V2000
    5.5344  -17.7997   23.4708 N   0  0  0  0  0  0  0  0  0  0  0  0
    6.3720  -16.7173   23.9442 C   0  0  1  0  0  0  0  0  0  0  0  0
    6.1424  -16.4838   25.4203 C   0  0  0  0  0  0  0  0  0  0  0  0
    6.8113  -15.2375   25.8090 C   0  0  0  0  0  0  0  0  0  0  0  0
    6.9665  -14.2423   24.8536 C   0  0  0  0  0  0  0  0  0  0  0  0
    7.5966  -13.0431   25.1771 C   0  0  0  0  0  0  0  0  0  0  0  0
    8.0596  -12.8685   26.4598 C   0  0  0  0  0  0  0  0  0  0  0  0
    7.9041  -13.8512   27.3956 C   0  0  0  0  0  0  0  0  0  0  0  0
    7.2839  -15.0409   27.0910 C   0  0  0  0  0  0  0  0  0  0  0  0
    7.8112  -17.0582   23.7391 C   0  0  0  0  0  0  0  0  0  0  0  0
    8.2663  -18.1689   24.1138 O   0  0  0  0  0  0  0  0  0  0  0  0
    8.6834  -16.1343   23.1193 N   0  0  0  0  0  0  0  0  0  0  0  0
   10.0905  -16.4637   22.9263 C   0  0  1  0  0  0  0  0  0  0  0  0
   10.6776  -15.6581   21.7908 C   0  0  0  0  0  0  0  0  0  0  0  0
   10.1362  -16.1094   20.5013 C   0  0  0  0  0  0  0  0  0  0  0  0
   10.7000  -17.0719   19.6979 C   0  0  0  0  0  0  0  0  0  0  0  0
    9.8978  -17.1984   18.5997 N   0  0  0  0  0  0  0  0  0  0  0  0
    8.8740  -16.3493   18.7122 C   0  0  0  0  0  0  0  0  0  0  0  0
    9.0398  -15.7000   19.8728 N   0  0  0  0  0  0  0  0  0  0  0  0
   10.8450  -16.2834   24.2033 C   0  0  0  0  0  0  0  0  0  0  0  0
   11.2159  -15.1390   24.5361 O   0  0  0  0  0  0  0  0  0  0  0  0
   11.1316  -17.4090   25.0219 N   0  0  0  0  0  0  0  0  0  0  0  0
   11.8232  -17.3672   26.2866 C   0  0  1  0  0  0  0  0  0  0  0  0
   11.0871  -16.5047   27.2492 C   0  0  0  0  0  0  0  0  0  0  0  0
    9.6784  -17.3082   28.0104 S   0  0  0  0  0  0  0  0  0  0  0  0
   12.1781  -18.7134   26.8080 C   0  0  0  0  0  0  0  0  0  0  0  0
   13.0693  -18.8790   27.8542 O   0  0  0  0  0  0  0  0  0  0  0  0
   11.6636  -19.7263   26.2947 O   0  0  0  0  0  0  0  0  0  0  0  0
  2  1  1  1
  2  3  1  0
  3  4  1  0
  4  9  2  0
  5  6  2  0
  5  4  1  0
  6  7  1  0
  7  8  2  0
  9  8  1  0
 10 12  1  0
 10  2  1  0
 11 10  2  0
 13 12  1  0
 13 14  1  6
 14 15  1  0
 15 16  2  0
 16 17  1  0
 18 17  1  0
 19 15  1  0
 19 18  2  0
 20 13  1  0
 21 20  2  0
 22 20  1  0
 23 26  1  0
 23 22  1  0
 23 24  1  1
 25 24  1  0
 26 27  1  0
 28 26  2  0
M  END
$$$$
