FHC.pdb
     RDKit          3D

 28 29  0  0  1  0  0  0  0  0999 V2000
    7.1683  -18.1766   20.3241 N   0  0  0  0  0  0  0  0  0  0  0  0
    7.5728  -16.9804   21.0332 C   0  0  1  0  0  0  0  0  0  0  0  0
    6.4850  -15.9330   20.9577 C   0  0  0  0  0  0  0  0  0  0  0  0
    7.1063  -14.6258   20.7191 C   0  0  0  0  0  0  0  0  0  0  0  0
    7.3090  -13.7804   21.8015 C   0  0  0  0  0  0  0  0  0  0  0  0
    7.8942  -12.5293   21.6222 C   0  0  0  0  0  0  0  0  0  0  0  0
    8.2652  -12.1525   20.3531 C   0  0  0  0  0  0  0  0  0  0  0  0
    8.0634  -12.9885   19.2920 C   0  0  0  0  0  0  0  0  0  0  0  0
    7.4865  -14.2271   19.4534 C   0  0  0  0  0  0  0  0  0  0  0  0
    7.8222  -17.2986   22.4706 C   0  0  0  0  0  0  0  0  0  0  0  0
    7.5711  -18.4433   22.9263 O   0  0  0  0  0  0  0  0  0  0  0  0
    8.3451  -16.3145   23.3404 N   0  0  0  0  0  0  0  0  0  0  0  0
    9.2066  -16.6963   24.4530 C   0  0  1  0  0  0  0  0  0  0  0  0
   10.3979  -17.4849   23.9609 C   0  0  0  0  0  0  0  0  0  0  0  0
   10.0637  -18.9114   23.8474 C   0  0  0  0  0  0  0  0  0  0  0  0
    9.5206  -19.6806   24.8489 C   0  0  0  0  0  0  0  0  0  0  0  0
    9.3628  -20.9408   24.3462 N   0  0  0  0  0  0  0  0  0  0  0  0
    9.7900  -20.9585   23.0818 C   0  0  0  0  0  0  0  0  0  0  0  0
   10.2102  -19.7172   22.8015 N   0  0  0  0  0  0  0  0  0  0  0  0
    9.6063  -15.4889   25.2371 C   0  0  0  0  0  0  0  0  0  0  0  0
   10.7063  -14.9470   25.0041 O   0  0  0  0  0  0  0  0  0  0  0  0
    8.7362  -14.9720   26.2346 N   0  0  0  0  0  0  0  0  0  0  0  0
    9.0520  -13.8969   27.1424 C   0  0  1  0  0  0  0  0  0  0  0  0
    7.8090  -13.2016   27.5713 C   0  0  0  0  0  0  0  0  0  0  0  0
    6.4816  -13.2859   26.3712 S   0  0  0  0  0  0  0  0  0  0  0  0
    9.9456  -14.3104   28.2561 C   0  0  0  0  0  0  0  0  0  0  0  0
   10.4855  -13.3905   29.1384 O   0  0  0  0  0  0  0  0  0  0  0  0
   10.2214  -15.5168   28.4069 O   0  0  0  0  0  0  0  0  0  0  0  0
  2  1  1  6
  2  3  1  0
  3  4  1  0
  4  9  2  0
  5  6  2  0
  5  4  1  0
  6  7  1  0
  7  8  2  0
  9  8  1  0
 10 12  1  0
 10  2  1  0
 11 10  2  0
 13 12  1  0
 13 14  1  6
 14 15  1  0
 15 16  2  0
 16 17  1  0
 18 17  1  0
 19 15  1  0
 19 18  2  0
 20 13  1  0
 21 20  2  0
 22 20  1  0
 23 26  1  0
 23 22  1  0
 23 24  1  1
 25 24  1  0
 26 27  1  0
 28 26  2  0
M  END
$$$$
