FHC.pdb
     RDKit          3D

 28 29  0  0  1  0  0  0  0  0999 V2000
    5.4583  -16.9239   24.2923 N   0  0  0  0  0  0  0  0  0  0  0  0
    6.4691  -15.9009   24.4631 C   0  0  1  0  0  0  0  0  0  0  0  0
    6.7911  -15.7215   25.9294 C   0  0  0  0  0  0  0  0  0  0  0  0
    6.8192  -14.2866   26.2327 C   0  0  0  0  0  0  0  0  0  0  0  0
    5.6312  -13.6593   26.5829 C   0  0  0  0  0  0  0  0  0  0  0  0
    5.6100  -12.2984   26.8778 C   0  0  0  0  0  0  0  0  0  0  0  0
    6.7884  -11.5930   26.8143 C   0  0  0  0  0  0  0  0  0  0  0  0
    7.9542  -12.2155   26.4691 C   0  0  0  0  0  0  0  0  0  0  0  0
    7.9909  -13.5590   26.1751 C   0  0  0  0  0  0  0  0  0  0  0  0
    7.7204  -16.2956   23.7504 C   0  0  0  0  0  0  0  0  0  0  0  0
    8.0969  -17.4952   23.7334 O   0  0  0  0  0  0  0  0  0  0  0  0
    8.5004  -15.3233   23.0835 N   0  0  0  0  0  0  0  0  0  0  0  0
    9.7420  -15.7022   22.4198 C   0  0  1  0  0  0  0  0  0  0  0  0
   10.1326  -14.6711   21.3867 C   0  0  0  0  0  0  0  0  0  0  0  0
    9.0040  -14.3816   20.4912 C   0  0  0  0  0  0  0  0  0  0  0  0
    7.7712  -14.9873   20.5481 C   0  0  0  0  0  0  0  0  0  0  0  0
    7.0104  -14.4432   19.5527 N   0  0  0  0  0  0  0  0  0  0  0  0
    7.7382  -13.5343   18.9002 C   0  0  0  0  0  0  0  0  0  0  0  0
    8.9430  -13.5144   19.4868 N   0  0  0  0  0  0  0  0  0  0  0  0
   10.8190  -15.9350   23.4289 C   0  0  0  0  0  0  0  0  0  0  0  0
   11.3294  -14.9570   24.0128 O   0  0  0  0  0  0  0  0  0  0  0  0
   11.2498  -17.2591   23.7127 N   0  0  0  0  0  0  0  0  0  0  0  0
   12.2921  -17.6167   24.6429 C   0  0  1  0  0  0  0  0  0  0  0  0
   11.7343  -17.7553   26.0148 C   0  0  0  0  0  0  0  0  0  0  0  0
   10.0017  -18.2097   26.0492 S   0  0  0  0  0  0  0  0  0  0  0  0
   13.1150  -18.7690   24.1902 C   0  0  0  0  0  0  0  0  0  0  0  0
   14.2300  -19.1905   24.8939 O   0  0  0  0  0  0  0  0  0  0  0  0
   12.7994  -19.3780   23.1492 O   0  0  0  0  0  0  0  0  0  0  0  0
  2  1  1  1
  2  3  1  0
  3  4  1  0
  4  9  2  0
  5  6  2  0
  5  4  1  0
  6  7  1  0
  7  8  2  0
  9  8  1  0
 10 12  1  0
 10  2  1  0
 11 10  2  0
 13 12  1  0
 13 14  1  6
 14 15  1  0
 15 16  2  0
 16 17  1  0
 18 17  1  0
 19 15  1  0
 19 18  2  0
 20 13  1  0
 21 20  2  0
 22 20  1  0
 23 26  1  0
 23 22  1  0
 23 24  1  1
 25 24  1  0
 26 27  1  0
 28 26  2  0
M  END
$$$$
