FHC.pdb
     RDKit          3D

 28 29  0  0  1  0  0  0  0  0999 V2000
    5.7929  -17.9434   25.7873 N   0  0  0  0  0  0  0  0  0  0  0  0
    6.1872  -16.5626   25.5996 C   0  0  1  0  0  0  0  0  0  0  0  0
    7.0227  -16.0924   26.7687 C   0  0  0  0  0  0  0  0  0  0  0  0
    7.2026  -14.6403   26.6644 C   0  0  0  0  0  0  0  0  0  0  0  0
    6.0739  -13.8370   26.5744 C   0  0  0  0  0  0  0  0  0  0  0  0
    6.1966  -12.4534   26.4723 C   0  0  0  0  0  0  0  0  0  0  0  0
    7.4567  -11.9037   26.4628 C   0  0  0  0  0  0  0  0  0  0  0  0
    8.5635  -12.6990   26.5517 C   0  0  0  0  0  0  0  0  0  0  0  0
    8.4583  -14.0670   26.6531 C   0  0  0  0  0  0  0  0  0  0  0  0
    7.0007  -16.4286   24.3546 C   0  0  0  0  0  0  0  0  0  0  0  0
    7.8976  -17.2666   24.0821 O   0  0  0  0  0  0  0  0  0  0  0  0
    6.7725  -15.3551   23.4636 N   0  0  0  0  0  0  0  0  0  0  0  0
    7.5971  -15.1981   22.2715 C   0  0  1  0  0  0  0  0  0  0  0  0
    7.0902  -14.0599   21.4166 C   0  0  0  0  0  0  0  0  0  0  0  0
    7.8118  -14.0118   20.1373 C   0  0  0  0  0  0  0  0  0  0  0  0
    7.8261  -15.0144   19.1970 C   0  0  0  0  0  0  0  0  0  0  0  0
    8.6054  -14.5826   18.1616 N   0  0  0  0  0  0  0  0  0  0  0  0
    9.0597  -13.3595   18.4435 C   0  0  0  0  0  0  0  0  0  0  0  0
    8.5656  -13.0344   19.6461 N   0  0  0  0  0  0  0  0  0  0  0  0
    9.0321  -15.0302   22.6522 C   0  0  0  0  0  0  0  0  0  0  0  0
    9.3476  -14.1336   23.4613 O   0  0  0  0  0  0  0  0  0  0  0  0
   10.0183  -15.8872   22.0933 N   0  0  0  0  0  0  0  0  0  0  0  0
   11.4408  -15.7674   22.2969 C   0  0  1  0  0  0  0  0  0  0  0  0
   11.9256  -16.8454   23.1998 C   0  0  0  0  0  0  0  0  0  0  0  0
   11.0846  -16.8981   24.7808 S   0  0  0  0  0  0  0  0  0  0  0  0
   12.2070  -15.6298   21.0304 C   0  0  0  0  0  0  0  0  0  0  0  0
   13.5386  -15.2515   21.0206 O   0  0  0  0  0  0  0  0  0  0  0  0
   11.6426  -15.8594   19.9429 O   0  0  0  0  0  0  0  0  0  0  0  0
  2  1  1  1
  2  3  1  0
  3  4  1  0
  4  9  2  0
  5  6  2  0
  5  4  1  0
  6  7  1  0
  7  8  2  0
  9  8  1  0
 10 12  1  0
 10  2  1  0
 11 10  2  0
 13 12  1  0
 13 14  1  1
 14 15  1  0
 15 16  2  0
 16 17  1  0
 18 17  1  0
 19 15  1  0
 19 18  2  0
 20 13  1  0
 21 20  2  0
 22 20  1  0
 23 26  1  0
 23 22  1  0
 23 24  1  6
 25 24  1  0
 26 27  1  0
 28 26  2  0
M  END
$$$$
