FHC.pdb
     RDKit          3D

 28 29  0  0  1  0  0  0  0  0999 V2000
    6.2131  -17.6717   23.4535 N   0  0  0  0  0  0  0  0  0  0  0  0
    6.8399  -16.4648   23.9512 C   0  0  1  0  0  0  0  0  0  0  0  0
    6.0441  -15.8982   25.1052 C   0  0  0  0  0  0  0  0  0  0  0  0
    6.4975  -14.5267   25.3607 C   0  0  0  0  0  0  0  0  0  0  0  0
    7.0989  -13.8234   24.3258 C   0  0  0  0  0  0  0  0  0  0  0  0
    7.5462  -12.5192   24.5230 C   0  0  0  0  0  0  0  0  0  0  0  0
    7.3790  -11.9467   25.7618 C   0  0  0  0  0  0  0  0  0  0  0  0
    6.7866  -12.6436   26.7762 C   0  0  0  0  0  0  0  0  0  0  0  0
    6.3398  -13.9323   26.5966 C   0  0  0  0  0  0  0  0  0  0  0  0
    8.2200  -16.7680   24.4341 C   0  0  0  0  0  0  0  0  0  0  0  0
    8.4023  -17.5419   25.4083 O   0  0  0  0  0  0  0  0  0  0  0  0
    9.3426  -16.1877   23.8007 N   0  0  0  0  0  0  0  0  0  0  0  0
   10.6926  -16.5521   24.2136 C   0  0  1  0  0  0  0  0  0  0  0  0
   11.6751  -16.3286   23.0875 C   0  0  0  0  0  0  0  0  0  0  0  0
   11.3414  -17.1749   21.9333 C   0  0  0  0  0  0  0  0  0  0  0  0
   11.0309  -18.5126   21.9946 C   0  0  0  0  0  0  0  0  0  0  0  0
   10.7856  -18.9266   20.7163 N   0  0  0  0  0  0  0  0  0  0  0  0
   10.9367  -17.8896   19.8896 C   0  0  0  0  0  0  0  0  0  0  0  0
   11.2737  -16.8387   20.6500 N   0  0  0  0  0  0  0  0  0  0  0  0
   11.0717  -15.8140   25.4561 C   0  0  0  0  0  0  0  0  0  0  0  0
   11.7612  -14.7777   25.3635 O   0  0  0  0  0  0  0  0  0  0  0  0
   10.6466  -16.2954   26.7237 N   0  0  0  0  0  0  0  0  0  0  0  0
   11.2792  -15.9976   27.9849 C   0  0  1  0  0  0  0  0  0  0  0  0
   10.4078  -15.1123   28.8031 C   0  0  0  0  0  0  0  0  0  0  0  0
    9.5100  -13.8939   27.8444 S   0  0  0  0  0  0  0  0  0  0  0  0
   11.7742  -17.2063   28.6949 C   0  0  0  0  0  0  0  0  0  0  0  0
   11.5386  -18.4827   28.2140 O   0  0  0  0  0  0  0  0  0  0  0  0
   12.4202  -17.0757   29.7531 O   0  0  0  0  0  0  0  0  0  0  0  0
  2  1  1  1
  2  3  1  0
  3  4  1  0
  4  9  2  0
  5  6  2  0
  5  4  1  0
  6  7  1  0
  7  8  2  0
  9  8  1  0
 10 12  1  0
 10  2  1  0
 11 10  2  0
 13 12  1  0
 13 14  1  6
 14 15  1  0
 15 16  2  0
 16 17  1  0
 18 17  1  0
 19 15  1  0
 19 18  2  0
 20 13  1  0
 21 20  2  0
 22 20  1  0
 23 26  1  0
 23 22  1  0
 23 24  1  1
 25 24  1  0
 26 27  1  0
 28 26  2  0
M  END
$$$$
