FHC.pdb
     RDKit          3D

 28 29  0  0  1  0  0  0  0  0999 V2000
    5.3111  -17.1280   23.9920 N   0  0  0  0  0  0  0  0  0  0  0  0
    6.2420  -16.0553   24.2752 C   0  0  1  0  0  0  0  0  0  0  0  0
    6.4003  -15.8791   25.7685 C   0  0  0  0  0  0  0  0  0  0  0  0
    6.5608  -14.4503   26.0591 C   0  0  0  0  0  0  0  0  0  0  0  0
    7.8391  -13.9091   26.0398 C   0  0  0  0  0  0  0  0  0  0  0  0
    8.0395  -12.5578   26.3109 C   0  0  0  0  0  0  0  0  0  0  0  0
    6.9460  -11.7751   26.5970 C   0  0  0  0  0  0  0  0  0  0  0  0
    5.6907  -12.3131   26.6145 C   0  0  0  0  0  0  0  0  0  0  0  0
    5.4770  -13.6459   26.3488 C   0  0  0  0  0  0  0  0  0  0  0  0
    7.5799  -16.3735   23.6935 C   0  0  0  0  0  0  0  0  0  0  0  0
    8.0497  -17.5377   23.7661 O   0  0  0  0  0  0  0  0  0  0  0  0
    8.3380  -15.3676   23.0519 N   0  0  0  0  0  0  0  0  0  0  0  0
    9.6159  -15.6916   22.4290 C   0  0  1  0  0  0  0  0  0  0  0  0
    9.9899  -14.6485   21.4018 C   0  0  0  0  0  0  0  0  0  0  0  0
    8.8974  -14.4553   20.4381 C   0  0  0  0  0  0  0  0  0  0  0  0
    7.7254  -15.1733   20.4139 C   0  0  0  0  0  0  0  0  0  0  0  0
    6.9809  -14.6915   19.3750 N   0  0  0  0  0  0  0  0  0  0  0  0
    7.6602  -13.7119   18.7743 C   0  0  0  0  0  0  0  0  0  0  0  0
    8.8188  -13.5867   19.4361 N   0  0  0  0  0  0  0  0  0  0  0  0
   10.6708  -15.8689   23.4720 C   0  0  0  0  0  0  0  0  0  0  0  0
   11.3687  -14.8895   23.8063 O   0  0  0  0  0  0  0  0  0  0  0  0
   10.8689  -17.1426   24.0701 N   0  0  0  0  0  0  0  0  0  0  0  0
   11.7714  -17.4223   25.1595 C   0  0  1  0  0  0  0  0  0  0  0  0
   11.4351  -16.5792   26.3379 C   0  0  0  0  0  0  0  0  0  0  0  0
    9.9863  -17.1332   27.2344 S   0  0  0  0  0  0  0  0  0  0  0  0
   11.9058  -18.8730   25.4547 C   0  0  0  0  0  0  0  0  0  0  0  0
   11.0690  -19.8149   24.8813 O   0  0  0  0  0  0  0  0  0  0  0  0
   12.7939  -19.2607   26.2390 O   0  0  0  0  0  0  0  0  0  0  0  0
  2  1  1  1
  2  3  1  0
  3  4  1  0
  4  9  2  0
  5  6  2  0
  5  4  1  0
  6  7  1  0
  7  8  2  0
  9  8  1  0
 10 12  1  0
 10  2  1  0
 11 10  2  0
 13 12  1  0
 13 14  1  6
 14 15  1  0
 15 16  2  0
 16 17  1  0
 18 17  1  0
 19 15  1  0
 19 18  2  0
 20 13  1  0
 21 20  2  0
 22 20  1  0
 23 26  1  0
 23 22  1  0
 23 24  1  1
 25 24  1  0
 26 27  1  0
 28 26  2  0
M  END
$$$$
