FHC.pdb
     RDKit          3D

 28 29  0  0  1  0  0  0  0  0999 V2000
    5.2659  -17.9111   21.7108 N   0  0  0  0  0  0  0  0  0  0  0  0
    6.1201  -16.9178   21.0936 C   0  0  1  0  0  0  0  0  0  0  0  0
    5.9819  -15.5916   21.8064 C   0  0  0  0  0  0  0  0  0  0  0  0
    6.6152  -14.5504   20.9899 C   0  0  0  0  0  0  0  0  0  0  0  0
    6.1297  -14.3254   19.7089 C   0  0  0  0  0  0  0  0  0  0  0  0
    6.7009  -13.3482   18.8974 C   0  0  0  0  0  0  0  0  0  0  0  0
    7.7527  -12.6143   19.3926 C   0  0  0  0  0  0  0  0  0  0  0  0
    8.2261  -12.8401   20.6537 C   0  0  0  0  0  0  0  0  0  0  0  0
    7.6723  -13.8017   21.4670 C   0  0  0  0  0  0  0  0  0  0  0  0
    7.5471  -17.3501   21.1746 C   0  0  0  0  0  0  0  0  0  0  0  0
    8.0691  -17.6324   22.2832 O   0  0  0  0  0  0  0  0  0  0  0  0
    8.3320  -17.4481   20.0030 N   0  0  0  0  0  0  0  0  0  0  0  0
    9.6886  -17.9786   20.0663 C   0  0  1  0  0  0  0  0  0  0  0  0
   10.1314  -18.4783   18.7108 C   0  0  0  0  0  0  0  0  0  0  0  0
   10.0950  -17.3925   17.7212 C   0  0  0  0  0  0  0  0  0  0  0  0
    9.0837  -16.4702   17.5931 C   0  0  0  0  0  0  0  0  0  0  0  0
    9.4270  -15.6385   16.5654 N   0  0  0  0  0  0  0  0  0  0  0  0
   10.6051  -16.0253   16.0713 C   0  0  0  0  0  0  0  0  0  0  0  0
   10.9905  -17.0903   16.7877 N   0  0  0  0  0  0  0  0  0  0  0  0
   10.6199  -16.9547   20.6288 C   0  0  0  0  0  0  0  0  0  0  0  0
   10.2814  -15.7533   20.6222 O   0  0  0  0  0  0  0  0  0  0  0  0
   11.8744  -17.3552   21.1628 N   0  0  0  0  0  0  0  0  0  0  0  0
   12.4090  -16.9440   22.4374 C   0  0  1  0  0  0  0  0  0  0  0  0
   11.3763  -17.0819   23.4990 C   0  0  0  0  0  0  0  0  0  0  0  0
   11.9206  -16.5303   25.1142 S   0  0  0  0  0  0  0  0  0  0  0  0
   13.7155  -17.5761   22.7592 C   0  0  0  0  0  0  0  0  0  0  0  0
   14.8110  -16.8273   23.1533 O   0  0  0  0  0  0  0  0  0  0  0  0
   13.8365  -18.8139   22.6744 O   0  0  0  0  0  0  0  0  0  0  0  0
  2  1  1  1
  2  3  1  0
  3  4  1  0
  4  9  2  0
  5  6  2  0
  5  4  1  0
  6  7  1  0
  7  8  2  0
  9  8  1  0
 10 12  1  0
 10  2  1  0
 11 10  2  0
 13 12  1  0
 13 14  1  6
 14 15  1  0
 15 16  2  0
 16 17  1  0
 18 17  1  0
 19 15  1  0
 19 18  2  0
 20 13  1  0
 21 20  2  0
 22 20  1  0
 23 26  1  0
 23 22  1  0
 23 24  1  1
 25 24  1  0
 26 27  1  0
 28 26  2  0
M  END
$$$$
