TRN.pdb
     RDKit          3D

 27 26  0  0  1  0  0  0  0  0999 V2000
    7.3290  -18.3846   27.0676 C   0  0  0  0  0  0  0  0  0  0  0  0
    7.3586  -19.6350   26.2123 C   0  0  1  0  0  0  0  0  0  0  0  0
    6.8190  -20.7348   26.8484 O   0  0  0  0  0  0  0  0  0  0  0  0
    6.6412  -19.3020   24.9140 C   0  0  2  0  0  0  0  0  0  0  0  0
    6.3951  -20.5194   24.1988 N   0  0  0  0  0  0  0  0  0  0  0  0
    7.4721  -18.3309   24.1803 C   0  0  0  0  0  0  0  0  0  0  0  0
    8.4569  -18.7812   23.5421 O   0  0  0  0  0  0  0  0  0  0  0  0
    8.6072  -15.0003   17.8585 N   0  0  0  0  0  0  0  0  0  0  0  0
    8.0422  -13.7632   18.2645 C   0  0  0  0  0  0  0  0  0  0  0  0
    7.7942  -12.8063   17.4256 N   0  0  0  0  0  0  0  0  0  0  0  0
    7.7124  -13.5109   19.6401 N   0  0  0  0  0  0  0  0  0  0  0  0
    7.6894  -14.6437   20.5714 C   0  0  0  0  0  0  0  0  0  0  0  0
    7.2607  -14.0834   21.8914 C   0  0  0  0  0  0  0  0  0  0  0  0
    7.0856  -14.9713   23.0315 C   0  0  0  0  0  0  0  0  0  0  0  0
    8.0305  -16.0378   23.4081 C   0  0  2  0  0  0  0  0  0  0  0  0
    7.1664  -16.9763   24.2030 N   0  0  0  0  0  0  0  0  0  0  0  0
    9.2053  -15.8052   24.1880 C   0  0  0  0  0  0  0  0  0  0  0  0
    9.1645  -15.9037   25.4633 O   0  0  0  0  0  0  0  0  0  0  0  0
    7.4565  -11.9074   17.8371 N   0  0  0  0  0  0  0  0  0  0  0  0
   13.6558  -17.6932   25.3483 C   0  0  0  0  0  0  0  0  0  0  0  0
   12.3323  -18.1967   25.2999 O   0  0  0  0  0  0  0  0  0  0  0  0
   12.1467  -19.3611   25.6973 C   0  0  0  0  0  0  0  0  0  0  0  0
   11.2690  -17.3599   24.8021 C   0  0  1  0  0  0  0  0  0  0  0  0
   11.7092  -16.0059   24.2252 N   0  0  0  0  0  0  0  0  0  0  0  0
   10.4654  -15.4754   23.6370 C   0  0  0  0  0  0  0  0  0  0  0  0
   12.6868  -16.1875   23.1511 O   0  0  0  0  0  0  0  0  0  0  0  0
   13.9330  -16.0043   23.3894 O   0  0  0  0  0  0  0  0  0  0  0  0
  2  1  1  1
  2  3  1  0
  4  2  1  0
  4  6  1  0
  4  5  1  6
  6  7  2  0
  9  8  1  0
  9 10  2  0
 11  9  1  0
 12 11  1  0
 13 12  1  0
 14 13  1  0
 15 14  1  1
 16  6  1  0
 16 15  1  0
 17 15  1  0
 17 18  2  0
 19 20  1  0
 20 21  2  0
 20 22  1  0
 23 22  1  1
 23 25  1  0
 23 24  1  0
 24 17  1  0
 25 27  1  0
 26 25  2  0
M  END
$$$$
