TRN.pdb
     RDKit          3D

 27 26  0  0  1  0  0  0  0  0999 V2000
    7.6033  -11.9449   27.6525 C   0  0  0  0  0  0  0  0  0  0  0  0
    7.8855  -13.1068   26.7216 C   0  0  1  0  0  0  0  0  0  0  0  0
    8.3815  -14.2146   27.3790 O   0  0  0  0  0  0  0  0  0  0  0  0
    6.5944  -13.4013   25.9750 C   0  0  2  0  0  0  0  0  0  0  0  0
    5.5804  -13.7461   26.9273 N   0  0  0  0  0  0  0  0  0  0  0  0
    6.8791  -14.4598   24.9898 C   0  0  0  0  0  0  0  0  0  0  0  0
    6.5487  -15.6338   25.2937 O   0  0  0  0  0  0  0  0  0  0  0  0
    9.2712  -12.2541   18.2644 N   0  0  0  0  0  0  0  0  0  0  0  0
    8.6710  -13.3170   17.5402 C   0  0  0  0  0  0  0  0  0  0  0  0
    8.6010  -13.3207   16.2456 N   0  0  0  0  0  0  0  0  0  0  0  0
    8.1080  -14.4536   18.2155 N   0  0  0  0  0  0  0  0  0  0  0  0
    6.9479  -14.2430   19.0879 C   0  0  0  0  0  0  0  0  0  0  0  0
    7.4994  -14.0318   20.4632 C   0  0  0  0  0  0  0  0  0  0  0  0
    6.8721  -14.6857   21.6023 C   0  0  0  0  0  0  0  0  0  0  0  0
    7.6087  -15.2449   22.7498 C   0  0  2  0  0  0  0  0  0  0  0  0
    7.4884  -14.1562   23.7792 N   0  0  0  0  0  0  0  0  0  0  0  0
    8.9911  -15.6035   22.6948 C   0  0  0  0  0  0  0  0  0  0  0  0
    9.5379  -15.8998   21.5764 O   0  0  0  0  0  0  0  0  0  0  0  0
    8.2007  -14.1803   15.8071 N   0  0  0  0  0  0  0  0  0  0  0  0
   12.5114  -16.7920   21.2582 C   0  0  0  0  0  0  0  0  0  0  0  0
   12.3429  -15.6736   22.1115 O   0  0  0  0  0  0  0  0  0  0  0  0
   12.3548  -14.5452   21.5873 C   0  0  0  0  0  0  0  0  0  0  0  0
   12.1674  -15.8777   23.5280 C   0  0  2  0  0  0  0  0  0  0  0  0
   10.9069  -16.6574   23.9318 N   0  0  0  0  0  0  0  0  0  0  0  0
    9.8411  -15.6440   23.8245 C   0  0  0  0  0  0  0  0  0  0  0  0
   10.9874  -17.0968   25.3256 O   0  0  0  0  0  0  0  0  0  0  0  0
   11.8673  -17.9638   25.6681 O   0  0  0  0  0  0  0  0  0  0  0  0
  2  1  1  1
  2  3  1  0
  4  2  1  0
  4  6  1  0
  4  5  1  1
  6  7  2  0
  9  8  1  0
  9 10  2  0
 11  9  1  0
 12 11  1  0
 13 12  1  0
 14 13  1  0
 15 14  1  6
 16  6  1  0
 16 15  1  0
 17 15  1  0
 17 18  2  0
 19 20  1  0
 20 21  2  0
 20 22  1  0
 23 22  1  6
 23 25  1  0
 23 24  1  0
 24 17  1  0
 25 27  1  0
 26 25  2  0
M  END
$$$$
