TRN.pdb
     RDKit          3D

 27 26  0  0  1  0  0  0  0  0999 V2000
    9.5339  -20.6052   18.2966 C   0  0  0  0  0  0  0  0  0  0  0  0
   10.2244  -19.4899   19.0550 C   0  0  1  0  0  0  0  0  0  0  0  0
   11.5211  -19.8030   19.4097 O   0  0  0  0  0  0  0  0  0  0  0  0
   10.1418  -18.2449   18.1865 C   0  0  2  0  0  0  0  0  0  0  0  0
   10.8652  -18.4821   16.9721 N   0  0  0  0  0  0  0  0  0  0  0  0
   10.6523  -17.1121   18.9790 C   0  0  0  0  0  0  0  0  0  0  0  0
   11.7724  -16.6417   18.6569 O   0  0  0  0  0  0  0  0  0  0  0  0
    7.4909  -13.8492   16.1440 N   0  0  0  0  0  0  0  0  0  0  0  0
    7.4673  -13.4322   17.5005 C   0  0  0  0  0  0  0  0  0  0  0  0
    6.3665  -13.3465   18.1800 N   0  0  0  0  0  0  0  0  0  0  0  0
    8.6767  -13.0831   18.1934 N   0  0  0  0  0  0  0  0  0  0  0  0
    8.5995  -12.7909   19.6286 C   0  0  0  0  0  0  0  0  0  0  0  0
    8.2642  -14.0880   20.2958 C   0  0  0  0  0  0  0  0  0  0  0  0
    9.2242  -14.7064   21.1984 C   0  0  0  0  0  0  0  0  0  0  0  0
   10.4518  -15.3955   20.7621 C   0  0  2  0  0  0  0  0  0  0  0  0
    9.9137  -16.5967   20.0363 N   0  0  0  0  0  0  0  0  0  0  0  0
   11.4449  -15.8779   21.6696 C   0  0  0  0  0  0  0  0  0  0  0  0
   12.5189  -16.4146   21.2268 O   0  0  0  0  0  0  0  0  0  0  0  0
    6.4613  -13.0515   19.1776 N   0  0  0  0  0  0  0  0  0  0  0  0
    8.9794  -18.9816   24.2544 C   0  0  0  0  0  0  0  0  0  0  0  0
   10.0292  -18.1022   24.6179 O   0  0  0  0  0  0  0  0  0  0  0  0
    9.8747  -17.4185   25.6458 C   0  0  0  0  0  0  0  0  0  0  0  0
   11.2150  -18.0316   23.8007 C   0  0  2  0  0  0  0  0  0  0  0  0
   12.0440  -16.7469   23.9493 N   0  0  0  0  0  0  0  0  0  0  0  0
   11.3358  -15.7919   23.0771 C   0  0  0  0  0  0  0  0  0  0  0  0
   13.3978  -16.9341   23.4254 O   0  0  0  0  0  0  0  0  0  0  0  0
   14.4041  -16.5247   24.1060 O   0  0  0  0  0  0  0  0  0  0  0  0
  2  1  1  6
  2  3  1  0
  4  2  1  0
  4  6  1  0
  4  5  1  6
  6  7  2  0
  9  8  1  0
  9 10  2  0
 11  9  1  0
 12 11  1  0
 13 12  1  0
 14 13  1  0
 15 14  1  1
 16  6  1  0
 16 15  1  0
 17 15  1  0
 17 18  2  0
 19 20  1  0
 20 21  2  0
 20 22  1  0
 23 22  1  1
 23 25  1  0
 23 24  1  0
 24 17  1  0
 25 27  1  0
 26 25  2  0
M  END
$$$$
