TRN.pdb
     RDKit          3D

 27 26  0  0  1  0  0  0  0  0999 V2000
   10.9809  -21.3791   17.4401 C   0  0  0  0  0  0  0  0  0  0  0  0
   11.1355  -20.4876   16.2247 C   0  0  1  0  0  0  0  0  0  0  0  0
   11.1890  -21.1961   15.0412 O   0  0  0  0  0  0  0  0  0  0  0  0
    9.9882  -19.4908   16.2562 C   0  0  2  0  0  0  0  0  0  0  0  0
    9.9812  -18.7579   15.0246 N   0  0  0  0  0  0  0  0  0  0  0  0
   10.1585  -18.6507   17.4550 C   0  0  0  0  0  0  0  0  0  0  0  0
   11.1566  -17.8875   17.4868 O   0  0  0  0  0  0  0  0  0  0  0  0
    8.3810  -12.0823   20.1609 N   0  0  0  0  0  0  0  0  0  0  0  0
    7.8806  -12.6298   21.3710 C   0  0  0  0  0  0  0  0  0  0  0  0
    7.6612  -11.9029   22.4219 N   0  0  0  0  0  0  0  0  0  0  0  0
    7.5880  -14.0317   21.4892 N   0  0  0  0  0  0  0  0  0  0  0  0
    7.9775  -14.9210   20.3898 C   0  0  0  0  0  0  0  0  0  0  0  0
    7.6446  -16.3078   20.8439 C   0  0  0  0  0  0  0  0  0  0  0  0
    8.0339  -17.4489   20.0284 C   0  0  0  0  0  0  0  0  0  0  0  0
    9.4235  -17.7710   19.6578 C   0  0  2  0  0  0  0  0  0  0  0  0
    9.2446  -18.7116   18.4991 N   0  0  0  0  0  0  0  0  0  0  0  0
   10.3486  -18.3949   20.5508 C   0  0  0  0  0  0  0  0  0  0  0  0
   10.4009  -19.6705   20.6400 O   0  0  0  0  0  0  0  0  0  0  0  0
    7.3103  -12.4069   23.2671 N   0  0  0  0  0  0  0  0  0  0  0  0
   15.0496  -19.8086   22.2674 C   0  0  0  0  0  0  0  0  0  0  0  0
   14.8001  -18.4202   22.1340 O   0  0  0  0  0  0  0  0  0  0  0  0
   15.6498  -17.6378   22.5964 C   0  0  0  0  0  0  0  0  0  0  0  0
   13.5953  -17.9720   21.4810 C   0  0  1  0  0  0  0  0  0  0  0  0
   12.2817  -18.3958   22.1553 N   0  0  0  0  0  0  0  0  0  0  0  0
   11.2590  -17.6839   21.3670 C   0  0  0  0  0  0  0  0  0  0  0  0
   12.2214  -17.9107   23.5350 O   0  0  0  0  0  0  0  0  0  0  0  0
   11.5667  -16.8419   23.8040 O   0  0  0  0  0  0  0  0  0  0  0  0
  2  1  1  1
  2  3  1  0
  4  2  1  0
  4  6  1  0
  4  5  1  6
  6  7  2  0
  9  8  1  0
  9 10  2  0
 11  9  1  0
 12 11  1  0
 13 12  1  0
 14 13  1  0
 15 14  1  1
 16  6  1  0
 16 15  1  0
 17 15  1  0
 17 18  2  0
 19 20  1  0
 20 21  2  0
 20 22  1  0
 23 22  1  6
 23 25  1  0
 23 24  1  0
 24 17  1  0
 25 27  1  0
 26 25  2  0
M  END
$$$$
