TRN.pdb
     RDKit          3D

 27 26  0  0  1  0  0  0  0  0999 V2000
   10.9615  -13.8698   18.1868 C   0  0  0  0  0  0  0  0  0  0  0  0
    9.8302  -13.0190   18.7274 C   0  0  1  0  0  0  0  0  0  0  0  0
    9.6560  -11.8447   18.0230 O   0  0  0  0  0  0  0  0  0  0  0  0
    8.5829  -13.8880   18.7297 C   0  0  2  0  0  0  0  0  0  0  0  0
    7.4608  -13.0818   19.1106 N   0  0  0  0  0  0  0  0  0  0  0  0
    8.8351  -15.0299   19.6265 C   0  0  0  0  0  0  0  0  0  0  0  0
    8.6841  -14.8385   20.8596 O   0  0  0  0  0  0  0  0  0  0  0  0
    5.3432  -20.5204   19.0988 N   0  0  0  0  0  0  0  0  0  0  0  0
    5.2414  -20.1634   17.7288 C   0  0  0  0  0  0  0  0  0  0  0  0
    4.1020  -20.0907   17.1146 N   0  0  0  0  0  0  0  0  0  0  0  0
    6.4099  -19.8600   16.9495 N   0  0  0  0  0  0  0  0  0  0  0  0
    7.7255  -19.9886   17.5851 C   0  0  0  0  0  0  0  0  0  0  0  0
    7.8513  -18.8203   18.5121 C   0  0  0  0  0  0  0  0  0  0  0  0
    9.1078  -18.5801   19.2066 C   0  0  0  0  0  0  0  0  0  0  0  0
    9.3724  -17.4138   20.0679 C   0  0  2  0  0  0  0  0  0  0  0  0
    9.2233  -16.2613   19.1146 N   0  0  0  0  0  0  0  0  0  0  0  0
   10.6068  -17.2141   20.7599 C   0  0  0  0  0  0  0  0  0  0  0  0
   11.6480  -16.8256   20.1255 O   0  0  0  0  0  0  0  0  0  0  0  0
    4.1397  -19.8546   16.0976 N   0  0  0  0  0  0  0  0  0  0  0  0
   13.6773  -14.5876   20.6762 C   0  0  0  0  0  0  0  0  0  0  0  0
   13.6421  -15.5677   21.6988 O   0  0  0  0  0  0  0  0  0  0  0  0
   14.6782  -16.2275   21.8968 C   0  0  0  0  0  0  0  0  0  0  0  0
   12.4320  -15.7624   22.4582 C   0  0  2  0  0  0  0  0  0  0  0  0
   12.0877  -17.2225   22.7892 N   0  0  0  0  0  0  0  0  0  0  0  0
   10.7709  -17.4059   22.1516 C   0  0  0  0  0  0  0  0  0  0  0  0
   11.9317  -17.4091   24.2325 O   0  0  0  0  0  0  0  0  0  0  0  0
   12.9701  -17.5598   24.9690 O   0  0  0  0  0  0  0  0  0  0  0  0
  2  1  1  6
  2  3  1  0
  4  2  1  0
  4  6  1  0
  4  5  1  1
  6  7  2  0
  9  8  1  0
  9 10  2  0
 11  9  1  0
 12 11  1  0
 13 12  1  0
 14 13  1  0
 15 14  1  6
 16  6  1  0
 16 15  1  0
 17 15  1  0
 17 18  2  0
 19 20  1  0
 20 21  2  0
 20 22  1  0
 23 22  1  6
 23 25  1  0
 23 24  1  0
 24 17  1  0
 25 27  1  0
 26 25  2  0
M  END
$$$$
