TRN.pdb
     RDKit          3D

 27 26  0  0  1  0  0  0  0  0999 V2000
    7.7108  -12.8569   26.0576 C   0  0  0  0  0  0  0  0  0  0  0  0
    7.1376  -14.1191   26.6696 C   0  0  1  0  0  0  0  0  0  0  0  0
    6.3171  -13.8680   27.7508 O   0  0  0  0  0  0  0  0  0  0  0  0
    6.4225  -14.8673   25.5562 C   0  0  2  0  0  0  0  0  0  0  0  0
    5.7410  -15.9938   26.1225 N   0  0  0  0  0  0  0  0  0  0  0  0
    7.4276  -15.2219   24.5384 C   0  0  0  0  0  0  0  0  0  0  0  0
    7.9623  -16.3559   24.6270 O   0  0  0  0  0  0  0  0  0  0  0  0
    9.6836  -13.6610   18.8277 N   0  0  0  0  0  0  0  0  0  0  0  0
    8.5779  -13.7734   17.9449 C   0  0  0  0  0  0  0  0  0  0  0  0
    8.6766  -14.3298   16.7781 N   0  0  0  0  0  0  0  0  0  0  0  0
    7.2813  -13.2717   18.3079 N   0  0  0  0  0  0  0  0  0  0  0  0
    7.1431  -12.5468   19.5754 C   0  0  0  0  0  0  0  0  0  0  0  0
    7.2166  -13.5830   20.6529 C   0  0  0  0  0  0  0  0  0  0  0  0
    8.4609  -13.7816   21.3817 C   0  0  0  0  0  0  0  0  0  0  0  0
    8.6605  -14.8048   22.4235 C   0  0  2  0  0  0  0  0  0  0  0  0
    7.7598  -14.3281   23.5285 N   0  0  0  0  0  0  0  0  0  0  0  0
    9.9296  -15.0784   23.0209 C   0  0  0  0  0  0  0  0  0  0  0  0
   10.2209  -14.5955   24.1697 O   0  0  0  0  0  0  0  0  0  0  0  0
    7.8082  -14.3427   16.1975 N   0  0  0  0  0  0  0  0  0  0  0  0
   13.6391  -17.8662   25.0202 C   0  0  0  0  0  0  0  0  0  0  0  0
   12.2424  -18.0965   25.0812 O   0  0  0  0  0  0  0  0  0  0  0  0
   11.8358  -18.9433   25.8971 C   0  0  0  0  0  0  0  0  0  0  0  0
   11.3595  -17.3573   24.2135 C   0  0  1  0  0  0  0  0  0  0  0  0
   12.0499  -16.4111   23.2196 N   0  0  0  0  0  0  0  0  0  0  0  0
   10.9247  -15.8869   22.4237 C   0  0  0  0  0  0  0  0  0  0  0  0
   12.9420  -17.1512   22.3258 O   0  0  0  0  0  0  0  0  0  0  0  0
   14.0703  -17.5746   22.7630 O   0  0  0  0  0  0  0  0  0  0  0  0
  2  1  1  6
  2  3  1  0
  4  2  1  0
  4  6  1  0
  4  5  1  1
  6  7  2  0
  9  8  1  0
  9 10  2  0
 11  9  1  0
 12 11  1  0
 13 12  1  0
 14 13  1  0
 15 14  1  6
 16  6  1  0
 16 15  1  0
 17 15  1  0
 17 18  2  0
 19 20  1  0
 20 21  2  0
 20 22  1  0
 23 22  1  1
 23 25  1  0
 23 24  1  0
 24 17  1  0
 25 27  1  0
 26 25  2  0
M  END
$$$$
