TRN.pdb
     RDKit          3D

 27 26  0  0  1  0  0  0  0  0999 V2000
    6.8212  -10.6808   27.1511 C   0  0  0  0  0  0  0  0  0  0  0  0
    7.3246  -12.0058   26.6154 C   0  0  1  0  0  0  0  0  0  0  0  0
    7.9660  -12.7647   27.5736 O   0  0  0  0  0  0  0  0  0  0  0  0
    6.1292  -12.7223   26.0082 C   0  0  2  0  0  0  0  0  0  0  0  0
    5.1962  -13.0273   27.0525 N   0  0  0  0  0  0  0  0  0  0  0  0
    6.6348  -13.9052   25.2891 C   0  0  0  0  0  0  0  0  0  0  0  0
    6.6623  -14.9934   25.9174 O   0  0  0  0  0  0  0  0  0  0  0  0
    8.3325  -12.3152   18.6098 N   0  0  0  0  0  0  0  0  0  0  0  0
    9.2961  -13.3421   18.7875 C   0  0  0  0  0  0  0  0  0  0  0  0
   10.5625  -13.0910   18.9056 N   0  0  0  0  0  0  0  0  0  0  0  0
    8.9086  -14.7245   18.8477 N   0  0  0  0  0  0  0  0  0  0  0  0
    7.5587  -15.0511   19.3192 C   0  0  0  0  0  0  0  0  0  0  0  0
    7.7205  -15.5434   20.7234 C   0  0  0  0  0  0  0  0  0  0  0  0
    7.3908  -14.6685   21.8390 C   0  0  0  0  0  0  0  0  0  0  0  0
    7.4684  -15.0634   23.2568 C   0  0  2  0  0  0  0  0  0  0  0  0
    7.0601  -13.8052   23.9707 N   0  0  0  0  0  0  0  0  0  0  0  0
    8.6727  -15.5141   23.8805 C   0  0  0  0  0  0  0  0  0  0  0  0
    9.5273  -14.6698   24.3216 O   0  0  0  0  0  0  0  0  0  0  0  0
   11.1955  -13.9208   18.9525 N   0  0  0  0  0  0  0  0  0  0  0  0
    7.9428  -19.0803   26.7905 C   0  0  0  0  0  0  0  0  0  0  0  0
    9.2035  -18.4506   26.6435 O   0  0  0  0  0  0  0  0  0  0  0  0
    9.6351  -17.7982   27.6111 C   0  0  0  0  0  0  0  0  0  0  0  0
    9.9270  -18.5847   25.4036 C   0  0  2  0  0  0  0  0  0  0  0  0
   10.2771  -17.2663   24.6972 N   0  0  0  0  0  0  0  0  0  0  0  0
    9.0009  -16.8768   24.0695 C   0  0  0  0  0  0  0  0  0  0  0  0
   11.2641  -17.4856   23.6388 O   0  0  0  0  0  0  0  0  0  0  0  0
   10.8893  -17.4929   22.4129 O   0  0  0  0  0  0  0  0  0  0  0  0
  2  1  1  1
  2  3  1  0
  4  2  1  0
  4  6  1  0
  4  5  1  1
  6  7  2  0
  9  8  1  0
  9 10  2  0
 11  9  1  0
 12 11  1  0
 13 12  1  0
 14 13  1  0
 15 14  1  6
 16  6  1  0
 16 15  1  0
 17 15  1  0
 17 18  2  0
 19 20  1  0
 20 21  2  0
 20 22  1  0
 23 22  1  1
 23 25  1  0
 23 24  1  0
 24 17  1  0
 25 27  1  0
 26 25  2  0
M  END
$$$$
