TRN.pdb
     RDKit          3D

 27 26  0  0  1  0  0  0  0  0999 V2000
   15.7596  -16.1088   16.5543 C   0  0  0  0  0  0  0  0  0  0  0  0
   15.2885  -16.0155   17.9914 C   0  0  1  0  0  0  0  0  0  0  0  0
   16.3287  -15.9998   18.8987 O   0  0  0  0  0  0  0  0  0  0  0  0
   14.4092  -14.7793   18.0911 C   0  0  2  0  0  0  0  0  0  0  0  0
   15.2066  -13.6231   17.8060 N   0  0  0  0  0  0  0  0  0  0  0  0
   13.7977  -14.7724   19.4320 C   0  0  0  0  0  0  0  0  0  0  0  0
   14.4319  -14.1963   20.3516 O   0  0  0  0  0  0  0  0  0  0  0  0
    7.3617  -12.6804   20.1793 N   0  0  0  0  0  0  0  0  0  0  0  0
    7.5907  -13.0683   18.8333 C   0  0  0  0  0  0  0  0  0  0  0  0
    7.5373  -12.2247   17.8504 N   0  0  0  0  0  0  0  0  0  0  0  0
    7.8983  -14.4301   18.4929 N   0  0  0  0  0  0  0  0  0  0  0  0
    8.3848  -15.3213   19.5513 C   0  0  0  0  0  0  0  0  0  0  0  0
    9.7701  -14.8572   19.8764 C   0  0  0  0  0  0  0  0  0  0  0  0
   10.5779  -15.6037   20.8299 C   0  0  0  0  0  0  0  0  0  0  0  0
   12.0180  -15.3830   21.0525 C   0  0  2  0  0  0  0  0  0  0  0  0
   12.5699  -15.3824   19.6544 N   0  0  0  0  0  0  0  0  0  0  0  0
   12.8386  -16.2706   21.8149 C   0  0  0  0  0  0  0  0  0  0  0  0
   13.1897  -17.4022   21.3312 O   0  0  0  0  0  0  0  0  0  0  0  0
    7.7363  -12.6097   16.8998 N   0  0  0  0  0  0  0  0  0  0  0  0
   16.5172  -15.0069   22.4762 C   0  0  0  0  0  0  0  0  0  0  0  0
   16.2723  -16.2696   23.0703 O   0  0  0  0  0  0  0  0  0  0  0  0
   16.8507  -17.2561   22.5799 C   0  0  0  0  0  0  0  0  0  0  0  0
   15.3797  -16.3655   24.1986 C   0  0  2  0  0  0  0  0  0  0  0  0
   14.0150  -17.0084   23.9084 N   0  0  0  0  0  0  0  0  0  0  0  0
   13.3255  -15.9780   23.1101 C   0  0  0  0  0  0  0  0  0  0  0  0
   13.2605  -17.2156   25.1454 O   0  0  0  0  0  0  0  0  0  0  0  0
   12.2376  -16.4843   25.3950 O   0  0  0  0  0  0  0  0  0  0  0  0
  2  1  1  6
  2  3  1  0
  4  2  1  0
  4  6  1  0
  4  5  1  1
  6  7  2  0
  9  8  1  0
  9 10  2  0
 11  9  1  0
 12 11  1  0
 13 12  1  0
 14 13  1  0
 15 14  1  6
 16  6  1  0
 16 15  1  0
 17 15  1  0
 17 18  2  0
 19 20  1  0
 20 21  2  0
 20 22  1  0
 23 22  1  6
 23 25  1  0
 23 24  1  0
 24 17  1  0
 25 27  1  0
 26 25  2  0
M  END
$$$$
