TRN.pdb
     RDKit          3D

 27 26  0  0  1  0  0  0  0  0999 V2000
    6.8890  -20.5045   25.6863 C   0  0  0  0  0  0  0  0  0  0  0  0
    6.7404  -21.5418   24.5917 C   0  0  1  0  0  0  0  0  0  0  0  0
    6.0300  -22.6537   24.9971 O   0  0  0  0  0  0  0  0  0  0  0  0
    6.1017  -20.8435   23.4020 C   0  0  2  0  0  0  0  0  0  0  0  0
    5.7580  -21.8291   22.4199 N   0  0  0  0  0  0  0  0  0  0  0  0
    7.0486  -19.8212   22.9222 C   0  0  0  0  0  0  0  0  0  0  0  0
    8.0224  -20.2160   22.2326 O   0  0  0  0  0  0  0  0  0  0  0  0
    9.1161  -13.8386   18.6730 N   0  0  0  0  0  0  0  0  0  0  0  0
    8.5681  -12.9148   19.6008 C   0  0  0  0  0  0  0  0  0  0  0  0
    9.0355  -11.7136   19.7409 N   0  0  0  0  0  0  0  0  0  0  0  0
    7.4548  -13.2706   20.4367 N   0  0  0  0  0  0  0  0  0  0  0  0
    7.1385  -14.6923   20.6101 C   0  0  0  0  0  0  0  0  0  0  0  0
    7.6759  -15.0732   21.9540 C   0  0  0  0  0  0  0  0  0  0  0  0
    7.1614  -16.2550   22.6303 C   0  0  0  0  0  0  0  0  0  0  0  0
    7.9255  -17.4999   22.8265 C   0  0  2  0  0  0  0  0  0  0  0  0
    6.8589  -18.4798   23.2284 N   0  0  0  0  0  0  0  0  0  0  0  0
    8.9804  -17.6302   23.7818 C   0  0  0  0  0  0  0  0  0  0  0  0
    8.7175  -17.6708   25.0336 O   0  0  0  0  0  0  0  0  0  0  0  0
    8.5665  -11.1162   20.4582 N   0  0  0  0  0  0  0  0  0  0  0  0
   14.7584  -19.1880   24.6092 C   0  0  0  0  0  0  0  0  0  0  0  0
   13.3622  -19.4269   24.5799 O   0  0  0  0  0  0  0  0  0  0  0  0
   12.9236  -20.3518   25.2872 C   0  0  0  0  0  0  0  0  0  0  0  0
   12.5160  -18.6073   23.7485 C   0  0  2  0  0  0  0  0  0  0  0  0
   11.3812  -17.8747   24.4802 N   0  0  0  0  0  0  0  0  0  0  0  0
   10.3480  -17.7371   23.4372 C   0  0  0  0  0  0  0  0  0  0  0  0
   11.8030  -16.5349   24.8917 O   0  0  0  0  0  0  0  0  0  0  0  0
   11.6129  -15.5402   24.1057 O   0  0  0  0  0  0  0  0  0  0  0  0
  2  1  1  1
  2  3  1  0
  4  2  1  0
  4  6  1  0
  4  5  1  6
  6  7  2  0
  9  8  1  0
  9 10  2  0
 11  9  1  0
 12 11  1  0
 13 12  1  0
 14 13  1  0
 15 14  1  1
 16  6  1  0
 16 15  1  0
 17 15  1  0
 17 18  2  0
 19 20  1  0
 20 21  2  0
 20 22  1  0
 23 22  1  1
 23 25  1  0
 23 24  1  0
 24 17  1  0
 25 27  1  0
 26 25  2  0
M  END
$$$$
