TRN.pdb
     RDKit          3D

 27 26  0  0  1  0  0  0  0  0999 V2000
    4.0397  -20.0898   23.7724 C   0  0  0  0  0  0  0  0  0  0  0  0
    4.1003  -20.6954   22.3848 C   0  0  1  0  0  0  0  0  0  0  0  0
    3.0102  -21.4921   22.0975 O   0  0  0  0  0  0  0  0  0  0  0  0
    4.2558  -19.5442   21.4042 C   0  0  2  0  0  0  0  0  0  0  0  0
    4.1786  -20.0623   20.0701 N   0  0  0  0  0  0  0  0  0  0  0  0
    5.5258  -18.8630   21.7122 C   0  0  0  0  0  0  0  0  0  0  0  0
    6.5891  -19.4776   21.4448 O   0  0  0  0  0  0  0  0  0  0  0  0
    8.0034  -11.5811   19.1298 N   0  0  0  0  0  0  0  0  0  0  0  0
    8.9296  -12.5943   19.4904 C   0  0  0  0  0  0  0  0  0  0  0  0
   10.0569  -12.7551   18.8705 N   0  0  0  0  0  0  0  0  0  0  0  0
    8.6593  -13.4989   20.5736 N   0  0  0  0  0  0  0  0  0  0  0  0
    7.4185  -13.3243   21.3358 C   0  0  0  0  0  0  0  0  0  0  0  0
    7.4372  -14.3761   22.4004 C   0  0  0  0  0  0  0  0  0  0  0  0
    6.4853  -15.4761   22.3471 C   0  0  0  0  0  0  0  0  0  0  0  0
    6.8520  -16.8994   22.4552 C   0  0  2  0  0  0  0  0  0  0  0  0
    5.5309  -17.5933   22.2752 N   0  0  0  0  0  0  0  0  0  0  0  0
    7.4562  -17.4673   23.6192 C   0  0  0  0  0  0  0  0  0  0  0  0
    6.7830  -17.5943   24.7002 O   0  0  0  0  0  0  0  0  0  0  0  0
   10.6825  -13.5070   19.2373 N   0  0  0  0  0  0  0  0  0  0  0  0
    9.6354  -21.1262   25.6255 C   0  0  0  0  0  0  0  0  0  0  0  0
   10.6976  -20.5615   24.8769 O   0  0  0  0  0  0  0  0  0  0  0  0
   11.6633  -21.2978   24.6062 C   0  0  0  0  0  0  0  0  0  0  0  0
   10.6240  -19.1820   24.4640 C   0  0  2  0  0  0  0  0  0  0  0  0
    9.3758  -18.4183   24.9315 N   0  0  0  0  0  0  0  0  0  0  0  0
    8.7908  -17.9329   23.6679 C   0  0  0  0  0  0  0  0  0  0  0  0
    9.7457  -17.2587   25.7443 O   0  0  0  0  0  0  0  0  0  0  0  0
    9.9890  -16.1361   25.1752 O   0  0  0  0  0  0  0  0  0  0  0  0
  2  1  1  1
  2  3  1  0
  4  2  1  0
  4  6  1  0
  4  5  1  6
  6  7  2  0
  9  8  1  0
  9 10  2  0
 11  9  1  0
 12 11  1  0
 13 12  1  0
 14 13  1  0
 15 14  1  1
 16  6  1  0
 16 15  1  0
 17 15  1  0
 17 18  2  0
 19 20  1  0
 20 21  2  0
 20 22  1  0
 23 22  1  6
 23 25  1  0
 23 24  1  0
 24 17  1  0
 25 27  1  0
 26 25  2  0
M  END
$$$$
