TRN.pdb
     RDKit          3D

 27 26  0  0  1  0  0  0  0  0999 V2000
    5.8748  -21.3647   25.5151 C   0  0  0  0  0  0  0  0  0  0  0  0
    6.9129  -20.5057   24.8218 C   0  0  1  0  0  0  0  0  0  0  0  0
    8.1632  -21.0900   24.7942 O   0  0  0  0  0  0  0  0  0  0  0  0
    6.3805  -20.2017   23.4307 C   0  0  2  0  0  0  0  0  0  0  0  0
    6.2673  -21.4309   22.7024 N   0  0  0  0  0  0  0  0  0  0  0  0
    7.2848  -19.2167   22.8112 C   0  0  0  0  0  0  0  0  0  0  0  0
    8.1396  -19.6505   21.9982 O   0  0  0  0  0  0  0  0  0  0  0  0
    8.0545  -14.2627   18.4225 N   0  0  0  0  0  0  0  0  0  0  0  0
    8.1883  -12.9708   18.9946 C   0  0  0  0  0  0  0  0  0  0  0  0
    8.9928  -12.0777   18.5086 N   0  0  0  0  0  0  0  0  0  0  0  0
    7.4281  -12.5864   20.1518 N   0  0  0  0  0  0  0  0  0  0  0  0
    6.6690  -13.6202   20.8632 C   0  0  0  0  0  0  0  0  0  0  0  0
    7.6770  -14.6216   21.3333 C   0  0  0  0  0  0  0  0  0  0  0  0
    7.2308  -15.8629   21.9489 C   0  0  0  0  0  0  0  0  0  0  0  0
    8.1337  -16.9097   22.4595 C   0  0  2  0  0  0  0  0  0  0  0  0
    7.1841  -17.8671   23.1235 N   0  0  0  0  0  0  0  0  0  0  0  0
    9.1789  -16.6534   23.4000 C   0  0  0  0  0  0  0  0  0  0  0  0
    8.9640  -16.7794   24.6553 O   0  0  0  0  0  0  0  0  0  0  0  0
    9.0791  -11.1894   19.0517 N   0  0  0  0  0  0  0  0  0  0  0  0
   10.6907  -19.7750   25.4803 C   0  0  0  0  0  0  0  0  0  0  0  0
   11.4211  -18.5665   25.3643 O   0  0  0  0  0  0  0  0  0  0  0  0
   11.8007  -18.0224   26.4169 C   0  0  0  0  0  0  0  0  0  0  0  0
   11.6930  -18.0206   24.0578 C   0  0  2  0  0  0  0  0  0  0  0  0
   11.6237  -16.4895   23.9542 N   0  0  0  0  0  0  0  0  0  0  0  0
   10.4907  -16.2697   23.0364 C   0  0  0  0  0  0  0  0  0  0  0  0
   12.8338  -15.9518   23.3306 O   0  0  0  0  0  0  0  0  0  0  0  0
   12.8800  -15.8033   22.0582 O   0  0  0  0  0  0  0  0  0  0  0  0
  2  1  1  6
  2  3  1  0
  4  2  1  0
  4  6  1  0
  4  5  1  6
  6  7  2  0
  9  8  1  0
  9 10  2  0
 11  9  1  0
 12 11  1  0
 13 12  1  0
 14 13  1  0
 15 14  1  1
 16  6  1  0
 16 15  1  0
 17 15  1  0
 17 18  2  0
 19 20  1  0
 20 21  2  0
 20 22  1  0
 23 22  1  1
 23 25  1  0
 23 24  1  0
 24 17  1  0
 25 27  1  0
 26 25  2  0
M  END
$$$$
