KWE.pdb
     RDKit          3D

 33 34  0  0  1  0  0  0  0  0999 V2000
   26.9748  -21.4709  -17.1980 N   0  0  0  0  0  0  0  0  0  0  0  0
   26.9866  -22.7577  -16.5589 C   0  0  1  0  0  0  0  0  0  0  0  0
   28.3587  -23.2774  -16.4153 C   0  0  0  0  0  0  0  0  0  0  0  0
   29.1174  -23.2614  -17.7022 C   0  0  0  0  0  0  0  0  0  0  0  0
   29.6657  -21.9429  -18.1321 C   0  0  0  0  0  0  0  0  0  0  0  0
   30.4133  -22.2288  -19.4609 C   0  0  0  0  0  0  0  0  0  0  0  0
   30.9082  -20.9674  -19.9238 N   0  0  0  0  0  0  0  0  0  0  0  0
   26.2474  -22.6877  -15.2599 C   0  0  0  0  0  0  0  0  0  0  0  0
   26.1704  -23.7108  -14.5438 O   0  0  0  0  0  0  0  0  0  0  0  0
   25.6298  -21.4981  -14.8126 N   0  0  0  0  0  0  0  0  0  0  0  0
   24.9841  -21.3007  -13.5644 C   0  0  1  0  0  0  0  0  0  0  0  0
   25.4981  -20.1508  -12.7150 C   0  0  0  0  0  0  0  0  0  0  0  0
   26.7169  -20.4208  -11.9761 C   0  0  0  0  0  0  0  0  0  0  0  0
   27.9783  -20.6689  -12.3954 C   0  0  0  0  0  0  0  0  0  0  0  0
   28.8169  -20.8617  -11.3358 N   0  0  0  0  0  0  0  0  0  0  0  0
   28.0748  -20.7330  -10.2317 C   0  0  0  0  0  0  0  0  0  0  0  0
   28.3902  -20.8220   -8.8830 C   0  0  0  0  0  0  0  0  0  0  0  0
   27.4539  -20.6483   -7.8901 C   0  0  0  0  0  0  0  0  0  0  0  0
   26.1538  -20.3752   -8.2554 C   0  0  0  0  0  0  0  0  0  0  0  0
   25.8228  -20.2832   -9.5957 C   0  0  0  0  0  0  0  0  0  0  0  0
   26.7734  -20.4605  -10.5745 C   0  0  0  0  0  0  0  0  0  0  0  0
   23.5160  -21.1549  -13.6438 C   0  0  0  0  0  0  0  0  0  0  0  0
   23.0784  -20.4029  -14.5666 O   0  0  0  0  0  0  0  0  0  0  0  0
   22.6020  -21.7738  -12.7924 N   0  0  0  0  0  0  0  0  0  0  0  0
   21.1691  -21.5853  -13.0402 C   0  0  1  0  0  0  0  0  0  0  0  0
   20.3846  -22.6454  -12.2967 C   0  0  0  0  0  0  0  0  0  0  0  0
   18.9045  -22.4077  -12.3942 C   0  0  0  0  0  0  0  0  0  0  0  0
   18.3824  -22.8779  -13.7195 C   0  0  0  0  0  0  0  0  0  0  0  0
   18.8515  -23.8684  -14.2952 O   0  0  0  0  0  0  0  0  0  0  0  0
   20.8479  -20.2150  -12.6054 C   0  0  0  0  0  0  0  0  0  0  0  0
   21.3690  -19.6734  -11.4503 O   0  0  0  0  0  0  0  0  0  0  0  0
   17.3467  -22.1676  -14.2944 O   0  0  0  0  0  0  0  0  0  0  0  0
   20.0789  -19.5120  -13.2951 O   0  0  0  0  0  0  0  0  0  0  0  0
  2  1  1  1
  2  3  1  0
  3  4  1  0
  4  5  1  0
  5  6  1  0
  6  7  1  0
  8  2  1  0
  8  9  2  0
 10  8  1  0
 11 10  1  0
 11 12  1  6
 13 12  1  0
 13 14  2  0
 15 14  1  0
 16 15  1  0
 17 16  2  0
 18 17  1  0
 19 18  2  0
 19 20  1  0
 20 21  2  0
 21 16  1  0
 21 13  1  0
 22 11  1  0
 23 22  2  0
 24 22  1  0
 25 24  1  0
 25 26  1  1
 26 27  1  0
 27 28  1  0
 28 29  2  0
 28 32  1  0
 30 31  1  0
 30 25  1  0
 33 30  2  0
M  END
$$$$
