KWE.pdb
     RDKit          3D

 33 34  0  0  1  0  0  0  0  0999 V2000
   29.1455  -20.8419  -14.7374 N   0  0  0  0  0  0  0  0  0  0  0  0
   28.3676  -19.9709  -13.9002 C   0  0  1  0  0  0  0  0  0  0  0  0
   27.8324  -18.8267  -14.6601 C   0  0  0  0  0  0  0  0  0  0  0  0
   28.9040  -18.0269  -15.3263 C   0  0  0  0  0  0  0  0  0  0  0  0
   29.0831  -18.2480  -16.7902 C   0  0  0  0  0  0  0  0  0  0  0  0
   30.2061  -17.2653  -17.2139 C   0  0  0  0  0  0  0  0  0  0  0  0
   29.5899  -15.9785  -17.3364 N   0  0  0  0  0  0  0  0  0  0  0  0
   27.3055  -20.7559  -13.1968 C   0  0  0  0  0  0  0  0  0  0  0  0
   26.4608  -21.3846  -13.8725 O   0  0  0  0  0  0  0  0  0  0  0  0
   27.2242  -20.8108  -11.7872 N   0  0  0  0  0  0  0  0  0  0  0  0
   26.2538  -21.5116  -11.0249 C   0  0  1  0  0  0  0  0  0  0  0  0
   26.5922  -21.7542   -9.5639 C   0  0  0  0  0  0  0  0  0  0  0  0
   26.8523  -20.5616   -8.7802 C   0  0  0  0  0  0  0  0  0  0  0  0
   26.4400  -19.2833   -8.9367 C   0  0  0  0  0  0  0  0  0  0  0  0
   26.9303  -18.4861   -7.9432 N   0  0  0  0  0  0  0  0  0  0  0  0
   27.6622  -19.2720   -7.1476 C   0  0  0  0  0  0  0  0  0  0  0  0
   28.3869  -19.0107   -5.9930 C   0  0  0  0  0  0  0  0  0  0  0  0
   29.0794  -19.9878   -5.3159 C   0  0  0  0  0  0  0  0  0  0  0  0
   29.0483  -21.2743   -5.8082 C   0  0  0  0  0  0  0  0  0  0  0  0
   28.3306  -21.5515   -6.9582 C   0  0  0  0  0  0  0  0  0  0  0  0
   27.6445  -20.5605   -7.6218 C   0  0  0  0  0  0  0  0  0  0  0  0
   24.8979  -20.9259  -11.0615 C   0  0  0  0  0  0  0  0  0  0  0  0
   24.8338  -19.6610  -10.9965 O   0  0  0  0  0  0  0  0  0  0  0  0
   23.7130  -21.6538  -11.1600 N   0  0  0  0  0  0  0  0  0  0  0  0
   22.4827  -20.9495  -11.5349 C   0  0  1  0  0  0  0  0  0  0  0  0
   21.7687  -21.7245  -12.6219 C   0  0  0  0  0  0  0  0  0  0  0  0
   20.4582  -21.0867  -12.9856 C   0  0  0  0  0  0  0  0  0  0  0  0
   19.7311  -21.9198  -13.9992 C   0  0  0  0  0  0  0  0  0  0  0  0
   18.5390  -21.7281  -14.2721 O   0  0  0  0  0  0  0  0  0  0  0  0
   21.6879  -20.8145  -10.3020 C   0  0  0  0  0  0  0  0  0  0  0  0
   20.5912  -19.9835  -10.2264 O   0  0  0  0  0  0  0  0  0  0  0  0
   20.4348  -22.9249  -14.6335 O   0  0  0  0  0  0  0  0  0  0  0  0
   22.0084  -21.4667   -9.2855 O   0  0  0  0  0  0  0  0  0  0  0  0
  2  1  1  6
  2  3  1  0
  3  4  1  0
  4  5  1  0
  5  6  1  0
  6  7  1  0
  8  2  1  0
  8  9  2  0
 10  8  1  0
 11 10  1  0
 11 12  1  1
 13 12  1  0
 13 14  2  0
 15 14  1  0
 16 15  1  0
 17 16  2  0
 18 17  1  0
 19 18  2  0
 19 20  1  0
 20 21  2  0
 21 16  1  0
 21 13  1  0
 22 11  1  0
 23 22  2  0
 24 22  1  0
 25 24  1  0
 25 26  1  6
 26 27  1  0
 27 28  1  0
 28 29  2  0
 28 32  1  0
 30 31  1  0
 30 25  1  0
 33 30  2  0
M  END
$$$$
