KWE.pdb
     RDKit          3D

 33 34  0  0  1  0  0  0  0  0999 V2000
   28.1139  -20.3980  -15.6721 N   0  0  0  0  0  0  0  0  0  0  0  0
   27.6713  -21.7650  -15.6601 C   0  0  1  0  0  0  0  0  0  0  0  0
   28.8093  -22.7018  -15.6764 C   0  0  0  0  0  0  0  0  0  0  0  0
   29.7582  -22.4348  -16.7989 C   0  0  0  0  0  0  0  0  0  0  0  0
   30.0659  -23.5866  -17.6950 C   0  0  0  0  0  0  0  0  0  0  0  0
   31.4867  -24.0526  -17.2823 C   0  0  0  0  0  0  0  0  0  0  0  0
   31.7372  -25.2655  -18.0010 N   0  0  0  0  0  0  0  0  0  0  0  0
   26.7435  -21.9895  -14.5079 C   0  0  0  0  0  0  0  0  0  0  0  0
   26.2114  -23.1123  -14.3607 O   0  0  0  0  0  0  0  0  0  0  0  0
   26.4466  -20.9701  -13.5755 N   0  0  0  0  0  0  0  0  0  0  0  0
   25.6033  -21.0852  -12.4399 C   0  0  1  0  0  0  0  0  0  0  0  0
   26.0084  -20.2811  -11.2163 C   0  0  0  0  0  0  0  0  0  0  0  0
   27.2281  -20.7165  -10.5628 C   0  0  0  0  0  0  0  0  0  0  0  0
   28.3155  -21.3622  -11.0415 C   0  0  0  0  0  0  0  0  0  0  0  0
   29.2380  -21.5638  -10.0559 N   0  0  0  0  0  0  0  0  0  0  0  0
   28.7262  -21.0376   -8.9390 C   0  0  0  0  0  0  0  0  0  0  0  0
   29.2156  -20.9488   -7.6432 C   0  0  0  0  0  0  0  0  0  0  0  0
   28.5110  -20.3500   -6.6245 C   0  0  0  0  0  0  0  0  0  0  0  0
   27.2715  -19.8194   -6.9082 C   0  0  0  0  0  0  0  0  0  0  0  0
   26.7691  -19.8997   -8.1949 C   0  0  0  0  0  0  0  0  0  0  0  0
   27.4888  -20.5030   -9.2006 C   0  0  0  0  0  0  0  0  0  0  0  0
   24.1781  -20.7916  -12.6958 C   0  0  0  0  0  0  0  0  0  0  0  0
   23.9234  -19.6560  -13.1998 O   0  0  0  0  0  0  0  0  0  0  0  0
   23.1204  -21.6587  -12.4263 N   0  0  0  0  0  0  0  0  0  0  0  0
   21.7624  -21.2513  -12.8009 C   0  0  1  0  0  0  0  0  0  0  0  0
   20.8826  -22.4775  -12.9211 C   0  0  0  0  0  0  0  0  0  0  0  0
   19.4564  -22.1078  -13.2142 C   0  0  0  0  0  0  0  0  0  0  0  0
   18.6200  -23.3400  -13.3940 C   0  0  0  0  0  0  0  0  0  0  0  0
   19.1258  -24.4544  -13.5805 O   0  0  0  0  0  0  0  0  0  0  0  0
   21.3079  -20.3115  -11.7616 C   0  0  0  0  0  0  0  0  0  0  0  0
   20.3120  -19.3883  -11.9957 O   0  0  0  0  0  0  0  0  0  0  0  0
   17.2467  -23.2009  -13.3458 O   0  0  0  0  0  0  0  0  0  0  0  0
   21.8347  -20.3406  -10.6289 O   0  0  0  0  0  0  0  0  0  0  0  0
  2  1  1  1
  2  3  1  0
  3  4  1  0
  4  5  1  0
  5  6  1  0
  6  7  1  0
  8  2  1  0
  8  9  2  0
 10  8  1  0
 11 10  1  0
 11 12  1  1
 13 12  1  0
 13 14  2  0
 15 14  1  0
 16 15  1  0
 17 16  2  0
 18 17  1  0
 19 18  2  0
 19 20  1  0
 20 21  2  0
 21 16  1  0
 21 13  1  0
 22 11  1  0
 23 22  2  0
 24 22  1  0
 25 24  1  0
 25 26  1  1
 26 27  1  0
 27 28  1  0
 28 29  2  0
 28 32  1  0
 30 31  1  0
 30 25  1  0
 33 30  2  0
M  END
$$$$
