KWE.pdb
     RDKit          3D

 33 34  0  0  1  0  0  0  0  0999 V2000
   28.8552  -22.6644  -15.8721 N   0  0  0  0  0  0  0  0  0  0  0  0
   27.4618  -22.6867  -16.2222 C   0  0  1  0  0  0  0  0  0  0  0  0
   27.1173  -23.8953  -16.9927 C   0  0  0  0  0  0  0  0  0  0  0  0
   27.8968  -24.0101  -18.2619 C   0  0  0  0  0  0  0  0  0  0  0  0
   27.7597  -22.8825  -19.2283 C   0  0  0  0  0  0  0  0  0  0  0  0
   28.7001  -23.2434  -20.4079 C   0  0  0  0  0  0  0  0  0  0  0  0
   28.7185  -22.1017  -21.2720 N   0  0  0  0  0  0  0  0  0  0  0  0
   26.6254  -22.5167  -14.9932 C   0  0  0  0  0  0  0  0  0  0  0  0
   25.8867  -23.4555  -14.6212 O   0  0  0  0  0  0  0  0  0  0  0  0
   26.6420  -21.3245  -14.2348 N   0  0  0  0  0  0  0  0  0  0  0  0
   25.8778  -21.0552  -13.0697 C   0  0  1  0  0  0  0  0  0  0  0  0
   26.4757  -20.0632  -12.0868 C   0  0  0  0  0  0  0  0  0  0  0  0
   27.5405  -20.5829  -11.2500 C   0  0  0  0  0  0  0  0  0  0  0  0
   28.7247  -21.1547  -11.5649 C   0  0  0  0  0  0  0  0  0  0  0  0
   29.4210  -21.4893  -10.4396 N   0  0  0  0  0  0  0  0  0  0  0  0
   28.6661  -21.1231   -9.3991 C   0  0  0  0  0  0  0  0  0  0  0  0
   28.8641  -21.2135   -8.0284 C   0  0  0  0  0  0  0  0  0  0  0  0
   27.9397  -20.7623   -7.1148 C   0  0  0  0  0  0  0  0  0  0  0  0
   26.7735  -20.1994   -7.5856 C   0  0  0  0  0  0  0  0  0  0  0  0
   26.5606  -20.1018   -8.9493 C   0  0  0  0  0  0  0  0  0  0  0  0
   27.4971  -20.5593   -9.8475 C   0  0  0  0  0  0  0  0  0  0  0  0
   24.4889  -20.6223  -13.3277 C   0  0  0  0  0  0  0  0  0  0  0  0
   24.3508  -19.5896  -14.0509 O   0  0  0  0  0  0  0  0  0  0  0  0
   23.3479  -21.2578  -12.8404 N   0  0  0  0  0  0  0  0  0  0  0  0
   22.0334  -20.7048  -13.1818 C   0  0  1  0  0  0  0  0  0  0  0  0
   21.1778  -21.7859  -13.8072 C   0  0  0  0  0  0  0  0  0  0  0  0
   21.9875  -22.6866  -14.6959 C   0  0  0  0  0  0  0  0  0  0  0  0
   21.1397  -23.8066  -15.2222 C   0  0  0  0  0  0  0  0  0  0  0  0
   20.6212  -24.6445  -14.4728 O   0  0  0  0  0  0  0  0  0  0  0  0
   21.4688  -20.1701  -11.9307 C   0  0  0  0  0  0  0  0  0  0  0  0
   20.2717  -19.4881  -11.9015 O   0  0  0  0  0  0  0  0  0  0  0  0
   20.9468  -23.8838  -16.5877 O   0  0  0  0  0  0  0  0  0  0  0  0
   22.0852  -20.3316  -10.8558 O   0  0  0  0  0  0  0  0  0  0  0  0
  2  1  1  1
  2  3  1  0
  3  4  1  0
  4  5  1  0
  5  6  1  0
  6  7  1  0
  8  2  1  0
  8  9  2  0
 10  8  1  0
 11 10  1  0
 11 12  1  6
 13 12  1  0
 13 14  2  0
 15 14  1  0
 16 15  1  0
 17 16  2  0
 18 17  1  0
 19 18  2  0
 19 20  1  0
 20 21  2  0
 21 16  1  0
 21 13  1  0
 22 11  1  0
 23 22  2  0
 24 22  1  0
 25 24  1  0
 25 26  1  1
 26 27  1  0
 27 28  1  0
 28 29  2  0
 28 32  1  0
 30 31  1  0
 30 25  1  0
 33 30  2  0
M  END
$$$$
