KWE.pdb
     RDKit          3D

 33 34  0  0  1  0  0  0  0  0999 V2000
   27.2233  -27.3915  -17.7170 N   0  0  0  0  0  0  0  0  0  0  0  0
   27.2469  -28.7910  -17.3923 C   0  0  1  0  0  0  0  0  0  0  0  0
   28.5069  -29.1706  -16.7279 C   0  0  0  0  0  0  0  0  0  0  0  0
   29.6008  -29.4733  -17.6992 C   0  0  0  0  0  0  0  0  0  0  0  0
   30.2657  -30.8007  -17.5564 C   0  0  0  0  0  0  0  0  0  0  0  0
   31.3839  -30.8114  -18.6314 C   0  0  0  0  0  0  0  0  0  0  0  0
   31.9815  -32.1116  -18.5777 N   0  0  0  0  0  0  0  0  0  0  0  0
   26.0326  -29.1490  -16.5948 C   0  0  0  0  0  0  0  0  0  0  0  0
   25.5582  -28.3129  -15.7938 O   0  0  0  0  0  0  0  0  0  0  0  0
   25.4004  -30.4069  -16.7166 N   0  0  0  0  0  0  0  0  0  0  0  0
   24.3397  -30.8992  -15.9126 C   0  0  1  0  0  0  0  0  0  0  0  0
   23.0825  -31.3316  -16.6476 C   0  0  0  0  0  0  0  0  0  0  0  0
   22.3773  -30.2744  -17.3470 C   0  0  0  0  0  0  0  0  0  0  0  0
   22.7281  -29.5217  -18.4142 C   0  0  0  0  0  0  0  0  0  0  0  0
   21.7369  -28.6413  -18.7390 N   0  0  0  0  0  0  0  0  0  0  0  0
   20.7457  -28.8411  -17.8650 C   0  0  0  0  0  0  0  0  0  0  0  0
   19.5023  -28.2428  -17.7155 C   0  0  0  0  0  0  0  0  0  0  0  0
   18.6167  -28.6109  -16.7291 C   0  0  0  0  0  0  0  0  0  0  0  0
   18.9844  -29.6137  -15.8587 C   0  0  0  0  0  0  0  0  0  0  0  0
   20.2205  -30.2204  -15.9940 C   0  0  0  0  0  0  0  0  0  0  0  0
   21.0930  -29.8380  -16.9869 C   0  0  0  0  0  0  0  0  0  0  0  0
   24.7121  -32.0064  -15.0079 C   0  0  0  0  0  0  0  0  0  0  0  0
   25.5587  -32.8359  -15.4592 O   0  0  0  0  0  0  0  0  0  0  0  0
   24.2067  -32.1954  -13.7225 N   0  0  0  0  0  0  0  0  0  0  0  0
   24.7504  -33.2845  -12.9049 C   0  0  1  0  0  0  0  0  0  0  0  0
   24.7501  -32.8710  -11.4485 C   0  0  0  0  0  0  0  0  0  0  0  0
   25.2287  -33.9823  -10.5583 C   0  0  0  0  0  0  0  0  0  0  0  0
   25.2578  -33.5342   -9.1270 C   0  0  0  0  0  0  0  0  0  0  0  0
   24.8374  -32.4231   -8.7791 O   0  0  0  0  0  0  0  0  0  0  0  0
   23.9108  -34.4651  -13.1723 C   0  0  0  0  0  0  0  0  0  0  0  0
   24.4470  -35.7265  -13.3143 O   0  0  0  0  0  0  0  0  0  0  0  0
   25.7740  -34.4057   -8.1880 O   0  0  0  0  0  0  0  0  0  0  0  0
   22.6728  -34.3321  -13.2776 O   0  0  0  0  0  0  0  0  0  0  0  0
  2  1  1  1
  2  3  1  0
  3  4  1  0
  4  5  1  0
  5  6  1  0
  6  7  1  0
  8  2  1  0
  8  9  2  0
 10  8  1  0
 11 10  1  0
 11 12  1  6
 13 12  1  0
 13 14  2  0
 15 14  1  0
 16 15  1  0
 17 16  2  0
 18 17  1  0
 19 18  2  0
 19 20  1  0
 20 21  2  0
 21 16  1  0
 21 13  1  0
 22 11  1  0
 23 22  2  0
 24 22  1  0
 25 24  1  0
 25 26  1  1
 26 27  1  0
 27 28  1  0
 28 29  2  0
 28 32  1  0
 30 31  1  0
 30 25  1  0
 33 30  2  0
M  END
$$$$
