KWE.pdb
     RDKit          3D

 33 34  0  0  1  0  0  0  0  0999 V2000
   29.0070  -22.5433  -15.1166 N   0  0  0  0  0  0  0  0  0  0  0  0
   28.2409  -21.3557  -14.8573 C   0  0  1  0  0  0  0  0  0  0  0  0
   27.4174  -20.9789  -16.0205 C   0  0  0  0  0  0  0  0  0  0  0  0
   28.0322  -19.8840  -16.8300 C   0  0  0  0  0  0  0  0  0  0  0  0
   28.4304  -18.6538  -16.0869 C   0  0  0  0  0  0  0  0  0  0  0  0
   28.9747  -17.6851  -17.1695 C   0  0  0  0  0  0  0  0  0  0  0  0
   29.5045  -16.5546  -16.4683 N   0  0  0  0  0  0  0  0  0  0  0  0
   27.4413  -21.5292  -13.6045 C   0  0  0  0  0  0  0  0  0  0  0  0
   26.3767  -22.1854  -13.6441 O   0  0  0  0  0  0  0  0  0  0  0  0
   27.8506  -20.9733  -12.3716 N   0  0  0  0  0  0  0  0  0  0  0  0
   27.1270  -21.0032  -11.1511 C   0  0  1  0  0  0  0  0  0  0  0  0
   27.8100  -20.3755   -9.9480 C   0  0  0  0  0  0  0  0  0  0  0  0
   27.0867  -20.4860   -8.6955 C   0  0  0  0  0  0  0  0  0  0  0  0
   25.8100  -20.8444   -8.4307 C   0  0  0  0  0  0  0  0  0  0  0  0
   25.5615  -20.8137   -7.0889 N   0  0  0  0  0  0  0  0  0  0  0  0
   26.6975  -20.4309   -6.4978 C   0  0  0  0  0  0  0  0  0  0  0  0
   27.0316  -20.2312   -5.1655 C   0  0  0  0  0  0  0  0  0  0  0  0
   28.2867  -19.8316   -4.7683 C   0  0  0  0  0  0  0  0  0  0  0  0
   29.2452  -19.6231   -5.7359 C   0  0  0  0  0  0  0  0  0  0  0  0
   28.9283  -19.8177   -7.0686 C   0  0  0  0  0  0  0  0  0  0  0  0
   27.6670  -20.2173   -7.4463 C   0  0  0  0  0  0  0  0  0  0  0  0
   25.7681  -20.4280  -11.2238 C   0  0  0  0  0  0  0  0  0  0  0  0
   25.6971  -19.1997  -11.5317 O   0  0  0  0  0  0  0  0  0  0  0  0
   24.5874  -21.1285  -10.9819 N   0  0  0  0  0  0  0  0  0  0  0  0
   23.3164  -20.5368  -11.4117 C   0  0  1  0  0  0  0  0  0  0  0  0
   22.7141  -21.3807  -12.5148 C   0  0  0  0  0  0  0  0  0  0  0  0
   21.2375  -21.1406  -12.6509 C   0  0  0  0  0  0  0  0  0  0  0  0
   20.8058  -21.3125  -14.0772 C   0  0  0  0  0  0  0  0  0  0  0  0
   21.6039  -21.2223  -15.0192 O   0  0  0  0  0  0  0  0  0  0  0  0
   22.4661  -20.4594  -10.2114 C   0  0  0  0  0  0  0  0  0  0  0  0
   22.6599  -21.2830   -9.1237 O   0  0  0  0  0  0  0  0  0  0  0  0
   19.4726  -21.5786  -14.3207 O   0  0  0  0  0  0  0  0  0  0  0  0
   21.5355  -19.6267  -10.1658 O   0  0  0  0  0  0  0  0  0  0  0  0
  2  1  1  6
  2  3  1  0
  3  4  1  0
  4  5  1  0
  5  6  1  0
  6  7  1  0
  8  2  1  0
  8  9  2  0
 10  8  1  0
 11 10  1  0
 11 12  1  1
 13 12  1  0
 13 14  2  0
 15 14  1  0
 16 15  1  0
 17 16  2  0
 18 17  1  0
 19 18  2  0
 19 20  1  0
 20 21  2  0
 21 16  1  0
 21 13  1  0
 22 11  1  0
 23 22  2  0
 24 22  1  0
 25 24  1  0
 25 26  1  6
 26 27  1  0
 27 28  1  0
 28 29  2  0
 28 32  1  0
 30 31  1  0
 30 25  1  0
 33 30  2  0
M  END
$$$$
