KWE.pdb
     RDKit          3D

 33 34  0  0  1  0  0  0  0  0999 V2000
   29.0287  -22.2004  -16.7991 N   0  0  0  0  0  0  0  0  0  0  0  0
   27.7060  -22.7499  -16.9128 C   0  0  1  0  0  0  0  0  0  0  0  0
   27.7313  -24.1042  -17.4944 C   0  0  0  0  0  0  0  0  0  0  0  0
   28.3904  -24.1424  -18.8345 C   0  0  0  0  0  0  0  0  0  0  0  0
   27.8407  -23.2208  -19.8702 C   0  0  0  0  0  0  0  0  0  0  0  0
   28.6527  -23.5260  -21.1561 C   0  0  0  0  0  0  0  0  0  0  0  0
   28.2238  -22.5761  -22.1380 N   0  0  0  0  0  0  0  0  0  0  0  0
   27.0160  -22.6944  -15.5862 C   0  0  0  0  0  0  0  0  0  0  0  0
   26.2219  -23.6084  -15.2709 O   0  0  0  0  0  0  0  0  0  0  0  0
   27.2326  -21.6382  -14.6728 N   0  0  0  0  0  0  0  0  0  0  0  0
   26.5837  -21.4569  -13.4238 C   0  0  1  0  0  0  0  0  0  0  0  0
   27.2306  -20.4709  -12.4660 C   0  0  0  0  0  0  0  0  0  0  0  0
   26.6085  -20.3753  -11.1590 C   0  0  0  0  0  0  0  0  0  0  0  0
   25.3451  -20.0623  -10.7928 C   0  0  0  0  0  0  0  0  0  0  0  0
   25.2047  -20.1036   -9.4357 N   0  0  0  0  0  0  0  0  0  0  0  0
   26.3963  -20.4481   -8.9378 C   0  0  0  0  0  0  0  0  0  0  0  0
   26.8399  -20.6439   -7.6373 C   0  0  0  0  0  0  0  0  0  0  0  0
   28.1337  -21.0070   -7.3426 C   0  0  0  0  0  0  0  0  0  0  0  0
   29.0190  -21.1817   -8.3838 C   0  0  0  0  0  0  0  0  0  0  0  0
   28.5927  -20.9904   -9.6861 C   0  0  0  0  0  0  0  0  0  0  0  0
   27.2944  -20.6269   -9.9609 C   0  0  0  0  0  0  0  0  0  0  0  0
   25.1547  -21.0931  -13.5164 C   0  0  0  0  0  0  0  0  0  0  0  0
   24.8937  -19.9984  -14.1012 O   0  0  0  0  0  0  0  0  0  0  0  0
   24.0999  -21.8546  -13.0155 N   0  0  0  0  0  0  0  0  0  0  0  0
   22.7386  -21.5603  -13.4742 C   0  0  1  0  0  0  0  0  0  0  0  0
   21.9567  -22.8510  -13.5952 C   0  0  0  0  0  0  0  0  0  0  0  0
   20.5247  -22.5966  -13.9709 C   0  0  0  0  0  0  0  0  0  0  0  0
   19.9571  -23.7735  -14.7077 C   0  0  0  0  0  0  0  0  0  0  0  0
   20.3247  -24.9324  -14.4748 O   0  0  0  0  0  0  0  0  0  0  0  0
   22.1624  -20.6233  -12.4945 C   0  0  0  0  0  0  0  0  0  0  0  0
   22.7541  -20.3877  -11.2725 O   0  0  0  0  0  0  0  0  0  0  0  0
   18.9968  -23.5308  -15.6703 O   0  0  0  0  0  0  0  0  0  0  0  0
   21.1035  -20.0182  -12.7666 O   0  0  0  0  0  0  0  0  0  0  0  0
  2  1  1  1
  2  3  1  0
  3  4  1  0
  4  5  1  0
  5  6  1  0
  6  7  1  0
  8  2  1  0
  8  9  2  0
 10  8  1  0
 11 10  1  0
 11 12  1  6
 13 12  1  0
 13 14  2  0
 15 14  1  0
 16 15  1  0
 17 16  2  0
 18 17  1  0
 19 18  2  0
 19 20  1  0
 20 21  2  0
 21 16  1  0
 21 13  1  0
 22 11  1  0
 23 22  2  0
 24 22  1  0
 25 24  1  0
 25 26  1  1
 26 27  1  0
 27 28  1  0
 28 29  2  0
 28 32  1  0
 30 31  1  0
 30 25  1  0
 33 30  2  0
M  END
$$$$
