KWE.pdb
     RDKit          3D

 33 34  0  0  1  0  0  0  0  0999 V2000
   29.0818  -23.1765  -17.0577 N   0  0  0  0  0  0  0  0  0  0  0  0
   28.5467  -21.8795  -16.7478 C   0  0  1  0  0  0  0  0  0  0  0  0
   27.8419  -21.2952  -17.9033 C   0  0  0  0  0  0  0  0  0  0  0  0
   28.7639  -20.9604  -19.0301 C   0  0  0  0  0  0  0  0  0  0  0  0
   28.8316  -21.9467  -20.1467 C   0  0  0  0  0  0  0  0  0  0  0  0
   29.8276  -21.3358  -21.1670 C   0  0  0  0  0  0  0  0  0  0  0  0
   30.0944  -22.3598  -22.1317 N   0  0  0  0  0  0  0  0  0  0  0  0
   27.6941  -21.9604  -15.5208 C   0  0  0  0  0  0  0  0  0  0  0  0
   26.8781  -22.9016  -15.4038 O   0  0  0  0  0  0  0  0  0  0  0  0
   27.7803  -21.0039  -14.4843 N   0  0  0  0  0  0  0  0  0  0  0  0
   27.0343  -20.9987  -13.2771 C   0  0  1  0  0  0  0  0  0  0  0  0
   27.5677  -20.1183  -12.1598 C   0  0  0  0  0  0  0  0  0  0  0  0
   26.7798  -20.1149  -10.9419 C   0  0  0  0  0  0  0  0  0  0  0  0
   25.4481  -19.9940  -10.7407 C   0  0  0  0  0  0  0  0  0  0  0  0
   25.1469  -20.0537   -9.4107 N   0  0  0  0  0  0  0  0  0  0  0  0
   26.3047  -20.2150   -8.7627 C   0  0  0  0  0  0  0  0  0  0  0  0
   26.6064  -20.3400   -7.4137 C   0  0  0  0  0  0  0  0  0  0  0  0
   27.8927  -20.5047   -6.9543 C   0  0  0  0  0  0  0  0  0  0  0  0
   28.9173  -20.5465   -7.8746 C   0  0  0  0  0  0  0  0  0  0  0  0
   28.6335  -20.4234   -9.2232 C   0  0  0  0  0  0  0  0  0  0  0  0
   27.3402  -20.2589   -9.6634 C   0  0  0  0  0  0  0  0  0  0  0  0
   25.6023  -20.6722  -13.4366 C   0  0  0  0  0  0  0  0  0  0  0  0
   25.3407  -19.5700  -14.0070 O   0  0  0  0  0  0  0  0  0  0  0  0
   24.5450  -21.4754  -13.0118 N   0  0  0  0  0  0  0  0  0  0  0  0
   23.2045  -21.2166  -13.5469 C   0  0  1  0  0  0  0  0  0  0  0  0
   22.5542  -22.5275  -13.9349 C   0  0  0  0  0  0  0  0  0  0  0  0
   21.1364  -22.3279  -14.3895 C   0  0  0  0  0  0  0  0  0  0  0  0
   20.5423  -23.6277  -14.8455 C   0  0  0  0  0  0  0  0  0  0  0  0
   21.1893  -24.6830  -14.8374 O   0  0  0  0  0  0  0  0  0  0  0  0
   22.4687  -20.4937  -12.4952 C   0  0  0  0  0  0  0  0  0  0  0  0
   21.5178  -19.5412  -12.7912 O   0  0  0  0  0  0  0  0  0  0  0  0
   19.2323  -23.6206  -15.2832 O   0  0  0  0  0  0  0  0  0  0  0  0
   22.7058  -20.7410  -11.2936 O   0  0  0  0  0  0  0  0  0  0  0  0
  2  1  1  6
  2  3  1  0
  3  4  1  0
  4  5  1  0
  5  6  1  0
  6  7  1  0
  8  2  1  0
  8  9  2  0
 10  8  1  0
 11 10  1  0
 11 12  1  1
 13 12  1  0
 13 14  2  0
 15 14  1  0
 16 15  1  0
 17 16  2  0
 18 17  1  0
 19 18  2  0
 19 20  1  0
 20 21  2  0
 21 16  1  0
 21 13  1  0
 22 11  1  0
 23 22  2  0
 24 22  1  0
 25 24  1  0
 25 26  1  1
 26 27  1  0
 27 28  1  0
 28 29  2  0
 28 32  1  0
 30 31  1  0
 30 25  1  0
 33 30  2  0
M  END
$$$$
