KWE.pdb
     RDKit          3D

 33 34  0  0  1  0  0  0  0  0999 V2000
   28.9301  -21.2400  -16.3987 N   0  0  0  0  0  0  0  0  0  0  0  0
   27.8960  -22.2375  -16.4128 C   0  0  1  0  0  0  0  0  0  0  0  0
   28.4226  -23.5566  -16.8074 C   0  0  0  0  0  0  0  0  0  0  0  0
   29.7340  -23.4637  -17.5167 C   0  0  0  0  0  0  0  0  0  0  0  0
   30.9532  -23.6922  -16.6887 C   0  0  0  0  0  0  0  0  0  0  0  0
   31.3438  -25.1718  -16.9426 C   0  0  0  0  0  0  0  0  0  0  0  0
   32.4827  -25.4351  -16.1156 N   0  0  0  0  0  0  0  0  0  0  0  0
   27.1911  -22.2585  -15.0931 C   0  0  0  0  0  0  0  0  0  0  0  0
   26.2132  -23.0226  -14.9339 O   0  0  0  0  0  0  0  0  0  0  0  0
   27.5952  -21.4395  -14.0148 N   0  0  0  0  0  0  0  0  0  0  0  0
   26.9325  -21.2989  -12.7678 C   0  0  1  0  0  0  0  0  0  0  0  0
   27.6586  -20.4891  -11.7071 C   0  0  0  0  0  0  0  0  0  0  0  0
   26.9611  -20.3554  -10.4423 C   0  0  0  0  0  0  0  0  0  0  0  0
   25.6452  -20.2306  -10.1575 C   0  0  0  0  0  0  0  0  0  0  0  0
   25.4425  -20.1398   -8.8107 N   0  0  0  0  0  0  0  0  0  0  0  0
   26.6476  -20.2087   -8.2367 C   0  0  0  0  0  0  0  0  0  0  0  0
   27.0489  -20.1721   -6.9085 C   0  0  0  0  0  0  0  0  0  0  0  0
   28.3685  -20.2644   -6.5305 C   0  0  0  0  0  0  0  0  0  0  0  0
   29.3244  -20.3984   -7.5137 C   0  0  0  0  0  0  0  0  0  0  0  0
   28.9409  -20.4365   -8.8426 C   0  0  0  0  0  0  0  0  0  0  0  0
   27.6158  -20.3423   -9.2010 C   0  0  0  0  0  0  0  0  0  0  0  0
   25.5589  -20.7619  -12.8547 C   0  0  0  0  0  0  0  0  0  0  0  0
   25.4552  -19.5467  -13.2028 O   0  0  0  0  0  0  0  0  0  0  0  0
   24.3975  -21.4843  -12.5855 N   0  0  0  0  0  0  0  0  0  0  0  0
   23.1160  -20.9660  -13.0749 C   0  0  1  0  0  0  0  0  0  0  0  0
   22.4193  -22.0326  -13.8928 C   0  0  0  0  0  0  0  0  0  0  0  0
   21.0451  -21.5962  -14.3142 C   0  0  0  0  0  0  0  0  0  0  0  0
   20.3968  -22.6483  -15.1645 C   0  0  0  0  0  0  0  0  0  0  0  0
   20.9397  -23.7385  -15.3863 O   0  0  0  0  0  0  0  0  0  0  0  0
   22.3508  -20.5561  -11.8848 C   0  0  0  0  0  0  0  0  0  0  0  0
   21.3357  -19.6267  -11.9527 O   0  0  0  0  0  0  0  0  0  0  0  0
   19.1570  -22.3683  -15.7050 O   0  0  0  0  0  0  0  0  0  0  0  0
   22.6215  -21.0578  -10.7729 O   0  0  0  0  0  0  0  0  0  0  0  0
  2  1  1  1
  2  3  1  0
  3  4  1  0
  4  5  1  0
  5  6  1  0
  6  7  1  0
  8  2  1  0
  8  9  2  0
 10  8  1  0
 11 10  1  0
 11 12  1  1
 13 12  1  0
 13 14  2  0
 15 14  1  0
 16 15  1  0
 17 16  2  0
 18 17  1  0
 19 18  2  0
 19 20  1  0
 20 21  2  0
 21 16  1  0
 21 13  1  0
 22 11  1  0
 23 22  2  0
 24 22  1  0
 25 24  1  0
 25 26  1  1
 26 27  1  0
 27 28  1  0
 28 29  2  0
 28 32  1  0
 30 31  1  0
 30 25  1  0
 33 30  2  0
M  END
$$$$
