KWE.pdb
     RDKit          3D

 33 34  0  0  1  0  0  0  0  0999 V2000
   28.5964  -22.7693  -16.1960 N   0  0  0  0  0  0  0  0  0  0  0  0
   27.5006  -21.8481  -16.3187 C   0  0  1  0  0  0  0  0  0  0  0  0
   26.7705  -22.0419  -17.5847 C   0  0  0  0  0  0  0  0  0  0  0  0
   27.3489  -21.2472  -18.7097 C   0  0  0  0  0  0  0  0  0  0  0  0
   28.3272  -20.1851  -18.3368 C   0  0  0  0  0  0  0  0  0  0  0  0
   28.7122  -19.5012  -19.6748 C   0  0  0  0  0  0  0  0  0  0  0  0
   29.6642  -18.4830  -19.3471 N   0  0  0  0  0  0  0  0  0  0  0  0
   26.6190  -21.9422  -15.1133 C   0  0  0  0  0  0  0  0  0  0  0  0
   25.8573  -22.9268  -14.9878 O   0  0  0  0  0  0  0  0  0  0  0  0
   26.6182  -20.9506  -14.1067 N   0  0  0  0  0  0  0  0  0  0  0  0
   25.8645  -20.9699  -12.9043 C   0  0  1  0  0  0  0  0  0  0  0  0
   26.3396  -20.0445  -11.7971 C   0  0  0  0  0  0  0  0  0  0  0  0
   27.5263  -20.4831  -11.0875 C   0  0  0  0  0  0  0  0  0  0  0  0
   28.7073  -20.9654  -11.5362 C   0  0  0  0  0  0  0  0  0  0  0  0
   29.5472  -21.2466  -10.4976 N   0  0  0  0  0  0  0  0  0  0  0  0
   28.8875  -20.9370   -9.3771 C   0  0  0  0  0  0  0  0  0  0  0  0
   29.2429  -21.0115   -8.0375 C   0  0  0  0  0  0  0  0  0  0  0  0
   28.3948  -20.6297   -7.0236 C   0  0  0  0  0  0  0  0  0  0  0  0
   27.1451  -20.1554   -7.3578 C   0  0  0  0  0  0  0  0  0  0  0  0
   26.7754  -20.0749   -8.6887 C   0  0  0  0  0  0  0  0  0  0  0  0
   27.6375  -20.4619   -9.6887 C   0  0  0  0  0  0  0  0  0  0  0  0
   24.4175  -20.7269  -13.0776 C   0  0  0  0  0  0  0  0  0  0  0  0
   24.0988  -19.6570  -13.6794 O   0  0  0  0  0  0  0  0  0  0  0  0
   23.4038  -21.5748  -12.6339 N   0  0  0  0  0  0  0  0  0  0  0  0
   22.0119  -21.2280  -12.9379 C   0  0  1  0  0  0  0  0  0  0  0  0
   21.1845  -22.4927  -13.0274 C   0  0  0  0  0  0  0  0  0  0  0  0
   19.7404  -22.1897  -13.3090 C   0  0  0  0  0  0  0  0  0  0  0  0
   18.9498  -23.4591  -13.4260 C   0  0  0  0  0  0  0  0  0  0  0  0
   19.4926  -24.5716  -13.4313 O   0  0  0  0  0  0  0  0  0  0  0  0
   21.5662  -20.3184  -11.8684 C   0  0  0  0  0  0  0  0  0  0  0  0
   20.4983  -19.4632  -12.0337 O   0  0  0  0  0  0  0  0  0  0  0  0
   17.5763  -23.3571  -13.5297 O   0  0  0  0  0  0  0  0  0  0  0  0
   22.1674  -20.3107  -10.7731 O   0  0  0  0  0  0  0  0  0  0  0  0
  2  1  1  1
  2  3  1  0
  3  4  1  0
  4  5  1  0
  5  6  1  0
  6  7  1  0
  8  2  1  0
  8  9  2  0
 10  8  1  0
 11 10  1  0
 11 12  1  1
 13 12  1  0
 13 14  2  0
 15 14  1  0
 16 15  1  0
 17 16  2  0
 18 17  1  0
 19 18  2  0
 19 20  1  0
 20 21  2  0
 21 16  1  0
 21 13  1  0
 22 11  1  0
 23 22  2  0
 24 22  1  0
 25 24  1  0
 25 26  1  1
 26 27  1  0
 27 28  1  0
 28 29  2  0
 28 32  1  0
 30 31  1  0
 30 25  1  0
 33 30  2  0
M  END
$$$$
