KWE.pdb
     RDKit          3D

 33 34  0  0  1  0  0  0  0  0999 V2000
   26.8619  -23.5721  -17.4105 N   0  0  0  0  0  0  0  0  0  0  0  0
   26.3951  -24.5456  -16.4622 C   0  0  1  0  0  0  0  0  0  0  0  0
   27.4999  -25.3800  -15.9559 C   0  0  0  0  0  0  0  0  0  0  0  0
   28.1360  -26.2042  -17.0273 C   0  0  0  0  0  0  0  0  0  0  0  0
   27.9134  -27.6769  -16.9508 C   0  0  0  0  0  0  0  0  0  0  0  0
   28.7224  -28.2707  -18.1337 C   0  0  0  0  0  0  0  0  0  0  0  0
   28.5849  -29.6931  -18.0416 N   0  0  0  0  0  0  0  0  0  0  0  0
   25.6261  -23.8669  -15.3727 C   0  0  0  0  0  0  0  0  0  0  0  0
   25.1320  -24.5555  -14.4523 O   0  0  0  0  0  0  0  0  0  0  0  0
   25.4382  -22.4666  -15.3488 N   0  0  0  0  0  0  0  0  0  0  0  0
   24.7450  -21.7254  -14.3568 C   0  0  1  0  0  0  0  0  0  0  0  0
   25.3971  -20.4293  -13.9065 C   0  0  0  0  0  0  0  0  0  0  0  0
   26.5185  -20.5808  -12.9991 C   0  0  0  0  0  0  0  0  0  0  0  0
   27.8482  -20.6651  -13.2298 C   0  0  0  0  0  0  0  0  0  0  0  0
   28.5404  -20.7955  -12.0606 N   0  0  0  0  0  0  0  0  0  0  0  0
   27.6350  -20.7930  -11.0774 C   0  0  0  0  0  0  0  0  0  0  0  0
   27.7587  -20.8916   -9.6985 C   0  0  0  0  0  0  0  0  0  0  0  0
   26.6735  -20.8631   -8.8533 C   0  0  0  0  0  0  0  0  0  0  0  0
   25.4172  -20.7311   -9.4036 C   0  0  0  0  0  0  0  0  0  0  0  0
   25.2766  -20.6316  -10.7765 C   0  0  0  0  0  0  0  0  0  0  0  0
   26.3743  -20.6625  -11.6055 C   0  0  0  0  0  0  0  0  0  0  0  0
   23.3411  -21.4082  -14.6904 C   0  0  0  0  0  0  0  0  0  0  0  0
   23.1152  -21.0689  -15.8914 O   0  0  0  0  0  0  0  0  0  0  0  0
   22.2742  -21.4555  -13.7944 N   0  0  0  0  0  0  0  0  0  0  0  0
   20.9114  -21.3003  -14.3128 C   0  0  1  0  0  0  0  0  0  0  0  0
   19.9515  -22.0983  -13.4563 C   0  0  0  0  0  0  0  0  0  0  0  0
   18.5523  -22.0482  -14.0007 C   0  0  0  0  0  0  0  0  0  0  0  0
   17.6359  -22.9021  -13.1753 C   0  0  0  0  0  0  0  0  0  0  0  0
   16.5767  -22.4647  -12.7071 O   0  0  0  0  0  0  0  0  0  0  0  0
   20.6267  -19.8550  -14.3095 C   0  0  0  0  0  0  0  0  0  0  0  0
   19.8476  -19.2611  -15.2787 O   0  0  0  0  0  0  0  0  0  0  0  0
   18.0072  -24.2123  -12.9449 O   0  0  0  0  0  0  0  0  0  0  0  0
   21.1017  -19.1335  -13.4067 O   0  0  0  0  0  0  0  0  0  0  0  0
  2  1  1  6
  2  3  1  0
  3  4  1  0
  4  5  1  0
  5  6  1  0
  6  7  1  0
  8  2  1  0
  8  9  2  0
 10  8  1  0
 11 10  1  0
 11 12  1  6
 13 12  1  0
 13 14  2  0
 15 14  1  0
 16 15  1  0
 17 16  2  0
 18 17  1  0
 19 18  2  0
 19 20  1  0
 20 21  2  0
 21 16  1  0
 21 13  1  0
 22 11  1  0
 23 22  2  0
 24 22  1  0
 25 24  1  0
 25 26  1  1
 26 27  1  0
 27 28  1  0
 28 29  2  0
 28 32  1  0
 30 31  1  0
 30 25  1  0
 33 30  2  0
M  END
$$$$
