KWE.pdb
     RDKit          3D

 33 34  0  0  1  0  0  0  0  0999 V2000
   28.5453  -20.6931  -14.4085 N   0  0  0  0  0  0  0  0  0  0  0  0
   27.2954  -21.1235  -14.9716 C   0  0  1  0  0  0  0  0  0  0  0  0
   27.4900  -22.1991  -15.9608 C   0  0  0  0  0  0  0  0  0  0  0  0
   28.5306  -21.8632  -16.9787 C   0  0  0  0  0  0  0  0  0  0  0  0
   29.7287  -22.7504  -17.0196 C   0  0  0  0  0  0  0  0  0  0  0  0
   30.6267  -22.1668  -18.1418 C   0  0  0  0  0  0  0  0  0  0  0  0
   31.8806  -22.8524  -18.0513 N   0  0  0  0  0  0  0  0  0  0  0  0
   26.3462  -21.4982  -13.8773 C   0  0  0  0  0  0  0  0  0  0  0  0
   25.7149  -22.5755  -13.9571 O   0  0  0  0  0  0  0  0  0  0  0  0
   26.1378  -20.6711  -12.7507 N   0  0  0  0  0  0  0  0  0  0  0  0
   25.2517  -20.9235  -11.6713 C   0  0  1  0  0  0  0  0  0  0  0  0
   25.6533  -20.3512  -10.3226 C   0  0  0  0  0  0  0  0  0  0  0  0
   26.9274  -20.8138   -9.8061 C   0  0  0  0  0  0  0  0  0  0  0  0
   27.8776  -21.6056  -10.3526 C   0  0  0  0  0  0  0  0  0  0  0  0
   28.9278  -21.7715   -9.4967 N   0  0  0  0  0  0  0  0  0  0  0  0
   28.6370  -21.0743   -8.3940 C   0  0  0  0  0  0  0  0  0  0  0  0
   29.3299  -20.8780   -7.2076 C   0  0  0  0  0  0  0  0  0  0  0  0
   28.8388  -20.1034   -6.1821 C   0  0  0  0  0  0  0  0  0  0  0  0
   27.6102  -19.5015   -6.3456 C   0  0  0  0  0  0  0  0  0  0  0  0
   26.9066  -19.6872   -7.5224 C   0  0  0  0  0  0  0  0  0  0  0  0
   27.4143  -20.4660   -8.5367 C   0  0  0  0  0  0  0  0  0  0  0  0
   23.8520  -20.5167  -11.9124 C   0  0  0  0  0  0  0  0  0  0  0  0
   23.6683  -19.2988  -12.2150 O   0  0  0  0  0  0  0  0  0  0  0  0
   22.7464  -21.3620  -11.8310 N   0  0  0  0  0  0  0  0  0  0  0  0
   21.4914  -20.9434  -12.4635 C   0  0  1  0  0  0  0  0  0  0  0  0
   21.2290  -21.8027  -13.6819 C   0  0  0  0  0  0  0  0  0  0  0  0
   19.9591  -21.4025  -14.3774 C   0  0  0  0  0  0  0  0  0  0  0  0
   18.8679  -22.3908  -14.0897 C   0  0  0  0  0  0  0  0  0  0  0  0
   19.1111  -23.5633  -13.7759 O   0  0  0  0  0  0  0  0  0  0  0  0
   20.4454  -21.0639  -11.4332 C   0  0  0  0  0  0  0  0  0  0  0  0
   20.6357  -21.7939  -10.2801 O   0  0  0  0  0  0  0  0  0  0  0  0
   17.5607  -21.9551  -14.1845 O   0  0  0  0  0  0  0  0  0  0  0  0
   19.3464  -20.4928  -11.5986 O   0  0  0  0  0  0  0  0  0  0  0  0
  2  1  1  1
  2  3  1  0
  3  4  1  0
  4  5  1  0
  5  6  1  0
  6  7  1  0
  8  2  1  0
  8  9  2  0
 10  8  1  0
 11 10  1  0
 11 12  1  1
 13 12  1  0
 13 14  2  0
 15 14  1  0
 16 15  1  0
 17 16  2  0
 18 17  1  0
 19 18  2  0
 19 20  1  0
 20 21  2  0
 21 16  1  0
 21 13  1  0
 22 11  1  0
 23 22  2  0
 24 22  1  0
 25 24  1  0
 25 26  1  6
 26 27  1  0
 27 28  1  0
 28 29  2  0
 28 32  1  0
 30 31  1  0
 30 25  1  0
 33 30  2  0
M  END
$$$$
