KWE.pdb
     RDKit          3D

 33 34  0  0  1  0  0  0  0  0999 V2000
   29.0937  -22.2927  -15.0433 N   0  0  0  0  0  0  0  0  0  0  0  0
   28.1691  -21.2035  -14.8908 C   0  0  1  0  0  0  0  0  0  0  0  0
   27.5315  -20.8522  -16.1727 C   0  0  0  0  0  0  0  0  0  0  0  0
   28.5214  -20.4438  -17.2145 C   0  0  0  0  0  0  0  0  0  0  0  0
   28.5995  -21.3059  -18.4289 C   0  0  0  0  0  0  0  0  0  0  0  0
   29.6080  -20.5931  -19.3675 C   0  0  0  0  0  0  0  0  0  0  0  0
   29.7957  -21.4615  -20.4906 N   0  0  0  0  0  0  0  0  0  0  0  0
   27.1814  -21.5213  -13.8126 C   0  0  0  0  0  0  0  0  0  0  0  0
   26.4136  -22.4989  -13.9550 O   0  0  0  0  0  0  0  0  0  0  0  0
   27.0864  -20.7497  -12.6327 N   0  0  0  0  0  0  0  0  0  0  0  0
   26.1578  -20.9356  -11.5758 C   0  0  1  0  0  0  0  0  0  0  0  0
   26.4916  -20.2556  -10.2589 C   0  0  0  0  0  0  0  0  0  0  0  0
   27.7381  -20.6706   -9.6440 C   0  0  0  0  0  0  0  0  0  0  0  0
   28.7404  -21.4552  -10.1002 C   0  0  0  0  0  0  0  0  0  0  0  0
   29.7342  -21.5689   -9.1714 N   0  0  0  0  0  0  0  0  0  0  0  0
   29.3543  -20.8453   -8.1137 C   0  0  0  0  0  0  0  0  0  0  0  0
   29.9612  -20.5956   -6.8908 C   0  0  0  0  0  0  0  0  0  0  0  0
   29.3849  -19.8020   -5.9259 C   0  0  0  0  0  0  0  0  0  0  0  0
   28.1570  -19.2358   -6.1902 C   0  0  0  0  0  0  0  0  0  0  0  0
   27.5384  -19.4749   -7.4046 C   0  0  0  0  0  0  0  0  0  0  0  0
   28.1306  -20.2719   -8.3570 C   0  0  0  0  0  0  0  0  0  0  0  0
   24.7641  -20.5735  -11.9064 C   0  0  0  0  0  0  0  0  0  0  0  0
   24.5853  -19.4077  -12.3728 O   0  0  0  0  0  0  0  0  0  0  0  0
   23.6592  -21.4078  -11.7434 N   0  0  0  0  0  0  0  0  0  0  0  0
   22.3634  -20.9726  -12.2742 C   0  0  1  0  0  0  0  0  0  0  0  0
   21.8025  -22.0475  -13.1808 C   0  0  0  0  0  0  0  0  0  0  0  0
   20.3935  -21.7375  -13.5995 C   0  0  0  0  0  0  0  0  0  0  0  0
   20.1729  -22.1260  -15.0315 C   0  0  0  0  0  0  0  0  0  0  0  0
   21.0898  -22.5569  -15.7428 O   0  0  0  0  0  0  0  0  0  0  0  0
   21.5080  -20.6937  -11.1078 C   0  0  0  0  0  0  0  0  0  0  0  0
   20.3257  -19.9945  -11.2187 O   0  0  0  0  0  0  0  0  0  0  0  0
   18.8994  -21.9897  -15.5487 O   0  0  0  0  0  0  0  0  0  0  0  0
   21.8544  -21.0965   -9.9769 O   0  0  0  0  0  0  0  0  0  0  0  0
  2  1  1  6
  2  3  1  0
  3  4  1  0
  4  5  1  0
  5  6  1  0
  6  7  1  0
  8  2  1  0
  8  9  2  0
 10  8  1  0
 11 10  1  0
 11 12  1  1
 13 12  1  0
 13 14  2  0
 15 14  1  0
 16 15  1  0
 17 16  2  0
 18 17  1  0
 19 18  2  0
 19 20  1  0
 20 21  2  0
 21 16  1  0
 21 13  1  0
 22 11  1  0
 23 22  2  0
 24 22  1  0
 25 24  1  0
 25 26  1  6
 26 27  1  0
 27 28  1  0
 28 29  2  0
 28 32  1  0
 30 31  1  0
 30 25  1  0
 33 30  2  0
M  END
$$$$
