KWE.pdb
     RDKit          3D

 33 34  0  0  1  0  0  0  0  0999 V2000
   14.4455  -30.8218   -5.0577 N   0  0  0  0  0  0  0  0  0  0  0  0
   14.0325  -30.0175   -3.9409 C   0  0  1  0  0  0  0  0  0  0  0  0
   12.9892  -30.6908   -3.1463 C   0  0  0  0  0  0  0  0  0  0  0  0
   13.3268  -32.1138   -2.8417 C   0  0  0  0  0  0  0  0  0  0  0  0
   13.6751  -32.4239   -1.4251 C   0  0  0  0  0  0  0  0  0  0  0  0
   13.8958  -33.9590   -1.3890 C   0  0  0  0  0  0  0  0  0  0  0  0
   14.2218  -34.2869   -0.0338 N   0  0  0  0  0  0  0  0  0  0  0  0
   15.2256  -29.6237   -3.1283 C   0  0  0  0  0  0  0  0  0  0  0  0
   16.2682  -30.3118   -3.1991 O   0  0  0  0  0  0  0  0  0  0  0  0
   15.2139  -28.4945   -2.2790 N   0  0  0  0  0  0  0  0  0  0  0  0
   16.3007  -28.0089   -1.5062 C   0  0  1  0  0  0  0  0  0  0  0  0
   16.5308  -26.5075   -1.5369 C   0  0  0  0  0  0  0  0  0  0  0  0
   16.9767  -25.9734   -2.8097 C   0  0  0  0  0  0  0  0  0  0  0  0
   18.0817  -26.2278   -3.5465 C   0  0  0  0  0  0  0  0  0  0  0  0
   18.0844  -25.4901   -4.6949 N   0  0  0  0  0  0  0  0  0  0  0  0
   16.9651  -24.7597   -4.6836 C   0  0  0  0  0  0  0  0  0  0  0  0
   16.4446  -23.8407   -5.5841 C   0  0  0  0  0  0  0  0  0  0  0  0
   15.2493  -23.1927   -5.3739 C   0  0  0  0  0  0  0  0  0  0  0  0
   14.5461  -23.4714   -4.2223 C   0  0  0  0  0  0  0  0  0  0  0  0
   15.0512  -24.3851   -3.3142 C   0  0  0  0  0  0  0  0  0  0  0  0
   16.2489  -25.0229   -3.5420 C   0  0  0  0  0  0  0  0  0  0  0  0
   16.2779  -28.4123   -0.0851 C   0  0  0  0  0  0  0  0  0  0  0  0
   15.2075  -28.1650    0.5487 O   0  0  0  0  0  0  0  0  0  0  0  0
   17.3293  -29.0313    0.5891 N   0  0  0  0  0  0  0  0  0  0  0  0
   17.1177  -29.4711    1.9719 C   0  0  1  0  0  0  0  0  0  0  0  0
   18.2449  -30.3927    2.3866 C   0  0  0  0  0  0  0  0  0  0  0  0
   17.7246  -31.6974    2.9192 C   0  0  0  0  0  0  0  0  0  0  0  0
   18.8494  -32.5328    3.4550 C   0  0  0  0  0  0  0  0  0  0  0  0
   18.8424  -32.9792    4.6096 O   0  0  0  0  0  0  0  0  0  0  0  0
   17.0377  -28.2488    2.7901 C   0  0  0  0  0  0  0  0  0  0  0  0
   16.1345  -28.1179    3.8226 O   0  0  0  0  0  0  0  0  0  0  0  0
   19.9135  -32.7981    2.6153 O   0  0  0  0  0  0  0  0  0  0  0  0
   17.8057  -27.2929    2.5499 O   0  0  0  0  0  0  0  0  0  0  0  0
  2  1  1  6
  2  3  1  0
  3  4  1  0
  4  5  1  0
  5  6  1  0
  6  7  1  0
  8  2  1  0
  8  9  2  0
 10  8  1  0
 11 10  1  0
 11 12  1  1
 13 12  1  0
 13 14  2  0
 15 14  1  0
 16 15  1  0
 17 16  2  0
 18 17  1  0
 19 18  2  0
 19 20  1  0
 20 21  2  0
 21 16  1  0
 21 13  1  0
 22 11  1  0
 23 22  2  0
 24 22  1  0
 25 24  1  0
 25 26  1  1
 26 27  1  0
 27 28  1  0
 28 29  2  0
 28 32  1  0
 30 31  1  0
 30 25  1  0
 33 30  2  0
M  END
$$$$
