KWN.pdb
     RDKit          3D

 32 33  0  0  1  0  0  0  0  0999 V2000
   27.6991  -19.7295  -14.7111 N   0  0  0  0  0  0  0  0  0  0  0  0
   27.1722  -21.0532  -14.7685 C   0  0  1  0  0  0  0  0  0  0  0  0
   28.1575  -22.0601  -15.1996 C   0  0  0  0  0  0  0  0  0  0  0  0
   28.6001  -21.9180  -16.6135 C   0  0  0  0  0  0  0  0  0  0  0  0
   29.3910  -20.6726  -16.8520 C   0  0  0  0  0  0  0  0  0  0  0  0
   29.7839  -20.6529  -18.3390 C   0  0  0  0  0  0  0  0  0  0  0  0
   30.4959  -19.4171  -18.5662 N   0  0  0  0  0  0  0  0  0  0  0  0
   26.4587  -21.4336  -13.5075 C   0  0  0  0  0  0  0  0  0  0  0  0
   25.9269  -22.5683  -13.3896 O   0  0  0  0  0  0  0  0  0  0  0  0
   26.3386  -20.5605  -12.3900 N   0  0  0  0  0  0  0  0  0  0  0  0
   25.6067  -20.9140  -11.1973 C   0  0  1  0  0  0  0  0  0  0  0  0
   26.0585  -20.1374   -9.9836 C   0  0  0  0  0  0  0  0  0  0  0  0
   27.3715  -20.5135   -9.4709 C   0  0  0  0  0  0  0  0  0  0  0  0
   28.3336  -21.2941  -10.0621 C   0  0  0  0  0  0  0  0  0  0  0  0
   29.3833  -21.3703   -9.2262 N   0  0  0  0  0  0  0  0  0  0  0  0
   29.1322  -20.6682   -8.1201 C   0  0  0  0  0  0  0  0  0  0  0  0
   29.8474  -20.4139   -6.9659 C   0  0  0  0  0  0  0  0  0  0  0  0
   29.3763  -19.6440   -5.9357 C   0  0  0  0  0  0  0  0  0  0  0  0
   28.1068  -19.0922   -6.0689 C   0  0  0  0  0  0  0  0  0  0  0  0
   27.3855  -19.3418   -7.2199 C   0  0  0  0  0  0  0  0  0  0  0  0
   27.8802  -20.1248   -8.2530 C   0  0  0  0  0  0  0  0  0  0  0  0
   24.1795  -20.5456  -11.4235 C   0  0  0  0  0  0  0  0  0  0  0  0
   23.9397  -19.3919  -11.9115 O   0  0  0  0  0  0  0  0  0  0  0  0
   19.1852  -20.8588  -12.8831 N   0  0  0  0  0  0  0  0  0  0  0  0
   20.0922  -21.8480  -13.3332 C   0  0  0  0  0  0  0  0  0  0  0  0
   19.6736  -22.6002  -14.2714 O   0  0  0  0  0  0  0  0  0  0  0  0
   21.4500  -22.0717  -12.8192 C   0  0  0  0  0  0  0  0  0  0  0  0
   21.7577  -21.1117  -11.7201 C   0  0  2  0  0  0  0  0  0  0  0  0
   23.0856  -21.3647  -11.1429 N   0  0  0  0  0  0  0  0  0  0  0  0
   20.7762  -21.2250  -10.6252 C   0  0  0  0  0  0  0  0  0  0  0  0
   20.9513  -21.7961   -9.5389 O   0  0  0  0  0  0  0  0  0  0  0  0
   19.5097  -20.6365  -10.8042 O   0  0  0  0  0  0  0  0  0  0  0  0
  2  3  1  0
  2  1  1  1
  3  4  1  0
  5  4  1  0
  6  5  1  0
  7  6  1  0
  8  2  1  0
  8  9  2  0
 10  8  1  0
 11 22  1  0
 11 10  1  0
 11 12  1  1
 13 14  2  0
 13 12  1  0
 15 14  1  0
 16 21  2  0
 16 15  1  0
 17 16  1  0
 18 19  1  0
 18 17  2  0
 19 20  2  0
 20 21  1  0
 21 13  1  0
 22 29  1  0
 23 22  2  0
 24 25  1  0
 25 27  1  0
 26 25  2  0
 28 27  1  6
 28 30  1  0
 29 28  1  0
 30 31  2  0
 30 32  1  0
M  END
$$$$
