KWN.pdb
     RDKit          3D

 32 33  0  0  1  0  0  0  0  0999 V2000
   26.6962  -20.9044  -16.1207 N   0  0  0  0  0  0  0  0  0  0  0  0
   26.5534  -22.2539  -15.6828 C   0  0  1  0  0  0  0  0  0  0  0  0
   27.7730  -23.0615  -15.8588 C   0  0  0  0  0  0  0  0  0  0  0  0
   28.4981  -22.8062  -17.1333 C   0  0  0  0  0  0  0  0  0  0  0  0
   29.7520  -23.6097  -17.2589 C   0  0  0  0  0  0  0  0  0  0  0  0
   30.4444  -23.1836  -18.5647 C   0  0  0  0  0  0  0  0  0  0  0  0
   31.6820  -23.9240  -18.6416 N   0  0  0  0  0  0  0  0  0  0  0  0
   25.9860  -22.3430  -14.2993 C   0  0  0  0  0  0  0  0  0  0  0  0
   25.7860  -23.4624  -13.7597 O   0  0  0  0  0  0  0  0  0  0  0  0
   25.6450  -21.1985  -13.5250 N   0  0  0  0  0  0  0  0  0  0  0  0
   25.0805  -21.2914  -12.1999 C   0  0  1  0  0  0  0  0  0  0  0  0
   25.6394  -20.2560  -11.2535 C   0  0  0  0  0  0  0  0  0  0  0  0
   26.9824  -20.5403  -10.7599 C   0  0  0  0  0  0  0  0  0  0  0  0
   28.0546  -21.0639  -11.4388 C   0  0  0  0  0  0  0  0  0  0  0  0
   29.0892  -21.1504  -10.5853 N   0  0  0  0  0  0  0  0  0  0  0  0
   28.7227  -20.7020   -9.3837 C   0  0  0  0  0  0  0  0  0  0  0  0
   29.3743  -20.5695   -8.1728 C   0  0  0  0  0  0  0  0  0  0  0  0
   28.7818  -20.0707   -7.0431 C   0  0  0  0  0  0  0  0  0  0  0  0
   27.4505  -19.6787   -7.1304 C   0  0  0  0  0  0  0  0  0  0  0  0
   26.7921  -19.8081   -8.3375 C   0  0  0  0  0  0  0  0  0  0  0  0
   27.4098  -20.3160   -9.4713 C   0  0  0  0  0  0  0  0  0  0  0  0
   23.6207  -21.0094  -12.3155 C   0  0  0  0  0  0  0  0  0  0  0  0
   22.9828  -20.7585  -11.2400 O   0  0  0  0  0  0  0  0  0  0  0  0
   22.7724  -18.1485  -15.7484 N   0  0  0  0  0  0  0  0  0  0  0  0
   21.8502  -18.5855  -14.7675 C   0  0  0  0  0  0  0  0  0  0  0  0
   21.6364  -17.7777  -13.8066 O   0  0  0  0  0  0  0  0  0  0  0  0
   21.1321  -19.8669  -14.7682 C   0  0  0  0  0  0  0  0  0  0  0  0
   21.4691  -20.6558  -13.5481 C   0  0  2  0  0  0  0  0  0  0  0  0
   22.8980  -20.9986  -13.5087 N   0  0  0  0  0  0  0  0  0  0  0  0
   20.7144  -21.9221  -13.5086 C   0  0  0  0  0  0  0  0  0  0  0  0
   21.0051  -22.9686  -14.1063 O   0  0  0  0  0  0  0  0  0  0  0  0
   19.5466  -21.9758  -12.7240 O   0  0  0  0  0  0  0  0  0  0  0  0
  2  3  1  0
  2  1  1  1
  3  4  1  0
  5  4  1  0
  6  5  1  0
  7  6  1  0
  8  2  1  0
  8  9  2  0
 10  8  1  0
 11 22  1  0
 11 10  1  0
 11 12  1  1
 13 14  2  0
 13 12  1  0
 15 14  1  0
 16 21  2  0
 16 15  1  0
 17 16  1  0
 18 19  1  0
 18 17  2  0
 19 20  2  0
 20 21  1  0
 21 13  1  0
 22 29  1  0
 23 22  2  0
 24 25  1  0
 25 27  1  0
 26 25  2  0
 28 27  1  6
 28 30  1  0
 29 28  1  0
 30 31  2  0
 30 32  1  0
M  END
$$$$
