KWN.pdb
     RDKit          3D

 32 33  0  0  1  0  0  0  0  0999 V2000
   28.3088  -19.4353  -14.3087 N   0  0  0  0  0  0  0  0  0  0  0  0
   27.2604  -20.3978  -14.3962 C   0  0  1  0  0  0  0  0  0  0  0  0
   27.5439  -21.4920  -15.3412 C   0  0  0  0  0  0  0  0  0  0  0  0
   28.1009  -21.0447  -16.6469 C   0  0  0  0  0  0  0  0  0  0  0  0
   29.4855  -21.5511  -16.8916 C   0  0  0  0  0  0  0  0  0  0  0  0
   29.6306  -21.7854  -18.4049 C   0  0  0  0  0  0  0  0  0  0  0  0
   28.9532  -23.0258  -18.7020 N   0  0  0  0  0  0  0  0  0  0  0  0
   26.8259  -20.8855  -13.0481 C   0  0  0  0  0  0  0  0  0  0  0  0
   25.9149  -21.7475  -12.9415 O   0  0  0  0  0  0  0  0  0  0  0  0
   27.3994  -20.4188  -11.8319 N   0  0  0  0  0  0  0  0  0  0  0  0
   26.9014  -20.8065  -10.5339 C   0  0  1  0  0  0  0  0  0  0  0  0
   27.7567  -20.2890   -9.4022 C   0  0  0  0  0  0  0  0  0  0  0  0
   27.2309  -20.5541   -8.0675 C   0  0  0  0  0  0  0  0  0  0  0  0
   26.0778  -21.2092   -7.7126 C   0  0  0  0  0  0  0  0  0  0  0  0
   25.9975  -21.2189   -6.3711 N   0  0  0  0  0  0  0  0  0  0  0  0
   27.0553  -20.5951   -5.8503 C   0  0  0  0  0  0  0  0  0  0  0  0
   27.4655  -20.3234   -4.5594 C   0  0  0  0  0  0  0  0  0  0  0  0
   28.6190  -19.6502   -4.2559 C   0  0  0  0  0  0  0  0  0  0  0  0
   29.4142  -19.2206   -5.3127 C   0  0  0  0  0  0  0  0  0  0  0  0
   29.0109  -19.4883   -6.6061 C   0  0  0  0  0  0  0  0  0  0  0  0
   27.8383  -20.1721   -6.8935 C   0  0  0  0  0  0  0  0  0  0  0  0
   25.5587  -20.1798  -10.3652 C   0  0  0  0  0  0  0  0  0  0  0  0
   25.4881  -18.9089  -10.4458 O   0  0  0  0  0  0  0  0  0  0  0  0
   21.0242  -19.2458  -12.6103 N   0  0  0  0  0  0  0  0  0  0  0  0
   21.4593  -20.5836  -12.4535 C   0  0  0  0  0  0  0  0  0  0  0  0
   20.6113  -21.4832  -12.7583 O   0  0  0  0  0  0  0  0  0  0  0  0
   22.7827  -21.0106  -11.9801 C   0  0  0  0  0  0  0  0  0  0  0  0
   23.0806  -20.4094  -10.6481 C   0  0  2  0  0  0  0  0  0  0  0  0
   24.3733  -20.8754  -10.1262 N   0  0  0  0  0  0  0  0  0  0  0  0
   22.0514  -20.7756   -9.6575 C   0  0  0  0  0  0  0  0  0  0  0  0
   20.9845  -20.1784   -9.4527 O   0  0  0  0  0  0  0  0  0  0  0  0
   22.2765  -21.9090   -8.8530 O   0  0  0  0  0  0  0  0  0  0  0  0
  2  3  1  0
  2  1  1  1
  3  4  1  0
  5  4  1  0
  6  5  1  0
  7  6  1  0
  8  2  1  0
  8  9  2  0
 10  8  1  0
 11 22  1  0
 11 10  1  0
 11 12  1  1
 13 14  2  0
 13 12  1  0
 15 14  1  0
 16 21  2  0
 16 15  1  0
 17 16  1  0
 18 19  1  0
 18 17  2  0
 19 20  2  0
 20 21  1  0
 21 13  1  0
 22 29  1  0
 23 22  2  0
 24 25  1  0
 25 27  1  0
 26 25  2  0
 28 27  1  6
 28 30  1  0
 29 28  1  0
 30 31  2  0
 30 32  1  0
M  END
$$$$
