KWN.pdb
     RDKit          3D

 32 33  0  0  1  0  0  0  0  0999 V2000
   27.3896  -19.9906  -15.2723 N   0  0  0  0  0  0  0  0  0  0  0  0
   26.6157  -21.1703  -15.4785 C   0  0  1  0  0  0  0  0  0  0  0  0
   27.3689  -22.2634  -16.1175 C   0  0  0  0  0  0  0  0  0  0  0  0
   27.9478  -21.9149  -17.4437 C   0  0  0  0  0  0  0  0  0  0  0  0
   29.3939  -21.5457  -17.3672 C   0  0  0  0  0  0  0  0  0  0  0  0
   29.8731  -21.2569  -18.8000 C   0  0  0  0  0  0  0  0  0  0  0  0
   31.2722  -20.9103  -18.7102 N   0  0  0  0  0  0  0  0  0  0  0  0
   25.8983  -21.6010  -14.2361 C   0  0  0  0  0  0  0  0  0  0  0  0
   25.3329  -22.7241  -14.1794 O   0  0  0  0  0  0  0  0  0  0  0  0
   25.8112  -20.7903  -13.0695 N   0  0  0  0  0  0  0  0  0  0  0  0
   25.0721  -21.1877  -11.8952 C   0  0  1  0  0  0  0  0  0  0  0  0
   25.5656  -20.5116  -10.6384 C   0  0  0  0  0  0  0  0  0  0  0  0
   26.8722  -20.9639  -10.1733 C   0  0  0  0  0  0  0  0  0  0  0  0
   27.7840  -21.7634  -10.8168 C   0  0  0  0  0  0  0  0  0  0  0  0
   28.8487  -21.9170  -10.0112 N   0  0  0  0  0  0  0  0  0  0  0  0
   28.6558  -21.2464   -8.8743 C   0  0  0  0  0  0  0  0  0  0  0  0
   29.4090  -21.0673   -7.7302 C   0  0  0  0  0  0  0  0  0  0  0  0
   28.9976  -20.3165   -6.6610 C   0  0  0  0  0  0  0  0  0  0  0  0
   27.7514  -19.7048   -6.7417 C   0  0  0  0  0  0  0  0  0  0  0  0
   26.9924  -19.8791   -7.8823 C   0  0  0  0  0  0  0  0  0  0  0  0
   27.4267  -20.6439   -8.9554 C   0  0  0  0  0  0  0  0  0  0  0  0
   23.6611  -20.7435  -12.0840 C   0  0  0  0  0  0  0  0  0  0  0  0
   23.4701  -19.5612  -12.5227 O   0  0  0  0  0  0  0  0  0  0  0  0
   18.6748  -22.2545  -14.6493 N   0  0  0  0  0  0  0  0  0  0  0  0
   19.6262  -21.3255  -14.1641 C   0  0  0  0  0  0  0  0  0  0  0  0
   19.2463  -20.1109  -14.1234 O   0  0  0  0  0  0  0  0  0  0  0  0
   20.9872  -21.6414  -13.7105 C   0  0  0  0  0  0  0  0  0  0  0  0
   21.2010  -21.1517  -12.3180 C   0  0  2  0  0  0  0  0  0  0  0  0
   22.5333  -21.5203  -11.8183 N   0  0  0  0  0  0  0  0  0  0  0  0
   20.2107  -21.7326  -11.3924 C   0  0  0  0  0  0  0  0  0  0  0  0
   18.9940  -21.4952  -11.3758 O   0  0  0  0  0  0  0  0  0  0  0  0
   20.6634  -22.6486  -10.4237 O   0  0  0  0  0  0  0  0  0  0  0  0
  2  3  1  0
  2  1  1  1
  3  4  1  0
  5  4  1  0
  6  5  1  0
  7  6  1  0
  8  2  1  0
  8  9  2  0
 10  8  1  0
 11 22  1  0
 11 10  1  0
 11 12  1  1
 13 14  2  0
 13 12  1  0
 15 14  1  0
 16 21  2  0
 16 15  1  0
 17 16  1  0
 18 19  1  0
 18 17  2  0
 19 20  2  0
 20 21  1  0
 21 13  1  0
 22 29  1  0
 23 22  2  0
 24 25  1  0
 25 27  1  0
 26 25  2  0
 28 27  1  6
 28 30  1  0
 29 28  1  0
 30 31  2  0
 30 32  1  0
M  END
$$$$
