KWN.pdb
     RDKit          3D

 32 33  0  0  1  0  0  0  0  0999 V2000
   26.5076  -20.2639  -18.1879 N   0  0  0  0  0  0  0  0  0  0  0  0
   27.0622  -21.4827  -17.6979 C   0  0  1  0  0  0  0  0  0  0  0  0
   28.4905  -21.6496  -18.0184 C   0  0  0  0  0  0  0  0  0  0  0  0
   29.2826  -20.3909  -17.9599 C   0  0  0  0  0  0  0  0  0  0  0  0
   30.3849  -20.3511  -18.9683 C   0  0  0  0  0  0  0  0  0  0  0  0
   29.9505  -21.2191  -20.1616 C   0  0  0  0  0  0  0  0  0  0  0  0
   30.9901  -21.1091  -21.1580 N   0  0  0  0  0  0  0  0  0  0  0  0
   26.7576  -21.7004  -16.2475 C   0  0  0  0  0  0  0  0  0  0  0  0
   27.1395  -22.7475  -15.6627 O   0  0  0  0  0  0  0  0  0  0  0  0
   26.0358  -20.7627  -15.4567 N   0  0  0  0  0  0  0  0  0  0  0  0
   25.7286  -20.9874  -14.0645 C   0  0  1  0  0  0  0  0  0  0  0  0
   26.1142  -19.8212  -13.1861 C   0  0  0  0  0  0  0  0  0  0  0  0
   26.1587  -20.1191  -11.7587 C   0  0  0  0  0  0  0  0  0  0  0  0
   25.1453  -20.0528  -10.8350 C   0  0  0  0  0  0  0  0  0  0  0  0
   25.6423  -20.4179   -9.6409 N   0  0  0  0  0  0  0  0  0  0  0  0
   26.9368  -20.7164   -9.7621 C   0  0  0  0  0  0  0  0  0  0  0  0
   27.9081  -21.1378   -8.8749 C   0  0  0  0  0  0  0  0  0  0  0  0
   29.2058  -21.3890   -9.2339 C   0  0  0  0  0  0  0  0  0  0  0  0
   29.5547  -21.2067  -10.5676 C   0  0  0  0  0  0  0  0  0  0  0  0
   28.5891  -20.7854  -11.4608 C   0  0  0  0  0  0  0  0  0  0  0  0
   27.2792  -20.5361  -11.0777 C   0  0  0  0  0  0  0  0  0  0  0  0
   24.2482  -21.1266  -13.9506 C   0  0  0  0  0  0  0  0  0  0  0  0
   23.5278  -20.2667  -14.5574 O   0  0  0  0  0  0  0  0  0  0  0  0
   22.5676  -25.7139  -14.5399 N   0  0  0  0  0  0  0  0  0  0  0  0
   21.9203  -24.4640  -14.3901 C   0  0  0  0  0  0  0  0  0  0  0  0
   21.4527  -23.9488  -15.4565 O   0  0  0  0  0  0  0  0  0  0  0  0
   21.7450  -23.7286  -13.1306 C   0  0  0  0  0  0  0  0  0  0  0  0
   22.1315  -22.2983  -13.3022 C   0  0  2  0  0  0  0  0  0  0  0  0
   23.5894  -22.1244  -13.2319 N   0  0  0  0  0  0  0  0  0  0  0  0
   21.5393  -21.4572  -12.2454 C   0  0  0  0  0  0  0  0  0  0  0  0
   22.1130  -21.0485  -11.2252 O   0  0  0  0  0  0  0  0  0  0  0  0
   20.1939  -21.0659  -12.3831 O   0  0  0  0  0  0  0  0  0  0  0  0
  2  3  1  0
  2  1  1  1
  3  4  1  0
  5  4  1  0
  6  5  1  0
  7  6  1  0
  8  2  1  0
  8  9  2  0
 10  8  1  0
 11 22  1  0
 11 10  1  0
 11 12  1  1
 13 14  2  0
 13 12  1  0
 15 14  1  0
 16 21  2  0
 16 15  1  0
 17 16  1  0
 18 19  1  0
 18 17  2  0
 19 20  2  0
 20 21  1  0
 21 13  1  0
 22 29  1  0
 23 22  2  0
 24 25  1  0
 25 27  1  0
 26 25  2  0
 28 27  1  1
 28 30  1  0
 29 28  1  0
 30 31  2  0
 30 32  1  0
M  END
$$$$
