KWN.pdb
     RDKit          3D

 32 33  0  0  1  0  0  0  0  0999 V2000
   28.8190  -22.5290  -16.3537 N   0  0  0  0  0  0  0  0  0  0  0  0
   28.1259  -21.3862  -15.8569 C   0  0  1  0  0  0  0  0  0  0  0  0
   27.2146  -20.7771  -16.8414 C   0  0  0  0  0  0  0  0  0  0  0  0
   27.8785  -20.3306  -18.0964 C   0  0  0  0  0  0  0  0  0  0  0  0
   26.9256  -19.7181  -19.0712 C   0  0  0  0  0  0  0  0  0  0  0  0
   27.7313  -19.3299  -20.3227 C   0  0  0  0  0  0  0  0  0  0  0  0
   28.3633  -18.0634  -20.0359 N   0  0  0  0  0  0  0  0  0  0  0  0
   27.4697  -21.6519  -14.5368 C   0  0  0  0  0  0  0  0  0  0  0  0
   26.8473  -22.7272  -14.3355 O   0  0  0  0  0  0  0  0  0  0  0  0
   27.5059  -20.7305  -13.4526 N   0  0  0  0  0  0  0  0  0  0  0  0
   26.8183  -20.9642  -12.2053 C   0  0  1  0  0  0  0  0  0  0  0  0
   27.2806  -20.0422  -11.1023 C   0  0  0  0  0  0  0  0  0  0  0  0
   26.5323  -20.1571   -9.8554 C   0  0  0  0  0  0  0  0  0  0  0  0
   25.1863  -20.3593   -9.6764 C   0  0  0  0  0  0  0  0  0  0  0  0
   24.9408  -20.4005   -8.3556 N   0  0  0  0  0  0  0  0  0  0  0  0
   26.0781  -20.2325   -7.6790 C   0  0  0  0  0  0  0  0  0  0  0  0
   26.3936  -20.1898   -6.3348 C   0  0  0  0  0  0  0  0  0  0  0  0
   27.6642  -20.0011   -5.8595 C   0  0  0  0  0  0  0  0  0  0  0  0
   28.6861  -19.8449   -6.7897 C   0  0  0  0  0  0  0  0  0  0  0  0
   28.3786  -19.8864   -8.1355 C   0  0  0  0  0  0  0  0  0  0  0  0
   27.0845  -20.0787   -8.5975 C   0  0  0  0  0  0  0  0  0  0  0  0
   25.3750  -20.6615  -12.4274 C   0  0  0  0  0  0  0  0  0  0  0  0
   25.0772  -19.4991  -12.8593 O   0  0  0  0  0  0  0  0  0  0  0  0
   23.7244  -24.4267  -14.6815 N   0  0  0  0  0  0  0  0  0  0  0  0
   23.0633  -23.1884  -14.4989 C   0  0  0  0  0  0  0  0  0  0  0  0
   23.0065  -22.4326  -15.5221 O   0  0  0  0  0  0  0  0  0  0  0  0
   22.4476  -22.7146  -13.2523 C   0  0  0  0  0  0  0  0  0  0  0  0
   23.0187  -21.3950  -12.8558 C   0  0  2  0  0  0  0  0  0  0  0  0
   24.3248  -21.5510  -12.1997 N   0  0  0  0  0  0  0  0  0  0  0  0
   22.1329  -20.6962  -11.9062 C   0  0  0  0  0  0  0  0  0  0  0  0
   20.9271  -20.4575  -12.0669 O   0  0  0  0  0  0  0  0  0  0  0  0
   22.6840  -20.2459  -10.6913 O   0  0  0  0  0  0  0  0  0  0  0  0
  2  3  1  0
  2  1  1  6
  3  4  1  0
  5  4  1  0
  6  5  1  0
  7  6  1  0
  8  2  1  0
  8  9  2  0
 10  8  1  0
 11 22  1  0
 11 10  1  0
 11 12  1  1
 13 14  2  0
 13 12  1  0
 15 14  1  0
 16 21  2  0
 16 15  1  0
 17 16  1  0
 18 19  1  0
 18 17  2  0
 19 20  2  0
 20 21  1  0
 21 13  1  0
 22 29  1  0
 23 22  2  0
 24 25  1  0
 25 27  1  0
 26 25  2  0
 28 27  1  1
 28 30  1  0
 29 28  1  0
 30 31  2  0
 30 32  1  0
M  END
$$$$
