KWN.pdb
     RDKit          3D

 32 33  0  0  1  0  0  0  0  0999 V2000
   26.5417  -19.1632  -14.1624 N   0  0  0  0  0  0  0  0  0  0  0  0
   25.8391  -20.4039  -14.1462 C   0  0  1  0  0  0  0  0  0  0  0  0
   26.4184  -21.4195  -15.0426 C   0  0  0  0  0  0  0  0  0  0  0  0
   27.6913  -21.0070  -15.6943 C   0  0  0  0  0  0  0  0  0  0  0  0
   28.1795  -22.0020  -16.6969 C   0  0  0  0  0  0  0  0  0  0  0  0
   29.5266  -21.4914  -17.2359 C   0  0  0  0  0  0  0  0  0  0  0  0
   30.0366  -22.5130  -18.1201 N   0  0  0  0  0  0  0  0  0  0  0  0
   25.6159  -20.9098  -12.7540 C   0  0  0  0  0  0  0  0  0  0  0  0
   24.9987  -21.9886  -12.5556 O   0  0  0  0  0  0  0  0  0  0  0  0
   26.0747  -20.2222  -11.5954 N   0  0  0  0  0  0  0  0  0  0  0  0
   25.8201  -20.6933  -10.2551 C   0  0  1  0  0  0  0  0  0  0  0  0
   26.7401  -20.0700   -9.2327 C   0  0  0  0  0  0  0  0  0  0  0  0
   26.5590  -20.5571   -7.8696 C   0  0  0  0  0  0  0  0  0  0  0  0
   25.7127  -21.5365   -7.4123 C   0  0  0  0  0  0  0  0  0  0  0  0
   25.8842  -21.6519   -6.0843 N   0  0  0  0  0  0  0  0  0  0  0  0
   26.8088  -20.7839   -5.6708 C   0  0  0  0  0  0  0  0  0  0  0  0
   27.3580  -20.4863   -4.4387 C   0  0  0  0  0  0  0  0  0  0  0  0
   28.3198  -19.5301   -4.2479 C   0  0  0  0  0  0  0  0  0  0  0  0
   28.7614  -18.8255   -5.3625 C   0  0  0  0  0  0  0  0  0  0  0  0
   28.2172  -19.1173   -6.5979 C   0  0  0  0  0  0  0  0  0  0  0  0
   27.2431  -20.0900   -6.7709 C   0  0  0  0  0  0  0  0  0  0  0  0
   24.4378  -20.2709   -9.8882 C   0  0  0  0  0  0  0  0  0  0  0  0
   24.1193  -19.0537  -10.0976 O   0  0  0  0  0  0  0  0  0  0  0  0
   19.6141  -20.2596  -11.8264 N   0  0  0  0  0  0  0  0  0  0  0  0
   20.2451  -21.3715  -11.2187 C   0  0  0  0  0  0  0  0  0  0  0  0
   19.4769  -22.3268  -10.8743 O   0  0  0  0  0  0  0  0  0  0  0  0
   21.6843  -21.5121  -10.9604 C   0  0  0  0  0  0  0  0  0  0  0  0
   22.0359  -20.9334   -9.6315 C   0  0  2  0  0  0  0  0  0  0  0  0
   23.4653  -21.1033   -9.3337 N   0  0  0  0  0  0  0  0  0  0  0  0
   21.2823  -21.5924   -8.5486 C   0  0  0  0  0  0  0  0  0  0  0  0
   20.0542  -21.5578   -8.3828 O   0  0  0  0  0  0  0  0  0  0  0  0
   22.0023  -22.3398   -7.5971 O   0  0  0  0  0  0  0  0  0  0  0  0
  2  3  1  0
  2  1  1  1
  3  4  1  0
  5  4  1  0
  6  5  1  0
  7  6  1  0
  8  2  1  0
  8  9  2  0
 10  8  1  0
 11 22  1  0
 11 10  1  0
 11 12  1  1
 13 14  2  0
 13 12  1  0
 15 14  1  0
 16 21  2  0
 16 15  1  0
 17 16  1  0
 18 19  1  0
 18 17  2  0
 19 20  2  0
 20 21  1  0
 21 13  1  0
 22 29  1  0
 23 22  2  0
 24 25  1  0
 25 27  1  0
 26 25  2  0
 28 27  1  6
 28 30  1  0
 29 28  1  0
 30 31  2  0
 30 32  1  0
M  END
$$$$
