KWN.pdb
     RDKit          3D

 32 33  0  0  1  0  0  0  0  0999 V2000
   27.9628  -19.5499  -13.8028 N   0  0  0  0  0  0  0  0  0  0  0  0
   27.7084  -20.9523  -13.7593 C   0  0  1  0  0  0  0  0  0  0  0  0
   28.8965  -21.7747  -14.0465 C   0  0  0  0  0  0  0  0  0  0  0  0
   29.6653  -21.3428  -15.2455 C   0  0  0  0  0  0  0  0  0  0  0  0
   29.2092  -22.0139  -16.5005 C   0  0  0  0  0  0  0  0  0  0  0  0
   30.1579  -23.1957  -16.7632 C   0  0  0  0  0  0  0  0  0  0  0  0
   29.6997  -23.8378  -17.9729 N   0  0  0  0  0  0  0  0  0  0  0  0
   27.0025  -21.3607  -12.5028 C   0  0  0  0  0  0  0  0  0  0  0  0
   26.6944  -22.5647  -12.3034 O   0  0  0  0  0  0  0  0  0  0  0  0
   26.6437  -20.4390  -11.4794 N   0  0  0  0  0  0  0  0  0  0  0  0
   25.6644  -20.7418  -10.4633 C   0  0  1  0  0  0  0  0  0  0  0  0
   26.0400  -20.1916   -9.1082 C   0  0  0  0  0  0  0  0  0  0  0  0
   27.3685  -20.5719   -8.6405 C   0  0  0  0  0  0  0  0  0  0  0  0
   28.3137  -21.3422   -9.2714 C   0  0  0  0  0  0  0  0  0  0  0  0
   29.3882  -21.4278   -8.4685 N   0  0  0  0  0  0  0  0  0  0  0  0
   29.1694  -20.7416   -7.3458 C   0  0  0  0  0  0  0  0  0  0  0  0
   29.9186  -20.5019   -6.2101 C   0  0  0  0  0  0  0  0  0  0  0  0
   29.4774  -19.7474   -5.1556 C   0  0  0  0  0  0  0  0  0  0  0  0
   28.2036  -19.1965   -5.2427 C   0  0  0  0  0  0  0  0  0  0  0  0
   27.4484  -19.4316   -6.3749 C   0  0  0  0  0  0  0  0  0  0  0  0
   27.9130  -20.1991   -7.4332 C   0  0  0  0  0  0  0  0  0  0  0  0
   24.3933  -20.0661  -10.8526 C   0  0  0  0  0  0  0  0  0  0  0  0
   24.4795  -19.0337  -11.5964 O   0  0  0  0  0  0  0  0  0  0  0  0
   20.8173  -22.3798  -14.3681 N   0  0  0  0  0  0  0  0  0  0  0  0
   21.6166  -21.4070  -13.7212 C   0  0  0  0  0  0  0  0  0  0  0  0
   21.6144  -20.2471  -14.2466 O   0  0  0  0  0  0  0  0  0  0  0  0
   22.4296  -21.6205  -12.5165 C   0  0  0  0  0  0  0  0  0  0  0  0
   22.0336  -20.6646  -11.4424 C   0  0  2  0  0  0  0  0  0  0  0  0
   23.1167  -20.4753  -10.4667 N   0  0  0  0  0  0  0  0  0  0  0  0
   20.8577  -21.1560  -10.7005 C   0  0  0  0  0  0  0  0  0  0  0  0
   20.8673  -21.9709   -9.7662 O   0  0  0  0  0  0  0  0  0  0  0  0
   19.5888  -20.6690  -11.0678 O   0  0  0  0  0  0  0  0  0  0  0  0
  2  3  1  0
  2  1  1  1
  3  4  1  0
  5  4  1  0
  6  5  1  0
  7  6  1  0
  8  2  1  0
  8  9  2  0
 10  8  1  0
 11 22  1  0
 11 10  1  0
 11 12  1  1
 13 14  2  0
 13 12  1  0
 15 14  1  0
 16 21  2  0
 16 15  1  0
 17 16  1  0
 18 19  1  0
 18 17  2  0
 19 20  2  0
 20 21  1  0
 21 13  1  0
 22 29  1  0
 23 22  2  0
 24 25  1  0
 25 27  1  0
 26 25  2  0
 28 27  1  6
 28 30  1  0
 29 28  1  0
 30 31  2  0
 30 32  1  0
M  END
$$$$
