KWN.pdb
     RDKit          3D

 32 33  0  0  1  0  0  0  0  0999 V2000
   28.5536  -20.1006  -15.8567 N   0  0  0  0  0  0  0  0  0  0  0  0
   27.4695  -21.0207  -15.9623 C   0  0  1  0  0  0  0  0  0  0  0  0
   27.7788  -22.2019  -16.7866 C   0  0  0  0  0  0  0  0  0  0  0  0
   28.9327  -22.0201  -17.7090 C   0  0  0  0  0  0  0  0  0  0  0  0
   29.2522  -23.2539  -18.4896 C   0  0  0  0  0  0  0  0  0  0  0  0
   30.4238  -22.9164  -19.4273 C   0  0  0  0  0  0  0  0  0  0  0  0
   30.8524  -24.1598  -20.0238 N   0  0  0  0  0  0  0  0  0  0  0  0
   26.8943  -21.3736  -14.6249 C   0  0  0  0  0  0  0  0  0  0  0  0
   25.9558  -22.2071  -14.5308 O   0  0  0  0  0  0  0  0  0  0  0  0
   27.3588  -20.8049  -13.4057 N   0  0  0  0  0  0  0  0  0  0  0  0
   26.7840  -21.1310  -12.1225 C   0  0  1  0  0  0  0  0  0  0  0  0
   27.6971  -20.7878  -10.9698 C   0  0  0  0  0  0  0  0  0  0  0  0
   27.0324  -20.6733   -9.6763 C   0  0  0  0  0  0  0  0  0  0  0  0
   25.7211  -20.9266   -9.3585 C   0  0  0  0  0  0  0  0  0  0  0  0
   25.5543  -20.6876   -8.0464 N   0  0  0  0  0  0  0  0  0  0  0  0
   26.7087  -20.2904   -7.5090 C   0  0  0  0  0  0  0  0  0  0  0  0
   27.0940  -19.9241   -6.2339 C   0  0  0  0  0  0  0  0  0  0  0  0
   28.3680  -19.5423   -5.9067 C   0  0  0  0  0  0  0  0  0  0  0  0
   29.3189  -19.5259   -6.9213 C   0  0  0  0  0  0  0  0  0  0  0  0
   28.9414  -19.8907   -8.1988 C   0  0  0  0  0  0  0  0  0  0  0  0
   27.6451  -20.2747   -8.5106 C   0  0  0  0  0  0  0  0  0  0  0  0
   25.5625  -20.2923  -11.9541 C   0  0  0  0  0  0  0  0  0  0  0  0
   25.6919  -19.0306  -12.0886 O   0  0  0  0  0  0  0  0  0  0  0  0
   21.0516  -20.2440  -15.0876 N   0  0  0  0  0  0  0  0  0  0  0  0
   22.0162  -19.5160  -14.3504 C   0  0  0  0  0  0  0  0  0  0  0  0
   21.7805  -18.2735  -14.2018 O   0  0  0  0  0  0  0  0  0  0  0  0
   23.2403  -20.0655  -13.7525 C   0  0  0  0  0  0  0  0  0  0  0  0
   23.0799  -20.2151  -12.2773 C   0  0  2  0  0  0  0  0  0  0  0  0
   24.2889  -20.7800  -11.6608 N   0  0  0  0  0  0  0  0  0  0  0  0
   21.9607  -21.1192  -11.9533 C   0  0  0  0  0  0  0  0  0  0  0  0
   21.9566  -22.3533  -12.0706 O   0  0  0  0  0  0  0  0  0  0  0  0
   20.7695  -20.5524  -11.4612 O   0  0  0  0  0  0  0  0  0  0  0  0
  2  3  1  0
  2  1  1  1
  3  4  1  0
  5  4  1  0
  6  5  1  0
  7  6  1  0
  8  2  1  0
  8  9  2  0
 10  8  1  0
 11 22  1  0
 11 10  1  0
 11 12  1  1
 13 14  2  0
 13 12  1  0
 15 14  1  0
 16 21  2  0
 16 15  1  0
 17 16  1  0
 18 19  1  0
 18 17  2  0
 19 20  2  0
 20 21  1  0
 21 13  1  0
 22 29  1  0
 23 22  2  0
 24 25  1  0
 25 27  1  0
 26 25  2  0
 28 27  1  6
 28 30  1  0
 29 28  1  0
 30 31  2  0
 30 32  1  0
M  END
$$$$
