KWN.pdb
     RDKit          3D

 32 33  0  0  1  0  0  0  0  0999 V2000
   27.4529  -20.0778  -16.2827 N   0  0  0  0  0  0  0  0  0  0  0  0
   27.3936  -21.4805  -16.0335 C   0  0  1  0  0  0  0  0  0  0  0  0
   28.6868  -22.1641  -16.2087 C   0  0  0  0  0  0  0  0  0  0  0  0
   29.5329  -21.6046  -17.2980 C   0  0  0  0  0  0  0  0  0  0  0  0
   28.8176  -20.5841  -18.1229 C   0  0  0  0  0  0  0  0  0  0  0  0
   29.8020  -20.0836  -19.1936 C   0  0  0  0  0  0  0  0  0  0  0  0
   29.1247  -20.1886  -20.4648 N   0  0  0  0  0  0  0  0  0  0  0  0
   26.7368  -21.7955  -14.7246 C   0  0  0  0  0  0  0  0  0  0  0  0
   26.6924  -22.9789  -14.2983 O   0  0  0  0  0  0  0  0  0  0  0  0
   26.1360  -20.8038  -13.8991 N   0  0  0  0  0  0  0  0  0  0  0  0
   25.5245  -21.1107  -12.6282 C   0  0  1  0  0  0  0  0  0  0  0  0
   25.9816  -20.1890  -11.5229 C   0  0  0  0  0  0  0  0  0  0  0  0
   27.2263  -20.5840  -10.8727 C   0  0  0  0  0  0  0  0  0  0  0  0
   28.3239  -21.2004  -11.4204 C   0  0  0  0  0  0  0  0  0  0  0  0
   29.2371  -21.3704  -10.4490 N   0  0  0  0  0  0  0  0  0  0  0  0
   28.7680  -20.8865   -9.2979 C   0  0  0  0  0  0  0  0  0  0  0  0
   29.2779  -20.8040   -8.0167 C   0  0  0  0  0  0  0  0  0  0  0  0
   28.5983  -20.2510   -6.9639 C   0  0  0  0  0  0  0  0  0  0  0  0
   27.3254  -19.7476   -7.2087 C   0  0  0  0  0  0  0  0  0  0  0  0
   26.8086  -19.8265   -8.4870 C   0  0  0  0  0  0  0  0  0  0  0  0
   27.5129  -20.3906   -9.5409 C   0  0  0  0  0  0  0  0  0  0  0  0
   24.0564  -20.8937  -12.7750 C   0  0  0  0  0  0  0  0  0  0  0  0
   23.6756  -19.8645  -13.4248 O   0  0  0  0  0  0  0  0  0  0  0  0
   18.8599  -21.2322  -13.0073 N   0  0  0  0  0  0  0  0  0  0  0  0
   19.4682  -22.5075  -12.9224 C   0  0  0  0  0  0  0  0  0  0  0  0
   18.6958  -23.5045  -13.0979 O   0  0  0  0  0  0  0  0  0  0  0  0
   20.8888  -22.7700  -12.6566 C   0  0  0  0  0  0  0  0  0  0  0  0
   21.6381  -21.4890  -12.5076 C   0  0  2  0  0  0  0  0  0  0  0  0
   23.0665  -21.7290  -12.2568 N   0  0  0  0  0  0  0  0  0  0  0  0
   21.1217  -20.6999  -11.3738 C   0  0  0  0  0  0  0  0  0  0  0  0
   21.4337  -20.8368  -10.1818 O   0  0  0  0  0  0  0  0  0  0  0  0
   20.1822  -19.6863  -11.6426 O   0  0  0  0  0  0  0  0  0  0  0  0
  2  3  1  0
  2  1  1  1
  3  4  1  0
  5  4  1  0
  6  5  1  0
  7  6  1  0
  8  2  1  0
  8  9  2  0
 10  8  1  0
 11 22  1  0
 11 10  1  0
 11 12  1  1
 13 14  2  0
 13 12  1  0
 15 14  1  0
 16 21  2  0
 16 15  1  0
 17 16  1  0
 18 19  1  0
 18 17  2  0
 19 20  2  0
 20 21  1  0
 21 13  1  0
 22 29  1  0
 23 22  2  0
 24 25  1  0
 25 27  1  0
 26 25  2  0
 28 27  1  1
 28 30  1  0
 29 28  1  0
 30 31  2  0
 30 32  1  0
M  END
$$$$
