KWN.pdb
     RDKit          3D

 32 33  0  0  1  0  0  0  0  0999 V2000
   28.2826  -20.3887  -14.6949 N   0  0  0  0  0  0  0  0  0  0  0  0
   27.2497  -21.3078  -15.0434 C   0  0  1  0  0  0  0  0  0  0  0  0
   27.7443  -22.5199  -15.7192 C   0  0  0  0  0  0  0  0  0  0  0  0
   28.7275  -22.2577  -16.8054 C   0  0  0  0  0  0  0  0  0  0  0  0
   29.9782  -23.0634  -16.6636 C   0  0  0  0  0  0  0  0  0  0  0  0
   30.6513  -23.1181  -18.0455 C   0  0  0  0  0  0  0  0  0  0  0  0
   31.8743  -23.8692  -17.8846 N   0  0  0  0  0  0  0  0  0  0  0  0
   26.3461  -21.6088  -13.8872 C   0  0  0  0  0  0  0  0  0  0  0  0
   25.5763  -22.6041  -13.9177 O   0  0  0  0  0  0  0  0  0  0  0  0
   26.3000  -20.8105  -12.7098 N   0  0  0  0  0  0  0  0  0  0  0  0
   25.3730  -21.0605  -11.6320 C   0  0  1  0  0  0  0  0  0  0  0  0
   25.7905  -20.4023  -10.3387 C   0  0  0  0  0  0  0  0  0  0  0  0
   27.0921  -20.8222   -9.8311 C   0  0  0  0  0  0  0  0  0  0  0  0
   28.0311  -21.6234  -10.4319 C   0  0  0  0  0  0  0  0  0  0  0  0
   29.0782  -21.7399   -9.5974 N   0  0  0  0  0  0  0  0  0  0  0  0
   28.8478  -21.0438   -8.4831 C   0  0  0  0  0  0  0  0  0  0  0  0
   29.5702  -20.8239   -7.3263 C   0  0  0  0  0  0  0  0  0  0  0  0
   29.1218  -20.0528   -6.2869 C   0  0  0  0  0  0  0  0  0  0  0  0
   27.8688  -19.4629   -6.4130 C   0  0  0  0  0  0  0  0  0  0  0  0
   27.1405  -19.6779   -7.5665 C   0  0  0  0  0  0  0  0  0  0  0  0
   27.6121  -20.4628   -8.6089 C   0  0  0  0  0  0  0  0  0  0  0  0
   24.0687  -20.4463  -12.0132 C   0  0  0  0  0  0  0  0  0  0  0  0
   24.0703  -19.2109  -12.3304 O   0  0  0  0  0  0  0  0  0  0  0  0
   20.0895  -18.6151  -14.9477 N   0  0  0  0  0  0  0  0  0  0  0  0
   20.3575  -19.9577  -14.5881 C   0  0  0  0  0  0  0  0  0  0  0  0
   19.3919  -20.7751  -14.7323 O   0  0  0  0  0  0  0  0  0  0  0  0
   21.6329  -20.4754  -14.0751 C   0  0  0  0  0  0  0  0  0  0  0  0
   21.6301  -20.4877  -12.5836 C   0  0  2  0  0  0  0  0  0  0  0  0
   22.8464  -21.1176  -12.0501 N   0  0  0  0  0  0  0  0  0  0  0  0
   20.4790  -21.2469  -12.0605 C   0  0  0  0  0  0  0  0  0  0  0  0
   20.3801  -22.4812  -12.0005 O   0  0  0  0  0  0  0  0  0  0  0  0
   19.3716  -20.5250  -11.5759 O   0  0  0  0  0  0  0  0  0  0  0  0
  2  3  1  0
  2  1  1  1
  3  4  1  0
  5  4  1  0
  6  5  1  0
  7  6  1  0
  8  2  1  0
  8  9  2  0
 10  8  1  0
 11 22  1  0
 11 10  1  0
 11 12  1  1
 13 14  2  0
 13 12  1  0
 15 14  1  0
 16 21  2  0
 16 15  1  0
 17 16  1  0
 18 19  1  0
 18 17  2  0
 19 20  2  0
 20 21  1  0
 21 13  1  0
 22 29  1  0
 23 22  2  0
 24 25  1  0
 25 27  1  0
 26 25  2  0
 28 27  1  6
 28 30  1  0
 29 28  1  0
 30 31  2  0
 30 32  1  0
M  END
$$$$
