YWA.pdb
     RDKit          3D

 32 34  0  0  1  0  0  0  0  0999 V2000
   29.7120  -15.7709  -18.3821 O   0  0  0  0  0  0  0  0  0  0  0  0
   28.9299  -16.6345  -17.6227 C   0  0  0  0  0  0  0  0  0  0  0  0
   28.5807  -17.8438  -18.1941 C   0  0  0  0  0  0  0  0  0  0  0  0
   27.7939  -18.7358  -17.4556 C   0  0  0  0  0  0  0  0  0  0  0  0
   27.3777  -18.4094  -16.1822 C   0  0  0  0  0  0  0  0  0  0  0  0
   26.5475  -19.3876  -15.4480 C   0  0  0  0  0  0  0  0  0  0  0  0
   27.4506  -20.1009  -14.4660 C   0  0  2  0  0  0  0  0  0  0  0  0
   28.3090  -21.0582  -15.0986 N   0  0  0  0  0  0  0  0  0  0  0  0
   26.5398  -20.8343  -13.5149 C   0  0  0  0  0  0  0  0  0  0  0  0
   26.0763  -21.9673  -13.7966 O   0  0  0  0  0  0  0  0  0  0  0  0
   27.7176  -17.2139  -15.6054 C   0  0  0  0  0  0  0  0  0  0  0  0
   28.5013  -16.3306  -16.3471 C   0  0  0  0  0  0  0  0  0  0  0  0
   26.1827  -20.2629  -12.2757 N   0  0  0  0  0  0  0  0  0  0  0  0
   25.2970  -21.0216  -11.3865 C   0  0  1  0  0  0  0  0  0  0  0  0
   25.6184  -20.5128  -10.0094 C   0  0  0  0  0  0  0  0  0  0  0  0
   26.9546  -20.8455   -9.5104 C   0  0  0  0  0  0  0  0  0  0  0  0
   27.9076  -21.6081  -10.1384 C   0  0  0  0  0  0  0  0  0  0  0  0
   28.9845  -21.6838   -9.3332 N   0  0  0  0  0  0  0  0  0  0  0  0
   28.7834  -21.0014   -8.1963 C   0  0  0  0  0  0  0  0  0  0  0  0
   29.5385  -20.7650   -7.0744 C   0  0  0  0  0  0  0  0  0  0  0  0
   29.0642  -19.9983   -6.0164 C   0  0  0  0  0  0  0  0  0  0  0  0
   27.7796  -19.4601   -6.1138 C   0  0  0  0  0  0  0  0  0  0  0  0
   27.0478  -19.7180   -7.2561 C   0  0  0  0  0  0  0  0  0  0  0  0
   27.5129  -20.4759   -8.3054 C   0  0  0  0  0  0  0  0  0  0  0  0
   23.9182  -20.7740  -11.8359 C   0  0  0  0  0  0  0  0  0  0  0  0
   23.4851  -19.6001  -11.9630 O   0  0  0  0  0  0  0  0  0  0  0  0
   20.9610  -22.7006  -13.1782 C   0  0  0  0  0  0  0  0  0  0  0  0
   21.6143  -21.5092  -12.4891 C   0  0  2  0  0  0  0  0  0  0  0  0
   22.9994  -21.8064  -12.1543 N   0  0  0  0  0  0  0  0  0  0  0  0
   20.8142  -21.0554  -11.3310 C   0  0  0  0  0  0  0  0  0  0  0  0
   19.6506  -20.3283  -11.5292 O   0  0  0  0  0  0  0  0  0  0  0  0
   21.1504  -21.3056  -10.1522 O   0  0  0  0  0  0  0  0  0  0  0  0
  2  1  1  0
  3  2  2  0
  4  3  1  0
  5 11  1  0
  5  4  2  0
  6  5  1  0
  7  8  1  6
  7  6  1  0
  9  7  1  0
 10  9  2  0
 11 12  2  0
 12  2  1  0
 13  9  1  0
 14 13  1  0
 14 15  1  1
 16 24  1  0
 16 15  1  0
 17 16  2  0
 18 17  1  0
 18 19  1  0
 19 24  2  0
 20 19  1  0
 20 21  2  0
 21 22  1  0
 22 23  2  0
 24 23  1  0
 25 14  1  0
 26 25  2  0
 28 27  1  1
 28 29  1  0
 29 25  1  0
 30 28  1  0
 30 31  1  0
 32 30  2  0
M  END
$$$$
