YWA.pdb
     RDKit          3D

 32 34  0  0  1  0  0  0  0  0999 V2000
   27.9452  -13.2355  -17.9128 O   0  0  0  0  0  0  0  0  0  0  0  0
   27.2147  -14.3729  -17.5861 C   0  0  0  0  0  0  0  0  0  0  0  0
   26.9085  -15.2477  -18.6118 C   0  0  0  0  0  0  0  0  0  0  0  0
   26.1741  -16.4023  -18.3161 C   0  0  0  0  0  0  0  0  0  0  0  0
   25.7662  -16.6578  -17.0239 C   0  0  0  0  0  0  0  0  0  0  0  0
   24.9921  -17.8909  -16.7682 C   0  0  0  0  0  0  0  0  0  0  0  0
   25.9338  -18.8942  -16.1396 C   0  0  2  0  0  0  0  0  0  0  0  0
   26.5575  -19.7485  -17.1064 N   0  0  0  0  0  0  0  0  0  0  0  0
   25.0902  -19.7463  -15.2262 C   0  0  0  0  0  0  0  0  0  0  0  0
   24.7380  -20.9063  -15.5549 O   0  0  0  0  0  0  0  0  0  0  0  0
   26.0637  -15.7982  -15.9991 C   0  0  0  0  0  0  0  0  0  0  0  0
   26.7954  -14.6503  -16.3014 C   0  0  0  0  0  0  0  0  0  0  0  0
   24.6724  -19.2591  -13.9701 N   0  0  0  0  0  0  0  0  0  0  0  0
   23.9994  -20.1833  -13.0516 C   0  0  1  0  0  0  0  0  0  0  0  0
   24.2375  -19.5999  -11.6872 C   0  0  0  0  0  0  0  0  0  0  0  0
   23.6826  -20.3654  -10.5687 C   0  0  0  0  0  0  0  0  0  0  0  0
   24.3475  -21.2564   -9.7635 C   0  0  0  0  0  0  0  0  0  0  0  0
   23.4703  -21.7536   -8.8709 N   0  0  0  0  0  0  0  0  0  0  0  0
   22.2499  -21.2277   -9.0522 C   0  0  0  0  0  0  0  0  0  0  0  0
   21.0355  -21.3887   -8.4326 C   0  0  0  0  0  0  0  0  0  0  0  0
   19.9029  -20.6944   -8.8417 C   0  0  0  0  0  0  0  0  0  0  0  0
   20.0214  -19.8109   -9.9164 C   0  0  0  0  0  0  0  0  0  0  0  0
   21.2577  -19.6735  -10.5163 C   0  0  0  0  0  0  0  0  0  0  0  0
   22.3809  -20.3584  -10.1149 C   0  0  0  0  0  0  0  0  0  0  0  0
   22.5884  -20.2503  -13.4628 C   0  0  0  0  0  0  0  0  0  0  0  0
   21.9645  -19.2084  -13.7900 O   0  0  0  0  0  0  0  0  0  0  0  0
   20.1388  -22.4740  -14.9577 C   0  0  0  0  0  0  0  0  0  0  0  0
   20.4295  -21.4566  -13.8617 C   0  0  2  0  0  0  0  0  0  0  0  0
   21.8455  -21.4567  -13.5239 N   0  0  0  0  0  0  0  0  0  0  0  0
   19.5466  -21.6614  -12.6929 C   0  0  0  0  0  0  0  0  0  0  0  0
   18.3664  -20.9435  -12.5761 O   0  0  0  0  0  0  0  0  0  0  0  0
   19.8258  -22.4741  -11.7836 O   0  0  0  0  0  0  0  0  0  0  0  0
  2  1  1  0
  3  2  2  0
  4  3  1  0
  5 11  1  0
  5  4  2  0
  6  5  1  0
  7  8  1  6
  7  6  1  0
  9  7  1  0
 10  9  2  0
 11 12  2  0
 12  2  1  0
 13  9  1  0
 14 13  1  0
 14 15  1  1
 16 24  1  0
 16 15  1  0
 17 16  2  0
 18 17  1  0
 18 19  1  0
 19 24  2  0
 20 19  1  0
 20 21  2  0
 21 22  1  0
 22 23  2  0
 24 23  1  0
 25 14  1  0
 26 25  2  0
 28 27  1  6
 28 29  1  0
 29 25  1  0
 30 28  1  0
 30 31  1  0
 32 30  2  0
M  END
$$$$
