YWA.pdb
     RDKit          3D

 32 34  0  0  1  0  0  0  0  0999 V2000
   28.9989  -15.2180  -17.8824 O   0  0  0  0  0  0  0  0  0  0  0  0
   28.2843  -16.1987  -17.2029 C   0  0  0  0  0  0  0  0  0  0  0  0
   27.9863  -15.9617  -15.8740 C   0  0  0  0  0  0  0  0  0  0  0  0
   27.2679  -16.9294  -15.1616 C   0  0  0  0  0  0  0  0  0  0  0  0
   26.8671  -18.0955  -15.7786 C   0  0  0  0  0  0  0  0  0  0  0  0
   26.1126  -19.0836  -14.9790 C   0  0  0  0  0  0  0  0  0  0  0  0
   27.1197  -19.8925  -14.1916 C   0  0  2  0  0  0  0  0  0  0  0  0
   27.8306  -20.8339  -15.0052 N   0  0  0  0  0  0  0  0  0  0  0  0
   26.3297  -20.6567  -13.1602 C   0  0  0  0  0  0  0  0  0  0  0  0
   25.8602  -21.7952  -13.4080 O   0  0  0  0  0  0  0  0  0  0  0  0
   27.1565  -18.3415  -17.0953 C   0  0  0  0  0  0  0  0  0  0  0  0
   27.8725  -17.3731  -17.7983 C   0  0  0  0  0  0  0  0  0  0  0  0
   26.0962  -20.1090  -11.8815 N   0  0  0  0  0  0  0  0  0  0  0  0
   25.1929  -20.8208  -10.9714 C   0  0  1  0  0  0  0  0  0  0  0  0
   25.5695  -20.3271   -9.6029 C   0  0  0  0  0  0  0  0  0  0  0  0
   26.9097  -20.7001   -9.1449 C   0  0  0  0  0  0  0  0  0  0  0  0
   27.8156  -21.4993   -9.7967 C   0  0  0  0  0  0  0  0  0  0  0  0
   28.9155  -21.6043   -9.0267 N   0  0  0  0  0  0  0  0  0  0  0  0
   28.7748  -20.9062   -7.8901 C   0  0  0  0  0  0  0  0  0  0  0  0
   29.5741  -20.6859   -6.7960 C   0  0  0  0  0  0  0  0  0  0  0  0
   29.1608  -19.8951   -5.7301 C   0  0  0  0  0  0  0  0  0  0  0  0
   27.8921  -19.3151   -5.7903 C   0  0  0  0  0  0  0  0  0  0  0  0
   27.1148  -19.5578   -6.9055 C   0  0  0  0  0  0  0  0  0  0  0  0
   27.5196  -20.3395   -7.9624 C   0  0  0  0  0  0  0  0  0  0  0  0
   23.8189  -20.5043  -11.3915 C   0  0  0  0  0  0  0  0  0  0  0  0
   23.5640  -19.4347  -12.0019 O   0  0  0  0  0  0  0  0  0  0  0  0
   21.5568  -21.5441  -13.3055 C   0  0  0  0  0  0  0  0  0  0  0  0
   21.4411  -21.1547  -11.8372 C   0  0  2  0  0  0  0  0  0  0  0  0
   22.7096  -21.3549  -11.1517 N   0  0  0  0  0  0  0  0  0  0  0  0
   20.3067  -21.8464  -11.1875 C   0  0  0  0  0  0  0  0  0  0  0  0
   20.5312  -22.7069  -10.1241 O   0  0  0  0  0  0  0  0  0  0  0  0
   19.1251  -21.6843  -11.5654 O   0  0  0  0  0  0  0  0  0  0  0  0
  2  1  1  0
  3  2  2  0
  4  3  1  0
  5 11  1  0
  5  4  2  0
  6  5  1  0
  7  8  1  6
  7  6  1  0
  9  7  1  0
 10  9  2  0
 11 12  2  0
 12  2  1  0
 13  9  1  0
 14 13  1  0
 14 15  1  1
 16 24  1  0
 16 15  1  0
 17 16  2  0
 18 17  1  0
 18 19  1  0
 19 24  2  0
 20 19  1  0
 20 21  2  0
 21 22  1  0
 22 23  2  0
 24 23  1  0
 25 14  1  0
 26 25  2  0
 28 27  1  6
 28 29  1  0
 29 25  1  0
 30 28  1  0
 30 31  1  0
 32 30  2  0
M  END
$$$$
