YWA.pdb
     RDKit          3D

 32 34  0  0  1  0  0  0  0  0999 V2000
   22.0346  -16.7795  -18.1353 O   0  0  0  0  0  0  0  0  0  0  0  0
   22.0923  -17.5663  -16.9900 C   0  0  0  0  0  0  0  0  0  0  0  0
   22.0581  -18.9378  -17.1590 C   0  0  0  0  0  0  0  0  0  0  0  0
   22.1146  -19.7581  -16.0259 C   0  0  0  0  0  0  0  0  0  0  0  0
   22.2027  -19.2032  -14.7667 C   0  0  0  0  0  0  0  0  0  0  0  0
   22.2578  -20.1157  -13.6051 C   0  0  0  0  0  0  0  0  0  0  0  0
   23.6772  -20.0976  -13.0821 C   0  0  2  0  0  0  0  0  0  0  0  0
   24.6084  -20.7013  -13.9888 N   0  0  0  0  0  0  0  0  0  0  0  0
   23.6650  -20.9020  -11.8075 C   0  0  0  0  0  0  0  0  0  0  0  0
   23.5527  -22.1530  -11.8250 O   0  0  0  0  0  0  0  0  0  0  0  0
   22.2374  -17.8453  -14.5866 C   0  0  0  0  0  0  0  0  0  0  0  0
   22.1807  -17.0348  -15.7199 C   0  0  0  0  0  0  0  0  0  0  0  0
   23.7806  -20.2657  -10.5539 N   0  0  0  0  0  0  0  0  0  0  0  0
   23.7730  -21.0971   -9.3458 C   0  0  1  0  0  0  0  0  0  0  0  0
   24.6343  -20.3493   -8.3673 C   0  0  0  0  0  0  0  0  0  0  0  0
   26.0771  -20.5570   -8.5105 C   0  0  0  0  0  0  0  0  0  0  0  0
   26.7179  -21.2751   -9.4893 C   0  0  0  0  0  0  0  0  0  0  0  0
   28.0416  -21.2316   -9.2454 N   0  0  0  0  0  0  0  0  0  0  0  0
   28.3040  -20.5132   -8.1437 C   0  0  0  0  0  0  0  0  0  0  0  0
   29.4528  -20.1680   -7.4761 C   0  0  0  0  0  0  0  0  0  0  0  0
   29.4291  -19.3896   -6.3246 C   0  0  0  0  0  0  0  0  0  0  0  0
   28.1916  -18.9544   -5.8464 C   0  0  0  0  0  0  0  0  0  0  0  0
   27.0565  -19.3201   -6.5425 C   0  0  0  0  0  0  0  0  0  0  0  0
   27.0752  -20.0900   -7.6822 C   0  0  0  0  0  0  0  0  0  0  0  0
   22.3677  -21.2590   -8.9415 C   0  0  0  0  0  0  0  0  0  0  0  0
   21.6160  -20.2585   -8.8163 O   0  0  0  0  0  0  0  0  0  0  0  0
   19.6715  -23.7691   -8.8628 C   0  0  0  0  0  0  0  0  0  0  0  0
   20.3991  -22.6129   -8.1885 C   0  0  2  0  0  0  0  0  0  0  0  0
   21.7684  -22.5160   -8.6731 N   0  0  0  0  0  0  0  0  0  0  0  0
   20.3022  -22.7051   -6.7156 C   0  0  0  0  0  0  0  0  0  0  0  0
   21.4497  -22.8282   -5.9476 O   0  0  0  0  0  0  0  0  0  0  0  0
   19.2030  -22.6761   -6.1189 O   0  0  0  0  0  0  0  0  0  0  0  0
  2  1  1  0
  3  2  2  0
  4  3  1  0
  5 11  1  0
  5  4  2  0
  6  5  1  0
  7  8  1  6
  7  6  1  0
  9  7  1  0
 10  9  2  0
 11 12  2  0
 12  2  1  0
 13  9  1  0
 14 13  1  0
 14 15  1  1
 16 24  1  0
 16 15  1  0
 17 16  2  0
 18 17  1  0
 18 19  1  0
 19 24  2  0
 20 19  1  0
 20 21  2  0
 21 22  1  0
 22 23  2  0
 24 23  1  0
 25 14  1  0
 26 25  2  0
 28 27  1  6
 28 29  1  0
 29 25  1  0
 30 28  1  0
 30 31  1  0
 32 30  2  0
M  END
$$$$
