YWA.pdb
     RDKit          3D

 32 34  0  0  1  0  0  0  0  0999 V2000
   24.6336  -13.0769  -21.4975 O   0  0  0  0  0  0  0  0  0  0  0  0
   24.6183  -14.1372  -20.5977 C   0  0  0  0  0  0  0  0  0  0  0  0
   24.3619  -15.3973  -21.1050 C   0  0  0  0  0  0  0  0  0  0  0  0
   24.3396  -16.4861  -20.2253 C   0  0  0  0  0  0  0  0  0  0  0  0
   24.5698  -16.2998  -18.8785 C   0  0  0  0  0  0  0  0  0  0  0  0
   24.5329  -17.4840  -17.9947 C   0  0  0  0  0  0  0  0  0  0  0  0
   25.9634  -17.9119  -17.7513 C   0  0  2  0  0  0  0  0  0  0  0  0
   26.5743  -18.4859  -18.9136 N   0  0  0  0  0  0  0  0  0  0  0  0
   25.9089  -18.9646  -16.6739 C   0  0  0  0  0  0  0  0  0  0  0  0
   25.4874  -20.1234  -16.9129 O   0  0  0  0  0  0  0  0  0  0  0  0
   24.8251  -15.0557  -18.3642 C   0  0  0  0  0  0  0  0  0  0  0  0
   24.8456  -13.9760  -19.2465 C   0  0  0  0  0  0  0  0  0  0  0  0
   26.3332  -18.6728  -15.3606 N   0  0  0  0  0  0  0  0  0  0  0  0
   26.2229  -19.7221  -14.3420 C   0  0  1  0  0  0  0  0  0  0  0  0
   27.3076  -19.4029  -13.3521 C   0  0  0  0  0  0  0  0  0  0  0  0
   27.4280  -20.3331  -12.2272 C   0  0  0  0  0  0  0  0  0  0  0  0
   27.9404  -21.6063  -12.2558 C   0  0  0  0  0  0  0  0  0  0  0  0
   27.8512  -22.1244  -11.0161 N   0  0  0  0  0  0  0  0  0  0  0  0
   27.3000  -21.2454  -10.1663 C   0  0  0  0  0  0  0  0  0  0  0  0
   26.9917  -21.2699   -8.8288 C   0  0  0  0  0  0  0  0  0  0  0  0
   26.4079  -20.1830   -8.1882 C   0  0  0  0  0  0  0  0  0  0  0  0
   26.1336  -19.0405   -8.9424 C   0  0  0  0  0  0  0  0  0  0  0  0
   26.4566  -19.0503  -10.2849 C   0  0  0  0  0  0  0  0  0  0  0  0
   27.0343  -20.1232  -10.9229 C   0  0  0  0  0  0  0  0  0  0  0  0
   24.8538  -19.6624  -13.8067 C   0  0  0  0  0  0  0  0  0  0  0  0
   24.2927  -18.5560  -13.5998 O   0  0  0  0  0  0  0  0  0  0  0  0
   21.7272  -21.4765  -13.6088 C   0  0  0  0  0  0  0  0  0  0  0  0
   22.7872  -20.6973  -12.8406 C   0  0  2  0  0  0  0  0  0  0  0  0
   24.0825  -20.8110  -13.4950 N   0  0  0  0  0  0  0  0  0  0  0  0
   22.8127  -21.0903  -11.4150 C   0  0  0  0  0  0  0  0  0  0  0  0
   23.9375  -21.6981  -10.8792 O   0  0  0  0  0  0  0  0  0  0  0  0
   21.8396  -20.8929  -10.6538 O   0  0  0  0  0  0  0  0  0  0  0  0
  2  1  1  0
  3  2  2  0
  4  3  1  0
  5 11  1  0
  5  4  2  0
  6  5  1  0
  7  8  1  6
  7  6  1  0
  9  7  1  0
 10  9  2  0
 11 12  2  0
 12  2  1  0
 13  9  1  0
 14 13  1  0
 14 15  1  1
 16 24  1  0
 16 15  1  0
 17 16  2  0
 18 17  1  0
 18 19  1  0
 19 24  2  0
 20 19  1  0
 20 21  2  0
 21 22  1  0
 22 23  2  0
 24 23  1  0
 25 14  1  0
 26 25  2  0
 28 27  1  6
 28 29  1  0
 29 25  1  0
 30 28  1  0
 30 31  1  0
 32 30  2  0
M  END
$$$$
