YWA.pdb
     RDKit          3D

 32 34  0  0  1  0  0  0  0  0999 V2000
   21.8629  -16.8410  -17.6894 O   0  0  0  0  0  0  0  0  0  0  0  0
   21.9899  -17.7163  -16.6161 C   0  0  0  0  0  0  0  0  0  0  0  0
   22.1295  -17.1620  -15.3574 C   0  0  0  0  0  0  0  0  0  0  0  0
   22.2596  -18.0160  -14.2557 C   0  0  0  0  0  0  0  0  0  0  0  0
   22.2480  -19.3840  -14.4282 C   0  0  0  0  0  0  0  0  0  0  0  0
   22.3905  -20.2389  -13.2307 C   0  0  0  0  0  0  0  0  0  0  0  0
   23.8376  -20.1698  -12.7949 C   0  0  2  0  0  0  0  0  0  0  0  0
   24.7269  -20.7942  -13.7290 N   0  0  0  0  0  0  0  0  0  0  0  0
   23.9185  -20.9176  -11.4887 C   0  0  0  0  0  0  0  0  0  0  0  0
   24.0268  -22.1686  -11.4573 O   0  0  0  0  0  0  0  0  0  0  0  0
   22.1102  -19.9450  -15.6708 C   0  0  0  0  0  0  0  0  0  0  0  0
   21.9812  -19.0880  -16.7633 C   0  0  0  0  0  0  0  0  0  0  0  0
   23.8745  -20.2264  -10.2598 N   0  0  0  0  0  0  0  0  0  0  0  0
   23.9306  -21.0052   -9.0184 C   0  0  1  0  0  0  0  0  0  0  0  0
   24.7825  -20.1816   -8.0941 C   0  0  0  0  0  0  0  0  0  0  0  0
   26.2228  -20.4358   -8.1702 C   0  0  0  0  0  0  0  0  0  0  0  0
   26.8859  -21.1687   -9.1229 C   0  0  0  0  0  0  0  0  0  0  0  0
   28.1972  -21.1703   -8.8162 N   0  0  0  0  0  0  0  0  0  0  0  0
   28.4300  -20.4674   -7.6980 C   0  0  0  0  0  0  0  0  0  0  0  0
   29.5564  -20.1641   -6.9742 C   0  0  0  0  0  0  0  0  0  0  0  0
   29.5032  -19.3922   -5.8193 C   0  0  0  0  0  0  0  0  0  0  0  0
   28.2592  -18.9193   -5.3970 C   0  0  0  0  0  0  0  0  0  0  0  0
   27.1472  -19.2434   -6.1489 C   0  0  0  0  0  0  0  0  0  0  0  0
   27.1951  -20.0068   -7.2921 C   0  0  0  0  0  0  0  0  0  0  0  0
   22.5433  -21.2075   -8.5723 C   0  0  0  0  0  0  0  0  0  0  0  0
   21.7809  -20.2260   -8.3798 O   0  0  0  0  0  0  0  0  0  0  0  0
   19.9470  -23.8612   -8.3435 C   0  0  0  0  0  0  0  0  0  0  0  0
   20.6353  -22.6243   -7.7802 C   0  0  2  0  0  0  0  0  0  0  0  0
   21.9738  -22.4845   -8.3350 N   0  0  0  0  0  0  0  0  0  0  0  0
   20.6092  -22.6236   -6.3014 C   0  0  0  0  0  0  0  0  0  0  0  0
   21.7942  -22.6630   -5.5830 O   0  0  0  0  0  0  0  0  0  0  0  0
   19.5382  -22.5881   -5.6557 O   0  0  0  0  0  0  0  0  0  0  0  0
  2  1  1  0
  3  2  2  0
  4  3  1  0
  5 11  1  0
  5  4  2  0
  6  5  1  0
  7  8  1  6
  7  6  1  0
  9  7  1  0
 10  9  2  0
 11 12  2  0
 12  2  1  0
 13  9  1  0
 14 13  1  0
 14 15  1  1
 16 24  1  0
 16 15  1  0
 17 16  2  0
 18 17  1  0
 18 19  1  0
 19 24  2  0
 20 19  1  0
 20 21  2  0
 21 22  1  0
 22 23  2  0
 24 23  1  0
 25 14  1  0
 26 25  2  0
 28 27  1  1
 28 29  1  0
 29 25  1  0
 30 28  1  0
 30 31  1  0
 32 30  2  0
M  END
$$$$
