YWA.pdb
     RDKit          3D

 32 34  0  0  1  0  0  0  0  0999 V2000
   27.9295  -15.5910  -18.2215 O   0  0  0  0  0  0  0  0  0  0  0  0
   27.3879  -16.4651  -17.2851 C   0  0  0  0  0  0  0  0  0  0  0  0
   27.6787  -16.2303  -15.9543 C   0  0  0  0  0  0  0  0  0  0  0  0
   27.1488  -17.0921  -14.9865 C   0  0  0  0  0  0  0  0  0  0  0  0
   26.3519  -18.1540  -15.3592 C   0  0  0  0  0  0  0  0  0  0  0  0
   25.8202  -19.0331  -14.2965 C   0  0  0  0  0  0  0  0  0  0  0  0
   26.9829  -19.8253  -13.7405 C   0  0  2  0  0  0  0  0  0  0  0  0
   27.4178  -20.8647  -14.6260 N   0  0  0  0  0  0  0  0  0  0  0  0
   26.4863  -20.4620  -12.4677 C   0  0  0  0  0  0  0  0  0  0  0  0
   25.9341  -21.5902  -12.4734 O   0  0  0  0  0  0  0  0  0  0  0  0
   26.0567  -18.3966  -16.6751 C   0  0  0  0  0  0  0  0  0  0  0  0
   26.5882  -17.5340  -17.6332 C   0  0  0  0  0  0  0  0  0  0  0  0
   26.6305  -19.8023  -11.2292 N   0  0  0  0  0  0  0  0  0  0  0  0
   26.0915  -20.4477  -10.0276 C   0  0  1  0  0  0  0  0  0  0  0  0
   26.8927  -19.8681   -8.8961 C   0  0  0  0  0  0  0  0  0  0  0  0
   26.5591  -20.3749   -7.5631 C   0  0  0  0  0  0  0  0  0  0  0  0
   25.4939  -21.1707   -7.2216 C   0  0  0  0  0  0  0  0  0  0  0  0
   25.5428  -21.3935   -5.8944 N   0  0  0  0  0  0  0  0  0  0  0  0
   26.5983  -20.7773   -5.3422 C   0  0  0  0  0  0  0  0  0  0  0  0
   27.0936  -20.6849   -4.0652 C   0  0  0  0  0  0  0  0  0  0  0  0
   28.2404  -19.9562   -3.7717 C   0  0  0  0  0  0  0  0  0  0  0  0
   28.8957  -19.3050   -4.8186 C   0  0  0  0  0  0  0  0  0  0  0  0
   28.3700  -19.4191   -6.0904 C   0  0  0  0  0  0  0  0  0  0  0  0
   27.2357  -20.1390   -6.3854 C   0  0  0  0  0  0  0  0  0  0  0  0
   24.6511  -20.1510   -9.9870 C   0  0  0  0  0  0  0  0  0  0  0  0
   24.2098  -19.0509  -10.4074 O   0  0  0  0  0  0  0  0  0  0  0  0
   22.0527  -21.1056  -11.3227 C   0  0  0  0  0  0  0  0  0  0  0  0
   22.2691  -20.9100   -9.8274 C   0  0  2  0  0  0  0  0  0  0  0  0
   23.6777  -21.0545   -9.4896 N   0  0  0  0  0  0  0  0  0  0  0  0
   21.3821  -21.7918   -9.0381 C   0  0  0  0  0  0  0  0  0  0  0  0
   20.0058  -21.7012   -9.1767 O   0  0  0  0  0  0  0  0  0  0  0  0
   21.8314  -22.6361   -8.2314 O   0  0  0  0  0  0  0  0  0  0  0  0
  2  1  1  0
  3  2  2  0
  4  3  1  0
  5 11  1  0
  5  4  2  0
  6  5  1  0
  7  8  1  6
  7  6  1  0
  9  7  1  0
 10  9  2  0
 11 12  2  0
 12  2  1  0
 13  9  1  0
 14 13  1  0
 14 15  1  1
 16 24  1  0
 16 15  1  0
 17 16  2  0
 18 17  1  0
 18 19  1  0
 19 24  2  0
 20 19  1  0
 20 21  2  0
 21 22  1  0
 22 23  2  0
 24 23  1  0
 25 14  1  0
 26 25  2  0
 28 27  1  6
 28 29  1  0
 29 25  1  0
 30 28  1  0
 30 31  1  0
 32 30  2  0
M  END
$$$$
