YWA.pdb
     RDKit          3D

 32 34  0  0  1  0  0  0  0  0999 V2000
   19.7312  -17.0700  -16.6275 O   0  0  0  0  0  0  0  0  0  0  0  0
   20.3646  -17.8778  -15.6892 C   0  0  0  0  0  0  0  0  0  0  0  0
   20.9722  -17.2504  -14.6176 C   0  0  0  0  0  0  0  0  0  0  0  0
   21.6185  -18.0353  -13.6552 C   0  0  0  0  0  0  0  0  0  0  0  0
   21.6457  -19.4084  -13.7784 C   0  0  0  0  0  0  0  0  0  0  0  0
   22.3434  -20.1883  -12.7344 C   0  0  0  0  0  0  0  0  0  0  0  0
   23.8185  -19.8705  -12.8419 C   0  0  2  0  0  0  0  0  0  0  0  0
   24.4024  -20.3589  -14.0561 N   0  0  0  0  0  0  0  0  0  0  0  0
   24.4831  -20.5659  -11.6815 C   0  0  0  0  0  0  0  0  0  0  0  0
   24.6413  -21.8120  -11.6697 O   0  0  0  0  0  0  0  0  0  0  0  0
   21.0471  -20.0415  -14.8361 C   0  0  0  0  0  0  0  0  0  0  0  0
   20.4054  -19.2530  -15.7906 C   0  0  0  0  0  0  0  0  0  0  0  0
   24.9478  -19.8296  -10.5717 N   0  0  0  0  0  0  0  0  0  0  0  0
   25.6063  -20.5538   -9.4796 C   0  0  1  0  0  0  0  0  0  0  0  0
   26.7057  -19.6351   -9.0261 C   0  0  0  0  0  0  0  0  0  0  0  0
   27.6861  -20.2277   -8.1136 C   0  0  0  0  0  0  0  0  0  0  0  0
   28.3911  -21.3912   -8.2965 C   0  0  0  0  0  0  0  0  0  0  0  0
   29.1704  -21.5860   -7.2156 N   0  0  0  0  0  0  0  0  0  0  0  0
   29.0102  -20.5978   -6.3232 C   0  0  0  0  0  0  0  0  0  0  0  0
   29.5504  -20.3222   -5.0916 C   0  0  0  0  0  0  0  0  0  0  0  0
   29.1911  -19.1918   -4.3668 C   0  0  0  0  0  0  0  0  0  0  0  0
   28.2515  -18.3212   -4.9225 C   0  0  0  0  0  0  0  0  0  0  0  0
   27.7286  -18.6292   -6.1630 C   0  0  0  0  0  0  0  0  0  0  0  0
   28.0811  -19.7465   -6.8837 C   0  0  0  0  0  0  0  0  0  0  0  0
   24.5767  -20.8398   -8.4683 C   0  0  0  0  0  0  0  0  0  0  0  0
   23.7516  -19.9554   -8.1237 O   0  0  0  0  0  0  0  0  0  0  0  0
   23.4219  -23.7584   -6.3383 C   0  0  0  0  0  0  0  0  0  0  0  0
   23.4691  -22.2940   -6.7553 C   0  0  2  0  0  0  0  0  0  0  0  0
   24.4360  -22.0961   -7.8255 N   0  0  0  0  0  0  0  0  0  0  0  0
   23.6944  -21.4121   -5.5896 C   0  0  0  0  0  0  0  0  0  0  0  0
   22.6469  -21.1046   -4.7351 O   0  0  0  0  0  0  0  0  0  0  0  0
   24.8162  -20.9201   -5.3356 O   0  0  0  0  0  0  0  0  0  0  0  0
  2  1  1  0
  3  2  2  0
  4  3  1  0
  5 11  1  0
  5  4  2  0
  6  5  1  0
  7  8  1  6
  7  6  1  0
  9  7  1  0
 10  9  2  0
 11 12  2  0
 12  2  1  0
 13  9  1  0
 14 13  1  0
 14 15  1  1
 16 24  1  0
 16 15  1  0
 17 16  2  0
 18 17  1  0
 18 19  1  0
 19 24  2  0
 20 19  1  0
 20 21  2  0
 21 22  1  0
 22 23  2  0
 24 23  1  0
 25 14  1  0
 26 25  2  0
 28 27  1  1
 28 29  1  0
 29 25  1  0
 30 28  1  0
 30 31  1  0
 32 30  2  0
M  END
$$$$
