YWA.pdb
     RDKit          3D

 32 34  0  0  1  0  0  0  0  0999 V2000
   35.7820  -31.6215  -20.4727 O   0  0  0  0  0  0  0  0  0  0  0  0
   34.4565  -31.3122  -20.1874 C   0  0  0  0  0  0  0  0  0  0  0  0
   33.4795  -32.0435  -20.8368 C   0  0  0  0  0  0  0  0  0  0  0  0
   32.1351  -31.7569  -20.5715 C   0  0  0  0  0  0  0  0  0  0  0  0
   31.7969  -30.7625  -19.6781 C   0  0  0  0  0  0  0  0  0  0  0  0
   30.3623  -30.5008  -19.4366 C   0  0  0  0  0  0  0  0  0  0  0  0
   30.1345  -30.5713  -17.9427 C   0  0  2  0  0  0  0  0  0  0  0  0
   30.0586  -31.9176  -17.4577 N   0  0  0  0  0  0  0  0  0  0  0  0
   28.8098  -29.8988  -17.6881 C   0  0  0  0  0  0  0  0  0  0  0  0
   27.7333  -30.5455  -17.7112 O   0  0  0  0  0  0  0  0  0  0  0  0
   32.7564  -30.0311  -19.0284 C   0  0  0  0  0  0  0  0  0  0  0  0
   34.0932  -30.3223  -19.2978 C   0  0  0  0  0  0  0  0  0  0  0  0
   28.7453  -28.5163  -17.4152 N   0  0  0  0  0  0  0  0  0  0  0  0
   27.4272  -27.9049  -17.2162 C   0  0  1  0  0  0  0  0  0  0  0  0
   27.7135  -26.6147  -16.5009 C   0  0  0  0  0  0  0  0  0  0  0  0
   26.5725  -25.7081  -16.3550 C   0  0  0  0  0  0  0  0  0  0  0  0
   25.4168  -25.9372  -15.6506 C   0  0  0  0  0  0  0  0  0  0  0  0
   24.6198  -24.8603  -15.7867 N   0  0  0  0  0  0  0  0  0  0  0  0
   25.2013  -23.9260  -16.5534 C   0  0  0  0  0  0  0  0  0  0  0  0
   24.8298  -22.6792  -16.9917 C   0  0  0  0  0  0  0  0  0  0  0  0
   25.6556  -21.9074  -17.8009 C   0  0  0  0  0  0  0  0  0  0  0  0
   26.8963  -22.4310  -18.1696 C   0  0  0  0  0  0  0  0  0  0  0  0
   27.2377  -23.6880  -17.7109 C   0  0  0  0  0  0  0  0  0  0  0  0
   26.4239  -24.4551  -16.9102 C   0  0  0  0  0  0  0  0  0  0  0  0
   26.8143  -27.7573  -18.5455 C   0  0  0  0  0  0  0  0  0  0  0  0
   27.5115  -27.4392  -19.5427 O   0  0  0  0  0  0  0  0  0  0  0  0
   23.9081  -28.7939  -20.5256 C   0  0  0  0  0  0  0  0  0  0  0  0
   24.8561  -27.6777  -20.1060 C   0  0  2  0  0  0  0  0  0  0  0  0
   25.4337  -27.9591  -18.7996 N   0  0  0  0  0  0  0  0  0  0  0  0
   24.1960  -26.3565  -20.1843 C   0  0  0  0  0  0  0  0  0  0  0  0
   24.4333  -25.5214  -21.2651 O   0  0  0  0  0  0  0  0  0  0  0  0
   23.4141  -25.9507  -19.2959 O   0  0  0  0  0  0  0  0  0  0  0  0
  2  1  1  0
  3  2  2  0
  4  3  1  0
  5 11  1  0
  5  4  2  0
  6  5  1  0
  7  8  1  6
  7  6  1  0
  9  7  1  0
 10  9  2  0
 11 12  2  0
 12  2  1  0
 13  9  1  0
 14 13  1  0
 14 15  1  6
 16 24  1  0
 16 15  1  0
 17 16  2  0
 18 17  1  0
 18 19  1  0
 19 24  2  0
 20 19  1  0
 20 21  2  0
 21 22  1  0
 22 23  2  0
 24 23  1  0
 25 14  1  0
 26 25  2  0
 28 27  1  1
 28 29  1  0
 29 25  1  0
 30 28  1  0
 30 31  1  0
 32 30  2  0
M  END
$$$$
