YWA.pdb
     RDKit          3D

 32 34  0  0  1  0  0  0  0  0999 V2000
   30.5654  -17.1157  -18.7145 O   0  0  0  0  0  0  0  0  0  0  0  0
   29.7065  -17.6367  -17.7528 C   0  0  0  0  0  0  0  0  0  0  0  0
   30.1511  -17.6495  -16.4440 C   0  0  0  0  0  0  0  0  0  0  0  0
   29.3103  -18.1675  -15.4517 C   0  0  0  0  0  0  0  0  0  0  0  0
   28.0625  -18.6546  -15.7790 C   0  0  0  0  0  0  0  0  0  0  0  0
   27.2165  -19.1913  -14.6921 C   0  0  0  0  0  0  0  0  0  0  0  0
   27.7900  -20.5330  -14.2927 C   0  0  2  0  0  0  0  0  0  0  0  0
   27.6125  -21.5334  -15.3033 N   0  0  0  0  0  0  0  0  0  0  0  0
   27.0346  -20.9623  -13.0610 C   0  0  0  0  0  0  0  0  0  0  0  0
   25.9777  -21.6359  -13.1440 O   0  0  0  0  0  0  0  0  0  0  0  0
   27.6109  -18.6471  -17.0727 C   0  0  0  0  0  0  0  0  0  0  0  0
   28.4541  -18.1297  -18.0555 C   0  0  0  0  0  0  0  0  0  0  0  0
   27.4991  -20.6160  -11.7749 N   0  0  0  0  0  0  0  0  0  0  0  0
   26.7052  -21.0265  -10.6121 C   0  0  1  0  0  0  0  0  0  0  0  0
   27.5366  -20.6248   -9.4264 C   0  0  0  0  0  0  0  0  0  0  0  0
   26.8535  -20.6741   -8.1318 C   0  0  0  0  0  0  0  0  0  0  0  0
   25.5596  -21.0645   -7.8918 C   0  0  0  0  0  0  0  0  0  0  0  0
   25.3214  -20.9454   -6.5717 N   0  0  0  0  0  0  0  0  0  0  0  0
   26.4061  -20.4914   -5.9267 C   0  0  0  0  0  0  0  0  0  0  0  0
   26.6896  -20.2018   -4.6151 C   0  0  0  0  0  0  0  0  0  0  0  0
   27.9361  -19.7319   -4.2181 C   0  0  0  0  0  0  0  0  0  0  0  0
   28.9176  -19.5547   -5.1952 C   0  0  0  0  0  0  0  0  0  0  0  0
   28.5983  -19.8557   -6.5045 C   0  0  0  0  0  0  0  0  0  0  0  0
   27.3664  -20.3209   -6.9019 C   0  0  0  0  0  0  0  0  0  0  0  0
   25.4029  -20.3502  -10.7175 C   0  0  0  0  0  0  0  0  0  0  0  0
   25.3232  -19.0966  -10.6554 O   0  0  0  0  0  0  0  0  0  0  0  0
   22.3684  -20.3611  -12.4067 C   0  0  0  0  0  0  0  0  0  0  0  0
   22.9123  -20.3169  -10.9844 C   0  0  2  0  0  0  0  0  0  0  0  0
   24.1746  -21.0365  -10.8952 N   0  0  0  0  0  0  0  0  0  0  0  0
   21.9014  -20.7810  -10.0097 C   0  0  0  0  0  0  0  0  0  0  0  0
   20.7825  -20.0069   -9.7434 O   0  0  0  0  0  0  0  0  0  0  0  0
   22.0153  -21.8679   -9.4007 O   0  0  0  0  0  0  0  0  0  0  0  0
  2  1  1  0
  3  2  2  0
  4  3  1  0
  5 11  1  0
  5  4  2  0
  6  5  1  0
  7  8  1  6
  7  6  1  0
  9  7  1  0
 10  9  2  0
 11 12  2  0
 12  2  1  0
 13  9  1  0
 14 13  1  0
 14 15  1  1
 16 24  1  0
 16 15  1  0
 17 16  2  0
 18 17  1  0
 18 19  1  0
 19 24  2  0
 20 19  1  0
 20 21  2  0
 21 22  1  0
 22 23  2  0
 24 23  1  0
 25 14  1  0
 26 25  2  0
 28 27  1  6
 28 29  1  0
 29 25  1  0
 30 28  1  0
 30 31  1  0
 32 30  2  0
M  END
$$$$
