YWA.pdb
     RDKit          3D

 32 34  0  0  1  0  0  0  0  0999 V2000
   28.9845  -20.0005   -3.2129 O   0  0  0  0  0  0  0  0  0  0  0  0
   28.3823  -19.7979   -4.4500 C   0  0  0  0  0  0  0  0  0  0  0  0
   28.9657  -18.8741   -5.2969 C   0  0  0  0  0  0  0  0  0  0  0  0
   28.3838  -18.6468   -6.5498 C   0  0  0  0  0  0  0  0  0  0  0  0
   27.2498  -19.3344   -6.9274 C   0  0  0  0  0  0  0  0  0  0  0  0
   26.6763  -19.0543   -8.2607 C   0  0  0  0  0  0  0  0  0  0  0  0
   26.5539  -20.3755   -8.9874 C   0  0  2  0  0  0  0  0  0  0  0  0
   27.8139  -21.0401   -9.1427 N   0  0  0  0  0  0  0  0  0  0  0  0
   26.0147  -20.0524  -10.3573 C   0  0  0  0  0  0  0  0  0  0  0  0
   26.5480  -19.1735  -11.0791 O   0  0  0  0  0  0  0  0  0  0  0  0
   26.6626  -20.2524   -6.0966 C   0  0  0  0  0  0  0  0  0  0  0  0
   27.2479  -20.4733   -4.8503 C   0  0  0  0  0  0  0  0  0  0  0  0
   24.8899  -20.7340  -10.8672 N   0  0  0  0  0  0  0  0  0  0  0  0
   24.4272  -20.4038  -12.2191 C   0  0  1  0  0  0  0  0  0  0  0  0
   24.9797  -21.5002  -13.0857 C   0  0  0  0  0  0  0  0  0  0  0  0
   26.3530  -21.3016  -13.5544 C   0  0  0  0  0  0  0  0  0  0  0  0
   27.4723  -21.9890  -13.1557 C   0  0  0  0  0  0  0  0  0  0  0  0
   28.5332  -21.4851  -13.8145 N   0  0  0  0  0  0  0  0  0  0  0  0
   28.1619  -20.4909  -14.6344 C   0  0  0  0  0  0  0  0  0  0  0  0
   28.8307  -19.6664  -15.5047 C   0  0  0  0  0  0  0  0  0  0  0  0
   28.1733  -18.6940  -16.2495 C   0  0  0  0  0  0  0  0  0  0  0  0
   26.7915  -18.5655  -16.0956 C   0  0  0  0  0  0  0  0  0  0  0  0
   26.1508  -19.4111  -15.2117 C   0  0  0  0  0  0  0  0  0  0  0  0
   26.7971  -20.3745  -14.4728 C   0  0  0  0  0  0  0  0  0  0  0  0
   22.9586  -20.3310  -12.1673 C   0  0  0  0  0  0  0  0  0  0  0  0
   22.3072  -21.0557  -11.3723 O   0  0  0  0  0  0  0  0  0  0  0  0
   20.1584  -18.3338  -13.7642 C   0  0  0  0  0  0  0  0  0  0  0  0
   20.7322  -19.4698  -12.9269 C   0  0  2  0  0  0  0  0  0  0  0  0
   22.1869  -19.4634  -12.9816 N   0  0  0  0  0  0  0  0  0  0  0  0
   20.1358  -20.7689  -13.3062 C   0  0  0  0  0  0  0  0  0  0  0  0
   18.9739  -21.2090  -12.6911 O   0  0  0  0  0  0  0  0  0  0  0  0
   20.6469  -21.5053  -14.1790 O   0  0  0  0  0  0  0  0  0  0  0  0
  2  1  1  0
  3  2  2  0
  4  3  1  0
  5 11  1  0
  5  4  2  0
  6  5  1  0
  7  8  1  6
  7  6  1  0
  9  7  1  0
 10  9  2  0
 11 12  2  0
 12  2  1  0
 13  9  1  0
 14 13  1  0
 14 15  1  6
 16 24  1  0
 16 15  1  0
 17 16  2  0
 18 17  1  0
 18 19  1  0
 19 24  2  0
 20 19  1  0
 20 21  2  0
 21 22  1  0
 22 23  2  0
 24 23  1  0
 25 14  1  0
 26 25  2  0
 28 27  1  6
 28 29  1  0
 29 25  1  0
 30 28  1  0
 30 31  1  0
 32 30  2  0
M  END
$$$$
