YWA.pdb
     RDKit          3D

 32 34  0  0  1  0  0  0  0  0999 V2000
   22.1506  -14.0451  -21.9823 O   0  0  0  0  0  0  0  0  0  0  0  0
   21.5091  -13.2096  -21.0743 C   0  0  0  0  0  0  0  0  0  0  0  0
   20.2290  -12.7931  -21.3887 C   0  0  0  0  0  0  0  0  0  0  0  0
   19.5557  -11.9514  -20.4953 C   0  0  0  0  0  0  0  0  0  0  0  0
   20.1625  -11.5481  -19.3246 C   0  0  0  0  0  0  0  0  0  0  0  0
   19.4066  -10.6581  -18.4183 C   0  0  0  0  0  0  0  0  0  0  0  0
   19.1726  -11.4165  -17.1304 C   0  0  2  0  0  0  0  0  0  0  0  0
   18.1580  -12.4206  -17.2565 N   0  0  0  0  0  0  0  0  0  0  0  0
   18.7098  -10.3970  -16.1213 C   0  0  0  0  0  0  0  0  0  0  0  0
   17.4887  -10.1662  -15.9381 O   0  0  0  0  0  0  0  0  0  0  0  0
   21.4308  -11.9544  -19.0022 C   0  0  0  0  0  0  0  0  0  0  0  0
   22.0951  -12.7926  -19.8970 C   0  0  0  0  0  0  0  0  0  0  0  0
   19.6429   -9.6714  -15.3516 N   0  0  0  0  0  0  0  0  0  0  0  0
   19.1375   -8.7249  -14.3519 C   0  0  1  0  0  0  0  0  0  0  0  0
   20.0854   -8.8572  -13.1933 C   0  0  0  0  0  0  0  0  0  0  0  0
   19.8410   -7.9475  -12.0718 C   0  0  0  0  0  0  0  0  0  0  0  0
   18.9962   -8.1505  -11.0091 C   0  0  0  0  0  0  0  0  0  0  0  0
   19.0514   -7.0652  -10.2137 N   0  0  0  0  0  0  0  0  0  0  0  0
   19.8993   -6.1506  -10.7068 C   0  0  0  0  0  0  0  0  0  0  0  0
   20.3098   -4.9059  -10.2981 C   0  0  0  0  0  0  0  0  0  0  0  0
   21.2275   -4.1579  -11.0265 C   0  0  0  0  0  0  0  0  0  0  0  0
   21.7371   -4.7035  -12.2064 C   0  0  0  0  0  0  0  0  0  0  0  0
   21.3024   -5.9576  -12.5876 C   0  0  0  0  0  0  0  0  0  0  0  0
   20.3947   -6.7013  -11.8702 C   0  0  0  0  0  0  0  0  0  0  0  0
   19.1118   -7.3981  -14.9873 C   0  0  0  0  0  0  0  0  0  0  0  0
   20.0907   -6.9908  -15.6637 O   0  0  0  0  0  0  0  0  0  0  0  0
   16.6924   -4.9751  -16.2771 C   0  0  0  0  0  0  0  0  0  0  0  0
   18.0243   -5.2205  -15.5794 C   0  0  2  0  0  0  0  0  0  0  0  0
   18.0150   -6.5041  -14.8927 N   0  0  0  0  0  0  0  0  0  0  0  0
   18.3856   -4.0868  -14.7010 C   0  0  0  0  0  0  0  0  0  0  0  0
   18.7702   -2.8737  -15.2507 O   0  0  0  0  0  0  0  0  0  0  0  0
   18.3585   -4.1779  -13.4535 O   0  0  0  0  0  0  0  0  0  0  0  0
  2  1  1  0
  3  2  2  0
  4  3  1  0
  5 11  1  0
  5  4  2  0
  6  5  1  0
  7  8  1  6
  7  6  1  0
  9  7  1  0
 10  9  2  0
 11 12  2  0
 12  2  1  0
 13  9  1  0
 14 13  1  0
 14 15  1  1
 16 24  1  0
 16 15  1  0
 17 16  2  0
 18 17  1  0
 18 19  1  0
 19 24  2  0
 20 19  1  0
 20 21  2  0
 21 22  1  0
 22 23  2  0
 24 23  1  0
 25 14  1  0
 26 25  2  0
 28 27  1  1
 28 29  1  0
 29 25  1  0
 30 28  1  0
 30 31  1  0
 32 30  2  0
M  END
$$$$
