YWA.pdb
     RDKit          3D

 32 34  0  0  1  0  0  0  0  0999 V2000
   21.9343  -11.4523  -23.1215 O   0  0  0  0  0  0  0  0  0  0  0  0
   21.2322  -10.9989  -22.0100 C   0  0  0  0  0  0  0  0  0  0  0  0
   21.9441  -10.3084  -21.0471 C   0  0  0  0  0  0  0  0  0  0  0  0
   21.2666   -9.8384  -19.9157 C   0  0  0  0  0  0  0  0  0  0  0  0
   19.9139  -10.0627  -19.7692 C   0  0  0  0  0  0  0  0  0  0  0  0
   19.2491   -9.5458  -18.5545 C   0  0  0  0  0  0  0  0  0  0  0  0
   19.6471  -10.4437  -17.4038 C   0  0  2  0  0  0  0  0  0  0  0  0
   19.0633  -11.7493  -17.4935 N   0  0  0  0  0  0  0  0  0  0  0  0
   19.1317   -9.7773  -16.1539 C   0  0  0  0  0  0  0  0  0  0  0  0
   17.9870  -10.0303  -15.7028 O   0  0  0  0  0  0  0  0  0  0  0  0
   19.1977  -10.7458  -20.7169 C   0  0  0  0  0  0  0  0  0  0  0  0
   19.8795  -11.2109  -21.8410 C   0  0  0  0  0  0  0  0  0  0  0  0
   19.9276   -8.8463  -15.4542 N   0  0  0  0  0  0  0  0  0  0  0  0
   19.3539   -8.1807  -14.2801 C   0  0  1  0  0  0  0  0  0  0  0  0
   20.4780   -8.1374  -13.2837 C   0  0  0  0  0  0  0  0  0  0  0  0
   20.1883   -7.4256  -12.0369 C   0  0  0  0  0  0  0  0  0  0  0  0
   19.6580   -7.9527  -10.8857 C   0  0  0  0  0  0  0  0  0  0  0  0
   19.5348   -6.9591   -9.9850 N   0  0  0  0  0  0  0  0  0  0  0  0
   19.9624   -5.7940  -10.4934 C   0  0  0  0  0  0  0  0  0  0  0  0
   20.0514   -4.5125  -10.0091 C   0  0  0  0  0  0  0  0  0  0  0  0
   20.5498   -3.4679  -10.7790 C   0  0  0  0  0  0  0  0  0  0  0  0
   20.9679   -3.7477  -12.0814 C   0  0  0  0  0  0  0  0  0  0  0  0
   20.8643   -5.0475  -12.5361 C   0  0  0  0  0  0  0  0  0  0  0  0
   20.3719   -6.0841  -11.7780 C   0  0  0  0  0  0  0  0  0  0  0  0
   18.8648   -6.8663  -14.7246 C   0  0  0  0  0  0  0  0  0  0  0  0
   19.5240   -6.1800  -15.5469 O   0  0  0  0  0  0  0  0  0  0  0  0
   15.8612   -4.8180  -15.0798 C   0  0  0  0  0  0  0  0  0  0  0  0
   17.3029   -4.9118  -14.5965 C   0  0  2  0  0  0  0  0  0  0  0  0
   17.6486   -6.2895  -14.2778 N   0  0  0  0  0  0  0  0  0  0  0  0
   17.5576   -3.9700  -13.4849 C   0  0  0  0  0  0  0  0  0  0  0  0
   17.8407   -2.6390  -13.7496 O   0  0  0  0  0  0  0  0  0  0  0  0
   17.5278   -4.3316  -12.2876 O   0  0  0  0  0  0  0  0  0  0  0  0
  2  1  1  0
  3  2  2  0
  4  3  1  0
  5 11  1  0
  5  4  2  0
  6  5  1  0
  7  8  1  6
  7  6  1  0
  9  7  1  0
 10  9  2  0
 11 12  2  0
 12  2  1  0
 13  9  1  0
 14 13  1  0
 14 15  1  1
 16 24  1  0
 16 15  1  0
 17 16  2  0
 18 17  1  0
 18 19  1  0
 19 24  2  0
 20 19  1  0
 20 21  2  0
 21 22  1  0
 22 23  2  0
 24 23  1  0
 25 14  1  0
 26 25  2  0
 28 27  1  1
 28 29  1  0
 29 25  1  0
 30 28  1  0
 30 31  1  0
 32 30  2  0
M  END
$$$$
