YWA.pdb
     RDKit          3D

 32 34  0  0  1  0  0  0  0  0999 V2000
   26.8239  -20.3466  -22.3524 O   0  0  0  0  0  0  0  0  0  0  0  0
   26.6227  -20.9638  -21.1225 C   0  0  0  0  0  0  0  0  0  0  0  0
   25.8413  -20.2971  -20.1974 C   0  0  0  0  0  0  0  0  0  0  0  0
   25.6194  -20.8916  -18.9494 C   0  0  0  0  0  0  0  0  0  0  0  0
   26.1723  -22.1197  -18.6535 C   0  0  0  0  0  0  0  0  0  0  0  0
   25.9071  -22.7006  -17.3204 C   0  0  0  0  0  0  0  0  0  0  0  0
   26.9535  -22.1563  -16.3731 C   0  0  2  0  0  0  0  0  0  0  0  0
   28.1337  -22.9678  -16.3273 N   0  0  0  0  0  0  0  0  0  0  0  0
   26.3220  -22.1579  -15.0045 C   0  0  0  0  0  0  0  0  0  0  0  0
   26.4165  -23.1518  -14.2422 O   0  0  0  0  0  0  0  0  0  0  0  0
   26.9485  -22.7899  -19.5623 C   0  0  0  0  0  0  0  0  0  0  0  0
   27.1651  -22.1914  -20.8031 C   0  0  0  0  0  0  0  0  0  0  0  0
   25.6040  -21.0353  -14.5419 N   0  0  0  0  0  0  0  0  0  0  0  0
   25.0770  -21.0591  -13.1735 C   0  0  1  0  0  0  0  0  0  0  0  0
   25.8325  -19.9742  -12.4589 C   0  0  0  0  0  0  0  0  0  0  0  0
   26.9808  -20.4219  -11.6677 C   0  0  0  0  0  0  0  0  0  0  0  0
   28.2146  -20.7984  -12.1372 C   0  0  0  0  0  0  0  0  0  0  0  0
   28.9747  -21.1562  -11.0848 N   0  0  0  0  0  0  0  0  0  0  0  0
   28.2940  -21.0319   -9.9359 C   0  0  0  0  0  0  0  0  0  0  0  0
   28.5938  -21.2577   -8.6154 C   0  0  0  0  0  0  0  0  0  0  0  0
   27.6678  -21.0369   -7.6024 C   0  0  0  0  0  0  0  0  0  0  0  0
   26.3998  -20.5715   -7.9560 C   0  0  0  0  0  0  0  0  0  0  0  0
   26.1324  -20.3551   -9.2934 C   0  0  0  0  0  0  0  0  0  0  0  0
   27.0454  -20.5723  -10.2989 C   0  0  0  0  0  0  0  0  0  0  0  0
   23.6239  -20.8487  -13.2665 C   0  0  0  0  0  0  0  0  0  0  0  0
   23.1550  -19.8886  -13.9299 O   0  0  0  0  0  0  0  0  0  0  0  0
   20.4232  -22.5870  -12.2455 C   0  0  0  0  0  0  0  0  0  0  0  0
   21.2450  -21.3849  -12.6930 C   0  0  2  0  0  0  0  0  0  0  0  0
   22.6679  -21.6869  -12.6381 N   0  0  0  0  0  0  0  0  0  0  0  0
   20.8726  -20.1699  -11.9363 C   0  0  0  0  0  0  0  0  0  0  0  0
   19.6631  -19.5386  -12.1821 O   0  0  0  0  0  0  0  0  0  0  0  0
   21.6201  -19.6757  -11.0633 O   0  0  0  0  0  0  0  0  0  0  0  0
  2  1  1  0
  3  2  2  0
  4  3  1  0
  5 11  1  0
  5  4  2  0
  6  5  1  0
  7  8  1  1
  7  6  1  0
  9  7  1  0
 10  9  2  0
 11 12  2  0
 12  2  1  0
 13  9  1  0
 14 13  1  0
 14 15  1  1
 16 24  1  0
 16 15  1  0
 17 16  2  0
 18 17  1  0
 18 19  1  0
 19 24  2  0
 20 19  1  0
 20 21  2  0
 21 22  1  0
 22 23  2  0
 24 23  1  0
 25 14  1  0
 26 25  2  0
 28 27  1  1
 28 29  1  0
 29 25  1  0
 30 28  1  0
 30 31  1  0
 32 30  2  0
M  END
$$$$
