YWA.pdb
     RDKit          3D

 32 34  0  0  1  0  0  0  0  0999 V2000
   24.3092   -4.5804  -23.9989 O   0  0  0  0  0  0  0  0  0  0  0  0
   23.4551   -5.0605  -23.0119 C   0  0  0  0  0  0  0  0  0  0  0  0
   23.6645   -4.6166  -21.7196 C   0  0  0  0  0  0  0  0  0  0  0  0
   22.8217   -5.0810  -20.7027 C   0  0  0  0  0  0  0  0  0  0  0  0
   21.8030   -5.9648  -20.9901 C   0  0  0  0  0  0  0  0  0  0  0  0
   20.9442   -6.4240  -19.8782 C   0  0  0  0  0  0  0  0  0  0  0  0
   21.5580   -7.6917  -19.3259 C   0  0  2  0  0  0  0  0  0  0  0  0
   21.3475   -8.8247  -20.1777 N   0  0  0  0  0  0  0  0  0  0  0  0
   20.8706   -7.9519  -18.0100 C   0  0  0  0  0  0  0  0  0  0  0  0
   19.8831   -8.7240  -17.9298 O   0  0  0  0  0  0  0  0  0  0  0  0
   21.5858   -6.4117  -22.2671 C   0  0  0  0  0  0  0  0  0  0  0  0
   22.4293   -5.9448  -23.2746 C   0  0  0  0  0  0  0  0  0  0  0  0
   21.3224   -7.3308  -16.8269 N   0  0  0  0  0  0  0  0  0  0  0  0
   20.5762   -7.5656  -15.5864 C   0  0  1  0  0  0  0  0  0  0  0  0
   21.6240   -7.5631  -14.5092 C   0  0  0  0  0  0  0  0  0  0  0  0
   21.1166   -7.6108  -13.1361 C   0  0  0  0  0  0  0  0  0  0  0  0
   20.5738   -8.6937  -12.4903 C   0  0  0  0  0  0  0  0  0  0  0  0
   20.2175   -8.3094  -11.2497 N   0  0  0  0  0  0  0  0  0  0  0  0
   20.5025   -7.0146  -11.0473 C   0  0  0  0  0  0  0  0  0  0  0  0
   20.3474   -6.1535   -9.9894 C   0  0  0  0  0  0  0  0  0  0  0  0
   20.7442   -4.8231  -10.0593 C   0  0  0  0  0  0  0  0  0  0  0  0
   21.3158   -4.3654  -11.2481 C   0  0  0  0  0  0  0  0  0  0  0  0
   21.4566   -5.2584  -12.2919 C   0  0  0  0  0  0  0  0  0  0  0  0
   21.0655   -6.5755  -12.2273 C   0  0  0  0  0  0  0  0  0  0  0  0
   19.5699   -6.4978  -15.4789 C   0  0  0  0  0  0  0  0  0  0  0  0
   19.8662   -5.3061  -15.7507 O   0  0  0  0  0  0  0  0  0  0  0  0
   15.8971   -6.0917  -15.4899 C   0  0  0  0  0  0  0  0  0  0  0  0
   17.2671   -5.6304  -15.0092 C   0  0  2  0  0  0  0  0  0  0  0  0
   18.2285   -6.7215  -15.0763 N   0  0  0  0  0  0  0  0  0  0  0  0
   17.1825   -5.0033  -13.6725 C   0  0  0  0  0  0  0  0  0  0  0  0
   16.9326   -3.6448  -13.5541 O   0  0  0  0  0  0  0  0  0  0  0  0
   17.3304   -5.6617  -12.6190 O   0  0  0  0  0  0  0  0  0  0  0  0
  2  1  1  0
  3  2  2  0
  4  3  1  0
  5 11  1  0
  5  4  2  0
  6  5  1  0
  7  8  1  6
  7  6  1  0
  9  7  1  0
 10  9  2  0
 11 12  2  0
 12  2  1  0
 13  9  1  0
 14 13  1  0
 14 15  1  1
 16 24  1  0
 16 15  1  0
 17 16  2  0
 18 17  1  0
 18 19  1  0
 19 24  2  0
 20 19  1  0
 20 21  2  0
 21 22  1  0
 22 23  2  0
 24 23  1  0
 25 14  1  0
 26 25  2  0
 28 27  1  1
 28 29  1  0
 29 25  1  0
 30 28  1  0
 30 31  1  0
 32 30  2  0
M  END
$$$$
