YWA.pdb
     RDKit          3D

 32 34  0  0  1  0  0  0  0  0999 V2000
   21.6661  -17.8277  -19.7193 O   0  0  0  0  0  0  0  0  0  0  0  0
   22.1364  -18.5980  -18.6612 C   0  0  0  0  0  0  0  0  0  0  0  0
   22.4991  -17.9342  -17.5042 C   0  0  0  0  0  0  0  0  0  0  0  0
   22.9765  -18.6809  -16.4204 C   0  0  0  0  0  0  0  0  0  0  0  0
   23.0810  -20.0529  -16.5104 C   0  0  0  0  0  0  0  0  0  0  0  0
   23.5926  -20.7915  -15.3367 C   0  0  0  0  0  0  0  0  0  0  0  0
   25.0939  -20.6079  -15.3055 C   0  0  2  0  0  0  0  0  0  0  0  0
   25.7627  -21.3442  -16.3371 N   0  0  0  0  0  0  0  0  0  0  0  0
   25.5535  -21.1354  -13.9705 C   0  0  0  0  0  0  0  0  0  0  0  0
   25.6871  -22.3674  -13.7653 O   0  0  0  0  0  0  0  0  0  0  0  0
   22.7245  -20.7218  -17.6520 C   0  0  0  0  0  0  0  0  0  0  0  0
   22.2500  -19.9713  -18.7272 C   0  0  0  0  0  0  0  0  0  0  0  0
   25.8475  -20.2526  -12.9103 N   0  0  0  0  0  0  0  0  0  0  0  0
   26.2614  -20.8207  -11.6232 C   0  0  1  0  0  0  0  0  0  0  0  0
   27.4483  -19.9963  -11.2108 C   0  0  0  0  0  0  0  0  0  0  0  0
   28.2039  -20.5081  -10.0653 C   0  0  0  0  0  0  0  0  0  0  0  0
   29.0532  -21.5864  -10.0476 C   0  0  0  0  0  0  0  0  0  0  0  0
   29.5281  -21.7283   -8.7955 N   0  0  0  0  0  0  0  0  0  0  0  0
   29.0274  -20.7868   -7.9820 C   0  0  0  0  0  0  0  0  0  0  0  0
   29.1822  -20.4900   -6.6506 C   0  0  0  0  0  0  0  0  0  0  0  0
   28.5211  -19.4233   -6.0529 C   0  0  0  0  0  0  0  0  0  0  0  0
   27.6784  -18.6406   -6.8445 C   0  0  0  0  0  0  0  0  0  0  0  0
   27.5460  -18.9675   -8.1796 C   0  0  0  0  0  0  0  0  0  0  0  0
   28.1981  -20.0219   -8.7753 C   0  0  0  0  0  0  0  0  0  0  0  0
   25.1019  -20.7378  -10.7215 C   0  0  0  0  0  0  0  0  0  0  0  0
   24.3638  -19.7195  -10.7160 O   0  0  0  0  0  0  0  0  0  0  0  0
   23.9548  -20.4678   -7.8941 C   0  0  0  0  0  0  0  0  0  0  0  0
   23.6418  -21.5918   -8.8736 C   0  0  2  0  0  0  0  0  0  0  0  0
   24.7349  -21.7682   -9.8186 N   0  0  0  0  0  0  0  0  0  0  0  0
   22.3300  -21.3850   -9.5247 C   0  0  0  0  0  0  0  0  0  0  0  0
   22.1453  -21.7443  -10.8508 O   0  0  0  0  0  0  0  0  0  0  0  0
   21.3568  -20.8880   -8.9155 O   0  0  0  0  0  0  0  0  0  0  0  0
  2  1  1  0
  3  2  2  0
  4  3  1  0
  5 11  1  0
  5  4  2  0
  6  5  1  0
  7  8  1  6
  7  6  1  0
  9  7  1  0
 10  9  2  0
 11 12  2  0
 12  2  1  0
 13  9  1  0
 14 13  1  0
 14 15  1  1
 16 24  1  0
 16 15  1  0
 17 16  2  0
 18 17  1  0
 18 19  1  0
 19 24  2  0
 20 19  1  0
 20 21  2  0
 21 22  1  0
 22 23  2  0
 24 23  1  0
 25 14  1  0
 26 25  2  0
 28 27  1  6
 28 29  1  0
 29 25  1  0
 30 28  1  0
 30 31  1  0
 32 30  2  0
M  END
$$$$
