LAH.pdb
     RDKit          3D

 24 24  0  0  1  0  0  0  0  0999 V2000
   18.4264  -13.3704    3.1760 C   0  0  0  0  0  0  0  0  0  0  0  0
   18.4507  -12.8133    4.5761 C   0  0  2  0  0  0  0  0  0  0  0  0
   19.6663  -11.9499    4.8222 C   0  0  0  0  0  0  0  0  0  0  0  0
   18.3976  -13.9916    5.5283 C   0  0  0  0  0  0  0  0  0  0  0  0
   17.0565  -14.6574    5.3190 C   0  0  2  0  0  0  0  0  0  0  0  0
   16.0462  -13.7455    5.8139 N   0  0  0  0  0  0  0  0  0  0  0  0
   16.9361  -15.9249    6.0754 C   0  0  0  0  0  0  0  0  0  0  0  0
   16.7819  -15.8726    7.3244 O   0  0  0  0  0  0  0  0  0  0  0  0
   16.6705  -19.6378    5.3472 C   0  0  0  0  0  0  0  0  0  0  0  0
   16.9347  -18.4398    6.2697 C   0  0  2  0  0  0  0  0  0  0  0  0
   16.9827  -17.2113    5.4842 N   0  0  0  0  0  0  0  0  0  0  0  0
   18.2692  -18.6615    6.8614 C   0  0  0  0  0  0  0  0  0  0  0  0
   19.2690  -18.0870    6.3762 O   0  0  0  0  0  0  0  0  0  0  0  0
   18.5061  -19.5192    7.9924 N   0  0  0  0  0  0  0  0  0  0  0  0
   19.5825  -19.2382    8.9216 C   0  0  1  0  0  0  0  0  0  0  0  0
   19.6789  -17.8291    9.3695 C   0  0  0  0  0  0  0  0  0  0  0  0
   20.9751  -17.1654    9.1339 C   0  0  0  0  0  0  0  0  0  0  0  0
   22.1351  -17.6041    8.5578 C   0  0  0  0  0  0  0  0  0  0  0  0
   22.9961  -16.5492    8.5839 N   0  0  0  0  0  0  0  0  0  0  0  0
   22.4060  -15.4940    9.1498 C   0  0  0  0  0  0  0  0  0  0  0  0
   21.1791  -15.8562    9.4874 N   0  0  0  0  0  0  0  0  0  0  0  0
   19.5379  -20.1710   10.0848 C   0  0  0  0  0  0  0  0  0  0  0  0
   18.5060  -21.0704   10.2678 O   0  0  0  0  0  0  0  0  0  0  0  0
   20.4812  -20.1146   10.9064 O   0  0  0  0  0  0  0  0  0  0  0  0
  2  1  1  6
  3  2  1  0
  4  5  1  0
  4  2  1  0
  5  6  1  1
  5  7  1  0
  7  8  2  0
 10  9  1  6
 10 12  1  0
 11  7  1  0
 11 10  1  0
 12 14  1  0
 13 12  2  0
 14 15  1  0
 15 22  1  0
 15 16  1  1
 17 16  1  0
 18 17  2  0
 19 18  1  0
 20 19  1  0
 20 21  2  0
 21 17  1  0
 22 23  1  0
 24 22  2  0
M  END
$$$$
