LAH.pdb
     RDKit          3D

 24 24  0  0  1  0  0  0  0  0999 V2000
   10.8683  -11.8150  -12.2177 C   0  0  0  0  0  0  0  0  0  0  0  0
   11.7285  -12.5162  -11.1980 C   0  0  2  0  0  0  0  0  0  0  0  0
   11.4640  -12.0202   -9.7952 C   0  0  0  0  0  0  0  0  0  0  0  0
   13.1726  -12.3014  -11.6059 C   0  0  0  0  0  0  0  0  0  0  0  0
   13.3179  -12.8694  -12.9994 C   0  0  2  0  0  0  0  0  0  0  0  0
   13.4068  -14.3087  -12.8658 N   0  0  0  0  0  0  0  0  0  0  0  0
   14.5504  -12.3973  -13.6712 C   0  0  0  0  0  0  0  0  0  0  0  0
   15.6600  -12.8615  -13.2971 O   0  0  0  0  0  0  0  0  0  0  0  0
   15.4732  -10.3821  -16.7345 C   0  0  0  0  0  0  0  0  0  0  0  0
   15.8015  -11.0302  -15.3824 C   0  0  2  0  0  0  0  0  0  0  0  0
   14.5696  -11.4461  -14.7206 N   0  0  0  0  0  0  0  0  0  0  0  0
   16.4326   -9.9766  -14.5627 C   0  0  0  0  0  0  0  0  0  0  0  0
   15.7346   -9.2941  -13.7804 O   0  0  0  0  0  0  0  0  0  0  0  0
   17.8384   -9.6715  -14.6031 N   0  0  0  0  0  0  0  0  0  0  0  0
   18.3725   -8.5443  -13.8649 C   0  0  1  0  0  0  0  0  0  0  0  0
   19.8058   -8.6474  -13.5038 C   0  0  0  0  0  0  0  0  0  0  0  0
   20.7495   -8.7449  -14.6335 C   0  0  0  0  0  0  0  0  0  0  0  0
   20.5597   -8.7215  -15.9874 C   0  0  0  0  0  0  0  0  0  0  0  0
   21.7973   -8.8207  -16.5474 N   0  0  0  0  0  0  0  0  0  0  0  0
   22.7244   -8.9023  -15.5906 C   0  0  0  0  0  0  0  0  0  0  0  0
   22.1002   -8.8571  -14.4249 N   0  0  0  0  0  0  0  0  0  0  0  0
   18.0862   -7.2621  -14.5716 C   0  0  0  0  0  0  0  0  0  0  0  0
   18.1876   -6.0367  -13.9429 O   0  0  0  0  0  0  0  0  0  0  0  0
   17.7451   -7.3298  -15.7745 O   0  0  0  0  0  0  0  0  0  0  0  0
  2  1  1  6
  3  2  1  0
  4  5  1  0
  4  2  1  0
  5  6  1  1
  5  7  1  0
  7  8  2  0
 10  9  1  6
 10 12  1  0
 11  7  1  0
 11 10  1  0
 12 14  1  0
 13 12  2  0
 14 15  1  0
 15 22  1  0
 15 16  1  6
 17 16  1  0
 18 17  2  0
 19 18  1  0
 20 19  1  0
 20 21  2  0
 21 17  1  0
 22 23  1  0
 24 22  2  0
M  END
$$$$
