LAH.pdb
     RDKit          3D

 24 24  0  0  1  0  0  0  0  0999 V2000
   18.8636  -12.5562    4.1329 C   0  0  0  0  0  0  0  0  0  0  0  0
   19.0662  -12.2700    5.5986 C   0  0  2  0  0  0  0  0  0  0  0  0
   20.4023  -11.6180    5.8700 C   0  0  0  0  0  0  0  0  0  0  0  0
   18.9244  -13.5867    6.3362 C   0  0  0  0  0  0  0  0  0  0  0  0
   17.5187  -14.0791    6.0770 C   0  0  2  0  0  0  0  0  0  0  0  0
   16.6173  -13.1721    6.7567 N   0  0  0  0  0  0  0  0  0  0  0  0
   17.2922  -15.4383    6.6196 C   0  0  0  0  0  0  0  0  0  0  0  0
   17.0857  -15.5706    7.8550 O   0  0  0  0  0  0  0  0  0  0  0  0
   16.7603  -18.9490    5.2989 C   0  0  0  0  0  0  0  0  0  0  0  0
   17.0945  -17.9441    6.4100 C   0  0  2  0  0  0  0  0  0  0  0  0
   17.2913  -16.6177    5.8352 N   0  0  0  0  0  0  0  0  0  0  0  0
   18.3754  -18.3879    6.9955 C   0  0  0  0  0  0  0  0  0  0  0  0
   19.4546  -17.9590    6.5304 O   0  0  0  0  0  0  0  0  0  0  0  0
   18.4705  -19.3079    8.0979 N   0  0  0  0  0  0  0  0  0  0  0  0
   19.4944  -19.1456    9.1110 C   0  0  1  0  0  0  0  0  0  0  0  0
   19.6647  -17.7652    9.6218 C   0  0  0  0  0  0  0  0  0  0  0  0
   20.9589  -17.1230    9.3237 C   0  0  0  0  0  0  0  0  0  0  0  0
   22.0468  -17.5464    8.6116 C   0  0  0  0  0  0  0  0  0  0  0  0
   22.9453  -16.5234    8.6442 N   0  0  0  0  0  0  0  0  0  0  0  0
   22.4466  -15.5020    9.3440 C   0  0  0  0  0  0  0  0  0  0  0  0
   21.2416  -15.8544    9.7612 N   0  0  0  0  0  0  0  0  0  0  0  0
   19.2942  -20.1125   10.2290 C   0  0  0  0  0  0  0  0  0  0  0  0
   18.1675  -20.9054   10.3235 O   0  0  0  0  0  0  0  0  0  0  0  0
   20.1945  -20.1866   11.0962 O   0  0  0  0  0  0  0  0  0  0  0  0
  2  1  1  6
  3  2  1  0
  4  5  1  0
  4  2  1  0
  5  6  1  1
  5  7  1  0
  7  8  2  0
 10  9  1  6
 10 12  1  0
 11  7  1  0
 11 10  1  0
 12 14  1  0
 13 12  2  0
 14 15  1  0
 15 22  1  0
 15 16  1  1
 17 16  1  0
 18 17  2  0
 19 18  1  0
 20 19  1  0
 20 21  2  0
 21 17  1  0
 22 23  1  0
 24 22  2  0
M  END
$$$$
