LAH.pdb
     RDKit          3D

 24 24  0  0  1  0  0  0  0  0999 V2000
   33.1489  -21.9746    6.8440 C   0  0  0  0  0  0  0  0  0  0  0  0
   33.6724  -22.0368    5.4321 C   0  0  2  0  0  0  0  0  0  0  0  0
   32.5921  -21.7556    4.4136 C   0  0  0  0  0  0  0  0  0  0  0  0
   34.2806  -23.4119    5.2397 C   0  0  0  0  0  0  0  0  0  0  0  0
   35.7583  -23.2761    5.5287 C   0  0  2  0  0  0  0  0  0  0  0  0
   36.2871  -22.3022    4.5964 N   0  0  0  0  0  0  0  0  0  0  0  0
   36.4888  -24.5478    5.3222 C   0  0  0  0  0  0  0  0  0  0  0  0
   36.5431  -25.0335    4.1614 O   0  0  0  0  0  0  0  0  0  0  0  0
   38.5055  -27.0096    7.4049 C   0  0  0  0  0  0  0  0  0  0  0  0
   37.7856  -26.5558    6.1274 C   0  0  2  0  0  0  0  0  0  0  0  0
   37.1406  -25.2669    6.3539 N   0  0  0  0  0  0  0  0  0  0  0  0
   36.7336  -27.5591    5.8685 C   0  0  0  0  0  0  0  0  0  0  0  0
   35.6494  -27.2062    5.3537 O   0  0  0  0  0  0  0  0  0  0  0  0
   36.8740  -28.9576    6.1770 N   0  0  0  0  0  0  0  0  0  0  0  0
   36.6355  -29.9665    5.1640 C   0  0  1  0  0  0  0  0  0  0  0  0
   37.3646  -29.7671    3.8896 C   0  0  0  0  0  0  0  0  0  0  0  0
   37.1764  -30.8154    2.8688 C   0  0  0  0  0  0  0  0  0  0  0  0
   36.3526  -31.9057    2.8197 C   0  0  0  0  0  0  0  0  0  0  0  0
   36.5846  -32.5047    1.6188 N   0  0  0  0  0  0  0  0  0  0  0  0
   37.5114  -31.8232    0.9419 C   0  0  0  0  0  0  0  0  0  0  0  0
   37.8778  -30.7958    1.6906 N   0  0  0  0  0  0  0  0  0  0  0  0
   36.8703  -31.3346    5.7103 C   0  0  0  0  0  0  0  0  0  0  0  0
   35.8440  -32.2403    5.8929 O   0  0  0  0  0  0  0  0  0  0  0  0
   38.0474  -31.6445    6.0040 O   0  0  0  0  0  0  0  0  0  0  0  0
  2  1  1  1
  3  2  1  0
  4  5  1  0
  4  2  1  0
  5  6  1  6
  5  7  1  0
  7  8  2  0
 10  9  1  1
 10 12  1  0
 11  7  1  0
 11 10  1  0
 12 14  1  0
 13 12  2  0
 14 15  1  0
 15 22  1  0
 15 16  1  6
 17 16  1  0
 18 17  2  0
 19 18  1  0
 20 19  1  0
 20 21  2  0
 21 17  1  0
 22 23  1  0
 24 22  2  0
M  END
$$$$
