LAH.pdb
     RDKit          3D

 24 24  0  0  1  0  0  0  0  0999 V2000
   20.1227  -12.7538  -20.4778 C   0  0  0  0  0  0  0  0  0  0  0  0
   19.9391  -13.6032  -19.2465 C   0  0  2  0  0  0  0  0  0  0  0  0
   18.6533  -14.3961  -19.2907 C   0  0  0  0  0  0  0  0  0  0  0  0
   19.9841  -12.6737  -18.0499 C   0  0  0  0  0  0  0  0  0  0  0  0
   21.3128  -11.9550  -18.1096 C   0  0  2  0  0  0  0  0  0  0  0  0
   22.3475  -12.9654  -18.0339 N   0  0  0  0  0  0  0  0  0  0  0  0
   21.4990  -11.0260  -16.9714 C   0  0  0  0  0  0  0  0  0  0  0  0
   20.6438  -10.1208  -16.7823 O   0  0  0  0  0  0  0  0  0  0  0  0
   23.9306  -10.5760  -14.0816 C   0  0  0  0  0  0  0  0  0  0  0  0
   22.7153  -10.1784  -14.9307 C   0  0  2  0  0  0  0  0  0  0  0  0
   22.5875  -11.0847  -16.0669 N   0  0  0  0  0  0  0  0  0  0  0  0
   22.9997   -8.8255  -15.4494 C   0  0  0  0  0  0  0  0  0  0  0  0
   23.5169   -8.6879  -16.5801 O   0  0  0  0  0  0  0  0  0  0  0  0
   22.7141   -7.6175  -14.7214 N   0  0  0  0  0  0  0  0  0  0  0  0
   22.7000   -6.3338  -15.3943 C   0  0  1  0  0  0  0  0  0  0  0  0
   21.7623   -6.2295  -16.5368 C   0  0  0  0  0  0  0  0  0  0  0  0
   22.2814   -6.6860  -17.8401 C   0  0  0  0  0  0  0  0  0  0  0  0
   22.8778   -7.8537  -18.2280 C   0  0  0  0  0  0  0  0  0  0  0  0
   23.1224   -7.7317  -19.5622 N   0  0  0  0  0  0  0  0  0  0  0  0
   22.6991   -6.5422  -19.9955 C   0  0  0  0  0  0  0  0  0  0  0  0
   22.1867   -5.8990  -18.9591 N   0  0  0  0  0  0  0  0  0  0  0  0
   22.4867   -5.2248  -14.4197 C   0  0  0  0  0  0  0  0  0  0  0  0
   22.8004   -3.9132  -14.7170 O   0  0  0  0  0  0  0  0  0  0  0  0
   22.0055   -5.5227  -13.3027 O   0  0  0  0  0  0  0  0  0  0  0  0
  2  1  1  6
  3  2  1  0
  4  5  1  0
  4  2  1  0
  5  6  1  1
  5  7  1  0
  7  8  2  0
 10  9  1  1
 10 12  1  0
 11  7  1  0
 11 10  1  0
 12 14  1  0
 13 12  2  0
 14 15  1  0
 15 22  1  0
 15 16  1  6
 17 16  1  0
 18 17  2  0
 19 18  1  0
 20 19  1  0
 20 21  2  0
 21 17  1  0
 22 23  1  0
 24 22  2  0
M  END
$$$$
