LAH.pdb
     RDKit          3D

 24 24  0  0  1  0  0  0  0  0999 V2000
   17.3891  -14.9887    2.5591 C   0  0  0  0  0  0  0  0  0  0  0  0
   18.0129  -13.7432    3.1346 C   0  0  2  0  0  0  0  0  0  0  0  0
   19.1587  -13.2393    2.2878 C   0  0  0  0  0  0  0  0  0  0  0  0
   18.4611  -14.0764    4.5438 C   0  0  0  0  0  0  0  0  0  0  0  0
   17.2369  -14.5668    5.2830 C   0  0  2  0  0  0  0  0  0  0  0  0
   16.4828  -13.3967    5.6821 N   0  0  0  0  0  0  0  0  0  0  0  0
   17.5871  -15.3226    6.5075 C   0  0  0  0  0  0  0  0  0  0  0  0
   18.1796  -14.7208    7.4420 O   0  0  0  0  0  0  0  0  0  0  0  0
   17.0808  -18.8112    7.9211 C   0  0  0  0  0  0  0  0  0  0  0  0
   17.7614  -17.4362    7.8730 C   0  0  2  0  0  0  0  0  0  0  0  0
   17.2982  -16.6952    6.7047 N   0  0  0  0  0  0  0  0  0  0  0  0
   19.2058  -17.6967    7.7113 C   0  0  0  0  0  0  0  0  0  0  0  0
   19.6906  -17.8285    6.5656 O   0  0  0  0  0  0  0  0  0  0  0  0
   20.1222  -17.8129    8.8147 N   0  0  0  0  0  0  0  0  0  0  0  0
   21.5335  -18.0487    8.5830 C   0  0  1  0  0  0  0  0  0  0  0  0
   22.3204  -16.8516    8.2048 C   0  0  0  0  0  0  0  0  0  0  0  0
   22.2867  -15.7296    9.1622 C   0  0  0  0  0  0  0  0  0  0  0  0
   21.6138  -15.5526   10.3393 C   0  0  0  0  0  0  0  0  0  0  0  0
   21.9878  -14.3313   10.8119 N   0  0  0  0  0  0  0  0  0  0  0  0
   22.8568  -13.7648    9.9719 C   0  0  0  0  0  0  0  0  0  0  0  0
   23.0459  -14.6044    8.9670 N   0  0  0  0  0  0  0  0  0  0  0  0
   22.1519  -18.7556    9.7419 C   0  0  0  0  0  0  0  0  0  0  0  0
   21.4549  -19.0083   10.9070 O   0  0  0  0  0  0  0  0  0  0  0  0
   23.3441  -19.1206    9.6259 O   0  0  0  0  0  0  0  0  0  0  0  0
  2  1  1  6
  3  2  1  0
  4  5  1  0
  4  2  1  0
  5  6  1  1
  5  7  1  0
  7  8  2  0
 10  9  1  6
 10 12  1  0
 11  7  1  0
 11 10  1  0
 12 14  1  0
 13 12  2  0
 14 15  1  0
 15 22  1  0
 15 16  1  1
 17 16  1  0
 18 17  2  0
 19 18  1  0
 20 19  1  0
 20 21  2  0
 21 17  1  0
 22 23  1  0
 24 22  2  0
M  END
$$$$
