LAH.pdb
     RDKit          3D

 24 24  0  0  1  0  0  0  0  0999 V2000
   24.5431  -14.7899  -16.2574 C   0  0  0  0  0  0  0  0  0  0  0  0
   25.6542  -13.7949  -16.0414 C   0  0  2  0  0  0  0  0  0  0  0  0
   26.7906  -14.3796  -15.2349 C   0  0  0  0  0  0  0  0  0  0  0  0
   25.0464  -12.5854  -15.3590 C   0  0  0  0  0  0  0  0  0  0  0  0
   23.9626  -12.0690  -16.2779 C   0  0  2  0  0  0  0  0  0  0  0  0
   24.5784  -11.8183  -17.5644 N   0  0  0  0  0  0  0  0  0  0  0  0
   23.3793  -10.7958  -15.7962 C   0  0  0  0  0  0  0  0  0  0  0  0
   23.0306  -10.7077  -14.5891 O   0  0  0  0  0  0  0  0  0  0  0  0
   23.4715   -7.2237  -16.7503 C   0  0  0  0  0  0  0  0  0  0  0  0
   22.7178   -8.3777  -16.0750 C   0  0  2  0  0  0  0  0  0  0  0  0
   23.1830   -9.6529  -16.6097 N   0  0  0  0  0  0  0  0  0  0  0  0
   21.2973   -8.2137  -16.4432 C   0  0  0  0  0  0  0  0  0  0  0  0
   20.8450   -8.7944  -17.4548 O   0  0  0  0  0  0  0  0  0  0  0  0
   20.3691   -7.4071  -15.6957 N   0  0  0  0  0  0  0  0  0  0  0  0
   18.9636   -7.3769  -16.0489 C   0  0  1  0  0  0  0  0  0  0  0  0
   18.2065   -8.6112  -15.7348 C   0  0  0  0  0  0  0  0  0  0  0  0
   16.7646   -8.5791  -16.0449 C   0  0  0  0  0  0  0  0  0  0  0  0
   15.9704   -7.6141  -16.5998 C   0  0  0  0  0  0  0  0  0  0  0  0
   14.7194   -8.1471  -16.6753 N   0  0  0  0  0  0  0  0  0  0  0  0
   14.7248   -9.3910  -16.1910 C   0  0  0  0  0  0  0  0  0  0  0  0
   15.9607   -9.6640  -15.8056 N   0  0  0  0  0  0  0  0  0  0  0  0
   18.2961   -6.1742  -15.4719 C   0  0  0  0  0  0  0  0  0  0  0  0
   17.3598   -5.4432  -16.1762 O   0  0  0  0  0  0  0  0  0  0  0  0
   18.6146   -5.8400  -14.3079 O   0  0  0  0  0  0  0  0  0  0  0  0
  2  1  1  1
  3  2  1  0
  4  5  1  0
  4  2  1  0
  5  6  1  6
  5  7  1  0
  7  8  2  0
 10  9  1  6
 10 12  1  0
 11  7  1  0
 11 10  1  0
 12 14  1  0
 13 12  2  0
 14 15  1  0
 15 22  1  0
 15 16  1  1
 17 16  1  0
 18 17  2  0
 19 18  1  0
 20 19  1  0
 20 21  2  0
 21 17  1  0
 22 23  1  0
 24 22  2  0
M  END
$$$$
