LAH.pdb
     RDKit          3D

 24 24  0  0  1  0  0  0  0  0999 V2000
   19.6295  -13.9534  -16.3328 C   0  0  0  0  0  0  0  0  0  0  0  0
   18.1833  -13.8323  -16.7392 C   0  0  2  0  0  0  0  0  0  0  0  0
   17.8399  -14.7455  -17.8933 C   0  0  0  0  0  0  0  0  0  0  0  0
   17.9344  -12.3769  -17.0822 C   0  0  0  0  0  0  0  0  0  0  0  0
   18.2308  -11.5805  -15.8318 C   0  0  2  0  0  0  0  0  0  0  0  0
   17.2956  -12.0180  -14.8162 N   0  0  0  0  0  0  0  0  0  0  0  0
   18.0361  -10.1264  -16.0342 C   0  0  0  0  0  0  0  0  0  0  0  0
   18.7522   -9.5319  -16.8829 O   0  0  0  0  0  0  0  0  0  0  0  0
   15.7088   -7.3968  -14.7760 C   0  0  0  0  0  0  0  0  0  0  0  0
   16.9301   -7.9118  -15.5501 C   0  0  2  0  0  0  0  0  0  0  0  0
   17.0871   -9.3455  -15.3300 N   0  0  0  0  0  0  0  0  0  0  0  0
   18.1032   -7.2252  -14.9733 C   0  0  0  0  0  0  0  0  0  0  0  0
   18.8623   -7.8395  -14.1913 O   0  0  0  0  0  0  0  0  0  0  0  0
   18.4438   -5.8563  -15.2575 N   0  0  0  0  0  0  0  0  0  0  0  0
   19.8264   -5.4211  -15.2515 C   0  0  1  0  0  0  0  0  0  0  0  0
   20.7444   -6.2211  -16.0958 C   0  0  0  0  0  0  0  0  0  0  0  0
   22.1495   -5.7726  -16.1237 C   0  0  0  0  0  0  0  0  0  0  0  0
   22.9597   -5.2448  -15.1568 C   0  0  0  0  0  0  0  0  0  0  0  0
   24.1726   -5.0452  -15.7433 N   0  0  0  0  0  0  0  0  0  0  0  0
   24.1292   -5.4300  -17.0207 C   0  0  0  0  0  0  0  0  0  0  0  0
   22.9064   -5.8735  -17.2628 N   0  0  0  0  0  0  0  0  0  0  0  0
   19.9280   -3.9680  -15.5730 C   0  0  0  0  0  0  0  0  0  0  0  0
   20.5489   -3.0690  -14.7285 O   0  0  0  0  0  0  0  0  0  0  0  0
   19.4247   -3.5790  -16.6516 O   0  0  0  0  0  0  0  0  0  0  0  0
  2  1  1  6
  3  2  1  0
  4  5  1  0
  4  2  1  0
  5  6  1  1
  5  7  1  0
  7  8  2  0
 10  9  1  1
 10 12  1  0
 11  7  1  0
 11 10  1  0
 12 14  1  0
 13 12  2  0
 14 15  1  0
 15 22  1  0
 15 16  1  6
 17 16  1  0
 18 17  2  0
 19 18  1  0
 20 19  1  0
 20 21  2  0
 21 17  1  0
 22 23  1  0
 24 22  2  0
M  END
$$$$
