LAH.pdb
     RDKit          3D

 24 24  0  0  1  0  0  0  0  0999 V2000
   16.6187  -12.6637  -17.3637 C   0  0  0  0  0  0  0  0  0  0  0  0
   17.6162  -13.6474  -16.8081 C   0  0  2  0  0  0  0  0  0  0  0  0
   16.9425  -14.8493  -16.1874 C   0  0  0  0  0  0  0  0  0  0  0  0
   18.4694  -12.9007  -15.8020 C   0  0  0  0  0  0  0  0  0  0  0  0
   19.0678  -11.7204  -16.5330 C   0  0  2  0  0  0  0  0  0  0  0  0
   20.0075  -12.2495  -17.4995 N   0  0  0  0  0  0  0  0  0  0  0  0
   19.8094  -10.8160  -15.6245 C   0  0  0  0  0  0  0  0  0  0  0  0
   19.1891  -10.2706  -14.6735 O   0  0  0  0  0  0  0  0  0  0  0  0
   23.4175   -9.8573  -14.9774 C   0  0  0  0  0  0  0  0  0  0  0  0
   21.9038   -9.6844  -14.7905 C   0  0  2  0  0  0  0  0  0  0  0  0
   21.1880  -10.5166  -15.7516 N   0  0  0  0  0  0  0  0  0  0  0  0
   21.6096   -8.2700  -15.0957 C   0  0  0  0  0  0  0  0  0  0  0  0
   21.4882   -7.9016  -16.2851 O   0  0  0  0  0  0  0  0  0  0  0  0
   21.4481   -7.2551  -14.0884 N   0  0  0  0  0  0  0  0  0  0  0  0
   21.1758   -5.8807  -14.4597 C   0  0  1  0  0  0  0  0  0  0  0  0
   19.8336   -5.3785  -14.0829 C   0  0  0  0  0  0  0  0  0  0  0  0
   18.6967   -5.9642  -14.8183 C   0  0  0  0  0  0  0  0  0  0  0  0
   18.6379   -6.8869  -15.8258 C   0  0  0  0  0  0  0  0  0  0  0  0
   17.3160   -7.0719  -16.0963 N   0  0  0  0  0  0  0  0  0  0  0  0
   16.5757   -6.3019  -15.2959 C   0  0  0  0  0  0  0  0  0  0  0  0
   17.4028   -5.6253  -14.5159 N   0  0  0  0  0  0  0  0  0  0  0  0
   22.2496   -4.9727  -13.9621 C   0  0  0  0  0  0  0  0  0  0  0  0
   22.3644   -3.6648  -14.3903 O   0  0  0  0  0  0  0  0  0  0  0  0
   23.0594   -5.4390  -13.1286 O   0  0  0  0  0  0  0  0  0  0  0  0
  2  1  1  1
  3  2  1  0
  4  5  1  0
  4  2  1  0
  5  6  1  6
  5  7  1  0
  7  8  2  0
 10  9  1  6
 10 12  1  0
 11  7  1  0
 11 10  1  0
 12 14  1  0
 13 12  2  0
 14 15  1  0
 15 22  1  0
 15 16  1  1
 17 16  1  0
 18 17  2  0
 19 18  1  0
 20 19  1  0
 20 21  2  0
 21 17  1  0
 22 23  1  0
 24 22  2  0
M  END
$$$$
