LAH.pdb
     RDKit          3D

 24 24  0  0  1  0  0  0  0  0999 V2000
   16.1401  -11.0488  -15.1295 C   0  0  0  0  0  0  0  0  0  0  0  0
   17.0001  -10.9589  -16.3639 C   0  0  2  0  0  0  0  0  0  0  0  0
   16.8442  -12.1705  -17.2535 C   0  0  0  0  0  0  0  0  0  0  0  0
   18.4327  -10.7838  -15.9004 C   0  0  0  0  0  0  0  0  0  0  0  0
   19.2892  -10.7468  -17.1456 C   0  0  2  0  0  0  0  0  0  0  0  0
   20.1957  -11.8739  -17.0729 N   0  0  0  0  0  0  0  0  0  0  0  0
   20.1031   -9.5124  -17.2294 C   0  0  0  0  0  0  0  0  0  0  0  0
   21.1544   -9.4321  -16.5404 O   0  0  0  0  0  0  0  0  0  0  0  0
   20.2076   -6.3657  -19.3405 C   0  0  0  0  0  0  0  0  0  0  0  0
   20.6287   -7.2176  -18.1350 C   0  0  2  0  0  0  0  0  0  0  0  0
   19.7774   -8.3989  -18.0421 N   0  0  0  0  0  0  0  0  0  0  0  0
   20.3935   -6.3842  -16.9390 C   0  0  0  0  0  0  0  0  0  0  0  0
   19.2396   -6.2846  -16.4663 O   0  0  0  0  0  0  0  0  0  0  0  0
   21.4322   -5.6564  -16.2591 N   0  0  0  0  0  0  0  0  0  0  0  0
   21.1317   -4.8611  -15.0852 C   0  0  1  0  0  0  0  0  0  0  0  0
   21.7044   -5.3669  -13.8157 C   0  0  0  0  0  0  0  0  0  0  0  0
   21.0899   -6.5945  -13.2755 C   0  0  0  0  0  0  0  0  0  0  0  0
   20.0879   -7.3978  -13.7451 C   0  0  0  0  0  0  0  0  0  0  0  0
   19.9580   -8.4110  -12.8443 N   0  0  0  0  0  0  0  0  0  0  0  0
   20.8380   -8.2539  -11.8529 C   0  0  0  0  0  0  0  0  0  0  0  0
   21.5304   -7.1549  -12.1040 N   0  0  0  0  0  0  0  0  0  0  0  0
   21.4914   -3.4303  -15.3058 C   0  0  0  0  0  0  0  0  0  0  0  0
   22.1284   -3.0000  -16.4530 O   0  0  0  0  0  0  0  0  0  0  0  0
   21.1932   -2.6145  -14.4038 O   0  0  0  0  0  0  0  0  0  0  0  0
  2  1  1  1
  3  2  1  0
  4  5  1  0
  4  2  1  0
  5  6  1  1
  5  7  1  0
  7  8  2  0
 10  9  1  6
 10 12  1  0
 11  7  1  0
 11 10  1  0
 12 14  1  0
 13 12  2  0
 14 15  1  0
 15 22  1  0
 15 16  1  1
 17 16  1  0
 18 17  2  0
 19 18  1  0
 20 19  1  0
 20 21  2  0
 21 17  1  0
 22 23  1  0
 24 22  2  0
M  END
$$$$
