LAH.pdb
     RDKit          3D

 24 24  0  0  1  0  0  0  0  0999 V2000
   13.3944  -12.5997   -9.8945 C   0  0  0  0  0  0  0  0  0  0  0  0
   12.9289  -13.3606  -11.1092 C   0  0  2  0  0  0  0  0  0  0  0  0
   12.5740  -14.7923  -10.7803 C   0  0  0  0  0  0  0  0  0  0  0  0
   14.0369  -13.2800  -12.1405 C   0  0  0  0  0  0  0  0  0  0  0  0
   14.2663  -11.8113  -12.4158 C   0  0  2  0  0  0  0  0  0  0  0  0
   13.0821  -11.3129  -13.0841 N   0  0  0  0  0  0  0  0  0  0  0  0
   15.4244  -11.5830  -13.3102 C   0  0  0  0  0  0  0  0  0  0  0  0
   16.5628  -11.9733  -12.9387 O   0  0  0  0  0  0  0  0  0  0  0  0
   16.0501  -10.4867  -16.8729 C   0  0  0  0  0  0  0  0  0  0  0  0
   16.5041  -10.7421  -15.4290 C   0  0  2  0  0  0  0  0  0  0  0  0
   15.3405  -10.9470  -14.5731 N   0  0  0  0  0  0  0  0  0  0  0  0
   17.1898   -9.5108  -14.9886 C   0  0  0  0  0  0  0  0  0  0  0  0
   16.5539   -8.6335  -14.3632 O   0  0  0  0  0  0  0  0  0  0  0  0
   18.5816   -9.2424  -15.2367 N   0  0  0  0  0  0  0  0  0  0  0  0
   19.1648   -7.9654  -14.8758 C   0  0  1  0  0  0  0  0  0  0  0  0
   20.6206   -7.8432  -15.1229 C   0  0  0  0  0  0  0  0  0  0  0  0
   21.2166   -6.5271  -14.8243 C   0  0  0  0  0  0  0  0  0  0  0  0
   20.6917   -5.3892  -14.2770 C   0  0  0  0  0  0  0  0  0  0  0  0
   21.7139   -4.4917  -14.2107 N   0  0  0  0  0  0  0  0  0  0  0  0
   22.8318   -5.0388  -14.6933 C   0  0  0  0  0  0  0  0  0  0  0  0
   22.5420   -6.2740  -15.0685 N   0  0  0  0  0  0  0  0  0  0  0  0
   18.4152   -6.8410  -15.5073 C   0  0  0  0  0  0  0  0  0  0  0  0
   18.0631   -6.8493  -16.8427 O   0  0  0  0  0  0  0  0  0  0  0  0
   18.1080   -5.8705  -14.7781 O   0  0  0  0  0  0  0  0  0  0  0  0
  2  1  1  1
  3  2  1  0
  4  5  1  0
  4  2  1  0
  5  6  1  6
  5  7  1  0
  7  8  2  0
 10  9  1  6
 10 12  1  0
 11  7  1  0
 11 10  1  0
 12 14  1  0
 13 12  2  0
 14 15  1  0
 15 22  1  0
 15 16  1  6
 17 16  1  0
 18 17  2  0
 19 18  1  0
 20 19  1  0
 20 21  2  0
 21 17  1  0
 22 23  1  0
 24 22  2  0
M  END
$$$$
