LAH.pdb
     RDKit          3D

 24 24  0  0  1  0  0  0  0  0999 V2000
   26.6725  -15.1966  -15.0155 C   0  0  0  0  0  0  0  0  0  0  0  0
   27.1702  -14.3813  -16.1813 C   0  0  2  0  0  0  0  0  0  0  0  0
   28.5832  -13.8898  -15.9677 C   0  0  0  0  0  0  0  0  0  0  0  0
   26.1996  -13.2328  -16.3720 C   0  0  0  0  0  0  0  0  0  0  0  0
   24.8611  -13.8487  -16.7109 C   0  0  2  0  0  0  0  0  0  0  0  0
   25.0352  -14.5981  -17.9378 N   0  0  0  0  0  0  0  0  0  0  0  0
   23.8169  -12.8252  -16.9464 C   0  0  0  0  0  0  0  0  0  0  0  0
   23.9079  -12.0904  -17.9654 O   0  0  0  0  0  0  0  0  0  0  0  0
   20.4537  -11.8553  -15.4948 C   0  0  0  0  0  0  0  0  0  0  0  0
   21.6940  -11.5953  -16.3609 C   0  0  2  0  0  0  0  0  0  0  0  0
   22.7063  -12.6114  -16.0937 N   0  0  0  0  0  0  0  0  0  0  0  0
   22.2290  -10.2873  -15.9327 C   0  0  0  0  0  0  0  0  0  0  0  0
   23.0747  -10.2312  -15.0126 O   0  0  0  0  0  0  0  0  0  0  0  0
   21.8322   -9.0344  -16.5190 N   0  0  0  0  0  0  0  0  0  0  0  0
   22.3856   -7.7841  -16.0379 C   0  0  1  0  0  0  0  0  0  0  0  0
   23.3773   -7.1455  -16.9346 C   0  0  0  0  0  0  0  0  0  0  0  0
   24.6784   -7.8315  -17.0490 C   0  0  0  0  0  0  0  0  0  0  0  0
   25.1994   -8.9167  -16.4004 C   0  0  0  0  0  0  0  0  0  0  0  0
   26.4352   -9.1227  -16.9347 N   0  0  0  0  0  0  0  0  0  0  0  0
   26.6814   -8.2099  -17.8769 C   0  0  0  0  0  0  0  0  0  0  0  0
   25.6222   -7.4210  -17.9552 N   0  0  0  0  0  0  0  0  0  0  0  0
   21.3006   -6.8295  -15.6684 C   0  0  0  0  0  0  0  0  0  0  0  0
   21.5356   -5.7139  -14.8891 O   0  0  0  0  0  0  0  0  0  0  0  0
   20.1482   -7.0730  -16.0935 O   0  0  0  0  0  0  0  0  0  0  0  0
  2  1  1  1
  3  2  1  0
  4  5  1  0
  4  2  1  0
  5  6  1  6
  5  7  1  0
  7  8  2  0
 10  9  1  1
 10 12  1  0
 11  7  1  0
 11 10  1  0
 12 14  1  0
 13 12  2  0
 14 15  1  0
 15 22  1  0
 15 16  1  6
 17 16  1  0
 18 17  2  0
 19 18  1  0
 20 19  1  0
 20 21  2  0
 21 17  1  0
 22 23  1  0
 24 22  2  0
M  END
$$$$
