NNM.pdb
     RDKit          3D

 25 24  0  0  1  0  0  0  0  0999 V2000
   15.5658  -12.6375  -11.0021 N   0  0  0  0  0  0  0  0  0  0  0  0
   16.2787  -11.8678  -11.9762 C   0  0  0  0  0  0  0  0  0  0  0  0
   17.0131  -12.4704  -12.7718 O   0  0  0  0  0  0  0  0  0  0  0  0
   16.1138  -10.4314  -11.9919 C   0  0  0  0  0  0  0  0  0  0  0  0
   15.2212   -9.8323  -10.9353 C   0  0  2  0  0  0  0  0  0  0  0  0
   13.8717   -9.9707  -11.4958 N   0  0  0  0  0  0  0  0  0  0  0  0
   15.5690   -8.3961  -10.8122 C   0  0  0  0  0  0  0  0  0  0  0  0
   15.3596   -7.6261  -11.7673 O   0  0  0  0  0  0  0  0  0  0  0  0
   13.9211   -6.8264   -7.2480 N   0  0  0  0  0  0  0  0  0  0  0  0
   14.5438   -5.9573   -8.1805 C   0  0  0  0  0  0  0  0  0  0  0  0
   13.8384   -5.2699   -8.9588 O   0  0  0  0  0  0  0  0  0  0  0  0
   16.0041   -5.8453   -8.2538 C   0  0  0  0  0  0  0  0  0  0  0  0
   16.4455   -6.4400   -9.5966 C   0  0  2  0  0  0  0  0  0  0  0  0
   16.1413   -7.8330   -9.6393 N   0  0  0  0  0  0  0  0  0  0  0  0
   17.8942   -6.1505   -9.7376 C   0  0  0  0  0  0  0  0  0  0  0  0
   18.7513   -6.4363   -8.8666 O   0  0  0  0  0  0  0  0  0  0  0  0
   23.2889   -9.4138  -13.2898 C   0  0  0  0  0  0  0  0  0  0  0  0
   21.6885   -8.9893  -12.6662 S   0  0  0  0  0  0  0  0  0  0  0  0
   21.3619   -7.2731  -12.3372 C   0  0  0  0  0  0  0  0  0  0  0  0
   20.0462   -7.0174  -11.6986 C   0  0  0  0  0  0  0  0  0  0  0  0
   19.7076   -5.5935  -11.4099 C   0  0  2  0  0  0  0  0  0  0  0  0
   18.3199   -5.5145  -10.9294 N   0  0  0  0  0  0  0  0  0  0  0  0
   19.8529   -4.7093  -12.5736 C   0  0  0  0  0  0  0  0  0  0  0  0
   18.9042   -4.4686  -13.3405 O   0  0  0  0  0  0  0  0  0  0  0  0
   21.0648   -4.1091  -12.8568 O   0  0  0  0  0  0  0  0  0  0  0  0
  2  1  1  0
  2  3  2  0
  4  2  1  0
  5  4  1  0
  5  6  1  6
  7  8  2  0
  7  5  1  0
  9 10  1  0
 10 11  2  0
 10 12  1  0
 13 12  1  1
 13 15  1  0
 13 14  1  0
 14  7  1  0
 15 22  1  0
 16 15  2  0
 18 17  1  0
 19 18  1  0
 21 20  1  6
 20 19  1  0
 21 23  1  0
 22 21  1  0
 23 24  2  0
 23 25  1  0
M  END
$$$$
