NNM.pdb
     RDKit          3D

 25 24  0  0  1  0  0  0  0  0999 V2000
   24.0728  -12.6411  -20.5130 N   0  0  0  0  0  0  0  0  0  0  0  0
   24.0619  -11.3302  -21.0882 C   0  0  0  0  0  0  0  0  0  0  0  0
   24.8070  -11.1109  -22.0537 O   0  0  0  0  0  0  0  0  0  0  0  0
   23.1896  -10.3245  -20.5240 C   0  0  0  0  0  0  0  0  0  0  0  0
   22.3624  -10.7264  -19.3297 C   0  0  2  0  0  0  0  0  0  0  0  0
   21.3191  -11.5878  -19.8989 N   0  0  0  0  0  0  0  0  0  0  0  0
   21.7493   -9.4972  -18.7712 C   0  0  0  0  0  0  0  0  0  0  0  0
   21.0500   -8.7700  -19.5001 O   0  0  0  0  0  0  0  0  0  0  0  0
   19.8292   -5.8581  -16.0452 N   0  0  0  0  0  0  0  0  0  0  0  0
   20.2910   -6.7781  -15.0690 C   0  0  0  0  0  0  0  0  0  0  0  0
   19.9895   -6.6096  -13.8621 O   0  0  0  0  0  0  0  0  0  0  0  0
   21.1189   -7.9290  -15.4439 C   0  0  0  0  0  0  0  0  0  0  0  0
   21.3172   -7.8790  -16.9637 C   0  0  2  0  0  0  0  0  0  0  0  0
   21.9171   -9.0902  -17.4198 N   0  0  0  0  0  0  0  0  0  0  0  0
   22.1355   -6.6744  -17.2493 C   0  0  0  0  0  0  0  0  0  0  0  0
   23.3539   -6.5745  -16.9652 O   0  0  0  0  0  0  0  0  0  0  0  0
   23.1536   -1.1358  -22.6732 C   0  0  0  0  0  0  0  0  0  0  0  0
   22.4483   -2.5902  -21.9540 S   0  0  0  0  0  0  0  0  0  0  0  0
   22.6726   -2.8369  -20.2078 C   0  0  0  0  0  0  0  0  0  0  0  0
   22.0368   -4.0714  -19.6827 C   0  0  0  0  0  0  0  0  0  0  0  0
   22.2034   -4.3423  -18.2252 C   0  0  2  0  0  0  0  0  0  0  0  0
   21.4912   -5.5817  -17.8794 N   0  0  0  0  0  0  0  0  0  0  0  0
   21.7053   -3.2592  -17.3673 C   0  0  0  0  0  0  0  0  0  0  0  0
   20.5103   -3.1806  -17.0327 O   0  0  0  0  0  0  0  0  0  0  0  0
   22.5603   -2.2802  -16.8987 O   0  0  0  0  0  0  0  0  0  0  0  0
  2  1  1  0
  2  3  2  0
  4  2  1  0
  5  4  1  0
  5  6  1  6
  7  8  2  0
  7  5  1  0
  9 10  1  0
 10 11  2  0
 10 12  1  0
 13 12  1  1
 13 15  1  0
 13 14  1  0
 14  7  1  0
 15 22  1  0
 16 15  2  0
 18 17  1  0
 19 18  1  0
 21 20  1  6
 20 19  1  0
 21 23  1  0
 22 21  1  0
 23 24  2  0
 23 25  1  0
M  END
$$$$
