NNM.pdb
     RDKit          3D

 25 24  0  0  1  0  0  0  0  0999 V2000
   15.9120  -11.1682  -17.0935 N   0  0  0  0  0  0  0  0  0  0  0  0
   15.0037  -10.7358  -16.0749 C   0  0  0  0  0  0  0  0  0  0  0  0
   13.7976  -10.6824  -16.3537 O   0  0  0  0  0  0  0  0  0  0  0  0
   15.5263  -10.3824  -14.7738 C   0  0  0  0  0  0  0  0  0  0  0  0
   17.0060  -10.5689  -14.5557 C   0  0  2  0  0  0  0  0  0  0  0  0
   17.1389  -11.9989  -14.2524 N   0  0  0  0  0  0  0  0  0  0  0  0
   17.3921   -9.7661  -13.3703 C   0  0  0  0  0  0  0  0  0  0  0  0
   16.9777  -10.0916  -12.2427 O   0  0  0  0  0  0  0  0  0  0  0  0
   21.6723   -7.4218  -13.8024 N   0  0  0  0  0  0  0  0  0  0  0  0
   20.8192   -7.6076  -12.6842 C   0  0  0  0  0  0  0  0  0  0  0  0
   21.1189   -8.4525  -11.8054 O   0  0  0  0  0  0  0  0  0  0  0  0
   19.5864   -6.8278  -12.5336 C   0  0  0  0  0  0  0  0  0  0  0  0
   18.4416   -7.8176  -12.2867 C   0  0  2  0  0  0  0  0  0  0  0  0
   18.2277   -8.6190  -13.4473 N   0  0  0  0  0  0  0  0  0  0  0  0
   17.2555   -7.0131  -11.9016 C   0  0  0  0  0  0  0  0  0  0  0  0
   16.5113   -6.4280  -12.7255 O   0  0  0  0  0  0  0  0  0  0  0  0
   12.4825   -6.0403   -5.5547 C   0  0  0  0  0  0  0  0  0  0  0  0
   13.7473   -6.8325   -6.5049 S   0  0  0  0  0  0  0  0  0  0  0  0
   14.2223   -6.0717   -8.0398 C   0  0  0  0  0  0  0  0  0  0  0  0
   15.3261   -6.7688   -8.7466 C   0  0  0  0  0  0  0  0  0  0  0  0
   15.7976   -6.1550  -10.0218 C   0  0  2  0  0  0  0  0  0  0  0  0
   16.9581   -6.9082  -10.5208 N   0  0  0  0  0  0  0  0  0  0  0  0
   16.1772   -4.7425   -9.8869 C   0  0  0  0  0  0  0  0  0  0  0  0
   17.3515   -4.3934   -9.6742 O   0  0  0  0  0  0  0  0  0  0  0  0
   15.2283   -3.7437   -9.9933 O   0  0  0  0  0  0  0  0  0  0  0  0
  2  1  1  0
  2  3  2  0
  4  2  1  0
  5  4  1  0
  5  6  1  1
  7  8  2  0
  7  5  1  0
  9 10  1  0
 10 11  2  0
 10 12  1  0
 13 12  1  6
 13 15  1  0
 13 14  1  0
 14  7  1  0
 15 22  1  0
 16 15  2  0
 18 17  1  0
 19 18  1  0
 21 20  1  1
 20 19  1  0
 21 23  1  0
 22 21  1  0
 23 24  2  0
 23 25  1  0
M  END
$$$$
