NNM.pdb
     RDKit          3D

 25 24  0  0  1  0  0  0  0  0999 V2000
   16.7132  -16.6478  -15.5597 N   0  0  0  0  0  0  0  0  0  0  0  0
   17.8156  -16.0564  -14.8637 C   0  0  0  0  0  0  0  0  0  0  0  0
   18.1994  -16.5939  -13.8154 O   0  0  0  0  0  0  0  0  0  0  0  0
   18.4308  -14.8663  -15.4079 C   0  0  0  0  0  0  0  0  0  0  0  0
   17.8338  -14.3028  -16.6720 C   0  0  2  0  0  0  0  0  0  0  0  0
   18.3035  -15.2168  -17.7201 N   0  0  0  0  0  0  0  0  0  0  0  0
   18.4147  -12.9551  -16.8836 C   0  0  0  0  0  0  0  0  0  0  0  0
   19.5194  -12.8402  -17.4454 O   0  0  0  0  0  0  0  0  0  0  0  0
   17.7571   -6.8997  -16.2899 N   0  0  0  0  0  0  0  0  0  0  0  0
   18.0605   -8.1183  -16.9498 C   0  0  0  0  0  0  0  0  0  0  0  0
   18.9273   -8.1363  -17.8577 O   0  0  0  0  0  0  0  0  0  0  0  0
   17.3774   -9.3652  -16.5904 C   0  0  0  0  0  0  0  0  0  0  0  0
   18.4056  -10.4987  -16.6865 C   0  0  2  0  0  0  0  0  0  0  0  0
   17.7690  -11.7573  -16.4730 N   0  0  0  0  0  0  0  0  0  0  0  0
   19.4658  -10.2006  -15.6918 C   0  0  0  0  0  0  0  0  0  0  0  0
   19.2917  -10.2490  -14.4499 O   0  0  0  0  0  0  0  0  0  0  0  0
   27.3445  -10.4997  -14.9690 C   0  0  0  0  0  0  0  0  0  0  0  0
   25.8245  -10.5781  -15.8711 S   0  0  0  0  0  0  0  0  0  0  0  0
   24.3680   -9.9256  -15.0881 C   0  0  0  0  0  0  0  0  0  0  0  0
   23.1179  -10.1354  -15.8609 C   0  0  0  0  0  0  0  0  0  0  0  0
   21.8737   -9.5357  -15.2972 C   0  0  2  0  0  0  0  0  0  0  0  0
   20.7434   -9.8418  -16.1870 N   0  0  0  0  0  0  0  0  0  0  0  0
   21.9526   -8.0796  -15.1220 C   0  0  0  0  0  0  0  0  0  0  0  0
   21.7836   -7.2920  -16.0692 O   0  0  0  0  0  0  0  0  0  0  0  0
   22.2209   -7.5316  -13.8822 O   0  0  0  0  0  0  0  0  0  0  0  0
  2  1  1  0
  2  3  2  0
  4  2  1  0
  5  4  1  0
  5  6  1  6
  7  8  2  0
  7  5  1  0
  9 10  1  0
 10 11  2  0
 10 12  1  0
 13 12  1  1
 13 15  1  0
 13 14  1  0
 14  7  1  0
 15 22  1  0
 16 15  2  0
 18 17  1  0
 19 18  1  0
 21 20  1  6
 20 19  1  0
 21 23  1  0
 22 21  1  0
 23 24  2  0
 23 25  1  0
M  END
$$$$
