NNM.pdb
     RDKit          3D

 25 24  0  0  1  0  0  0  0  0999 V2000
   30.3665  -22.1951  -18.6745 N   0  0  0  0  0  0  0  0  0  0  0  0
   29.4319  -21.1414  -18.9310 C   0  0  0  0  0  0  0  0  0  0  0  0
   29.8697  -20.0667  -19.3653 O   0  0  0  0  0  0  0  0  0  0  0  0
   28.0277  -21.3724  -18.6751 C   0  0  0  0  0  0  0  0  0  0  0  0
   27.5707  -21.2962  -17.2407 C   0  0  2  0  0  0  0  0  0  0  0  0
   28.4964  -22.1860  -16.5294 N   0  0  0  0  0  0  0  0  0  0  0  0
   26.1953  -21.8464  -17.1755 C   0  0  0  0  0  0  0  0  0  0  0  0
   25.2645  -21.2515  -17.7488 O   0  0  0  0  0  0  0  0  0  0  0  0
   23.6432  -26.3351  -14.4321 N   0  0  0  0  0  0  0  0  0  0  0  0
   24.5893  -25.4679  -15.0365 C   0  0  0  0  0  0  0  0  0  0  0  0
   25.6108  -25.1171  -14.3966 O   0  0  0  0  0  0  0  0  0  0  0  0
   24.3968  -24.9700  -16.4023 C   0  0  0  0  0  0  0  0  0  0  0  0
   24.5050  -23.4411  -16.3555 C   0  0  2  0  0  0  0  0  0  0  0  0
   25.8690  -23.0423  -16.4801 N   0  0  0  0  0  0  0  0  0  0  0  0
   23.8800  -23.0064  -15.0817 C   0  0  0  0  0  0  0  0  0  0  0  0
   22.7675  -23.4193  -14.6731 O   0  0  0  0  0  0  0  0  0  0  0  0
   26.0888  -19.9552   -8.0687 C   0  0  0  0  0  0  0  0  0  0  0  0
   26.3511  -20.6245   -9.6853 S   0  0  0  0  0  0  0  0  0  0  0  0
   24.9225  -20.8818  -10.7115 C   0  0  0  0  0  0  0  0  0  0  0  0
   25.2284  -21.4633  -12.0428 C   0  0  0  0  0  0  0  0  0  0  0  0
   24.0873  -21.5927  -12.9949 C   0  0  2  0  0  0  0  0  0  0  0  0
   24.5914  -22.0708  -14.2913 N   0  0  0  0  0  0  0  0  0  0  0  0
   23.3575  -20.3363  -13.2091 C   0  0  0  0  0  0  0  0  0  0  0  0
   23.6045  -19.5866  -14.1699 O   0  0  0  0  0  0  0  0  0  0  0  0
   22.3602  -19.9422  -12.3377 O   0  0  0  0  0  0  0  0  0  0  0  0
  2  1  1  0
  2  3  2  0
  4  2  1  0
  5  4  1  0
  5  6  1  1
  7  8  2  0
  7  5  1  0
  9 10  1  0
 10 11  2  0
 10 12  1  0
 13 12  1  1
 13 15  1  0
 13 14  1  0
 14  7  1  0
 15 22  1  0
 16 15  2  0
 18 17  1  0
 19 18  1  0
 21 20  1  1
 20 19  1  0
 21 23  1  0
 22 21  1  0
 23 24  2  0
 23 25  1  0
M  END
$$$$
