NNM.pdb
     RDKit          3D

 25 24  0  0  1  0  0  0  0  0999 V2000
   15.5631  -13.3133  -14.8490 N   0  0  0  0  0  0  0  0  0  0  0  0
   16.9135  -13.2138  -14.3841 C   0  0  0  0  0  0  0  0  0  0  0  0
   17.5758  -14.2567  -14.2893 O   0  0  0  0  0  0  0  0  0  0  0  0
   17.4446  -11.9118  -14.0473 C   0  0  0  0  0  0  0  0  0  0  0  0
   16.4951  -10.7436  -14.1229 C   0  0  2  0  0  0  0  0  0  0  0  0
   16.7826  -10.1413  -15.4301 N   0  0  0  0  0  0  0  0  0  0  0  0
   16.8589   -9.7958  -13.0422 C   0  0  0  0  0  0  0  0  0  0  0  0
   16.7394  -10.1407  -11.8523 O   0  0  0  0  0  0  0  0  0  0  0  0
   17.7643   -4.4394  -13.9745 N   0  0  0  0  0  0  0  0  0  0  0  0
   17.8754   -5.8472  -13.8383 C   0  0  0  0  0  0  0  0  0  0  0  0
   17.4305   -6.5975  -14.7409 O   0  0  0  0  0  0  0  0  0  0  0  0
   18.5036   -6.4469  -12.6567 C   0  0  0  0  0  0  0  0  0  0  0  0
   17.6107   -7.6061  -12.1979 C   0  0  2  0  0  0  0  0  0  0  0  0
   17.3481   -8.4846  -13.2907 N   0  0  0  0  0  0  0  0  0  0  0  0
   16.3839   -7.0003  -11.6233 C   0  0  0  0  0  0  0  0  0  0  0  0
   15.3409   -6.7754  -12.2841 O   0  0  0  0  0  0  0  0  0  0  0  0
   11.5258   -7.0934   -5.6116 C   0  0  0  0  0  0  0  0  0  0  0  0
   12.8341   -7.6308   -6.6743 S   0  0  0  0  0  0  0  0  0  0  0  0
   13.5434   -6.4312   -7.7781 C   0  0  0  0  0  0  0  0  0  0  0  0
   14.6654   -6.9512   -8.5996 C   0  0  0  0  0  0  0  0  0  0  0  0
   15.2698   -6.0057   -9.5825 C   0  0  2  0  0  0  0  0  0  0  0  0
   16.4055   -6.6612  -10.2483 N   0  0  0  0  0  0  0  0  0  0  0  0
   15.7395   -4.7525   -8.9774 C   0  0  0  0  0  0  0  0  0  0  0  0
   16.9435   -4.5419   -8.7493 O   0  0  0  0  0  0  0  0  0  0  0  0
   14.8460   -3.7547   -8.6376 O   0  0  0  0  0  0  0  0  0  0  0  0
  2  1  1  0
  2  3  2  0
  4  2  1  0
  5  4  1  0
  5  6  1  6
  7  8  2  0
  7  5  1  0
  9 10  1  0
 10 11  2  0
 10 12  1  0
 13 12  1  6
 13 15  1  0
 13 14  1  0
 14  7  1  0
 15 22  1  0
 16 15  2  0
 18 17  1  0
 19 18  1  0
 21 20  1  1
 20 19  1  0
 21 23  1  0
 22 21  1  0
 23 24  2  0
 23 25  1  0
M  END
$$$$
