NNM.pdb
     RDKit          3D

 25 24  0  0  1  0  0  0  0  0999 V2000
   17.1927  -23.0798  -10.6499 N   0  0  0  0  0  0  0  0  0  0  0  0
   17.1899  -23.2066  -12.0758 C   0  0  0  0  0  0  0  0  0  0  0  0
   16.1669  -23.6452  -12.6202 O   0  0  0  0  0  0  0  0  0  0  0  0
   18.3706  -22.8209  -12.8160 C   0  0  0  0  0  0  0  0  0  0  0  0
   19.5436  -22.3112  -12.0184 C   0  0  2  0  0  0  0  0  0  0  0  0
   19.0447  -21.0699  -11.4143 N   0  0  0  0  0  0  0  0  0  0  0  0
   20.6369  -22.0019  -12.9712 C   0  0  0  0  0  0  0  0  0  0  0  0
   21.1599  -22.9194  -13.6297 O   0  0  0  0  0  0  0  0  0  0  0  0
   23.6411  -19.8777  -16.8288 N   0  0  0  0  0  0  0  0  0  0  0  0
   23.1803  -19.0565  -15.7677 C   0  0  0  0  0  0  0  0  0  0  0  0
   23.8428  -18.0452  -15.4295 O   0  0  0  0  0  0  0  0  0  0  0  0
   21.9377  -19.3673  -15.0535 C   0  0  0  0  0  0  0  0  0  0  0  0
   22.2502  -20.4817  -14.0477 C   0  0  2  0  0  0  0  0  0  0  0  0
   21.1351  -20.6876  -13.1822 N   0  0  0  0  0  0  0  0  0  0  0  0
   23.4842  -20.0769  -13.3296 C   0  0  0  0  0  0  0  0  0  0  0  0
   23.5424  -19.1098  -12.5320 O   0  0  0  0  0  0  0  0  0  0  0  0
   26.6064  -20.1824   -7.2326 C   0  0  0  0  0  0  0  0  0  0  0  0
   25.8772  -21.0261   -8.6061 S   0  0  0  0  0  0  0  0  0  0  0  0
   26.2472  -20.4194  -10.2356 C   0  0  0  0  0  0  0  0  0  0  0  0
   25.5012  -21.1035  -11.3217 C   0  0  0  0  0  0  0  0  0  0  0  0
   25.8528  -20.7200  -12.7198 C   0  0  2  0  0  0  0  0  0  0  0  0
   24.6567  -20.8349  -13.5679 N   0  0  0  0  0  0  0  0  0  0  0  0
   26.9219  -21.5421  -13.3016 C   0  0  0  0  0  0  0  0  0  0  0  0
   26.6798  -22.4955  -14.0622 O   0  0  0  0  0  0  0  0  0  0  0  0
   28.2483  -21.2785  -13.0180 O   0  0  0  0  0  0  0  0  0  0  0  0
  2  1  1  0
  2  3  2  0
  4  2  1  0
  5  4  1  0
  5  6  1  6
  7  8  2  0
  7  5  1  0
  9 10  1  0
 10 11  2  0
 10 12  1  0
 13 12  1  6
 13 15  1  0
 13 14  1  0
 14  7  1  0
 15 22  1  0
 16 15  2  0
 18 17  1  0
 19 18  1  0
 21 20  1  1
 20 19  1  0
 21 23  1  0
 22 21  1  0
 23 24  2  0
 23 25  1  0
M  END
$$$$
