NNM.pdb
     RDKit          3D

 25 24  0  0  1  0  0  0  0  0999 V2000
   13.7634  -11.9257  -10.2368 N   0  0  0  0  0  0  0  0  0  0  0  0
   13.2885  -10.9017  -11.1174 C   0  0  0  0  0  0  0  0  0  0  0  0
   12.3336  -11.1686  -11.8606 O   0  0  0  0  0  0  0  0  0  0  0  0
   13.9368   -9.6093  -11.1035 C   0  0  0  0  0  0  0  0  0  0  0  0
   15.0762   -9.4243  -10.1343 C   0  0  2  0  0  0  0  0  0  0  0  0
   14.4267   -9.4558   -8.8184 N   0  0  0  0  0  0  0  0  0  0  0  0
   15.6595   -8.0824  -10.3745 C   0  0  0  0  0  0  0  0  0  0  0  0
   15.9120   -7.7181  -11.5375 O   0  0  0  0  0  0  0  0  0  0  0  0
   14.1399   -3.7492   -9.5752 N   0  0  0  0  0  0  0  0  0  0  0  0
   14.6825   -4.6252   -8.6002 C   0  0  0  0  0  0  0  0  0  0  0  0
   13.9203   -5.1947   -7.7813 O   0  0  0  0  0  0  0  0  0  0  0  0
   16.1248   -4.8803   -8.5294 C   0  0  0  0  0  0  0  0  0  0  0  0
   16.4729   -5.8738   -9.6444 C   0  0  2  0  0  0  0  0  0  0  0  0
   15.9545   -7.1650   -9.3297 N   0  0  0  0  0  0  0  0  0  0  0  0
   17.9495   -5.8533   -9.7906 C   0  0  0  0  0  0  0  0  0  0  0  0
   18.7424   -6.3145   -8.9342 O   0  0  0  0  0  0  0  0  0  0  0  0
   23.0287   -9.6658  -13.3090 C   0  0  0  0  0  0  0  0  0  0  0  0
   21.5273   -9.0964  -12.5662 S   0  0  0  0  0  0  0  0  0  0  0  0
   21.3618   -7.3499  -12.2788 C   0  0  0  0  0  0  0  0  0  0  0  0
   20.0762   -6.9578  -11.6483 C   0  0  0  0  0  0  0  0  0  0  0  0
   19.8699   -5.5017  -11.3982 C   0  0  2  0  0  0  0  0  0  0  0  0
   18.4809   -5.2768  -10.9702 N   0  0  0  0  0  0  0  0  0  0  0  0
   20.1417   -4.6614  -12.5718 C   0  0  0  0  0  0  0  0  0  0  0  0
   21.2756   -4.2104  -12.8106 O   0  0  0  0  0  0  0  0  0  0  0  0
   19.1323   -4.3411  -13.4594 O   0  0  0  0  0  0  0  0  0  0  0  0
  2  1  1  0
  2  3  2  0
  4  2  1  0
  5  4  1  0
  5  6  1  1
  7  8  2  0
  7  5  1  0
  9 10  1  0
 10 11  2  0
 10 12  1  0
 13 12  1  1
 13 15  1  0
 13 14  1  0
 14  7  1  0
 15 22  1  0
 16 15  2  0
 18 17  1  0
 19 18  1  0
 21 20  1  6
 20 19  1  0
 21 23  1  0
 22 21  1  0
 23 24  2  0
 23 25  1  0
M  END
$$$$
