NNM.pdb
     RDKit          3D

 25 24  0  0  1  0  0  0  0  0999 V2000
   27.6203  -16.2272  -18.1357 N   0  0  0  0  0  0  0  0  0  0  0  0
   28.0427  -17.2330  -17.2087 C   0  0  0  0  0  0  0  0  0  0  0  0
   29.0116  -17.9408  -17.5178 O   0  0  0  0  0  0  0  0  0  0  0  0
   27.3278  -17.3804  -15.9605 C   0  0  0  0  0  0  0  0  0  0  0  0
   27.3616  -18.7385  -15.3074 C   0  0  2  0  0  0  0  0  0  0  0  0
   26.9076  -19.6485  -16.3658 N   0  0  0  0  0  0  0  0  0  0  0  0
   26.3789  -18.7297  -14.1970 C   0  0  0  0  0  0  0  0  0  0  0  0
   25.9814  -17.6454  -13.7329 O   0  0  0  0  0  0  0  0  0  0  0  0
   21.7697  -21.2245  -11.5615 N   0  0  0  0  0  0  0  0  0  0  0  0
   22.5532  -20.1215  -11.9884 C   0  0  0  0  0  0  0  0  0  0  0  0
   22.4344  -19.0127  -11.4119 O   0  0  0  0  0  0  0  0  0  0  0  0
   23.5049  -20.2516  -13.0964 C   0  0  0  0  0  0  0  0  0  0  0  0
   24.8820  -19.8245  -12.5743 C   0  0  2  0  0  0  0  0  0  0  0  0
   25.8512  -19.9152  -13.6171 N   0  0  0  0  0  0  0  0  0  0  0  0
   25.1875  -20.6940  -11.4112 C   0  0  0  0  0  0  0  0  0  0  0  0
   25.1314  -21.9473  -11.4425 O   0  0  0  0  0  0  0  0  0  0  0  0
   28.9508  -18.2868   -6.4510 C   0  0  0  0  0  0  0  0  0  0  0  0
   27.9242  -19.4952   -5.6663 S   0  0  0  0  0  0  0  0  0  0  0  0
   26.9515  -20.5535   -6.7124 C   0  0  0  0  0  0  0  0  0  0  0  0
   26.6252  -19.9648   -8.0357 C   0  0  0  0  0  0  0  0  0  0  0  0
   25.8262  -20.8130   -8.9671 C   0  0  2  0  0  0  0  0  0  0  0  0
   25.5628  -20.0590  -10.2020 N   0  0  0  0  0  0  0  0  0  0  0  0
   24.5437  -21.2541   -8.4034 C   0  0  0  0  0  0  0  0  0  0  0  0
   23.4555  -20.8341   -8.8342 O   0  0  0  0  0  0  0  0  0  0  0  0
   24.5054  -22.1618   -7.3623 O   0  0  0  0  0  0  0  0  0  0  0  0
  2  1  1  0
  2  3  2  0
  4  2  1  0
  5  4  1  0
  5  6  1  6
  7  8  2  0
  7  5  1  0
  9 10  1  0
 10 11  2  0
 10 12  1  0
 13 12  1  6
 13 15  1  0
 13 14  1  0
 14  7  1  0
 15 22  1  0
 16 15  2  0
 18 17  1  0
 19 18  1  0
 21 20  1  1
 20 19  1  0
 21 23  1  0
 22 21  1  0
 23 24  2  0
 23 25  1  0
M  END
$$$$
