NNM.pdb
     RDKit          3D

 25 24  0  0  1  0  0  0  0  0999 V2000
   29.1055  -21.8890  -17.4375 N   0  0  0  0  0  0  0  0  0  0  0  0
   29.0193  -22.7567  -16.3022 C   0  0  0  0  0  0  0  0  0  0  0  0
   29.8473  -23.6734  -16.2047 O   0  0  0  0  0  0  0  0  0  0  0  0
   27.9788  -22.5299  -15.3241 C   0  0  0  0  0  0  0  0  0  0  0  0
   27.0297  -21.3883  -15.5850 C   0  0  2  0  0  0  0  0  0  0  0  0
   27.7871  -20.2006  -15.1725 N   0  0  0  0  0  0  0  0  0  0  0  0
   25.8543  -21.5672  -14.6990 C   0  0  0  0  0  0  0  0  0  0  0  0
   25.0975  -22.5410  -14.8664 O   0  0  0  0  0  0  0  0  0  0  0  0
   25.9494  -21.2919  -10.0188 N   0  0  0  0  0  0  0  0  0  0  0  0
   24.6422  -21.0633  -10.5203 C   0  0  0  0  0  0  0  0  0  0  0  0
   23.6733  -21.7098  -10.0521 O   0  0  0  0  0  0  0  0  0  0  0  0
   24.3986  -20.0807  -11.5813 C   0  0  0  0  0  0  0  0  0  0  0  0
   24.3229  -20.8445  -12.9088 C   0  0  2  0  0  0  0  0  0  0  0  0
   25.5328  -20.6706  -13.6441 N   0  0  0  0  0  0  0  0  0  0  0  0
   23.1236  -20.3422  -13.6241 C   0  0  0  0  0  0  0  0  0  0  0  0
   23.0287  -19.1853  -14.1011 O   0  0  0  0  0  0  0  0  0  0  0  0
   19.3846  -24.6683  -17.1369 C   0  0  0  0  0  0  0  0  0  0  0  0
   19.1340  -22.9906  -17.6396 S   0  0  0  0  0  0  0  0  0  0  0  0
   19.3646  -21.7215  -16.4162 C   0  0  0  0  0  0  0  0  0  0  0  0
   20.5504  -21.9254  -15.5465 C   0  0  0  0  0  0  0  0  0  0  0  0
   20.8209  -20.8718  -14.5256 C   0  0  2  0  0  0  0  0  0  0  0  0
   22.0302  -21.2307  -13.7693 N   0  0  0  0  0  0  0  0  0  0  0  0
   19.7154  -20.6761  -13.5786 C   0  0  0  0  0  0  0  0  0  0  0  0
   19.6725  -21.2663  -12.4850 O   0  0  0  0  0  0  0  0  0  0  0  0
   18.6740  -19.8185  -13.8773 O   0  0  0  0  0  0  0  0  0  0  0  0
  2  1  1  0
  2  3  2  0
  4  2  1  0
  5  4  1  0
  5  6  1  1
  7  8  2  0
  7  5  1  0
  9 10  1  0
 10 11  2  0
 10 12  1  0
 13 12  1  1
 13 15  1  0
 13 14  1  0
 14  7  1  0
 15 22  1  0
 16 15  2  0
 18 17  1  0
 19 18  1  0
 21 20  1  6
 20 19  1  0
 21 23  1  0
 22 21  1  0
 23 24  2  0
 23 25  1  0
M  END
$$$$
