DAI.pdb
     RDKit          3D

 22 21  0  0  1  0  0  0  0  0999 V2000
   20.6716  -12.8591  -17.2568 N   0  0  0  0  0  0  0  0  0  0  0  0
   19.8145  -12.0580  -16.4107 C   0  0  1  0  0  0  0  0  0  0  0  0
   18.8988  -13.0047  -15.6617 C   0  0  0  0  0  0  0  0  0  0  0  0
   18.1400  -13.7680  -16.6845 C   0  0  0  0  0  0  0  0  0  0  0  0
   17.1731  -13.2222  -17.2769 O   0  0  0  0  0  0  0  0  0  0  0  0
   20.6432  -11.2209  -15.5449 C   0  0  0  0  0  0  0  0  0  0  0  0
   20.1102  -10.5689  -14.6132 O   0  0  0  0  0  0  0  0  0  0  0  0
   18.4624  -15.0692  -17.0098 O   0  0  0  0  0  0  0  0  0  0  0  0
   24.2622  -10.3567  -15.1244 C   0  0  0  0  0  0  0  0  0  0  0  0
   22.7943  -10.0836  -14.9460 C   0  0  2  0  0  0  0  0  0  0  0  0
   22.0573  -11.0869  -15.6864 N   0  0  0  0  0  0  0  0  0  0  0  0
   22.4417   -8.6950  -15.4054 C   0  0  0  0  0  0  0  0  0  0  0  0
   22.3511   -8.5562  -16.6399 O   0  0  0  0  0  0  0  0  0  0  0  0
   18.7561   -4.6451  -16.4712 C   0  0  0  0  0  0  0  0  0  0  0  0
   20.1557   -4.7006  -15.8289 C   0  0  0  0  0  0  0  0  0  0  0  0
   20.4892   -6.0913  -15.4102 C   0  0  2  0  0  0  0  0  0  0  0  0
   19.3713   -6.5718  -14.5084 C   0  0  0  0  0  0  0  0  0  0  0  0
   21.8456   -6.2934  -14.8135 C   0  0  2  0  0  0  0  0  0  0  0  0
   22.2317   -7.6424  -14.5269 N   0  0  0  0  0  0  0  0  0  0  0  0
   22.3010   -5.3010  -13.8595 C   0  0  0  0  0  0  0  0  0  0  0  0
   22.4079   -3.9575  -14.0270 O   0  0  0  0  0  0  0  0  0  0  0  0
   22.6493   -5.7483  -12.7029 O   0  0  0  0  0  0  0  0  0  0  0  0
  2  6  1  0
  2  1  1  6
  2  3  1  0
  3  4  1  0
  4  5  2  0
  4  8  1  0
  6  7  2  0
 10  9  1  6
 10 12  1  0
 11 10  1  0
 11  6  1  0
 12 19  1  0
 12 13  2  0
 15 14  1  0
 16 15  1  0
 16 17  1  1
 18 16  1  0
 18 19  1  1
 20 21  1  0
 20 18  1  0
 22 20  2  0
M  END
$$$$
