DAI.pdb
     RDKit          3D

 22 21  0  0  1  0  0  0  0  0999 V2000
   18.2066  -14.6491  -17.7999 N   0  0  0  0  0  0  0  0  0  0  0  0
   17.4739  -13.4306  -17.5344 C   0  0  1  0  0  0  0  0  0  0  0  0
   16.8039  -13.5859  -16.1843 C   0  0  0  0  0  0  0  0  0  0  0  0
   15.7123  -14.5774  -16.3576 C   0  0  0  0  0  0  0  0  0  0  0  0
   15.6134  -15.5400  -15.5530 O   0  0  0  0  0  0  0  0  0  0  0  0
   18.3888  -12.2935  -17.6183 C   0  0  0  0  0  0  0  0  0  0  0  0
   19.5219  -12.3647  -17.0816 O   0  0  0  0  0  0  0  0  0  0  0  0
   14.7940  -14.4780  -17.3822 O   0  0  0  0  0  0  0  0  0  0  0  0
   18.5068   -8.9688  -19.3385 C   0  0  0  0  0  0  0  0  0  0  0  0
   19.0541  -10.0071  -18.3985 C   0  0  2  0  0  0  0  0  0  0  0  0
   18.0777  -11.0710  -18.2865 N   0  0  0  0  0  0  0  0  0  0  0  0
   19.3690   -9.4090  -17.0543 C   0  0  0  0  0  0  0  0  0  0  0  0
   18.4452   -9.4713  -16.2212 O   0  0  0  0  0  0  0  0  0  0  0  0
   23.6149  -10.9671  -14.4205 C   0  0  0  0  0  0  0  0  0  0  0  0
   22.2649  -10.4295  -14.9332 C   0  0  0  0  0  0  0  0  0  0  0  0
   22.2369   -8.9404  -14.8834 C   0  0  2  0  0  0  0  0  0  0  0  0
   22.4356   -8.5330  -13.4383 C   0  0  0  0  0  0  0  0  0  0  0  0
   21.0528   -8.2813  -15.5161 C   0  0  2  0  0  0  0  0  0  0  0  0
   20.5936   -8.8295  -16.7569 N   0  0  0  0  0  0  0  0  0  0  0  0
   20.9627   -6.8385  -15.4033 C   0  0  0  0  0  0  0  0  0  0  0  0
   20.5792   -6.0991  -14.3306 O   0  0  0  0  0  0  0  0  0  0  0  0
   21.2882   -6.1690  -16.4545 O   0  0  0  0  0  0  0  0  0  0  0  0
  2  6  1  0
  2  1  1  1
  2  3  1  0
  3  4  1  0
  4  5  2  0
  4  8  1  0
  6  7  2  0
 10  9  1  6
 10 12  1  0
 11 10  1  0
 11  6  1  0
 12 19  1  0
 12 13  2  0
 15 14  1  0
 16 15  1  0
 16 17  1  1
 18 16  1  0
 18 19  1  6
 20 21  1  0
 20 18  1  0
 22 20  2  0
M  END
$$$$
