DAI.pdb
     RDKit          3D

 22 21  0  0  1  0  0  0  0  0999 V2000
   13.1972  -23.1232   -0.0571 N   0  0  0  0  0  0  0  0  0  0  0  0
   14.4695  -22.9173   -0.7137 C   0  0  1  0  0  0  0  0  0  0  0  0
   15.4882  -22.5871    0.3583 C   0  0  0  0  0  0  0  0  0  0  0  0
   15.2680  -21.1687    0.7382 C   0  0  0  0  0  0  0  0  0  0  0  0
   14.3618  -20.5062    0.1691 O   0  0  0  0  0  0  0  0  0  0  0  0
   14.7984  -24.1028   -1.5033 C   0  0  0  0  0  0  0  0  0  0  0  0
   14.8707  -25.2243   -0.9429 O   0  0  0  0  0  0  0  0  0  0  0  0
   16.0319  -20.5463    1.7036 O   0  0  0  0  0  0  0  0  0  0  0  0
   15.2073  -25.0079   -5.1032 C   0  0  0  0  0  0  0  0  0  0  0  0
   15.3751  -25.2868   -3.6352 C   0  0  2  0  0  0  0  0  0  0  0  0
   15.0511  -24.0767   -2.9080 N   0  0  0  0  0  0  0  0  0  0  0  0
   16.7724  -25.7526   -3.3283 C   0  0  0  0  0  0  0  0  0  0  0  0
   17.6441  -24.8639   -3.3684 O   0  0  0  0  0  0  0  0  0  0  0  0
   19.0485  -26.8928    1.0392 C   0  0  0  0  0  0  0  0  0  0  0  0
   18.7307  -26.5718   -0.4340 C   0  0  0  0  0  0  0  0  0  0  0  0
   18.6522  -27.8219   -1.2412 C   0  0  2  0  0  0  0  0  0  0  0  0
   19.9299  -28.5978   -0.9977 C   0  0  0  0  0  0  0  0  0  0  0  0
   18.3437  -27.6507   -2.6946 C   0  0  2  0  0  0  0  0  0  0  0  0
   17.0759  -27.0711   -3.0228 N   0  0  0  0  0  0  0  0  0  0  0  0
   18.8019  -28.6922   -3.5932 C   0  0  0  0  0  0  0  0  0  0  0  0
   18.0604  -29.5049   -4.3896 O   0  0  0  0  0  0  0  0  0  0  0  0
   20.0764  -28.8717   -3.6456 O   0  0  0  0  0  0  0  0  0  0  0  0
  2  6  1  0
  2  1  1  1
  2  3  1  0
  3  4  1  0
  4  5  2  0
  4  8  1  0
  6  7  2  0
 10  9  1  6
 10 12  1  0
 11 10  1  0
 11  6  1  0
 12 19  1  0
 12 13  2  0
 15 14  1  0
 16 15  1  0
 16 17  1  6
 18 16  1  0
 18 19  1  1
 20 21  1  0
 20 18  1  0
 22 20  2  0
M  END
$$$$
