DAI.pdb
     RDKit          3D

 22 21  0  0  1  0  0  0  0  0999 V2000
   16.9638  -11.6608  -17.5101 N   0  0  0  0  0  0  0  0  0  0  0  0
   16.7327  -10.3892  -16.8606 C   0  0  1  0  0  0  0  0  0  0  0  0
   16.2194  -10.6766  -15.4643 C   0  0  0  0  0  0  0  0  0  0  0  0
   14.7382  -10.7314  -15.5536 C   0  0  0  0  0  0  0  0  0  0  0  0
   14.0507  -10.7073  -14.4998 O   0  0  0  0  0  0  0  0  0  0  0  0
   17.9654   -9.6040  -16.8924 C   0  0  0  0  0  0  0  0  0  0  0  0
   19.0322  -10.1012  -16.4543 O   0  0  0  0  0  0  0  0  0  0  0  0
   14.0841  -10.8096  -16.7655 O   0  0  0  0  0  0  0  0  0  0  0  0
   19.1067   -6.2869  -18.2029 C   0  0  0  0  0  0  0  0  0  0  0  0
   19.2978   -7.5430  -17.3987 C   0  0  2  0  0  0  0  0  0  0  0  0
   18.0465   -8.2726  -17.4007 N   0  0  0  0  0  0  0  0  0  0  0  0
   19.7448   -7.2265  -15.9973 C   0  0  0  0  0  0  0  0  0  0  0  0
   18.8233   -7.0418  -15.1800 O   0  0  0  0  0  0  0  0  0  0  0  0
   22.8563  -10.4622  -13.4496 C   0  0  0  0  0  0  0  0  0  0  0  0
   21.9178   -9.3971  -14.0487 C   0  0  0  0  0  0  0  0  0  0  0  0
   22.3844   -8.0259  -13.6987 C   0  0  2  0  0  0  0  0  0  0  0  0
   22.4062   -7.9283  -12.1875 C   0  0  0  0  0  0  0  0  0  0  0  0
   21.6501   -6.8941  -14.3442 C   0  0  2  0  0  0  0  0  0  0  0  0
   21.0810   -7.1444  -15.6344 N   0  0  0  0  0  0  0  0  0  0  0  0
   22.1897   -5.5623  -14.1510 C   0  0  0  0  0  0  0  0  0  0  0  0
   22.2177   -4.8208  -13.0135 O   0  0  0  0  0  0  0  0  0  0  0  0
   22.7110   -5.0086  -15.1907 O   0  0  0  0  0  0  0  0  0  0  0  0
  2  6  1  0
  2  1  1  1
  2  3  1  0
  3  4  1  0
  4  5  2  0
  4  8  1  0
  6  7  2  0
 10  9  1  6
 10 12  1  0
 11 10  1  0
 11  6  1  0
 12 19  1  0
 12 13  2  0
 15 14  1  0
 16 15  1  0
 16 17  1  1
 18 16  1  0
 18 19  1  6
 20 21  1  0
 20 18  1  0
 22 20  2  0
M  END
$$$$
