DAI.pdb
     RDKit          3D

 22 21  0  0  1  0  0  0  0  0999 V2000
   24.0078  -22.3526  -12.8740 N   0  0  0  0  0  0  0  0  0  0  0  0
   24.3618  -21.1207  -12.2037 C   0  0  1  0  0  0  0  0  0  0  0  0
   23.0947  -20.5483  -11.6016 C   0  0  0  0  0  0  0  0  0  0  0  0
   22.2707  -20.0468  -12.7304 C   0  0  0  0  0  0  0  0  0  0  0  0
   21.0539  -20.3608  -12.7994 O   0  0  0  0  0  0  0  0  0  0  0  0
   25.4156  -21.3921  -11.2275 C   0  0  0  0  0  0  0  0  0  0  0  0
   25.2236  -22.2429  -10.3239 O   0  0  0  0  0  0  0  0  0  0  0  0
   22.8001  -19.2408  -13.7167 O   0  0  0  0  0  0  0  0  0  0  0  0
   29.0257  -20.6154  -10.7600 C   0  0  0  0  0  0  0  0  0  0  0  0
   27.6877  -21.0488  -10.2280 C   0  0  2  0  0  0  0  0  0  0  0  0
   26.6855  -20.7401  -11.2272 N   0  0  0  0  0  0  0  0  0  0  0  0
   27.3810  -20.3748   -8.9183 C   0  0  0  0  0  0  0  0  0  0  0  0
   26.5593  -19.4413   -8.9865 O   0  0  0  0  0  0  0  0  0  0  0  0
   28.5722  -21.2960   -2.8019 C   0  0  0  0  0  0  0  0  0  0  0  0
   28.0155  -20.3859   -3.9138 C   0  0  0  0  0  0  0  0  0  0  0  0
   28.3270  -20.9457   -5.2591 C   0  0  2  0  0  0  0  0  0  0  0  0
   29.8123  -21.2399   -5.2930 C   0  0  0  0  0  0  0  0  0  0  0  0
   27.8667  -20.1399   -6.4319 C   0  0  2  0  0  0  0  0  0  0  0  0
   27.9654  -20.7578   -7.7201 N   0  0  0  0  0  0  0  0  0  0  0  0
   28.1420  -18.7166   -6.4030 C   0  0  0  0  0  0  0  0  0  0  0  0
   29.0715  -18.0231   -7.1099 O   0  0  0  0  0  0  0  0  0  0  0  0
   27.4118  -18.0169   -5.6052 O   0  0  0  0  0  0  0  0  0  0  0  0
  2  6  1  0
  2  1  1  1
  2  3  1  0
  3  4  1  0
  4  5  2  0
  4  8  1  0
  6  7  2  0
 10  9  1  6
 10 12  1  0
 11 10  1  0
 11  6  1  0
 12 19  1  0
 12 13  2  0
 15 14  1  0
 16 15  1  0
 16 17  1  6
 18 16  1  0
 18 19  1  6
 20 21  1  0
 20 18  1  0
 22 20  2  0
M  END
$$$$
