DAI.pdb
     RDKit          3D

 22 21  0  0  1  0  0  0  0  0999 V2000
   22.4603   -3.3288  -20.0327 N   0  0  0  0  0  0  0  0  0  0  0  0
   21.3080   -4.1975  -19.9333 C   0  0  1  0  0  0  0  0  0  0  0  0
   21.6022   -5.4409  -20.7477 C   0  0  0  0  0  0  0  0  0  0  0  0
   21.4709   -5.0599  -22.1767 C   0  0  0  0  0  0  0  0  0  0  0  0
   20.3757   -4.6082  -22.6014 O   0  0  0  0  0  0  0  0  0  0  0  0
   21.0273   -4.4614  -18.5231 C   0  0  0  0  0  0  0  0  0  0  0  0
   21.9652   -4.4485  -17.6881 O   0  0  0  0  0  0  0  0  0  0  0  0
   22.5198   -5.1865  -23.0636 O   0  0  0  0  0  0  0  0  0  0  0  0
   18.0749   -4.6309  -16.2858 C   0  0  0  0  0  0  0  0  0  0  0  0
   19.5063   -4.9699  -16.5976 C   0  0  2  0  0  0  0  0  0  0  0  0
   19.7245   -4.7414  -18.0112 N   0  0  0  0  0  0  0  0  0  0  0  0
   19.8218   -6.3911  -16.2175 C   0  0  0  0  0  0  0  0  0  0  0  0
   20.0397   -7.1562  -17.1759 O   0  0  0  0  0  0  0  0  0  0  0  0
   23.0965  -10.5744  -14.3784 C   0  0  0  0  0  0  0  0  0  0  0  0
   21.6352  -10.1347  -14.1650 C   0  0  0  0  0  0  0  0  0  0  0  0
   21.4732   -8.6825  -14.4567 C   0  0  2  0  0  0  0  0  0  0  0  0
   22.4307   -7.9312  -13.5553 C   0  0  0  0  0  0  0  0  0  0  0  0
   20.0774   -8.1489  -14.3960 C   0  0  2  0  0  0  0  0  0  0  0  0
   19.8683   -6.8252  -14.9010 N   0  0  0  0  0  0  0  0  0  0  0  0
   19.2861   -8.5023  -13.2335 C   0  0  0  0  0  0  0  0  0  0  0  0
   18.8089   -9.7232  -12.8780 O   0  0  0  0  0  0  0  0  0  0  0  0
   18.9975   -7.5358  -12.4325 O   0  0  0  0  0  0  0  0  0  0  0  0
  2  6  1  0
  2  1  1  1
  2  3  1  0
  3  4  1  0
  4  5  2  0
  4  8  1  0
  6  7  2  0
 10  9  1  6
 10 12  1  0
 11 10  1  0
 11  6  1  0
 12 19  1  0
 12 13  2  0
 15 14  1  0
 16 15  1  0
 16 17  1  1
 18 16  1  0
 18 19  1  1
 20 21  1  0
 20 18  1  0
 22 20  2  0
M  END
$$$$
