DAI.pdb
     RDKit          3D

 22 21  0  0  1  0  0  0  0  0999 V2000
   19.7061  -12.4911  -19.3930 N   0  0  0  0  0  0  0  0  0  0  0  0
   20.0381  -12.2540  -18.0053 C   0  0  1  0  0  0  0  0  0  0  0  0
   21.4814  -12.6690  -17.8039 C   0  0  0  0  0  0  0  0  0  0  0  0
   21.4814  -14.1400  -17.6014 C   0  0  0  0  0  0  0  0  0  0  0  0
   20.3914  -14.7426  -17.4213 O   0  0  0  0  0  0  0  0  0  0  0  0
   19.7699  -10.8540  -17.6810 C   0  0  0  0  0  0  0  0  0  0  0  0
   20.2344   -9.9450  -18.4125 O   0  0  0  0  0  0  0  0  0  0  0  0
   22.6485  -14.8753  -17.6032 O   0  0  0  0  0  0  0  0  0  0  0  0
   17.6221   -8.8813  -15.3675 C   0  0  0  0  0  0  0  0  0  0  0  0
   18.8392   -9.0289  -16.2381 C   0  0  2  0  0  0  0  0  0  0  0  0
   18.9947  -10.4328  -16.5588 N   0  0  0  0  0  0  0  0  0  0  0  0
   20.0638   -8.4845  -15.5541 C   0  0  0  0  0  0  0  0  0  0  0  0
   20.6833   -9.3058  -14.8519 O   0  0  0  0  0  0  0  0  0  0  0  0
   23.4655   -5.4959  -18.4276 C   0  0  0  0  0  0  0  0  0  0  0  0
   22.8009   -6.4660  -17.4317 C   0  0  0  0  0  0  0  0  0  0  0  0
   22.4982   -5.7765  -16.1458 C   0  0  2  0  0  0  0  0  0  0  0  0
   23.8171   -5.3231  -15.5551 C   0  0  0  0  0  0  0  0  0  0  0  0
   21.6553   -6.5366  -15.1720 C   0  0  2  0  0  0  0  0  0  0  0  0
   20.4788   -7.1680  -15.6898 N   0  0  0  0  0  0  0  0  0  0  0  0
   21.5272   -5.9831  -13.8380 C   0  0  0  0  0  0  0  0  0  0  0  0
   20.4058   -5.5392  -13.2135 O   0  0  0  0  0  0  0  0  0  0  0  0
   22.6158   -5.9012  -13.1543 O   0  0  0  0  0  0  0  0  0  0  0  0
  2  6  1  0
  2  1  1  6
  2  3  1  0
  3  4  1  0
  4  5  2  0
  4  8  1  0
  6  7  2  0
 10  9  1  1
 10 12  1  0
 11 10  1  0
 11  6  1  0
 12 19  1  0
 12 13  2  0
 15 14  1  0
 16 15  1  0
 16 17  1  1
 18 16  1  0
 18 19  1  6
 20 21  1  0
 20 18  1  0
 22 20  2  0
M  END
$$$$
