DAI.pdb
     RDKit          3D

 22 21  0  0  1  0  0  0  0  0999 V2000
   15.0675   -8.2904   -8.3459 N   0  0  0  0  0  0  0  0  0  0  0  0
   15.1367   -7.4963   -9.5530 C   0  0  1  0  0  0  0  0  0  0  0  0
   15.6156   -6.1129   -9.1624 C   0  0  0  0  0  0  0  0  0  0  0  0
   14.4469   -5.3996   -8.5880 C   0  0  0  0  0  0  0  0  0  0  0  0
   13.3517   -5.4010   -9.2080 O   0  0  0  0  0  0  0  0  0  0  0  0
   15.9964   -8.1728  -10.5227 C   0  0  0  0  0  0  0  0  0  0  0  0
   17.1199   -8.6047  -10.1646 O   0  0  0  0  0  0  0  0  0  0  0  0
   14.5225   -4.7279   -7.3855 O   0  0  0  0  0  0  0  0  0  0  0  0
   15.7639   -9.6234  -13.9282 C   0  0  0  0  0  0  0  0  0  0  0  0
   16.5646   -8.9985  -12.8194 C   0  0  2  0  0  0  0  0  0  0  0  0
   15.6402   -8.3841  -11.8888 N   0  0  0  0  0  0  0  0  0  0  0  0
   17.5465   -7.9944  -13.3593 C   0  0  0  0  0  0  0  0  0  0  0  0
   17.1374   -6.8182  -13.3824 O   0  0  0  0  0  0  0  0  0  0  0  0
   22.1643   -4.9962  -13.1793 C   0  0  0  0  0  0  0  0  0  0  0  0
   22.0661   -6.3247  -13.9538 C   0  0  0  0  0  0  0  0  0  0  0  0
   20.9842   -7.1829  -13.3942 C   0  0  2  0  0  0  0  0  0  0  0  0
   21.6414   -8.4196  -12.8175 C   0  0  0  0  0  0  0  0  0  0  0  0
   19.8517   -7.5028  -14.3171 C   0  0  2  0  0  0  0  0  0  0  0  0
   18.8141   -8.3440  -13.8006 N   0  0  0  0  0  0  0  0  0  0  0  0
   20.1775   -7.7057  -15.7153 C   0  0  0  0  0  0  0  0  0  0  0  0
   19.9044   -8.7822  -16.4970 O   0  0  0  0  0  0  0  0  0  0  0  0
   20.8069   -6.7420  -16.2936 O   0  0  0  0  0  0  0  0  0  0  0  0
  2  6  1  0
  2  1  1  1
  2  3  1  0
  3  4  1  0
  4  5  2  0
  4  8  1  0
  6  7  2  0
 10  9  1  6
 10 12  1  0
 11 10  1  0
 11  6  1  0
 12 19  1  0
 12 13  2  0
 15 14  1  0
 16 15  1  0
 16 17  1  6
 18 16  1  0
 18 19  1  1
 20 21  1  0
 20 18  1  0
 22 20  2  0
M  END
$$$$
