DAI.pdb
     RDKit          3D

 22 21  0  0  1  0  0  0  0  0999 V2000
   17.8634  -12.1064  -18.3575 N   0  0  0  0  0  0  0  0  0  0  0  0
   17.2511  -11.2484  -17.3670 C   0  0  1  0  0  0  0  0  0  0  0  0
   17.2136  -12.0143  -16.0602 C   0  0  0  0  0  0  0  0  0  0  0  0
   16.1171  -13.0087  -16.1760 C   0  0  0  0  0  0  0  0  0  0  0  0
   15.0607  -12.7007  -16.7867 O   0  0  0  0  0  0  0  0  0  0  0  0
   17.9923   -9.9901  -17.2992 C   0  0  0  0  0  0  0  0  0  0  0  0
   19.2403   -9.9939  -17.4390 O   0  0  0  0  0  0  0  0  0  0  0  0
   16.2184  -14.2715  -15.6301 O   0  0  0  0  0  0  0  0  0  0  0  0
   17.2388   -6.3401  -16.9035 C   0  0  0  0  0  0  0  0  0  0  0  0
   18.1765   -7.5143  -16.9593 C   0  0  2  0  0  0  0  0  0  0  0  0
   17.3812   -8.7190  -17.0788 N   0  0  0  0  0  0  0  0  0  0  0  0
   19.0606   -7.5601  -15.7428 C   0  0  0  0  0  0  0  0  0  0  0  0
   18.5745   -8.1528  -14.7610 O   0  0  0  0  0  0  0  0  0  0  0  0
   23.8540   -9.7677  -13.5640 C   0  0  0  0  0  0  0  0  0  0  0  0
   23.1257   -8.4104  -13.5222 C   0  0  0  0  0  0  0  0  0  0  0  0
   22.1951   -8.2753  -14.6781 C   0  0  2  0  0  0  0  0  0  0  0  0
   23.0208   -8.4091  -15.9407 C   0  0  0  0  0  0  0  0  0  0  0  0
   21.3190   -7.0632  -14.6817 C   0  0  2  0  0  0  0  0  0  0  0  0
   20.3235   -6.9876  -15.7085 N   0  0  0  0  0  0  0  0  0  0  0  0
   21.9368   -5.8018  -14.3216 C   0  0  0  0  0  0  0  0  0  0  0  0
   21.9731   -4.6468  -15.0350 O   0  0  0  0  0  0  0  0  0  0  0  0
   22.5277   -5.7695  -13.1775 O   0  0  0  0  0  0  0  0  0  0  0  0
  2  6  1  0
  2  1  1  6
  2  3  1  0
  3  4  1  0
  4  5  2  0
  4  8  1  0
  6  7  2  0
 10  9  1  1
 10 12  1  0
 11 10  1  0
 11  6  1  0
 12 19  1  0
 12 13  2  0
 15 14  1  0
 16 15  1  0
 16 17  1  6
 18 16  1  0
 18 19  1  6
 20 21  1  0
 20 18  1  0
 22 20  2  0
M  END
$$$$
