DAI.pdb
     RDKit          3D

 22 21  0  0  1  0  0  0  0  0999 V2000
   16.7760  -12.3309  -17.2905 N   0  0  0  0  0  0  0  0  0  0  0  0
   16.4166  -11.4401  -16.2091 C   0  0  1  0  0  0  0  0  0  0  0  0
   16.5807  -12.2067  -14.9125 C   0  0  0  0  0  0  0  0  0  0  0  0
   15.4823  -13.2045  -14.8611 C   0  0  0  0  0  0  0  0  0  0  0  0
   14.3262  -12.8760  -15.2344 O   0  0  0  0  0  0  0  0  0  0  0  0
   17.2331  -10.2304  -16.2935 C   0  0  0  0  0  0  0  0  0  0  0  0
   18.4578  -10.3224  -16.5555 O   0  0  0  0  0  0  0  0  0  0  0  0
   15.6887  -14.4925  -14.4124 O   0  0  0  0  0  0  0  0  0  0  0  0
   16.7224   -6.5227  -16.0668 C   0  0  0  0  0  0  0  0  0  0  0  0
   17.5788   -7.7498  -16.2149 C   0  0  2  0  0  0  0  0  0  0  0  0
   16.7232   -8.9122  -16.0934 N   0  0  0  0  0  0  0  0  0  0  0  0
   18.6789   -7.7699  -15.1887 C   0  0  0  0  0  0  0  0  0  0  0  0
   18.3455   -8.1995  -14.0681 O   0  0  0  0  0  0  0  0  0  0  0  0
   23.9322   -9.9437  -13.9406 C   0  0  0  0  0  0  0  0  0  0  0  0
   23.2174   -8.5816  -13.8502 C   0  0  0  0  0  0  0  0  0  0  0  0
   22.0538   -8.5338  -14.7797 C   0  0  2  0  0  0  0  0  0  0  0  0
   22.5955   -8.6610  -16.1884 C   0  0  0  0  0  0  0  0  0  0  0  0
   21.1258   -7.3724  -14.6160 C   0  0  2  0  0  0  0  0  0  0  0  0
   19.9703   -7.3436  -15.4616 N   0  0  0  0  0  0  0  0  0  0  0  0
   21.7265   -6.0818  -14.3410 C   0  0  0  0  0  0  0  0  0  0  0  0
   21.5458   -4.9096  -15.0027 O   0  0  0  0  0  0  0  0  0  0  0  0
   22.5362   -6.0382  -13.3402 O   0  0  0  0  0  0  0  0  0  0  0  0
  2  6  1  0
  2  1  1  6
  2  3  1  0
  3  4  1  0
  4  5  2  0
  4  8  1  0
  6  7  2  0
 10  9  1  1
 10 12  1  0
 11 10  1  0
 11  6  1  0
 12 19  1  0
 12 13  2  0
 15 14  1  0
 16 15  1  0
 16 17  1  6
 18 16  1  0
 18 19  1  6
 20 21  1  0
 20 18  1  0
 22 20  2  0
M  END
$$$$
