DAI.pdb
     RDKit          3D

 22 21  0  0  1  0  0  0  0  0999 V2000
   16.8867  -11.3397  -17.6321 N   0  0  0  0  0  0  0  0  0  0  0  0
   16.6593  -10.6338  -16.3902 C   0  0  1  0  0  0  0  0  0  0  0  0
   16.9905  -11.5843  -15.2577 C   0  0  0  0  0  0  0  0  0  0  0  0
   15.9118  -12.6041  -15.2230 C   0  0  0  0  0  0  0  0  0  0  0  0
   14.7118  -12.2439  -15.3417 O   0  0  0  0  0  0  0  0  0  0  0  0
   17.4498   -9.4041  -16.3865 C   0  0  0  0  0  0  0  0  0  0  0  0
   18.6611   -9.4411  -16.7160 O   0  0  0  0  0  0  0  0  0  0  0  0
   16.1839  -13.9469  -15.0626 O   0  0  0  0  0  0  0  0  0  0  0  0
   16.9077   -5.7557  -15.7180 C   0  0  0  0  0  0  0  0  0  0  0  0
   17.7784   -6.9535  -15.9790 C   0  0  2  0  0  0  0  0  0  0  0  0
   16.9284   -8.1255  -16.0243 N   0  0  0  0  0  0  0  0  0  0  0  0
   18.8430   -7.0896  -14.9245 C   0  0  0  0  0  0  0  0  0  0  0  0
   18.4898   -7.6955  -13.8952 O   0  0  0  0  0  0  0  0  0  0  0  0
   23.6335   -9.7634  -13.5358 C   0  0  0  0  0  0  0  0  0  0  0  0
   23.0641   -8.3409  -13.3722 C   0  0  0  0  0  0  0  0  0  0  0  0
   21.9687   -8.0952  -14.3520 C   0  0  2  0  0  0  0  0  0  0  0  0
   22.5305   -8.3600  -15.7334 C   0  0  0  0  0  0  0  0  0  0  0  0
   21.2756   -6.7739  -14.2494 C   0  0  2  0  0  0  0  0  0  0  0  0
   20.1242   -6.5813  -15.0790 N   0  0  0  0  0  0  0  0  0  0  0  0
   22.1113   -5.6034  -14.0651 C   0  0  0  0  0  0  0  0  0  0  0  0
   22.8445   -5.2539  -12.9766 O   0  0  0  0  0  0  0  0  0  0  0  0
   22.1679   -4.7883  -15.0609 O   0  0  0  0  0  0  0  0  0  0  0  0
  2  6  1  0
  2  1  1  6
  2  3  1  0
  3  4  1  0
  4  5  2  0
  4  8  1  0
  6  7  2  0
 10  9  1  1
 10 12  1  0
 11 10  1  0
 11  6  1  0
 12 19  1  0
 12 13  2  0
 15 14  1  0
 16 15  1  0
 16 17  1  6
 18 16  1  0
 18 19  1  6
 20 21  1  0
 20 18  1  0
 22 20  2  0
M  END
$$$$
