GQP.pdb
     RDKit          3D

 21 21  0  0  1  0  0  0  0  0999 V2000
    8.0638  -12.4218   19.3282 N   0  0  0  0  0  0  0  0  0  0  0  0
    8.4690  -13.6447   19.9524 C   0  0  0  0  0  0  0  0  0  0  0  0
    7.8282  -13.7855   21.3075 C   0  0  0  0  0  0  0  0  0  0  0  0
    7.2292  -12.8137   21.7868 O   0  0  0  0  0  0  0  0  0  0  0  0
    7.6492  -19.1022   24.1748 N   0  0  0  0  0  0  0  0  0  0  0  0
    6.7568  -18.4299   25.0787 C   0  0  0  0  0  0  0  0  0  0  0  0
    6.3397  -19.0893   26.0551 O   0  0  0  0  0  0  0  0  0  0  0  0
    6.3612  -16.9950   24.8325 C   0  0  0  0  0  0  0  0  0  0  0  0
    6.9197  -16.6322   23.4826 C   0  0  0  0  0  0  0  0  0  0  0  0
    7.3743  -15.2384   23.3200 C   0  0  2  0  0  0  0  0  0  0  0  0
    7.9162  -15.0087   22.0084 N   0  0  0  0  0  0  0  0  0  0  0  0
    8.1644  -14.6272   24.3890 C   0  0  0  0  0  0  0  0  0  0  0  0
    9.4055  -14.9651   24.4105 O   0  0  0  0  0  0  0  0  0  0  0  0
    7.7244  -13.7286   25.3763 N   0  0  0  0  0  0  0  0  0  0  0  0
    6.3417  -13.1928   25.3465 C   0  0  0  0  0  0  0  0  0  0  0  0
    6.4661  -11.8371   26.0061 C   0  0  0  0  0  0  0  0  0  0  0  0
    7.3397  -12.1988   27.1844 C   0  0  0  0  0  0  0  0  0  0  0  0
    8.3626  -13.1376   26.5212 C   0  0  1  0  0  0  0  0  0  0  0  0
    8.7306  -14.1054   27.5686 C   0  0  0  0  0  0  0  0  0  0  0  0
    9.5371  -13.7756   28.4592 O   0  0  0  0  0  0  0  0  0  0  0  0
    8.1964  -15.3773   27.5827 O   0  0  0  0  0  0  0  0  0  0  0  0
  2  1  1  0
  2  3  1  0
  3 11  1  0
  4  3  2  0
  5  6  1  0
  6  8  1  0
  7  6  2  0
  8  9  1  0
 10  9  1  1
 11 10  1  0
 12 10  1  0
 12 14  1  0
 13 12  2  0
 14 18  1  0
 15 14  1  0
 15 16  1  0
 16 17  1  0
 18 17  1  0
 18 19  1  1
 19 21  1  0
 20 19  2  0
M  END
$$$$
