GQP.pdb
     RDKit          3D

 21 21  0  0  1  0  0  0  0  0999 V2000
    8.7092  -12.5308   19.0395 N   0  0  0  0  0  0  0  0  0  0  0  0
    8.9332  -13.6715   19.8749 C   0  0  0  0  0  0  0  0  0  0  0  0
    8.1063  -13.5797   21.1297 C   0  0  0  0  0  0  0  0  0  0  0  0
    7.5739  -12.4988   21.4143 O   0  0  0  0  0  0  0  0  0  0  0  0
    7.0510  -19.1044   22.9384 N   0  0  0  0  0  0  0  0  0  0  0  0
    6.3232  -18.3055   23.8858 C   0  0  0  0  0  0  0  0  0  0  0  0
    5.2477  -18.7771   24.3138 O   0  0  0  0  0  0  0  0  0  0  0  0
    6.8592  -16.9649   24.3231 C   0  0  0  0  0  0  0  0  0  0  0  0
    6.3893  -15.9704   23.2954 C   0  0  0  0  0  0  0  0  0  0  0  0
    7.1846  -14.7340   23.1755 C   0  0  2  0  0  0  0  0  0  0  0  0
    7.9488  -14.7130   21.9580 N   0  0  0  0  0  0  0  0  0  0  0  0
    7.9362  -14.2656   24.3400 C   0  0  0  0  0  0  0  0  0  0  0  0
    9.1685  -14.6334   24.3770 O   0  0  0  0  0  0  0  0  0  0  0  0
    7.4685  -13.4733   25.4028 N   0  0  0  0  0  0  0  0  0  0  0  0
    6.0892  -12.9281   25.3870 C   0  0  0  0  0  0  0  0  0  0  0  0
    6.1975  -11.6504   26.1897 C   0  0  0  0  0  0  0  0  0  0  0  0
    7.0324  -12.1403   27.3496 C   0  0  0  0  0  0  0  0  0  0  0  0
    8.0725  -13.0107   26.6228 C   0  0  1  0  0  0  0  0  0  0  0  0
    8.4041  -14.0860   27.5730 C   0  0  0  0  0  0  0  0  0  0  0  0
    7.9116  -15.2202   27.4196 O   0  0  0  0  0  0  0  0  0  0  0  0
    9.2543  -13.8603   28.6357 O   0  0  0  0  0  0  0  0  0  0  0  0
  2  1  1  0
  2  3  1  0
  3 11  1  0
  4  3  2  0
  5  6  1  0
  6  8  1  0
  7  6  2  0
  8  9  1  0
 10  9  1  1
 11 10  1  0
 12 10  1  0
 12 14  1  0
 13 12  2  0
 14 18  1  0
 15 14  1  0
 15 16  1  0
 16 17  1  0
 18 17  1  0
 18 19  1  1
 19 21  1  0
 20 19  2  0
M  END
$$$$
