GQP.pdb
     RDKit          3D

 21 21  0  0  1  0  0  0  0  0999 V2000
    7.6435  -17.1999   19.3323 N   0  0  0  0  0  0  0  0  0  0  0  0
    8.3833  -16.6658   20.4353 C   0  0  0  0  0  0  0  0  0  0  0  0
    7.4556  -16.2682   21.5525 C   0  0  0  0  0  0  0  0  0  0  0  0
    6.2653  -16.6020   21.4854 O   0  0  0  0  0  0  0  0  0  0  0  0
    6.3314  -19.2435   25.9997 N   0  0  0  0  0  0  0  0  0  0  0  0
    7.5897  -18.5652   25.8521 C   0  0  0  0  0  0  0  0  0  0  0  0
    8.3692  -18.6025   26.8284 O   0  0  0  0  0  0  0  0  0  0  0  0
    7.9241  -17.8507   24.5662 C   0  0  0  0  0  0  0  0  0  0  0  0
    6.8574  -16.8054   24.3781 C   0  0  0  0  0  0  0  0  0  0  0  0
    7.3207  -15.4741   23.9438 C   0  0  2  0  0  0  0  0  0  0  0  0
    7.9469  -15.5282   22.6509 N   0  0  0  0  0  0  0  0  0  0  0  0
    8.0389  -14.6326   24.9012 C   0  0  0  0  0  0  0  0  0  0  0  0
    9.3185  -14.7650   24.8902 O   0  0  0  0  0  0  0  0  0  0  0  0
    7.4945  -13.7131   25.8144 N   0  0  0  0  0  0  0  0  0  0  0  0
    6.0339  -13.4571   25.8471 C   0  0  0  0  0  0  0  0  0  0  0  0
    5.9291  -12.0284   26.3332 C   0  0  0  0  0  0  0  0  0  0  0  0
    6.9321  -12.0622   27.4623 C   0  0  0  0  0  0  0  0  0  0  0  0
    8.0758  -12.8685   26.8223 C   0  0  1  0  0  0  0  0  0  0  0  0
    8.6965  -13.6048   27.9367 C   0  0  0  0  0  0  0  0  0  0  0  0
    8.4784  -14.8243   28.0694 O   0  0  0  0  0  0  0  0  0  0  0  0
    9.5194  -12.9664   28.8415 O   0  0  0  0  0  0  0  0  0  0  0  0
  2  1  1  0
  2  3  1  0
  3 11  1  0
  4  3  2  0
  5  6  1  0
  6  8  1  0
  7  6  2  0
  8  9  1  0
 10  9  1  1
 11 10  1  0
 12 10  1  0
 12 14  1  0
 13 12  2  0
 14 18  1  0
 15 14  1  0
 15 16  1  0
 16 17  1  0
 18 17  1  0
 18 19  1  1
 19 21  1  0
 20 19  2  0
M  END
$$$$
