GQP.pdb
     RDKit          3D

 21 21  0  0  1  0  0  0  0  0999 V2000
    2.9994  -19.3032   21.7170 N   0  0  0  0  0  0  0  0  0  0  0  0
    4.3638  -19.2468   22.1467 C   0  0  0  0  0  0  0  0  0  0  0  0
    4.8557  -17.8239   22.1630 C   0  0  0  0  0  0  0  0  0  0  0  0
    4.0927  -16.9258   21.7835 O   0  0  0  0  0  0  0  0  0  0  0  0
    8.3889  -14.5555   25.9679 N   0  0  0  0  0  0  0  0  0  0  0  0
    9.0102  -15.7845   25.5567 C   0  0  0  0  0  0  0  0  0  0  0  0
   10.0798  -16.0940   26.1245 O   0  0  0  0  0  0  0  0  0  0  0  0
    8.3757  -16.6386   24.4872 C   0  0  0  0  0  0  0  0  0  0  0  0
    7.2429  -15.8260   23.9195 C   0  0  0  0  0  0  0  0  0  0  0  0
    6.7620  -16.2251   22.5834 C   0  0  2  0  0  0  0  0  0  0  0  0
    6.1653  -17.5328   22.6052 N   0  0  0  0  0  0  0  0  0  0  0  0
    7.6317  -16.0038   21.4279 C   0  0  0  0  0  0  0  0  0  0  0  0
    8.2283  -17.0545   20.9860 O   0  0  0  0  0  0  0  0  0  0  0  0
    7.8824  -14.7923   20.7606 N   0  0  0  0  0  0  0  0  0  0  0  0
    7.1759  -13.5508   21.1602 C   0  0  0  0  0  0  0  0  0  0  0  0
    7.1138  -12.7441   19.8820 C   0  0  0  0  0  0  0  0  0  0  0  0
    8.5263  -12.9369   19.3821 C   0  0  0  0  0  0  0  0  0  0  0  0
    8.7420  -14.4339   19.6653 C   0  0  1  0  0  0  0  0  0  0  0  0
   10.1785  -14.5650   19.9628 C   0  0  0  0  0  0  0  0  0  0  0  0
   10.5636  -14.6031   21.1470 O   0  0  0  0  0  0  0  0  0  0  0  0
   11.1111  -14.6470   18.9494 O   0  0  0  0  0  0  0  0  0  0  0  0
  2  1  1  0
  2  3  1  0
  3 11  1  0
  4  3  2  0
  5  6  1  0
  6  8  1  0
  7  6  2  0
  8  9  1  0
 10  9  1  1
 11 10  1  0
 12 10  1  0
 12 14  1  0
 13 12  2  0
 14 18  1  0
 15 14  1  0
 15 16  1  0
 16 17  1  0
 18 17  1  0
 18 19  1  1
 19 21  1  0
 20 19  2  0
M  END
$$$$
