GQP.pdb
     RDKit          3D

 21 21  0  0  1  0  0  0  0  0999 V2000
    3.3123  -18.7532   20.2320 N   0  0  0  0  0  0  0  0  0  0  0  0
    3.7003  -17.7517   21.1783 C   0  0  0  0  0  0  0  0  0  0  0  0
    5.0980  -17.2687   20.8955 C   0  0  0  0  0  0  0  0  0  0  0  0
    5.9379  -18.0819   20.4878 O   0  0  0  0  0  0  0  0  0  0  0  0
    7.5648  -13.7194   18.0986 N   0  0  0  0  0  0  0  0  0  0  0  0
    8.5453  -13.5219   19.1306 C   0  0  0  0  0  0  0  0  0  0  0  0
    9.7453  -13.5510   18.7824 O   0  0  0  0  0  0  0  0  0  0  0  0
    8.1137  -13.2925   20.5579 C   0  0  0  0  0  0  0  0  0  0  0  0
    6.7639  -13.9440   20.6972 C   0  0  0  0  0  0  0  0  0  0  0  0
    6.7664  -15.3806   21.0316 C   0  0  2  0  0  0  0  0  0  0  0  0
    5.4317  -15.9108   21.0957 N   0  0  0  0  0  0  0  0  0  0  0  0
    7.6289  -15.8485   22.1169 C   0  0  0  0  0  0  0  0  0  0  0  0
    7.1072  -15.7893   23.2914 O   0  0  0  0  0  0  0  0  0  0  0  0
    8.9400  -16.3458   22.0189 N   0  0  0  0  0  0  0  0  0  0  0  0
    9.5867  -16.5122   20.6945 C   0  0  0  0  0  0  0  0  0  0  0  0
   10.5523  -17.6573   20.9062 C   0  0  0  0  0  0  0  0  0  0  0  0
   11.1512  -17.2525   22.2327 C   0  0  0  0  0  0  0  0  0  0  0  0
    9.8995  -16.7846   22.9956 C   0  0  1  0  0  0  0  0  0  0  0  0
   10.3737  -15.7167   23.8922 C   0  0  0  0  0  0  0  0  0  0  0  0
   10.3439  -14.5309   23.5111 O   0  0  0  0  0  0  0  0  0  0  0  0
   10.8528  -16.0059   25.1532 O   0  0  0  0  0  0  0  0  0  0  0  0
  2  1  1  0
  2  3  1  0
  3 11  1  0
  4  3  2  0
  5  6  1  0
  6  8  1  0
  7  6  2  0
  8  9  1  0
 10  9  1  1
 11 10  1  0
 12 10  1  0
 12 14  1  0
 13 12  2  0
 14 18  1  0
 15 14  1  0
 15 16  1  0
 16 17  1  0
 18 17  1  0
 18 19  1  1
 19 21  1  0
 20 19  2  0
M  END
$$$$
