GQP.pdb
     RDKit          3D

 21 21  0  0  1  0  0  0  0  0999 V2000
    7.9550  -12.6632   19.2775 N   0  0  0  0  0  0  0  0  0  0  0  0
    8.4534  -13.7872   20.0108 C   0  0  0  0  0  0  0  0  0  0  0  0
    7.7396  -13.9179   21.3299 C   0  0  0  0  0  0  0  0  0  0  0  0
    6.9438  -13.0313   21.6667 O   0  0  0  0  0  0  0  0  0  0  0  0
    6.5037  -19.4838   24.4041 N   0  0  0  0  0  0  0  0  0  0  0  0
    6.7885  -18.3697   25.2662 C   0  0  0  0  0  0  0  0  0  0  0  0
    7.4617  -18.6073   26.2921 O   0  0  0  0  0  0  0  0  0  0  0  0
    6.2840  -16.9905   24.9210 C   0  0  0  0  0  0  0  0  0  0  0  0
    6.8997  -16.6395   23.5930 C   0  0  0  0  0  0  0  0  0  0  0  0
    7.3695  -15.2496   23.4410 C   0  0  2  0  0  0  0  0  0  0  0  0
    7.9823  -15.0361   22.1582 N   0  0  0  0  0  0  0  0  0  0  0  0
    8.1041  -14.6309   24.5447 C   0  0  0  0  0  0  0  0  0  0  0  0
    9.3514  -14.9393   24.6095 O   0  0  0  0  0  0  0  0  0  0  0  0
    7.6059  -13.7535   25.5234 N   0  0  0  0  0  0  0  0  0  0  0  0
    6.2163  -13.2414   25.4405 C   0  0  0  0  0  0  0  0  0  0  0  0
    6.2879  -11.8928   26.1220 C   0  0  0  0  0  0  0  0  0  0  0  0
    7.1162  -12.2550   27.3323 C   0  0  0  0  0  0  0  0  0  0  0  0
    8.1835  -13.1669   26.7022 C   0  0  1  0  0  0  0  0  0  0  0  0
    8.5233  -14.1421   27.7522 C   0  0  0  0  0  0  0  0  0  0  0  0
    8.0346  -15.2875   27.7138 O   0  0  0  0  0  0  0  0  0  0  0  0
    9.3774  -13.8097   28.7835 O   0  0  0  0  0  0  0  0  0  0  0  0
  2  1  1  0
  2  3  1  0
  3 11  1  0
  4  3  2  0
  5  6  1  0
  6  8  1  0
  7  6  2  0
  8  9  1  0
 10  9  1  1
 11 10  1  0
 12 10  1  0
 12 14  1  0
 13 12  2  0
 14 18  1  0
 15 14  1  0
 15 16  1  0
 16 17  1  0
 18 17  1  0
 18 19  1  1
 19 21  1  0
 20 19  2  0
M  END
$$$$
