GQP.pdb
     RDKit          3D

 21 21  0  0  1  0  0  0  0  0999 V2000
    8.3793  -15.7476   19.3722 N   0  0  0  0  0  0  0  0  0  0  0  0
    8.9852  -16.0525   20.6329 C   0  0  0  0  0  0  0  0  0  0  0  0
    8.1548  -15.5090   21.7650 C   0  0  0  0  0  0  0  0  0  0  0  0
    7.5063  -14.4703   21.5826 O   0  0  0  0  0  0  0  0  0  0  0  0
    6.2016  -19.5459   25.8559 N   0  0  0  0  0  0  0  0  0  0  0  0
    6.4595  -19.2074   24.4832 C   0  0  0  0  0  0  0  0  0  0  0  0
    7.0223  -20.0768   23.7834 O   0  0  0  0  0  0  0  0  0  0  0  0
    6.0575  -17.8576   23.9427 C   0  0  0  0  0  0  0  0  0  0  0  0
    6.7060  -16.8372   24.8395 C   0  0  0  0  0  0  0  0  0  0  0  0
    7.4026  -15.7264   24.1637 C   0  0  2  0  0  0  0  0  0  0  0  0
    8.1249  -16.1812   23.0070 N   0  0  0  0  0  0  0  0  0  0  0  0
    8.1529  -14.7688   24.9764 C   0  0  0  0  0  0  0  0  0  0  0  0
    9.4320  -14.8985   24.9291 O   0  0  0  0  0  0  0  0  0  0  0  0
    7.6394  -13.7424   25.7879 N   0  0  0  0  0  0  0  0  0  0  0  0
    6.2196  -13.3287   25.6729 C   0  0  0  0  0  0  0  0  0  0  0  0
    6.2354  -11.8703   26.0745 C   0  0  0  0  0  0  0  0  0  0  0  0
    7.1275  -11.9438   27.2915 C   0  0  0  0  0  0  0  0  0  0  0  0
    8.2235  -12.9061   26.8011 C   0  0  1  0  0  0  0  0  0  0  0  0
    8.6590  -13.6363   28.0037 C   0  0  0  0  0  0  0  0  0  0  0  0
    8.2841  -14.8108   28.1834 O   0  0  0  0  0  0  0  0  0  0  0  0
    9.4788  -13.0414   28.9404 O   0  0  0  0  0  0  0  0  0  0  0  0
  2  1  1  0
  2  3  1  0
  3 11  1  0
  4  3  2  0
  5  6  1  0
  6  8  1  0
  7  6  2  0
  8  9  1  0
 10  9  1  1
 11 10  1  0
 12 10  1  0
 12 14  1  0
 13 12  2  0
 14 18  1  0
 15 14  1  0
 15 16  1  0
 16 17  1  0
 18 17  1  0
 18 19  1  1
 19 21  1  0
 20 19  2  0
M  END
$$$$
