GQP.pdb
     RDKit          3D

 21 21  0  0  1  0  0  0  0  0999 V2000
    8.6146  -12.3082   18.7657 N   0  0  0  0  0  0  0  0  0  0  0  0
    9.3307  -12.9712   19.8130 C   0  0  0  0  0  0  0  0  0  0  0  0
    8.4506  -13.1588   21.0201 C   0  0  0  0  0  0  0  0  0  0  0  0
    7.7365  -12.2170   21.3885 O   0  0  0  0  0  0  0  0  0  0  0  0
    7.4429  -18.5567   22.0928 N   0  0  0  0  0  0  0  0  0  0  0  0
    6.5688  -17.7875   21.2503 C   0  0  0  0  0  0  0  0  0  0  0  0
    6.0840  -18.3714   20.2571 O   0  0  0  0  0  0  0  0  0  0  0  0
    6.2704  -16.3452   21.5767 C   0  0  0  0  0  0  0  0  0  0  0  0
    7.0638  -16.0231   22.8147 C   0  0  0  0  0  0  0  0  0  0  0  0
    7.6554  -14.6732   22.8751 C   0  0  2  0  0  0  0  0  0  0  0  0
    8.4492  -14.3914   21.7102 N   0  0  0  0  0  0  0  0  0  0  0  0
    8.2809  -14.2349   24.1230 C   0  0  0  0  0  0  0  0  0  0  0  0
    9.5326  -14.5116   24.2315 O   0  0  0  0  0  0  0  0  0  0  0  0
    7.6758  -13.5576   25.1958 N   0  0  0  0  0  0  0  0  0  0  0  0
    6.3328  -12.9471   25.0413 C   0  0  0  0  0  0  0  0  0  0  0  0
    6.3515  -11.7852   26.0098 C   0  0  0  0  0  0  0  0  0  0  0  0
    6.9789  -12.4551   27.2098 C   0  0  0  0  0  0  0  0  0  0  0  0
    8.0939  -13.2796   26.5430 C   0  0  1  0  0  0  0  0  0  0  0  0
    8.2401  -14.4790   27.3851 C   0  0  0  0  0  0  0  0  0  0  0  0
    7.6878  -15.5432   27.0465 O   0  0  0  0  0  0  0  0  0  0  0  0
    8.9811  -14.4465   28.5484 O   0  0  0  0  0  0  0  0  0  0  0  0
  2  1  1  0
  2  3  1  0
  3 11  1  0
  4  3  2  0
  5  6  1  0
  6  8  1  0
  7  6  2  0
  8  9  1  0
 10  9  1  1
 11 10  1  0
 12 10  1  0
 12 14  1  0
 13 12  2  0
 14 18  1  0
 15 14  1  0
 15 16  1  0
 16 17  1  0
 18 17  1  0
 18 19  1  1
 19 21  1  0
 20 19  2  0
M  END
$$$$
