GQP.pdb
     RDKit          3D

 21 21  0  0  1  0  0  0  0  0999 V2000
    8.2297  -12.6820   19.1406 N   0  0  0  0  0  0  0  0  0  0  0  0
    8.6842  -13.7793   19.9396 C   0  0  0  0  0  0  0  0  0  0  0  0
    7.9764  -13.7960   21.2684 C   0  0  0  0  0  0  0  0  0  0  0  0
    7.2652  -12.8306   21.5763 O   0  0  0  0  0  0  0  0  0  0  0  0
    6.3345  -18.9206   24.2160 N   0  0  0  0  0  0  0  0  0  0  0  0
    5.8404  -18.4165   22.9641 C   0  0  0  0  0  0  0  0  0  0  0  0
    5.1412  -19.1937   22.2789 O   0  0  0  0  0  0  0  0  0  0  0  0
    6.1681  -17.0106   22.5260 C   0  0  0  0  0  0  0  0  0  0  0  0
    6.9939  -16.4092   23.6315 C   0  0  0  0  0  0  0  0  0  0  0  0
    7.4729  -15.0318   23.4099 C   0  0  2  0  0  0  0  0  0  0  0  0
    8.1294  -14.8986   22.1380 N   0  0  0  0  0  0  0  0  0  0  0  0
    8.1716  -14.3468   24.4976 C   0  0  0  0  0  0  0  0  0  0  0  0
    9.4489  -14.5004   24.5066 O   0  0  0  0  0  0  0  0  0  0  0  0
    7.6112  -13.5546   25.5145 N   0  0  0  0  0  0  0  0  0  0  0  0
    6.2289  -13.0317   25.3881 C   0  0  0  0  0  0  0  0  0  0  0  0
    6.2551  -11.7468   26.1861 C   0  0  0  0  0  0  0  0  0  0  0  0
    7.0055  -12.2149   27.4109 C   0  0  0  0  0  0  0  0  0  0  0  0
    8.1119  -13.0737   26.7736 C   0  0  1  0  0  0  0  0  0  0  0  0
    8.3859  -14.1368   27.7554 C   0  0  0  0  0  0  0  0  0  0  0  0
    7.9036  -15.2731   27.5869 O   0  0  0  0  0  0  0  0  0  0  0  0
    9.1707  -13.8970   28.8644 O   0  0  0  0  0  0  0  0  0  0  0  0
  2  1  1  0
  2  3  1  0
  3 11  1  0
  4  3  2  0
  5  6  1  0
  6  8  1  0
  7  6  2  0
  8  9  1  0
 10  9  1  1
 11 10  1  0
 12 10  1  0
 12 14  1  0
 13 12  2  0
 14 18  1  0
 15 14  1  0
 15 16  1  0
 16 17  1  0
 18 17  1  0
 18 19  1  1
 19 21  1  0
 20 19  2  0
M  END
$$$$
