GQP.pdb
     RDKit          3D

 21 21  0  0  1  0  0  0  0  0999 V2000
    7.7666  -12.8063   19.1862 N   0  0  0  0  0  0  0  0  0  0  0  0
    8.4369  -13.7807   19.9929 C   0  0  0  0  0  0  0  0  0  0  0  0
    7.7309  -13.9531   21.3114 C   0  0  0  0  0  0  0  0  0  0  0  0
    6.7763  -13.2109   21.5772 O   0  0  0  0  0  0  0  0  0  0  0  0
    7.7234  -19.1432   24.3361 N   0  0  0  0  0  0  0  0  0  0  0  0
    6.8863  -18.4177   25.2517 C   0  0  0  0  0  0  0  0  0  0  0  0
    6.4222  -19.0571   26.2203 O   0  0  0  0  0  0  0  0  0  0  0  0
    6.6003  -16.9537   25.0263 C   0  0  0  0  0  0  0  0  0  0  0  0
    7.2401  -16.5997   23.7106 C   0  0  0  0  0  0  0  0  0  0  0  0
    7.5757  -15.1770   23.5125 C   0  0  2  0  0  0  0  0  0  0  0  0
    8.1596  -14.9468   22.2192 N   0  0  0  0  0  0  0  0  0  0  0  0
    8.2536  -14.4577   24.5912 C   0  0  0  0  0  0  0  0  0  0  0  0
    9.5331  -14.5898   24.6141 O   0  0  0  0  0  0  0  0  0  0  0  0
    7.6714  -13.6536   25.5863 N   0  0  0  0  0  0  0  0  0  0  0  0
    6.2292  -13.3113   25.5315 C   0  0  0  0  0  0  0  0  0  0  0  0
    6.1508  -11.9689   26.2245 C   0  0  0  0  0  0  0  0  0  0  0  0
    7.0379  -12.2381   27.4173 C   0  0  0  0  0  0  0  0  0  0  0  0
    8.1953  -13.0108   26.7608 C   0  0  1  0  0  0  0  0  0  0  0  0
    8.6681  -13.9460   27.7958 C   0  0  0  0  0  0  0  0  0  0  0  0
    8.2821  -15.1305   27.7815 O   0  0  0  0  0  0  0  0  0  0  0  0
    9.5351  -13.5331   28.7864 O   0  0  0  0  0  0  0  0  0  0  0  0
  2  1  1  0
  2  3  1  0
  3 11  1  0
  4  3  2  0
  5  6  1  0
  6  8  1  0
  7  6  2  0
  8  9  1  0
 10  9  1  1
 11 10  1  0
 12 10  1  0
 12 14  1  0
 13 12  2  0
 14 18  1  0
 15 14  1  0
 15 16  1  0
 16 17  1  0
 18 17  1  0
 18 19  1  1
 19 21  1  0
 20 19  2  0
M  END
$$$$
