GQP.pdb
     RDKit          3D

 21 21  0  0  1  0  0  0  0  0999 V2000
    5.3481  -18.3770   20.9641 N   0  0  0  0  0  0  0  0  0  0  0  0
    6.5972  -18.1687   21.6318 C   0  0  0  0  0  0  0  0  0  0  0  0
    6.3913  -17.4107   22.9162 C   0  0  0  0  0  0  0  0  0  0  0  0
    5.3478  -16.7609   23.0635 O   0  0  0  0  0  0  0  0  0  0  0  0
    8.7133  -19.0100   28.2708 N   0  0  0  0  0  0  0  0  0  0  0  0
    7.5236  -19.5247   27.6502 C   0  0  0  0  0  0  0  0  0  0  0  0
    7.0489  -20.5784   28.1263 O   0  0  0  0  0  0  0  0  0  0  0  0
    6.9012  -18.8034   26.4805 C   0  0  0  0  0  0  0  0  0  0  0  0
    7.6784  -17.5250   26.3150 C   0  0  0  0  0  0  0  0  0  0  0  0
    7.3235  -16.6943   25.1489 C   0  0  2  0  0  0  0  0  0  0  0  0
    7.3781  -17.4485   23.9263 N   0  0  0  0  0  0  0  0  0  0  0  0
    7.9089  -15.3585   25.0328 C   0  0  0  0  0  0  0  0  0  0  0  0
    8.9486  -15.2830   24.2789 O   0  0  0  0  0  0  0  0  0  0  0  0
    7.4685  -14.1713   25.6431 N   0  0  0  0  0  0  0  0  0  0  0  0
    6.0673  -14.0386   26.1113 C   0  0  0  0  0  0  0  0  0  0  0  0
    5.7888  -12.5559   25.9996 C   0  0  0  0  0  0  0  0  0  0  0  0
    7.0645  -12.0048   26.5921 C   0  0  0  0  0  0  0  0  0  0  0  0
    8.1159  -12.9237   25.9455 C   0  0  1  0  0  0  0  0  0  0  0  0
    9.1942  -13.0339   26.9426 C   0  0  0  0  0  0  0  0  0  0  0  0
    9.2920  -14.0643   27.6361 O   0  0  0  0  0  0  0  0  0  0  0  0
   10.1034  -12.0123   27.1244 O   0  0  0  0  0  0  0  0  0  0  0  0
  2  1  1  0
  2  3  1  0
  3 11  1  0
  4  3  2  0
  5  6  1  0
  6  8  1  0
  7  6  2  0
  8  9  1  0
 10  9  1  1
 11 10  1  0
 12 10  1  0
 12 14  1  0
 13 12  2  0
 14 18  1  0
 15 14  1  0
 15 16  1  0
 16 17  1  0
 18 17  1  0
 18 19  1  1
 19 21  1  0
 20 19  2  0
M  END
$$$$
