GQP.pdb
     RDKit          3D

 21 21  0  0  1  0  0  0  0  0999 V2000
    4.8660  -19.7006   23.3821 N   0  0  0  0  0  0  0  0  0  0  0  0
    5.7144  -18.9641   24.2692 C   0  0  0  0  0  0  0  0  0  0  0  0
    5.8959  -17.5524   23.7786 C   0  0  0  0  0  0  0  0  0  0  0  0
    5.1628  -17.1387   22.8707 O   0  0  0  0  0  0  0  0  0  0  0  0
    6.3340  -12.0101   27.2945 N   0  0  0  0  0  0  0  0  0  0  0  0
    7.1477  -13.1122   26.8600 C   0  0  0  0  0  0  0  0  0  0  0  0
    8.3338  -13.1280   27.2538 O   0  0  0  0  0  0  0  0  0  0  0  0
    6.5675  -14.1836   25.9705 C   0  0  0  0  0  0  0  0  0  0  0  0
    7.6391  -14.5221   24.9689 C   0  0  0  0  0  0  0  0  0  0  0  0
    7.2403  -15.4189   23.8678 C   0  0  2  0  0  0  0  0  0  0  0  0
    6.8875  -16.7258   24.3519 N   0  0  0  0  0  0  0  0  0  0  0  0
    8.0587  -15.4510   22.6555 C   0  0  0  0  0  0  0  0  0  0  0  0
    8.7857  -16.5034   22.5167 O   0  0  0  0  0  0  0  0  0  0  0  0
    8.1366  -14.4768   21.6453 N   0  0  0  0  0  0  0  0  0  0  0  0
    7.2935  -13.2580   21.7061 C   0  0  0  0  0  0  0  0  0  0  0  0
    7.0933  -12.8854   20.2537 C   0  0  0  0  0  0  0  0  0  0  0  0
    8.5033  -13.0633   19.7413 C   0  0  0  0  0  0  0  0  0  0  0  0
    8.9119  -14.3725   20.4390 C   0  0  1  0  0  0  0  0  0  0  0  0
   10.3618  -14.2495   20.6668 C   0  0  0  0  0  0  0  0  0  0  0  0
   10.7845  -13.9033   21.7865 O   0  0  0  0  0  0  0  0  0  0  0  0
   11.2660  -14.5116   19.6583 O   0  0  0  0  0  0  0  0  0  0  0  0
  2  1  1  0
  2  3  1  0
  3 11  1  0
  4  3  2  0
  5  6  1  0
  6  8  1  0
  7  6  2  0
  8  9  1  0
 10  9  1  1
 11 10  1  0
 12 10  1  0
 12 14  1  0
 13 12  2  0
 14 18  1  0
 15 14  1  0
 15 16  1  0
 16 17  1  0
 18 17  1  0
 18 19  1  1
 19 21  1  0
 20 19  2  0
M  END
$$$$
