GQP.pdb
     RDKit          3D

 21 21  0  0  1  0  0  0  0  0999 V2000
    3.3145  -18.1641   21.3084 N   0  0  0  0  0  0  0  0  0  0  0  0
    4.6885  -18.5186   21.4973 C   0  0  0  0  0  0  0  0  0  0  0  0
    5.5250  -17.2895   21.7346 C   0  0  0  0  0  0  0  0  0  0  0  0
    4.9987  -16.1766   21.6032 O   0  0  0  0  0  0  0  0  0  0  0  0
   10.3187  -17.1855   25.4110 N   0  0  0  0  0  0  0  0  0  0  0  0
   10.4807  -15.8578   24.8854 C   0  0  0  0  0  0  0  0  0  0  0  0
   11.3740  -15.1516   25.4007 O   0  0  0  0  0  0  0  0  0  0  0  0
    9.5980  -15.3692   23.7638 C   0  0  0  0  0  0  0  0  0  0  0  0
    8.6632  -16.5043   23.4417 C   0  0  0  0  0  0  0  0  0  0  0  0
    7.7907  -16.3151   22.2675 C   0  0  2  0  0  0  0  0  0  0  0  0
    6.8835  -17.4176   22.1000 N   0  0  0  0  0  0  0  0  0  0  0  0
    8.3897  -15.8612   21.0122 C   0  0  0  0  0  0  0  0  0  0  0  0
    8.9210  -16.7882   20.2956 O   0  0  0  0  0  0  0  0  0  0  0  0
    8.4476  -14.5485   20.5130 N   0  0  0  0  0  0  0  0  0  0  0  0
    7.8012  -13.4332   21.2467 C   0  0  0  0  0  0  0  0  0  0  0  0
    7.4359  -12.4489   20.1576 C   0  0  0  0  0  0  0  0  0  0  0  0
    8.7129  -12.4662   19.3506 C   0  0  0  0  0  0  0  0  0  0  0  0
    9.0371  -13.9703   19.3360 C   0  0  1  0  0  0  0  0  0  0  0  0
   10.5076  -14.0456   19.3030 C   0  0  0  0  0  0  0  0  0  0  0  0
   11.1386  -14.2731   20.3530 O   0  0  0  0  0  0  0  0  0  0  0  0
   11.2036  -13.8681   18.1252 O   0  0  0  0  0  0  0  0  0  0  0  0
  2  1  1  0
  2  3  1  0
  3 11  1  0
  4  3  2  0
  5  6  1  0
  6  8  1  0
  7  6  2  0
  8  9  1  0
 10  9  1  1
 11 10  1  0
 12 10  1  0
 12 14  1  0
 13 12  2  0
 14 18  1  0
 15 14  1  0
 15 16  1  0
 16 17  1  0
 18 17  1  0
 18 19  1  1
 19 21  1  0
 20 19  2  0
M  END
$$$$
