GQP.pdb
     RDKit          3D

 21 21  0  0  1  0  0  0  0  0999 V2000
    4.1683  -19.9055   22.1936 N   0  0  0  0  0  0  0  0  0  0  0  0
    5.0662  -19.5557   23.2523 C   0  0  0  0  0  0  0  0  0  0  0  0
    5.4255  -18.0953   23.1813 C   0  0  0  0  0  0  0  0  0  0  0  0
    4.7391  -17.3470   22.4731 O   0  0  0  0  0  0  0  0  0  0  0  0
    8.8936  -15.2013   27.2942 N   0  0  0  0  0  0  0  0  0  0  0  0
    8.5652  -14.0750   26.4641 C   0  0  0  0  0  0  0  0  0  0  0  0
    8.9751  -12.9564   26.8422 O   0  0  0  0  0  0  0  0  0  0  0  0
    7.7619  -14.2671   25.2017 C   0  0  0  0  0  0  0  0  0  0  0  0
    7.4129  -15.7304   25.1460 C   0  0  0  0  0  0  0  0  0  0  0  0
    7.0321  -16.2582   23.8223 C   0  0  2  0  0  0  0  0  0  0  0  0
    6.5275  -17.6012   23.9140 N   0  0  0  0  0  0  0  0  0  0  0  0
    7.9442  -16.0571   22.6961 C   0  0  0  0  0  0  0  0  0  0  0  0
    8.7863  -17.0098   22.5003 O   0  0  0  0  0  0  0  0  0  0  0  0
    8.0002  -14.9581   21.8215 N   0  0  0  0  0  0  0  0  0  0  0  0
    7.1220  -13.7814   22.0314 C   0  0  0  0  0  0  0  0  0  0  0  0
    6.9202  -13.2291   20.6376 C   0  0  0  0  0  0  0  0  0  0  0  0
    8.3379  -13.2998   20.1205 C   0  0  0  0  0  0  0  0  0  0  0  0
    8.7797  -14.6767   20.6466 C   0  0  1  0  0  0  0  0  0  0  0  0
   10.2240  -14.5440   20.9028 C   0  0  0  0  0  0  0  0  0  0  0  0
   10.6314  -14.3622   22.0661 O   0  0  0  0  0  0  0  0  0  0  0  0
   11.1397  -14.6177   19.8735 O   0  0  0  0  0  0  0  0  0  0  0  0
  2  1  1  0
  2  3  1  0
  3 11  1  0
  4  3  2  0
  5  6  1  0
  6  8  1  0
  7  6  2  0
  8  9  1  0
 10  9  1  1
 11 10  1  0
 12 10  1  0
 12 14  1  0
 13 12  2  0
 14 18  1  0
 15 14  1  0
 15 16  1  0
 16 17  1  0
 18 17  1  0
 18 19  1  1
 19 21  1  0
 20 19  2  0
M  END
$$$$
