GVG.pdb
     RDKit          3D

 16 15  0  0  1  0  0  0  0  0999 V2000
   17.5323  -12.2047  -17.5998 N   0  0  0  0  0  0  0  0  0  0  0  0
   18.4561  -11.1247  -17.8987 C   0  0  0  0  0  0  0  0  0  0  0  0
   19.1762  -10.6728  -16.6780 C   0  0  0  0  0  0  0  0  0  0  0  0
   18.6284  -10.9019  -15.5739 O   0  0  0  0  0  0  0  0  0  0  0  0
   23.0911   -9.7024  -14.0931 C   0  0  0  0  0  0  0  0  0  0  0  0
   22.4867  -10.1008  -15.4199 C   0  0  1  0  0  0  0  0  0  0  0  0
   22.4307  -11.6089  -15.4335 C   0  0  0  0  0  0  0  0  0  0  0  0
   21.0965   -9.4962  -15.5903 C   0  0  2  0  0  0  0  0  0  0  0  0
   20.4321  -10.0089  -16.7505 N   0  0  0  0  0  0  0  0  0  0  0  0
   21.1332   -8.0296  -15.5339 C   0  0  0  0  0  0  0  0  0  0  0  0
   21.6701   -7.3743  -16.4616 O   0  0  0  0  0  0  0  0  0  0  0  0
   20.5740   -7.2964  -14.4488 N   0  0  0  0  0  0  0  0  0  0  0  0
   20.5444   -5.8631  -14.3998 C   0  0  0  0  0  0  0  0  0  0  0  0
   21.8071   -5.3096  -13.8728 C   0  0  0  0  0  0  0  0  0  0  0  0
   22.0302   -3.9471  -14.0017 O   0  0  0  0  0  0  0  0  0  0  0  0
   22.6704   -6.0353  -13.3187 O   0  0  0  0  0  0  0  0  0  0  0  0
  2  3  1  0
  2  1  1  0
  3  9  1  0
  4  3  2  0
  6  5  1  1
  7  6  1  0
  8  6  1  0
  8  9  1  6
 10 11  2  0
 10  8  1  0
 12 10  1  0
 13 14  1  0
 13 12  1  0
 14 15  1  0
 16 14  2  0
M  END
$$$$
