GVG.pdb
     RDKit          3D

 16 15  0  0  1  0  0  0  0  0999 V2000
   18.9672  -13.6365  -16.2899 N   0  0  0  0  0  0  0  0  0  0  0  0
   18.4729  -12.3647  -15.7929 C   0  0  0  0  0  0  0  0  0  0  0  0
   19.4472  -11.2686  -16.0422 C   0  0  0  0  0  0  0  0  0  0  0  0
   20.5735  -11.5953  -16.4854 O   0  0  0  0  0  0  0  0  0  0  0  0
   18.1169   -7.2942  -16.7781 C   0  0  0  0  0  0  0  0  0  0  0  0
   19.3846   -7.9622  -17.2590 C   0  0  1  0  0  0  0  0  0  0  0  0
   20.3278   -6.8564  -17.6656 C   0  0  0  0  0  0  0  0  0  0  0  0
   19.9938   -8.8310  -16.1630 C   0  0  2  0  0  0  0  0  0  0  0  0
   19.1240   -9.9062  -15.7917 N   0  0  0  0  0  0  0  0  0  0  0  0
   20.4511   -8.0249  -15.0244 C   0  0  0  0  0  0  0  0  0  0  0  0
   19.6333   -7.6440  -14.1501 O   0  0  0  0  0  0  0  0  0  0  0  0
   21.8136   -7.6447  -14.8607 N   0  0  0  0  0  0  0  0  0  0  0  0
   22.3014   -6.9411  -13.7099 C   0  0  0  0  0  0  0  0  0  0  0  0
   22.2096   -5.4785  -13.8858 C   0  0  0  0  0  0  0  0  0  0  0  0
   22.7461   -4.6644  -12.8999 O   0  0  0  0  0  0  0  0  0  0  0  0
   21.6642   -4.9638  -14.8941 O   0  0  0  0  0  0  0  0  0  0  0  0
  2  3  1  0
  2  1  1  0
  3  9  1  0
  4  3  2  0
  6  5  1  1
  7  6  1  0
  8  6  1  0
  8  9  1  1
 10 11  2  0
 10  8  1  0
 12 10  1  0
 13 14  1  0
 13 12  1  0
 14 15  1  0
 16 14  2  0
M  END
$$$$
