GVG.pdb
     RDKit          3D

 16 15  0  0  1  0  0  0  0  0999 V2000
   25.9353  -12.5412  -16.3220 N   0  0  0  0  0  0  0  0  0  0  0  0
   24.9972  -12.0919  -15.3085 C   0  0  0  0  0  0  0  0  0  0  0  0
   24.1946  -10.9343  -15.7866 C   0  0  0  0  0  0  0  0  0  0  0  0
   24.4828  -10.4655  -16.9131 O   0  0  0  0  0  0  0  0  0  0  0  0
   20.0287   -8.7201  -16.3383 C   0  0  0  0  0  0  0  0  0  0  0  0
   20.8542   -9.7708  -15.6317 C   0  0  1  0  0  0  0  0  0  0  0  0
   20.7501  -11.0294  -16.4580 C   0  0  0  0  0  0  0  0  0  0  0  0
   22.3054   -9.3220  -15.4917 C   0  0  2  0  0  0  0  0  0  0  0  0
   23.1438  -10.3767  -15.0067 N   0  0  0  0  0  0  0  0  0  0  0  0
   22.4158   -8.0799  -14.7169 C   0  0  0  0  0  0  0  0  0  0  0  0
   22.1630   -8.0775  -13.4863 O   0  0  0  0  0  0  0  0  0  0  0  0
   22.8060   -6.8457  -15.3106 N   0  0  0  0  0  0  0  0  0  0  0  0
   23.0016   -5.6388  -14.5607 C   0  0  0  0  0  0  0  0  0  0  0  0
   21.7182   -4.9924  -14.2238 C   0  0  0  0  0  0  0  0  0  0  0  0
   21.7435   -3.8656  -13.4161 O   0  0  0  0  0  0  0  0  0  0  0  0
   20.6206   -5.4345  -14.6468 O   0  0  0  0  0  0  0  0  0  0  0  0
  2  3  1  0
  2  1  1  0
  3  9  1  0
  4  3  2  0
  6  5  1  6
  7  6  1  0
  8  6  1  0
  8  9  1  1
 10 11  2  0
 10  8  1  0
 12 10  1  0
 13 14  1  0
 13 12  1  0
 14 15  1  0
 16 14  2  0
M  END
$$$$
