GVG.pdb
     RDKit          3D

 16 15  0  0  1  0  0  0  0  0999 V2000
   16.4095  -11.6202  -16.0509 N   0  0  0  0  0  0  0  0  0  0  0  0
   17.1205  -10.4337  -16.4931 C   0  0  0  0  0  0  0  0  0  0  0  0
   18.3062  -10.1607  -15.6372 C   0  0  0  0  0  0  0  0  0  0  0  0
   18.2581  -10.5606  -14.4500 O   0  0  0  0  0  0  0  0  0  0  0  0
   22.9832   -9.4996  -14.8160 C   0  0  0  0  0  0  0  0  0  0  0  0
   21.8650   -9.7194  -15.8090 C   0  0  1  0  0  0  0  0  0  0  0  0
   21.7457  -11.2114  -16.0017 C   0  0  0  0  0  0  0  0  0  0  0  0
   20.5567   -9.1233  -15.2989 C   0  0  2  0  0  0  0  0  0  0  0  0
   19.4495   -9.4765  -16.1354 N   0  0  0  0  0  0  0  0  0  0  0  0
   20.6760   -7.6796  -15.0603 C   0  0  0  0  0  0  0  0  0  0  0  0
   20.6289   -6.8735  -16.0227 O   0  0  0  0  0  0  0  0  0  0  0  0
   20.8472   -7.1365  -13.7550 N   0  0  0  0  0  0  0  0  0  0  0  0
   20.9510   -5.7296  -13.4956 C   0  0  0  0  0  0  0  0  0  0  0  0
   22.2537   -5.1897  -13.9312 C   0  0  0  0  0  0  0  0  0  0  0  0
   22.4214   -3.8133  -13.9460 O   0  0  0  0  0  0  0  0  0  0  0  0
   23.1990   -5.9390  -14.2834 O   0  0  0  0  0  0  0  0  0  0  0  0
  2  3  1  0
  2  1  1  0
  3  9  1  0
  4  3  2  0
  6  5  1  1
  7  6  1  0
  8  6  1  0
  8  9  1  6
 10 11  2  0
 10  8  1  0
 12 10  1  0
 13 14  1  0
 13 12  1  0
 14 15  1  0
 16 14  2  0
M  END
$$$$
