GVG.pdb
     RDKit          3D

 16 15  0  0  1  0  0  0  0  0999 V2000
   27.6384  -17.7286  -15.9134 N   0  0  0  0  0  0  0  0  0  0  0  0
   27.0824  -17.7729  -14.5725 C   0  0  0  0  0  0  0  0  0  0  0  0
   26.4240  -19.0788  -14.3007 C   0  0  0  0  0  0  0  0  0  0  0  0
   26.3165  -19.8756  -15.2625 O   0  0  0  0  0  0  0  0  0  0  0  0
   27.4689  -21.5991  -11.9125 C   0  0  0  0  0  0  0  0  0  0  0  0
   25.9970  -21.4298  -11.6134 C   0  0  1  0  0  0  0  0  0  0  0  0
   25.9053  -20.6807  -10.3065 C   0  0  0  0  0  0  0  0  0  0  0  0
   25.2958  -20.6696  -12.7347 C   0  0  2  0  0  0  0  0  0  0  0  0
   25.9345  -19.4176  -13.0087 N   0  0  0  0  0  0  0  0  0  0  0  0
   23.8531  -20.5522  -12.4897 C   0  0  0  0  0  0  0  0  0  0  0  0
   23.4001  -19.5828  -11.8314 O   0  0  0  0  0  0  0  0  0  0  0  0
   22.9190  -21.5108  -12.9760 N   0  0  0  0  0  0  0  0  0  0  0  0
   21.5034  -21.4049  -12.7700 C   0  0  0  0  0  0  0  0  0  0  0  0
   20.8273  -20.7980  -13.9331 C   0  0  0  0  0  0  0  0  0  0  0  0
   19.4826  -20.4796  -13.8176 O   0  0  0  0  0  0  0  0  0  0  0  0
   21.4346  -20.5674  -15.0088 O   0  0  0  0  0  0  0  0  0  0  0  0
  2  3  1  0
  2  1  1  0
  3  9  1  0
  4  3  2  0
  6  5  1  6
  7  6  1  0
  8  6  1  0
  8  9  1  1
 10 11  2  0
 10  8  1  0
 12 10  1  0
 13 14  1  0
 13 12  1  0
 14 15  1  0
 16 14  2  0
M  END
$$$$
