GVG.pdb
     RDKit          3D

 16 15  0  0  1  0  0  0  0  0999 V2000
   18.2406  -13.2626  -16.4735 N   0  0  0  0  0  0  0  0  0  0  0  0
   18.9631  -12.1191  -17.0021 C   0  0  0  0  0  0  0  0  0  0  0  0
   19.7354  -11.4252  -15.9367 C   0  0  0  0  0  0  0  0  0  0  0  0
   19.2562  -11.4454  -14.7784 O   0  0  0  0  0  0  0  0  0  0  0  0
   22.8743  -12.0872  -14.5407 C   0  0  0  0  0  0  0  0  0  0  0  0
   23.0182  -10.6219  -14.8825 C   0  0  1  0  0  0  0  0  0  0  0  0
   23.9611  -10.5434  -16.0583 C   0  0  0  0  0  0  0  0  0  0  0  0
   21.6646  -10.0043  -15.2194 C   0  0  2  0  0  0  0  0  0  0  0  0
   20.9651  -10.7648  -16.2108 N   0  0  0  0  0  0  0  0  0  0  0  0
   21.7868   -8.5791  -15.5499 C   0  0  0  0  0  0  0  0  0  0  0  0
   21.9280   -8.2167  -16.7445 O   0  0  0  0  0  0  0  0  0  0  0  0
   21.7519   -7.5621  -14.5537 N   0  0  0  0  0  0  0  0  0  0  0  0
   21.9083   -6.1669  -14.8477 C   0  0  0  0  0  0  0  0  0  0  0  0
   21.8367   -5.3412  -13.6264 C   0  0  0  0  0  0  0  0  0  0  0  0
   22.1038   -3.9849  -13.7352 O   0  0  0  0  0  0  0  0  0  0  0  0
   21.5435   -5.8334  -12.5081 O   0  0  0  0  0  0  0  0  0  0  0  0
  2  3  1  0
  2  1  1  0
  3  9  1  0
  4  3  2  0
  6  5  1  6
  7  6  1  0
  8  6  1  0
  8  9  1  6
 10 11  2  0
 10  8  1  0
 12 10  1  0
 13 14  1  0
 13 12  1  0
 14 15  1  0
 16 14  2  0
M  END
$$$$
