GVG.pdb
     RDKit          3D

 16 15  0  0  1  0  0  0  0  0999 V2000
   16.4699   -7.0012   -9.2700 N   0  0  0  0  0  0  0  0  0  0  0  0
   16.7402   -6.9335  -10.6952 C   0  0  0  0  0  0  0  0  0  0  0  0
   18.0908   -7.4673  -11.0176 C   0  0  0  0  0  0  0  0  0  0  0  0
   18.7959   -7.8558  -10.0566 O   0  0  0  0  0  0  0  0  0  0  0  0
   18.6651  -10.2053  -13.5978 C   0  0  0  0  0  0  0  0  0  0  0  0
   19.6591   -9.1049  -13.8906 C   0  0  1  0  0  0  0  0  0  0  0  0
   19.1395   -8.3638  -15.0983 C   0  0  0  0  0  0  0  0  0  0  0  0
   19.8087   -8.1714  -12.6935 C   0  0  2  0  0  0  0  0  0  0  0  0
   18.5699   -7.5378  -12.3551 N   0  0  0  0  0  0  0  0  0  0  0  0
   20.9198   -7.2295  -12.8767 C   0  0  0  0  0  0  0  0  0  0  0  0
   22.1007   -7.6515  -12.9528 O   0  0  0  0  0  0  0  0  0  0  0  0
   20.7162   -5.8235  -12.9747 N   0  0  0  0  0  0  0  0  0  0  0  0
   21.7787   -4.8891  -13.2099 C   0  0  0  0  0  0  0  0  0  0  0  0
   21.8709   -4.5160  -14.6349 C   0  0  0  0  0  0  0  0  0  0  0  0
   22.8499   -3.6099  -15.0137 O   0  0  0  0  0  0  0  0  0  0  0  0
   21.0934   -4.9945  -15.4985 O   0  0  0  0  0  0  0  0  0  0  0  0
  2  3  1  0
  2  1  1  0
  3  9  1  0
  4  3  2  0
  6  5  1  1
  7  6  1  0
  8  6  1  0
  8  9  1  6
 10 11  2  0
 10  8  1  0
 12 10  1  0
 13 14  1  0
 13 12  1  0
 14 15  1  0
 16 14  2  0
M  END
$$$$
