GVG.pdb
     RDKit          3D

 16 15  0  0  1  0  0  0  0  0999 V2000
   19.7594   -7.2172  -12.9320 N   0  0  0  0  0  0  0  0  0  0  0  0
   18.3760   -6.7832  -12.8503 C   0  0  0  0  0  0  0  0  0  0  0  0
   17.5571   -7.7283  -12.0445 C   0  0  0  0  0  0  0  0  0  0  0  0
   17.9894   -8.8988  -11.9235 O   0  0  0  0  0  0  0  0  0  0  0  0
   14.2043   -8.6821   -8.6291 C   0  0  0  0  0  0  0  0  0  0  0  0
   14.9515   -7.6468   -9.4381 C   0  0  1  0  0  0  0  0  0  0  0  0
   16.0696   -7.1382   -8.5612 C   0  0  0  0  0  0  0  0  0  0  0  0
   15.4949   -8.2506  -10.7293 C   0  0  2  0  0  0  0  0  0  0  0  0
   16.3355   -7.3302  -11.4341 N   0  0  0  0  0  0  0  0  0  0  0  0
   14.4221   -8.8179  -11.5553 C   0  0  0  0  0  0  0  0  0  0  0  0
   13.4391   -8.1102  -11.8888 O   0  0  0  0  0  0  0  0  0  0  0  0
   14.4443  -10.1679  -12.0080 N   0  0  0  0  0  0  0  0  0  0  0  0
   13.4081  -10.7444  -12.8151 C   0  0  0  0  0  0  0  0  0  0  0  0
   12.3959  -11.4341  -11.9916 C   0  0  0  0  0  0  0  0  0  0  0  0
   11.3673  -12.1014  -12.6394 O   0  0  0  0  0  0  0  0  0  0  0  0
   12.4457  -11.4295  -10.7360 O   0  0  0  0  0  0  0  0  0  0  0  0
  2  3  1  0
  2  1  1  0
  3  9  1  0
  4  3  2  0
  6  5  1  1
  7  6  1  0
  8  6  1  0
  8  9  1  6
 10 11  2  0
 10  8  1  0
 12 10  1  0
 13 14  1  0
 13 12  1  0
 14 15  1  0
 16 14  2  0
M  END
$$$$
