GVG.pdb
     RDKit          3D

 16 15  0  0  1  0  0  0  0  0999 V2000
   20.6025  -21.3770  -12.0713 N   0  0  0  0  0  0  0  0  0  0  0  0
   21.8430  -21.8168  -12.6850 C   0  0  0  0  0  0  0  0  0  0  0  0
   22.9316  -20.8237  -12.4811 C   0  0  0  0  0  0  0  0  0  0  0  0
   22.5912  -19.6615  -12.1569 O   0  0  0  0  0  0  0  0  0  0  0  0
   24.9066  -20.5247   -9.9146 C   0  0  0  0  0  0  0  0  0  0  0  0
   25.9741  -20.4991  -10.9844 C   0  0  1  0  0  0  0  0  0  0  0  0
   26.6706  -21.8369  -10.9315 C   0  0  0  0  0  0  0  0  0  0  0  0
   25.3630  -20.2500  -12.3597 C   0  0  2  0  0  0  0  0  0  0  0  0
   24.3019  -21.1685  -12.6445 N   0  0  0  0  0  0  0  0  0  0  0  0
   26.3903  -20.1957  -13.4071 C   0  0  0  0  0  0  0  0  0  0  0  0
   26.7906  -21.2526  -13.9558 O   0  0  0  0  0  0  0  0  0  0  0  0
   26.9691  -18.9691  -13.8412 N   0  0  0  0  0  0  0  0  0  0  0  0
   27.9718  -18.8908  -14.8639 C   0  0  0  0  0  0  0  0  0  0  0  0
   27.3745  -18.6890  -16.1984 C   0  0  0  0  0  0  0  0  0  0  0  0
   27.8688  -17.6633  -16.9899 O   0  0  0  0  0  0  0  0  0  0  0  0
   26.4425  -19.4154  -16.6258 O   0  0  0  0  0  0  0  0  0  0  0  0
  2  3  1  0
  2  1  1  0
  3  9  1  0
  4  3  2  0
  6  5  1  1
  7  6  1  0
  8  6  1  0
  8  9  1  6
 10 11  2  0
 10  8  1  0
 12 10  1  0
 13 14  1  0
 13 12  1  0
 14 15  1  0
 16 14  2  0
M  END
$$$$
