GVG.pdb
     RDKit          3D

 16 15  0  0  1  0  0  0  0  0999 V2000
   28.9325  -21.0227  -16.1860 N   0  0  0  0  0  0  0  0  0  0  0  0
   28.0911  -20.1624  -15.3730 C   0  0  0  0  0  0  0  0  0  0  0  0
   27.2369  -20.9552  -14.4485 C   0  0  0  0  0  0  0  0  0  0  0  0
   27.7679  -21.9402  -13.8832 O   0  0  0  0  0  0  0  0  0  0  0  0
   25.1175  -21.3092  -10.5786 C   0  0  0  0  0  0  0  0  0  0  0  0
   25.7961  -20.6584  -11.7621 C   0  0  1  0  0  0  0  0  0  0  0  0
   27.2490  -21.0625  -11.7027 C   0  0  0  0  0  0  0  0  0  0  0  0
   25.1536  -21.1028  -13.0723 C   0  0  2  0  0  0  0  0  0  0  0  0
   25.8757  -20.6180  -14.2100 N   0  0  0  0  0  0  0  0  0  0  0  0
   23.7204  -20.7865  -13.1073 C   0  0  0  0  0  0  0  0  0  0  0  0
   23.3353  -19.5914  -13.0652 O   0  0  0  0  0  0  0  0  0  0  0  0
   22.7207  -21.7973  -13.1889 N   0  0  0  0  0  0  0  0  0  0  0  0
   21.3394  -21.5181  -13.4562 C   0  0  0  0  0  0  0  0  0  0  0  0
   20.6211  -21.1031  -12.2355 C   0  0  0  0  0  0  0  0  0  0  0  0
   19.6192  -20.1519  -12.3554 O   0  0  0  0  0  0  0  0  0  0  0  0
   20.8939  -21.5857  -11.1078 O   0  0  0  0  0  0  0  0  0  0  0  0
  2  3  1  0
  2  1  1  0
  3  9  1  0
  4  3  2  0
  6  5  1  1
  7  6  1  0
  8  6  1  0
  8  9  1  6
 10 11  2  0
 10  8  1  0
 12 10  1  0
 13 14  1  0
 13 12  1  0
 14 15  1  0
 16 14  2  0
M  END
$$$$
