GVG.pdb
     RDKit          3D

 16 15  0  0  1  0  0  0  0  0999 V2000
   11.7303  -11.1801   -9.5433 N   0  0  0  0  0  0  0  0  0  0  0  0
   13.1245  -10.8520   -9.3029 C   0  0  0  0  0  0  0  0  0  0  0  0
   13.4355   -9.4603   -9.7265 C   0  0  0  0  0  0  0  0  0  0  0  0
   12.5101   -8.8058  -10.2621 O   0  0  0  0  0  0  0  0  0  0  0  0
   13.4950   -6.5785   -8.2733 C   0  0  0  0  0  0  0  0  0  0  0  0
   14.8928   -6.5439   -8.8474 C   0  0  1  0  0  0  0  0  0  0  0  0
   15.8354   -6.8433   -7.7074 C   0  0  0  0  0  0  0  0  0  0  0  0
   15.0467   -7.5631   -9.9719 C   0  0  2  0  0  0  0  0  0  0  0  0
   14.7240   -8.8885   -9.5361 N   0  0  0  0  0  0  0  0  0  0  0  0
   16.3603   -7.4608  -10.6195 C   0  0  0  0  0  0  0  0  0  0  0  0
   17.4081   -7.6836   -9.9632 O   0  0  0  0  0  0  0  0  0  0  0  0
   16.5058   -7.1118  -11.9925 N   0  0  0  0  0  0  0  0  0  0  0  0
   17.7740   -7.0569  -12.6603 C   0  0  0  0  0  0  0  0  0  0  0  0
   18.0995   -5.6861  -13.1000 C   0  0  0  0  0  0  0  0  0  0  0  0
   19.2930   -5.4799  -13.7752 O   0  0  0  0  0  0  0  0  0  0  0  0
   17.3302   -4.7174  -12.8790 O   0  0  0  0  0  0  0  0  0  0  0  0
  2  3  1  0
  2  1  1  0
  3  9  1  0
  4  3  2  0
  6  5  1  1
  7  6  1  0
  8  6  1  0
  8  9  1  1
 10 11  2  0
 10  8  1  0
 12 10  1  0
 13 14  1  0
 13 12  1  0
 14 15  1  0
 16 14  2  0
M  END
$$$$
