MAI.pdb
     RDKit          3D

 22 21  0  0  1  0  0  0  0  0999 V2000
   26.5708  -15.0235  -14.0270 C   0  0  0  0  0  0  0  0  0  0  0  0
   27.3490  -15.2612  -15.6289 S   0  0  0  0  0  0  0  0  0  0  0  0
   27.9808  -16.9490  -15.8259 C   0  0  0  0  0  0  0  0  0  0  0  0
   26.9927  -17.9216  -15.1822 C   0  0  0  0  0  0  0  0  0  0  0  0
   27.6216  -19.2994  -15.1911 C   0  0  2  0  0  0  0  0  0  0  0  0
   27.8325  -19.7042  -16.5465 N   0  0  0  0  0  0  0  0  0  0  0  0
   26.7325  -20.2135  -14.4399 C   0  0  0  0  0  0  0  0  0  0  0  0
   25.8443  -20.8376  -15.0761 O   0  0  0  0  0  0  0  0  0  0  0  0
   26.2689  -21.2690  -10.8747 C   0  0  0  0  0  0  0  0  0  0  0  0
   25.8303  -21.2102  -12.3129 C   0  0  2  0  0  0  0  0  0  0  0  0
   26.8123  -20.4361  -13.0458 N   0  0  0  0  0  0  0  0  0  0  0  0
   24.4687  -20.6260  -12.3968 C   0  0  0  0  0  0  0  0  0  0  0  0
   24.3918  -19.3868  -12.2070 O   0  0  0  0  0  0  0  0  0  0  0  0
   20.2595  -19.3245  -16.0844 C   0  0  0  0  0  0  0  0  0  0  0  0
   20.4497  -19.8337  -14.6985 C   0  0  0  0  0  0  0  0  0  0  0  0
   21.8045  -20.3958  -14.3882 C   0  0  2  0  0  0  0  0  0  0  0  0
   22.0513  -21.5082  -15.4004 C   0  0  0  0  0  0  0  0  0  0  0  0
   22.0163  -20.8635  -12.9964 C   0  0  2  0  0  0  0  0  0  0  0  0
   23.2964  -21.3913  -12.6735 N   0  0  0  0  0  0  0  0  0  0  0  0
   20.9673  -21.8410  -12.5625 C   0  0  0  0  0  0  0  0  0  0  0  0
   19.7009  -21.3895  -12.2499 O   0  0  0  0  0  0  0  0  0  0  0  0
   21.2149  -23.0537  -12.4782 O   0  0  0  0  0  0  0  0  0  0  0  0
  2  1  1  0
  3  4  1  0
  3  2  1  0
  4  5  1  0
  5  7  1  0
  5  6  1  6
  7 11  1  0
  7  8  2  0
 10  9  1  1
 10 12  1  0
 11 10  1  0
 12 19  1  0
 12 13  2  0
 14 15  1  0
 16 18  1  0
 16 15  1  0
 16 17  1  6
 18 20  1  0
 18 19  1  6
 20 21  1  0
 22 20  2  0
M  END
$$$$
