MAI.pdb
     RDKit          3D

 22 21  0  0  1  0  0  0  0  0999 V2000
   32.8893  -23.3167  -12.5523 C   0  0  0  0  0  0  0  0  0  0  0  0
   33.0870  -24.3804  -13.9868 S   0  0  0  0  0  0  0  0  0  0  0  0
   31.8414  -24.0340  -15.2577 C   0  0  0  0  0  0  0  0  0  0  0  0
   31.0146  -22.8255  -14.8187 C   0  0  0  0  0  0  0  0  0  0  0  0
   29.9160  -22.6162  -15.8399 C   0  0  2  0  0  0  0  0  0  0  0  0
   30.5091  -22.2754  -17.0959 N   0  0  0  0  0  0  0  0  0  0  0  0
   29.0027  -21.5728  -15.3227 C   0  0  0  0  0  0  0  0  0  0  0  0
   29.4455  -20.4017  -15.1974 O   0  0  0  0  0  0  0  0  0  0  0  0
   25.7211  -20.4377  -15.2673 C   0  0  0  0  0  0  0  0  0  0  0  0
   26.8306  -20.7975  -14.3166 C   0  0  2  0  0  0  0  0  0  0  0  0
   27.6562  -21.8020  -14.9567 N   0  0  0  0  0  0  0  0  0  0  0  0
   26.2552  -21.2691  -13.0324 C   0  0  0  0  0  0  0  0  0  0  0  0
   25.9061  -22.4751  -12.9988 O   0  0  0  0  0  0  0  0  0  0  0  0
   27.9765  -19.7368   -7.9255 C   0  0  0  0  0  0  0  0  0  0  0  0
   27.4168  -20.4859   -9.0838 C   0  0  0  0  0  0  0  0  0  0  0  0
   25.9840  -20.1981   -9.4184 C   0  0  2  0  0  0  0  0  0  0  0  0
   25.1654  -20.6174   -8.2029 C   0  0  0  0  0  0  0  0  0  0  0  0
   25.4669  -20.8116  -10.6662 C   0  0  2  0  0  0  0  0  0  0  0  0
   26.0926  -20.4349  -11.8860 N   0  0  0  0  0  0  0  0  0  0  0  0
   23.9857  -20.6387  -10.8096 C   0  0  0  0  0  0  0  0  0  0  0  0
   23.1311  -21.4319  -10.0708 O   0  0  0  0  0  0  0  0  0  0  0  0
   23.5096  -19.7931  -11.5824 O   0  0  0  0  0  0  0  0  0  0  0  0
  2  1  1  0
  3  4  1  0
  3  2  1  0
  4  5  1  0
  5  7  1  0
  5  6  1  6
  7 11  1  0
  7  8  2  0
 10  9  1  6
 10 12  1  0
 11 10  1  0
 12 19  1  0
 12 13  2  0
 14 15  1  0
 16 18  1  0
 16 15  1  0
 16 17  1  1
 18 20  1  0
 18 19  1  6
 20 21  1  0
 22 20  2  0
M  END
$$$$
