MAI.pdb
     RDKit          3D

 22 21  0  0  1  0  0  0  0  0999 V2000
   18.4431  -26.4317  -13.9937 C   0  0  0  0  0  0  0  0  0  0  0  0
   17.3540  -26.0006  -12.6313 S   0  0  0  0  0  0  0  0  0  0  0  0
   18.2625  -25.2422  -11.2579 C   0  0  0  0  0  0  0  0  0  0  0  0
   18.7726  -23.8718  -11.7036 C   0  0  0  0  0  0  0  0  0  0  0  0
   19.6413  -23.3145  -10.5953 C   0  0  2  0  0  0  0  0  0  0  0  0
   18.8221  -23.0472   -9.4538 N   0  0  0  0  0  0  0  0  0  0  0  0
   20.3303  -22.1119  -11.1144 C   0  0  0  0  0  0  0  0  0  0  0  0
   19.6583  -21.0592  -11.2674 O   0  0  0  0  0  0  0  0  0  0  0  0
   23.8072  -20.9850  -11.7845 C   0  0  0  0  0  0  0  0  0  0  0  0
   22.3279  -20.8975  -12.0454 C   0  0  2  0  0  0  0  0  0  0  0  0
   21.7023  -22.0631  -11.4531 N   0  0  0  0  0  0  0  0  0  0  0  0
   22.0827  -20.8018  -13.5060 C   0  0  0  0  0  0  0  0  0  0  0  0
   22.0079  -21.8941  -14.1215 O   0  0  0  0  0  0  0  0  0  0  0  0
   18.5009  -17.2072  -15.6970 C   0  0  0  0  0  0  0  0  0  0  0  0
   19.3528  -18.4055  -15.4634 C   0  0  0  0  0  0  0  0  0  0  0  0
   20.7511  -18.3285  -15.9986 C   0  0  2  0  0  0  0  0  0  0  0  0
   20.6272  -18.2314  -17.5146 C   0  0  0  0  0  0  0  0  0  0  0  0
   21.6690  -19.4207  -15.5920 C   0  0  2  0  0  0  0  0  0  0  0  0
   21.9357  -19.5652  -14.2030 N   0  0  0  0  0  0  0  0  0  0  0  0
   22.9711  -19.3696  -16.3311 C   0  0  0  0  0  0  0  0  0  0  0  0
   23.1108  -20.0626  -17.5167 O   0  0  0  0  0  0  0  0  0  0  0  0
   23.9307  -18.7140  -15.8972 O   0  0  0  0  0  0  0  0  0  0  0  0
  2  1  1  0
  3  4  1  0
  3  2  1  0
  4  5  1  0
  5  7  1  0
  5  6  1  1
  7 11  1  0
  7  8  2  0
 10  9  1  6
 10 12  1  0
 11 10  1  0
 12 19  1  0
 12 13  2  0
 14 15  1  0
 16 18  1  0
 16 15  1  0
 16 17  1  6
 18 20  1  0
 18 19  1  1
 20 21  1  0
 22 20  2  0
M  END
$$$$
