MAI.pdb
     RDKit          3D

 22 21  0  0  1  0  0  0  0  0999 V2000
   27.7771  -18.9987   -7.0801 C   0  0  0  0  0  0  0  0  0  0  0  0
   26.0894  -19.5637   -7.3263 S   0  0  0  0  0  0  0  0  0  0  0  0
   26.0039  -20.9283   -8.5168 C   0  0  0  0  0  0  0  0  0  0  0  0
   26.1439  -20.3584   -9.9283 C   0  0  0  0  0  0  0  0  0  0  0  0
   26.1328  -21.5178  -10.9026 C   0  0  2  0  0  0  0  0  0  0  0  0
   27.4551  -22.0540  -11.0004 N   0  0  0  0  0  0  0  0  0  0  0  0
   25.6051  -21.0252  -12.1946 C   0  0  0  0  0  0  0  0  0  0  0  0
   26.4046  -20.4716  -12.9931 O   0  0  0  0  0  0  0  0  0  0  0  0
   22.3829  -21.2459  -14.0769 C   0  0  0  0  0  0  0  0  0  0  0  0
   23.7868  -20.7311  -13.9090 C   0  0  2  0  0  0  0  0  0  0  0  0
   24.2541  -21.1342  -12.5975 N   0  0  0  0  0  0  0  0  0  0  0  0
   23.8043  -19.2582  -14.0903 C   0  0  0  0  0  0  0  0  0  0  0  0
   23.3578  -18.5829  -13.1301 O   0  0  0  0  0  0  0  0  0  0  0  0
   28.0800  -16.4499  -15.6720 C   0  0  0  0  0  0  0  0  0  0  0  0
   26.7901  -17.0033  -15.1760 C   0  0  0  0  0  0  0  0  0  0  0  0
   25.5660  -16.5937  -15.9385 C   0  0  2  0  0  0  0  0  0  0  0  0
   25.5069  -15.0721  -15.8728 C   0  0  0  0  0  0  0  0  0  0  0  0
   24.2883  -17.2116  -15.5069 C   0  0  2  0  0  0  0  0  0  0  0  0
   24.2899  -18.6129  -15.2669 N   0  0  0  0  0  0  0  0  0  0  0  0
   23.1590  -16.8816  -16.4343 C   0  0  0  0  0  0  0  0  0  0  0  0
   22.2693  -15.8814  -16.0979 O   0  0  0  0  0  0  0  0  0  0  0  0
   23.0066  -17.4920  -17.5036 O   0  0  0  0  0  0  0  0  0  0  0  0
  2  1  1  0
  3  4  1  0
  3  2  1  0
  4  5  1  0
  5  7  1  0
  5  6  1  6
  7 11  1  0
  7  8  2  0
 10  9  1  1
 10 12  1  0
 11 10  1  0
 12 19  1  0
 12 13  2  0
 14 15  1  0
 16 18  1  0
 16 15  1  0
 16 17  1  1
 18 20  1  0
 18 19  1  6
 20 21  1  0
 22 20  2  0
M  END
$$$$
