MAI.pdb
     RDKit          3D

 22 21  0  0  1  0  0  0  0  0999 V2000
   12.1640  -11.3722   -7.8827 C   0  0  0  0  0  0  0  0  0  0  0  0
   13.3321  -10.1636   -8.5177 S   0  0  0  0  0  0  0  0  0  0  0  0
   14.4436  -10.8873   -9.7536 C   0  0  0  0  0  0  0  0  0  0  0  0
   15.4678   -9.8320  -10.1710 C   0  0  0  0  0  0  0  0  0  0  0  0
   14.7111   -8.6288  -10.6938 C   0  0  2  0  0  0  0  0  0  0  0  0
   14.0523   -8.9883  -11.9113 N   0  0  0  0  0  0  0  0  0  0  0  0
   15.6747   -7.5174  -10.8571 C   0  0  0  0  0  0  0  0  0  0  0  0
   16.2838   -7.4125  -11.9531 O   0  0  0  0  0  0  0  0  0  0  0  0
   16.7284   -4.5142   -8.8900 C   0  0  0  0  0  0  0  0  0  0  0  0
   16.8413   -5.4275  -10.0805 C   0  0  2  0  0  0  0  0  0  0  0  0
   15.9608   -6.5573   -9.8591 N   0  0  0  0  0  0  0  0  0  0  0  0
   18.2559   -5.8371  -10.2640 C   0  0  0  0  0  0  0  0  0  0  0  0
   18.7724   -6.4661   -9.3074 O   0  0  0  0  0  0  0  0  0  0  0  0
   22.0195   -8.9652  -13.5478 C   0  0  0  0  0  0  0  0  0  0  0  0
   21.8823   -7.6907  -12.7910 C   0  0  0  0  0  0  0  0  0  0  0  0
   20.4811   -7.2771  -12.4546 C   0  0  2  0  0  0  0  0  0  0  0  0
   19.7135   -7.2460  -13.7710 C   0  0  0  0  0  0  0  0  0  0  0  0
   20.3358   -6.0055  -11.7046 C   0  0  2  0  0  0  0  0  0  0  0  0
   19.0147   -5.5525  -11.4386 N   0  0  0  0  0  0  0  0  0  0  0  0
   21.1128   -4.8880  -12.3305 C   0  0  0  0  0  0  0  0  0  0  0  0
   20.4416   -3.8207  -12.8923 O   0  0  0  0  0  0  0  0  0  0  0  0
   22.3531   -4.9025  -12.3542 O   0  0  0  0  0  0  0  0  0  0  0  0
  2  1  1  0
  3  4  1  0
  3  2  1  0
  4  5  1  0
  5  7  1  0
  5  6  1  6
  7 11  1  0
  7  8  2  0
 10  9  1  1
 10 12  1  0
 11 10  1  0
 12 19  1  0
 12 13  2  0
 14 15  1  0
 16 18  1  0
 16 15  1  0
 16 17  1  6
 18 20  1  0
 18 19  1  6
 20 21  1  0
 22 20  2  0
M  END
$$$$
