MAI.pdb
     RDKit          3D

 22 21  0  0  1  0  0  0  0  0999 V2000
   27.4969  -17.5467  -16.1912 C   0  0  0  0  0  0  0  0  0  0  0  0
   27.8640  -18.2772  -14.5913 S   0  0  0  0  0  0  0  0  0  0  0  0
   27.7996  -20.0881  -14.6480 C   0  0  0  0  0  0  0  0  0  0  0  0
   26.4217  -20.5149  -15.1541 C   0  0  0  0  0  0  0  0  0  0  0  0
   26.3943  -22.0281  -15.2117 C   0  0  2  0  0  0  0  0  0  0  0  0
   27.2838  -22.4692  -16.2412 N   0  0  0  0  0  0  0  0  0  0  0  0
   24.9933  -22.4528  -15.4287 C   0  0  0  0  0  0  0  0  0  0  0  0
   24.4732  -22.2399  -16.5545 O   0  0  0  0  0  0  0  0  0  0  0  0
   22.3677  -24.3412  -13.5563 C   0  0  0  0  0  0  0  0  0  0  0  0
   22.8011  -23.4294  -14.6721 C   0  0  2  0  0  0  0  0  0  0  0  0
   24.1918  -23.0863  -14.4510 N   0  0  0  0  0  0  0  0  0  0  0  0
   21.9209  -22.2351  -14.7123 C   0  0  0  0  0  0  0  0  0  0  0  0
   22.2704  -21.2725  -13.9852 O   0  0  0  0  0  0  0  0  0  0  0  0
   18.5828  -18.6335  -18.3606 C   0  0  0  0  0  0  0  0  0  0  0  0
   18.7871  -19.2208  -17.0080 C   0  0  0  0  0  0  0  0  0  0  0  0
   19.7146  -20.3966  -16.9386 C   0  0  2  0  0  0  0  0  0  0  0  0
   19.2169  -21.3993  -17.9730 C   0  0  0  0  0  0  0  0  0  0  0  0
   19.8803  -21.0220  -15.6037 C   0  0  2  0  0  0  0  0  0  0  0  0
   20.7433  -22.1483  -15.5138 N   0  0  0  0  0  0  0  0  0  0  0  0
   18.5657  -21.3694  -14.9748 C   0  0  0  0  0  0  0  0  0  0  0  0
   17.8757  -20.4103  -14.2612 O   0  0  0  0  0  0  0  0  0  0  0  0
   18.0825  -22.5068  -15.0830 O   0  0  0  0  0  0  0  0  0  0  0  0
  2  1  1  0
  3  4  1  0
  3  2  1  0
  4  5  1  0
  5  7  1  0
  5  6  1  6
  7 11  1  0
  7  8  2  0
 10  9  1  1
 10 12  1  0
 11 10  1  0
 12 19  1  0
 12 13  2  0
 14 15  1  0
 16 18  1  0
 16 15  1  0
 16 17  1  6
 18 20  1  0
 18 19  1  6
 20 21  1  0
 22 20  2  0
M  END
$$$$
