MAI.pdb
     RDKit          3D

 22 21  0  0  1  0  0  0  0  0999 V2000
   18.7418  -11.3516  -21.9867 C   0  0  0  0  0  0  0  0  0  0  0  0
   18.8135  -13.1335  -22.2056 S   0  0  0  0  0  0  0  0  0  0  0  0
   19.7365  -13.9387  -20.8690 C   0  0  0  0  0  0  0  0  0  0  0  0
   20.1401  -12.8794  -19.8433 C   0  0  0  0  0  0  0  0  0  0  0  0
   20.9539  -13.5619  -18.7636 C   0  0  2  0  0  0  0  0  0  0  0  0
   20.3108  -14.7874  -18.4030 N   0  0  0  0  0  0  0  0  0  0  0  0
   21.0932  -12.6198  -17.6308 C   0  0  0  0  0  0  0  0  0  0  0  0
   20.0472  -12.2098  -17.0641 O   0  0  0  0  0  0  0  0  0  0  0  0
   23.8788  -11.2211  -15.5711 C   0  0  0  0  0  0  0  0  0  0  0  0
   22.4353  -11.2586  -15.9944 C   0  0  2  0  0  0  0  0  0  0  0  0
   22.3299  -12.1444  -17.1368 N   0  0  0  0  0  0  0  0  0  0  0  0
   21.9672   -9.8831  -16.2971 C   0  0  0  0  0  0  0  0  0  0  0  0
   22.0968   -9.5105  -17.4894 O   0  0  0  0  0  0  0  0  0  0  0  0
   17.7575   -6.0420  -17.0697 C   0  0  0  0  0  0  0  0  0  0  0  0
   19.0965   -6.1642  -16.4307 C   0  0  0  0  0  0  0  0  0  0  0  0
   19.5699   -7.5619  -16.1659 C   0  0  2  0  0  0  0  0  0  0  0  0
   18.5012   -8.2222  -15.3026 C   0  0  0  0  0  0  0  0  0  0  0  0
   20.9195   -7.6933  -15.5643 C   0  0  2  0  0  0  0  0  0  0  0  0
   21.4001   -9.0092  -15.3218 N   0  0  0  0  0  0  0  0  0  0  0  0
   21.0596   -6.8887  -14.3084 C   0  0  0  0  0  0  0  0  0  0  0  0
   21.1559   -5.5139  -14.3855 O   0  0  0  0  0  0  0  0  0  0  0  0
   21.0908   -7.4357  -13.1953 O   0  0  0  0  0  0  0  0  0  0  0  0
  2  1  1  0
  3  4  1  0
  3  2  1  0
  4  5  1  0
  5  7  1  0
  5  6  1  1
  7 11  1  0
  7  8  2  0
 10  9  1  6
 10 12  1  0
 11 10  1  0
 12 19  1  0
 12 13  2  0
 14 15  1  0
 16 18  1  0
 16 15  1  0
 16 17  1  1
 18 20  1  0
 18 19  1  1
 20 21  1  0
 22 20  2  0
M  END
$$$$
