MAI.pdb
     RDKit          3D

 22 21  0  0  1  0  0  0  0  0999 V2000
   29.0413  -19.7865   -6.1237 C   0  0  0  0  0  0  0  0  0  0  0  0
   27.7320  -18.5936   -5.8220 S   0  0  0  0  0  0  0  0  0  0  0  0
   26.1135  -19.2263   -6.3389 C   0  0  0  0  0  0  0  0  0  0  0  0
   26.2553  -19.8695   -7.7184 C   0  0  0  0  0  0  0  0  0  0  0  0
   24.8981  -20.4045   -8.1252 C   0  0  2  0  0  0  0  0  0  0  0  0
   24.5591  -21.5038   -7.2753 N   0  0  0  0  0  0  0  0  0  0  0  0
   24.9609  -20.7712   -9.5576 C   0  0  0  0  0  0  0  0  0  0  0  0
   25.7843  -21.6544   -9.9114 O   0  0  0  0  0  0  0  0  0  0  0  0
   22.9680  -20.1384  -12.6368 C   0  0  0  0  0  0  0  0  0  0  0  0
   24.2392  -20.5750  -11.9602 C   0  0  2  0  0  0  0  0  0  0  0  0
   24.1535  -20.1934  -10.5645 N   0  0  0  0  0  0  0  0  0  0  0  0
   25.4054  -19.9643  -12.6455 C   0  0  0  0  0  0  0  0  0  0  0  0
   25.7170  -18.8070  -12.2700 O   0  0  0  0  0  0  0  0  0  0  0  0
   30.2272  -21.5870  -12.2388 C   0  0  0  0  0  0  0  0  0  0  0  0
   28.9862  -20.8268  -12.5522 C   0  0  0  0  0  0  0  0  0  0  0  0
   28.6060  -20.7636  -14.0010 C   0  0  2  0  0  0  0  0  0  0  0  0
   29.7675  -20.0896  -14.7220 C   0  0  0  0  0  0  0  0  0  0  0  0
   27.3126  -20.1064  -14.3106 C   0  0  2  0  0  0  0  0  0  0  0  0
   26.1509  -20.6192  -13.6711 N   0  0  0  0  0  0  0  0  0  0  0  0
   27.0572  -20.0268  -15.7846 C   0  0  0  0  0  0  0  0  0  0  0  0
   26.0981  -20.8385  -16.3561 O   0  0  0  0  0  0  0  0  0  0  0  0
   27.6933  -19.2426  -16.5053 O   0  0  0  0  0  0  0  0  0  0  0  0
  2  1  1  0
  3  4  1  0
  3  2  1  0
  4  5  1  0
  5  7  1  0
  5  6  1  1
  7 11  1  0
  7  8  2  0
 10  9  1  6
 10 12  1  0
 11 10  1  0
 12 19  1  0
 12 13  2  0
 14 15  1  0
 16 18  1  0
 16 15  1  0
 16 17  1  6
 18 20  1  0
 18 19  1  1
 20 21  1  0
 22 20  2  0
M  END
$$$$
