MAI.pdb
     RDKit          3D

 22 21  0  0  1  0  0  0  0  0999 V2000
   27.2520  -19.6817  -18.6532 C   0  0  0  0  0  0  0  0  0  0  0  0
   25.7924  -20.5301  -19.2683 S   0  0  0  0  0  0  0  0  0  0  0  0
   24.6779  -21.0129  -17.9223 C   0  0  0  0  0  0  0  0  0  0  0  0
   24.1302  -19.7484  -17.2606 C   0  0  0  0  0  0  0  0  0  0  0  0
   25.0696  -19.3664  -16.1357 C   0  0  2  0  0  0  0  0  0  0  0  0
   24.9202  -20.3056  -15.0675 N   0  0  0  0  0  0  0  0  0  0  0  0
   24.7641  -17.9743  -15.7368 C   0  0  0  0  0  0  0  0  0  0  0  0
   23.6394  -17.7335  -15.2266 O   0  0  0  0  0  0  0  0  0  0  0  0
   26.5768  -14.7083  -15.5649 C   0  0  0  0  0  0  0  0  0  0  0  0
   25.3177  -15.5303  -15.5086 C   0  0  2  0  0  0  0  0  0  0  0  0
   25.6552  -16.8872  -15.8902 N   0  0  0  0  0  0  0  0  0  0  0  0
   24.2890  -14.9303  -16.3942 C   0  0  0  0  0  0  0  0  0  0  0  0
   24.3028  -15.3161  -17.5893 O   0  0  0  0  0  0  0  0  0  0  0  0
   18.4165  -13.4421  -16.7982 C   0  0  0  0  0  0  0  0  0  0  0  0
   19.8118  -13.0647  -17.1542 C   0  0  0  0  0  0  0  0  0  0  0  0
   20.8905  -13.6792  -16.3136 C   0  0  2  0  0  0  0  0  0  0  0  0
   20.6424  -13.2103  -14.8846 C   0  0  0  0  0  0  0  0  0  0  0  0
   22.2857  -13.4155  -16.7431 C   0  0  2  0  0  0  0  0  0  0  0  0
   23.3278  -13.9725  -15.9525 N   0  0  0  0  0  0  0  0  0  0  0  0
   22.5521  -11.9535  -16.9330 C   0  0  0  0  0  0  0  0  0  0  0  0
   23.4577  -11.3123  -16.1121 O   0  0  0  0  0  0  0  0  0  0  0  0
   21.9725  -11.3046  -17.8173 O   0  0  0  0  0  0  0  0  0  0  0  0
  2  1  1  0
  3  4  1  0
  3  2  1  0
  4  5  1  0
  5  7  1  0
  5  6  1  1
  7 11  1  0
  7  8  2  0
 10  9  1  6
 10 12  1  0
 11 10  1  0
 12 19  1  0
 12 13  2  0
 14 15  1  0
 16 18  1  0
 16 15  1  0
 16 17  1  1
 18 20  1  0
 18 19  1  1
 20 21  1  0
 22 20  2  0
M  END
$$$$
