MAI.pdb
     RDKit          3D

 22 21  0  0  1  0  0  0  0  0999 V2000
   19.9901  -17.0499  -13.6220 C   0  0  0  0  0  0  0  0  0  0  0  0
   20.7677  -17.8712  -15.0181 S   0  0  0  0  0  0  0  0  0  0  0  0
   20.2280  -17.1664  -16.5989 C   0  0  0  0  0  0  0  0  0  0  0  0
   20.4607  -15.6559  -16.5682 C   0  0  0  0  0  0  0  0  0  0  0  0
   19.8888  -15.0700  -17.8423 C   0  0  2  0  0  0  0  0  0  0  0  0
   20.4758  -15.7362  -18.9635 N   0  0  0  0  0  0  0  0  0  0  0  0
   20.1429  -13.6120  -17.8302 C   0  0  0  0  0  0  0  0  0  0  0  0
   21.3002  -13.2062  -18.1116 O   0  0  0  0  0  0  0  0  0  0  0  0
   18.1643  -10.4810  -17.2886 C   0  0  0  0  0  0  0  0  0  0  0  0
   19.4661  -11.2190  -17.4467 C   0  0  2  0  0  0  0  0  0  0  0  0
   19.1679  -12.6354  -17.5221 N   0  0  0  0  0  0  0  0  0  0  0  0
   20.3688  -10.8880  -16.3161 C   0  0  0  0  0  0  0  0  0  0  0  0
   20.1475  -11.4993  -15.2415 O   0  0  0  0  0  0  0  0  0  0  0  0
   26.0785  -10.5726  -14.6467 C   0  0  0  0  0  0  0  0  0  0  0  0
   24.7683   -9.8746  -14.5357 C   0  0  0  0  0  0  0  0  0  0  0  0
   23.7715  -10.1790  -15.6135 C   0  0  2  0  0  0  0  0  0  0  0  0
   24.3665   -9.6482  -16.9125 C   0  0  0  0  0  0  0  0  0  0  0  0
   22.3944   -9.6731  -15.3937 C   0  0  2  0  0  0  0  0  0  0  0  0
   21.4322   -9.9405  -16.4057 N   0  0  0  0  0  0  0  0  0  0  0  0
   22.3733   -8.2079  -15.0822 C   0  0  0  0  0  0  0  0  0  0  0  0
   21.9409   -7.3125  -16.0395 O   0  0  0  0  0  0  0  0  0  0  0  0
   22.7383   -7.7811  -13.9759 O   0  0  0  0  0  0  0  0  0  0  0  0
  2  1  1  0
  3  4  1  0
  3  2  1  0
  4  5  1  0
  5  7  1  0
  5  6  1  6
  7 11  1  0
  7  8  2  0
 10  9  1  1
 10 12  1  0
 11 10  1  0
 12 19  1  0
 12 13  2  0
 14 15  1  0
 16 18  1  0
 16 15  1  0
 16 17  1  6
 18 20  1  0
 18 19  1  6
 20 21  1  0
 22 20  2  0
M  END
$$$$
