MAI.pdb
     RDKit          3D

 22 21  0  0  1  0  0  0  0  0999 V2000
   30.8255  -20.0222  -11.5306 C   0  0  0  0  0  0  0  0  0  0  0  0
   30.5486  -21.5041  -12.5081 S   0  0  0  0  0  0  0  0  0  0  0  0
   30.1040  -21.1071  -14.2203 C   0  0  0  0  0  0  0  0  0  0  0  0
   28.6596  -20.6075  -14.2495 C   0  0  0  0  0  0  0  0  0  0  0  0
   28.3289  -20.2202  -15.6758 C   0  0  2  0  0  0  0  0  0  0  0  0
   29.1340  -19.0991  -16.0505 N   0  0  0  0  0  0  0  0  0  0  0  0
   26.8762  -19.9474  -15.7511 C   0  0  0  0  0  0  0  0  0  0  0  0
   26.4728  -18.7864  -15.4817 O   0  0  0  0  0  0  0  0  0  0  0  0
   23.8889  -21.5337  -17.2296 C   0  0  0  0  0  0  0  0  0  0  0  0
   24.4904  -20.5983  -16.2160 C   0  0  2  0  0  0  0  0  0  0  0  0
   25.9021  -20.9084  -16.1077 N   0  0  0  0  0  0  0  0  0  0  0  0
   23.7773  -20.7379  -14.9219 C   0  0  0  0  0  0  0  0  0  0  0  0
   22.5518  -20.4639  -14.9396 O   0  0  0  0  0  0  0  0  0  0  0  0
   26.8773  -21.1346  -10.0974 C   0  0  0  0  0  0  0  0  0  0  0  0
   25.8827  -21.6712  -11.0663 C   0  0  0  0  0  0  0  0  0  0  0  0
   24.6479  -20.8439  -11.2621 C   0  0  2  0  0  0  0  0  0  0  0  0
   23.8672  -20.9196   -9.9552 C   0  0  0  0  0  0  0  0  0  0  0  0
   23.8013  -21.1966  -12.4281 C   0  0  2  0  0  0  0  0  0  0  0  0
   24.4099  -21.1545  -13.7124 N   0  0  0  0  0  0  0  0  0  0  0  0
   22.5334  -20.3998  -12.4680 C   0  0  0  0  0  0  0  0  0  0  0  0
   21.3597  -20.9607  -12.0063 O   0  0  0  0  0  0  0  0  0  0  0  0
   22.5169  -19.2406  -12.9096 O   0  0  0  0  0  0  0  0  0  0  0  0
  2  1  1  0
  3  4  1  0
  3  2  1  0
  4  5  1  0
  5  7  1  0
  5  6  1  1
  7 11  1  0
  7  8  2  0
 10  9  1  6
 10 12  1  0
 11 10  1  0
 12 19  1  0
 12 13  2  0
 14 15  1  0
 16 18  1  0
 16 15  1  0
 16 17  1  1
 18 20  1  0
 18 19  1  6
 20 21  1  0
 22 20  2  0
M  END
$$$$
