LPK.pdb
     RDKit          3D

 25 25  0  0  1  0  0  0  0  0999 V2000
    8.0757  -12.0720   26.6962 C   0  0  0  0  0  0  0  0  0  0  0  0
    7.0612  -12.9423   26.0392 C   0  0  2  0  0  0  0  0  0  0  0  0
    5.6373  -12.4992   26.3527 C   0  0  0  0  0  0  0  0  0  0  0  0
    7.2744  -14.3842   26.2340 C   0  0  0  0  0  0  0  0  0  0  0  0
    6.5498  -15.3625   25.3857 C   0  0  2  0  0  0  0  0  0  0  0  0
    5.8336  -16.4053   26.0408 N   0  0  0  0  0  0  0  0  0  0  0  0
    7.5026  -15.8434   24.3676 C   0  0  0  0  0  0  0  0  0  0  0  0
    8.1718  -16.8729   24.6884 O   0  0  0  0  0  0  0  0  0  0  0  0
    7.7448  -15.2816   23.0766 N   0  0  0  0  0  0  0  0  0  0  0  0
    7.0836  -14.1894   22.4268 C   0  0  0  0  0  0  0  0  0  0  0  0
    8.1367  -13.6808   21.4537 C   0  0  0  0  0  0  0  0  0  0  0  0
    8.7479  -15.0036   20.9567 C   0  0  0  0  0  0  0  0  0  0  0  0
    8.7691  -15.8029   22.2119 C   0  0  1  0  0  0  0  0  0  0  0  0
   10.1122  -15.7735   22.8691 C   0  0  0  0  0  0  0  0  0  0  0  0
   10.4097  -14.7527   23.5318 O   0  0  0  0  0  0  0  0  0  0  0  0
   11.0350  -16.8327   22.7705 N   0  0  0  0  0  0  0  0  0  0  0  0
   12.3259  -16.8704   23.4693 C   0  0  1  0  0  0  0  0  0  0  0  0
   12.4351  -18.0513   24.3592 C   0  0  0  0  0  0  0  0  0  0  0  0
   11.4863  -18.1615   25.4839 C   0  0  0  0  0  0  0  0  0  0  0  0
   11.5253  -19.3596   26.3425 C   0  0  0  0  0  0  0  0  0  0  0  0
   10.6883  -19.3425   27.5732 C   0  0  0  0  0  0  0  0  0  0  0  0
   10.8872  -20.5255   28.4009 N   0  0  0  0  0  0  0  0  0  0  0  0
   13.4091  -16.6228   22.5229 C   0  0  0  0  0  0  0  0  0  0  0  0
   13.2244  -16.8244   21.1791 O   0  0  0  0  0  0  0  0  0  0  0  0
   14.5682  -16.2151   22.8945 O   0  0  0  0  0  0  0  0  0  0  0  0
  2  1  1  1
  3  2  1  0
  4  2  1  0
  5  4  1  0
  5  6  1  1
  7  5  1  0
  7  8  2  0
  9 10  1  0
  9  7  1  0
 11 10  1  0
 12 11  1  0
 12 13  1  0
 13  9  1  0
 14 15  2  0
 13 14  1  1
 16 14  1  0
 17 18  1  6
 17 16  1  0
 19 18  1  0
 19 20  1  0
 20 21  1  0
 21 22  1  0
 23 17  1  0
 24 23  1  0
 25 23  2  0
M  END
$$$$
