LPK.pdb
     RDKit          3D

 25 25  0  0  1  0  0  0  0  0999 V2000
    5.3871  -12.1869   25.6531 C   0  0  0  0  0  0  0  0  0  0  0  0
    6.0995  -13.0357   26.6483 C   0  0  2  0  0  0  0  0  0  0  0  0
    6.7752  -12.2034   27.7314 C   0  0  0  0  0  0  0  0  0  0  0  0
    6.9862  -14.0518   26.0622 C   0  0  0  0  0  0  0  0  0  0  0  0
    6.4092  -15.2608   25.4241 C   0  0  2  0  0  0  0  0  0  0  0  0
    5.9722  -16.3154   26.2763 N   0  0  0  0  0  0  0  0  0  0  0  0
    7.3561  -15.6936   24.3791 C   0  0  0  0  0  0  0  0  0  0  0  0
    8.0982  -16.6759   24.6871 O   0  0  0  0  0  0  0  0  0  0  0  0
    7.5201  -15.1329   23.0754 N   0  0  0  0  0  0  0  0  0  0  0  0
    6.8329  -14.0303   22.4719 C   0  0  0  0  0  0  0  0  0  0  0  0
    7.8262  -13.5349   21.4316 C   0  0  0  0  0  0  0  0  0  0  0  0
    8.3844  -14.8652   20.8940 C   0  0  0  0  0  0  0  0  0  0  0  0
    8.4774  -15.6670   22.1443 C   0  0  1  0  0  0  0  0  0  0  0  0
    9.8613  -15.6577   22.7110 C   0  0  0  0  0  0  0  0  0  0  0  0
   10.1713  -14.7062   23.4649 O   0  0  0  0  0  0  0  0  0  0  0  0
   10.8086  -16.6618   22.4319 N   0  0  0  0  0  0  0  0  0  0  0  0
   11.9870  -16.9386   23.2630 C   0  0  1  0  0  0  0  0  0  0  0  0
   11.7119  -17.9862   24.2756 C   0  0  0  0  0  0  0  0  0  0  0  0
   12.8269  -18.4294   25.1345 C   0  0  0  0  0  0  0  0  0  0  0  0
   12.5507  -19.3493   26.2533 C   0  0  0  0  0  0  0  0  0  0  0  0
   13.6713  -19.6383   27.1894 C   0  0  0  0  0  0  0  0  0  0  0  0
   13.3088  -20.6120   28.2115 N   0  0  0  0  0  0  0  0  0  0  0  0
   13.1648  -17.0968   22.4157 C   0  0  0  0  0  0  0  0  0  0  0  0
   13.0423  -17.5303   21.1205 O   0  0  0  0  0  0  0  0  0  0  0  0
   14.3523  -16.8464   22.8337 O   0  0  0  0  0  0  0  0  0  0  0  0
  2  1  1  6
  3  2  1  0
  4  2  1  0
  5  4  1  0
  5  6  1  1
  7  5  1  0
  7  8  2  0
  9 10  1  0
  9  7  1  0
 11 10  1  0
 12 11  1  0
 12 13  1  0
 13  9  1  0
 14 15  2  0
 13 14  1  1
 16 14  1  0
 17 18  1  6
 17 16  1  0
 19 18  1  0
 19 20  1  0
 20 21  1  0
 21 22  1  0
 23 17  1  0
 24 23  1  0
 25 23  2  0
M  END
$$$$
