LPK.pdb
     RDKit          3D

 25 25  0  0  1  0  0  0  0  0999 V2000
    8.1399  -12.7319   26.9036 C   0  0  0  0  0  0  0  0  0  0  0  0
    7.1631  -13.4186   26.0132 C   0  0  2  0  0  0  0  0  0  0  0  0
    5.9505  -12.5461   25.7126 C   0  0  0  0  0  0  0  0  0  0  0  0
    6.8051  -14.7813   26.4341 C   0  0  0  0  0  0  0  0  0  0  0  0
    6.2205  -15.7307   25.4549 C   0  0  2  0  0  0  0  0  0  0  0  0
    5.6164  -16.9172   25.9616 N   0  0  0  0  0  0  0  0  0  0  0  0
    7.2469  -15.9785   24.4249 C   0  0  0  0  0  0  0  0  0  0  0  0
    8.1222  -16.8475   24.7236 O   0  0  0  0  0  0  0  0  0  0  0  0
    7.3549  -15.3540   23.1445 N   0  0  0  0  0  0  0  0  0  0  0  0
    6.5255  -14.3441   22.5577 C   0  0  0  0  0  0  0  0  0  0  0  0
    7.4573  -13.6714   21.5609 C   0  0  0  0  0  0  0  0  0  0  0  0
    8.2181  -14.8852   20.9968 C   0  0  0  0  0  0  0  0  0  0  0  0
    8.4011  -15.7083   22.2232 C   0  0  1  0  0  0  0  0  0  0  0  0
    9.7555  -15.5153   22.8272 C   0  0  0  0  0  0  0  0  0  0  0  0
    9.8584  -14.6917   23.7658 O   0  0  0  0  0  0  0  0  0  0  0  0
   10.8960  -16.2138   22.3860 N   0  0  0  0  0  0  0  0  0  0  0  0
   12.1770  -16.2394   23.1033 C   0  0  1  0  0  0  0  0  0  0  0  0
   12.0055  -16.6385   24.5209 C   0  0  0  0  0  0  0  0  0  0  0  0
   12.1515  -18.0669   24.8611 C   0  0  0  0  0  0  0  0  0  0  0  0
   11.8237  -18.5179   26.2262 C   0  0  0  0  0  0  0  0  0  0  0  0
   11.9389  -19.9749   26.5077 C   0  0  0  0  0  0  0  0  0  0  0  0
   11.7447  -20.2888   27.9176 N   0  0  0  0  0  0  0  0  0  0  0  0
   13.1760  -16.9465   22.3082 C   0  0  0  0  0  0  0  0  0  0  0  0
   14.5040  -16.8959   22.6467 O   0  0  0  0  0  0  0  0  0  0  0  0
   12.8679  -17.6351   21.2697 O   0  0  0  0  0  0  0  0  0  0  0  0
  2  1  1  1
  3  2  1  0
  4  2  1  0
  5  4  1  0
  5  6  1  1
  7  5  1  0
  7  8  2  0
  9 10  1  0
  9  7  1  0
 11 10  1  0
 12 11  1  0
 12 13  1  0
 13  9  1  0
 14 15  2  0
 13 14  1  1
 16 14  1  0
 17 18  1  1
 17 16  1  0
 19 18  1  0
 19 20  1  0
 20 21  1  0
 21 22  1  0
 23 17  1  0
 24 23  1  0
 25 23  2  0
M  END
$$$$
