LPK.pdb
     RDKit          3D

 25 25  0  0  1  0  0  0  0  0999 V2000
    5.4761  -12.4363   26.0175 C   0  0  0  0  0  0  0  0  0  0  0  0
    6.5442  -13.1134   26.8044 C   0  0  2  0  0  0  0  0  0  0  0  0
    7.4826  -12.1159   27.4728 C   0  0  0  0  0  0  0  0  0  0  0  0
    7.2532  -14.1799   26.0818 C   0  0  0  0  0  0  0  0  0  0  0  0
    6.4871  -15.2733   25.4343 C   0  0  2  0  0  0  0  0  0  0  0  0
    5.9906  -16.3176   26.2663 N   0  0  0  0  0  0  0  0  0  0  0  0
    7.2928  -15.7519   24.2952 C   0  0  0  0  0  0  0  0  0  0  0  0
    7.9271  -16.8336   24.4908 O   0  0  0  0  0  0  0  0  0  0  0  0
    7.4290  -15.1359   23.0134 N   0  0  0  0  0  0  0  0  0  0  0  0
    6.7596  -13.9837   22.4877 C   0  0  0  0  0  0  0  0  0  0  0  0
    7.7313  -13.4730   21.4345 C   0  0  0  0  0  0  0  0  0  0  0  0
    8.2225  -14.7943   20.8154 C   0  0  0  0  0  0  0  0  0  0  0  0
    8.3326  -15.6571   22.0231 C   0  0  1  0  0  0  0  0  0  0  0  0
    9.7357  -15.7209   22.5368 C   0  0  0  0  0  0  0  0  0  0  0  0
   10.0894  -14.8479   23.3630 O   0  0  0  0  0  0  0  0  0  0  0  0
   10.6540  -16.7088   22.1318 N   0  0  0  0  0  0  0  0  0  0  0  0
   11.9070  -17.0093   22.8360 C   0  0  1  0  0  0  0  0  0  0  0  0
   11.7016  -17.9887   23.9300 C   0  0  0  0  0  0  0  0  0  0  0  0
   12.8852  -18.4412   24.6861 C   0  0  0  0  0  0  0  0  0  0  0  0
   12.7071  -19.3927   25.7983 C   0  0  0  0  0  0  0  0  0  0  0  0
   13.9340  -19.8485   26.5073 C   0  0  0  0  0  0  0  0  0  0  0  0
   13.6455  -20.8169   27.5575 N   0  0  0  0  0  0  0  0  0  0  0  0
   12.9675  -17.2741   21.8689 C   0  0  0  0  0  0  0  0  0  0  0  0
   14.2613  -16.9010   22.1290 O   0  0  0  0  0  0  0  0  0  0  0  0
   12.7460  -17.8554   20.7461 O   0  0  0  0  0  0  0  0  0  0  0  0
  2  1  1  6
  3  2  1  0
  4  2  1  0
  5  4  1  0
  5  6  1  1
  7  5  1  0
  7  8  2  0
  9 10  1  0
  9  7  1  0
 11 10  1  0
 12 11  1  0
 12 13  1  0
 13  9  1  0
 14 15  2  0
 13 14  1  1
 16 14  1  0
 17 18  1  1
 17 16  1  0
 19 18  1  0
 19 20  1  0
 20 21  1  0
 21 22  1  0
 23 17  1  0
 24 23  1  0
 25 23  2  0
M  END
$$$$
