LPK.pdb
     RDKit          3D

 25 25  0  0  1  0  0  0  0  0999 V2000
    5.2544  -12.3576   25.7760 C   0  0  0  0  0  0  0  0  0  0  0  0
    6.3831  -12.8999   26.5824 C   0  0  2  0  0  0  0  0  0  0  0  0
    7.2302  -11.7932   27.1987 C   0  0  0  0  0  0  0  0  0  0  0  0
    7.1827  -13.9288   25.9008 C   0  0  0  0  0  0  0  0  0  0  0  0
    6.5294  -15.1608   25.3937 C   0  0  2  0  0  0  0  0  0  0  0  0
    6.0806  -16.1152   26.3513 N   0  0  0  0  0  0  0  0  0  0  0  0
    7.4152  -15.7271   24.3590 C   0  0  0  0  0  0  0  0  0  0  0  0
    8.1486  -16.6918   24.7359 O   0  0  0  0  0  0  0  0  0  0  0  0
    7.5297  -15.3111   22.9971 N   0  0  0  0  0  0  0  0  0  0  0  0
    6.7421  -14.3584   22.2730 C   0  0  0  0  0  0  0  0  0  0  0  0
    7.6873  -13.8964   21.1740 C   0  0  0  0  0  0  0  0  0  0  0  0
    8.3726  -15.2213   20.7929 C   0  0  0  0  0  0  0  0  0  0  0  0
    8.5374  -15.8573   22.1282 C   0  0  1  0  0  0  0  0  0  0  0  0
    9.9119  -15.6487   22.6795 C   0  0  0  0  0  0  0  0  0  0  0  0
   10.0344  -14.8589   23.6443 O   0  0  0  0  0  0  0  0  0  0  0  0
   11.0498  -16.2968   22.1616 N   0  0  0  0  0  0  0  0  0  0  0  0
   12.1732  -16.7713   22.9794 C   0  0  1  0  0  0  0  0  0  0  0  0
   11.7187  -17.6615   24.0745 C   0  0  0  0  0  0  0  0  0  0  0  0
   12.7461  -18.3491   24.8801 C   0  0  0  0  0  0  0  0  0  0  0  0
   12.3225  -19.2599   25.9596 C   0  0  0  0  0  0  0  0  0  0  0  0
   13.3948  -19.9351   26.7404 C   0  0  0  0  0  0  0  0  0  0  0  0
   12.8645  -20.8560   27.7379 N   0  0  0  0  0  0  0  0  0  0  0  0
   13.2508  -17.2428   22.1153 C   0  0  0  0  0  0  0  0  0  0  0  0
   12.9836  -18.0538   21.0422 O   0  0  0  0  0  0  0  0  0  0  0  0
   14.4799  -16.9309   22.3148 O   0  0  0  0  0  0  0  0  0  0  0  0
  2  1  1  6
  3  2  1  0
  4  2  1  0
  5  4  1  0
  5  6  1  1
  7  5  1  0
  7  8  2  0
  9 10  1  0
  9  7  1  0
 11 10  1  0
 12 11  1  0
 12 13  1  0
 13  9  1  0
 14 15  2  0
 13 14  1  1
 16 14  1  0
 17 18  1  1
 17 16  1  0
 19 18  1  0
 19 20  1  0
 20 21  1  0
 21 22  1  0
 23 17  1  0
 24 23  1  0
 25 23  2  0
M  END
$$$$
