LPK.pdb
     RDKit          3D

 25 25  0  0  1  0  0  0  0  0999 V2000
    5.2951  -12.5899   26.4166 C   0  0  0  0  0  0  0  0  0  0  0  0
    6.5618  -13.1793   26.9329 C   0  0  2  0  0  0  0  0  0  0  0  0
    7.4559  -12.1324   27.5863 C   0  0  0  0  0  0  0  0  0  0  0  0
    7.2765  -14.0313   25.9709 C   0  0  0  0  0  0  0  0  0  0  0  0
    6.6298  -15.2580   25.4431 C   0  0  2  0  0  0  0  0  0  0  0  0
    6.2747  -16.2741   26.3763 N   0  0  0  0  0  0  0  0  0  0  0  0
    7.4627  -15.7410   24.3256 C   0  0  0  0  0  0  0  0  0  0  0  0
    8.1671  -16.7674   24.5728 O   0  0  0  0  0  0  0  0  0  0  0  0
    7.5554  -15.1843   23.0131 N   0  0  0  0  0  0  0  0  0  0  0  0
    6.8268  -14.0921   22.4403 C   0  0  0  0  0  0  0  0  0  0  0  0
    7.7616  -13.5904   21.3499 C   0  0  0  0  0  0  0  0  0  0  0  0
    8.3071  -14.9168   20.7904 C   0  0  0  0  0  0  0  0  0  0  0  0
    8.4711  -15.7121   22.0376 C   0  0  1  0  0  0  0  0  0  0  0  0
    9.8814  -15.6851   22.5347 C   0  0  0  0  0  0  0  0  0  0  0  0
   10.1723  -14.8305   23.4034 O   0  0  0  0  0  0  0  0  0  0  0  0
   10.8732  -16.5699   22.0691 N   0  0  0  0  0  0  0  0  0  0  0  0
   12.2046  -16.7087   22.6726 C   0  0  1  0  0  0  0  0  0  0  0  0
   12.1257  -16.8960   24.1413 C   0  0  0  0  0  0  0  0  0  0  0  0
   11.4719  -18.1171   24.6500 C   0  0  0  0  0  0  0  0  0  0  0  0
   11.3579  -18.3181   26.1063 C   0  0  0  0  0  0  0  0  0  0  0  0
   10.5256  -19.4605   26.5727 C   0  0  0  0  0  0  0  0  0  0  0  0
   10.5736  -19.6333   28.0190 N   0  0  0  0  0  0  0  0  0  0  0  0
   13.0011  -17.6586   21.9023 C   0  0  0  0  0  0  0  0  0  0  0  0
   12.4250  -18.4182   20.9167 O   0  0  0  0  0  0  0  0  0  0  0  0
   14.2566  -17.8300   22.1076 O   0  0  0  0  0  0  0  0  0  0  0  0
  2  1  1  6
  3  2  1  0
  4  2  1  0
  5  4  1  0
  5  6  1  1
  7  5  1  0
  7  8  2  0
  9 10  1  0
  9  7  1  0
 11 10  1  0
 12 11  1  0
 12 13  1  0
 13  9  1  0
 14 15  2  0
 13 14  1  1
 16 14  1  0
 17 18  1  1
 17 16  1  0
 19 18  1  0
 19 20  1  0
 20 21  1  0
 21 22  1  0
 23 17  1  0
 24 23  1  0
 25 23  2  0
M  END
$$$$
