LPK.pdb
     RDKit          3D

 25 25  0  0  1  0  0  0  0  0999 V2000
    8.1053  -12.9044   27.1951 C   0  0  0  0  0  0  0  0  0  0  0  0
    7.1609  -13.5252   26.2250 C   0  0  2  0  0  0  0  0  0  0  0  0
    5.9277  -12.6605   25.9929 C   0  0  0  0  0  0  0  0  0  0  0  0
    6.8367  -14.9324   26.5024 C   0  0  0  0  0  0  0  0  0  0  0  0
    6.3593  -15.8134   25.4079 C   0  0  2  0  0  0  0  0  0  0  0  0
    5.7883  -17.0678   25.7682 N   0  0  0  0  0  0  0  0  0  0  0  0
    7.4552  -15.9183   24.4262 C   0  0  0  0  0  0  0  0  0  0  0  0
    8.3915  -16.7171   24.7356 O   0  0  0  0  0  0  0  0  0  0  0  0
    7.5692  -15.2273   23.1810 N   0  0  0  0  0  0  0  0  0  0  0  0
    6.6757  -14.2772   22.5885 C   0  0  0  0  0  0  0  0  0  0  0  0
    7.5879  -13.4708   21.6764 C   0  0  0  0  0  0  0  0  0  0  0  0
    8.4961  -14.5767   21.1085 C   0  0  0  0  0  0  0  0  0  0  0  0
    8.6941  -15.4341   22.3088 C   0  0  1  0  0  0  0  0  0  0  0  0
    9.9876  -15.1378   22.9985 C   0  0  0  0  0  0  0  0  0  0  0  0
    9.9596  -14.3360   23.9609 O   0  0  0  0  0  0  0  0  0  0  0  0
   11.2110  -15.7177   22.6111 N   0  0  0  0  0  0  0  0  0  0  0  0
   12.2443  -16.1701   23.5511 C   0  0  1  0  0  0  0  0  0  0  0  0
   11.6751  -17.0130   24.6300 C   0  0  0  0  0  0  0  0  0  0  0  0
   12.6029  -17.5862   25.6239 C   0  0  0  0  0  0  0  0  0  0  0  0
   12.0597  -18.3886   26.7353 C   0  0  0  0  0  0  0  0  0  0  0  0
   13.0347  -18.9476   27.7113 C   0  0  0  0  0  0  0  0  0  0  0  0
   12.3960  -19.7713   28.7300 N   0  0  0  0  0  0  0  0  0  0  0  0
   13.3939  -16.6847   22.8137 C   0  0  0  0  0  0  0  0  0  0  0  0
   14.6613  -16.2439   23.0963 O   0  0  0  0  0  0  0  0  0  0  0  0
   13.2780  -17.5566   21.8787 O   0  0  0  0  0  0  0  0  0  0  0  0
  2  1  1  1
  3  2  1  0
  4  2  1  0
  5  4  1  0
  5  6  1  1
  7  5  1  0
  7  8  2  0
  9 10  1  0
  9  7  1  0
 11 10  1  0
 12 11  1  0
 12 13  1  0
 13  9  1  0
 14 15  2  0
 13 14  1  1
 16 14  1  0
 17 18  1  1
 17 16  1  0
 19 18  1  0
 19 20  1  0
 20 21  1  0
 21 22  1  0
 23 17  1  0
 24 23  1  0
 25 23  2  0
M  END
$$$$
