LPK.pdb
     RDKit          3D

 25 25  0  0  1  0  0  0  0  0999 V2000
    5.4850  -12.6399   26.6243 C   0  0  0  0  0  0  0  0  0  0  0  0
    6.6972  -13.3450   27.1261 C   0  0  2  0  0  0  0  0  0  0  0  0
    7.6279  -12.4110   27.8901 C   0  0  0  0  0  0  0  0  0  0  0  0
    7.3936  -14.1574   26.1174 C   0  0  0  0  0  0  0  0  0  0  0  0
    6.6715  -15.2467   25.4148 C   0  0  2  0  0  0  0  0  0  0  0  0
    6.1482  -16.3114   26.2035 N   0  0  0  0  0  0  0  0  0  0  0  0
    7.5356  -15.6958   24.3069 C   0  0  0  0  0  0  0  0  0  0  0  0
    8.1747  -16.7724   24.5142 O   0  0  0  0  0  0  0  0  0  0  0  0
    7.7228  -15.0567   23.0430 N   0  0  0  0  0  0  0  0  0  0  0  0
    6.9814  -13.9815   22.4544 C   0  0  0  0  0  0  0  0  0  0  0  0
    7.9852  -13.3560   21.4975 C   0  0  0  0  0  0  0  0  0  0  0  0
    8.6775  -14.6085   20.9299 C   0  0  0  0  0  0  0  0  0  0  0  0
    8.7686  -15.4647   22.1438 C   0  0  1  0  0  0  0  0  0  0  0  0
   10.1150  -15.3764   22.7887 C   0  0  0  0  0  0  0  0  0  0  0  0
   10.2228  -14.6530   23.8060 O   0  0  0  0  0  0  0  0  0  0  0  0
   11.2428  -16.0647   22.3014 N   0  0  0  0  0  0  0  0  0  0  0  0
   12.3779  -16.4828   23.1338 C   0  0  1  0  0  0  0  0  0  0  0  0
   11.9380  -17.2841   24.3012 C   0  0  0  0  0  0  0  0  0  0  0  0
   12.9754  -17.9229   25.1337 C   0  0  0  0  0  0  0  0  0  0  0  0
   12.5712  -18.6653   26.3419 C   0  0  0  0  0  0  0  0  0  0  0  0
   13.6518  -19.3044   27.1414 C   0  0  0  0  0  0  0  0  0  0  0  0
   13.1553  -19.9053   28.3728 N   0  0  0  0  0  0  0  0  0  0  0  0
   13.4377  -17.0258   22.2899 C   0  0  0  0  0  0  0  0  0  0  0  0
   13.1356  -17.7734   21.1808 O   0  0  0  0  0  0  0  0  0  0  0  0
   14.6824  -16.8373   22.5411 O   0  0  0  0  0  0  0  0  0  0  0  0
  2  1  1  6
  3  2  1  0
  4  2  1  0
  5  4  1  0
  5  6  1  1
  7  5  1  0
  7  8  2  0
  9 10  1  0
  9  7  1  0
 11 10  1  0
 12 11  1  0
 12 13  1  0
 13  9  1  0
 14 15  2  0
 13 14  1  1
 16 14  1  0
 17 18  1  1
 17 16  1  0
 19 18  1  0
 19 20  1  0
 20 21  1  0
 21 22  1  0
 23 17  1  0
 24 23  1  0
 25 23  2  0
M  END
$$$$
