LPK.pdb
     RDKit          3D

 25 25  0  0  1  0  0  0  0  0999 V2000
    5.3686  -12.4547   26.2352 C   0  0  0  0  0  0  0  0  0  0  0  0
    6.5821  -13.0790   26.8321 C   0  0  2  0  0  0  0  0  0  0  0  0
    7.4913  -12.0485   27.4905 C   0  0  0  0  0  0  0  0  0  0  0  0
    7.3014  -13.9964   25.9359 C   0  0  0  0  0  0  0  0  0  0  0  0
    6.5870  -15.1390   25.3148 C   0  0  2  0  0  0  0  0  0  0  0  0
    6.1304  -16.1806   26.1728 N   0  0  0  0  0  0  0  0  0  0  0  0
    7.4197  -15.6136   24.1935 C   0  0  0  0  0  0  0  0  0  0  0  0
    8.0525  -16.6937   24.4018 O   0  0  0  0  0  0  0  0  0  0  0  0
    7.5832  -14.9951   22.9161 N   0  0  0  0  0  0  0  0  0  0  0  0
    6.9189  -13.8470   22.3752 C   0  0  0  0  0  0  0  0  0  0  0  0
    7.9127  -13.3284   21.3467 C   0  0  0  0  0  0  0  0  0  0  0  0
    8.4282  -14.6455   20.7387 C   0  0  0  0  0  0  0  0  0  0  0  0
    8.5145  -15.5089   21.9478 C   0  0  1  0  0  0  0  0  0  0  0  0
    9.9049  -15.5636   22.4959 C   0  0  0  0  0  0  0  0  0  0  0  0
   10.2922  -14.5939   23.1883 O   0  0  0  0  0  0  0  0  0  0  0  0
   10.7757  -16.6460   22.2650 N   0  0  0  0  0  0  0  0  0  0  0  0
   12.0913  -16.7967   22.8995 C   0  0  1  0  0  0  0  0  0  0  0  0
   12.0152  -17.6102   24.1367 C   0  0  0  0  0  0  0  0  0  0  0  0
   11.4576  -18.9726   24.0368 C   0  0  0  0  0  0  0  0  0  0  0  0
   11.4015  -19.8167   25.2446 C   0  0  0  0  0  0  0  0  0  0  0  0
   10.7138  -21.1314   25.1249 C   0  0  0  0  0  0  0  0  0  0  0  0
   10.8153  -21.9280   26.3411 N   0  0  0  0  0  0  0  0  0  0  0  0
   13.0856  -17.1655   21.8967 C   0  0  0  0  0  0  0  0  0  0  0  0
   12.7047  -17.4948   20.6212 O   0  0  0  0  0  0  0  0  0  0  0  0
   14.3425  -17.2030   22.1547 O   0  0  0  0  0  0  0  0  0  0  0  0
  2  1  1  6
  3  2  1  0
  4  2  1  0
  5  4  1  0
  5  6  1  1
  7  5  1  0
  7  8  2  0
  9 10  1  0
  9  7  1  0
 11 10  1  0
 12 11  1  0
 12 13  1  0
 13  9  1  0
 14 15  2  0
 13 14  1  1
 16 14  1  0
 17 18  1  1
 17 16  1  0
 19 18  1  0
 19 20  1  0
 20 21  1  0
 21 22  1  0
 23 17  1  0
 24 23  1  0
 25 23  2  0
M  END
$$$$
