LPK.pdb
     RDKit          3D

 25 25  0  0  1  0  0  0  0  0999 V2000
    5.2637  -18.3695   17.0064 C   0  0  0  0  0  0  0  0  0  0  0  0
    6.2388  -19.0332   17.9158 C   0  0  2  0  0  0  0  0  0  0  0  0
    5.5644  -20.0341   18.8462 C   0  0  0  0  0  0  0  0  0  0  0  0
    7.1460  -18.1123   18.6167 C   0  0  0  0  0  0  0  0  0  0  0  0
    7.9462  -17.1291   17.8456 C   0  0  2  0  0  0  0  0  0  0  0  0
    8.7118  -17.6141   16.7465 N   0  0  0  0  0  0  0  0  0  0  0  0
    8.7321  -16.3494   18.8204 C   0  0  0  0  0  0  0  0  0  0  0  0
    9.8710  -16.8277   19.1116 O   0  0  0  0  0  0  0  0  0  0  0  0
    8.3520  -15.1292   19.4588 N   0  0  0  0  0  0  0  0  0  0  0  0
    7.1678  -14.3439   19.2770 C   0  0  0  0  0  0  0  0  0  0  0  0
    7.0416  -13.6023   20.5994 C   0  0  0  0  0  0  0  0  0  0  0  0
    8.5137  -13.2580   20.8905 C   0  0  0  0  0  0  0  0  0  0  0  0
    9.1970  -14.5003   20.4382 C   0  0  1  0  0  0  0  0  0  0  0  0
    9.4956  -15.4195   21.5795 C   0  0  0  0  0  0  0  0  0  0  0  0
    8.6002  -16.2260   21.9223 O   0  0  0  0  0  0  0  0  0  0  0  0
   10.7242  -15.4097   22.2679 N   0  0  0  0  0  0  0  0  0  0  0  0
   11.1112  -16.4008   23.2798 C   0  0  1  0  0  0  0  0  0  0  0  0
   11.3191  -17.7425   22.6840 C   0  0  0  0  0  0  0  0  0  0  0  0
   12.6839  -18.1075   22.2580 C   0  0  0  0  0  0  0  0  0  0  0  0
   12.9188  -19.4332   21.6567 C   0  0  0  0  0  0  0  0  0  0  0  0
   14.2772  -19.7019   21.1107 C   0  0  0  0  0  0  0  0  0  0  0  0
   14.3722  -21.0047   20.4644 N   0  0  0  0  0  0  0  0  0  0  0  0
   12.1668  -15.8564   24.1281 C   0  0  0  0  0  0  0  0  0  0  0  0
   12.4555  -16.4286   25.3405 O   0  0  0  0  0  0  0  0  0  0  0  0
   12.8622  -14.8318   23.7899 O   0  0  0  0  0  0  0  0  0  0  0  0
  2  1  1  1
  3  2  1  0
  4  2  1  0
  5  4  1  0
  5  6  1  6
  7  5  1  0
  7  8  2  0
  9 10  1  0
  9  7  1  0
 11 10  1  0
 12 11  1  0
 12 13  1  0
 13  9  1  0
 14 15  2  0
 13 14  1  1
 16 14  1  0
 17 18  1  6
 17 16  1  0
 19 18  1  0
 19 20  1  0
 20 21  1  0
 21 22  1  0
 23 17  1  0
 24 23  1  0
 25 23  2  0
M  END
$$$$
