LPK.pdb
     RDKit          3D

 25 25  0  0  1  0  0  0  0  0999 V2000
    5.9454  -12.4395   26.2881 C   0  0  0  0  0  0  0  0  0  0  0  0
    6.9165  -13.3152   27.0012 C   0  0  2  0  0  0  0  0  0  0  0  0
    7.9382  -12.5100   27.7949 C   0  0  0  0  0  0  0  0  0  0  0  0
    7.5265  -14.3597   26.1650 C   0  0  0  0  0  0  0  0  0  0  0  0
    6.6650  -15.2961   25.4016 C   0  0  2  0  0  0  0  0  0  0  0  0
    5.9991  -16.3253   26.1274 N   0  0  0  0  0  0  0  0  0  0  0  0
    7.4634  -15.7909   24.2643 C   0  0  0  0  0  0  0  0  0  0  0  0
    8.0300  -16.9125   24.4413 O   0  0  0  0  0  0  0  0  0  0  0  0
    7.6598  -15.1503   23.0025 N   0  0  0  0  0  0  0  0  0  0  0  0
    6.9843  -14.0144   22.4497 C   0  0  0  0  0  0  0  0  0  0  0  0
    8.0029  -13.4532   21.4690 C   0  0  0  0  0  0  0  0  0  0  0  0
    8.5808  -14.7464   20.8657 C   0  0  0  0  0  0  0  0  0  0  0  0
    8.6438  -15.6236   22.0662 C   0  0  1  0  0  0  0  0  0  0  0  0
   10.0121  -15.6458   22.6694 C   0  0  0  0  0  0  0  0  0  0  0  0
   10.2808  -14.7719   23.5262 O   0  0  0  0  0  0  0  0  0  0  0  0
   10.9888  -16.5962   22.3145 N   0  0  0  0  0  0  0  0  0  0  0  0
   12.1746  -16.9029   23.1243 C   0  0  1  0  0  0  0  0  0  0  0  0
   11.8799  -17.9102   24.1715 C   0  0  0  0  0  0  0  0  0  0  0  0
   12.9825  -18.3330   25.0562 C   0  0  0  0  0  0  0  0  0  0  0  0
   12.7046  -19.2870   26.1457 C   0  0  0  0  0  0  0  0  0  0  0  0
   13.8414  -19.6581   27.0320 C   0  0  0  0  0  0  0  0  0  0  0  0
   13.4198  -20.4526   28.1788 N   0  0  0  0  0  0  0  0  0  0  0  0
   13.3227  -17.1352   22.2536 C   0  0  0  0  0  0  0  0  0  0  0  0
   13.1788  -17.8164   21.0722 O   0  0  0  0  0  0  0  0  0  0  0  0
   14.5031  -16.7244   22.5463 O   0  0  0  0  0  0  0  0  0  0  0  0
  2  1  1  6
  3  2  1  0
  4  2  1  0
  5  4  1  0
  5  6  1  1
  7  5  1  0
  7  8  2  0
  9 10  1  0
  9  7  1  0
 11 10  1  0
 12 11  1  0
 12 13  1  0
 13  9  1  0
 14 15  2  0
 13 14  1  1
 16 14  1  0
 17 18  1  6
 17 16  1  0
 19 18  1  0
 19 20  1  0
 20 21  1  0
 21 22  1  0
 23 17  1  0
 24 23  1  0
 25 23  2  0
M  END
$$$$
