LPK.pdb
     RDKit          3D

 25 25  0  0  1  0  0  0  0  0999 V2000
    5.9324  -18.4927   21.1558 C   0  0  0  0  0  0  0  0  0  0  0  0
    6.5292  -17.1872   20.7586 C   0  0  2  0  0  0  0  0  0  0  0  0
    7.3402  -17.2957   19.4730 C   0  0  0  0  0  0  0  0  0  0  0  0
    7.2449  -16.4888   21.8367 C   0  0  0  0  0  0  0  0  0  0  0  0
    7.6829  -15.0837   21.6476 C   0  0  2  0  0  0  0  0  0  0  0  0
    8.4349  -14.7757   20.4776 N   0  0  0  0  0  0  0  0  0  0  0  0
    8.3331  -14.6595   22.9019 C   0  0  0  0  0  0  0  0  0  0  0  0
    9.5785  -14.8917   22.9774 O   0  0  0  0  0  0  0  0  0  0  0  0
    7.7171  -14.0215   24.0219 N   0  0  0  0  0  0  0  0  0  0  0  0
    6.3692  -13.5603   24.1718 C   0  0  0  0  0  0  0  0  0  0  0  0
    6.1623  -13.5889   25.6787 C   0  0  0  0  0  0  0  0  0  0  0  0
    7.5253  -13.0754   26.1772 C   0  0  0  0  0  0  0  0  0  0  0  0
    8.4533  -13.7459   25.2264 C   0  0  1  0  0  0  0  0  0  0  0  0
    9.0438  -14.9909   25.8079 C   0  0  0  0  0  0  0  0  0  0  0  0
    8.2851  -15.9771   25.9547 O   0  0  0  0  0  0  0  0  0  0  0  0
   10.3961  -15.0903   26.1883 N   0  0  0  0  0  0  0  0  0  0  0  0
   10.8537  -15.6209   27.4787 C   0  0  1  0  0  0  0  0  0  0  0  0
   10.3988  -14.7796   28.6116 C   0  0  0  0  0  0  0  0  0  0  0  0
   10.5091  -15.3343   29.9745 C   0  0  0  0  0  0  0  0  0  0  0  0
   11.2284  -14.5660   31.0073 C   0  0  0  0  0  0  0  0  0  0  0  0
   11.3223  -15.1711   32.3639 C   0  0  0  0  0  0  0  0  0  0  0  0
   12.1386  -14.3782   33.2744 N   0  0  0  0  0  0  0  0  0  0  0  0
   10.5957  -17.0560   27.5438 C   0  0  0  0  0  0  0  0  0  0  0  0
   11.5936  -17.9318   27.8867 O   0  0  0  0  0  0  0  0  0  0  0  0
    9.4444  -17.5610   27.2845 O   0  0  0  0  0  0  0  0  0  0  0  0
  2  1  1  1
  3  2  1  0
  4  2  1  0
  5  4  1  0
  5  6  1  6
  7  5  1  0
  7  8  2  0
  9 10  1  0
  9  7  1  0
 11 10  1  0
 12 11  1  0
 12 13  1  0
 13  9  1  0
 14 15  2  0
 13 14  1  1
 16 14  1  0
 17 18  1  1
 17 16  1  0
 19 18  1  0
 19 20  1  0
 20 21  1  0
 21 22  1  0
 23 17  1  0
 24 23  1  0
 25 23  2  0
M  END
$$$$
