LPK.pdb
     RDKit          3D

 25 25  0  0  1  0  0  0  0  0999 V2000
    4.5118  -18.7041   18.7720 C   0  0  0  0  0  0  0  0  0  0  0  0
    5.7643  -19.4294   19.1237 C   0  0  2  0  0  0  0  0  0  0  0  0
    5.4940  -20.6480   19.9979 C   0  0  0  0  0  0  0  0  0  0  0  0
    6.8417  -18.5732   19.6419 C   0  0  0  0  0  0  0  0  0  0  0  0
    7.3058  -17.4056   18.8527 C   0  0  2  0  0  0  0  0  0  0  0  0
    7.7682  -17.6436   17.5264 N   0  0  0  0  0  0  0  0  0  0  0  0
    8.2662  -16.6672   19.6943 C   0  0  0  0  0  0  0  0  0  0  0  0
    9.4760  -17.0382   19.5970 O   0  0  0  0  0  0  0  0  0  0  0  0
    7.9813  -15.5925   20.5914 N   0  0  0  0  0  0  0  0  0  0  0  0
    6.7513  -14.8877   20.7971 C   0  0  0  0  0  0  0  0  0  0  0  0
    6.8878  -14.3673   22.2201 C   0  0  0  0  0  0  0  0  0  0  0  0
    8.3702  -13.9525   22.2457 C   0  0  0  0  0  0  0  0  0  0  0  0
    8.9927  -15.0525   21.4599 C   0  0  1  0  0  0  0  0  0  0  0  0
    9.5796  -16.1064   22.3440 C   0  0  0  0  0  0  0  0  0  0  0  0
    8.8153  -17.0125   22.7498 O   0  0  0  0  0  0  0  0  0  0  0  0
   10.9345  -16.1148   22.7279 N   0  0  0  0  0  0  0  0  0  0  0  0
   11.5718  -17.2016   23.4821 C   0  0  1  0  0  0  0  0  0  0  0  0
   12.6214  -17.8817   22.6856 C   0  0  0  0  0  0  0  0  0  0  0  0
   13.3451  -19.0060   23.3095 C   0  0  0  0  0  0  0  0  0  0  0  0
   14.4024  -19.6931   22.5451 C   0  0  0  0  0  0  0  0  0  0  0  0
   15.0142  -20.9007   23.1637 C   0  0  0  0  0  0  0  0  0  0  0  0
   16.0643  -21.4814   22.3365 N   0  0  0  0  0  0  0  0  0  0  0  0
   11.9205  -16.7373   24.8211 C   0  0  0  0  0  0  0  0  0  0  0  0
   11.8333  -15.4079   25.1460 O   0  0  0  0  0  0  0  0  0  0  0  0
   12.3223  -17.5347   25.7434 O   0  0  0  0  0  0  0  0  0  0  0  0
  2  1  1  1
  3  2  1  0
  4  2  1  0
  5  4  1  0
  5  6  1  6
  7  5  1  0
  7  8  2  0
  9 10  1  0
  9  7  1  0
 11 10  1  0
 12 11  1  0
 12 13  1  0
 13  9  1  0
 14 15  2  0
 13 14  1  1
 16 14  1  0
 17 18  1  6
 17 16  1  0
 19 18  1  0
 19 20  1  0
 20 21  1  0
 21 22  1  0
 23 17  1  0
 24 23  1  0
 25 23  2  0
M  END
$$$$
