LPK.pdb
     RDKit          3D

 25 25  0  0  1  0  0  0  0  0999 V2000
    8.0937  -12.8090   27.1128 C   0  0  0  0  0  0  0  0  0  0  0  0
    7.1781  -13.3941   26.0941 C   0  0  2  0  0  0  0  0  0  0  0  0
    6.0840  -12.4178   25.6794 C   0  0  0  0  0  0  0  0  0  0  0  0
    6.6643  -14.7304   26.4295 C   0  0  0  0  0  0  0  0  0  0  0  0
    6.1183  -15.6047   25.3621 C   0  0  2  0  0  0  0  0  0  0  0  0
    5.4287  -16.7857   25.7609 N   0  0  0  0  0  0  0  0  0  0  0  0
    7.2100  -15.8489   24.4006 C   0  0  0  0  0  0  0  0  0  0  0  0
    7.9994  -16.7965   24.6993 O   0  0  0  0  0  0  0  0  0  0  0  0
    7.4654  -15.1426   23.1853 N   0  0  0  0  0  0  0  0  0  0  0  0
    6.7763  -14.0151   22.6322 C   0  0  0  0  0  0  0  0  0  0  0  0
    7.8343  -13.3627   21.7551 C   0  0  0  0  0  0  0  0  0  0  0  0
    8.5181  -14.5985   21.1425 C   0  0  0  0  0  0  0  0  0  0  0  0
    8.5372  -15.5261   22.3061 C   0  0  1  0  0  0  0  0  0  0  0  0
    9.8575  -15.5124   23.0086 C   0  0  0  0  0  0  0  0  0  0  0  0
   10.0640  -14.5927   23.8340 O   0  0  0  0  0  0  0  0  0  0  0  0
   10.8560  -16.4784   22.7786 N   0  0  0  0  0  0  0  0  0  0  0  0
   12.0317  -16.6707   23.6369 C   0  0  1  0  0  0  0  0  0  0  0  0
   11.9592  -17.9448   24.3917 C   0  0  0  0  0  0  0  0  0  0  0  0
   12.0831  -17.8877   25.8609 C   0  0  0  0  0  0  0  0  0  0  0  0
   11.9610  -19.1328   26.6415 C   0  0  0  0  0  0  0  0  0  0  0  0
   12.1754  -19.0384   28.1114 C   0  0  0  0  0  0  0  0  0  0  0  0
   11.0763  -19.6160   28.8747 N   0  0  0  0  0  0  0  0  0  0  0  0
   13.2483  -16.3902   22.8809 C   0  0  0  0  0  0  0  0  0  0  0  0
   13.2389  -16.4028   21.5096 O   0  0  0  0  0  0  0  0  0  0  0  0
   14.3677  -16.1263   23.4509 O   0  0  0  0  0  0  0  0  0  0  0  0
  2  1  1  1
  3  2  1  0
  4  2  1  0
  5  4  1  0
  5  6  1  1
  7  5  1  0
  7  8  2  0
  9 10  1  0
  9  7  1  0
 11 10  1  0
 12 11  1  0
 12 13  1  0
 13  9  1  0
 14 15  2  0
 13 14  1  1
 16 14  1  0
 17 18  1  6
 17 16  1  0
 19 18  1  0
 19 20  1  0
 20 21  1  0
 21 22  1  0
 23 17  1  0
 24 23  1  0
 25 23  2  0
M  END
$$$$
