LPK.pdb
     RDKit          3D

 25 25  0  0  1  0  0  0  0  0999 V2000
    8.0917  -12.9555   27.2022 C   0  0  0  0  0  0  0  0  0  0  0  0
    7.2191  -13.6273   26.1994 C   0  0  2  0  0  0  0  0  0  0  0  0
    5.9850  -12.7975   25.8669 C   0  0  0  0  0  0  0  0  0  0  0  0
    6.9070  -15.0317   26.5036 C   0  0  0  0  0  0  0  0  0  0  0  0
    6.4131  -15.9309   25.4316 C   0  0  2  0  0  0  0  0  0  0  0  0
    5.8810  -17.1943   25.8192 N   0  0  0  0  0  0  0  0  0  0  0  0
    7.4783  -16.0203   24.4152 C   0  0  0  0  0  0  0  0  0  0  0  0
    8.4280  -16.8168   24.6875 O   0  0  0  0  0  0  0  0  0  0  0  0
    7.5498  -15.3167   23.1739 N   0  0  0  0  0  0  0  0  0  0  0  0
    6.6371  -14.3602   22.6224 C   0  0  0  0  0  0  0  0  0  0  0  0
    7.5178  -13.5449   21.6875 C   0  0  0  0  0  0  0  0  0  0  0  0
    8.4050  -14.6453   21.0774 C   0  0  0  0  0  0  0  0  0  0  0  0
    8.6437  -15.5150   22.2613 C   0  0  1  0  0  0  0  0  0  0  0  0
    9.9605  -15.2263   22.9089 C   0  0  0  0  0  0  0  0  0  0  0  0
    9.9642  -14.4466   23.8896 O   0  0  0  0  0  0  0  0  0  0  0  0
   11.1716  -15.7897   22.4630 N   0  0  0  0  0  0  0  0  0  0  0  0
   12.2146  -16.3152   23.3532 C   0  0  1  0  0  0  0  0  0  0  0  0
   11.6519  -17.2159   24.3877 C   0  0  0  0  0  0  0  0  0  0  0  0
   12.5906  -17.8846   25.3090 C   0  0  0  0  0  0  0  0  0  0  0  0
   12.0665  -18.8461   26.2965 C   0  0  0  0  0  0  0  0  0  0  0  0
   13.0271  -19.3858   27.2972 C   0  0  0  0  0  0  0  0  0  0  0  0
   12.4106  -20.3485   28.2013 N   0  0  0  0  0  0  0  0  0  0  0  0
   13.3426  -16.7988   22.5633 C   0  0  0  0  0  0  0  0  0  0  0  0
   13.1821  -17.8265   21.6697 O   0  0  0  0  0  0  0  0  0  0  0  0
   14.5201  -16.2981   22.6662 O   0  0  0  0  0  0  0  0  0  0  0  0
  2  1  1  1
  3  2  1  0
  4  2  1  0
  5  4  1  0
  5  6  1  1
  7  5  1  0
  7  8  2  0
  9 10  1  0
  9  7  1  0
 11 10  1  0
 12 11  1  0
 12 13  1  0
 13  9  1  0
 14 15  2  0
 13 14  1  1
 16 14  1  0
 17 18  1  6
 17 16  1  0
 19 18  1  0
 19 20  1  0
 20 21  1  0
 21 22  1  0
 23 17  1  0
 24 23  1  0
 25 23  2  0
M  END
$$$$
