IPW.pdb
     RDKit          3D

 30 32  0  0  1  0  0  0  0  0999 V2000
    8.8872  -11.7206   19.7370 C   0  0  0  0  0  0  0  0  0  0  0  0
    8.9225  -13.2304   19.7067 C   0  0  0  0  0  0  0  0  0  0  0  0
    7.5201  -13.7484   19.6607 C   0  0  2  0  0  0  0  0  0  0  0  0
    6.6965  -13.2382   20.8364 C   0  0  0  0  0  0  0  0  0  0  0  0
    7.4399  -15.2579   19.5804 C   0  0  2  0  0  0  0  0  0  0  0  0
    6.0260  -15.5544   19.3391 N   0  0  0  0  0  0  0  0  0  0  0  0
    7.9101  -15.9055   20.8228 C   0  0  0  0  0  0  0  0  0  0  0  0
    7.4095  -15.5803   21.9277 O   0  0  0  0  0  0  0  0  0  0  0  0
    8.9397  -16.9188   20.8459 N   0  0  0  0  0  0  0  0  0  0  0  0
    9.6502  -17.4119   19.7097 C   0  0  0  0  0  0  0  0  0  0  0  0
   10.7040  -18.3429   20.2184 C   0  0  0  0  0  0  0  0  0  0  0  0
   10.5956  -18.3567   21.7026 C   0  0  0  0  0  0  0  0  0  0  0  0
    9.3714  -17.5583   22.0310 C   0  0  1  0  0  0  0  0  0  0  0  0
    9.7918  -16.5828   23.0965 C   0  0  0  0  0  0  0  0  0  0  0  0
   10.4102  -15.5210   22.8479 O   0  0  0  0  0  0  0  0  0  0  0  0
    9.4553  -16.9126   24.4364 N   0  0  0  0  0  0  0  0  0  0  0  0
   10.2424  -16.4785   25.5918 C   0  0  1  0  0  0  0  0  0  0  0  0
    9.8117  -15.0709   25.8991 C   0  0  0  0  0  0  0  0  0  0  0  0
    8.3662  -14.8723   25.9123 C   0  0  0  0  0  0  0  0  0  0  0  0
    7.3962  -15.8342   25.7287 C   0  0  0  0  0  0  0  0  0  0  0  0
    6.1822  -15.2758   25.7719 N   0  0  0  0  0  0  0  0  0  0  0  0
    6.3349  -13.9527   25.9832 C   0  0  0  0  0  0  0  0  0  0  0  0
    5.4771  -12.8928   26.1320 C   0  0  0  0  0  0  0  0  0  0  0  0
    5.9362  -11.6186   26.3619 C   0  0  0  0  0  0  0  0  0  0  0  0
    7.2773  -11.3577   26.4517 C   0  0  0  0  0  0  0  0  0  0  0  0
    8.1503  -12.3878   26.3076 C   0  0  0  0  0  0  0  0  0  0  0  0
    7.7018  -13.6803   26.0743 C   0  0  0  0  0  0  0  0  0  0  0  0
   10.2905  -17.4264   26.6755 C   0  0  0  0  0  0  0  0  0  0  0  0
   11.1129  -17.3324   27.7949 O   0  0  0  0  0  0  0  0  0  0  0  0
    9.5399  -18.4384   26.6427 O   0  0  0  0  0  0  0  0  0  0  0  0
  2  1  1  0
  3  2  1  0
  3  4  1  1
  5  3  1  0
  5  6  1  1
  7  5  1  0
  8  7  2  0
  9 13  1  0
  9  7  1  0
 10  9  1  0
 11 10  1  0
 11 12  1  0
 12 13  1  0
 13 14  1  1
 14 15  2  0
 16 14  1  0
 17 16  1  0
 17 28  1  0
 17 18  1  1
 19 27  1  0
 19 18  1  0
 20 19  2  0
 21 20  1  0
 21 22  1  0
 22 27  2  0
 23 22  1  0
 23 24  2  0
 24 25  1  0
 25 26  2  0
 27 26  1  0
 28 30  2  0
 28 29  1  0
M  END
$$$$
