IPW.pdb
     RDKit          3D

 30 32  0  0  1  0  0  0  0  0999 V2000
    6.9359  -12.3461   19.1315 C   0  0  0  0  0  0  0  0  0  0  0  0
    7.3988  -13.6688   18.5677 C   0  0  0  0  0  0  0  0  0  0  0  0
    7.9986  -14.4834   19.6695 C   0  0  2  0  0  0  0  0  0  0  0  0
    9.1129  -13.7268   20.3817 C   0  0  0  0  0  0  0  0  0  0  0  0
    8.4943  -15.8388   19.2128 C   0  0  2  0  0  0  0  0  0  0  0  0
    7.3510  -16.4576   18.5380 N   0  0  0  0  0  0  0  0  0  0  0  0
    8.9534  -16.6718   20.3438 C   0  0  0  0  0  0  0  0  0  0  0  0
    8.1722  -16.9248   21.2940 O   0  0  0  0  0  0  0  0  0  0  0  0
   10.2837  -17.2294   20.4267 N   0  0  0  0  0  0  0  0  0  0  0  0
   11.2360  -17.2763   19.3637 C   0  0  0  0  0  0  0  0  0  0  0  0
   12.5097  -17.8115   19.9360 C   0  0  0  0  0  0  0  0  0  0  0  0
   12.2699  -18.0547   21.3845 C   0  0  0  0  0  0  0  0  0  0  0  0
   10.8081  -17.8117   21.6038 C   0  0  1  0  0  0  0  0  0  0  0  0
   10.7188  -16.8956   22.7939 C   0  0  0  0  0  0  0  0  0  0  0  0
   10.9563  -15.6662   22.7314 O   0  0  0  0  0  0  0  0  0  0  0  0
   10.3447  -17.4856   24.0304 N   0  0  0  0  0  0  0  0  0  0  0  0
    9.8662  -16.7114   25.1770 C   0  0  1  0  0  0  0  0  0  0  0  0
    8.8125  -15.7756   24.6523 C   0  0  0  0  0  0  0  0  0  0  0  0
    8.1187  -15.0106   25.6832 C   0  0  0  0  0  0  0  0  0  0  0  0
    6.7573  -14.8375   25.8111 C   0  0  0  0  0  0  0  0  0  0  0  0
    6.4914  -14.0455   26.8549 N   0  0  0  0  0  0  0  0  0  0  0  0
    7.6620  -13.6908   27.4228 C   0  0  0  0  0  0  0  0  0  0  0  0
    8.0186  -12.9254   28.5038 C   0  0  0  0  0  0  0  0  0  0  0  0
    9.3328  -12.7522   28.8642 C   0  0  0  0  0  0  0  0  0  0  0  0
   10.3429  -13.3417   28.1523 C   0  0  0  0  0  0  0  0  0  0  0  0
   10.0196  -14.1046   27.0766 C   0  0  0  0  0  0  0  0  0  0  0  0
    8.6967  -14.2885   26.6996 C   0  0  0  0  0  0  0  0  0  0  0  0
    9.5573  -17.4967   26.3446 C   0  0  0  0  0  0  0  0  0  0  0  0
    8.6743  -18.5723   26.3841 O   0  0  0  0  0  0  0  0  0  0  0  0
   10.1134  -17.2163   27.4404 O   0  0  0  0  0  0  0  0  0  0  0  0
  2  1  1  0
  3  2  1  0
  3  4  1  6
  5  3  1  0
  5  6  1  1
  7  5  1  0
  8  7  2  0
  9 13  1  0
  9  7  1  0
 10  9  1  0
 11 10  1  0
 11 12  1  0
 12 13  1  0
 13 14  1  1
 14 15  2  0
 16 14  1  0
 17 16  1  0
 17 28  1  0
 17 18  1  6
 19 27  1  0
 19 18  1  0
 20 19  2  0
 21 20  1  0
 21 22  1  0
 22 27  2  0
 23 22  1  0
 23 24  2  0
 24 25  1  0
 25 26  2  0
 27 26  1  0
 28 30  2  0
 28 29  1  0
M  END
$$$$
