IPW.pdb
     RDKit          3D

 30 32  0  0  1  0  0  0  0  0999 V2000
    7.7619  -11.7356   19.3895 C   0  0  0  0  0  0  0  0  0  0  0  0
    7.5995  -13.1957   19.0379 C   0  0  0  0  0  0  0  0  0  0  0  0
    7.9478  -14.0248   20.2330 C   0  0  2  0  0  0  0  0  0  0  0  0
    9.3760  -13.7663   20.6962 C   0  0  0  0  0  0  0  0  0  0  0  0
    7.7259  -15.5071   20.0207 C   0  0  2  0  0  0  0  0  0  0  0  0
    6.3175  -15.6330   19.6388 N   0  0  0  0  0  0  0  0  0  0  0  0
    8.0141  -16.2915   21.2397 C   0  0  0  0  0  0  0  0  0  0  0  0
    7.4243  -16.0195   22.3145 O   0  0  0  0  0  0  0  0  0  0  0  0
    8.9595  -17.3836   21.2724 N   0  0  0  0  0  0  0  0  0  0  0  0
    9.5952  -17.9707   20.1365 C   0  0  0  0  0  0  0  0  0  0  0  0
   10.5853  -18.9663   20.6508 C   0  0  0  0  0  0  0  0  0  0  0  0
   10.5190  -18.9211   22.1368 C   0  0  0  0  0  0  0  0  0  0  0  0
    9.3726  -18.0155   22.4680 C   0  0  1  0  0  0  0  0  0  0  0  0
    9.9003  -17.0419   23.4865 C   0  0  0  0  0  0  0  0  0  0  0  0
   10.5533  -16.0165   23.1800 O   0  0  0  0  0  0  0  0  0  0  0  0
    9.6267  -17.3294   24.8502 N   0  0  0  0  0  0  0  0  0  0  0  0
   10.1628  -16.5399   25.9602 C   0  0  1  0  0  0  0  0  0  0  0  0
    9.7388  -15.1175   25.7182 C   0  0  0  0  0  0  0  0  0  0  0  0
    8.3108  -14.8760   25.8957 C   0  0  0  0  0  0  0  0  0  0  0  0
    7.2941  -15.7998   25.7832 C   0  0  0  0  0  0  0  0  0  0  0  0
    6.1117  -15.2071   25.9787 N   0  0  0  0  0  0  0  0  0  0  0  0
    6.3318  -13.8988   26.2208 C   0  0  0  0  0  0  0  0  0  0  0  0
    5.5320  -12.8203   26.5010 C   0  0  0  0  0  0  0  0  0  0  0  0
    6.0569  -11.5710   26.7265 C   0  0  0  0  0  0  0  0  0  0  0  0
    7.4081  -11.3547   26.6797 C   0  0  0  0  0  0  0  0  0  0  0  0
    8.2244  -12.4041   26.4037 C   0  0  0  0  0  0  0  0  0  0  0  0
    7.7092  -13.6719   26.1729 C   0  0  0  0  0  0  0  0  0  0  0  0
    9.9322  -17.1051   27.2651 C   0  0  0  0  0  0  0  0  0  0  0  0
    9.1557  -18.2293   27.5326 O   0  0  0  0  0  0  0  0  0  0  0  0
   10.4611  -16.5640   28.2731 O   0  0  0  0  0  0  0  0  0  0  0  0
  2  1  1  0
  3  2  1  0
  3  4  1  6
  5  3  1  0
  5  6  1  1
  7  5  1  0
  8  7  2  0
  9 13  1  0
  9  7  1  0
 10  9  1  0
 11 10  1  0
 11 12  1  0
 12 13  1  0
 13 14  1  1
 14 15  2  0
 16 14  1  0
 17 16  1  0
 17 28  1  0
 17 18  1  1
 19 27  1  0
 19 18  1  0
 20 19  2  0
 21 20  1  0
 21 22  1  0
 22 27  2  0
 23 22  1  0
 23 24  2  0
 24 25  1  0
 25 26  2  0
 27 26  1  0
 28 30  2  0
 28 29  1  0
M  END
$$$$
