IPW.pdb
     RDKit          3D

 30 32  0  0  1  0  0  0  0  0999 V2000
    8.0282  -11.7871   18.9304 C   0  0  0  0  0  0  0  0  0  0  0  0
    7.8585  -13.2547   18.6157 C   0  0  0  0  0  0  0  0  0  0  0  0
    8.1708  -14.0536   19.8411 C   0  0  2  0  0  0  0  0  0  0  0  0
    9.5736  -13.7602   20.3577 C   0  0  0  0  0  0  0  0  0  0  0  0
    7.9835  -15.5435   19.6503 C   0  0  2  0  0  0  0  0  0  0  0  0
    6.6218  -15.6956   19.1326 N   0  0  0  0  0  0  0  0  0  0  0  0
    8.1538  -16.2906   20.9141 C   0  0  0  0  0  0  0  0  0  0  0  0
    7.5546  -15.9132   21.9512 O   0  0  0  0  0  0  0  0  0  0  0  0
    8.9911  -17.4619   21.0339 N   0  0  0  0  0  0  0  0  0  0  0  0
    9.6301  -18.1442   19.9544 C   0  0  0  0  0  0  0  0  0  0  0  0
   10.4948  -19.2065   20.5544 C   0  0  0  0  0  0  0  0  0  0  0  0
   10.3529  -19.1027   22.0321 C   0  0  0  0  0  0  0  0  0  0  0  0
    9.2790  -18.0858   22.2698 C   0  0  1  0  0  0  0  0  0  0  0  0
    9.8387  -17.1283   23.2865 C   0  0  0  0  0  0  0  0  0  0  0  0
   10.5122  -16.1171   22.9773 O   0  0  0  0  0  0  0  0  0  0  0  0
    9.5717  -17.4146   24.6518 N   0  0  0  0  0  0  0  0  0  0  0  0
   10.0971  -16.6124   25.7578 C   0  0  1  0  0  0  0  0  0  0  0  0
    9.5733  -15.2165   25.5611 C   0  0  0  0  0  0  0  0  0  0  0  0
    8.2075  -15.0135   26.0328 C   0  0  0  0  0  0  0  0  0  0  0  0
    7.2158  -15.9654   26.1337 C   0  0  0  0  0  0  0  0  0  0  0  0
    6.0842  -15.4045   26.5723 N   0  0  0  0  0  0  0  0  0  0  0  0
    6.3135  -14.0896   26.7648 C   0  0  0  0  0  0  0  0  0  0  0  0
    5.5600  -13.0321   27.2071 C   0  0  0  0  0  0  0  0  0  0  0  0
    6.0855  -11.7679   27.3198 C   0  0  0  0  0  0  0  0  0  0  0  0
    7.3906  -11.5148   26.9924 C   0  0  0  0  0  0  0  0  0  0  0  0
    8.1603  -12.5426   26.5508 C   0  0  0  0  0  0  0  0  0  0  0  0
    7.6437  -13.8251   26.4309 C   0  0  0  0  0  0  0  0  0  0  0  0
    9.9528  -17.2154   27.0581 C   0  0  0  0  0  0  0  0  0  0  0  0
   10.6391  -16.8317   28.2070 O   0  0  0  0  0  0  0  0  0  0  0  0
    9.1473  -18.1733   27.2070 O   0  0  0  0  0  0  0  0  0  0  0  0
  2  1  1  0
  3  2  1  0
  3  4  1  6
  5  3  1  0
  5  6  1  1
  7  5  1  0
  8  7  2  0
  9 13  1  0
  9  7  1  0
 10  9  1  0
 11 10  1  0
 11 12  1  0
 12 13  1  0
 13 14  1  1
 14 15  2  0
 16 14  1  0
 17 16  1  0
 17 28  1  0
 17 18  1  1
 19 27  1  0
 19 18  1  0
 20 19  2  0
 21 20  1  0
 21 22  1  0
 22 27  2  0
 23 22  1  0
 23 24  2  0
 24 25  1  0
 25 26  2  0
 27 26  1  0
 28 30  2  0
 28 29  1  0
M  END
$$$$
