IPW.pdb
     RDKit          3D

 30 32  0  0  1  0  0  0  0  0999 V2000
   11.6650  -12.2309   18.3515 C   0  0  0  0  0  0  0  0  0  0  0  0
   10.5141  -13.1093   17.9209 C   0  0  0  0  0  0  0  0  0  0  0  0
    9.9212  -13.7607   19.1297 C   0  0  2  0  0  0  0  0  0  0  0  0
   10.9705  -14.5310   19.9214 C   0  0  0  0  0  0  0  0  0  0  0  0
    8.7426  -14.6559   18.8122 C   0  0  2  0  0  0  0  0  0  0  0  0
    7.7011  -13.7556   18.3123 N   0  0  0  0  0  0  0  0  0  0  0  0
    8.2728  -15.3975   20.0011 C   0  0  0  0  0  0  0  0  0  0  0  0
    7.7126  -14.7833   20.9424 O   0  0  0  0  0  0  0  0  0  0  0  0
    8.4222  -16.8266   20.1520 N   0  0  0  0  0  0  0  0  0  0  0  0
    8.7510  -17.7455   19.1096 C   0  0  0  0  0  0  0  0  0  0  0  0
    8.9311  -19.0872   19.7449 C   0  0  0  0  0  0  0  0  0  0  0  0
    8.7164  -18.9108   21.2069 C   0  0  0  0  0  0  0  0  0  0  0  0
    8.2521  -17.4978   21.3850 C   0  0  1  0  0  0  0  0  0  0  0  0
    9.1050  -16.9211   22.4820 C   0  0  0  0  0  0  0  0  0  0  0  0
   10.0061  -16.0742   22.2758 O   0  0  0  0  0  0  0  0  0  0  0  0
    8.8496  -17.3806   23.8014 N   0  0  0  0  0  0  0  0  0  0  0  0
    9.5452  -16.8625   24.9806 C   0  0  1  0  0  0  0  0  0  0  0  0
    9.3673  -15.3694   24.9614 C   0  0  0  0  0  0  0  0  0  0  0  0
    8.0577  -14.9128   25.4149 C   0  0  0  0  0  0  0  0  0  0  0  0
    6.8910  -15.6459   25.4494 C   0  0  0  0  0  0  0  0  0  0  0  0
    5.8842  -14.8856   25.8920 N   0  0  0  0  0  0  0  0  0  0  0  0
    6.3696  -13.6548   26.1529 C   0  0  0  0  0  0  0  0  0  0  0  0
    5.8335  -12.4862   26.6309 C   0  0  0  0  0  0  0  0  0  0  0  0
    6.6008  -11.3619   26.8156 C   0  0  0  0  0  0  0  0  0  0  0  0
    7.9393  -11.3662   26.5272 C   0  0  0  0  0  0  0  0  0  0  0  0
    8.4972  -12.5092   26.0516 C   0  0  0  0  0  0  0  0  0  0  0  0
    7.7351  -13.6529   25.8591 C   0  0  0  0  0  0  0  0  0  0  0  0
    9.2570  -17.5655   26.2046 C   0  0  0  0  0  0  0  0  0  0  0  0
   10.0807  -17.6054   27.3263 O   0  0  0  0  0  0  0  0  0  0  0  0
    8.1784  -18.2097   26.3057 O   0  0  0  0  0  0  0  0  0  0  0  0
  2  1  1  0
  3  2  1  0
  3  4  1  6
  5  3  1  0
  5  6  1  1
  7  5  1  0
  8  7  2  0
  9 13  1  0
  9  7  1  0
 10  9  1  0
 11 10  1  0
 11 12  1  0
 12 13  1  0
 13 14  1  1
 14 15  2  0
 16 14  1  0
 17 16  1  0
 17 28  1  0
 17 18  1  1
 19 27  1  0
 19 18  1  0
 20 19  2  0
 21 20  1  0
 21 22  1  0
 22 27  2  0
 23 22  1  0
 23 24  2  0
 24 25  1  0
 25 26  2  0
 27 26  1  0
 28 30  2  0
 28 29  1  0
M  END
$$$$
