IPW.pdb
     RDKit          3D

 30 32  0  0  1  0  0  0  0  0999 V2000
    8.0331  -11.8085   19.0900 C   0  0  0  0  0  0  0  0  0  0  0  0
    7.7720  -13.2656   18.7893 C   0  0  0  0  0  0  0  0  0  0  0  0
    8.0821  -14.0762   20.0075 C   0  0  2  0  0  0  0  0  0  0  0  0
    9.5201  -13.8691   20.4660 C   0  0  0  0  0  0  0  0  0  0  0  0
    7.7942  -15.5524   19.8357 C   0  0  2  0  0  0  0  0  0  0  0  0
    6.3736  -15.6279   19.4874 N   0  0  0  0  0  0  0  0  0  0  0  0
    8.0771  -16.3198   21.0666 C   0  0  0  0  0  0  0  0  0  0  0  0
    7.4697  -16.0444   22.1308 O   0  0  0  0  0  0  0  0  0  0  0  0
    9.0365  -17.3986   21.1233 N   0  0  0  0  0  0  0  0  0  0  0  0
    9.7118  -17.9738   20.0043 C   0  0  0  0  0  0  0  0  0  0  0  0
   10.7012  -18.9567   20.5438 C   0  0  0  0  0  0  0  0  0  0  0  0
   10.5930  -18.9162   22.0275 C   0  0  0  0  0  0  0  0  0  0  0  0
    9.4251  -18.0277   22.3286 C   0  0  1  0  0  0  0  0  0  0  0  0
    9.9105  -17.0493   23.3635 C   0  0  0  0  0  0  0  0  0  0  0  0
   10.5551  -16.0128   23.0773 O   0  0  0  0  0  0  0  0  0  0  0  0
    9.6057  -17.3457   24.7186 N   0  0  0  0  0  0  0  0  0  0  0  0
   10.0884  -16.5434   25.8439 C   0  0  1  0  0  0  0  0  0  0  0  0
    9.5711  -15.1479   25.6282 C   0  0  0  0  0  0  0  0  0  0  0  0
    8.1793  -14.9539   26.0213 C   0  0  0  0  0  0  0  0  0  0  0  0
    7.1933  -15.9152   26.0796 C   0  0  0  0  0  0  0  0  0  0  0  0
    6.0335  -15.3612   26.4478 N   0  0  0  0  0  0  0  0  0  0  0  0
    6.2384  -14.0416   26.6356 C   0  0  0  0  0  0  0  0  0  0  0  0
    5.4509  -12.9870   27.0219 C   0  0  0  0  0  0  0  0  0  0  0  0
    5.9565  -11.7159   27.1470 C   0  0  0  0  0  0  0  0  0  0  0  0
    7.2751  -11.4527   26.8889 C   0  0  0  0  0  0  0  0  0  0  0  0
    8.0784  -12.4775   26.5038 C   0  0  0  0  0  0  0  0  0  0  0  0
    7.5823  -13.7669   26.3722 C   0  0  0  0  0  0  0  0  0  0  0  0
    9.8960  -17.1471   27.1377 C   0  0  0  0  0  0  0  0  0  0  0  0
   10.5072  -16.7368   28.3194 O   0  0  0  0  0  0  0  0  0  0  0  0
    9.1166  -18.1314   27.2484 O   0  0  0  0  0  0  0  0  0  0  0  0
  2  1  1  0
  3  2  1  0
  3  4  1  6
  5  3  1  0
  5  6  1  1
  7  5  1  0
  8  7  2  0
  9 13  1  0
  9  7  1  0
 10  9  1  0
 11 10  1  0
 11 12  1  0
 12 13  1  0
 13 14  1  1
 14 15  2  0
 16 14  1  0
 17 16  1  0
 17 28  1  0
 17 18  1  1
 19 27  1  0
 19 18  1  0
 20 19  2  0
 21 20  1  0
 21 22  1  0
 22 27  2  0
 23 22  1  0
 23 24  2  0
 24 25  1  0
 25 26  2  0
 27 26  1  0
 28 30  2  0
 28 29  1  0
M  END
$$$$
