IPW.pdb
     RDKit          3D

 30 32  0  0  1  0  0  0  0  0999 V2000
    7.5345  -11.7799   19.5979 C   0  0  0  0  0  0  0  0  0  0  0  0
    7.5075  -13.2155   19.1287 C   0  0  0  0  0  0  0  0  0  0  0  0
    7.9725  -14.0994   20.2421 C   0  0  2  0  0  0  0  0  0  0  0  0
    9.3701  -13.7175   20.7130 C   0  0  0  0  0  0  0  0  0  0  0  0
    7.9189  -15.5732   19.9010 C   0  0  2  0  0  0  0  0  0  0  0  0
    6.5386  -15.8185   19.4767 N   0  0  0  0  0  0  0  0  0  0  0  0
    8.2747  -16.4235   21.0563 C   0  0  0  0  0  0  0  0  0  0  0  0
    7.6429  -16.3111   22.1358 O   0  0  0  0  0  0  0  0  0  0  0  0
    9.3348  -17.4045   21.0198 N   0  0  0  0  0  0  0  0  0  0  0  0
   10.0033  -17.8666   19.8457 C   0  0  0  0  0  0  0  0  0  0  0  0
   11.1090  -18.7682   20.2938 C   0  0  0  0  0  0  0  0  0  0  0  0
   11.0742  -18.7965   21.7813 C   0  0  0  0  0  0  0  0  0  0  0  0
    9.8437  -18.0390   22.1764 C   0  0  1  0  0  0  0  0  0  0  0  0
   10.2858  -17.0590   23.2289 C   0  0  0  0  0  0  0  0  0  0  0  0
   10.9438  -16.0242   22.9683 O   0  0  0  0  0  0  0  0  0  0  0  0
    9.9228  -17.3518   24.5704 N   0  0  0  0  0  0  0  0  0  0  0  0
   10.1783  -16.4415   25.6880 C   0  0  1  0  0  0  0  0  0  0  0  0
    9.7094  -15.0818   25.2489 C   0  0  0  0  0  0  0  0  0  0  0  0
    8.2923  -14.8275   25.4863 C   0  0  0  0  0  0  0  0  0  0  0  0
    7.2524  -15.7175   25.3242 C   0  0  0  0  0  0  0  0  0  0  0  0
    6.0893  -15.1199   25.6026 N   0  0  0  0  0  0  0  0  0  0  0  0
    6.3451  -13.8419   25.9489 C   0  0  0  0  0  0  0  0  0  0  0  0
    5.5775  -12.7753   26.3422 C   0  0  0  0  0  0  0  0  0  0  0  0
    6.1362  -11.5609   26.6584 C   0  0  0  0  0  0  0  0  0  0  0  0
    7.4902  -11.3688   26.5922 C   0  0  0  0  0  0  0  0  0  0  0  0
    8.2751  -12.4070   26.2051 C   0  0  0  0  0  0  0  0  0  0  0  0
    7.7255  -13.6397   25.8818 C   0  0  0  0  0  0  0  0  0  0  0  0
    9.7416  -16.9292   26.9713 C   0  0  0  0  0  0  0  0  0  0  0  0
    8.9345  -18.0444   27.1795 O   0  0  0  0  0  0  0  0  0  0  0  0
   10.1000  -16.3217   28.0158 O   0  0  0  0  0  0  0  0  0  0  0  0
  2  1  1  0
  3  2  1  0
  3  4  1  6
  5  3  1  0
  5  6  1  1
  7  5  1  0
  8  7  2  0
  9 13  1  0
  9  7  1  0
 10  9  1  0
 11 10  1  0
 11 12  1  0
 12 13  1  0
 13 14  1  1
 14 15  2  0
 16 14  1  0
 17 16  1  0
 17 28  1  0
 17 18  1  6
 19 27  1  0
 19 18  1  0
 20 19  2  0
 21 20  1  0
 21 22  1  0
 22 27  2  0
 23 22  1  0
 23 24  2  0
 24 25  1  0
 25 26  2  0
 27 26  1  0
 28 30  2  0
 28 29  1  0
M  END
$$$$
