IPW.pdb
     RDKit          3D

 30 32  0  0  1  0  0  0  0  0999 V2000
    3.9765  -20.7661   22.7150 C   0  0  0  0  0  0  0  0  0  0  0  0
    4.4569  -19.9963   21.5074 C   0  0  0  0  0  0  0  0  0  0  0  0
    5.5912  -19.1109   21.9154 C   0  0  2  0  0  0  0  0  0  0  0  0
    5.1733  -18.1334   23.0066 C   0  0  0  0  0  0  0  0  0  0  0  0
    6.2181  -18.3658   20.7564 C   0  0  2  0  0  0  0  0  0  0  0  0
    6.6392  -19.4058   19.8149 N   0  0  0  0  0  0  0  0  0  0  0  0
    7.3693  -17.5431   21.1832 C   0  0  0  0  0  0  0  0  0  0  0  0
    8.3418  -18.0809   21.7682 O   0  0  0  0  0  0  0  0  0  0  0  0
    7.4477  -16.1174   20.9627 N   0  0  0  0  0  0  0  0  0  0  0  0
    6.5233  -15.3391   20.2020 C   0  0  0  0  0  0  0  0  0  0  0  0
    6.9208  -13.9059   20.3574 C   0  0  0  0  0  0  0  0  0  0  0  0
    8.1037  -13.8758   21.2600 C   0  0  0  0  0  0  0  0  0  0  0  0
    8.4808  -15.3075   21.4883 C   0  0  1  0  0  0  0  0  0  0  0  0
    8.6356  -15.4582   22.9773 C   0  0  0  0  0  0  0  0  0  0  0  0
    7.9004  -14.8706   23.8055 O   0  0  0  0  0  0  0  0  0  0  0  0
    9.6740  -16.3147   23.4304 N   0  0  0  0  0  0  0  0  0  0  0  0
   10.2989  -16.1908   24.7484 C   0  0  1  0  0  0  0  0  0  0  0  0
    9.2637  -16.6122   25.7546 C   0  0  0  0  0  0  0  0  0  0  0  0
    8.2378  -15.6091   26.0197 C   0  0  0  0  0  0  0  0  0  0  0  0
    6.9187  -15.6479   25.6217 C   0  0  0  0  0  0  0  0  0  0  0  0
    6.2873  -14.5375   26.0166 N   0  0  0  0  0  0  0  0  0  0  0  0
    7.1728  -13.7611   26.6737 C   0  0  0  0  0  0  0  0  0  0  0  0
    7.1096  -12.5444   27.3038 C   0  0  0  0  0  0  0  0  0  0  0  0
    8.2056  -11.9933   27.9220 C   0  0  0  0  0  0  0  0  0  0  0  0
    9.4107  -12.6432   27.9320 C   0  0  0  0  0  0  0  0  0  0  0  0
    9.5030  -13.8494   27.3152 C   0  0  0  0  0  0  0  0  0  0  0  0
    8.4049  -14.4188   26.6859 C   0  0  0  0  0  0  0  0  0  0  0  0
   11.6152  -16.7682   24.8452 C   0  0  0  0  0  0  0  0  0  0  0  0
   12.4123  -16.7748   25.9866 O   0  0  0  0  0  0  0  0  0  0  0  0
   12.1208  -17.3225   23.8324 O   0  0  0  0  0  0  0  0  0  0  0  0
  2  1  1  0
  3  2  1  0
  3  4  1  1
  5  3  1  0
  5  6  1  6
  7  5  1  0
  8  7  2  0
  9 13  1  0
  9  7  1  0
 10  9  1  0
 11 10  1  0
 11 12  1  0
 12 13  1  0
 13 14  1  1
 14 15  2  0
 16 14  1  0
 17 16  1  0
 17 28  1  0
 17 18  1  1
 19 27  1  0
 19 18  1  0
 20 19  2  0
 21 20  1  0
 21 22  1  0
 22 27  2  0
 23 22  1  0
 23 24  2  0
 24 25  1  0
 25 26  2  0
 27 26  1  0
 28 30  2  0
 28 29  1  0
M  END
$$$$
