IPW.pdb
     RDKit          3D

 30 32  0  0  1  0  0  0  0  0999 V2000
    7.4734  -11.6875   19.7205 C   0  0  0  0  0  0  0  0  0  0  0  0
    7.3106  -13.1393   19.3366 C   0  0  0  0  0  0  0  0  0  0  0  0
    7.8305  -13.9966   20.4465 C   0  0  2  0  0  0  0  0  0  0  0  0
    9.2921  -13.6926   20.7506 C   0  0  0  0  0  0  0  0  0  0  0  0
    7.6440  -15.4782   20.1986 C   0  0  2  0  0  0  0  0  0  0  0  0
    6.2317  -15.6325   19.8424 N   0  0  0  0  0  0  0  0  0  0  0  0
    7.9790  -16.2867   21.3896 C   0  0  0  0  0  0  0  0  0  0  0  0
    7.3856  -16.0776   22.4765 O   0  0  0  0  0  0  0  0  0  0  0  0
    8.9753  -17.3329   21.3808 N   0  0  0  0  0  0  0  0  0  0  0  0
    9.6342  -17.8473   20.2230 C   0  0  0  0  0  0  0  0  0  0  0  0
   10.6724  -18.8126   20.6989 C   0  0  0  0  0  0  0  0  0  0  0  0
   10.6093  -18.8247   22.1857 C   0  0  0  0  0  0  0  0  0  0  0  0
    9.4223  -17.9874   22.5518 C   0  0  1  0  0  0  0  0  0  0  0  0
    9.9066  -17.0275   23.6041 C   0  0  0  0  0  0  0  0  0  0  0  0
   10.5607  -15.9916   23.3377 O   0  0  0  0  0  0  0  0  0  0  0  0
    9.5895  -17.3409   24.9526 N   0  0  0  0  0  0  0  0  0  0  0  0
   10.1531  -16.6234   26.0974 C   0  0  1  0  0  0  0  0  0  0  0  0
    9.8268  -15.1695   25.8946 C   0  0  0  0  0  0  0  0  0  0  0  0
    8.4061  -14.8516   25.9927 C   0  0  0  0  0  0  0  0  0  0  0  0
    7.3507  -15.7310   25.8805 C   0  0  0  0  0  0  0  0  0  0  0  0
    6.1917  -15.0734   25.9899 N   0  0  0  0  0  0  0  0  0  0  0  0
    6.4656  -13.7659   26.1746 C   0  0  0  0  0  0  0  0  0  0  0  0
    5.7088  -12.6373   26.3615 C   0  0  0  0  0  0  0  0  0  0  0  0
    6.2846  -11.4040   26.5469 C   0  0  0  0  0  0  0  0  0  0  0  0
    7.6456  -11.2546   26.5520 C   0  0  0  0  0  0  0  0  0  0  0  0
    8.4202  -12.3547   26.3686 C   0  0  0  0  0  0  0  0  0  0  0  0
    7.8534  -13.6073   26.1793 C   0  0  0  0  0  0  0  0  0  0  0  0
    9.8605  -17.2133   27.3787 C   0  0  0  0  0  0  0  0  0  0  0  0
    9.0164  -18.2993   27.5940 O   0  0  0  0  0  0  0  0  0  0  0  0
   10.3946  -16.7332   28.4144 O   0  0  0  0  0  0  0  0  0  0  0  0
  2  1  1  0
  3  2  1  0
  3  4  1  6
  5  3  1  0
  5  6  1  1
  7  5  1  0
  8  7  2  0
  9 13  1  0
  9  7  1  0
 10  9  1  0
 11 10  1  0
 11 12  1  0
 12 13  1  0
 13 14  1  1
 14 15  2  0
 16 14  1  0
 17 16  1  0
 17 28  1  0
 17 18  1  1
 19 27  1  0
 19 18  1  0
 20 19  2  0
 21 20  1  0
 21 22  1  0
 22 27  2  0
 23 22  1  0
 23 24  2  0
 24 25  1  0
 25 26  2  0
 27 26  1  0
 28 30  2  0
 28 29  1  0
M  END
$$$$
