IPW.pdb
     RDKit          3D

 30 32  0  0  1  0  0  0  0  0999 V2000
    7.7333  -11.6751   19.3480 C   0  0  0  0  0  0  0  0  0  0  0  0
    7.5596  -13.1281   18.9730 C   0  0  0  0  0  0  0  0  0  0  0  0
    7.9507  -13.9806   20.1381 C   0  0  2  0  0  0  0  0  0  0  0  0
    9.3926  -13.7259   20.5587 C   0  0  0  0  0  0  0  0  0  0  0  0
    7.7268  -15.4590   19.9023 C   0  0  2  0  0  0  0  0  0  0  0  0
    6.3223  -15.5752   19.5034 N   0  0  0  0  0  0  0  0  0  0  0  0
    7.9995  -16.2616   21.1129 C   0  0  0  0  0  0  0  0  0  0  0  0
    7.4954  -15.9275   22.2135 O   0  0  0  0  0  0  0  0  0  0  0  0
    8.8341  -17.4410   21.1087 N   0  0  0  0  0  0  0  0  0  0  0  0
    9.3468  -18.0956   19.9478 C   0  0  0  0  0  0  0  0  0  0  0  0
   10.2614  -19.1800   20.4209 C   0  0  0  0  0  0  0  0  0  0  0  0
   10.2806  -19.1180   21.9077 C   0  0  0  0  0  0  0  0  0  0  0  0
    9.2479  -18.1019   22.2883 C   0  0  1  0  0  0  0  0  0  0  0  0
    9.9226  -17.1776   23.2651 C   0  0  0  0  0  0  0  0  0  0  0  0
   10.8638  -16.4131   22.9467 O   0  0  0  0  0  0  0  0  0  0  0  0
    9.4447  -17.1985   24.6024 N   0  0  0  0  0  0  0  0  0  0  0  0
   10.1294  -16.5295   25.7099 C   0  0  1  0  0  0  0  0  0  0  0  0
    9.7570  -15.0749   25.6278 C   0  0  0  0  0  0  0  0  0  0  0  0
    8.3468  -14.7987   25.8811 C   0  0  0  0  0  0  0  0  0  0  0  0
    7.3101  -15.7070   25.8722 C   0  0  0  0  0  0  0  0  0  0  0  0
    6.1519  -15.0840   26.1129 N   0  0  0  0  0  0  0  0  0  0  0  0
    6.4079  -13.7708   26.2825 C   0  0  0  0  0  0  0  0  0  0  0  0
    5.6446  -12.6660   26.5625 C   0  0  0  0  0  0  0  0  0  0  0  0
    6.2028  -11.4184   26.6997 C   0  0  0  0  0  0  0  0  0  0  0  0
    7.5518  -11.2301   26.5608 C   0  0  0  0  0  0  0  0  0  0  0  0
    8.3323  -12.3058   26.2826 C   0  0  0  0  0  0  0  0  0  0  0  0
    7.7832  -13.5725   26.1405 C   0  0  0  0  0  0  0  0  0  0  0  0
   10.0021  -17.1927   26.9825 C   0  0  0  0  0  0  0  0  0  0  0  0
    9.2216  -18.3182   27.2322 O   0  0  0  0  0  0  0  0  0  0  0  0
   10.6352  -16.7455   27.9763 O   0  0  0  0  0  0  0  0  0  0  0  0
  2  1  1  0
  3  2  1  0
  3  4  1  6
  5  3  1  0
  5  6  1  1
  7  5  1  0
  8  7  2  0
  9 13  1  0
  9  7  1  0
 10  9  1  0
 11 10  1  0
 11 12  1  0
 12 13  1  0
 13 14  1  1
 14 15  2  0
 16 14  1  0
 17 16  1  0
 17 28  1  0
 17 18  1  1
 19 27  1  0
 19 18  1  0
 20 19  2  0
 21 20  1  0
 21 22  1  0
 22 27  2  0
 23 22  1  0
 23 24  2  0
 24 25  1  0
 25 26  2  0
 27 26  1  0
 28 30  2  0
 28 29  1  0
M  END
$$$$
