IPW.pdb
     RDKit          3D

 30 32  0  0  1  0  0  0  0  0999 V2000
   12.1862  -13.8290   19.8485 C   0  0  0  0  0  0  0  0  0  0  0  0
   10.6933  -13.6071   19.9089 C   0  0  0  0  0  0  0  0  0  0  0  0
   10.0536  -14.2851   18.7392 C   0  0  2  0  0  0  0  0  0  0  0  0
   10.5311  -13.6927   17.4194 C   0  0  0  0  0  0  0  0  0  0  0  0
    8.5410  -14.2835   18.7977 C   0  0  2  0  0  0  0  0  0  0  0  0
    8.1587  -12.8696   18.7926 N   0  0  0  0  0  0  0  0  0  0  0  0
    8.0317  -14.9633   20.0071 C   0  0  0  0  0  0  0  0  0  0  0  0
    7.7854  -14.2983   21.0435 O   0  0  0  0  0  0  0  0  0  0  0  0
    7.7925  -16.3867   20.0730 N   0  0  0  0  0  0  0  0  0  0  0  0
    7.7254  -17.2736   18.9559 C   0  0  0  0  0  0  0  0  0  0  0  0
    7.5973  -18.6602   19.5008 C   0  0  0  0  0  0  0  0  0  0  0  0
    7.6152  -18.5501   20.9848 C   0  0  0  0  0  0  0  0  0  0  0  0
    7.5889  -17.0831   21.2867 C   0  0  1  0  0  0  0  0  0  0  0  0
    8.6928  -16.8494   22.2819 C   0  0  0  0  0  0  0  0  0  0  0  0
    9.8712  -16.5819   21.9478 O   0  0  0  0  0  0  0  0  0  0  0  0
    8.3475  -16.9441   23.6563 N   0  0  0  0  0  0  0  0  0  0  0  0
    9.2738  -16.6154   24.7411 C   0  0  1  0  0  0  0  0  0  0  0  0
    9.1781  -15.1293   24.9506 C   0  0  0  0  0  0  0  0  0  0  0  0
    7.9078  -14.6803   25.5107 C   0  0  0  0  0  0  0  0  0  0  0  0
    6.7481  -15.4159   25.6280 C   0  0  0  0  0  0  0  0  0  0  0  0
    5.7784  -14.6626   26.1570 N   0  0  0  0  0  0  0  0  0  0  0  0
    6.2816  -13.4340   26.3933 C   0  0  0  0  0  0  0  0  0  0  0  0
    5.7836  -12.2719   26.9253 C   0  0  0  0  0  0  0  0  0  0  0  0
    6.5620  -11.1484   27.0622 C   0  0  0  0  0  0  0  0  0  0  0  0
    7.8737  -11.1470   26.6697 C   0  0  0  0  0  0  0  0  0  0  0  0
    8.3937  -12.2834   26.1387 C   0  0  0  0  0  0  0  0  0  0  0  0
    7.6198  -13.4263   25.9933 C   0  0  0  0  0  0  0  0  0  0  0  0
    9.1749  -17.4721   25.8951 C   0  0  0  0  0  0  0  0  0  0  0  0
   10.1359  -17.5944   26.8950 O   0  0  0  0  0  0  0  0  0  0  0  0
    8.1469  -18.1856   26.0464 O   0  0  0  0  0  0  0  0  0  0  0  0
  2  1  1  0
  3  2  1  0
  3  4  1  6
  5  3  1  0
  5  6  1  1
  7  5  1  0
  8  7  2  0
  9 13  1  0
  9  7  1  0
 10  9  1  0
 11 10  1  0
 11 12  1  0
 12 13  1  0
 13 14  1  1
 14 15  2  0
 16 14  1  0
 17 16  1  0
 17 28  1  0
 17 18  1  1
 19 27  1  0
 19 18  1  0
 20 19  2  0
 21 20  1  0
 21 22  1  0
 22 27  2  0
 23 22  1  0
 23 24  2  0
 24 25  1  0
 25 26  2  0
 27 26  1  0
 28 30  2  0
 28 29  1  0
M  END
$$$$
