IPW.pdb
     RDKit          3D

 30 32  0  0  1  0  0  0  0  0999 V2000
    6.8624  -12.0360   27.2355 C   0  0  0  0  0  0  0  0  0  0  0  0
    6.1484  -13.1867   26.5663 C   0  0  0  0  0  0  0  0  0  0  0  0
    7.1387  -13.9764   25.7708 C   0  0  2  0  0  0  0  0  0  0  0  0
    7.9532  -13.0818   24.8449 C   0  0  0  0  0  0  0  0  0  0  0  0
    6.5122  -15.1098   24.9871 C   0  0  2  0  0  0  0  0  0  0  0  0
    5.9081  -15.9846   25.9946 N   0  0  0  0  0  0  0  0  0  0  0  0
    7.5092  -15.8442   24.1803 C   0  0  0  0  0  0  0  0  0  0  0  0
    8.2622  -16.6865   24.7288 O   0  0  0  0  0  0  0  0  0  0  0  0
    7.6762  -15.6478   22.7587 N   0  0  0  0  0  0  0  0  0  0  0  0
    6.8001  -14.9042   21.9110 C   0  0  0  0  0  0  0  0  0  0  0  0
    7.4326  -14.8560   20.5568 C   0  0  0  0  0  0  0  0  0  0  0  0
    8.7273  -15.5834   20.6530 C   0  0  0  0  0  0  0  0  0  0  0  0
    8.7564  -16.1879   22.0233 C   0  0  1  0  0  0  0  0  0  0  0  0
   10.0949  -15.8216   22.6047 C   0  0  0  0  0  0  0  0  0  0  0  0
   10.5827  -14.6692   22.5285 O   0  0  0  0  0  0  0  0  0  0  0  0
   10.8119  -16.8551   23.2641 N   0  0  0  0  0  0  0  0  0  0  0  0
   12.0524  -16.6240   24.0062 C   0  0  1  0  0  0  0  0  0  0  0  0
   11.7551  -15.5472   25.0129 C   0  0  0  0  0  0  0  0  0  0  0  0
   11.0078  -16.0034   26.1802 C   0  0  0  0  0  0  0  0  0  0  0  0
   10.5014  -17.2667   26.3978 C   0  0  0  0  0  0  0  0  0  0  0  0
    9.8444  -17.3036   27.5616 N   0  0  0  0  0  0  0  0  0  0  0  0
    9.9094  -16.0781   28.1205 C   0  0  0  0  0  0  0  0  0  0  0  0
    9.4493  -15.5227   29.2873 C   0  0  0  0  0  0  0  0  0  0  0  0
    9.6920  -14.2089   29.6068 C   0  0  0  0  0  0  0  0  0  0  0  0
   10.4076  -13.3992   28.7660 C   0  0  0  0  0  0  0  0  0  0  0  0
   10.8750  -13.9218   27.6032 C   0  0  0  0  0  0  0  0  0  0  0  0
   10.6375  -15.2469   27.2661 C   0  0  0  0  0  0  0  0  0  0  0  0
   12.7090  -17.8212   24.4655 C   0  0  0  0  0  0  0  0  0  0  0  0
   12.1776  -19.1067   24.4075 O   0  0  0  0  0  0  0  0  0  0  0  0
   13.8618  -17.7376   24.9680 O   0  0  0  0  0  0  0  0  0  0  0  0
  2  1  1  0
  3  2  1  0
  3  4  1  6
  5  3  1  0
  5  6  1  1
  7  5  1  0
  8  7  2  0
  9 13  1  0
  9  7  1  0
 10  9  1  0
 11 10  1  0
 11 12  1  0
 12 13  1  0
 13 14  1  1
 14 15  2  0
 16 14  1  0
 17 16  1  0
 17 28  1  0
 17 18  1  1
 19 27  1  0
 19 18  1  0
 20 19  2  0
 21 20  1  0
 21 22  1  0
 22 27  2  0
 23 22  1  0
 23 24  2  0
 24 25  1  0
 25 26  2  0
 27 26  1  0
 28 30  2  0
 28 29  1  0
M  END
$$$$
