IPW.pdb
     RDKit          3D

 30 32  0  0  1  0  0  0  0  0999 V2000
   11.7379  -14.7760   15.7469 C   0  0  0  0  0  0  0  0  0  0  0  0
   10.2747  -14.5439   16.0414 C   0  0  0  0  0  0  0  0  0  0  0  0
   10.0421  -14.7104   17.5095 C   0  0  2  0  0  0  0  0  0  0  0  0
   10.6204  -16.0233   18.0221 C   0  0  0  0  0  0  0  0  0  0  0  0
    8.5858  -14.5894   17.9043 C   0  0  2  0  0  0  0  0  0  0  0  0
    8.2484  -13.1792   17.6978 N   0  0  0  0  0  0  0  0  0  0  0  0
    8.3569  -14.9864   19.3093 C   0  0  0  0  0  0  0  0  0  0  0  0
    8.6913  -14.2142   20.2416 O   0  0  0  0  0  0  0  0  0  0  0  0
    7.7548  -16.2440   19.6880 N   0  0  0  0  0  0  0  0  0  0  0  0
    7.3409  -17.2743   18.7901 C   0  0  0  0  0  0  0  0  0  0  0  0
    6.9035  -18.4362   19.6236 C   0  0  0  0  0  0  0  0  0  0  0  0
    7.1004  -18.0514   21.0476 C   0  0  0  0  0  0  0  0  0  0  0  0
    7.4969  -16.6069   21.0301 C   0  0  1  0  0  0  0  0  0  0  0  0
    8.7180  -16.5063   21.9032 C   0  0  0  0  0  0  0  0  0  0  0  0
    9.8805  -16.7140   21.4820 O   0  0  0  0  0  0  0  0  0  0  0  0
    8.5065  -16.1574   23.2636 N   0  0  0  0  0  0  0  0  0  0  0  0
    9.5942  -16.0027   24.2311 C   0  0  1  0  0  0  0  0  0  0  0  0
    9.3971  -14.6638   24.8867 C   0  0  0  0  0  0  0  0  0  0  0  0
    8.0834  -14.4776   25.4938 C   0  0  0  0  0  0  0  0  0  0  0  0
    7.0894  -15.4236   25.6239 C   0  0  0  0  0  0  0  0  0  0  0  0
    6.0117  -14.8807   26.1996 N   0  0  0  0  0  0  0  0  0  0  0  0
    6.2791  -13.5837   26.4543 C   0  0  0  0  0  0  0  0  0  0  0  0
    5.5865  -12.5496   27.0307 C   0  0  0  0  0  0  0  0  0  0  0  0
    6.1407  -11.3010   27.1756 C   0  0  0  0  0  0  0  0  0  0  0  0
    7.4147  -11.0408   26.7468 C   0  0  0  0  0  0  0  0  0  0  0  0
    8.1241  -12.0456   26.1714 C   0  0  0  0  0  0  0  0  0  0  0  0
    7.5777  -13.3120   26.0174 C   0  0  0  0  0  0  0  0  0  0  0  0
    9.8123  -17.1481   25.0771 C   0  0  0  0  0  0  0  0  0  0  0  0
    8.9383  -18.2219   25.2241 O   0  0  0  0  0  0  0  0  0  0  0  0
   10.8715  -17.2195   25.7565 O   0  0  0  0  0  0  0  0  0  0  0  0
  2  1  1  0
  3  2  1  0
  3  4  1  6
  5  3  1  0
  5  6  1  1
  7  5  1  0
  8  7  2  0
  9 13  1  0
  9  7  1  0
 10  9  1  0
 11 10  1  0
 11 12  1  0
 12 13  1  0
 13 14  1  1
 14 15  2  0
 16 14  1  0
 17 16  1  0
 17 28  1  0
 17 18  1  1
 19 27  1  0
 19 18  1  0
 20 19  2  0
 21 20  1  0
 21 22  1  0
 22 27  2  0
 23 22  1  0
 23 24  2  0
 24 25  1  0
 25 26  2  0
 27 26  1  0
 28 30  2  0
 28 29  1  0
M  END
$$$$
