IPW.pdb
     RDKit          3D

 30 32  0  0  1  0  0  0  0  0999 V2000
   12.2862  -21.1311   18.1112 C   0  0  0  0  0  0  0  0  0  0  0  0
   11.2743  -20.0743   17.7360 C   0  0  0  0  0  0  0  0  0  0  0  0
   11.0451  -19.1812   18.9138 C   0  0  2  0  0  0  0  0  0  0  0  0
   10.2831  -19.8994   20.0204 C   0  0  0  0  0  0  0  0  0  0  0  0
   10.3522  -17.8834   18.5574 C   0  0  2  0  0  0  0  0  0  0  0  0
   11.2538  -17.2130   17.6177 N   0  0  0  0  0  0  0  0  0  0  0  0
   10.1075  -17.0403   19.7463 C   0  0  0  0  0  0  0  0  0  0  0  0
   11.0699  -16.6787   20.4675 O   0  0  0  0  0  0  0  0  0  0  0  0
    8.7917  -16.5932   20.1417 N   0  0  0  0  0  0  0  0  0  0  0  0
    7.5709  -16.8914   19.4636 C   0  0  0  0  0  0  0  0  0  0  0  0
    6.4579  -16.3399   20.2963 C   0  0  0  0  0  0  0  0  0  0  0  0
    7.0771  -15.7261   21.5023 C   0  0  0  0  0  0  0  0  0  0  0  0
    8.5569  -15.7835   21.2769 C   0  0  1  0  0  0  0  0  0  0  0  0
    9.1411  -16.3653   22.5354 C   0  0  0  0  0  0  0  0  0  0  0  0
    9.4462  -17.5756   22.6534 O   0  0  0  0  0  0  0  0  0  0  0  0
    9.3431  -15.4720   23.6210 N   0  0  0  0  0  0  0  0  0  0  0  0
    9.8637  -15.8949   24.9222 C   0  0  1  0  0  0  0  0  0  0  0  0
    9.6078  -14.7602   25.8753 C   0  0  0  0  0  0  0  0  0  0  0  0
    8.1957  -14.4753   26.1076 C   0  0  0  0  0  0  0  0  0  0  0  0
    7.1484  -15.3689   26.0406 C   0  0  0  0  0  0  0  0  0  0  0  0
    5.9928  -14.7403   26.2792 N   0  0  0  0  0  0  0  0  0  0  0  0
    6.2610  -13.4381   26.5050 C   0  0  0  0  0  0  0  0  0  0  0  0
    5.5052  -12.3348   26.8103 C   0  0  0  0  0  0  0  0  0  0  0  0
    6.0754  -11.1008   27.0078 C   0  0  0  0  0  0  0  0  0  0  0  0
    7.4295  -10.9251   26.9064 C   0  0  0  0  0  0  0  0  0  0  0  0
    8.2028  -11.9997   26.6044 C   0  0  0  0  0  0  0  0  0  0  0  0
    7.6415  -13.2526   26.4014 C   0  0  0  0  0  0  0  0  0  0  0  0
    9.4706  -17.2214   25.3236 C   0  0  0  0  0  0  0  0  0  0  0  0
    8.3941  -17.9363   24.8055 O   0  0  0  0  0  0  0  0  0  0  0  0
   10.1324  -17.8165   26.2160 O   0  0  0  0  0  0  0  0  0  0  0  0
  2  1  1  0
  3  2  1  0
  3  4  1  1
  5  3  1  0
  5  6  1  6
  7  5  1  0
  8  7  2  0
  9 13  1  0
  9  7  1  0
 10  9  1  0
 11 10  1  0
 11 12  1  0
 12 13  1  0
 13 14  1  1
 14 15  2  0
 16 14  1  0
 17 16  1  0
 17 28  1  0
 17 18  1  1
 19 27  1  0
 19 18  1  0
 20 19  2  0
 21 20  1  0
 21 22  1  0
 22 27  2  0
 23 22  1  0
 23 24  2  0
 24 25  1  0
 25 26  2  0
 27 26  1  0
 28 30  2  0
 28 29  1  0
M  END
$$$$
