IPW.pdb
     RDKit          3D

 30 32  0  0  1  0  0  0  0  0999 V2000
    7.4733  -11.8037   19.4528 C   0  0  0  0  0  0  0  0  0  0  0  0
    7.7944  -13.1811   18.9223 C   0  0  0  0  0  0  0  0  0  0  0  0
    8.0263  -14.1043   20.0760 C   0  0  2  0  0  0  0  0  0  0  0  0
    9.1413  -13.5978   20.9823 C   0  0  0  0  0  0  0  0  0  0  0  0
    8.3001  -15.5327   19.6563 C   0  0  2  0  0  0  0  0  0  0  0  0
    7.0903  -15.9639   18.9521 N   0  0  0  0  0  0  0  0  0  0  0  0
    8.5766  -16.4080   20.8145 C   0  0  0  0  0  0  0  0  0  0  0  0
    7.7901  -16.4198   21.7935 O   0  0  0  0  0  0  0  0  0  0  0  0
    9.7288  -17.2763   20.8926 N   0  0  0  0  0  0  0  0  0  0  0  0
   10.5894  -17.6196   19.8061 C   0  0  0  0  0  0  0  0  0  0  0  0
   11.7150  -18.4249   20.3726 C   0  0  0  0  0  0  0  0  0  0  0  0
   11.4894  -18.5192   21.8406 C   0  0  0  0  0  0  0  0  0  0  0  0
   10.1457  -17.9053   22.0885 C   0  0  1  0  0  0  0  0  0  0  0  0
   10.3420  -16.9314   23.2184 C   0  0  0  0  0  0  0  0  0  0  0  0
   10.8649  -15.8021   23.0664 O   0  0  0  0  0  0  0  0  0  0  0  0
    9.9023  -17.3442   24.5042 N   0  0  0  0  0  0  0  0  0  0  0  0
   10.2437  -16.6313   25.7364 C   0  0  1  0  0  0  0  0  0  0  0  0
    9.8709  -15.1913   25.5156 C   0  0  0  0  0  0  0  0  0  0  0  0
    8.4449  -14.9113   25.6460 C   0  0  0  0  0  0  0  0  0  0  0  0
    7.4085  -15.8101   25.5119 C   0  0  0  0  0  0  0  0  0  0  0  0
    6.2364  -15.1852   25.6641 N   0  0  0  0  0  0  0  0  0  0  0  0
    6.4828  -13.8802   25.8989 C   0  0  0  0  0  0  0  0  0  0  0  0
    5.7029  -12.7784   26.1424 C   0  0  0  0  0  0  0  0  0  0  0  0
    6.2528  -11.5404   26.3707 C   0  0  0  0  0  0  0  0  0  0  0  0
    7.6099  -11.3593   26.3635 C   0  0  0  0  0  0  0  0  0  0  0  0
    8.4069  -12.4323   26.1243 C   0  0  0  0  0  0  0  0  0  0  0  0
    7.8664  -13.6891   25.8913 C   0  0  0  0  0  0  0  0  0  0  0  0
    9.7929  -17.2724   26.9452 C   0  0  0  0  0  0  0  0  0  0  0  0
    8.9841  -18.4039   27.0060 O   0  0  0  0  0  0  0  0  0  0  0  0
   10.1392  -16.7977   28.0603 O   0  0  0  0  0  0  0  0  0  0  0  0
  2  1  1  0
  3  2  1  0
  3  4  1  6
  5  3  1  0
  5  6  1  1
  7  5  1  0
  8  7  2  0
  9 13  1  0
  9  7  1  0
 10  9  1  0
 11 10  1  0
 11 12  1  0
 12 13  1  0
 13 14  1  1
 14 15  2  0
 16 14  1  0
 17 16  1  0
 17 28  1  0
 17 18  1  6
 19 27  1  0
 19 18  1  0
 20 19  2  0
 21 20  1  0
 21 22  1  0
 22 27  2  0
 23 22  1  0
 23 24  2  0
 24 25  1  0
 25 26  2  0
 27 26  1  0
 28 30  2  0
 28 29  1  0
M  END
$$$$
