GHW.pdb
     RDKit          3D

 29 31  0  0  1  0  0  0  0  0999 V2000
   27.3340  -16.0017  -14.7893 N   0  0  0  0  0  0  0  0  0  0  0  0
   27.9324  -17.1204  -14.1422 C   0  0  0  0  0  0  0  0  0  0  0  0
   26.9367  -18.2345  -13.8934 C   0  0  0  0  0  0  0  0  0  0  0  0
   25.7225  -18.0330  -13.8925 O   0  0  0  0  0  0  0  0  0  0  0  0
   27.4651  -19.5224  -13.6609 N   0  0  0  0  0  0  0  0  0  0  0  0
   26.7128  -20.6310  -13.2169 C   0  0  1  0  0  0  0  0  0  0  0  0
   26.5922  -21.8117  -14.1613 C   0  0  0  0  0  0  0  0  0  0  0  0
   26.3175  -21.4129  -15.5557 C   0  0  0  0  0  0  0  0  0  0  0  0
   26.1446  -20.1180  -16.0434 C   0  0  0  0  0  0  0  0  0  0  0  0
   25.9162  -20.2022  -17.3637 N   0  0  0  0  0  0  0  0  0  0  0  0
   25.9376  -21.4890  -17.7263 C   0  0  0  0  0  0  0  0  0  0  0  0
   26.1823  -22.2027  -16.6142 N   0  0  0  0  0  0  0  0  0  0  0  0
   26.8984  -21.0889  -11.8510 C   0  0  0  0  0  0  0  0  0  0  0  0
   27.9519  -21.7870  -11.6356 O   0  0  0  0  0  0  0  0  0  0  0  0
   26.0324  -20.8338  -10.7671 N   0  0  0  0  0  0  0  0  0  0  0  0
   26.3525  -21.3144   -9.4269 C   0  0  1  0  0  0  0  0  0  0  0  0
   27.7578  -20.9174   -9.0478 C   0  0  0  0  0  0  0  0  0  0  0  0
   27.7223  -20.1569   -7.7840 C   0  0  0  0  0  0  0  0  0  0  0  0
   26.7294  -19.1963   -7.5367 C   0  0  0  0  0  0  0  0  0  0  0  0
   26.9555  -18.7424   -6.3019 N   0  0  0  0  0  0  0  0  0  0  0  0
   28.0202  -19.3536   -5.7649 C   0  0  0  0  0  0  0  0  0  0  0  0
   28.6782  -19.2631   -4.5584 C   0  0  0  0  0  0  0  0  0  0  0  0
   29.7840  -20.0305   -4.2842 C   0  0  0  0  0  0  0  0  0  0  0  0
   30.2791  -20.9293   -5.2203 C   0  0  0  0  0  0  0  0  0  0  0  0
   29.6275  -21.0283   -6.4320 C   0  0  0  0  0  0  0  0  0  0  0  0
   28.5239  -20.2585   -6.6946 C   0  0  0  0  0  0  0  0  0  0  0  0
   25.3104  -20.9953   -8.4534 C   0  0  0  0  0  0  0  0  0  0  0  0
   25.2349  -21.5879   -7.2198 O   0  0  0  0  0  0  0  0  0  0  0  0
   24.4137  -20.1378   -8.7312 O   0  0  0  0  0  0  0  0  0  0  0  0
  1  2  1  0
  2  3  1  0
  3  4  2  0
  5  3  1  0
  5  6  1  0
  6 13  1  0
  6  7  1  6
  8  7  1  0
  9  8  2  0
 10  9  1  0
 11 10  1  0
 11 12  2  0
 12  8  1  0
 13 14  2  0
 15 16  1  0
 15 13  1  0
 16 27  1  0
 16 17  1  1
 18 17  1  0
 18 19  2  0
 20 19  1  0
 21 20  1  0
 22 21  2  0
 23 22  1  0
 24 23  2  0
 24 25  1  0
 25 26  2  0
 26 21  1  0
 26 18  1  0
 27 29  2  0
 27 28  1  0
M  END
$$$$
