GHW.pdb
     RDKit          3D

 29 31  0  0  1  0  0  0  0  0999 V2000
   28.5109  -21.4534  -15.0226 N   0  0  0  0  0  0  0  0  0  0  0  0
   27.3966  -20.6078  -15.2899 C   0  0  0  0  0  0  0  0  0  0  0  0
   26.7122  -20.1484  -14.0190 C   0  0  0  0  0  0  0  0  0  0  0  0
   27.1529  -19.2194  -13.3426 O   0  0  0  0  0  0  0  0  0  0  0  0
   25.5391  -20.8364  -13.6415 N   0  0  0  0  0  0  0  0  0  0  0  0
   24.8418  -20.6312  -12.4317 C   0  0  1  0  0  0  0  0  0  0  0  0
   23.3285  -20.7223  -12.4782 C   0  0  0  0  0  0  0  0  0  0  0  0
   22.7274  -19.8601  -13.5146 C   0  0  0  0  0  0  0  0  0  0  0  0
   23.3860  -18.9462  -14.3364 C   0  0  0  0  0  0  0  0  0  0  0  0
   22.4698  -18.3754  -15.1347 N   0  0  0  0  0  0  0  0  0  0  0  0
   21.2680  -18.8885  -14.8516 C   0  0  0  0  0  0  0  0  0  0  0  0
   21.4497  -19.7853  -13.8674 N   0  0  0  0  0  0  0  0  0  0  0  0
   25.3525  -21.2587  -11.2254 C   0  0  0  0  0  0  0  0  0  0  0  0
   26.2005  -22.2034  -11.4048 O   0  0  0  0  0  0  0  0  0  0  0  0
   24.9986  -20.9207   -9.9024 N   0  0  0  0  0  0  0  0  0  0  0  0
   25.9789  -20.9988   -8.8243 C   0  0  1  0  0  0  0  0  0  0  0  0
   27.2569  -20.3038   -9.2245 C   0  0  0  0  0  0  0  0  0  0  0  0
   28.2873  -20.5560   -8.1991 C   0  0  0  0  0  0  0  0  0  0  0  0
   29.2868  -21.5226   -8.3897 C   0  0  0  0  0  0  0  0  0  0  0  0
   30.0718  -21.4581   -7.3119 N   0  0  0  0  0  0  0  0  0  0  0  0
   29.6291  -20.5191   -6.4646 C   0  0  0  0  0  0  0  0  0  0  0  0
   30.0433  -20.0559   -5.2355 C   0  0  0  0  0  0  0  0  0  0  0  0
   29.3634  -19.0604   -4.5770 C   0  0  0  0  0  0  0  0  0  0  0  0
   28.2281  -18.4837   -5.1317 C   0  0  0  0  0  0  0  0  0  0  0  0
   27.8045  -18.9401   -6.3626 C   0  0  0  0  0  0  0  0  0  0  0  0
   28.4915  -19.9332   -7.0116 C   0  0  0  0  0  0  0  0  0  0  0  0
   25.4193  -20.6177   -7.5292 C   0  0  0  0  0  0  0  0  0  0  0  0
   25.7767  -21.2255   -6.3539 O   0  0  0  0  0  0  0  0  0  0  0  0
   24.5554  -19.6880   -7.4521 O   0  0  0  0  0  0  0  0  0  0  0  0
  1  2  1  0
  2  3  1  0
  3  4  2  0
  5  3  1  0
  5  6  1  0
  6 13  1  0
  6  7  1  6
  8  7  1  0
  9  8  2  0
 10  9  1  0
 11 10  1  0
 11 12  2  0
 12  8  1  0
 13 14  2  0
 15 16  1  0
 15 13  1  0
 16 27  1  0
 16 17  1  6
 18 17  1  0
 18 19  2  0
 20 19  1  0
 21 20  1  0
 22 21  2  0
 23 22  1  0
 24 23  2  0
 24 25  1  0
 25 26  2  0
 26 21  1  0
 26 18  1  0
 27 29  2  0
 27 28  1  0
M  END
$$$$
