GHW.pdb
     RDKit          3D

 29 31  0  0  1  0  0  0  0  0999 V2000
   24.1313  -19.2389  -18.9294 N   0  0  0  0  0  0  0  0  0  0  0  0
   24.3307  -18.8599  -17.5712 C   0  0  0  0  0  0  0  0  0  0  0  0
   25.2475  -19.8194  -16.8407 C   0  0  0  0  0  0  0  0  0  0  0  0
   24.9516  -21.0026  -16.6754 O   0  0  0  0  0  0  0  0  0  0  0  0
   26.4640  -19.2943  -16.3546 N   0  0  0  0  0  0  0  0  0  0  0  0
   27.4041  -20.0198  -15.5918 C   0  0  1  0  0  0  0  0  0  0  0  0
   28.8555  -19.9470  -16.0262 C   0  0  0  0  0  0  0  0  0  0  0  0
   29.0761  -20.4487  -17.3968 C   0  0  0  0  0  0  0  0  0  0  0  0
   28.1448  -21.0731  -18.2258 C   0  0  0  0  0  0  0  0  0  0  0  0
   28.7566  -21.3677  -19.3840 N   0  0  0  0  0  0  0  0  0  0  0  0
   30.0276  -20.9575  -19.3197 C   0  0  0  0  0  0  0  0  0  0  0  0
   30.1971  -20.4043  -18.1068 N   0  0  0  0  0  0  0  0  0  0  0  0
   27.3034  -19.9709  -14.1436 C   0  0  0  0  0  0  0  0  0  0  0  0
   27.7119  -18.8877  -13.5928 O   0  0  0  0  0  0  0  0  0  0  0  0
   26.8043  -20.9960  -13.3130 N   0  0  0  0  0  0  0  0  0  0  0  0
   26.7218  -20.8119  -11.8677 C   0  0  1  0  0  0  0  0  0  0  0  0
   26.0162  -19.5187  -11.5420 C   0  0  0  0  0  0  0  0  0  0  0  0
   24.5741  -19.6717  -11.8139 C   0  0  0  0  0  0  0  0  0  0  0  0
   23.7116  -20.2582  -10.8749 C   0  0  0  0  0  0  0  0  0  0  0  0
   22.4891  -20.1939  -11.4072 N   0  0  0  0  0  0  0  0  0  0  0  0
   22.5321  -19.6088  -12.6119 C   0  0  0  0  0  0  0  0  0  0  0  0
   21.5919  -19.3054  -13.5714 C   0  0  0  0  0  0  0  0  0  0  0  0
   21.9414  -18.6960  -14.7518 C   0  0  0  0  0  0  0  0  0  0  0  0
   23.2631  -18.3632  -15.0195 C   0  0  0  0  0  0  0  0  0  0  0  0
   24.2130  -18.6623  -14.0651 C   0  0  0  0  0  0  0  0  0  0  0  0
   23.8529  -19.2694  -12.8898 C   0  0  0  0  0  0  0  0  0  0  0  0
   26.2301  -22.0029  -11.1783 C   0  0  0  0  0  0  0  0  0  0  0  0
   26.2648  -22.1439   -9.8153 O   0  0  0  0  0  0  0  0  0  0  0  0
   25.7464  -22.9742  -11.8410 O   0  0  0  0  0  0  0  0  0  0  0  0
  1  2  1  0
  2  3  1  0
  3  4  2  0
  5  3  1  0
  5  6  1  0
  6 13  1  0
  6  7  1  1
  8  7  1  0
  9  8  2  0
 10  9  1  0
 11 10  1  0
 11 12  2  0
 12  8  1  0
 13 14  2  0
 15 16  1  0
 15 13  1  0
 16 27  1  0
 16 17  1  6
 18 17  1  0
 18 19  2  0
 20 19  1  0
 21 20  1  0
 22 21  2  0
 23 22  1  0
 24 23  2  0
 24 25  1  0
 25 26  2  0
 26 21  1  0
 26 18  1  0
 27 29  2  0
 27 28  1  0
M  END
$$$$
