GHW.pdb
     RDKit          3D

 29 31  0  0  1  0  0  0  0  0999 V2000
   28.5716  -18.0883  -15.7078 N   0  0  0  0  0  0  0  0  0  0  0  0
   28.3864  -19.2779  -14.9471 C   0  0  0  0  0  0  0  0  0  0  0  0
   27.3551  -19.0992  -13.8521 C   0  0  0  0  0  0  0  0  0  0  0  0
   27.1105  -17.9965  -13.3631 O   0  0  0  0  0  0  0  0  0  0  0  0
   26.6821  -20.2597  -13.4137 N   0  0  0  0  0  0  0  0  0  0  0  0
   25.7661  -20.2999  -12.3407 C   0  0  1  0  0  0  0  0  0  0  0  0
   24.3165  -20.5949  -12.6757 C   0  0  0  0  0  0  0  0  0  0  0  0
   23.8531  -19.9100  -13.8984 C   0  0  0  0  0  0  0  0  0  0  0  0
   24.5640  -18.9922  -14.6710 C   0  0  0  0  0  0  0  0  0  0  0  0
   23.7768  -18.6156  -15.6912 N   0  0  0  0  0  0  0  0  0  0  0  0
   22.6059  -19.2540  -15.5942 C   0  0  0  0  0  0  0  0  0  0  0  0
   22.6763  -20.0319  -14.5007 N   0  0  0  0  0  0  0  0  0  0  0  0
   26.1577  -20.9899  -11.1240 C   0  0  0  0  0  0  0  0  0  0  0  0
   27.1204  -21.8280  -11.2439 O   0  0  0  0  0  0  0  0  0  0  0  0
   25.5772  -20.8167   -9.8501 N   0  0  0  0  0  0  0  0  0  0  0  0
   26.1325  -21.4876   -8.6793 C   0  0  1  0  0  0  0  0  0  0  0  0
   27.6020  -21.1747   -8.5418 C   0  0  0  0  0  0  0  0  0  0  0  0
   27.7811  -20.1298   -7.5157 C   0  0  0  0  0  0  0  0  0  0  0  0
   27.3269  -18.8178   -7.7216 C   0  0  0  0  0  0  0  0  0  0  0  0
   27.5967  -18.1537   -6.5955 N   0  0  0  0  0  0  0  0  0  0  0  0
   28.1875  -18.9615   -5.7045 C   0  0  0  0  0  0  0  0  0  0  0  0
   28.6713  -18.7976   -4.4255 C   0  0  0  0  0  0  0  0  0  0  0  0
   29.2554  -19.8350   -3.7403 C   0  0  0  0  0  0  0  0  0  0  0  0
   29.3789  -21.0922   -4.3177 C   0  0  0  0  0  0  0  0  0  0  0  0
   28.8975  -21.2675   -5.5985 C   0  0  0  0  0  0  0  0  0  0  0  0
   28.3150  -20.2256   -6.2726 C   0  0  0  0  0  0  0  0  0  0  0  0
   25.3190  -21.2895   -7.4815 C   0  0  0  0  0  0  0  0  0  0  0  0
   24.3469  -20.3276   -7.3904 O   0  0  0  0  0  0  0  0  0  0  0  0
   25.4972  -22.0207   -6.4568 O   0  0  0  0  0  0  0  0  0  0  0  0
  1  2  1  0
  2  3  1  0
  3  4  2  0
  5  3  1  0
  5  6  1  0
  6 13  1  0
  6  7  1  6
  8  7  1  0
  9  8  2  0
 10  9  1  0
 11 10  1  0
 11 12  2  0
 12  8  1  0
 13 14  2  0
 15 16  1  0
 15 13  1  0
 16 27  1  0
 16 17  1  1
 18 17  1  0
 18 19  2  0
 20 19  1  0
 21 20  1  0
 22 21  2  0
 23 22  1  0
 24 23  2  0
 24 25  1  0
 25 26  2  0
 26 21  1  0
 26 18  1  0
 27 29  2  0
 27 28  1  0
M  END
$$$$
