GHW.pdb
     RDKit          3D

 29 31  0  0  1  0  0  0  0  0999 V2000
   28.9196  -22.8731  -16.8542 N   0  0  0  0  0  0  0  0  0  0  0  0
   27.6838  -22.4458  -16.2901 C   0  0  0  0  0  0  0  0  0  0  0  0
   27.8868  -21.5309  -15.0998 C   0  0  0  0  0  0  0  0  0  0  0  0
   28.9895  -21.3845  -14.5731 O   0  0  0  0  0  0  0  0  0  0  0  0
   26.7491  -20.8491  -14.6177 N   0  0  0  0  0  0  0  0  0  0  0  0
   26.7173  -20.0729  -13.4393 C   0  0  1  0  0  0  0  0  0  0  0  0
   26.2281  -18.6425  -13.5628 C   0  0  0  0  0  0  0  0  0  0  0  0
   26.9751  -17.8589  -14.5661 C   0  0  0  0  0  0  0  0  0  0  0  0
   28.0537  -18.2886  -15.3384 C   0  0  0  0  0  0  0  0  0  0  0  0
   28.4337  -17.2657  -16.1205 N   0  0  0  0  0  0  0  0  0  0  0  0
   27.6441  -16.2151  -15.8745 C   0  0  0  0  0  0  0  0  0  0  0  0
   26.7689  -16.5988  -14.9297 N   0  0  0  0  0  0  0  0  0  0  0  0
   26.2055  -20.6826  -12.2245 C   0  0  0  0  0  0  0  0  0  0  0  0
   25.0485  -21.2267  -12.3187 O   0  0  0  0  0  0  0  0  0  0  0  0
   26.8635  -20.7232  -10.9773 N   0  0  0  0  0  0  0  0  0  0  0  0
   26.2345  -21.3543   -9.8217 C   0  0  1  0  0  0  0  0  0  0  0  0
   27.2764  -21.7373   -8.8000 C   0  0  0  0  0  0  0  0  0  0  0  0
   27.4822  -20.6094   -7.8714 C   0  0  0  0  0  0  0  0  0  0  0  0
   26.9490  -19.3383   -8.1359 C   0  0  0  0  0  0  0  0  0  0  0  0
   27.2717  -18.5781   -7.0872 N   0  0  0  0  0  0  0  0  0  0  0  0
   27.9689  -19.2881   -6.1898 C   0  0  0  0  0  0  0  0  0  0  0  0
   28.5413  -19.0049   -4.9695 C   0  0  0  0  0  0  0  0  0  0  0  0
   29.2272  -19.9598   -4.2593 C   0  0  0  0  0  0  0  0  0  0  0  0
   29.3679  -21.2513   -4.7507 C   0  0  0  0  0  0  0  0  0  0  0  0
   28.7983  -21.5459   -5.9720 C   0  0  0  0  0  0  0  0  0  0  0  0
   28.1146  -20.5855   -6.6717 C   0  0  0  0  0  0  0  0  0  0  0  0
   25.0925  -20.5928   -9.3199 C   0  0  0  0  0  0  0  0  0  0  0  0
   24.0888  -21.1564   -8.5759 O   0  0  0  0  0  0  0  0  0  0  0  0
   24.9900  -19.3505   -9.5698 O   0  0  0  0  0  0  0  0  0  0  0  0
  1  2  1  0
  2  3  1  0
  3  4  2  0
  5  3  1  0
  5  6  1  0
  6 13  1  0
  6  7  1  6
  8  7  1  0
  9  8  2  0
 10  9  1  0
 11 10  1  0
 11 12  2  0
 12  8  1  0
 13 14  2  0
 15 16  1  0
 15 13  1  0
 16 27  1  0
 16 17  1  1
 18 17  1  0
 18 19  2  0
 20 19  1  0
 21 20  1  0
 22 21  2  0
 23 22  1  0
 24 23  2  0
 24 25  1  0
 25 26  2  0
 26 21  1  0
 26 18  1  0
 27 29  2  0
 27 28  1  0
M  END
$$$$
