GHW.pdb
     RDKit          3D

 29 31  0  0  1  0  0  0  0  0999 V2000
   23.4644  -18.0293  -15.2878 N   0  0  0  0  0  0  0  0  0  0  0  0
   24.1441  -18.0659  -14.0368 C   0  0  0  0  0  0  0  0  0  0  0  0
   24.8728  -19.3766  -13.8226 C   0  0  0  0  0  0  0  0  0  0  0  0
   24.4930  -20.4245  -14.3446 O   0  0  0  0  0  0  0  0  0  0  0  0
   26.0140  -19.3440  -12.9928 N   0  0  0  0  0  0  0  0  0  0  0  0
   26.7637  -20.4779  -12.6133 C   0  0  1  0  0  0  0  0  0  0  0  0
   28.1886  -20.5715  -13.1246 C   0  0  0  0  0  0  0  0  0  0  0  0
   28.3548  -20.0173  -14.4825 C   0  0  0  0  0  0  0  0  0  0  0  0
   28.1677  -18.6943  -14.8814 C   0  0  0  0  0  0  0  0  0  0  0  0
   28.4239  -18.6207  -16.1973 N   0  0  0  0  0  0  0  0  0  0  0  0
   28.7625  -19.8355  -16.6418 C   0  0  0  0  0  0  0  0  0  0  0  0
   28.7133  -20.6642  -15.5850 N   0  0  0  0  0  0  0  0  0  0  0  0
   26.6878  -20.9257  -11.2336 C   0  0  0  0  0  0  0  0  0  0  0  0
   27.7984  -21.2823  -10.7015 O   0  0  0  0  0  0  0  0  0  0  0  0
   25.5173  -20.9988  -10.4497 N   0  0  0  0  0  0  0  0  0  0  0  0
   25.5696  -20.7798   -9.0079 C   0  0  1  0  0  0  0  0  0  0  0  0
   26.4442  -19.5928   -8.6879 C   0  0  0  0  0  0  0  0  0  0  0  0
   27.6368  -20.0540   -7.9519 C   0  0  0  0  0  0  0  0  0  0  0  0
   28.6458  -20.7953   -8.5863 C   0  0  0  0  0  0  0  0  0  0  0  0
   29.5871  -21.0017   -7.6627 N   0  0  0  0  0  0  0  0  0  0  0  0
   29.2331  -20.4409   -6.4983 C   0  0  0  0  0  0  0  0  0  0  0  0
   29.8108  -20.3608   -5.2507 C   0  0  0  0  0  0  0  0  0  0  0  0
   29.1897  -19.7106   -4.2122 C   0  0  0  0  0  0  0  0  0  0  0  0
   27.9502  -19.1083   -4.3863 C   0  0  0  0  0  0  0  0  0  0  0  0
   27.3626  -19.1823   -5.6321 C   0  0  0  0  0  0  0  0  0  0  0  0
   27.9921  -19.8325   -6.6618 C   0  0  0  0  0  0  0  0  0  0  0  0
   24.2445  -20.7857   -8.3918 C   0  0  0  0  0  0  0  0  0  0  0  0
   23.0838  -20.7165   -9.1175 O   0  0  0  0  0  0  0  0  0  0  0  0
   24.1249  -20.8517   -7.1278 O   0  0  0  0  0  0  0  0  0  0  0  0
  1  2  1  0
  2  3  1  0
  3  4  2  0
  5  3  1  0
  5  6  1  0
  6 13  1  0
  6  7  1  1
  8  7  1  0
  9  8  2  0
 10  9  1  0
 11 10  1  0
 11 12  2  0
 12  8  1  0
 13 14  2  0
 15 16  1  0
 15 13  1  0
 16 27  1  0
 16 17  1  6
 18 17  1  0
 18 19  2  0
 20 19  1  0
 21 20  1  0
 22 21  2  0
 23 22  1  0
 24 23  2  0
 24 25  1  0
 25 26  2  0
 26 21  1  0
 26 18  1  0
 27 29  2  0
 27 28  1  0
M  END
$$$$
