GHW.pdb
     RDKit          3D

 29 31  0  0  1  0  0  0  0  0999 V2000
   30.0385  -21.4627  -18.4053 N   0  0  0  0  0  0  0  0  0  0  0  0
   29.6248  -22.1430  -17.2246 C   0  0  0  0  0  0  0  0  0  0  0  0
   29.0602  -21.1935  -16.1881 C   0  0  0  0  0  0  0  0  0  0  0  0
   29.7529  -20.3280  -15.6535 O   0  0  0  0  0  0  0  0  0  0  0  0
   27.6960  -21.3452  -15.8596 N   0  0  0  0  0  0  0  0  0  0  0  0
   27.0038  -20.5540  -14.9179 C   0  0  1  0  0  0  0  0  0  0  0  0
   26.2373  -19.3566  -15.4464 C   0  0  0  0  0  0  0  0  0  0  0  0
   27.0617  -18.4650  -16.2856 C   0  0  0  0  0  0  0  0  0  0  0  0
   27.6899  -17.2830  -15.8949 C   0  0  0  0  0  0  0  0  0  0  0  0
   28.3353  -16.7873  -16.9627 N   0  0  0  0  0  0  0  0  0  0  0  0
   28.1410  -17.6029  -18.0042 C   0  0  0  0  0  0  0  0  0  0  0  0
   27.3667  -18.6115  -17.5694 N   0  0  0  0  0  0  0  0  0  0  0  0
   26.2447  -21.2251  -13.8772 C   0  0  0  0  0  0  0  0  0  0  0  0
   26.3894  -22.4974  -13.8143 O   0  0  0  0  0  0  0  0  0  0  0  0
   25.3802  -20.6042  -12.9513 N   0  0  0  0  0  0  0  0  0  0  0  0
   24.8260  -21.3539  -11.8288 C   0  0  1  0  0  0  0  0  0  0  0  0
   25.9341  -21.9518  -10.9976 C   0  0  0  0  0  0  0  0  0  0  0  0
   26.2471  -21.0410   -9.8800 C   0  0  0  0  0  0  0  0  0  0  0  0
   25.3457  -20.0443   -9.4751 C   0  0  0  0  0  0  0  0  0  0  0  0
   25.9078  -19.4446   -8.4232 N   0  0  0  0  0  0  0  0  0  0  0  0
   27.0960  -19.9989   -8.1468 C   0  0  0  0  0  0  0  0  0  0  0  0
   28.0718  -19.7689   -7.2024 C   0  0  0  0  0  0  0  0  0  0  0  0
   29.2272  -20.5111   -7.1683 C   0  0  0  0  0  0  0  0  0  0  0  0
   29.4520  -21.5248   -8.0909 C   0  0  0  0  0  0  0  0  0  0  0  0
   28.4810  -21.7638   -9.0410 C   0  0  0  0  0  0  0  0  0  0  0  0
   27.3310  -21.0180   -9.0650 C   0  0  0  0  0  0  0  0  0  0  0  0
   23.8106  -20.5991  -11.0975 C   0  0  0  0  0  0  0  0  0  0  0  0
   22.8875  -21.1920  -10.2759 O   0  0  0  0  0  0  0  0  0  0  0  0
   23.7476  -19.3341  -11.2086 O   0  0  0  0  0  0  0  0  0  0  0  0
  1  2  1  0
  2  3  1  0
  3  4  2  0
  5  3  1  0
  5  6  1  0
  6 13  1  0
  6  7  1  6
  8  7  1  0
  9  8  2  0
 10  9  1  0
 11 10  1  0
 11 12  2  0
 12  8  1  0
 13 14  2  0
 15 16  1  0
 15 13  1  0
 16 27  1  0
 16 17  1  1
 18 17  1  0
 18 19  2  0
 20 19  1  0
 21 20  1  0
 22 21  2  0
 23 22  1  0
 24 23  2  0
 24 25  1  0
 25 26  2  0
 26 21  1  0
 26 18  1  0
 27 29  2  0
 27 28  1  0
M  END
$$$$
