GHW.pdb
     RDKit          3D

 29 31  0  0  1  0  0  0  0  0999 V2000
   28.2284  -24.1425  -18.8208 N   0  0  0  0  0  0  0  0  0  0  0  0
   27.6818  -22.8373  -18.6602 C   0  0  0  0  0  0  0  0  0  0  0  0
   28.1015  -22.2010  -17.3511 C   0  0  0  0  0  0  0  0  0  0  0  0
   29.2283  -22.3605  -16.8825 O   0  0  0  0  0  0  0  0  0  0  0  0
   27.1378  -21.4118  -16.6874 N   0  0  0  0  0  0  0  0  0  0  0  0
   27.3749  -20.6823  -15.5026 C   0  0  1  0  0  0  0  0  0  0  0  0
   27.6352  -19.1946  -15.6433 C   0  0  0  0  0  0  0  0  0  0  0  0
   28.7234  -18.8836  -16.5909 C   0  0  0  0  0  0  0  0  0  0  0  0
   29.4318  -19.7842  -17.3856 C   0  0  0  0  0  0  0  0  0  0  0  0
   30.3303  -19.0862  -18.0983 N   0  0  0  0  0  0  0  0  0  0  0  0
   30.2184  -17.7906  -17.7874 C   0  0  0  0  0  0  0  0  0  0  0  0
   29.2388  -17.6931  -16.8726 N   0  0  0  0  0  0  0  0  0  0  0  0
   26.5312  -20.9444  -14.3498 C   0  0  0  0  0  0  0  0  0  0  0  0
   25.2677  -20.8835  -14.5585 O   0  0  0  0  0  0  0  0  0  0  0  0
   26.9794  -21.2531  -13.0483 N   0  0  0  0  0  0  0  0  0  0  0  0
   26.0357  -21.3654  -11.9409 C   0  0  1  0  0  0  0  0  0  0  0  0
   26.7114  -21.9670  -10.7335 C   0  0  0  0  0  0  0  0  0  0  0  0
   26.4335  -21.1261   -9.5535 C   0  0  0  0  0  0  0  0  0  0  0  0
   25.1224  -20.7673   -9.2041 C   0  0  0  0  0  0  0  0  0  0  0  0
   25.2223  -20.0602   -8.0763 N   0  0  0  0  0  0  0  0  0  0  0  0
   26.5042  -19.9541   -7.7009 C   0  0  0  0  0  0  0  0  0  0  0  0
   27.1553  -19.3434   -6.6521 C   0  0  0  0  0  0  0  0  0  0  0  0
   28.5225  -19.3936   -6.5287 C   0  0  0  0  0  0  0  0  0  0  0  0
   29.2995  -20.0659   -7.4633 C   0  0  0  0  0  0  0  0  0  0  0  0
   28.6576  -20.6814   -8.5177 C   0  0  0  0  0  0  0  0  0  0  0  0
   27.2924  -20.6262   -8.6304 C   0  0  0  0  0  0  0  0  0  0  0  0
   25.2921  -20.1285  -11.7108 C   0  0  0  0  0  0  0  0  0  0  0  0
   25.8515  -18.8849  -11.8489 O   0  0  0  0  0  0  0  0  0  0  0  0
   24.0706  -20.1700  -11.3606 O   0  0  0  0  0  0  0  0  0  0  0  0
  1  2  1  0
  2  3  1  0
  3  4  2  0
  5  3  1  0
  5  6  1  0
  6 13  1  0
  6  7  1  6
  8  7  1  0
  9  8  2  0
 10  9  1  0
 11 10  1  0
 11 12  2  0
 12  8  1  0
 13 14  2  0
 15 16  1  0
 15 13  1  0
 16 27  1  0
 16 17  1  1
 18 17  1  0
 18 19  2  0
 20 19  1  0
 21 20  1  0
 22 21  2  0
 23 22  1  0
 24 23  2  0
 24 25  1  0
 25 26  2  0
 26 21  1  0
 26 18  1  0
 27 29  2  0
 27 28  1  0
M  END
$$$$
