GHW.pdb
     RDKit          3D

 29 31  0  0  1  0  0  0  0  0999 V2000
   27.6026  -18.4125  -17.2740 N   0  0  0  0  0  0  0  0  0  0  0  0
   27.4652  -17.4059  -16.2761 C   0  0  0  0  0  0  0  0  0  0  0  0
   26.5300  -17.8312  -15.1628 C   0  0  0  0  0  0  0  0  0  0  0  0
   26.5837  -17.3281  -14.0409 O   0  0  0  0  0  0  0  0  0  0  0  0
   25.5878  -18.8361  -15.4700 N   0  0  0  0  0  0  0  0  0  0  0  0
   24.6585  -19.3730  -14.5533 C   0  0  1  0  0  0  0  0  0  0  0  0
   23.2837  -19.7288  -15.0860 C   0  0  0  0  0  0  0  0  0  0  0  0
   22.4898  -18.5472  -15.4767 C   0  0  0  0  0  0  0  0  0  0  0  0
   22.8192  -17.2071  -15.2767 C   0  0  0  0  0  0  0  0  0  0  0  0
   21.8254  -16.4590  -15.7820 N   0  0  0  0  0  0  0  0  0  0  0  0
   20.8887  -17.2673  -16.2889 C   0  0  0  0  0  0  0  0  0  0  0  0
   21.3137  -18.5269  -16.0921 N   0  0  0  0  0  0  0  0  0  0  0  0
   25.1180  -20.3829  -13.6159 C   0  0  0  0  0  0  0  0  0  0  0  0
   26.0874  -21.1182  -14.0199 O   0  0  0  0  0  0  0  0  0  0  0  0
   24.5953  -20.6151  -12.3265 N   0  0  0  0  0  0  0  0  0  0  0  0
   25.4785  -20.9331  -11.2092 C   0  0  1  0  0  0  0  0  0  0  0  0
   26.6532  -19.9868  -11.1820 C   0  0  0  0  0  0  0  0  0  0  0  0
   27.6022  -20.4222  -10.1395 C   0  0  0  0  0  0  0  0  0  0  0  0
   28.6174  -21.3508  -10.4171 C   0  0  0  0  0  0  0  0  0  0  0  0
   29.3163  -21.4810   -9.2873 N   0  0  0  0  0  0  0  0  0  0  0  0
   28.8057  -20.6985   -8.3268 C   0  0  0  0  0  0  0  0  0  0  0  0
   29.1216  -20.4587   -7.0079 C   0  0  0  0  0  0  0  0  0  0  0  0
   28.3888  -19.5856   -6.2413 C   0  0  0  0  0  0  0  0  0  0  0  0
   27.2975  -18.9110   -6.7735 C   0  0  0  0  0  0  0  0  0  0  0  0
   26.9723  -19.1437   -8.0937 C   0  0  0  0  0  0  0  0  0  0  0  0
   27.7114  -20.0160   -8.8500 C   0  0  0  0  0  0  0  0  0  0  0  0
   24.7539  -21.0935   -9.9502 C   0  0  0  0  0  0  0  0  0  0  0  0
   23.7241  -20.2719   -9.5720 O   0  0  0  0  0  0  0  0  0  0  0  0
   25.0693  -22.0232   -9.1424 O   0  0  0  0  0  0  0  0  0  0  0  0
  1  2  1  0
  2  3  1  0
  3  4  2  0
  5  3  1  0
  5  6  1  0
  6 13  1  0
  6  7  1  6
  8  7  1  0
  9  8  2  0
 10  9  1  0
 11 10  1  0
 11 12  2  0
 12  8  1  0
 13 14  2  0
 15 16  1  0
 15 13  1  0
 16 27  1  0
 16 17  1  1
 18 17  1  0
 18 19  2  0
 20 19  1  0
 21 20  1  0
 22 21  2  0
 23 22  1  0
 24 23  2  0
 24 25  1  0
 25 26  2  0
 26 21  1  0
 26 18  1  0
 27 29  2  0
 27 28  1  0
M  END
$$$$
