GHW.pdb
     RDKit          3D

 29 31  0  0  1  0  0  0  0  0999 V2000
   15.7538  -19.8637    0.9778 N   0  0  0  0  0  0  0  0  0  0  0  0
   16.3472  -20.4438    2.1352 C   0  0  0  0  0  0  0  0  0  0  0  0
   15.9882  -19.6889    3.3986 C   0  0  0  0  0  0  0  0  0  0  0  0
   15.1077  -18.8291    3.4141 O   0  0  0  0  0  0  0  0  0  0  0  0
   16.7119  -20.0166    4.5651 N   0  0  0  0  0  0  0  0  0  0  0  0
   16.4738  -19.4610    5.8406 C   0  0  1  0  0  0  0  0  0  0  0  0
   16.0166  -20.4060    6.9354 C   0  0  0  0  0  0  0  0  0  0  0  0
   15.2000  -21.5269    6.4299 C   0  0  0  0  0  0  0  0  0  0  0  0
   14.4789  -21.5734    5.2374 C   0  0  0  0  0  0  0  0  0  0  0  0
   13.8806  -22.7731    5.1644 N   0  0  0  0  0  0  0  0  0  0  0  0
   14.1927  -23.4805    6.2553 C   0  0  0  0  0  0  0  0  0  0  0  0
   14.9926  -22.7046    7.0065 N   0  0  0  0  0  0  0  0  0  0  0  0
   17.4285  -18.4996    6.3641 C   0  0  0  0  0  0  0  0  0  0  0  0
   18.5929  -18.5220    5.8281 O   0  0  0  0  0  0  0  0  0  0  0  0
   17.1837  -17.5648    7.3917 N   0  0  0  0  0  0  0  0  0  0  0  0
   18.2053  -16.5977    7.7799 C   0  0  1  0  0  0  0  0  0  0  0  0
   17.5946  -15.2291    7.9533 C   0  0  0  0  0  0  0  0  0  0  0  0
   17.7355  -14.4725    6.6945 C   0  0  0  0  0  0  0  0  0  0  0  0
   16.7865  -14.5816    5.6661 C   0  0  0  0  0  0  0  0  0  0  0  0
   17.1825  -13.7397    4.7089 N   0  0  0  0  0  0  0  0  0  0  0  0
   18.3118  -13.1156    5.0705 C   0  0  0  0  0  0  0  0  0  0  0  0
   19.1315  -12.1824    4.4757 C   0  0  0  0  0  0  0  0  0  0  0  0
   20.2649  -11.7207    5.0996 C   0  0  0  0  0  0  0  0  0  0  0  0
   20.6250  -12.1823    6.3591 C   0  0  0  0  0  0  0  0  0  0  0  0
   19.8108  -13.1171    6.9642 C   0  0  0  0  0  0  0  0  0  0  0  0
   18.6812  -13.5699    6.3331 C   0  0  0  0  0  0  0  0  0  0  0  0
   19.0375  -17.0739    8.8828 C   0  0  0  0  0  0  0  0  0  0  0  0
   20.1647  -16.4178    9.3043 O   0  0  0  0  0  0  0  0  0  0  0  0
   18.7355  -18.1444    9.4987 O   0  0  0  0  0  0  0  0  0  0  0  0
  1  2  1  0
  2  3  1  0
  3  4  2  0
  5  3  1  0
  5  6  1  0
  6 13  1  0
  6  7  1  1
  8  7  1  0
  9  8  2  0
 10  9  1  0
 11 10  1  0
 11 12  2  0
 12  8  1  0
 13 14  2  0
 15 16  1  0
 15 13  1  0
 16 27  1  0
 16 17  1  1
 18 17  1  0
 18 19  2  0
 20 19  1  0
 21 20  1  0
 22 21  2  0
 23 22  1  0
 24 23  2  0
 24 25  1  0
 25 26  2  0
 26 21  1  0
 26 18  1  0
 27 29  2  0
 27 28  1  0
M  END
$$$$
