GHW.pdb
     RDKit          3D

 29 31  0  0  1  0  0  0  0  0999 V2000
   22.3874   -3.8268  -23.5355 N   0  0  0  0  0  0  0  0  0  0  0  0
   21.1888   -4.5753  -23.3591 C   0  0  0  0  0  0  0  0  0  0  0  0
   20.9093   -4.8678  -21.8992 C   0  0  0  0  0  0  0  0  0  0  0  0
   21.7989   -4.8416  -21.0491 O   0  0  0  0  0  0  0  0  0  0  0  0
   19.5755   -5.1736  -21.5537 N   0  0  0  0  0  0  0  0  0  0  0  0
   19.1295   -5.4558  -20.2448 C   0  0  1  0  0  0  0  0  0  0  0  0
   18.3623   -4.3651  -19.5220 C   0  0  0  0  0  0  0  0  0  0  0  0
   18.5349   -3.0327  -20.1334 C   0  0  0  0  0  0  0  0  0  0  0  0
   19.4068   -2.0243  -19.7242 C   0  0  0  0  0  0  0  0  0  0  0  0
   19.2464   -0.9800  -20.5526 N   0  0  0  0  0  0  0  0  0  0  0  0
   18.3148   -1.2865  -21.4615 C   0  0  0  0  0  0  0  0  0  0  0  0
   17.8989   -2.5345  -21.1869 N   0  0  0  0  0  0  0  0  0  0  0  0
   18.5349   -6.7549  -19.9831 C   0  0  0  0  0  0  0  0  0  0  0  0
   18.4199   -7.5299  -20.9979 O   0  0  0  0  0  0  0  0  0  0  0  0
   18.0834   -7.2221  -18.7309 N   0  0  0  0  0  0  0  0  0  0  0  0
   17.6147   -8.5948  -18.5712 C   0  0  1  0  0  0  0  0  0  0  0  0
   18.6272   -9.5643  -19.1290 C   0  0  0  0  0  0  0  0  0  0  0  0
   18.0956  -10.9362  -19.0202 C   0  0  0  0  0  0  0  0  0  0  0  0
   18.2621  -11.6940  -17.8506 C   0  0  0  0  0  0  0  0  0  0  0  0
   17.6268  -12.8481  -18.0660 N   0  0  0  0  0  0  0  0  0  0  0  0
   17.0776  -12.8605  -19.2882 C   0  0  0  0  0  0  0  0  0  0  0  0
   16.3411  -13.7765  -20.0059 C   0  0  0  0  0  0  0  0  0  0  0  0
   15.9110  -13.5096  -21.2829 C   0  0  0  0  0  0  0  0  0  0  0  0
   16.2062  -12.2995  -21.8974 C   0  0  0  0  0  0  0  0  0  0  0  0
   16.9432  -11.3746  -21.1874 C   0  0  0  0  0  0  0  0  0  0  0  0
   17.3661  -11.6508  -19.9130 C   0  0  0  0  0  0  0  0  0  0  0  0
   17.1397   -8.8707  -17.2170 C   0  0  0  0  0  0  0  0  0  0  0  0
   16.1389   -9.7670  -16.9454 O   0  0  0  0  0  0  0  0  0  0  0  0
   17.6514   -8.2668  -16.2220 O   0  0  0  0  0  0  0  0  0  0  0  0
  1  2  1  0
  2  3  1  0
  3  4  2  0
  5  3  1  0
  5  6  1  0
  6 13  1  0
  6  7  1  6
  8  7  1  0
  9  8  2  0
 10  9  1  0
 11 10  1  0
 11 12  2  0
 12  8  1  0
 13 14  2  0
 15 16  1  0
 15 13  1  0
 16 27  1  0
 16 17  1  1
 18 17  1  0
 18 19  2  0
 20 19  1  0
 21 20  1  0
 22 21  2  0
 23 22  1  0
 24 23  2  0
 24 25  1  0
 25 26  2  0
 26 21  1  0
 26 18  1  0
 27 29  2  0
 27 28  1  0
M  END
$$$$
