GHW.pdb
     RDKit          3D

 29 31  0  0  1  0  0  0  0  0999 V2000
   25.3160  -17.6315  -17.2333 N   0  0  0  0  0  0  0  0  0  0  0  0
   24.3057  -18.5546  -16.8390 C   0  0  0  0  0  0  0  0  0  0  0  0
   24.8904  -19.8577  -16.3341 C   0  0  0  0  0  0  0  0  0  0  0  0
   24.4105  -20.9482  -16.6426 O   0  0  0  0  0  0  0  0  0  0  0  0
   26.0169  -19.7665  -15.4888 N   0  0  0  0  0  0  0  0  0  0  0  0
   26.6574  -20.8685  -14.8826 C   0  0  1  0  0  0  0  0  0  0  0  0
   28.1604  -20.7829  -14.6980 C   0  0  0  0  0  0  0  0  0  0  0  0
   28.8483  -20.1388  -15.8342 C   0  0  0  0  0  0  0  0  0  0  0  0
   29.0322  -18.7724  -16.0430 C   0  0  0  0  0  0  0  0  0  0  0  0
   29.7069  -18.6188  -17.1936 N   0  0  0  0  0  0  0  0  0  0  0  0
   29.9541  -19.8247  -17.7157 C   0  0  0  0  0  0  0  0  0  0  0  0
   29.4245  -20.7290  -16.8745 N   0  0  0  0  0  0  0  0  0  0  0  0
   26.0353  -21.4736  -13.7179 C   0  0  0  0  0  0  0  0  0  0  0  0
   26.4721  -22.6343  -13.3927 O   0  0  0  0  0  0  0  0  0  0  0  0
   25.0123  -20.9007  -12.9337 N   0  0  0  0  0  0  0  0  0  0  0  0
   25.0230  -21.0330  -11.4805 C   0  0  1  0  0  0  0  0  0  0  0  0
   26.4192  -20.8333  -10.9447 C   0  0  0  0  0  0  0  0  0  0  0  0
   26.3506  -20.5947   -9.4903 C   0  0  0  0  0  0  0  0  0  0  0  0
   25.1226  -20.5666   -8.8114 C   0  0  0  0  0  0  0  0  0  0  0  0
   25.4184  -20.3836   -7.5226 N   0  0  0  0  0  0  0  0  0  0  0  0
   26.7447  -20.2954   -7.3536 C   0  0  0  0  0  0  0  0  0  0  0  0
   27.5683  -20.1031   -6.2666 C   0  0  0  0  0  0  0  0  0  0  0  0
   28.9338  -20.0418   -6.4023 C   0  0  0  0  0  0  0  0  0  0  0  0
   29.5341  -20.1723   -7.6481 C   0  0  0  0  0  0  0  0  0  0  0  0
   28.7185  -20.3655   -8.7437 C   0  0  0  0  0  0  0  0  0  0  0  0
   27.3569  -20.4265   -8.5965 C   0  0  0  0  0  0  0  0  0  0  0  0
   23.9706  -20.2482  -10.8386 C   0  0  0  0  0  0  0  0  0  0  0  0
   23.2204  -20.7199   -9.7929 O   0  0  0  0  0  0  0  0  0  0  0  0
   23.7079  -19.0727  -11.2457 O   0  0  0  0  0  0  0  0  0  0  0  0
  1  2  1  0
  2  3  1  0
  3  4  2  0
  5  3  1  0
  5  6  1  0
  6 13  1  0
  6  7  1  1
  8  7  1  0
  9  8  2  0
 10  9  1  0
 11 10  1  0
 11 12  2  0
 12  8  1  0
 13 14  2  0
 15 16  1  0
 15 13  1  0
 16 27  1  0
 16 17  1  1
 18 17  1  0
 18 19  2  0
 20 19  1  0
 21 20  1  0
 22 21  2  0
 23 22  1  0
 24 23  2  0
 24 25  1  0
 25 26  2  0
 26 21  1  0
 26 18  1  0
 27 29  2  0
 27 28  1  0
M  END
$$$$
