GHW.pdb
     RDKit          3D

 29 31  0  0  1  0  0  0  0  0999 V2000
   26.8512  -25.9285  -17.6289 N   0  0  0  0  0  0  0  0  0  0  0  0
   25.9042  -24.8981  -17.3654 C   0  0  0  0  0  0  0  0  0  0  0  0
   26.2700  -24.0882  -16.1385 C   0  0  0  0  0  0  0  0  0  0  0  0
   26.7239  -24.6153  -15.1233 O   0  0  0  0  0  0  0  0  0  0  0  0
   26.0663  -22.6935  -16.2106 N   0  0  0  0  0  0  0  0  0  0  0  0
   26.4332  -21.7751  -15.2036 C   0  0  1  0  0  0  0  0  0  0  0  0
   27.0592  -20.4678  -15.6504 C   0  0  0  0  0  0  0  0  0  0  0  0
   28.1102  -20.6474  -16.6711 C   0  0  0  0  0  0  0  0  0  0  0  0
   29.4113  -21.1065  -16.4692 C   0  0  0  0  0  0  0  0  0  0  0  0
   30.0330  -21.1191  -17.6592 N   0  0  0  0  0  0  0  0  0  0  0  0
   29.1826  -20.6892  -18.5972 C   0  0  0  0  0  0  0  0  0  0  0  0
   28.0251  -20.4097  -17.9745 N   0  0  0  0  0  0  0  0  0  0  0  0
   25.5091  -21.5479  -14.1063 C   0  0  0  0  0  0  0  0  0  0  0  0
   24.2924  -21.3204  -14.4405 O   0  0  0  0  0  0  0  0  0  0  0  0
   25.8347  -21.5567  -12.7339 N   0  0  0  0  0  0  0  0  0  0  0  0
   24.8027  -21.3625  -11.7206 C   0  0  1  0  0  0  0  0  0  0  0  0
   25.2605  -21.9114  -10.3920 C   0  0  0  0  0  0  0  0  0  0  0  0
   26.2386  -20.9821   -9.7948 C   0  0  0  0  0  0  0  0  0  0  0  0
   25.8263  -19.8675   -9.0483 C   0  0  0  0  0  0  0  0  0  0  0  0
   26.9442  -19.2792   -8.6169 N   0  0  0  0  0  0  0  0  0  0  0  0
   28.0225  -19.9503   -9.0439 C   0  0  0  0  0  0  0  0  0  0  0  0
   29.3821  -19.7822   -8.9030 C   0  0  0  0  0  0  0  0  0  0  0  0
   30.2767  -20.6494   -9.4816 C   0  0  0  0  0  0  0  0  0  0  0  0
   29.8376  -21.7317  -10.2332 C   0  0  0  0  0  0  0  0  0  0  0  0
   28.4777  -21.9097  -10.3806 C   0  0  0  0  0  0  0  0  0  0  0  0
   27.5938  -21.0389   -9.7976 C   0  0  0  0  0  0  0  0  0  0  0  0
   24.2815  -19.9973  -11.7061 C   0  0  0  0  0  0  0  0  0  0  0  0
   24.9557  -18.9353  -12.2504 O   0  0  0  0  0  0  0  0  0  0  0  0
   23.1574  -19.7453  -11.1682 O   0  0  0  0  0  0  0  0  0  0  0  0
  1  2  1  0
  2  3  1  0
  3  4  2  0
  5  3  1  0
  5  6  1  0
  6 13  1  0
  6  7  1  6
  8  7  1  0
  9  8  2  0
 10  9  1  0
 11 10  1  0
 11 12  2  0
 12  8  1  0
 13 14  2  0
 15 16  1  0
 15 13  1  0
 16 27  1  0
 16 17  1  1
 18 17  1  0
 18 19  2  0
 20 19  1  0
 21 20  1  0
 22 21  2  0
 23 22  1  0
 24 23  2  0
 24 25  1  0
 25 26  2  0
 26 21  1  0
 26 18  1  0
 27 29  2  0
 27 28  1  0
M  END
$$$$
