LFC.pdb
     RDKit          3D

 26 26  0  0  1  0  0  0  0  0999 V2000
    8.6862  -15.6463   16.1802 C   0  0  0  0  0  0  0  0  0  0  0  0
    8.6760  -16.4959   17.4298 C   0  0  1  0  0  0  0  0  0  0  0  0
    9.5457  -17.7222   17.2482 C   0  0  0  0  0  0  0  0  0  0  0  0
    9.1301  -15.7185   18.6520 C   0  0  0  0  0  0  0  0  0  0  0  0
    9.0133  -16.6637   19.8309 C   0  0  2  0  0  0  0  0  0  0  0  0
    7.7215  -17.3153   19.7594 N   0  0  0  0  0  0  0  0  0  0  0  0
    9.1455  -15.9901   21.1191 C   0  0  0  0  0  0  0  0  0  0  0  0
   10.2036  -15.3691   21.3948 O   0  0  0  0  0  0  0  0  0  0  0  0
    8.1352  -15.9806   22.1229 N   0  0  0  0  0  0  0  0  0  0  0  0
    8.2884  -15.2974   23.3839 C   0  0  1  0  0  0  0  0  0  0  0  0
    6.9631  -14.8058   23.9259 C   0  0  0  0  0  0  0  0  0  0  0  0
    7.1294  -14.0152   25.1631 C   0  0  0  0  0  0  0  0  0  0  0  0
    7.5447  -12.7056   25.0706 C   0  0  0  0  0  0  0  0  0  0  0  0
    7.7245  -11.9003   26.1718 C   0  0  0  0  0  0  0  0  0  0  0  0
    7.4885  -12.3918   27.4378 C   0  0  0  0  0  0  0  0  0  0  0  0
    7.0721  -13.6997   27.5566 C   0  0  0  0  0  0  0  0  0  0  0  0
    6.8959  -14.4967   26.4386 C   0  0  0  0  0  0  0  0  0  0  0  0
    8.8681  -16.2018   24.4048 C   0  0  0  0  0  0  0  0  0  0  0  0
    8.3058  -17.3002   24.6183 O   0  0  0  0  0  0  0  0  0  0  0  0
   10.0296  -15.8842   25.1528 N   0  0  0  0  0  0  0  0  0  0  0  0
   10.5793  -16.8826   26.0556 C   0  0  1  0  0  0  0  0  0  0  0  0
   12.1041  -16.8356   25.9034 C   0  0  0  0  0  0  0  0  0  0  0  0
   12.5247  -17.4319   24.2398 S   0  0  0  0  0  0  0  0  0  0  0  0
   10.2953  -16.5187   27.4628 C   0  0  0  0  0  0  0  0  0  0  0  0
   10.6636  -17.3171   28.5252 O   0  0  0  0  0  0  0  0  0  0  0  0
    9.6950  -15.4393   27.6944 O   0  0  0  0  0  0  0  0  0  0  0  0
  2  1  1  6
  2  4  1  0
  3  2  1  0
  4  5  1  0
  5  6  1  1
  7  9  1  0
  7  5  1  0
  8  7  2  0
 10  9  1  0
 11 12  1  0
 10 11  1  1
 12 13  2  0
 12 17  1  0
 13 14  1  0
 14 15  2  0
 16 15  1  0
 17 16  2  0
 18 20  1  0
 18 10  1  0
 19 18  2  0
 21 20  1  0
 21 24  1  0
 22 23  1  0
 21 22  1  1
 24 25  1  0
 26 24  2  0
M  END
$$$$
