LFC.pdb
     RDKit          3D

 26 26  0  0  1  0  0  0  0  0999 V2000
    7.5624  -12.2545   18.9846 C   0  0  0  0  0  0  0  0  0  0  0  0
    7.7247  -13.6252   19.5998 C   0  0  1  0  0  0  0  0  0  0  0  0
    8.3582  -14.5818   18.6115 C   0  0  0  0  0  0  0  0  0  0  0  0
    8.5455  -13.5842   20.8760 C   0  0  0  0  0  0  0  0  0  0  0  0
    8.5702  -14.9997   21.4172 C   0  0  2  0  0  0  0  0  0  0  0  0
    7.2155  -15.5122   21.3995 N   0  0  0  0  0  0  0  0  0  0  0  0
    9.1024  -15.0839   22.7737 C   0  0  0  0  0  0  0  0  0  0  0  0
   10.2563  -14.6496   23.0213 O   0  0  0  0  0  0  0  0  0  0  0  0
    8.3930  -15.6386   23.8771 N   0  0  0  0  0  0  0  0  0  0  0  0
    8.9188  -15.6543   25.2200 C   0  0  1  0  0  0  0  0  0  0  0  0
    7.8268  -15.5014   26.2573 C   0  0  0  0  0  0  0  0  0  0  0  0
    7.2854  -14.1270   26.2934 C   0  0  0  0  0  0  0  0  0  0  0  0
    8.0926  -13.1003   26.7301 C   0  0  0  0  0  0  0  0  0  0  0  0
    7.6676  -11.7931   26.7949 C   0  0  0  0  0  0  0  0  0  0  0  0
    6.3853  -11.4599   26.4145 C   0  0  0  0  0  0  0  0  0  0  0  0
    5.5583  -12.4697   25.9738 C   0  0  0  0  0  0  0  0  0  0  0  0
    6.0012  -13.7799   25.9146 C   0  0  0  0  0  0  0  0  0  0  0  0
    9.6088  -16.9358   25.4995 C   0  0  0  0  0  0  0  0  0  0  0  0
    9.5926  -17.3800   26.6703 O   0  0  0  0  0  0  0  0  0  0  0  0
   10.2872  -17.6846   24.5053 N   0  0  0  0  0  0  0  0  0  0  0  0
   10.9987  -18.8907   24.8967 C   0  0  1  0  0  0  0  0  0  0  0  0
   10.8266  -19.9036   23.7587 C   0  0  0  0  0  0  0  0  0  0  0  0
   11.0473  -19.0266   22.1833 S   0  0  0  0  0  0  0  0  0  0  0  0
   12.4523  -18.6245   24.9937 C   0  0  0  0  0  0  0  0  0  0  0  0
   13.0121  -17.4176   24.6308 O   0  0  0  0  0  0  0  0  0  0  0  0
   13.2024  -19.5363   25.4241 O   0  0  0  0  0  0  0  0  0  0  0  0
  2  1  1  6
  2  4  1  0
  3  2  1  0
  4  5  1  0
  5  6  1  1
  7  9  1  0
  7  5  1  0
  8  7  2  0
 10  9  1  0
 11 12  1  0
 10 11  1  1
 12 13  2  0
 12 17  1  0
 13 14  1  0
 14 15  2  0
 16 15  1  0
 17 16  2  0
 18 20  1  0
 18 10  1  0
 19 18  2  0
 21 20  1  0
 21 24  1  0
 22 23  1  0
 21 22  1  6
 24 25  1  0
 26 24  2  0
M  END
$$$$
