LFC.pdb
     RDKit          3D

 26 26  0  0  1  0  0  0  0  0999 V2000
    7.6664  -20.6122   19.2794 C   0  0  0  0  0  0  0  0  0  0  0  0
    8.0544  -19.1574   19.1499 C   0  0  1  0  0  0  0  0  0  0  0  0
    6.9141  -18.3514   18.5641 C   0  0  0  0  0  0  0  0  0  0  0  0
    8.4787  -18.5596   20.4791 C   0  0  0  0  0  0  0  0  0  0  0  0
    8.8146  -17.1065   20.2095 C   0  0  2  0  0  0  0  0  0  0  0  0
   10.0197  -17.0644   19.4068 N   0  0  0  0  0  0  0  0  0  0  0  0
    9.0176  -16.3309   21.4293 C   0  0  0  0  0  0  0  0  0  0  0  0
   10.1370  -16.3469   22.0020 O   0  0  0  0  0  0  0  0  0  0  0  0
    8.0126  -15.5298   22.0430 N   0  0  0  0  0  0  0  0  0  0  0  0
    8.1995  -14.8743   23.3141 C   0  0  1  0  0  0  0  0  0  0  0  0
    7.0659  -13.9225   23.6320 C   0  0  0  0  0  0  0  0  0  0  0  0
    7.2142  -13.3114   24.9692 C   0  0  0  0  0  0  0  0  0  0  0  0
    6.2390  -13.5287   25.9169 C   0  0  0  0  0  0  0  0  0  0  0  0
    6.2994  -12.9975   27.1848 C   0  0  0  0  0  0  0  0  0  0  0  0
    7.3669  -12.2091   27.5577 C   0  0  0  0  0  0  0  0  0  0  0  0
    8.3557  -11.9770   26.6269 C   0  0  0  0  0  0  0  0  0  0  0  0
    8.2800  -12.5189   25.3553 C   0  0  0  0  0  0  0  0  0  0  0  0
    8.2569  -15.8662   24.4137 C   0  0  0  0  0  0  0  0  0  0  0  0
    7.2296  -16.5355   24.6687 O   0  0  0  0  0  0  0  0  0  0  0  0
    9.4192  -16.0949   25.1923 N   0  0  0  0  0  0  0  0  0  0  0  0
    9.3736  -17.0952   26.2466 C   0  0  1  0  0  0  0  0  0  0  0  0
   10.1688  -18.3083   25.7502 C   0  0  0  0  0  0  0  0  0  0  0  0
   11.8076  -17.7314   25.2199 S   0  0  0  0  0  0  0  0  0  0  0  0
   10.0799  -16.6064   27.4531 C   0  0  0  0  0  0  0  0  0  0  0  0
   10.6886  -15.3702   27.5076 O   0  0  0  0  0  0  0  0  0  0  0  0
   10.1244  -17.3499   28.4653 O   0  0  0  0  0  0  0  0  0  0  0  0
  2  1  1  1
  2  4  1  0
  3  2  1  0
  4  5  1  0
  5  6  1  6
  7  9  1  0
  7  5  1  0
  8  7  2  0
 10  9  1  0
 11 12  1  0
 10 11  1  1
 12 13  2  0
 12 17  1  0
 13 14  1  0
 14 15  2  0
 16 15  1  0
 17 16  2  0
 18 20  1  0
 18 10  1  0
 19 18  2  0
 21 20  1  0
 21 24  1  0
 22 23  1  0
 21 22  1  6
 24 25  1  0
 26 24  2  0
M  END
$$$$
