LFC.pdb
     RDKit          3D

 26 26  0  0  1  0  0  0  0  0999 V2000
    7.5928  -12.2626   18.8275 C   0  0  0  0  0  0  0  0  0  0  0  0
    7.8867  -13.6705   19.2913 C   0  0  1  0  0  0  0  0  0  0  0  0
    8.6386  -14.4376   18.2239 C   0  0  0  0  0  0  0  0  0  0  0  0
    8.6719  -13.6910   20.5903 C   0  0  0  0  0  0  0  0  0  0  0  0
    8.5912  -15.1090   21.1193 C   0  0  2  0  0  0  0  0  0  0  0  0
    7.2208  -15.5603   20.9905 N   0  0  0  0  0  0  0  0  0  0  0  0
    9.0102  -15.2240   22.5128 C   0  0  0  0  0  0  0  0  0  0  0  0
   10.1688  -14.8692   22.8492 O   0  0  0  0  0  0  0  0  0  0  0  0
    8.1812  -15.7237   23.5575 N   0  0  0  0  0  0  0  0  0  0  0  0
    8.5698  -15.7011   24.9463 C   0  0  1  0  0  0  0  0  0  0  0  0
    7.3822  -15.4988   25.8631 C   0  0  0  0  0  0  0  0  0  0  0  0
    7.1022  -14.0673   26.0995 C   0  0  0  0  0  0  0  0  0  0  0  0
    5.8139  -13.6036   25.9533 C   0  0  0  0  0  0  0  0  0  0  0  0
    5.4675  -12.2871   26.1542 C   0  0  0  0  0  0  0  0  0  0  0  0
    6.4249  -11.3646   26.5182 C   0  0  0  0  0  0  0  0  0  0  0  0
    7.7217  -11.8042   26.6708 C   0  0  0  0  0  0  0  0  0  0  0  0
    8.0537  -13.1323   26.4650 C   0  0  0  0  0  0  0  0  0  0  0  0
    9.2071  -16.9814   25.3349 C   0  0  0  0  0  0  0  0  0  0  0  0
    8.6188  -18.0508   25.0544 O   0  0  0  0  0  0  0  0  0  0  0  0
   10.4516  -17.0553   26.0094 N   0  0  0  0  0  0  0  0  0  0  0  0
   11.0039  -18.3628   26.3248 C   0  0  1  0  0  0  0  0  0  0  0  0
   12.5159  -18.2821   26.0848 C   0  0  0  0  0  0  0  0  0  0  0  0
   12.7883  -17.7427   24.3718 S   0  0  0  0  0  0  0  0  0  0  0  0
   10.8317  -18.6626   27.7648 C   0  0  0  0  0  0  0  0  0  0  0  0
   11.2260  -19.8586   28.3268 O   0  0  0  0  0  0  0  0  0  0  0  0
   10.3051  -17.7907   28.5009 O   0  0  0  0  0  0  0  0  0  0  0  0
  2  1  1  6
  2  4  1  0
  3  2  1  0
  4  5  1  0
  5  6  1  1
  7  9  1  0
  7  5  1  0
  8  7  2  0
 10  9  1  0
 11 12  1  0
 10 11  1  1
 12 13  2  0
 12 17  1  0
 13 14  1  0
 14 15  2  0
 16 15  1  0
 17 16  2  0
 18 20  1  0
 18 10  1  0
 19 18  2  0
 21 20  1  0
 21 24  1  0
 22 23  1  0
 21 22  1  1
 24 25  1  0
 26 24  2  0
M  END
$$$$
