LFC.pdb
     RDKit          3D

 26 26  0  0  1  0  0  0  0  0999 V2000
   37.7654 -137.0809    2.1352 C   0  0  0  0  0  0  0  0  0  0  0  0
   38.4050 -137.4459    3.4548 C   0  0  1  0  0  0  0  0  0  0  0  0
   38.5345 -136.2245    4.3406 C   0  0  0  0  0  0  0  0  0  0  0  0
   37.6322 -138.5309    4.1826 C   0  0  0  0  0  0  0  0  0  0  0  0
   36.9691 -139.3770    3.1142 C   0  0  2  0  0  0  0  0  0  0  0  0
   35.5341 -139.2674    3.2794 N   0  0  0  0  0  0  0  0  0  0  0  0
   37.3578 -140.7826    3.1751 C   0  0  0  0  0  0  0  0  0  0  0  0
   37.2413 -141.5088    2.1551 O   0  0  0  0  0  0  0  0  0  0  0  0
   37.8766 -141.4182    4.3392 N   0  0  0  0  0  0  0  0  0  0  0  0
   39.1471 -142.1006    4.3604 C   0  0  1  0  0  0  0  0  0  0  0  0
   40.0500 -141.5819    5.4592 C   0  0  0  0  0  0  0  0  0  0  0  0
   39.7355 -142.1906    6.7684 C   0  0  0  0  0  0  0  0  0  0  0  0
   38.4865 -141.9964    7.3148 C   0  0  0  0  0  0  0  0  0  0  0  0
   38.1122 -142.5271    8.5279 C   0  0  0  0  0  0  0  0  0  0  0  0
   38.9993 -143.2913    9.2553 C   0  0  0  0  0  0  0  0  0  0  0  0
   40.2554 -143.5001    8.7296 C   0  0  0  0  0  0  0  0  0  0  0  0
   40.6165 -142.9590    7.5077 C   0  0  0  0  0  0  0  0  0  0  0  0
   38.9607 -143.5515    4.5983 C   0  0  0  0  0  0  0  0  0  0  0  0
   39.1004 -143.9885    5.7635 O   0  0  0  0  0  0  0  0  0  0  0  0
   38.6317 -144.4703    3.5702 N   0  0  0  0  0  0  0  0  0  0  0  0
   37.6450 -144.0866    2.5736 C   0  0  1  0  0  0  0  0  0  0  0  0
   36.2981 -143.9687    3.2963 C   0  0  0  0  0  0  0  0  0  0  0  0
   35.2122 -145.2914    2.6874 S   0  0  0  0  0  0  0  0  0  0  0  0
   37.9457 -142.7375    2.0417 C   0  0  0  0  0  0  0  0  0  0  0  0
   39.2283 -142.3226    1.7511 O   0  0  0  0  0  0  0  0  0  0  0  0
   36.9923 -141.9420    1.8488 O   0  0  0  0  0  0  0  0  0  0  0  0
  2  1  1  6
  2  4  1  0
  3  2  1  0
  4  5  1  0
  5  6  1  1
  7  9  1  0
  7  5  1  0
  8  7  2  0
 10  9  1  0
 11 12  1  0
 10 11  1  1
 12 13  2  0
 12 17  1  0
 13 14  1  0
 14 15  2  0
 16 15  1  0
 17 16  2  0
 18 20  1  0
 18 10  1  0
 19 18  2  0
 21 20  1  0
 21 24  1  0
 22 23  1  0
 21 22  1  1
 24 25  1  0
 26 24  2  0
M  END
$$$$
