LFC.pdb
     RDKit          3D

 26 26  0  0  1  0  0  0  0  0999 V2000
    8.4749  -20.9607   19.5099 C   0  0  0  0  0  0  0  0  0  0  0  0
    8.2199  -19.4757   19.3952 C   0  0  1  0  0  0  0  0  0  0  0  0
    6.7333  -19.1920   19.3450 C   0  0  0  0  0  0  0  0  0  0  0  0
    8.8548  -18.6982   20.5338 C   0  0  0  0  0  0  0  0  0  0  0  0
    8.5125  -17.2400   20.3024 C   0  0  2  0  0  0  0  0  0  0  0  0
    9.3184  -16.7579   19.1994 N   0  0  0  0  0  0  0  0  0  0  0  0
    8.7478  -16.4044   21.4758 C   0  0  0  0  0  0  0  0  0  0  0  0
    9.9186  -16.0500   21.7672 O   0  0  0  0  0  0  0  0  0  0  0  0
    7.7198  -15.9428   22.3468 N   0  0  0  0  0  0  0  0  0  0  0  0
    7.9831  -15.1357   23.5128 C   0  0  1  0  0  0  0  0  0  0  0  0
    6.7383  -14.4276   24.0038 C   0  0  0  0  0  0  0  0  0  0  0  0
    7.0076  -13.5954   25.1948 C   0  0  0  0  0  0  0  0  0  0  0  0
    6.8151  -14.1354   26.4468 C   0  0  0  0  0  0  0  0  0  0  0  0
    7.0419  -13.4301   27.6064 C   0  0  0  0  0  0  0  0  0  0  0  0
    7.4812  -12.1247   27.5509 C   0  0  0  0  0  0  0  0  0  0  0  0
    7.6813  -11.5619   26.3094 C   0  0  0  0  0  0  0  0  0  0  0  0
    7.4484  -12.2851   25.1522 C   0  0  0  0  0  0  0  0  0  0  0  0
    8.4778  -15.9729   24.6311 C   0  0  0  0  0  0  0  0  0  0  0  0
    7.7866  -16.9515   24.9959 O   0  0  0  0  0  0  0  0  0  0  0  0
    9.6967  -15.7203   25.3092 N   0  0  0  0  0  0  0  0  0  0  0  0
   10.2483  -16.7525   26.1721 C   0  0  1  0  0  0  0  0  0  0  0  0
   11.6432  -17.0908   25.6334 C   0  0  0  0  0  0  0  0  0  0  0  0
   12.5713  -15.5397   25.4537 S   0  0  0  0  0  0  0  0  0  0  0  0
   10.4529  -16.2261   27.5411 C   0  0  0  0  0  0  0  0  0  0  0  0
   10.1755  -14.9194   27.8836 O   0  0  0  0  0  0  0  0  0  0  0  0
   10.8969  -17.0034   28.4232 O   0  0  0  0  0  0  0  0  0  0  0  0
  2  1  1  1
  2  4  1  0
  3  2  1  0
  4  5  1  0
  5  6  1  6
  7  9  1  0
  7  5  1  0
  8  7  2  0
 10  9  1  0
 11 12  1  0
 10 11  1  1
 12 13  2  0
 12 17  1  0
 13 14  1  0
 14 15  2  0
 16 15  1  0
 17 16  2  0
 18 20  1  0
 18 10  1  0
 19 18  2  0
 21 20  1  0
 21 24  1  0
 22 23  1  0
 21 22  1  6
 24 25  1  0
 26 24  2  0
M  END
$$$$
