LFC.pdb
     RDKit          3D

 26 26  0  0  1  0  0  0  0  0999 V2000
    7.4278  -15.3883   17.7051 C   0  0  0  0  0  0  0  0  0  0  0  0
    8.3256  -14.1874   17.8930 C   0  0  1  0  0  0  0  0  0  0  0  0
    7.5128  -12.9685   18.2761 C   0  0  0  0  0  0  0  0  0  0  0  0
    9.4020  -14.4370   18.9339 C   0  0  0  0  0  0  0  0  0  0  0  0
    8.8011  -15.3811   19.9560 C   0  0  2  0  0  0  0  0  0  0  0  0
    7.3780  -15.4735   19.7017 N   0  0  0  0  0  0  0  0  0  0  0  0
    9.0202  -14.9478   21.3326 C   0  0  0  0  0  0  0  0  0  0  0  0
    9.9401  -14.1309   21.5926 O   0  0  0  0  0  0  0  0  0  0  0  0
    8.2471  -15.3932   22.4428 N   0  0  0  0  0  0  0  0  0  0  0  0
    8.5425  -15.0206   23.8045 C   0  0  1  0  0  0  0  0  0  0  0  0
    7.2840  -14.7994   24.6164 C   0  0  0  0  0  0  0  0  0  0  0  0
    7.5507  -14.0406   25.8560 C   0  0  0  0  0  0  0  0  0  0  0  0
    8.0371  -14.7075   26.9582 C   0  0  0  0  0  0  0  0  0  0  0  0
    8.3120  -14.0775   28.1502 C   0  0  0  0  0  0  0  0  0  0  0  0
    8.1036  -12.7214   28.2834 C   0  0  0  0  0  0  0  0  0  0  0  0
    7.6172  -12.0318   27.1944 C   0  0  0  0  0  0  0  0  0  0  0  0
    7.3458  -12.6805   26.0021 C   0  0  0  0  0  0  0  0  0  0  0  0
    9.3181  -16.0849   24.4843 C   0  0  0  0  0  0  0  0  0  0  0  0
    8.8399  -17.2417   24.5211 O   0  0  0  0  0  0  0  0  0  0  0  0
   10.5766  -15.8576   25.0958 N   0  0  0  0  0  0  0  0  0  0  0  0
   11.3379  -16.9967   25.5825 C   0  0  1  0  0  0  0  0  0  0  0  0
   12.7799  -16.8153   25.0946 C   0  0  0  0  0  0  0  0  0  0  0  0
   13.3475  -15.1680   25.6084 S   0  0  0  0  0  0  0  0  0  0  0  0
   11.3997  -16.9825   27.0621 C   0  0  0  0  0  0  0  0  0  0  0  0
   10.8015  -15.9986   27.8210 O   0  0  0  0  0  0  0  0  0  0  0  0
   12.0224  -17.9048   27.6460 O   0  0  0  0  0  0  0  0  0  0  0  0
  2  1  1  1
  2  4  1  0
  3  2  1  0
  4  5  1  0
  5  6  1  6
  7  9  1  0
  7  5  1  0
  8  7  2  0
 10  9  1  0
 11 12  1  0
 10 11  1  1
 12 13  2  0
 12 17  1  0
 13 14  1  0
 14 15  2  0
 16 15  1  0
 17 16  2  0
 18 20  1  0
 18 10  1  0
 19 18  2  0
 21 20  1  0
 21 24  1  0
 22 23  1  0
 21 22  1  6
 24 25  1  0
 26 24  2  0
M  END
$$$$
