LFC.pdb
     RDKit          3D

 26 26  0  0  1  0  0  0  0  0999 V2000
    8.1160  -12.4221   18.9983 C   0  0  0  0  0  0  0  0  0  0  0  0
    8.1001  -13.9332   18.9960 C   0  0  1  0  0  0  0  0  0  0  0  0
    7.3833  -14.4573   17.7694 C   0  0  0  0  0  0  0  0  0  0  0  0
    9.4990  -14.5185   19.0649 C   0  0  0  0  0  0  0  0  0  0  0  0
    9.4363  -15.6677   20.0510 C   0  0  2  0  0  0  0  0  0  0  0  0
    8.2293  -16.4235   19.7855 N   0  0  0  0  0  0  0  0  0  0  0  0
    9.4361  -15.2275   21.4427 C   0  0  0  0  0  0  0  0  0  0  0  0
   10.4389  -14.6301   21.9103 O   0  0  0  0  0  0  0  0  0  0  0  0
    8.3516  -15.4285   22.3438 N   0  0  0  0  0  0  0  0  0  0  0  0
    8.3719  -14.9688   23.7108 C   0  0  1  0  0  0  0  0  0  0  0  0
    7.0379  -14.3911   24.1335 C   0  0  0  0  0  0  0  0  0  0  0  0
    7.1294  -13.6689   25.4194 C   0  0  0  0  0  0  0  0  0  0  0  0
    6.5264  -14.2069   26.5343 C   0  0  0  0  0  0  0  0  0  0  0  0
    6.5634  -13.6000   27.7687 C   0  0  0  0  0  0  0  0  0  0  0  0
    7.2234  -12.4012   27.9338 C   0  0  0  0  0  0  0  0  0  0  0  0
    7.8348  -11.8425   26.8329 C   0  0  0  0  0  0  0  0  0  0  0  0
    7.7883  -12.4659   25.5978 C   0  0  0  0  0  0  0  0  0  0  0  0
    8.6760  -16.0855   24.6365 C   0  0  0  0  0  0  0  0  0  0  0  0
    8.2720  -17.2334   24.3408 O   0  0  0  0  0  0  0  0  0  0  0  0
    9.4027  -15.9179   25.8420 N   0  0  0  0  0  0  0  0  0  0  0  0
    9.9207  -17.0952   26.5202 C   0  0  1  0  0  0  0  0  0  0  0  0
   11.1360  -17.5771   25.7194 C   0  0  0  0  0  0  0  0  0  0  0  0
   11.9457  -18.9014   26.6631 S   0  0  0  0  0  0  0  0  0  0  0  0
   10.4300  -16.7352   27.8634 C   0  0  0  0  0  0  0  0  0  0  0  0
   10.4437  -17.6261   28.9158 O   0  0  0  0  0  0  0  0  0  0  0  0
   10.8661  -15.5711   28.0481 O   0  0  0  0  0  0  0  0  0  0  0  0
  2  1  1  6
  2  4  1  0
  3  2  1  0
  4  5  1  0
  5  6  1  6
  7  9  1  0
  7  5  1  0
  8  7  2  0
 10  9  1  0
 11 12  1  0
 10 11  1  1
 12 13  2  0
 12 17  1  0
 13 14  1  0
 14 15  2  0
 16 15  1  0
 17 16  2  0
 18 20  1  0
 18 10  1  0
 19 18  2  0
 21 20  1  0
 21 24  1  0
 22 23  1  0
 21 22  1  6
 24 25  1  0
 26 24  2  0
M  END
$$$$
