LFC.pdb
     RDKit          3D

 26 26  0  0  1  0  0  0  0  0999 V2000
   10.7946  -20.9553   20.1669 C   0  0  0  0  0  0  0  0  0  0  0  0
   10.1011  -19.6319   19.9404 C   0  0  1  0  0  0  0  0  0  0  0  0
    8.6183  -19.8386   19.7133 C   0  0  0  0  0  0  0  0  0  0  0  0
   10.3165  -18.6700   21.0949 C   0  0  0  0  0  0  0  0  0  0  0  0
    9.5707  -17.3991   20.7406 C   0  0  2  0  0  0  0  0  0  0  0  0
   10.2113  -16.8088   19.5832 N   0  0  0  0  0  0  0  0  0  0  0  0
    9.5475  -16.4275   21.8297 C   0  0  0  0  0  0  0  0  0  0  0  0
   10.5988  -15.8125   22.1422 O   0  0  0  0  0  0  0  0  0  0  0  0
    8.3873  -16.1103   22.5926 N   0  0  0  0  0  0  0  0  0  0  0  0
    8.4084  -15.1997   23.7109 C   0  0  1  0  0  0  0  0  0  0  0  0
    7.0313  -14.6532   24.0217 C   0  0  0  0  0  0  0  0  0  0  0  0
    7.0309  -13.8090   25.2346 C   0  0  0  0  0  0  0  0  0  0  0  0
    7.6701  -12.5898   25.2023 C   0  0  0  0  0  0  0  0  0  0  0  0
    7.7173  -11.7433   26.2862 C   0  0  0  0  0  0  0  0  0  0  0  0
    7.1098  -12.0980   27.4716 C   0  0  0  0  0  0  0  0  0  0  0  0
    6.4637  -13.3134   27.5289 C   0  0  0  0  0  0  0  0  0  0  0  0
    6.4253  -14.1536   26.4294 C   0  0  0  0  0  0  0  0  0  0  0  0
    8.8932  -15.8809   24.9345 C   0  0  0  0  0  0  0  0  0  0  0  0
    8.2806  -16.8971   25.3350 O   0  0  0  0  0  0  0  0  0  0  0  0
   10.0178  -15.4382   25.6751 N   0  0  0  0  0  0  0  0  0  0  0  0
   10.4490  -16.2115   26.8285 C   0  0  1  0  0  0  0  0  0  0  0  0
   11.9595  -16.4302   26.6840 C   0  0  0  0  0  0  0  0  0  0  0  0
   12.2780  -17.0961   25.0243 S   0  0  0  0  0  0  0  0  0  0  0  0
   10.2640  -15.4299   28.0728 C   0  0  0  0  0  0  0  0  0  0  0  0
   10.5179  -15.9532   29.3232 O   0  0  0  0  0  0  0  0  0  0  0  0
    9.8595  -14.2436   27.9822 O   0  0  0  0  0  0  0  0  0  0  0  0
  2  1  1  1
  2  4  1  0
  3  2  1  0
  4  5  1  0
  5  6  1  6
  7  9  1  0
  7  5  1  0
  8  7  2  0
 10  9  1  0
 11 12  1  0
 10 11  1  1
 12 13  2  0
 12 17  1  0
 13 14  1  0
 14 15  2  0
 16 15  1  0
 17 16  2  0
 18 20  1  0
 18 10  1  0
 19 18  2  0
 21 20  1  0
 21 24  1  0
 22 23  1  0
 21 22  1  6
 24 25  1  0
 26 24  2  0
M  END
$$$$
