LFC.pdb
     RDKit          3D

 26 26  0  0  1  0  0  0  0  0999 V2000
   11.3956  -19.0617   17.8883 C   0  0  0  0  0  0  0  0  0  0  0  0
   10.3628  -19.0688   18.9914 C   0  0  1  0  0  0  0  0  0  0  0  0
   10.3125  -20.4235   19.6663 C   0  0  0  0  0  0  0  0  0  0  0  0
   10.6241  -17.9877   20.0245 C   0  0  0  0  0  0  0  0  0  0  0  0
    9.5029  -18.0831   21.0398 C   0  0  2  0  0  0  0  0  0  0  0  0
    8.2437  -17.9843   20.3306 N   0  0  0  0  0  0  0  0  0  0  0  0
    9.5666  -17.0424   22.0613 C   0  0  0  0  0  0  0  0  0  0  0  0
   10.5221  -16.2249   22.0630 O   0  0  0  0  0  0  0  0  0  0  0  0
    8.5981  -16.8743   23.0919 N   0  0  0  0  0  0  0  0  0  0  0  0
    8.6480  -15.7948   24.0471 C   0  0  1  0  0  0  0  0  0  0  0  0
    7.2663  -15.2858   24.3986 C   0  0  0  0  0  0  0  0  0  0  0  0
    7.3201  -14.0978   25.2757 C   0  0  0  0  0  0  0  0  0  0  0  0
    7.0518  -14.2437   26.6184 C   0  0  0  0  0  0  0  0  0  0  0  0
    7.0799  -13.1905   27.5036 C   0  0  0  0  0  0  0  0  0  0  0  0
    7.3859  -11.9208   27.0631 C   0  0  0  0  0  0  0  0  0  0  0  0
    7.6583  -11.7491   25.7235 C   0  0  0  0  0  0  0  0  0  0  0  0
    7.6257  -12.8191   24.8459 C   0  0  0  0  0  0  0  0  0  0  0  0
    9.2829  -16.2394   25.3102 C   0  0  0  0  0  0  0  0  0  0  0  0
    8.9246  -17.3319   25.8067 O   0  0  0  0  0  0  0  0  0  0  0  0
   10.2773  -15.4878   25.9852 N   0  0  0  0  0  0  0  0  0  0  0  0
   11.0282  -16.1190   27.0585 C   0  0  1  0  0  0  0  0  0  0  0  0
   12.3418  -15.3424   27.2055 C   0  0  0  0  0  0  0  0  0  0  0  0
   13.1951  -15.3663   25.6021 S   0  0  0  0  0  0  0  0  0  0  0  0
   10.3143  -15.9669   28.3471 C   0  0  0  0  0  0  0  0  0  0  0  0
   10.7736  -16.5259   29.5211 O   0  0  0  0  0  0  0  0  0  0  0  0
    9.2483  -15.3017   28.3681 O   0  0  0  0  0  0  0  0  0  0  0  0
  2  1  1  6
  2  4  1  0
  3  2  1  0
  4  5  1  0
  5  6  1  6
  7  9  1  0
  7  5  1  0
  8  7  2  0
 10  9  1  0
 11 12  1  0
 10 11  1  1
 12 13  2  0
 12 17  1  0
 13 14  1  0
 14 15  2  0
 16 15  1  0
 17 16  2  0
 18 20  1  0
 18 10  1  0
 19 18  2  0
 21 20  1  0
 21 24  1  0
 22 23  1  0
 21 22  1  1
 24 25  1  0
 26 24  2  0
M  END
$$$$
