LFC.pdb
     RDKit          3D

 26 26  0  0  1  0  0  0  0  0999 V2000
    9.2530  -20.2512   19.0511 C   0  0  0  0  0  0  0  0  0  0  0  0
    8.6580  -18.8708   18.8961 C   0  0  1  0  0  0  0  0  0  0  0  0
    7.2043  -18.8659   19.3202 C   0  0  0  0  0  0  0  0  0  0  0  0
    9.4280  -17.8259   19.6832 C   0  0  0  0  0  0  0  0  0  0  0  0
    8.4191  -16.7781   20.1088 C   0  0  2  0  0  0  0  0  0  0  0  0
    8.4510  -15.7023   19.1394 N   0  0  0  0  0  0  0  0  0  0  0  0
    8.6815  -16.2391   21.4397 C   0  0  0  0  0  0  0  0  0  0  0  0
    9.8234  -15.7934   21.7203 O   0  0  0  0  0  0  0  0  0  0  0  0
    7.7123  -16.1761   22.4814 N   0  0  0  0  0  0  0  0  0  0  0  0
    8.0090  -15.6718   23.7997 C   0  0  1  0  0  0  0  0  0  0  0  0
    6.7552  -15.2725   24.5483 C   0  0  0  0  0  0  0  0  0  0  0  0
    6.9618  -14.0609   25.3686 C   0  0  0  0  0  0  0  0  0  0  0  0
    8.2042  -13.8247   25.9134 C   0  0  0  0  0  0  0  0  0  0  0  0
    8.4815  -12.7221   26.6886 C   0  0  0  0  0  0  0  0  0  0  0  0
    7.4979  -11.7930   26.9521 C   0  0  0  0  0  0  0  0  0  0  0  0
    6.2462  -12.0072   26.4181 C   0  0  0  0  0  0  0  0  0  0  0  0
    5.9835  -13.1217   25.6401 C   0  0  0  0  0  0  0  0  0  0  0  0
    8.6936  -16.7026   24.6152 C   0  0  0  0  0  0  0  0  0  0  0  0
    8.0490  -17.7213   24.9542 O   0  0  0  0  0  0  0  0  0  0  0  0
   10.0443  -16.5921   25.0309 N   0  0  0  0  0  0  0  0  0  0  0  0
   10.6247  -17.6613   25.8272 C   0  0  1  0  0  0  0  0  0  0  0  0
   12.1385  -17.6297   25.5874 C   0  0  0  0  0  0  0  0  0  0  0  0
   12.4331  -17.8334   23.8065 S   0  0  0  0  0  0  0  0  0  0  0  0
   10.4315  -17.3934   27.2708 C   0  0  0  0  0  0  0  0  0  0  0  0
    9.7547  -16.2858   27.7366 O   0  0  0  0  0  0  0  0  0  0  0  0
   10.9040  -18.2094   28.1015 O   0  0  0  0  0  0  0  0  0  0  0  0
  2  1  1  1
  2  4  1  0
  3  2  1  0
  4  5  1  0
  5  6  1  6
  7  9  1  0
  7  5  1  0
  8  7  2  0
 10  9  1  0
 11 12  1  0
 10 11  1  1
 12 13  2  0
 12 17  1  0
 13 14  1  0
 14 15  2  0
 16 15  1  0
 17 16  2  0
 18 20  1  0
 18 10  1  0
 19 18  2  0
 21 20  1  0
 21 24  1  0
 22 23  1  0
 21 22  1  1
 24 25  1  0
 26 24  2  0
M  END
$$$$
