LFC.pdb
     RDKit          3D

 26 26  0  0  1  0  0  0  0  0999 V2000
   10.1765  -21.1397   20.6407 C   0  0  0  0  0  0  0  0  0  0  0  0
    9.6553  -19.7678   20.2806 C   0  0  1  0  0  0  0  0  0  0  0  0
    8.1461  -19.7229   20.3975 C   0  0  0  0  0  0  0  0  0  0  0  0
   10.2715  -18.6795   21.1409 C   0  0  0  0  0  0  0  0  0  0  0  0
    9.5339  -17.3982   20.8073 C   0  0  2  0  0  0  0  0  0  0  0  0
   10.1680  -16.8021   19.6493 N   0  0  0  0  0  0  0  0  0  0  0  0
    9.5309  -16.4376   21.9062 C   0  0  0  0  0  0  0  0  0  0  0  0
   10.5592  -15.7535   22.1423 O   0  0  0  0  0  0  0  0  0  0  0  0
    8.4160  -16.2061   22.7618 N   0  0  0  0  0  0  0  0  0  0  0  0
    8.4402  -15.2490   23.8405 C   0  0  1  0  0  0  0  0  0  0  0  0
    7.0518  -14.7605   24.1948 C   0  0  0  0  0  0  0  0  0  0  0  0
    7.0731  -13.7925   25.3111 C   0  0  0  0  0  0  0  0  0  0  0  0
    6.8389  -14.2413   26.5916 C   0  0  0  0  0  0  0  0  0  0  0  0
    6.8405  -13.4077   27.6864 C   0  0  0  0  0  0  0  0  0  0  0  0
    7.0834  -12.0596   27.5327 C   0  0  0  0  0  0  0  0  0  0  0  0
    7.3207  -11.5861   26.2608 C   0  0  0  0  0  0  0  0  0  0  0  0
    7.3155  -12.4381   25.1698 C   0  0  0  0  0  0  0  0  0  0  0  0
    9.0156  -15.8523   25.0658 C   0  0  0  0  0  0  0  0  0  0  0  0
    8.4706  -16.8747   25.5410 O   0  0  0  0  0  0  0  0  0  0  0  0
   10.1544  -15.3280   25.7275 N   0  0  0  0  0  0  0  0  0  0  0  0
   10.7659  -16.1027   26.7952 C   0  0  1  0  0  0  0  0  0  0  0  0
   12.2835  -15.9291   26.6644 C   0  0  0  0  0  0  0  0  0  0  0  0
   12.7742  -16.4790   25.0041 S   0  0  0  0  0  0  0  0  0  0  0  0
   10.4002  -15.5406   28.1157 C   0  0  0  0  0  0  0  0  0  0  0  0
    9.5939  -14.4303   28.2527 O   0  0  0  0  0  0  0  0  0  0  0  0
   10.8438  -16.0998   29.1500 O   0  0  0  0  0  0  0  0  0  0  0  0
  2  1  1  1
  2  4  1  0
  3  2  1  0
  4  5  1  0
  5  6  1  6
  7  9  1  0
  7  5  1  0
  8  7  2  0
 10  9  1  0
 11 12  1  0
 10 11  1  1
 12 13  2  0
 12 17  1  0
 13 14  1  0
 14 15  2  0
 16 15  1  0
 17 16  2  0
 18 20  1  0
 18 10  1  0
 19 18  2  0
 21 20  1  0
 21 24  1  0
 22 23  1  0
 21 22  1  6
 24 25  1  0
 26 24  2  0
M  END
$$$$
