GWI.pdb
     RDKit          3D

 27 28  0  0  1  0  0  0  0  0999 V2000
   28.6214  -21.6921  -14.3940 N   0  0  0  0  0  0  0  0  0  0  0  0
   28.4324  -20.6492  -13.4133 C   0  0  0  0  0  0  0  0  0  0  0  0
   27.3411  -21.0459  -12.4359 C   0  0  0  0  0  0  0  0  0  0  0  0
   26.6740  -22.0572  -12.7074 O   0  0  0  0  0  0  0  0  0  0  0  0
   27.1231  -20.2761  -11.2798 N   0  0  0  0  0  0  0  0  0  0  0  0
   26.0880  -20.3859  -10.3162 C   0  0  1  0  0  0  0  0  0  0  0  0
   26.3191  -19.8611   -8.9424 C   0  0  0  0  0  0  0  0  0  0  0  0
   27.5544  -20.3925   -8.3181 C   0  0  0  0  0  0  0  0  0  0  0  0
   28.4944  -21.2411   -8.8716 C   0  0  0  0  0  0  0  0  0  0  0  0
   29.4053  -21.4667   -7.9206 N   0  0  0  0  0  0  0  0  0  0  0  0
   29.1079  -20.8054   -6.7715 C   0  0  0  0  0  0  0  0  0  0  0  0
   29.7301  -20.7294   -5.5445 C   0  0  0  0  0  0  0  0  0  0  0  0
   29.2029  -19.9749   -4.5326 C   0  0  0  0  0  0  0  0  0  0  0  0
   28.0114  -19.2753   -4.7640 C   0  0  0  0  0  0  0  0  0  0  0  0
   27.3693  -19.3349   -5.9860 C   0  0  0  0  0  0  0  0  0  0  0  0
   27.9314  -20.1113   -6.9943 C   0  0  0  0  0  0  0  0  0  0  0  0
   24.7567  -20.1212  -10.8903 C   0  0  0  0  0  0  0  0  0  0  0  0
   24.5100  -18.9420  -11.2567 O   0  0  0  0  0  0  0  0  0  0  0  0
   21.5271  -21.7876  -15.4405 C   0  0  0  0  0  0  0  0  0  0  0  0
   21.4903  -21.1431  -14.0850 C   0  0  0  0  0  0  0  0  0  0  0  0
   22.6919  -21.4612  -13.2272 C   0  0  2  0  0  0  0  0  0  0  0  0
   22.7163  -22.9853  -13.0887 C   0  0  0  0  0  0  0  0  0  0  0  0
   22.5959  -20.7834  -11.9102 C   0  0  2  0  0  0  0  0  0  0  0  0
   23.7462  -21.1080  -11.0510 N   0  0  0  0  0  0  0  0  0  0  0  0
   21.3913  -21.1711  -11.1088 C   0  0  0  0  0  0  0  0  0  0  0  0
   20.1313  -20.6193  -11.3017 O   0  0  0  0  0  0  0  0  0  0  0  0
   21.4758  -22.0346  -10.2028 O   0  0  0  0  0  0  0  0  0  0  0  0
  2  1  1  0
  3  2  1  0
  4  3  2  0
  5  3  1  0
  6  5  1  0
  6  7  1  1
  8  7  1  0
  9  8  2  0
 10 11  1  0
 10  9  1  0
 11 16  2  0
 12 11  1  0
 12 13  2  0
 13 14  1  0
 14 15  2  0
 16  8  1  0
 16 15  1  0
 17  6  1  0
 17 18  2  0
 20 21  1  0
 20 19  1  0
 21 22  1  1
 23 21  1  0
 23 24  1  1
 24 17  1  0
 25 23  1  0
 26 25  1  0
 27 25  2  0
M  END
$$$$
