GWI.pdb
     RDKit          3D

 27 28  0  0  1  0  0  0  0  0999 V2000
   31.0645  -21.3268  -10.2555 N   0  0  0  0  0  0  0  0  0  0  0  0
   30.0554  -20.4786  -10.8448 C   0  0  0  0  0  0  0  0  0  0  0  0
   28.6755  -21.0553  -10.5861 C   0  0  0  0  0  0  0  0  0  0  0  0
   28.4794  -22.2345  -10.9215 O   0  0  0  0  0  0  0  0  0  0  0  0
   27.6841  -20.2574   -9.9883 N   0  0  0  0  0  0  0  0  0  0  0  0
   26.3543  -20.6015   -9.6346 C   0  0  1  0  0  0  0  0  0  0  0  0
   25.8457  -20.2331   -8.2849 C   0  0  0  0  0  0  0  0  0  0  0  0
   26.8920  -19.6548   -7.4081 C   0  0  0  0  0  0  0  0  0  0  0  0
   27.5047  -18.4200   -7.5089 C   0  0  0  0  0  0  0  0  0  0  0  0
   28.4012  -18.3618   -6.5201 N   0  0  0  0  0  0  0  0  0  0  0  0
   28.4041  -19.4984   -5.7755 C   0  0  0  0  0  0  0  0  0  0  0  0
   29.1353  -19.9002   -4.6790 C   0  0  0  0  0  0  0  0  0  0  0  0
   28.9370  -21.1288   -4.1115 C   0  0  0  0  0  0  0  0  0  0  0  0
   27.9719  -21.9795   -4.6662 C   0  0  0  0  0  0  0  0  0  0  0  0
   27.2253  -21.5990   -5.7648 C   0  0  0  0  0  0  0  0  0  0  0  0
   27.4515  -20.3429   -6.3185 C   0  0  0  0  0  0  0  0  0  0  0  0
   25.4105  -20.4141  -10.7508 C   0  0  0  0  0  0  0  0  0  0  0  0
   25.4174  -19.2966  -11.3313 O   0  0  0  0  0  0  0  0  0  0  0  0
   25.7631  -23.1892  -14.8747 C   0  0  0  0  0  0  0  0  0  0  0  0
   25.3904  -22.0738  -13.9415 C   0  0  0  0  0  0  0  0  0  0  0  0
   23.9546  -22.1243  -13.4757 C   0  0  2  0  0  0  0  0  0  0  0  0
   23.1011  -21.8627  -14.7190 C   0  0  0  0  0  0  0  0  0  0  0  0
   23.7088  -21.1211  -12.4097 C   0  0  2  0  0  0  0  0  0  0  0  0
   24.5023  -21.4094  -11.2039 N   0  0  0  0  0  0  0  0  0  0  0  0
   22.2887  -21.0671  -11.9359 C   0  0  0  0  0  0  0  0  0  0  0  0
   21.8544  -21.6393  -10.7470 O   0  0  0  0  0  0  0  0  0  0  0  0
   21.4086  -20.4870  -12.6157 O   0  0  0  0  0  0  0  0  0  0  0  0
  2  1  1  0
  3  2  1  0
  4  3  2  0
  5  3  1  0
  6  5  1  0
  6  7  1  1
  8  7  1  0
  9  8  2  0
 10 11  1  0
 10  9  1  0
 11 16  2  0
 12 11  1  0
 12 13  2  0
 13 14  1  0
 14 15  2  0
 16  8  1  0
 16 15  1  0
 17  6  1  0
 17 18  2  0
 20 21  1  0
 20 19  1  0
 21 22  1  6
 23 21  1  0
 23 24  1  1
 24 17  1  0
 25 23  1  0
 26 25  1  0
 27 25  2  0
M  END
$$$$
