GWI.pdb
     RDKit          3D

 27 28  0  0  1  0  0  0  0  0999 V2000
   30.7957  -22.4562  -12.2204 N   0  0  0  0  0  0  0  0  0  0  0  0
   30.2744  -21.1157  -12.0924 C   0  0  0  0  0  0  0  0  0  0  0  0
   28.8661  -21.1571  -11.5279 C   0  0  0  0  0  0  0  0  0  0  0  0
   28.1210  -22.0682  -11.9232 O   0  0  0  0  0  0  0  0  0  0  0  0
   28.4566  -20.1870  -10.5962 N   0  0  0  0  0  0  0  0  0  0  0  0
   27.1958  -20.0312   -9.9654 C   0  0  1  0  0  0  0  0  0  0  0  0
   27.0912  -19.1626   -8.7609 C   0  0  0  0  0  0  0  0  0  0  0  0
   26.7139  -19.9098   -7.5373 C   0  0  0  0  0  0  0  0  0  0  0  0
   25.7451  -20.8854   -7.3966 C   0  0  0  0  0  0  0  0  0  0  0  0
   25.7477  -21.2365   -6.1076 N   0  0  0  0  0  0  0  0  0  0  0  0
   26.6726  -20.5390   -5.3975 C   0  0  0  0  0  0  0  0  0  0  0  0
   27.0384  -20.5481   -4.0692 C   0  0  0  0  0  0  0  0  0  0  0  0
   28.0229  -19.7203   -3.6037 C   0  0  0  0  0  0  0  0  0  0  0  0
   28.6587  -18.8563   -4.5047 C   0  0  0  0  0  0  0  0  0  0  0  0
   28.3104  -18.8294   -5.8416 C   0  0  0  0  0  0  0  0  0  0  0  0
   27.3050  -19.6837   -6.2830 C   0  0  0  0  0  0  0  0  0  0  0  0
   26.0926  -19.9201  -10.9362 C   0  0  0  0  0  0  0  0  0  0  0  0
   26.1113  -18.9355  -11.7211 O   0  0  0  0  0  0  0  0  0  0  0  0
   25.5271  -23.3928  -14.5268 C   0  0  0  0  0  0  0  0  0  0  0  0
   25.4097  -22.1055  -13.7631 C   0  0  0  0  0  0  0  0  0  0  0  0
   24.1080  -21.9608  -13.0110 C   0  0  2  0  0  0  0  0  0  0  0  0
   23.0088  -21.9389  -14.0759 C   0  0  0  0  0  0  0  0  0  0  0  0
   24.1087  -20.7275  -12.1851 C   0  0  2  0  0  0  0  0  0  0  0  0
   25.0204  -20.8481  -11.0358 N   0  0  0  0  0  0  0  0  0  0  0  0
   22.7765  -20.3890  -11.5898 C   0  0  0  0  0  0  0  0  0  0  0  0
   21.8330  -19.5909  -12.2242 O   0  0  0  0  0  0  0  0  0  0  0  0
   22.4511  -20.8245  -10.4594 O   0  0  0  0  0  0  0  0  0  0  0  0
  2  1  1  0
  3  2  1  0
  4  3  2  0
  5  3  1  0
  6  5  1  0
  6  7  1  6
  8  7  1  0
  9  8  2  0
 10 11  1  0
 10  9  1  0
 11 16  2  0
 12 11  1  0
 12 13  2  0
 13 14  1  0
 14 15  2  0
 16  8  1  0
 16 15  1  0
 17  6  1  0
 17 18  2  0
 20 21  1  0
 20 19  1  0
 21 22  1  6
 23 21  1  0
 23 24  1  1
 24 17  1  0
 25 23  1  0
 26 25  1  0
 27 25  2  0
M  END
$$$$
