GWI.pdb
     RDKit          3D

 27 28  0  0  1  0  0  0  0  0999 V2000
   27.8020  -22.4745  -15.2129 N   0  0  0  0  0  0  0  0  0  0  0  0
   28.1354  -21.4258  -14.2778 C   0  0  0  0  0  0  0  0  0  0  0  0
   27.1881  -21.4653  -13.0926 C   0  0  0  0  0  0  0  0  0  0  0  0
   26.1837  -22.1886  -13.1906 O   0  0  0  0  0  0  0  0  0  0  0  0
   27.4688  -20.7012  -11.9463 N   0  0  0  0  0  0  0  0  0  0  0  0
   26.6609  -20.4784  -10.8020 C   0  0  1  0  0  0  0  0  0  0  0  0
   27.2515  -19.7900   -9.6215 C   0  0  0  0  0  0  0  0  0  0  0  0
   26.6915  -20.2637   -8.3330 C   0  0  0  0  0  0  0  0  0  0  0  0
   25.5175  -20.9600   -8.1161 C   0  0  0  0  0  0  0  0  0  0  0  0
   25.4195  -21.1320   -6.7949 N   0  0  0  0  0  0  0  0  0  0  0  0
   26.4736  -20.5833   -6.1361 C   0  0  0  0  0  0  0  0  0  0  0  0
   26.8089  -20.5051   -4.8020 C   0  0  0  0  0  0  0  0  0  0  0  0
   27.9550  -19.8764   -4.3991 C   0  0  0  0  0  0  0  0  0  0  0  0
   28.7894  -19.3086   -5.3708 C   0  0  0  0  0  0  0  0  0  0  0  0
   28.4754  -19.3748   -6.7147 C   0  0  0  0  0  0  0  0  0  0  0  0
   27.3024  -20.0210   -7.0914 C   0  0  0  0  0  0  0  0  0  0  0  0
   25.2852  -20.0843  -11.1546 C   0  0  0  0  0  0  0  0  0  0  0  0
   25.0916  -18.8795  -11.4655 O   0  0  0  0  0  0  0  0  0  0  0  0
   23.3201  -21.5412  -15.3748 C   0  0  0  0  0  0  0  0  0  0  0  0
   23.5104  -20.7711  -14.1001 C   0  0  0  0  0  0  0  0  0  0  0  0
   22.5713  -21.1862  -12.9925 C   0  0  2  0  0  0  0  0  0  0  0  0
   21.1640  -20.8396  -13.4842 C   0  0  0  0  0  0  0  0  0  0  0  0
   22.9067  -20.4891  -11.7257 C   0  0  2  0  0  0  0  0  0  0  0  0
   24.1770  -20.9745  -11.1625 N   0  0  0  0  0  0  0  0  0  0  0  0
   21.8989  -20.6838  -10.6347 C   0  0  0  0  0  0  0  0  0  0  0  0
   20.8559  -19.8005  -10.3871 O   0  0  0  0  0  0  0  0  0  0  0  0
   21.9601  -21.6818   -9.8773 O   0  0  0  0  0  0  0  0  0  0  0  0
  2  1  1  0
  3  2  1  0
  4  3  2  0
  5  3  1  0
  6  5  1  0
  6  7  1  1
  8  7  1  0
  9  8  2  0
 10 11  1  0
 10  9  1  0
 11 16  2  0
 12 11  1  0
 12 13  2  0
 13 14  1  0
 14 15  2  0
 16  8  1  0
 16 15  1  0
 17  6  1  0
 17 18  2  0
 20 21  1  0
 20 19  1  0
 21 22  1  6
 23 21  1  0
 23 24  1  1
 24 17  1  0
 25 23  1  0
 26 25  1  0
 27 25  2  0
M  END
$$$$
