GWI.pdb
     RDKit          3D

 27 28  0  0  1  0  0  0  0  0999 V2000
   29.0442  -20.8410  -14.7715 N   0  0  0  0  0  0  0  0  0  0  0  0
   28.0667  -19.9232  -14.2355 C   0  0  0  0  0  0  0  0  0  0  0  0
   26.8921  -20.6925  -13.6591 C   0  0  0  0  0  0  0  0  0  0  0  0
   26.3648  -21.5525  -14.3828 O   0  0  0  0  0  0  0  0  0  0  0  0
   26.4468  -20.4162  -12.3544 N   0  0  0  0  0  0  0  0  0  0  0  0
   25.3678  -20.9945  -11.6382 C   0  0  1  0  0  0  0  0  0  0  0  0
   25.4624  -21.1129  -10.1573 C   0  0  0  0  0  0  0  0  0  0  0  0
   26.8589  -21.2248   -9.6719 C   0  0  0  0  0  0  0  0  0  0  0  0
   27.9260  -21.8599  -10.2787 C   0  0  0  0  0  0  0  0  0  0  0  0
   28.9660  -21.7239   -9.4512 N   0  0  0  0  0  0  0  0  0  0  0  0
   28.6318  -21.0290   -8.3324 C   0  0  0  0  0  0  0  0  0  0  0  0
   29.3450  -20.6459   -7.2176 C   0  0  0  0  0  0  0  0  0  0  0  0
   28.7503  -19.9382   -6.2094 C   0  0  0  0  0  0  0  0  0  0  0  0
   27.3944  -19.6062   -6.3280 C   0  0  0  0  0  0  0  0  0  0  0  0
   26.6582  -19.9781   -7.4366 C   0  0  0  0  0  0  0  0  0  0  0  0
   27.2928  -20.6974   -8.4442 C   0  0  0  0  0  0  0  0  0  0  0  0
   24.0565  -20.5795  -12.1677 C   0  0  0  0  0  0  0  0  0  0  0  0
   23.8487  -19.3436  -12.2915 O   0  0  0  0  0  0  0  0  0  0  0  0
   20.7790  -21.2833  -16.9648 C   0  0  0  0  0  0  0  0  0  0  0  0
   20.7471  -20.9288  -15.5063 C   0  0  0  0  0  0  0  0  0  0  0  0
   21.9663  -21.3872  -14.7418 C   0  0  2  0  0  0  0  0  0  0  0  0
   21.9966  -22.9116  -14.8763 C   0  0  0  0  0  0  0  0  0  0  0  0
   21.8954  -20.9540  -13.3239 C   0  0  2  0  0  0  0  0  0  0  0  0
   23.0242  -21.4827  -12.5410 N   0  0  0  0  0  0  0  0  0  0  0  0
   20.6693  -21.4220  -12.6018 C   0  0  0  0  0  0  0  0  0  0  0  0
   20.6630  -22.4896  -11.7130 O   0  0  0  0  0  0  0  0  0  0  0  0
   19.5658  -20.8522  -12.7778 O   0  0  0  0  0  0  0  0  0  0  0  0
  2  1  1  0
  3  2  1  0
  4  3  2  0
  5  3  1  0
  6  5  1  0
  6  7  1  1
  8  7  1  0
  9  8  2  0
 10 11  1  0
 10  9  1  0
 11 16  2  0
 12 11  1  0
 12 13  2  0
 13 14  1  0
 14 15  2  0
 16  8  1  0
 16 15  1  0
 17  6  1  0
 17 18  2  0
 20 21  1  0
 20 19  1  0
 21 22  1  1
 23 21  1  0
 23 24  1  1
 24 17  1  0
 25 23  1  0
 26 25  1  0
 27 25  2  0
M  END
$$$$
