GWI.pdb
     RDKit          3D

 27 28  0  0  1  0  0  0  0  0999 V2000
   29.5631  -19.7911  -14.2174 N   0  0  0  0  0  0  0  0  0  0  0  0
   28.5690  -19.2985  -13.2932 C   0  0  0  0  0  0  0  0  0  0  0  0
   27.4768  -20.3350  -13.1030 C   0  0  0  0  0  0  0  0  0  0  0  0
   27.4995  -21.3289  -13.8469 O   0  0  0  0  0  0  0  0  0  0  0  0
   26.4957  -20.1448  -12.1140 N   0  0  0  0  0  0  0  0  0  0  0  0
   25.4307  -21.0021  -11.7365 C   0  0  1  0  0  0  0  0  0  0  0  0
   25.3461  -21.4743  -10.3272 C   0  0  0  0  0  0  0  0  0  0  0  0
   26.3603  -20.8502   -9.4440 C   0  0  0  0  0  0  0  0  0  0  0  0
   26.1698  -19.8857   -8.4725 C   0  0  0  0  0  0  0  0  0  0  0  0
   27.3771  -19.6136   -7.9692 N   0  0  0  0  0  0  0  0  0  0  0  0
   28.3489  -20.3545   -8.5632 C   0  0  0  0  0  0  0  0  0  0  0  0
   29.7140  -20.4243   -8.3896 C   0  0  0  0  0  0  0  0  0  0  0  0
   30.4774  -21.2746   -9.1413 C   0  0  0  0  0  0  0  0  0  0  0  0
   29.8457  -22.0799  -10.0981 C   0  0  0  0  0  0  0  0  0  0  0  0
   28.4784  -22.0288  -10.2901 C   0  0  0  0  0  0  0  0  0  0  0  0
   27.7306  -21.1531   -9.5095 C   0  0  0  0  0  0  0  0  0  0  0  0
   24.1533  -20.6202  -12.3645 C   0  0  0  0  0  0  0  0  0  0  0  0
   23.8850  -19.3914  -12.4262 O   0  0  0  0  0  0  0  0  0  0  0  0
   21.1821  -21.8801  -17.4129 C   0  0  0  0  0  0  0  0  0  0  0  0
   21.1695  -21.2297  -16.0598 C   0  0  0  0  0  0  0  0  0  0  0  0
   22.2087  -21.7785  -15.1111 C   0  0  2  0  0  0  0  0  0  0  0  0
   21.8675  -23.2591  -14.9267 C   0  0  0  0  0  0  0  0  0  0  0  0
   22.1935  -21.0385  -13.8245 C   0  0  2  0  0  0  0  0  0  0  0  0
   23.2169  -21.5476  -12.8971 N   0  0  0  0  0  0  0  0  0  0  0  0
   20.9020  -21.1440  -13.0731 C   0  0  0  0  0  0  0  0  0  0  0  0
   19.7361  -20.4932  -13.4562 O   0  0  0  0  0  0  0  0  0  0  0  0
   20.8202  -21.8441  -12.0356 O   0  0  0  0  0  0  0  0  0  0  0  0
  2  1  1  0
  3  2  1  0
  4  3  2  0
  5  3  1  0
  6  5  1  0
  6  7  1  1
  8  7  1  0
  9  8  2  0
 10 11  1  0
 10  9  1  0
 11 16  2  0
 12 11  1  0
 12 13  2  0
 13 14  1  0
 14 15  2  0
 16  8  1  0
 16 15  1  0
 17  6  1  0
 17 18  2  0
 20 21  1  0
 20 19  1  0
 21 22  1  1
 23 21  1  0
 23 24  1  1
 24 17  1  0
 25 23  1  0
 26 25  1  0
 27 25  2  0
M  END
$$$$
