GWI.pdb
     RDKit          3D

 27 28  0  0  1  0  0  0  0  0999 V2000
   30.7582  -21.4809  -11.7000 N   0  0  0  0  0  0  0  0  0  0  0  0
   29.8602  -20.3997  -11.3689 C   0  0  0  0  0  0  0  0  0  0  0  0
   28.4767  -20.9464  -11.0674 C   0  0  0  0  0  0  0  0  0  0  0  0
   28.1702  -22.0343  -11.5813 O   0  0  0  0  0  0  0  0  0  0  0  0
   27.6044  -20.2234  -10.2349 N   0  0  0  0  0  0  0  0  0  0  0  0
   26.2998  -20.5662   -9.7964 C   0  0  1  0  0  0  0  0  0  0  0  0
   25.8687  -20.1706   -8.4276 C   0  0  0  0  0  0  0  0  0  0  0  0
   26.9826  -19.6600   -7.5929 C   0  0  0  0  0  0  0  0  0  0  0  0
   27.8850  -18.6572   -7.8931 C   0  0  0  0  0  0  0  0  0  0  0  0
   28.7202  -18.5776   -6.8534 N   0  0  0  0  0  0  0  0  0  0  0  0
   28.4073  -19.4790   -5.8861 C   0  0  0  0  0  0  0  0  0  0  0  0
   28.9639  -19.7712   -4.6600 C   0  0  0  0  0  0  0  0  0  0  0  0
   28.4420  -20.7547   -3.8655 C   0  0  0  0  0  0  0  0  0  0  0  0
   27.3243  -21.4663   -4.3205 C   0  0  0  0  0  0  0  0  0  0  0  0
   26.7476  -21.1912   -5.5456 C   0  0  0  0  0  0  0  0  0  0  0  0
   27.3027  -20.1850   -6.3297 C   0  0  0  0  0  0  0  0  0  0  0  0
   25.2911  -20.4082  -10.8593 C   0  0  0  0  0  0  0  0  0  0  0  0
   25.3272  -19.3470  -11.5362 O   0  0  0  0  0  0  0  0  0  0  0  0
   24.9540  -23.9409  -14.4784 C   0  0  0  0  0  0  0  0  0  0  0  0
   24.8420  -22.6332  -13.7495 C   0  0  0  0  0  0  0  0  0  0  0  0
   23.4506  -22.3365  -13.2424 C   0  0  2  0  0  0  0  0  0  0  0  0
   22.5886  -22.1168  -14.4879 C   0  0  0  0  0  0  0  0  0  0  0  0
   23.4546  -21.1498  -12.3508 C   0  0  2  0  0  0  0  0  0  0  0  0
   24.2906  -21.3722  -11.1599 N   0  0  0  0  0  0  0  0  0  0  0  0
   22.1050  -20.7829  -11.8144 C   0  0  0  0  0  0  0  0  0  0  0  0
   21.7070  -21.0274  -10.5062 O   0  0  0  0  0  0  0  0  0  0  0  0
   21.2543  -20.2251  -12.5482 O   0  0  0  0  0  0  0  0  0  0  0  0
  2  1  1  0
  3  2  1  0
  4  3  2  0
  5  3  1  0
  6  5  1  0
  6  7  1  1
  8  7  1  0
  9  8  2  0
 10 11  1  0
 10  9  1  0
 11 16  2  0
 12 11  1  0
 12 13  2  0
 13 14  1  0
 14 15  2  0
 16  8  1  0
 16 15  1  0
 17  6  1  0
 17 18  2  0
 20 21  1  0
 20 19  1  0
 21 22  1  6
 23 21  1  0
 23 24  1  1
 24 17  1  0
 25 23  1  0
 26 25  1  0
 27 25  2  0
M  END
$$$$
