GWI.pdb
     RDKit          3D

 27 28  0  0  1  0  0  0  0  0999 V2000
   30.4757  -22.0395  -12.8901 N   0  0  0  0  0  0  0  0  0  0  0  0
   29.6704  -20.8425  -12.8271 C   0  0  0  0  0  0  0  0  0  0  0  0
   28.3976  -21.1125  -12.0457 C   0  0  0  0  0  0  0  0  0  0  0  0
   27.6754  -22.0431  -12.4380 O   0  0  0  0  0  0  0  0  0  0  0  0
   28.0814  -20.3210  -10.9275 N   0  0  0  0  0  0  0  0  0  0  0  0
   26.9115  -20.3352  -10.1257 C   0  0  1  0  0  0  0  0  0  0  0  0
   26.9715  -19.7761   -8.7473 C   0  0  0  0  0  0  0  0  0  0  0  0
   28.1075  -20.3055   -7.9551 C   0  0  0  0  0  0  0  0  0  0  0  0
   29.1646  -21.0819   -8.3908 C   0  0  0  0  0  0  0  0  0  0  0  0
   29.9123  -21.3396   -7.3140 N   0  0  0  0  0  0  0  0  0  0  0  0
   29.3966  -20.7681   -6.1944 C   0  0  0  0  0  0  0  0  0  0  0  0
   29.8000  -20.7536   -4.8770 C   0  0  0  0  0  0  0  0  0  0  0  0
   29.0767  -20.0878   -3.9258 C   0  0  0  0  0  0  0  0  0  0  0  0
   27.9104  -19.4157   -4.3140 C   0  0  0  0  0  0  0  0  0  0  0  0
   27.4858  -19.4147   -5.6289 C   0  0  0  0  0  0  0  0  0  0  0  0
   28.2438  -20.1015   -6.5718 C   0  0  0  0  0  0  0  0  0  0  0  0
   25.6981  -20.0135  -10.8980 C   0  0  0  0  0  0  0  0  0  0  0  0
   25.6746  -18.9092  -11.5027 O   0  0  0  0  0  0  0  0  0  0  0  0
   22.8515  -21.9592  -15.5236 C   0  0  0  0  0  0  0  0  0  0  0  0
   22.6718  -21.1867  -14.2488 C   0  0  0  0  0  0  0  0  0  0  0  0
   23.8065  -21.3600  -13.2672 C   0  0  2  0  0  0  0  0  0  0  0  0
   23.8855  -22.8610  -12.9787 C   0  0  0  0  0  0  0  0  0  0  0  0
   23.5658  -20.5675  -12.0354 C   0  0  2  0  0  0  0  0  0  0  0  0
   24.5655  -20.8668  -10.9973 N   0  0  0  0  0  0  0  0  0  0  0  0
   22.2418  -20.8319  -11.3867 C   0  0  0  0  0  0  0  0  0  0  0  0
   21.0413  -20.3117  -11.8534 O   0  0  0  0  0  0  0  0  0  0  0  0
   22.1626  -21.5539  -10.3641 O   0  0  0  0  0  0  0  0  0  0  0  0
  2  1  1  0
  3  2  1  0
  4  3  2  0
  5  3  1  0
  6  5  1  0
  6  7  1  1
  8  7  1  0
  9  8  2  0
 10 11  1  0
 10  9  1  0
 11 16  2  0
 12 11  1  0
 12 13  2  0
 13 14  1  0
 14 15  2  0
 16  8  1  0
 16 15  1  0
 17  6  1  0
 17 18  2  0
 20 21  1  0
 20 19  1  0
 21 22  1  1
 23 21  1  0
 23 24  1  1
 24 17  1  0
 25 23  1  0
 26 25  1  0
 27 25  2  0
M  END
$$$$
