GWI.pdb
     RDKit          3D

 27 28  0  0  1  0  0  0  0  0999 V2000
   22.1571  -12.2265  -20.5466 N   0  0  0  0  0  0  0  0  0  0  0  0
   22.7746  -10.9215  -20.5170 C   0  0  0  0  0  0  0  0  0  0  0  0
   22.3262  -10.1619  -19.2819 C   0  0  0  0  0  0  0  0  0  0  0  0
   22.6681  -10.6170  -18.1785 O   0  0  0  0  0  0  0  0  0  0  0  0
   21.5566   -8.9934  -19.4197 N   0  0  0  0  0  0  0  0  0  0  0  0
   21.1111   -8.0944  -18.4171 C   0  0  1  0  0  0  0  0  0  0  0  0
   21.3994   -6.6416  -18.5674 C   0  0  0  0  0  0  0  0  0  0  0  0
   22.4149   -6.1488  -17.6062 C   0  0  0  0  0  0  0  0  0  0  0  0
   23.7845   -6.0714  -17.7750 C   0  0  0  0  0  0  0  0  0  0  0  0
   24.2798   -5.5983  -16.6280 N   0  0  0  0  0  0  0  0  0  0  0  0
   23.3005   -5.3608  -15.7165 C   0  0  0  0  0  0  0  0  0  0  0  0
   23.3170   -4.8841  -14.4239 C   0  0  0  0  0  0  0  0  0  0  0  0
   22.1587   -4.7419  -13.7104 C   0  0  0  0  0  0  0  0  0  0  0  0
   20.9457   -5.0910  -14.3182 C   0  0  0  0  0  0  0  0  0  0  0  0
   20.9031   -5.5701  -15.6135 C   0  0  0  0  0  0  0  0  0  0  0  0
   22.0989   -5.7032  -16.3118 C   0  0  0  0  0  0  0  0  0  0  0  0
   19.7682   -8.4350  -17.9146 C   0  0  0  0  0  0  0  0  0  0  0  0
   18.7954   -8.2422  -18.6906 O   0  0  0  0  0  0  0  0  0  0  0  0
   18.5822  -12.8426  -15.0107 C   0  0  0  0  0  0  0  0  0  0  0  0
   18.8341  -11.3771  -15.2177 C   0  0  0  0  0  0  0  0  0  0  0  0
   17.8764  -10.7260  -16.1872 C   0  0  2  0  0  0  0  0  0  0  0  0
   18.1083  -11.4169  -17.5331 C   0  0  0  0  0  0  0  0  0  0  0  0
   18.1142   -9.2629  -16.2634 C   0  0  2  0  0  0  0  0  0  0  0  0
   19.5102   -8.9609  -16.6194 N   0  0  0  0  0  0  0  0  0  0  0  0
   17.8764   -8.5364  -14.9752 C   0  0  0  0  0  0  0  0  0  0  0  0
   18.8881   -7.9424  -14.2313 O   0  0  0  0  0  0  0  0  0  0  0  0
   16.7193   -8.4342  -14.5019 O   0  0  0  0  0  0  0  0  0  0  0  0
  2  1  1  0
  3  2  1  0
  4  3  2  0
  5  3  1  0
  6  5  1  0
  6  7  1  6
  8  7  1  0
  9  8  2  0
 10 11  1  0
 10  9  1  0
 11 16  2  0
 12 11  1  0
 12 13  2  0
 13 14  1  0
 14 15  2  0
 16  8  1  0
 16 15  1  0
 17  6  1  0
 17 18  2  0
 20 21  1  0
 20 19  1  0
 21 22  1  6
 23 21  1  0
 23 24  1  1
 24 17  1  0
 25 23  1  0
 26 25  1  0
 27 25  2  0
M  END
$$$$
