GWI.pdb
     RDKit          3D

 27 28  0  0  1  0  0  0  0  0999 V2000
   25.4127  -24.6320  -14.6200 N   0  0  0  0  0  0  0  0  0  0  0  0
   24.6500  -23.7537  -13.7644 C   0  0  0  0  0  0  0  0  0  0  0  0
   25.5851  -22.8571  -12.9736 C   0  0  0  0  0  0  0  0  0  0  0  0
   26.7906  -22.8901  -13.2691 O   0  0  0  0  0  0  0  0  0  0  0  0
   25.0717  -22.0350  -11.9550 N   0  0  0  0  0  0  0  0  0  0  0  0
   25.7058  -20.9739  -11.2596 C   0  0  1  0  0  0  0  0  0  0  0  0
   25.3687  -19.5691  -11.6190 C   0  0  0  0  0  0  0  0  0  0  0  0
   25.7238  -19.2264  -13.0171 C   0  0  0  0  0  0  0  0  0  0  0  0
   24.8778  -18.8750  -14.0519 C   0  0  0  0  0  0  0  0  0  0  0  0
   25.6509  -18.6933  -15.1262 N   0  0  0  0  0  0  0  0  0  0  0  0
   26.9628  -18.9073  -14.8444 C   0  0  0  0  0  0  0  0  0  0  0  0
   28.1087  -18.8457  -15.6070 C   0  0  0  0  0  0  0  0  0  0  0  0
   29.3332  -19.1195  -15.0623 C   0  0  0  0  0  0  0  0  0  0  0  0
   29.4055  -19.4663  -13.7069 C   0  0  0  0  0  0  0  0  0  0  0  0
   28.2709  -19.5338  -12.9213 C   0  0  0  0  0  0  0  0  0  0  0  0
   27.0408  -19.2497  -13.5057 C   0  0  0  0  0  0  0  0  0  0  0  0
   25.8481  -21.2528   -9.8194 C   0  0  0  0  0  0  0  0  0  0  0  0
   25.2728  -22.2791   -9.3706 O   0  0  0  0  0  0  0  0  0  0  0  0
   29.0313  -20.0546   -4.6134 C   0  0  0  0  0  0  0  0  0  0  0  0
   27.8661  -20.6301   -5.3652 C   0  0  0  0  0  0  0  0  0  0  0  0
   27.8053  -20.2033   -6.8127 C   0  0  2  0  0  0  0  0  0  0  0  0
   27.6404  -18.6817   -6.7945 C   0  0  0  0  0  0  0  0  0  0  0  0
   26.6853  -20.8770   -7.5161 C   0  0  2  0  0  0  0  0  0  0  0  0
   26.5872  -20.4392   -8.9180 N   0  0  0  0  0  0  0  0  0  0  0  0
   25.3366  -20.5978   -6.9271 C   0  0  0  0  0  0  0  0  0  0  0  0
   24.2959  -20.0120   -7.6367 O   0  0  0  0  0  0  0  0  0  0  0  0
   25.0866  -20.8890   -5.7330 O   0  0  0  0  0  0  0  0  0  0  0  0
  2  1  1  0
  3  2  1  0
  4  3  2  0
  5  3  1  0
  6  5  1  0
  6  7  1  1
  8  7  1  0
  9  8  2  0
 10 11  1  0
 10  9  1  0
 11 16  2  0
 12 11  1  0
 12 13  2  0
 13 14  1  0
 14 15  2  0
 16  8  1  0
 16 15  1  0
 17  6  1  0
 17 18  2  0
 20 21  1  0
 20 19  1  0
 21 22  1  1
 23 21  1  0
 23 24  1  6
 24 17  1  0
 25 23  1  0
 26 25  1  0
 27 25  2  0
M  END
$$$$
