GWI.pdb
     RDKit          3D

 27 28  0  0  1  0  0  0  0  0999 V2000
   28.4351  -23.7401  -16.1644 N   0  0  0  0  0  0  0  0  0  0  0  0
   28.1345  -22.3526  -15.9006 C   0  0  0  0  0  0  0  0  0  0  0  0
   27.1429  -22.2438  -14.7566 C   0  0  0  0  0  0  0  0  0  0  0  0
   26.3375  -23.1774  -14.6108 O   0  0  0  0  0  0  0  0  0  0  0  0
   27.1650  -21.1172  -13.9157 N   0  0  0  0  0  0  0  0  0  0  0  0
   26.2535  -20.7480  -12.8937 C   0  0  1  0  0  0  0  0  0  0  0  0
   26.7118  -19.8370  -11.8092 C   0  0  0  0  0  0  0  0  0  0  0  0
   27.7620  -20.4374  -10.9519 C   0  0  0  0  0  0  0  0  0  0  0  0
   28.9257  -21.0715  -11.3440 C   0  0  0  0  0  0  0  0  0  0  0  0
   29.5320  -21.4738  -10.2235 N   0  0  0  0  0  0  0  0  0  0  0  0
   28.8221  -21.1324   -9.1164 C   0  0  0  0  0  0  0  0  0  0  0  0
   29.0340  -21.3264   -7.7689 C   0  0  0  0  0  0  0  0  0  0  0  0
   28.1358  -20.8736   -6.8419 C   0  0  0  0  0  0  0  0  0  0  0  0
   26.9880  -20.2046   -7.2865 C   0  0  0  0  0  0  0  0  0  0  0  0
   26.7537  -19.9969   -8.6323 C   0  0  0  0  0  0  0  0  0  0  0  0
   27.6866  -20.4700   -9.5494 C   0  0  0  0  0  0  0  0  0  0  0  0
   24.8980  -20.4966  -13.4149 C   0  0  0  0  0  0  0  0  0  0  0  0
   24.7731  -19.5997  -14.2900 O   0  0  0  0  0  0  0  0  0  0  0  0
   20.6560  -21.8697  -16.6791 C   0  0  0  0  0  0  0  0  0  0  0  0
   20.7129  -21.7679  -15.1823 C   0  0  0  0  0  0  0  0  0  0  0  0
   22.0904  -22.0012  -14.6085 C   0  0  2  0  0  0  0  0  0  0  0  0
   22.0271  -23.3595  -13.9058 C   0  0  0  0  0  0  0  0  0  0  0  0
   22.4672  -20.9087  -13.6769 C   0  0  2  0  0  0  0  0  0  0  0  0
   23.7368  -21.1985  -12.9909 N   0  0  0  0  0  0  0  0  0  0  0  0
   21.4772  -20.6732  -12.5777 C   0  0  0  0  0  0  0  0  0  0  0  0
   20.1967  -20.1789  -12.7914 O   0  0  0  0  0  0  0  0  0  0  0  0
   21.7751  -20.9186  -11.3843 O   0  0  0  0  0  0  0  0  0  0  0  0
  2  1  1  0
  3  2  1  0
  4  3  2  0
  5  3  1  0
  6  5  1  0
  6  7  1  6
  8  7  1  0
  9  8  2  0
 10 11  1  0
 10  9  1  0
 11 16  2  0
 12 11  1  0
 12 13  2  0
 13 14  1  0
 14 15  2  0
 16  8  1  0
 16 15  1  0
 17  6  1  0
 17 18  2  0
 20 21  1  0
 20 19  1  0
 21 22  1  1
 23 21  1  0
 23 24  1  1
 24 17  1  0
 25 23  1  0
 26 25  1  0
 27 25  2  0
M  END
$$$$
