GWI.pdb
     RDKit          3D

 27 28  0  0  1  0  0  0  0  0999 V2000
   27.5943  -23.6337  -17.4833 N   0  0  0  0  0  0  0  0  0  0  0  0
   27.8959  -22.3360  -16.9265 C   0  0  0  0  0  0  0  0  0  0  0  0
   27.2458  -22.1915  -15.5626 C   0  0  0  0  0  0  0  0  0  0  0  0
   26.7884  -23.2197  -15.0382 O   0  0  0  0  0  0  0  0  0  0  0  0
   27.1828  -20.9288  -14.9474 N   0  0  0  0  0  0  0  0  0  0  0  0
   26.6856  -20.5846  -13.6644 C   0  0  1  0  0  0  0  0  0  0  0  0
   27.5077  -19.7154  -12.7785 C   0  0  0  0  0  0  0  0  0  0  0  0
   28.0695  -20.4400  -11.6134 C   0  0  0  0  0  0  0  0  0  0  0  0
   29.2170  -21.2082  -11.5573 C   0  0  0  0  0  0  0  0  0  0  0  0
   29.2921  -21.6837  -10.3110 N   0  0  0  0  0  0  0  0  0  0  0  0
   28.2498  -21.2627   -9.5477 C   0  0  0  0  0  0  0  0  0  0  0  0
   27.8987  -21.4845   -8.2340 C   0  0  0  0  0  0  0  0  0  0  0  0
   26.7664  -20.9298   -7.7039 C   0  0  0  0  0  0  0  0  0  0  0  0
   25.9624  -20.1264   -8.5230 C   0  0  0  0  0  0  0  0  0  0  0  0
   26.2938  -19.8883   -9.8431 C   0  0  0  0  0  0  0  0  0  0  0  0
   27.4519  -20.4674  -10.3518 C   0  0  0  0  0  0  0  0  0  0  0  0
   25.2393  -20.3018  -13.6805 C   0  0  0  0  0  0  0  0  0  0  0  0
   24.8488  -19.3298  -14.3793 O   0  0  0  0  0  0  0  0  0  0  0  0
   22.0393  -23.2332  -15.9179 C   0  0  0  0  0  0  0  0  0  0  0  0
   22.6258  -22.0317  -15.2349 C   0  0  0  0  0  0  0  0  0  0  0  0
   22.1205  -21.8252  -13.8267 C   0  0  2  0  0  0  0  0  0  0  0  0
   20.6245  -21.5293  -13.9573 C   0  0  0  0  0  0  0  0  0  0  0  0
   22.8513  -20.7189  -13.1595 C   0  0  2  0  0  0  0  0  0  0  0  0
   24.2710  -21.0529  -12.9601 N   0  0  0  0  0  0  0  0  0  0  0  0
   22.3366  -20.3815  -11.7938 C   0  0  0  0  0  0  0  0  0  0  0  0
   21.4015  -19.3833  -11.5514 O   0  0  0  0  0  0  0  0  0  0  0  0
   22.7434  -21.0048  -10.7842 O   0  0  0  0  0  0  0  0  0  0  0  0
  2  1  1  0
  3  2  1  0
  4  3  2  0
  5  3  1  0
  6  5  1  0
  6  7  1  6
  8  7  1  0
  9  8  2  0
 10 11  1  0
 10  9  1  0
 11 16  2  0
 12 11  1  0
 12 13  2  0
 13 14  1  0
 14 15  2  0
 16  8  1  0
 16 15  1  0
 17  6  1  0
 17 18  2  0
 20 21  1  0
 20 19  1  0
 21 22  1  6
 23 21  1  0
 23 24  1  1
 24 17  1  0
 25 23  1  0
 26 25  1  0
 27 25  2  0
M  END
$$$$
