GWI.pdb
     RDKit          3D

 27 28  0  0  1  0  0  0  0  0999 V2000
   28.4474  -22.6915  -15.6635 N   0  0  0  0  0  0  0  0  0  0  0  0
   27.8218  -21.4581  -15.2484 C   0  0  0  0  0  0  0  0  0  0  0  0
   26.9062  -21.7120  -14.0648 C   0  0  0  0  0  0  0  0  0  0  0  0
   26.3245  -22.8080  -14.0200 O   0  0  0  0  0  0  0  0  0  0  0  0
   26.7479  -20.7236  -13.0775 N   0  0  0  0  0  0  0  0  0  0  0  0
   25.8188  -20.6718  -12.0071 C   0  0  1  0  0  0  0  0  0  0  0  0
   26.2079  -19.9883  -10.7430 C   0  0  0  0  0  0  0  0  0  0  0  0
   27.4284  -20.5604  -10.1257 C   0  0  0  0  0  0  0  0  0  0  0  0
   28.4078  -21.3305  -10.7238 C   0  0  0  0  0  0  0  0  0  0  0  0
   29.2846  -21.6382   -9.7638 N   0  0  0  0  0  0  0  0  0  0  0  0
   28.9273  -21.1053   -8.5661 C   0  0  0  0  0  0  0  0  0  0  0  0
   29.4982  -21.1467   -7.3128 C   0  0  0  0  0  0  0  0  0  0  0  0
   28.9149  -20.5109   -6.2514 C   0  0  0  0  0  0  0  0  0  0  0  0
   27.7188  -19.8116   -6.4592 C   0  0  0  0  0  0  0  0  0  0  0  0
   27.1275  -19.7547   -7.7067 C   0  0  0  0  0  0  0  0  0  0  0  0
   27.7460  -20.4122   -8.7652 C   0  0  0  0  0  0  0  0  0  0  0  0
   24.4410  -20.4300  -12.4711 C   0  0  0  0  0  0  0  0  0  0  0  0
   24.2199  -19.3546  -13.0879 O   0  0  0  0  0  0  0  0  0  0  0  0
   20.3841  -22.3888  -16.0945 C   0  0  0  0  0  0  0  0  0  0  0  0
   20.5827  -21.6396  -14.8086 C   0  0  0  0  0  0  0  0  0  0  0  0
   21.9404  -21.8541  -14.1829 C   0  0  2  0  0  0  0  0  0  0  0  0
   22.0403  -23.3555  -13.9028 C   0  0  0  0  0  0  0  0  0  0  0  0
   22.0868  -21.0456  -12.9468 C   0  0  2  0  0  0  0  0  0  0  0  0
   23.3596  -21.3292  -12.2640 N   0  0  0  0  0  0  0  0  0  0  0  0
   21.0289  -21.3034  -11.9181 C   0  0  0  0  0  0  0  0  0  0  0  0
   19.7551  -20.7521  -11.9728 O   0  0  0  0  0  0  0  0  0  0  0  0
   21.2591  -22.0485  -10.9357 O   0  0  0  0  0  0  0  0  0  0  0  0
  2  1  1  0
  3  2  1  0
  4  3  2  0
  5  3  1  0
  6  5  1  0
  6  7  1  1
  8  7  1  0
  9  8  2  0
 10 11  1  0
 10  9  1  0
 11 16  2  0
 12 11  1  0
 12 13  2  0
 13 14  1  0
 14 15  2  0
 16  8  1  0
 16 15  1  0
 17  6  1  0
 17 18  2  0
 20 21  1  0
 20 19  1  0
 21 22  1  1
 23 21  1  0
 23 24  1  1
 24 17  1  0
 25 23  1  0
 26 25  1  0
 27 25  2  0
M  END
$$$$
