GWI.pdb
     RDKit          3D

 27 28  0  0  1  0  0  0  0  0999 V2000
   27.1099  -25.3433  -16.2330 N   0  0  0  0  0  0  0  0  0  0  0  0
   26.8125  -23.9499  -16.4678 C   0  0  0  0  0  0  0  0  0  0  0  0
   25.8680  -23.4323  -15.3982 C   0  0  0  0  0  0  0  0  0  0  0  0
   25.3687  -24.2677  -14.6273 O   0  0  0  0  0  0  0  0  0  0  0  0
   25.5935  -22.0560  -15.3132 N   0  0  0  0  0  0  0  0  0  0  0  0
   24.7295  -21.3716  -14.4206 C   0  0  1  0  0  0  0  0  0  0  0  0
   25.2172  -20.1388  -13.7434 C   0  0  0  0  0  0  0  0  0  0  0  0
   25.9799  -20.4205  -12.5036 C   0  0  0  0  0  0  0  0  0  0  0  0
   27.3300  -20.6856  -12.3726 C   0  0  0  0  0  0  0  0  0  0  0  0
   27.5461  -20.9098  -11.0734 N   0  0  0  0  0  0  0  0  0  0  0  0
   26.4029  -20.8027  -10.3470 C   0  0  0  0  0  0  0  0  0  0  0  0
   26.1273  -20.9444   -9.0045 C   0  0  0  0  0  0  0  0  0  0  0  0
   24.8564  -20.7829   -8.5251 C   0  0  0  0  0  0  0  0  0  0  0  0
   23.8310  -20.4690   -9.4266 C   0  0  0  0  0  0  0  0  0  0  0  0
   24.0824  -20.3207  -10.7771 C   0  0  0  0  0  0  0  0  0  0  0  0
   25.3857  -20.4917  -11.2325 C   0  0  0  0  0  0  0  0  0  0  0  0
   23.3386  -21.3312  -14.9062 C   0  0  0  0  0  0  0  0  0  0  0  0
   23.1285  -20.7605  -16.0089 O   0  0  0  0  0  0  0  0  0  0  0  0
   20.6493  -25.1719  -16.5605 C   0  0  0  0  0  0  0  0  0  0  0  0
   21.1088  -23.7760  -16.2534 C   0  0  0  0  0  0  0  0  0  0  0  0
   20.3319  -23.1103  -15.1423 C   0  0  2  0  0  0  0  0  0  0  0  0
   18.8875  -23.0153  -15.6396 C   0  0  0  0  0  0  0  0  0  0  0  0
   20.9009  -21.7768  -14.8246 C   0  0  2  0  0  0  0  0  0  0  0  0
   22.2333  -21.8912  -14.2095 N   0  0  0  0  0  0  0  0  0  0  0  0
   20.0896  -20.9822  -13.8478 C   0  0  0  0  0  0  0  0  0  0  0  0
   19.0739  -20.1120  -14.2227 O   0  0  0  0  0  0  0  0  0  0  0  0
   20.3030  -21.0727  -12.6150 O   0  0  0  0  0  0  0  0  0  0  0  0
  2  1  1  0
  3  2  1  0
  4  3  2  0
  5  3  1  0
  6  5  1  0
  6  7  1  6
  8  7  1  0
  9  8  2  0
 10 11  1  0
 10  9  1  0
 11 16  2  0
 12 11  1  0
 12 13  2  0
 13 14  1  0
 14 15  2  0
 16  8  1  0
 16 15  1  0
 17  6  1  0
 17 18  2  0
 20 21  1  0
 20 19  1  0
 21 22  1  6
 23 21  1  0
 23 24  1  1
 24 17  1  0
 25 23  1  0
 26 25  1  0
 27 25  2  0
M  END
$$$$
