GWI.pdb
     RDKit          3D

 27 28  0  0  1  0  0  0  0  0999 V2000
   28.6631  -21.5224  -14.3273 N   0  0  0  0  0  0  0  0  0  0  0  0
   28.3998  -20.5235  -13.3184 C   0  0  0  0  0  0  0  0  0  0  0  0
   27.3686  -21.0399  -12.3317 C   0  0  0  0  0  0  0  0  0  0  0  0
   26.7227  -22.0485  -12.6592 O   0  0  0  0  0  0  0  0  0  0  0  0
   27.1799  -20.3782  -11.1057 N   0  0  0  0  0  0  0  0  0  0  0  0
   26.1146  -20.5044  -10.1777 C   0  0  1  0  0  0  0  0  0  0  0  0
   26.3194  -20.0519   -8.7744 C   0  0  0  0  0  0  0  0  0  0  0  0
   27.5818  -20.5541   -8.1808 C   0  0  0  0  0  0  0  0  0  0  0  0
   28.5035  -21.4194   -8.7391 C   0  0  0  0  0  0  0  0  0  0  0  0
   29.4531  -21.6049   -7.8179 N   0  0  0  0  0  0  0  0  0  0  0  0
   29.1984  -20.9015   -6.6836 C   0  0  0  0  0  0  0  0  0  0  0  0
   29.8691  -20.7762   -5.4865 C   0  0  0  0  0  0  0  0  0  0  0  0
   29.3788  -19.9859   -4.4835 C   0  0  0  0  0  0  0  0  0  0  0  0
   28.1751  -19.3004   -4.6930 C   0  0  0  0  0  0  0  0  0  0  0  0
   27.4847  -19.4091   -5.8849 C   0  0  0  0  0  0  0  0  0  0  0  0
   28.0101  -20.2212   -6.8849 C   0  0  0  0  0  0  0  0  0  0  0  0
   24.8081  -20.1758  -10.7753 C   0  0  0  0  0  0  0  0  0  0  0  0
   24.5846  -18.9664  -11.0454 O   0  0  0  0  0  0  0  0  0  0  0  0
   22.0399  -21.4715  -15.6907 C   0  0  0  0  0  0  0  0  0  0  0  0
   21.8107  -21.0300  -14.2741 C   0  0  0  0  0  0  0  0  0  0  0  0
   22.9539  -21.3560  -13.3426 C   0  0  2  0  0  0  0  0  0  0  0  0
   23.0219  -22.8839  -13.2813 C   0  0  0  0  0  0  0  0  0  0  0  0
   22.7335  -20.7538  -12.0040 C   0  0  2  0  0  0  0  0  0  0  0  0
   23.7969  -21.1336  -11.0597 N   0  0  0  0  0  0  0  0  0  0  0  0
   21.4581  -21.1796  -11.3438 C   0  0  0  0  0  0  0  0  0  0  0  0
   21.4111  -21.8756  -10.1426 O   0  0  0  0  0  0  0  0  0  0  0  0
   20.3483  -20.9181  -11.8666 O   0  0  0  0  0  0  0  0  0  0  0  0
  2  1  1  0
  3  2  1  0
  4  3  2  0
  5  3  1  0
  6  5  1  0
  6  7  1  1
  8  7  1  0
  9  8  2  0
 10 11  1  0
 10  9  1  0
 11 16  2  0
 12 11  1  0
 12 13  2  0
 13 14  1  0
 14 15  2  0
 16  8  1  0
 16 15  1  0
 17  6  1  0
 17 18  2  0
 20 21  1  0
 20 19  1  0
 21 22  1  1
 23 21  1  0
 23 24  1  1
 24 17  1  0
 25 23  1  0
 26 25  1  0
 27 25  2  0
M  END
$$$$
