QNI.pdb
     RDKit          3D

 26 25  0  0  1  0  0  0  0  0999 V2000
   26.4601  -15.1678  -14.9585 N   0  0  0  0  0  0  0  0  0  0  0  0
   26.0697  -15.9267  -16.1205 C   0  0  0  0  0  0  0  0  0  0  0  0
   26.5500  -17.0674  -16.1995 O   0  0  0  0  0  0  0  0  0  0  0  0
   25.1698  -15.3505  -17.1145 C   0  0  0  0  0  0  0  0  0  0  0  0
   24.7398  -13.9363  -16.9081 C   0  0  0  0  0  0  0  0  0  0  0  0
   23.7148  -13.4223  -17.8732 C   0  0  2  0  0  0  0  0  0  0  0  0
   23.9900  -13.7425  -19.2203 N   0  0  0  0  0  0  0  0  0  0  0  0
   23.4568  -11.9488  -17.6311 C   0  0  0  0  0  0  0  0  0  0  0  0
   23.2697  -11.5953  -16.4473 O   0  0  0  0  0  0  0  0  0  0  0  0
   24.2001   -6.5716  -19.4330 N   0  0  0  0  0  0  0  0  0  0  0  0
   23.0826   -7.4152  -19.6354 C   0  0  0  0  0  0  0  0  0  0  0  0
   21.9223   -6.9149  -19.5589 O   0  0  0  0  0  0  0  0  0  0  0  0
   23.3033   -8.8632  -19.9315 C   0  0  0  0  0  0  0  0  0  0  0  0
   23.1638   -9.6103  -18.6158 C   0  0  2  0  0  0  0  0  0  0  0  0
   23.4253  -11.0093  -18.6744 N   0  0  0  0  0  0  0  0  0  0  0  0
   21.9800   -9.2224  -17.8315 C   0  0  0  0  0  0  0  0  0  0  0  0
   20.8681   -9.6737  -18.1755 O   0  0  0  0  0  0  0  0  0  0  0  0
   18.9115  -10.0815  -13.3717 C   0  0  0  0  0  0  0  0  0  0  0  0
   19.6968   -8.8462  -13.7475 C   0  0  0  0  0  0  0  0  0  0  0  0
   20.8528   -9.1568  -14.6695 C   0  0  2  0  0  0  0  0  0  0  0  0
   22.0613   -9.4557  -13.8006 C   0  0  0  0  0  0  0  0  0  0  0  0
   21.0975   -8.0945  -15.6980 C   0  0  2  0  0  0  0  0  0  0  0  0
   22.0514   -8.3660  -16.7104 N   0  0  0  0  0  0  0  0  0  0  0  0
   21.1314   -6.7448  -15.1516 C   0  0  0  0  0  0  0  0  0  0  0  0
   22.1649   -5.8299  -15.4362 O   0  0  0  0  0  0  0  0  0  0  0  0
   20.2312   -6.3354  -14.3955 O   0  0  0  0  0  0  0  0  0  0  0  0
  1  2  1  0
  2  3  2  0
  4  2  1  0
  4  5  1  0
  6  5  1  0
  6  7  1  6
  8  6  1  0
  8  9  2  0
 10 11  1  0
 11 13  1  0
 12 11  2  0
 14 13  1  6
 14 15  1  0
 15  8  1  0
 16 14  1  0
 17 16  2  0
 18 19  1  0
 19 20  1  0
 20 22  1  0
 20 21  1  1
 22 23  1  1
 22 24  1  0
 23 16  1  0
 24 25  1  0
 26 24  2  0
M  END
$$$$
