QNI.pdb
     RDKit          3D

 26 25  0  0  1  0  0  0  0  0999 V2000
   31.4032  -23.1017  -17.2054 N   0  0  0  0  0  0  0  0  0  0  0  0
   30.6710  -23.4066  -18.4095 C   0  0  0  0  0  0  0  0  0  0  0  0
   31.1542  -24.3046  -19.1152 O   0  0  0  0  0  0  0  0  0  0  0  0
   29.4494  -22.6793  -18.7388 C   0  0  0  0  0  0  0  0  0  0  0  0
   28.9698  -21.6676  -17.7518 C   0  0  0  0  0  0  0  0  0  0  0  0
   28.1751  -22.2087  -16.6020 C   0  0  2  0  0  0  0  0  0  0  0  0
   27.2135  -23.1715  -16.9776 N   0  0  0  0  0  0  0  0  0  0  0  0
   27.6164  -21.0733  -15.7684 C   0  0  0  0  0  0  0  0  0  0  0  0
   28.0230  -19.9226  -16.0366 O   0  0  0  0  0  0  0  0  0  0  0  0
   23.3320  -19.0995  -14.1458 N   0  0  0  0  0  0  0  0  0  0  0  0
   23.3856  -19.6884  -15.4310 C   0  0  0  0  0  0  0  0  0  0  0  0
   22.4358  -19.4706  -16.2389 O   0  0  0  0  0  0  0  0  0  0  0  0
   24.5547  -20.5454  -15.7947 C   0  0  0  0  0  0  0  0  0  0  0  0
   25.4083  -20.6829  -14.5453 C   0  0  2  0  0  0  0  0  0  0  0  0
   26.6853  -21.2838  -14.7384 N   0  0  0  0  0  0  0  0  0  0  0  0
   24.6652  -21.1474  -13.3625 C   0  0  0  0  0  0  0  0  0  0  0  0
   24.0881  -22.2527  -13.4223 O   0  0  0  0  0  0  0  0  0  0  0  0
   26.9985  -20.0656   -8.5708 C   0  0  0  0  0  0  0  0  0  0  0  0
   26.2291  -20.6652   -9.7251 C   0  0  0  0  0  0  0  0  0  0  0  0
   24.7595  -20.3172   -9.6807 C   0  0  2  0  0  0  0  0  0  0  0  0
   24.1916  -20.9000   -8.3991 C   0  0  0  0  0  0  0  0  0  0  0  0
   24.0118  -20.7278  -10.9131 C   0  0  2  0  0  0  0  0  0  0  0  0
   24.5807  -20.3975  -12.1684 N   0  0  0  0  0  0  0  0  0  0  0  0
   22.5699  -20.5482  -10.8123 C   0  0  0  0  0  0  0  0  0  0  0  0
   21.7242  -21.4854  -10.1859 O   0  0  0  0  0  0  0  0  0  0  0  0
   22.0140  -19.5396  -11.2849 O   0  0  0  0  0  0  0  0  0  0  0  0
  1  2  1  0
  2  3  2  0
  4  2  1  0
  4  5  1  0
  6  5  1  0
  6  7  1  6
  8  6  1  0
  8  9  2  0
 10 11  1  0
 11 13  1  0
 12 11  2  0
 14 13  1  6
 14 15  1  0
 15  8  1  0
 16 14  1  0
 17 16  2  0
 18 19  1  0
 19 20  1  0
 20 22  1  0
 20 21  1  1
 22 23  1  6
 22 24  1  0
 23 16  1  0
 24 25  1  0
 26 24  2  0
M  END
$$$$
