QNI.pdb
     RDKit          3D

 26 25  0  0  1  0  0  0  0  0999 V2000
   32.5277  -25.2961  -15.0961 N   0  0  0  0  0  0  0  0  0  0  0  0
   32.6066  -25.5466  -16.5138 C   0  0  0  0  0  0  0  0  0  0  0  0
   33.1861  -26.5934  -16.8397 O   0  0  0  0  0  0  0  0  0  0  0  0
   32.0322  -24.6021  -17.4667 C   0  0  0  0  0  0  0  0  0  0  0  0
   31.3161  -23.4181  -16.9074 C   0  0  0  0  0  0  0  0  0  0  0  0
   29.9025  -23.6605  -16.4722 C   0  0  2  0  0  0  0  0  0  0  0  0
   29.0522  -24.0914  -17.5134 N   0  0  0  0  0  0  0  0  0  0  0  0
   29.3769  -22.4655  -15.7028 C   0  0  0  0  0  0  0  0  0  0  0  0
   30.1195  -21.9942  -14.8153 O   0  0  0  0  0  0  0  0  0  0  0  0
   27.0129  -17.6333  -14.8222 N   0  0  0  0  0  0  0  0  0  0  0  0
   26.2692  -18.7076  -15.3647 C   0  0  0  0  0  0  0  0  0  0  0  0
   25.0340  -18.7860  -15.0995 O   0  0  0  0  0  0  0  0  0  0  0  0
   26.9595  -19.7121  -16.2293 C   0  0  0  0  0  0  0  0  0  0  0  0
   27.4736  -20.8078  -15.3108 C   0  0  2  0  0  0  0  0  0  0  0  0
   28.1173  -21.9002  -15.9600 N   0  0  0  0  0  0  0  0  0  0  0  0
   26.5358  -21.1761  -14.2375 C   0  0  0  0  0  0  0  0  0  0  0  0
   25.6220  -21.9847  -14.5014 O   0  0  0  0  0  0  0  0  0  0  0  0
   28.4908  -21.1646   -9.0280 C   0  0  0  0  0  0  0  0  0  0  0  0
   27.7324  -21.5300  -10.2831 C   0  0  0  0  0  0  0  0  0  0  0  0
   26.4585  -20.7327  -10.4392 C   0  0  2  0  0  0  0  0  0  0  0  0
   25.5447  -21.1029   -9.2848 C   0  0  0  0  0  0  0  0  0  0  0  0
   25.8203  -20.8859  -11.7867 C   0  0  2  0  0  0  0  0  0  0  0  0
   26.6288  -20.6555  -12.9277 N   0  0  0  0  0  0  0  0  0  0  0  0
   24.4673  -20.3517  -11.8598 C   0  0  0  0  0  0  0  0  0  0  0  0
   23.3260  -21.1118  -11.5345 O   0  0  0  0  0  0  0  0  0  0  0  0
   24.2589  -19.1785  -12.2201 O   0  0  0  0  0  0  0  0  0  0  0  0
  1  2  1  0
  2  3  2  0
  4  2  1  0
  4  5  1  0
  6  5  1  0
  6  7  1  6
  8  6  1  0
  8  9  2  0
 10 11  1  0
 11 13  1  0
 12 11  2  0
 14 13  1  6
 14 15  1  0
 15  8  1  0
 16 14  1  0
 17 16  2  0
 18 19  1  0
 19 20  1  0
 20 22  1  0
 20 21  1  1
 22 23  1  6
 22 24  1  0
 23 16  1  0
 24 25  1  0
 26 24  2  0
M  END
$$$$
