QNI.pdb
     RDKit          3D

 26 25  0  0  1  0  0  0  0  0999 V2000
   26.1755  -22.8780  -15.3297 N   0  0  0  0  0  0  0  0  0  0  0  0
   26.8602  -21.6470  -15.6373 C   0  0  0  0  0  0  0  0  0  0  0  0
   28.0685  -21.7578  -15.8935 O   0  0  0  0  0  0  0  0  0  0  0  0
   26.1410  -20.3772  -15.6323 C   0  0  0  0  0  0  0  0  0  0  0  0
   24.6749  -20.4238  -15.3563 C   0  0  0  0  0  0  0  0  0  0  0  0
   23.8259  -20.9918  -16.4530 C   0  0  2  0  0  0  0  0  0  0  0  0
   23.9216  -20.2850  -17.6713 N   0  0  0  0  0  0  0  0  0  0  0  0
   22.4044  -21.1920  -15.9675 C   0  0  0  0  0  0  0  0  0  0  0  0
   21.6126  -20.2393  -16.1304 O   0  0  0  0  0  0  0  0  0  0  0  0
   17.9739  -24.4961  -15.4246 N   0  0  0  0  0  0  0  0  0  0  0  0
   18.9712  -24.3959  -14.4262 C   0  0  0  0  0  0  0  0  0  0  0  0
   18.6207  -24.4435  -13.2108 O   0  0  0  0  0  0  0  0  0  0  0  0
   20.4003  -24.2374  -14.8332 C   0  0  0  0  0  0  0  0  0  0  0  0
   20.6771  -22.7452  -14.9054 C   0  0  2  0  0  0  0  0  0  0  0  0
   21.9779  -22.3843  -15.3603 N   0  0  0  0  0  0  0  0  0  0  0  0
   20.1836  -21.9894  -13.7426 C   0  0  0  0  0  0  0  0  0  0  0  0
   20.8690  -21.9938  -12.6993 O   0  0  0  0  0  0  0  0  0  0  0  0
   20.1889  -17.0495  -13.5047 C   0  0  0  0  0  0  0  0  0  0  0  0
   20.0248  -18.5378  -13.2999 C   0  0  0  0  0  0  0  0  0  0  0  0
   18.5990  -18.9215  -12.9794 C   0  0  2  0  0  0  0  0  0  0  0  0
   18.1609  -18.0917  -11.7859 C   0  0  0  0  0  0  0  0  0  0  0  0
   18.4058  -20.3960  -12.7923 C   0  0  2  0  0  0  0  0  0  0  0  0
   18.9728  -21.2619  -13.7603 N   0  0  0  0  0  0  0  0  0  0  0  0
   17.0730  -20.7598  -12.3309 C   0  0  0  0  0  0  0  0  0  0  0  0
   16.8144  -21.2173  -11.0233 O   0  0  0  0  0  0  0  0  0  0  0  0
   16.0878  -20.6802  -13.0876 O   0  0  0  0  0  0  0  0  0  0  0  0
  1  2  1  0
  2  3  2  0
  4  2  1  0
  4  5  1  0
  6  5  1  0
  6  7  1  6
  8  6  1  0
  8  9  2  0
 10 11  1  0
 11 13  1  0
 12 11  2  0
 14 13  1  1
 14 15  1  0
 15  8  1  0
 16 14  1  0
 17 16  2  0
 18 19  1  0
 19 20  1  0
 20 22  1  0
 20 21  1  1
 22 23  1  6
 22 24  1  0
 23 16  1  0
 24 25  1  0
 26 24  2  0
M  END
$$$$
