QNI.pdb
     RDKit          3D

 26 25  0  0  1  0  0  0  0  0999 V2000
   35.6036   -4.8630  -14.2393 N   0  0  0  0  0  0  0  0  0  0  0  0
   36.3085   -6.1145  -14.3648 C   0  0  0  0  0  0  0  0  0  0  0  0
   37.4563   -6.1302  -13.8954 O   0  0  0  0  0  0  0  0  0  0  0  0
   35.6765   -7.2599  -15.0117 C   0  0  0  0  0  0  0  0  0  0  0  0
   34.2691   -7.0899  -15.4783 C   0  0  0  0  0  0  0  0  0  0  0  0
   33.6944   -8.2451  -16.2411 C   0  0  2  0  0  0  0  0  0  0  0  0
   34.5195   -8.7002  -17.2922 N   0  0  0  0  0  0  0  0  0  0  0  0
   32.2713   -7.9405  -16.6633 C   0  0  0  0  0  0  0  0  0  0  0  0
   31.4658   -7.6384  -15.7572 O   0  0  0  0  0  0  0  0  0  0  0  0
   29.3941   -4.3548  -18.7993 N   0  0  0  0  0  0  0  0  0  0  0  0
   30.4388   -5.2879  -18.6006 C   0  0  0  0  0  0  0  0  0  0  0  0
   31.2803   -5.0705  -17.6803 O   0  0  0  0  0  0  0  0  0  0  0  0
   30.5178   -6.4952  -19.4777 C   0  0  0  0  0  0  0  0  0  0  0  0
   30.5776   -7.7053  -18.5608 C   0  0  2  0  0  0  0  0  0  0  0  0
   31.8576   -7.9902  -18.0044 N   0  0  0  0  0  0  0  0  0  0  0  0
   29.8345   -8.8725  -19.0631 C   0  0  0  0  0  0  0  0  0  0  0  0
   30.4020   -9.6304  -19.8766 O   0  0  0  0  0  0  0  0  0  0  0  0
   27.2446  -12.1862  -15.7040 C   0  0  0  0  0  0  0  0  0  0  0  0
   27.9512  -11.5882  -16.8986 C   0  0  0  0  0  0  0  0  0  0  0  0
   26.9882  -10.9902  -17.8976 C   0  0  2  0  0  0  0  0  0  0  0  0
   26.0737  -12.1049  -18.3727 C   0  0  0  0  0  0  0  0  0  0  0  0
   27.6665  -10.2509  -19.0110 C   0  0  2  0  0  0  0  0  0  0  0  0
   28.5126   -9.1686  -18.6626 N   0  0  0  0  0  0  0  0  0  0  0  0
   26.8172  -10.0325  -20.1740 C   0  0  0  0  0  0  0  0  0  0  0  0
   26.4556   -8.7478  -20.6268 O   0  0  0  0  0  0  0  0  0  0  0  0
   26.3666  -10.9904  -20.8288 O   0  0  0  0  0  0  0  0  0  0  0  0
  1  2  1  0
  2  3  2  0
  4  2  1  0
  4  5  1  0
  6  5  1  0
  6  7  1  6
  8  6  1  0
  8  9  2  0
 10 11  1  0
 11 13  1  0
 12 11  2  0
 14 13  1  6
 14 15  1  0
 15  8  1  0
 16 14  1  0
 17 16  2  0
 18 19  1  0
 19 20  1  0
 20 22  1  0
 20 21  1  6
 22 23  1  1
 22 24  1  0
 23 16  1  0
 24 25  1  0
 26 24  2  0
M  END
$$$$
