QNI.pdb
     RDKit          3D

 26 25  0  0  1  0  0  0  0  0999 V2000
   28.8154  -21.0592  -15.8781 N   0  0  0  0  0  0  0  0  0  0  0  0
   28.6623  -21.5339  -17.2309 C   0  0  0  0  0  0  0  0  0  0  0  0
   29.7088  -21.6089  -17.8921 O   0  0  0  0  0  0  0  0  0  0  0  0
   27.3443  -21.8880  -17.7478 C   0  0  0  0  0  0  0  0  0  0  0  0
   26.2015  -21.8490  -16.7886 C   0  0  0  0  0  0  0  0  0  0  0  0
   26.3622  -22.6827  -15.5534 C   0  0  2  0  0  0  0  0  0  0  0  0
   26.5948  -24.0502  -15.8159 N   0  0  0  0  0  0  0  0  0  0  0  0
   25.2184  -22.4260  -14.5932 C   0  0  0  0  0  0  0  0  0  0  0  0
   24.0901  -22.8394  -14.9355 O   0  0  0  0  0  0  0  0  0  0  0  0
   27.3612  -20.9933  -10.5709 N   0  0  0  0  0  0  0  0  0  0  0  0
   26.0614  -21.5290  -10.7295 C   0  0  0  0  0  0  0  0  0  0  0  0
   25.8743  -22.7545  -10.4738 O   0  0  0  0  0  0  0  0  0  0  0  0
   24.9543  -20.6379  -11.1917 C   0  0  0  0  0  0  0  0  0  0  0  0
   24.4162  -21.2334  -12.4817 C   0  0  2  0  0  0  0  0  0  0  0  0
   25.3976  -21.7566  -13.3717 N   0  0  0  0  0  0  0  0  0  0  0  0
   23.3562  -20.4306  -13.1135 C   0  0  0  0  0  0  0  0  0  0  0  0
   23.6564  -19.3085  -13.5707 O   0  0  0  0  0  0  0  0  0  0  0  0
   21.4448  -21.2589  -17.5407 C   0  0  0  0  0  0  0  0  0  0  0  0
   21.7653  -20.6875  -16.1788 C   0  0  0  0  0  0  0  0  0  0  0  0
   20.5737  -20.7089  -15.2501 C   0  0  2  0  0  0  0  0  0  0  0  0
   19.4740  -19.8890  -15.9005 C   0  0  0  0  0  0  0  0  0  0  0  0
   20.8997  -20.2790  -13.8517 C   0  0  2  0  0  0  0  0  0  0  0  0
   22.0207  -20.8772  -13.2239 N   0  0  0  0  0  0  0  0  0  0  0  0
   19.7286  -20.1006  -13.0041 C   0  0  0  0  0  0  0  0  0  0  0  0
   18.8345  -19.0213  -13.1520 O   0  0  0  0  0  0  0  0  0  0  0  0
   19.4641  -20.9099  -12.0961 O   0  0  0  0  0  0  0  0  0  0  0  0
  1  2  1  0
  2  3  2  0
  4  2  1  0
  4  5  1  0
  6  5  1  0
  6  7  1  6
  8  6  1  0
  8  9  2  0
 10 11  1  0
 11 13  1  0
 12 11  2  0
 14 13  1  1
 14 15  1  0
 15  8  1  0
 16 14  1  0
 17 16  2  0
 18 19  1  0
 19 20  1  0
 20 22  1  0
 20 21  1  6
 22 23  1  1
 22 24  1  0
 23 16  1  0
 24 25  1  0
 26 24  2  0
M  END
$$$$
