QNI.pdb
     RDKit          3D

 26 25  0  0  1  0  0  0  0  0999 V2000
   18.1102  -14.1256  -18.8400 N   0  0  0  0  0  0  0  0  0  0  0  0
   16.7375  -13.8184  -19.1565 C   0  0  0  0  0  0  0  0  0  0  0  0
   16.0389  -14.7849  -19.4968 O   0  0  0  0  0  0  0  0  0  0  0  0
   16.2461  -12.4468  -19.0722 C   0  0  0  0  0  0  0  0  0  0  0  0
   17.2111  -11.4023  -18.6190 C   0  0  0  0  0  0  0  0  0  0  0  0
   17.1622  -11.0628  -17.1600 C   0  0  2  0  0  0  0  0  0  0  0  0
   15.8679  -11.1370  -16.6013 N   0  0  0  0  0  0  0  0  0  0  0  0
   17.8696   -9.7478  -16.9021 C   0  0  0  0  0  0  0  0  0  0  0  0
   19.0650   -9.6705  -17.2576 O   0  0  0  0  0  0  0  0  0  0  0  0
   16.8371   -3.8960  -15.1744 N   0  0  0  0  0  0  0  0  0  0  0  0
   17.3774   -4.9394  -15.9623 C   0  0  0  0  0  0  0  0  0  0  0  0
   18.4617   -4.7332  -16.5822 O   0  0  0  0  0  0  0  0  0  0  0  0
   16.6565   -6.2462  -16.0395 C   0  0  0  0  0  0  0  0  0  0  0  0
   17.7161   -7.3344  -16.0799 C   0  0  2  0  0  0  0  0  0  0  0  0
   17.2296   -8.6561  -16.2933 N   0  0  0  0  0  0  0  0  0  0  0  0
   18.7474   -7.2027  -15.0378 C   0  0  0  0  0  0  0  0  0  0  0  0
   18.4162   -7.3943  -13.8496 O   0  0  0  0  0  0  0  0  0  0  0  0
   23.8680   -9.7233  -13.7703 C   0  0  0  0  0  0  0  0  0  0  0  0
   23.1391   -8.4056  -13.6423 C   0  0  0  0  0  0  0  0  0  0  0  0
   22.1132   -8.2062  -14.7336 C   0  0  2  0  0  0  0  0  0  0  0  0
   22.8503   -8.2228  -16.0607 C   0  0  0  0  0  0  0  0  0  0  0  0
   21.2582   -6.9916  -14.5337 C   0  0  2  0  0  0  0  0  0  0  0  0
   20.0898   -6.8716  -15.3269 N   0  0  0  0  0  0  0  0  0  0  0  0
   22.0178   -5.7628  -14.3480 C   0  0  0  0  0  0  0  0  0  0  0  0
   21.8342   -4.6208  -15.1532 O   0  0  0  0  0  0  0  0  0  0  0  0
   22.8778   -5.6687  -13.4529 O   0  0  0  0  0  0  0  0  0  0  0  0
  1  2  1  0
  2  3  2  0
  4  2  1  0
  4  5  1  0
  6  5  1  0
  6  7  1  6
  8  6  1  0
  8  9  2  0
 10 11  1  0
 11 13  1  0
 12 11  2  0
 14 13  1  1
 14 15  1  0
 15  8  1  0
 16 14  1  0
 17 16  2  0
 18 19  1  0
 19 20  1  0
 20 22  1  0
 20 21  1  6
 22 23  1  6
 22 24  1  0
 23 16  1  0
 24 25  1  0
 26 24  2  0
M  END
$$$$
