QNI.pdb
     RDKit          3D

 26 25  0  0  1  0  0  0  0  0999 V2000
   12.3558   -9.9890  -14.1556 N   0  0  0  0  0  0  0  0  0  0  0  0
   12.9629  -10.4443  -15.3816 C   0  0  0  0  0  0  0  0  0  0  0  0
   12.2074  -10.4983  -16.3635 O   0  0  0  0  0  0  0  0  0  0  0  0
   14.3751  -10.8104  -15.4183 C   0  0  0  0  0  0  0  0  0  0  0  0
   15.3704   -9.7085  -15.2682 C   0  0  0  0  0  0  0  0  0  0  0  0
   16.5145   -9.9892  -14.3415 C   0  0  2  0  0  0  0  0  0  0  0  0
   16.2676  -11.0429  -13.4351 N   0  0  0  0  0  0  0  0  0  0  0  0
   16.9841   -8.7079  -13.6828 C   0  0  0  0  0  0  0  0  0  0  0  0
   17.2310   -7.7427  -14.4370 O   0  0  0  0  0  0  0  0  0  0  0  0
   18.0538   -5.1327  -10.3883 N   0  0  0  0  0  0  0  0  0  0  0  0
   17.3610   -6.0514   -9.5652 C   0  0  0  0  0  0  0  0  0  0  0  0
   17.0877   -5.7149   -8.3759 O   0  0  0  0  0  0  0  0  0  0  0  0
   16.9747   -7.3840  -10.1204 C   0  0  0  0  0  0  0  0  0  0  0  0
   17.5465   -7.4604  -11.5260 C   0  0  2  0  0  0  0  0  0  0  0  0
   17.1412   -8.5908  -12.2921 N   0  0  0  0  0  0  0  0  0  0  0  0
   18.9772   -7.1234  -11.6078 C   0  0  0  0  0  0  0  0  0  0  0  0
   19.7433   -7.5772  -10.7329 O   0  0  0  0  0  0  0  0  0  0  0  0
   22.6830   -9.3722  -13.7305 C   0  0  0  0  0  0  0  0  0  0  0  0
   21.9846   -8.3042  -12.9208 C   0  0  0  0  0  0  0  0  0  0  0  0
   21.5949   -7.1087  -13.7586 C   0  0  2  0  0  0  0  0  0  0  0  0
   22.8517   -6.6033  -14.4440 C   0  0  0  0  0  0  0  0  0  0  0  0
   20.8626   -6.0529  -12.9870 C   0  0  2  0  0  0  0  0  0  0  0  0
   19.5154   -6.3129  -12.6319 N   0  0  0  0  0  0  0  0  0  0  0  0
   21.1404   -4.6964  -13.4387 C   0  0  0  0  0  0  0  0  0  0  0  0
   22.3779   -4.0570  -13.2244 O   0  0  0  0  0  0  0  0  0  0  0  0
   20.2792   -4.0325  -14.0446 O   0  0  0  0  0  0  0  0  0  0  0  0
  1  2  1  0
  2  3  2  0
  4  2  1  0
  4  5  1  0
  6  5  1  0
  6  7  1  1
  8  6  1  0
  8  9  2  0
 10 11  1  0
 11 13  1  0
 12 11  2  0
 14 13  1  1
 14 15  1  0
 15  8  1  0
 16 14  1  0
 17 16  2  0
 18 19  1  0
 19 20  1  0
 20 22  1  0
 20 21  1  1
 22 23  1  6
 22 24  1  0
 23 16  1  0
 24 25  1  0
 26 24  2  0
M  END
$$$$
