QNI.pdb
     RDKit          3D

 26 25  0  0  1  0  0  0  0  0999 V2000
   17.1743  -17.2853  -20.6030 N   0  0  0  0  0  0  0  0  0  0  0  0
   17.7353  -17.9665  -19.4628 C   0  0  0  0  0  0  0  0  0  0  0  0
   17.9305  -19.1823  -19.6101 O   0  0  0  0  0  0  0  0  0  0  0  0
   18.0346  -17.2355  -18.2356 C   0  0  0  0  0  0  0  0  0  0  0  0
   17.6934  -15.7829  -18.2056 C   0  0  0  0  0  0  0  0  0  0  0  0
   18.6568  -14.9052  -17.4652 C   0  0  2  0  0  0  0  0  0  0  0  0
   19.1189  -15.4625  -16.2532 N   0  0  0  0  0  0  0  0  0  0  0  0
   18.0917  -13.5064  -17.3236 C   0  0  0  0  0  0  0  0  0  0  0  0
   17.2258  -13.1602  -18.1552 O   0  0  0  0  0  0  0  0  0  0  0  0
   16.1458   -8.8292  -16.6950 N   0  0  0  0  0  0  0  0  0  0  0  0
   16.1719   -9.7850  -15.6522 C   0  0  0  0  0  0  0  0  0  0  0  0
   15.9253   -9.4021  -14.4712 O   0  0  0  0  0  0  0  0  0  0  0  0
   16.4884  -11.2097  -15.9737 C   0  0  0  0  0  0  0  0  0  0  0  0
   18.0025  -11.3363  -15.9792 C   0  0  2  0  0  0  0  0  0  0  0  0
   18.5086  -12.6255  -16.3124 N   0  0  0  0  0  0  0  0  0  0  0  0
   18.6612  -10.6752  -14.8408 C   0  0  0  0  0  0  0  0  0  0  0  0
   18.7888  -11.3159  -13.7771 O   0  0  0  0  0  0  0  0  0  0  0  0
   23.8200  -10.2504  -14.1343 C   0  0  0  0  0  0  0  0  0  0  0  0
   22.9381   -9.0954  -14.5491 C   0  0  0  0  0  0  0  0  0  0  0  0
   21.6289   -9.5557  -15.1465 C   0  0  2  0  0  0  0  0  0  0  0  0
   21.7587   -9.4619  -16.6562 C   0  0  0  0  0  0  0  0  0  0  0  0
   20.4360   -8.8330  -14.5977 C   0  0  2  0  0  0  0  0  0  0  0  0
   19.1535   -9.3528  -14.9039 N   0  0  0  0  0  0  0  0  0  0  0  0
   20.5527   -7.3822  -14.6509 C   0  0  0  0  0  0  0  0  0  0  0  0
   19.5203   -6.5485  -15.1256 O   0  0  0  0  0  0  0  0  0  0  0  0
   21.5897   -6.8072  -14.2721 O   0  0  0  0  0  0  0  0  0  0  0  0
  1  2  1  0
  2  3  2  0
  4  2  1  0
  4  5  1  0
  6  5  1  0
  6  7  1  1
  8  6  1  0
  8  9  2  0
 10 11  1  0
 11 13  1  0
 12 11  2  0
 14 13  1  1
 14 15  1  0
 15  8  1  0
 16 14  1  0
 17 16  2  0
 18 19  1  0
 19 20  1  0
 20 22  1  0
 20 21  1  6
 22 23  1  6
 22 24  1  0
 23 16  1  0
 24 25  1  0
 26 24  2  0
M  END
$$$$
