QNI.pdb
     RDKit          3D

 26 25  0  0  1  0  0  0  0  0999 V2000
   15.8395  -10.4333  -18.7687 N   0  0  0  0  0  0  0  0  0  0  0  0
   14.8650  -11.0973  -17.9391 C   0  0  0  0  0  0  0  0  0  0  0  0
   14.2398  -12.0196  -18.4836 O   0  0  0  0  0  0  0  0  0  0  0  0
   14.6582  -10.6771  -16.5569 C   0  0  0  0  0  0  0  0  0  0  0  0
   15.4416   -9.5012  -16.0761 C   0  0  0  0  0  0  0  0  0  0  0  0
   16.5585   -9.8103  -15.1256 C   0  0  2  0  0  0  0  0  0  0  0  0
   16.3161  -10.9362  -14.3092 N   0  0  0  0  0  0  0  0  0  0  0  0
   16.9541   -8.5659  -14.3566 C   0  0  0  0  0  0  0  0  0  0  0  0
   17.0191   -7.4990  -15.0037 O   0  0  0  0  0  0  0  0  0  0  0  0
   17.7052   -5.2730  -10.7114 N   0  0  0  0  0  0  0  0  0  0  0  0
   17.3782   -6.4203   -9.9509 C   0  0  0  0  0  0  0  0  0  0  0  0
   17.2344   -6.2984   -8.6992 O   0  0  0  0  0  0  0  0  0  0  0  0
   17.2133   -7.7342  -10.6433 C   0  0  0  0  0  0  0  0  0  0  0  0
   17.5449   -7.5070  -12.1086 C   0  0  2  0  0  0  0  0  0  0  0  0
   17.2384   -8.5901  -12.9816 N   0  0  0  0  0  0  0  0  0  0  0  0
   18.8512   -6.8666  -12.3329 C   0  0  0  0  0  0  0  0  0  0  0  0
   19.2397   -6.0106  -11.5115 O   0  0  0  0  0  0  0  0  0  0  0  0
   23.1913   -9.8029  -13.5639 C   0  0  0  0  0  0  0  0  0  0  0  0
   22.2826   -8.6918  -13.0911 C   0  0  0  0  0  0  0  0  0  0  0  0
   22.0126   -7.6697  -14.1706 C   0  0  2  0  0  0  0  0  0  0  0  0
   23.3411   -7.0346  -14.5395 C   0  0  0  0  0  0  0  0  0  0  0  0
   20.9519   -6.6775  -13.8006 C   0  0  2  0  0  0  0  0  0  0  0  0
   19.6790   -7.1812  -13.4333 N   0  0  0  0  0  0  0  0  0  0  0  0
   20.9358   -5.4921  -14.6468 C   0  0  0  0  0  0  0  0  0  0  0  0
   19.8408   -5.1518  -15.4662 O   0  0  0  0  0  0  0  0  0  0  0  0
   21.9078   -4.7153  -14.6820 O   0  0  0  0  0  0  0  0  0  0  0  0
  1  2  1  0
  2  3  2  0
  4  2  1  0
  4  5  1  0
  6  5  1  0
  6  7  1  1
  8  6  1  0
  8  9  2  0
 10 11  1  0
 11 13  1  0
 12 11  2  0
 14 13  1  1
 14 15  1  0
 15  8  1  0
 16 14  1  0
 17 16  2  0
 18 19  1  0
 19 20  1  0
 20 22  1  0
 20 21  1  1
 22 23  1  6
 22 24  1  0
 23 16  1  0
 24 25  1  0
 26 24  2  0
M  END
$$$$
