GKM.pdb
     RDKit          3D

 22 21  0  0  1  0  0  0  0  0999 V2000
   18.3247  -11.7113    4.2180 N   0  0  0  0  0  0  0  0  0  0  0  0
   18.4969  -12.8047    3.2913 C   0  0  0  0  0  0  0  0  0  0  0  0
   18.2300  -14.0890    4.0078 C   0  0  0  0  0  0  0  0  0  0  0  0
   18.0237  -14.1245    5.2577 O   0  0  0  0  0  0  0  0  0  0  0  0
   18.1931  -15.3324    3.3325 N   0  0  0  0  0  0  0  0  0  0  0  0
   17.8237  -16.5749    4.0406 C   0  0  1  0  0  0  0  0  0  0  0  0
   17.3691  -17.5457    2.9640 C   0  0  0  0  0  0  0  0  0  0  0  0
   16.9032  -18.8617    3.4683 C   0  0  0  0  0  0  0  0  0  0  0  0
   16.3633  -19.7339    2.3310 C   0  0  0  0  0  0  0  0  0  0  0  0
   15.7967  -21.0163    2.8629 C   0  0  0  0  0  0  0  0  0  0  0  0
   15.1839  -21.8090    1.8153 N   0  0  0  0  0  0  0  0  0  0  0  0
   18.9894  -17.0106    4.8051 C   0  0  0  0  0  0  0  0  0  0  0  0
   20.1672  -16.8856    4.3051 O   0  0  0  0  0  0  0  0  0  0  0  0
   23.8673  -15.7653   10.2883 C   0  0  0  0  0  0  0  0  0  0  0  0
   22.3178  -15.4386    9.4137 S   0  0  0  0  0  0  0  0  0  0  0  0
   21.8376  -16.8863    8.4427 C   0  0  0  0  0  0  0  0  0  0  0  0
   20.6101  -16.6923    7.6188 C   0  0  0  0  0  0  0  0  0  0  0  0
   20.1973  -17.9127    6.8249 C   0  0  2  0  0  0  0  0  0  0  0  0
   18.9826  -17.5842    6.1061 N   0  0  0  0  0  0  0  0  0  0  0  0
   20.0992  -19.1113    7.6548 C   0  0  0  0  0  0  0  0  0  0  0  0
   21.1367  -19.9906    7.9298 O   0  0  0  0  0  0  0  0  0  0  0  0
   18.9839  -19.3809    8.1701 O   0  0  0  0  0  0  0  0  0  0  0  0
  1  2  1  0
  2  3  1  0
  3  4  2  0
  5  3  1  0
  5  6  1  0
  6  7  1  6
  8  7  1  0
  9 10  1  0
  9  8  1  0
 10 11  1  0
 12  6  1  0
 12 19  1  0
 13 12  2  0
 15 14  1  0
 16 15  1  0
 17 16  1  0
 18 19  1  0
 18 17  1  1
 20 18  1  0
 21 20  1  0
 22 20  2  0
M  END
$$$$
