GKM.pdb
     RDKit          3D

 22 21  0  0  1  0  0  0  0  0999 V2000
   22.0940  -11.2186  -21.5389 N   0  0  0  0  0  0  0  0  0  0  0  0
   22.6507  -11.1921  -20.2072 C   0  0  0  0  0  0  0  0  0  0  0  0
   21.6550  -10.5703  -19.2820 C   0  0  0  0  0  0  0  0  0  0  0  0
   21.0452   -9.5002  -19.5806 O   0  0  0  0  0  0  0  0  0  0  0  0
   21.3390  -11.1401  -18.0254 N   0  0  0  0  0  0  0  0  0  0  0  0
   20.3365  -10.5191  -17.1361 C   0  0  1  0  0  0  0  0  0  0  0  0
   19.9916  -11.5750  -16.0997 C   0  0  0  0  0  0  0  0  0  0  0  0
   18.9010  -12.5017  -16.4936 C   0  0  0  0  0  0  0  0  0  0  0  0
   18.6138  -13.5240  -15.3899 C   0  0  0  0  0  0  0  0  0  0  0  0
   17.6413  -14.5629  -15.8626 C   0  0  0  0  0  0  0  0  0  0  0  0
   17.5236  -15.6579  -14.9201 N   0  0  0  0  0  0  0  0  0  0  0  0
   20.9245   -9.2974  -16.5931 C   0  0  0  0  0  0  0  0  0  0  0  0
   22.1741   -9.2663  -16.2920 O   0  0  0  0  0  0  0  0  0  0  0  0
   23.7302   -2.4884  -16.4375 C   0  0  0  0  0  0  0  0  0  0  0  0
   23.1806   -4.0636  -17.1371 S   0  0  0  0  0  0  0  0  0  0  0  0
   21.6373   -4.5848  -16.3524 C   0  0  0  0  0  0  0  0  0  0  0  0
   21.1125   -5.8924  -16.8405 C   0  0  0  0  0  0  0  0  0  0  0  0
   20.9037   -6.9219  -15.7511 C   0  0  2  0  0  0  0  0  0  0  0  0
   20.2500   -8.0705  -16.3457 N   0  0  0  0  0  0  0  0  0  0  0  0
   20.2112   -6.3713  -14.5882 C   0  0  0  0  0  0  0  0  0  0  0  0
   18.8351   -6.2754  -14.4381 O   0  0  0  0  0  0  0  0  0  0  0  0
   20.9108   -5.9440  -13.6343 O   0  0  0  0  0  0  0  0  0  0  0  0
  1  2  1  0
  2  3  1  0
  3  4  2  0
  5  3  1  0
  5  6  1  0
  6  7  1  1
  8  7  1  0
  9 10  1  0
  9  8  1  0
 10 11  1  0
 12  6  1  0
 12 19  1  0
 13 12  2  0
 15 14  1  0
 16 15  1  0
 17 16  1  0
 18 19  1  0
 18 17  1  6
 20 18  1  0
 21 20  1  0
 22 20  2  0
M  END
$$$$
