GKM.pdb
     RDKit          3D

 22 21  0  0  1  0  0  0  0  0999 V2000
   30.0223  -24.0006  -15.6813 N   0  0  0  0  0  0  0  0  0  0  0  0
   28.9860  -23.1846  -16.2680 C   0  0  0  0  0  0  0  0  0  0  0  0
   28.5812  -22.1380  -15.2807 C   0  0  0  0  0  0  0  0  0  0  0  0
   29.4171  -21.6114  -14.4870 O   0  0  0  0  0  0  0  0  0  0  0  0
   27.2462  -21.6786  -15.1778 N   0  0  0  0  0  0  0  0  0  0  0  0
   26.8985  -20.5303  -14.3163 C   0  0  1  0  0  0  0  0  0  0  0  0
   25.8538  -19.7380  -15.0838 C   0  0  0  0  0  0  0  0  0  0  0  0
   25.5430  -18.4026  -14.5154 C   0  0  0  0  0  0  0  0  0  0  0  0
   26.2227  -17.2862  -15.3137 C   0  0  0  0  0  0  0  0  0  0  0  0
   25.9349  -15.9444  -14.7091 C   0  0  0  0  0  0  0  0  0  0  0  0
   26.5816  -14.8742  -15.4423 N   0  0  0  0  0  0  0  0  0  0  0  0
   26.4437  -21.0619  -13.0343 C   0  0  0  0  0  0  0  0  0  0  0  0
   25.7048  -22.1136  -13.0022 O   0  0  0  0  0  0  0  0  0  0  0  0
   28.4770  -18.9112   -7.2027 C   0  0  0  0  0  0  0  0  0  0  0  0
   27.3611  -20.2152   -6.6309 S   0  0  0  0  0  0  0  0  0  0  0  0
   26.4178  -20.8779   -8.0240 C   0  0  0  0  0  0  0  0  0  0  0  0
   26.9526  -20.4973   -9.3628 C   0  0  0  0  0  0  0  0  0  0  0  0
   26.1925  -21.0956  -10.5267 C   0  0  2  0  0  0  0  0  0  0  0  0
   26.7355  -20.5333  -11.7470 N   0  0  0  0  0  0  0  0  0  0  0  0
   24.7461  -20.9432  -10.3861 C   0  0  0  0  0  0  0  0  0  0  0  0
   23.9331  -21.6896   -9.5452 O   0  0  0  0  0  0  0  0  0  0  0  0
   24.1766  -20.0632  -11.0814 O   0  0  0  0  0  0  0  0  0  0  0  0
  1  2  1  0
  2  3  1  0
  3  4  2  0
  5  3  1  0
  5  6  1  0
  6  7  1  6
  8  7  1  0
  9 10  1  0
  9  8  1  0
 10 11  1  0
 12  6  1  0
 12 19  1  0
 13 12  2  0
 15 14  1  0
 16 15  1  0
 17 16  1  0
 18 19  1  0
 18 17  1  1
 20 18  1  0
 21 20  1  0
 22 20  2  0
M  END
$$$$
