GKM.pdb
     RDKit          3D

 22 21  0  0  1  0  0  0  0  0999 V2000
   15.5571  -10.4065  -14.9829 N   0  0  0  0  0  0  0  0  0  0  0  0
   16.0812   -9.3517  -15.8175 C   0  0  0  0  0  0  0  0  0  0  0  0
   17.5366   -9.1828  -15.5218 C   0  0  0  0  0  0  0  0  0  0  0  0
   17.9719   -9.1151  -14.3335 O   0  0  0  0  0  0  0  0  0  0  0  0
   18.5060   -9.0893  -16.5490 N   0  0  0  0  0  0  0  0  0  0  0  0
   19.9480   -9.0317  -16.2347 C   0  0  1  0  0  0  0  0  0  0  0  0
   20.6437   -9.8120  -17.3371 C   0  0  0  0  0  0  0  0  0  0  0  0
   22.1222   -9.8720  -17.2200 C   0  0  0  0  0  0  0  0  0  0  0  0
   22.7416  -10.6478  -18.3864 C   0  0  0  0  0  0  0  0  0  0  0  0
   24.2323  -10.7267  -18.2449 C   0  0  0  0  0  0  0  0  0  0  0  0
   24.8546  -11.3006  -19.4216 N   0  0  0  0  0  0  0  0  0  0  0  0
   20.3254   -7.6233  -16.1498 C   0  0  0  0  0  0  0  0  0  0  0  0
   19.9146   -6.7946  -17.0428 O   0  0  0  0  0  0  0  0  0  0  0  0
   19.1603   -2.3860  -13.3797 C   0  0  0  0  0  0  0  0  0  0  0  0
   20.7262   -2.2584  -14.2766 S   0  0  0  0  0  0  0  0  0  0  0  0
   21.8337   -3.5997  -13.7829 C   0  0  0  0  0  0  0  0  0  0  0  0
   21.2480   -4.9633  -13.9285 C   0  0  0  0  0  0  0  0  0  0  0  0
   21.5986   -5.6525  -15.2293 C   0  0  2  0  0  0  0  0  0  0  0  0
   21.1322   -7.0221  -15.1452 N   0  0  0  0  0  0  0  0  0  0  0  0
   23.0137   -5.5192  -15.5679 C   0  0  0  0  0  0  0  0  0  0  0  0
   23.6207   -4.3754  -16.0666 O   0  0  0  0  0  0  0  0  0  0  0  0
   23.7566   -6.5197  -15.3973 O   0  0  0  0  0  0  0  0  0  0  0  0
  1  2  1  0
  2  3  1  0
  3  4  2  0
  5  3  1  0
  5  6  1  0
  6  7  1  6
  8  7  1  0
  9 10  1  0
  9  8  1  0
 10 11  1  0
 12  6  1  0
 12 19  1  0
 13 12  2  0
 15 14  1  0
 16 15  1  0
 17 16  1  0
 18 19  1  0
 18 17  1  1
 20 18  1  0
 21 20  1  0
 22 20  2  0
M  END
$$$$
