GKM.pdb
     RDKit          3D

 22 21  0  0  1  0  0  0  0  0999 V2000
   13.7276  -12.1789  -13.7476 N   0  0  0  0  0  0  0  0  0  0  0  0
   13.9028  -10.7602  -13.9495 C   0  0  0  0  0  0  0  0  0  0  0  0
   15.2247  -10.5277  -14.6072 C   0  0  0  0  0  0  0  0  0  0  0  0
   16.2649  -11.1604  -14.2552 O   0  0  0  0  0  0  0  0  0  0  0  0
   15.3876   -9.5911  -15.6560 N   0  0  0  0  0  0  0  0  0  0  0  0
   16.6736   -9.4616  -16.3708 C   0  0  1  0  0  0  0  0  0  0  0  0
   16.3453   -8.7976  -17.6972 C   0  0  0  0  0  0  0  0  0  0  0  0
   17.5118   -8.5732  -18.5871 C   0  0  0  0  0  0  0  0  0  0  0  0
   17.9489   -9.8727  -19.2699 C   0  0  0  0  0  0  0  0  0  0  0  0
   19.1444   -9.6415  -20.1450 C   0  0  0  0  0  0  0  0  0  0  0  0
   19.5438  -10.8493  -20.8400 N   0  0  0  0  0  0  0  0  0  0  0  0
   17.5805   -8.7022  -15.5139 C   0  0  0  0  0  0  0  0  0  0  0  0
   17.1172   -7.7765  -14.7515 O   0  0  0  0  0  0  0  0  0  0  0  0
   22.0914  -10.1707  -10.6906 C   0  0  0  0  0  0  0  0  0  0  0  0
   22.9105   -9.3642  -12.0875 S   0  0  0  0  0  0  0  0  0  0  0  0
   21.7496   -8.2698  -12.9383 C   0  0  0  0  0  0  0  0  0  0  0  0
   20.8152   -8.9694  -13.8661 C   0  0  0  0  0  0  0  0  0  0  0  0
   19.8148   -8.0572  -14.5423 C   0  0  2  0  0  0  0  0  0  0  0  0
   18.9884   -8.8715  -15.4107 N   0  0  0  0  0  0  0  0  0  0  0  0
   20.4537   -6.9249  -15.2091 C   0  0  0  0  0  0  0  0  0  0  0  0
   20.9333   -5.7838  -14.5820 O   0  0  0  0  0  0  0  0  0  0  0  0
   20.5866   -6.9762  -16.4588 O   0  0  0  0  0  0  0  0  0  0  0  0
  1  2  1  0
  2  3  1  0
  3  4  2  0
  5  3  1  0
  5  6  1  0
  6  7  1  6
  8  7  1  0
  9 10  1  0
  9  8  1  0
 10 11  1  0
 12  6  1  0
 12 19  1  0
 13 12  2  0
 15 14  1  0
 16 15  1  0
 17 16  1  0
 18 19  1  0
 18 17  1  6
 20 18  1  0
 21 20  1  0
 22 20  2  0
M  END
$$$$
