GKM.pdb
     RDKit          3D

 22 21  0  0  1  0  0  0  0  0999 V2000
   13.9959   -8.2919   -7.4606 N   0  0  0  0  0  0  0  0  0  0  0  0
   14.4299   -7.2526   -8.3637 C   0  0  0  0  0  0  0  0  0  0  0  0
   15.4592   -7.8180   -9.2884 C   0  0  0  0  0  0  0  0  0  0  0  0
   16.1714   -8.8147   -8.9637 O   0  0  0  0  0  0  0  0  0  0  0  0
   15.6948   -7.2733  -10.5735 N   0  0  0  0  0  0  0  0  0  0  0  0
   16.7231   -7.8435  -11.4673 C   0  0  1  0  0  0  0  0  0  0  0  0
   16.1633   -7.7206  -12.8743 C   0  0  0  0  0  0  0  0  0  0  0  0
   16.9904   -8.3541  -13.9314 C   0  0  0  0  0  0  0  0  0  0  0  0
   16.8290   -9.8772  -13.9262 C   0  0  0  0  0  0  0  0  0  0  0  0
   17.6699  -10.5082  -14.9954 C   0  0  0  0  0  0  0  0  0  0  0  0
   17.6253  -11.9556  -14.9306 N   0  0  0  0  0  0  0  0  0  0  0  0
   17.9649   -7.1101  -11.2363 C   0  0  0  0  0  0  0  0  0  0  0  0
   17.9346   -5.8362  -11.0652 O   0  0  0  0  0  0  0  0  0  0  0  0
   22.9218   -6.1695   -6.7691 C   0  0  0  0  0  0  0  0  0  0  0  0
   23.4452   -7.2017   -8.1595 S   0  0  0  0  0  0  0  0  0  0  0  0
   22.5748   -6.7022   -9.6636 C   0  0  0  0  0  0  0  0  0  0  0  0
   21.2574   -7.3722   -9.8609 C   0  0  0  0  0  0  0  0  0  0  0  0
   20.4631   -6.8438  -11.0355 C   0  0  2  0  0  0  0  0  0  0  0  0
   19.2739   -7.6611  -11.1704 N   0  0  0  0  0  0  0  0  0  0  0  0
   21.2656   -6.7447  -12.2526 C   0  0  0  0  0  0  0  0  0  0  0  0
   22.0962   -5.6853  -12.5884 O   0  0  0  0  0  0  0  0  0  0  0  0
   21.2075   -7.6947  -13.0749 O   0  0  0  0  0  0  0  0  0  0  0  0
  1  2  1  0
  2  3  1  0
  3  4  2  0
  5  3  1  0
  5  6  1  0
  6  7  1  6
  8  7  1  0
  9 10  1  0
  9  8  1  0
 10 11  1  0
 12  6  1  0
 12 19  1  0
 13 12  2  0
 15 14  1  0
 16 15  1  0
 17 16  1  0
 18 19  1  0
 18 17  1  1
 20 18  1  0
 21 20  1  0
 22 20  2  0
M  END
$$$$
