GKM.pdb
     RDKit          3D

 22 21  0  0  1  0  0  0  0  0999 V2000
   20.6361  -17.3876  -16.8260 N   0  0  0  0  0  0  0  0  0  0  0  0
   22.0259  -17.6624  -17.1035 C   0  0  0  0  0  0  0  0  0  0  0  0
   22.4735  -18.7971  -16.2397 C   0  0  0  0  0  0  0  0  0  0  0  0
   22.0345  -18.9509  -15.0608 O   0  0  0  0  0  0  0  0  0  0  0  0
   23.4094  -19.7594  -16.6888 N   0  0  0  0  0  0  0  0  0  0  0  0
   23.8628  -20.8533  -15.8060 C   0  0  1  0  0  0  0  0  0  0  0  0
   24.3989  -21.9349  -16.7284 C   0  0  0  0  0  0  0  0  0  0  0  0
   24.8263  -23.1811  -16.0446 C   0  0  0  0  0  0  0  0  0  0  0  0
   23.6637  -23.8249  -15.2833 C   0  0  0  0  0  0  0  0  0  0  0  0
   24.0751  -25.1390  -14.6898 C   0  0  0  0  0  0  0  0  0  0  0  0
   22.9601  -25.8163  -14.0577 N   0  0  0  0  0  0  0  0  0  0  0  0
   24.8456  -20.2953  -14.8808 C   0  0  0  0  0  0  0  0  0  0  0  0
   25.7381  -19.4760  -15.3110 O   0  0  0  0  0  0  0  0  0  0  0  0
   25.2030  -21.5450   -8.3502 C   0  0  0  0  0  0  0  0  0  0  0  0
   26.2234  -20.0596   -8.5090 S   0  0  0  0  0  0  0  0  0  0  0  0
   26.6695  -19.7970  -10.2415 C   0  0  0  0  0  0  0  0  0  0  0  0
   25.6462  -20.2716  -11.2167 C   0  0  0  0  0  0  0  0  0  0  0  0
   26.0246  -20.0563  -12.6660 C   0  0  2  0  0  0  0  0  0  0  0  0
   24.9406  -20.5579  -13.4866 N   0  0  0  0  0  0  0  0  0  0  0  0
   27.3338  -20.6184  -12.9904 C   0  0  0  0  0  0  0  0  0  0  0  0
   28.5440  -19.9441  -12.9132 O   0  0  0  0  0  0  0  0  0  0  0  0
   27.3819  -21.8154  -13.3739 O   0  0  0  0  0  0  0  0  0  0  0  0
  1  2  1  0
  2  3  1  0
  3  4  2  0
  5  3  1  0
  5  6  1  0
  6  7  1  6
  8  7  1  0
  9 10  1  0
  9  8  1  0
 10 11  1  0
 12  6  1  0
 12 19  1  0
 13 12  2  0
 15 14  1  0
 16 15  1  0
 17 16  1  0
 18 19  1  0
 18 17  1  1
 20 18  1  0
 21 20  1  0
 22 20  2  0
M  END
$$$$
