GKM.pdb
     RDKit          3D

 22 21  0  0  1  0  0  0  0  0999 V2000
   33.5886  -28.2895    9.1131 N   0  0  0  0  0  0  0  0  0  0  0  0
   33.9657  -27.7900    7.8123 C   0  0  0  0  0  0  0  0  0  0  0  0
   34.4058  -26.3684    7.9521 C   0  0  0  0  0  0  0  0  0  0  0  0
   34.2583  -25.7285    9.0360 O   0  0  0  0  0  0  0  0  0  0  0  0
   35.0094  -25.6604    6.8853 N   0  0  0  0  0  0  0  0  0  0  0  0
   35.5715  -24.3095    7.0871 C   0  0  1  0  0  0  0  0  0  0  0  0
   36.5517  -24.0941    5.9465 C   0  0  0  0  0  0  0  0  0  0  0  0
   37.9070  -24.6543    6.1757 C   0  0  0  0  0  0  0  0  0  0  0  0
   38.8421  -24.3459    5.0025 C   0  0  0  0  0  0  0  0  0  0  0  0
   40.2394  -24.8033    5.2975 C   0  0  0  0  0  0  0  0  0  0  0  0
   41.1292  -24.5705    4.1771 N   0  0  0  0  0  0  0  0  0  0  0  0
   34.4557  -23.3677    7.1216 C   0  0  0  0  0  0  0  0  0  0  0  0
   33.6141  -23.3352    6.1503 O   0  0  0  0  0  0  0  0  0  0  0  0
   28.2293  -20.3036   10.3417 C   0  0  0  0  0  0  0  0  0  0  0  0
   29.5742  -21.5132   10.3139 S   0  0  0  0  0  0  0  0  0  0  0  0
   30.8037  -21.0438    9.0739 C   0  0  0  0  0  0  0  0  0  0  0  0
   31.9760  -21.9620    8.9948 C   0  0  0  0  0  0  0  0  0  0  0  0
   33.0757  -21.4846    8.0712 C   0  0  2  0  0  0  0  0  0  0  0  0
   34.1677  -22.4338    8.1542 N   0  0  0  0  0  0  0  0  0  0  0  0
   33.4618  -20.0998    8.3323 C   0  0  0  0  0  0  0  0  0  0  0  0
   32.8391  -18.9753    7.8099 O   0  0  0  0  0  0  0  0  0  0  0  0
   34.4413  -19.8955    9.0945 O   0  0  0  0  0  0  0  0  0  0  0  0
  1  2  1  0
  2  3  1  0
  3  4  2  0
  5  3  1  0
  5  6  1  0
  6  7  1  6
  8  7  1  0
  9 10  1  0
  9  8  1  0
 10 11  1  0
 12  6  1  0
 12 19  1  0
 13 12  2  0
 15 14  1  0
 16 15  1  0
 17 16  1  0
 18 19  1  0
 18 17  1  1
 20 18  1  0
 21 20  1  0
 22 20  2  0
M  END
$$$$
