GKM.pdb
     RDKit          3D

 22 21  0  0  1  0  0  0  0  0999 V2000
   17.7709  -13.8792  -14.8115 N   0  0  0  0  0  0  0  0  0  0  0  0
   17.7290  -12.9309  -15.8991 C   0  0  0  0  0  0  0  0  0  0  0  0
   17.7180  -11.5483  -15.3315 C   0  0  0  0  0  0  0  0  0  0  0  0
   17.7279  -10.5223  -16.0753 O   0  0  0  0  0  0  0  0  0  0  0  0
   17.6962  -11.3090  -13.9365 N   0  0  0  0  0  0  0  0  0  0  0  0
   17.7007   -9.9338  -13.3978 C   0  0  1  0  0  0  0  0  0  0  0  0
   16.9192   -9.9961  -12.0965 C   0  0  0  0  0  0  0  0  0  0  0  0
   15.4456   -9.9063  -12.2499 C   0  0  0  0  0  0  0  0  0  0  0  0
   14.7360  -10.0495  -10.9002 C   0  0  0  0  0  0  0  0  0  0  0  0
   13.2575   -9.8481  -11.0490 C   0  0  0  0  0  0  0  0  0  0  0  0
   12.5616  -10.0221   -9.7893 N   0  0  0  0  0  0  0  0  0  0  0  0
   19.0941   -9.5197  -13.2559 C   0  0  0  0  0  0  0  0  0  0  0  0
   19.9257  -10.2724  -12.6275 O   0  0  0  0  0  0  0  0  0  0  0  0
   25.9236  -10.4828  -14.6470 C   0  0  0  0  0  0  0  0  0  0  0  0
   24.1480  -10.5964  -14.9741 S   0  0  0  0  0  0  0  0  0  0  0  0
   23.2989   -9.1536  -14.2908 C   0  0  0  0  0  0  0  0  0  0  0  0
   21.8111   -9.2318  -14.3521 C   0  0  0  0  0  0  0  0  0  0  0  0
   21.1018   -8.0632  -13.7031 C   0  0  2  0  0  0  0  0  0  0  0  0
   19.6772   -8.3236  -13.7568 N   0  0  0  0  0  0  0  0  0  0  0  0
   21.5004   -6.7799  -14.2770 C   0  0  0  0  0  0  0  0  0  0  0  0
   22.5901   -6.0198  -13.8773 O   0  0  0  0  0  0  0  0  0  0  0  0
   20.8042   -6.3128  -15.2147 O   0  0  0  0  0  0  0  0  0  0  0  0
  1  2  1  0
  2  3  1  0
  3  4  2  0
  5  3  1  0
  5  6  1  0
  6  7  1  1
  8  7  1  0
  9 10  1  0
  9  8  1  0
 10 11  1  0
 12  6  1  0
 12 19  1  0
 13 12  2  0
 15 14  1  0
 16 15  1  0
 17 16  1  0
 18 19  1  0
 18 17  1  6
 20 18  1  0
 21 20  1  0
 22 20  2  0
M  END
$$$$
