GKM.pdb
     RDKit          3D

 22 21  0  0  1  0  0  0  0  0999 V2000
   -7.5119    0.7219  -20.0379 N   0  0  0  0  0  0  0  0  0  0  0  0
   -7.0813    0.1189  -18.7990 C   0  0  0  0  0  0  0  0  0  0  0  0
   -5.7107   -0.4459  -18.9899 C   0  0  0  0  0  0  0  0  0  0  0  0
   -4.9913   -0.7963  -18.0072 O   0  0  0  0  0  0  0  0  0  0  0  0
   -5.1421   -0.6200  -20.2745 N   0  0  0  0  0  0  0  0  0  0  0  0
   -4.0308   -1.5675  -20.4953 C   0  0  1  0  0  0  0  0  0  0  0  0
   -3.6755   -1.4533  -21.9679 C   0  0  0  0  0  0  0  0  0  0  0  0
   -3.2865   -2.7309  -22.6158 C   0  0  0  0  0  0  0  0  0  0  0  0
   -1.9327   -3.2271  -22.0992 C   0  0  0  0  0  0  0  0  0  0  0  0
   -1.8096   -3.0044  -20.6214 C   0  0  0  0  0  0  0  0  0  0  0  0
   -1.1045   -4.0910  -19.9707 N   0  0  0  0  0  0  0  0  0  0  0  0
   -2.9544   -1.2073  -19.5761 C   0  0  0  0  0  0  0  0  0  0  0  0
   -1.8797   -0.6656  -20.0283 O   0  0  0  0  0  0  0  0  0  0  0  0
   -3.0577    0.2539  -14.2204 C   0  0  0  0  0  0  0  0  0  0  0  0
   -1.6780    1.1722  -14.9455 S   0  0  0  0  0  0  0  0  0  0  0  0
   -0.5008    0.0267  -15.7013 C   0  0  0  0  0  0  0  0  0  0  0  0
   -1.0797   -0.8240  -16.7805 C   0  0  0  0  0  0  0  0  0  0  0  0
   -2.4504   -0.3845  -17.2477 C   0  0  2  0  0  0  0  0  0  0  0  0
   -2.9491   -1.3888  -18.1659 N   0  0  0  0  0  0  0  0  0  0  0  0
   -2.4475    0.9738  -17.7862 C   0  0  0  0  0  0  0  0  0  0  0  0
   -1.3729    1.5944  -18.4069 O   0  0  0  0  0  0  0  0  0  0  0  0
   -3.5036    1.6495  -17.6848 O   0  0  0  0  0  0  0  0  0  0  0  0
  1  2  1  0
  2  3  1  0
  3  4  2  0
  5  3  1  0
  5  6  1  0
  6  7  1  6
  8  7  1  0
  9 10  1  0
  9  8  1  0
 10 11  1  0
 12  6  1  0
 12 19  1  0
 13 12  2  0
 15 14  1  0
 16 15  1  0
 17 16  1  0
 18 19  1  0
 18 17  1  6
 20 18  1  0
 21 20  1  0
 22 20  2  0
M  END
$$$$
