GKM.pdb
     RDKit          3D

 22 21  0  0  1  0  0  0  0  0999 V2000
   23.3654  -21.8276   -7.9561 N   0  0  0  0  0  0  0  0  0  0  0  0
   23.8206  -20.6300   -8.6213 C   0  0  0  0  0  0  0  0  0  0  0  0
   24.3813  -21.0043   -9.9552 C   0  0  0  0  0  0  0  0  0  0  0  0
   25.1916  -21.9692  -10.0907 O   0  0  0  0  0  0  0  0  0  0  0  0
   24.0398  -20.3041  -11.1370 N   0  0  0  0  0  0  0  0  0  0  0  0
   24.5520  -20.7339  -12.4540 C   0  0  1  0  0  0  0  0  0  0  0  0
   23.6464  -20.0807  -13.4841 C   0  0  0  0  0  0  0  0  0  0  0  0
   24.0316  -20.3251  -14.8965 C   0  0  0  0  0  0  0  0  0  0  0  0
   23.0666  -19.6334  -15.8641 C   0  0  0  0  0  0  0  0  0  0  0  0
   23.3839  -19.9932  -17.2848 C   0  0  0  0  0  0  0  0  0  0  0  0
   22.4490  -19.3900  -18.2140 N   0  0  0  0  0  0  0  0  0  0  0  0
   25.9553  -20.3368  -12.5330 C   0  0  0  0  0  0  0  0  0  0  0  0
   26.3300  -19.2069  -12.0472 O   0  0  0  0  0  0  0  0  0  0  0  0
   31.8025  -21.0646   -9.5254 C   0  0  0  0  0  0  0  0  0  0  0  0
   31.6931  -21.9544  -11.0967 S   0  0  0  0  0  0  0  0  0  0  0  0
   30.6748  -21.0239  -12.2656 C   0  0  0  0  0  0  0  0  0  0  0  0
   29.2317  -21.3991  -12.2553 C   0  0  0  0  0  0  0  0  0  0  0  0
   28.3732  -20.5857  -13.1995 C   0  0  2  0  0  0  0  0  0  0  0  0
   27.0166  -21.0874  -13.1091 N   0  0  0  0  0  0  0  0  0  0  0  0
   28.9129  -20.5536  -14.5570 C   0  0  0  0  0  0  0  0  0  0  0  0
   29.8382  -19.6378  -15.0370 O   0  0  0  0  0  0  0  0  0  0  0  0
   28.5125  -21.4254  -15.3704 O   0  0  0  0  0  0  0  0  0  0  0  0
  1  2  1  0
  2  3  1  0
  3  4  2  0
  5  3  1  0
  5  6  1  0
  6  7  1  6
  8  7  1  0
  9 10  1  0
  9  8  1  0
 10 11  1  0
 12  6  1  0
 12 19  1  0
 13 12  2  0
 15 14  1  0
 16 15  1  0
 17 16  1  0
 18 19  1  0
 18 17  1  1
 20 18  1  0
 21 20  1  0
 22 20  2  0
M  END
$$$$
