GKM.pdb
     RDKit          3D

 22 21  0  0  1  0  0  0  0  0999 V2000
   16.6002   -6.9156   -9.2854 N   0  0  0  0  0  0  0  0  0  0  0  0
   17.2360   -6.3411  -10.4471 C   0  0  0  0  0  0  0  0  0  0  0  0
   17.8435   -7.4414  -11.2562 C   0  0  0  0  0  0  0  0  0  0  0  0
   18.2941   -8.4955  -10.7159 O   0  0  0  0  0  0  0  0  0  0  0  0
   17.9490   -7.3672  -12.6658 N   0  0  0  0  0  0  0  0  0  0  0  0
   18.4691   -8.5034  -13.4532 C   0  0  1  0  0  0  0  0  0  0  0  0
   17.4423   -8.7561  -14.5439 C   0  0  0  0  0  0  0  0  0  0  0  0
   17.7709   -9.8755  -15.4616 C   0  0  0  0  0  0  0  0  0  0  0  0
   16.6611  -10.0920  -16.4948 C   0  0  0  0  0  0  0  0  0  0  0  0
   17.0107  -11.2117  -17.4289 C   0  0  0  0  0  0  0  0  0  0  0  0
   15.9232  -11.5122  -18.3391 N   0  0  0  0  0  0  0  0  0  0  0  0
   19.7972   -8.1346  -13.9362 C   0  0  0  0  0  0  0  0  0  0  0  0
   20.0617   -6.9065  -14.2095 O   0  0  0  0  0  0  0  0  0  0  0  0
   27.3013  -10.2710  -15.5768 C   0  0  0  0  0  0  0  0  0  0  0  0
   25.6902  -10.7662  -14.9196 S   0  0  0  0  0  0  0  0  0  0  0  0
   24.5201   -9.3939  -15.0493 C   0  0  0  0  0  0  0  0  0  0  0  0
   23.1584   -9.6974  -14.5228 C   0  0  0  0  0  0  0  0  0  0  0  0
   22.1674   -8.5642  -14.6777 C   0  0  2  0  0  0  0  0  0  0  0  0
   20.8945   -9.0131  -14.1501 N   0  0  0  0  0  0  0  0  0  0  0  0
   22.1061   -8.0599  -16.0477 C   0  0  0  0  0  0  0  0  0  0  0  0
   21.3629   -8.6141  -17.0801 O   0  0  0  0  0  0  0  0  0  0  0  0
   22.7802   -7.0358  -16.3287 O   0  0  0  0  0  0  0  0  0  0  0  0
  1  2  1  0
  2  3  1  0
  3  4  2  0
  5  3  1  0
  5  6  1  0
  6  7  1  6
  8  7  1  0
  9 10  1  0
  9  8  1  0
 10 11  1  0
 12  6  1  0
 12 19  1  0
 13 12  2  0
 15 14  1  0
 16 15  1  0
 17 16  1  0
 18 19  1  0
 18 17  1  6
 20 18  1  0
 21 20  1  0
 22 20  2  0
M  END
$$$$
