GKM.pdb
     RDKit          3D

 22 21  0  0  1  0  0  0  0  0999 V2000
   25.5298  -12.9882  -16.4903 N   0  0  0  0  0  0  0  0  0  0  0  0
   24.6909  -12.6151  -15.3763 C   0  0  0  0  0  0  0  0  0  0  0  0
   23.7176  -11.5771  -15.8337 C   0  0  0  0  0  0  0  0  0  0  0  0
   23.9893  -10.7797  -16.7805 O   0  0  0  0  0  0  0  0  0  0  0  0
   22.4428  -11.4275  -15.2368 N   0  0  0  0  0  0  0  0  0  0  0  0
   21.4483  -10.4843  -15.7869 C   0  0  1  0  0  0  0  0  0  0  0  0
   20.0915  -11.0148  -15.3560 C   0  0  0  0  0  0  0  0  0  0  0  0
   19.4734  -11.9820  -16.2971 C   0  0  0  0  0  0  0  0  0  0  0  0
   18.1439  -12.5145  -15.7541 C   0  0  0  0  0  0  0  0  0  0  0  0
   17.5428  -13.5140  -16.6966 C   0  0  0  0  0  0  0  0  0  0  0  0
   16.2688  -14.0095  -16.2142 N   0  0  0  0  0  0  0  0  0  0  0  0
   21.7744   -9.1537  -15.2804 C   0  0  0  0  0  0  0  0  0  0  0  0
   22.0398   -8.9900  -14.0331 O   0  0  0  0  0  0  0  0  0  0  0  0
   25.9490   -4.0005  -17.5192 C   0  0  0  0  0  0  0  0  0  0  0  0
   24.2060   -3.5507  -17.3396 S   0  0  0  0  0  0  0  0  0  0  0  0
   23.4369   -4.5562  -16.0485 C   0  0  0  0  0  0  0  0  0  0  0  0
   22.8768   -5.8508  -16.5318 C   0  0  0  0  0  0  0  0  0  0  0  0
   22.2074   -6.6770  -15.4551 C   0  0  2  0  0  0  0  0  0  0  0  0
   21.8413   -7.9523  -16.0379 N   0  0  0  0  0  0  0  0  0  0  0  0
   21.1010   -5.9688  -14.8152 C   0  0  0  0  0  0  0  0  0  0  0  0
   19.7531   -6.2413  -14.9996 O   0  0  0  0  0  0  0  0  0  0  0  0
   21.3808   -5.0291  -14.0273 O   0  0  0  0  0  0  0  0  0  0  0  0
  1  2  1  0
  2  3  1  0
  3  4  2  0
  5  3  1  0
  5  6  1  0
  6  7  1  1
  8  7  1  0
  9 10  1  0
  9  8  1  0
 10 11  1  0
 12  6  1  0
 12 19  1  0
 13 12  2  0
 15 14  1  0
 16 15  1  0
 17 16  1  0
 18 19  1  0
 18 17  1  6
 20 18  1  0
 21 20  1  0
 22 20  2  0
M  END
$$$$
