GKM.pdb
     RDKit          3D

 22 21  0  0  1  0  0  0  0  0999 V2000
   27.9863  -24.2032  -16.9071 N   0  0  0  0  0  0  0  0  0  0  0  0
   26.8001  -24.1683  -16.0851 C   0  0  0  0  0  0  0  0  0  0  0  0
   26.8566  -22.9576  -15.2104 C   0  0  0  0  0  0  0  0  0  0  0  0
   27.9466  -22.5456  -14.7121 O   0  0  0  0  0  0  0  0  0  0  0  0
   25.6999  -22.2068  -14.8912 N   0  0  0  0  0  0  0  0  0  0  0  0
   25.7936  -20.9528  -14.1165 C   0  0  1  0  0  0  0  0  0  0  0  0
   24.8063  -19.9938  -14.7597 C   0  0  0  0  0  0  0  0  0  0  0  0
   25.2989  -19.3247  -15.9896 C   0  0  0  0  0  0  0  0  0  0  0  0
   24.2108  -18.4518  -16.6220 C   0  0  0  0  0  0  0  0  0  0  0  0
   24.7499  -17.6922  -17.7972 C   0  0  0  0  0  0  0  0  0  0  0  0
   23.7168  -16.9188  -18.4574 N   0  0  0  0  0  0  0  0  0  0  0  0
   25.5131  -21.2747  -12.7197 C   0  0  0  0  0  0  0  0  0  0  0  0
   24.6622  -22.1947  -12.4324 O   0  0  0  0  0  0  0  0  0  0  0  0
   29.1424  -20.0188   -7.3204 C   0  0  0  0  0  0  0  0  0  0  0  0
   27.4711  -19.7496   -6.6825 S   0  0  0  0  0  0  0  0  0  0  0  0
   26.2524  -20.4295   -7.8323 C   0  0  0  0  0  0  0  0  0  0  0  0
   26.6232  -20.2930   -9.2701 C   0  0  0  0  0  0  0  0  0  0  0  0
   25.6308  -20.9158  -10.2278 C   0  0  2  0  0  0  0  0  0  0  0  0
   26.0988  -20.6655  -11.5763 N   0  0  0  0  0  0  0  0  0  0  0  0
   24.2605  -20.4757   -9.9758 C   0  0  0  0  0  0  0  0  0  0  0  0
   23.4003  -21.0140   -9.0295 O   0  0  0  0  0  0  0  0  0  0  0  0
   23.8095  -19.5282  -10.6694 O   0  0  0  0  0  0  0  0  0  0  0  0
  1  2  1  0
  2  3  1  0
  3  4  2  0
  5  3  1  0
  5  6  1  0
  6  7  1  6
  8  7  1  0
  9 10  1  0
  9  8  1  0
 10 11  1  0
 12  6  1  0
 12 19  1  0
 13 12  2  0
 15 14  1  0
 16 15  1  0
 17 16  1  0
 18 19  1  0
 18 17  1  1
 20 18  1  0
 21 20  1  0
 22 20  2  0
M  END
$$$$
