MVI.pdb
     RDKit          3D

 24 23  0  0  1  0  0  0  0  0999 V2000
   21.6816  -17.0243  -15.6123 C   0  0  0  0  0  0  0  0  0  0  0  0
   21.9999  -16.7988  -17.3648 S   0  0  0  0  0  0  0  0  0  0  0  0
   23.1693  -17.9732  -18.0325 C   0  0  0  0  0  0  0  0  0  0  0  0
   23.7224  -18.8280  -16.9518 C   0  0  0  0  0  0  0  0  0  0  0  0
   25.0015  -19.5314  -17.2221 C   0  0  2  0  0  0  0  0  0  0  0  0
   24.9987  -20.4705  -18.3037 N   0  0  0  0  0  0  0  0  0  0  0  0
   25.5097  -20.2382  -16.0022 C   0  0  0  0  0  0  0  0  0  0  0  0
   24.9133  -21.2406  -15.5216 O   0  0  0  0  0  0  0  0  0  0  0  0
   29.1251  -18.8394  -13.9654 C   0  0  0  0  0  0  0  0  0  0  0  0
   28.6726  -20.2700  -14.0167 C   0  0  1  0  0  0  0  0  0  0  0  0
   29.2100  -20.9357  -12.7397 C   0  0  0  0  0  0  0  0  0  0  0  0
   27.1914  -20.4732  -14.1341 C   0  0  2  0  0  0  0  0  0  0  0  0
   26.6794  -19.8103  -15.3418 N   0  0  0  0  0  0  0  0  0  0  0  0
   26.4569  -19.9920  -12.9417 C   0  0  0  0  0  0  0  0  0  0  0  0
   26.1871  -18.7382  -12.8249 O   0  0  0  0  0  0  0  0  0  0  0  0
   21.7479  -20.7089   -9.3102 C   0  0  0  0  0  0  0  0  0  0  0  0
   23.1525  -20.1521   -9.3874 C   0  0  0  0  0  0  0  0  0  0  0  0
   23.8996  -20.7076  -10.5650 C   0  0  2  0  0  0  0  0  0  0  0  0
   23.8869  -22.2160  -10.5975 C   0  0  0  0  0  0  0  0  0  0  0  0
   25.2865  -20.1732  -10.7210 C   0  0  2  0  0  0  0  0  0  0  0  0
   25.9886  -20.7657  -11.8649 N   0  0  0  0  0  0  0  0  0  0  0  0
   26.1253  -20.4094   -9.5296 C   0  0  0  0  0  0  0  0  0  0  0  0
   26.9829  -21.3253   -9.5529 O   0  0  0  0  0  0  0  0  0  0  0  0
   26.0116  -19.6573   -8.3641 O   0  0  0  0  0  0  0  0  0  0  0  0
  1  2  1  0
  3  2  1  0
  4  3  1  0
  5  6  1  6
  5  4  1  0
  7  5  1  0
  8  7  2  0
 10  9  1  1
 10 12  1  0
 11 10  1  0
 12 14  1  0
 12 13  1  6
 13  7  1  0
 14 15  2  0
 16 17  1  0
 18 17  1  0
 18 19  1  1
 18 20  1  0
 20 22  1  0
 20 21  1  6
 21 14  1  0
 22 23  2  0
 22 24  1  0
M  END
$$$$
