MVI.pdb
     RDKit          3D

 24 23  0  0  1  0  0  0  0  0999 V2000
   28.6446  -15.3082  -16.6187 C   0  0  0  0  0  0  0  0  0  0  0  0
   28.6330  -16.9289  -17.3911 S   0  0  0  0  0  0  0  0  0  0  0  0
   28.9005  -18.2681  -16.2391 C   0  0  0  0  0  0  0  0  0  0  0  0
   28.0068  -18.1277  -15.0618 C   0  0  0  0  0  0  0  0  0  0  0  0
   26.7488  -18.9158  -15.0591 C   0  0  2  0  0  0  0  0  0  0  0  0
   25.8161  -18.6353  -16.1095 N   0  0  0  0  0  0  0  0  0  0  0  0
   26.0223  -18.7891  -13.7545 C   0  0  0  0  0  0  0  0  0  0  0  0
   25.3983  -17.7375  -13.4441 O   0  0  0  0  0  0  0  0  0  0  0  0
   23.0454  -19.8744  -12.8614 C   0  0  0  0  0  0  0  0  0  0  0  0
   23.8938  -20.4391  -11.7590 C   0  0  1  0  0  0  0  0  0  0  0  0
   24.0654  -21.9340  -12.0729 C   0  0  0  0  0  0  0  0  0  0  0  0
   25.2294  -19.7826  -11.5733 C   0  0  2  0  0  0  0  0  0  0  0  0
   26.0060  -19.8441  -12.8196 N   0  0  0  0  0  0  0  0  0  0  0  0
   26.0053  -20.3801  -10.4626 C   0  0  0  0  0  0  0  0  0  0  0  0
   26.6515  -21.4769  -10.6570 O   0  0  0  0  0  0  0  0  0  0  0  0
   29.2543  -19.5461   -5.3227 C   0  0  0  0  0  0  0  0  0  0  0  0
   28.3953  -20.4862   -6.1397 C   0  0  0  0  0  0  0  0  0  0  0  0
   27.6963  -19.7629   -7.2540 C   0  0  2  0  0  0  0  0  0  0  0  0
   26.9604  -18.5364   -6.7739 C   0  0  0  0  0  0  0  0  0  0  0  0
   26.8151  -20.6307   -8.0929 C   0  0  2  0  0  0  0  0  0  0  0  0
   26.1380  -19.8790   -9.1554 N   0  0  0  0  0  0  0  0  0  0  0  0
   25.7654  -21.3068   -7.3056 C   0  0  0  0  0  0  0  0  0  0  0  0
   24.5913  -20.8646   -7.3380 O   0  0  0  0  0  0  0  0  0  0  0  0
   26.0150  -22.4260   -6.5168 O   0  0  0  0  0  0  0  0  0  0  0  0
  1  2  1  0
  3  2  1  0
  4  3  1  0
  5  6  1  6
  5  4  1  0
  7  5  1  0
  8  7  2  0
 10  9  1  6
 10 12  1  0
 11 10  1  0
 12 14  1  0
 12 13  1  6
 13  7  1  0
 14 15  2  0
 16 17  1  0
 18 17  1  0
 18 19  1  1
 18 20  1  0
 20 22  1  0
 20 21  1  6
 21 14  1  0
 22 23  2  0
 22 24  1  0
M  END
$$$$
