MVI.pdb
     RDKit          3D

 24 23  0  0  1  0  0  0  0  0999 V2000
   19.9675  -17.9071  -11.9132 C   0  0  0  0  0  0  0  0  0  0  0  0
   19.3060  -17.1466  -13.3990 S   0  0  0  0  0  0  0  0  0  0  0  0
   20.2486  -17.5208  -14.8700 C   0  0  0  0  0  0  0  0  0  0  0  0
   21.3464  -18.4701  -14.5567 C   0  0  0  0  0  0  0  0  0  0  0  0
   22.3491  -18.7325  -15.6195 C   0  0  2  0  0  0  0  0  0  0  0  0
   21.8458  -19.2315  -16.8643 N   0  0  0  0  0  0  0  0  0  0  0  0
   23.4188  -19.6701  -15.1481 C   0  0  0  0  0  0  0  0  0  0  0  0
   23.1758  -20.8849  -14.9094 O   0  0  0  0  0  0  0  0  0  0  0  0
   26.5740  -20.3133  -16.9691 C   0  0  0  0  0  0  0  0  0  0  0  0
   26.9547  -20.0759  -15.5364 C   0  0  1  0  0  0  0  0  0  0  0  0
   27.6297  -18.6955  -15.4952 C   0  0  0  0  0  0  0  0  0  0  0  0
   25.8261  -20.1406  -14.5508 C   0  0  2  0  0  0  0  0  0  0  0  0
   24.7442  -19.2310  -14.9534 N   0  0  0  0  0  0  0  0  0  0  0  0
   26.2611  -19.8309  -13.1696 C   0  0  0  0  0  0  0  0  0  0  0  0
   26.3331  -18.6035  -12.7864 O   0  0  0  0  0  0  0  0  0  0  0  0
   25.7946  -19.9833   -7.3476 C   0  0  0  0  0  0  0  0  0  0  0  0
   26.8307  -19.9254   -8.4487 C   0  0  0  0  0  0  0  0  0  0  0  0
   26.2519  -20.3414   -9.7698 C   0  0  2  0  0  0  0  0  0  0  0  0
   25.5221  -21.6596   -9.6910 C   0  0  0  0  0  0  0  0  0  0  0  0
   27.2291  -20.3290  -10.9004 C   0  0  2  0  0  0  0  0  0  0  0  0
   26.6225  -20.7497  -12.1683 N   0  0  0  0  0  0  0  0  0  0  0  0
   28.3877  -21.2118  -10.6617 C   0  0  0  0  0  0  0  0  0  0  0  0
   29.1891  -20.9380   -9.7355 O   0  0  0  0  0  0  0  0  0  0  0  0
   28.6409  -22.3490  -11.4230 O   0  0  0  0  0  0  0  0  0  0  0  0
  1  2  1  0
  3  2  1  0
  4  3  1  0
  5  6  1  6
  5  4  1  0
  7  5  1  0
  8  7  2  0
 10  9  1  6
 10 12  1  0
 11 10  1  0
 12 14  1  0
 12 13  1  6
 13  7  1  0
 14 15  2  0
 16 17  1  0
 18 17  1  0
 18 19  1  1
 18 20  1  0
 20 22  1  0
 20 21  1  6
 21 14  1  0
 22 23  2  0
 22 24  1  0
M  END
$$$$
