MVI.pdb
     RDKit          3D

 24 23  0  0  1  0  0  0  0  0999 V2000
   27.1802  -27.7560  -18.8633 C   0  0  0  0  0  0  0  0  0  0  0  0
   25.7324  -26.6970  -18.7877 S   0  0  0  0  0  0  0  0  0  0  0  0
   26.1154  -24.9572  -18.9242 C   0  0  0  0  0  0  0  0  0  0  0  0
   26.7763  -24.4716  -17.6866 C   0  0  0  0  0  0  0  0  0  0  0  0
   27.8816  -23.4924  -17.8395 C   0  0  2  0  0  0  0  0  0  0  0  0
   29.1743  -24.0294  -18.1432 N   0  0  0  0  0  0  0  0  0  0  0  0
   28.0193  -22.6234  -16.6263 C   0  0  0  0  0  0  0  0  0  0  0  0
   28.9271  -22.8185  -15.7723 O   0  0  0  0  0  0  0  0  0  0  0  0
   25.8929  -18.8693  -16.4397 C   0  0  0  0  0  0  0  0  0  0  0  0
   27.1806  -19.1999  -15.7422 C   0  0  1  0  0  0  0  0  0  0  0  0
   27.2918  -18.2224  -14.5613 C   0  0  0  0  0  0  0  0  0  0  0  0
   27.3110  -20.6168  -15.2680 C   0  0  2  0  0  0  0  0  0  0  0  0
   27.1377  -21.5488  -16.3911 N   0  0  0  0  0  0  0  0  0  0  0  0
   26.3538  -20.9429  -14.1863 C   0  0  0  0  0  0  0  0  0  0  0  0
   25.2234  -21.4851  -14.4804 O   0  0  0  0  0  0  0  0  0  0  0  0
   25.4192  -20.9850   -7.9892 C   0  0  0  0  0  0  0  0  0  0  0  0
   24.9004  -21.2174   -9.3914 C   0  0  0  0  0  0  0  0  0  0  0  0
   25.9452  -20.9031  -10.4225 C   0  0  2  0  0  0  0  0  0  0  0  0
   26.6410  -19.5907  -10.1580 C   0  0  0  0  0  0  0  0  0  0  0  0
   25.4605  -20.9854  -11.8338 C   0  0  2  0  0  0  0  0  0  0  0  0
   26.5278  -20.7292  -12.8073 N   0  0  0  0  0  0  0  0  0  0  0  0
   24.3752  -20.0269  -12.1201 C   0  0  0  0  0  0  0  0  0  0  0  0
   24.6643  -18.8570  -12.4706 O   0  0  0  0  0  0  0  0  0  0  0  0
   23.0274  -20.3591  -12.0194 O   0  0  0  0  0  0  0  0  0  0  0  0
  1  2  1  0
  3  2  1  0
  4  3  1  0
  5  6  1  1
  5  4  1  0
  7  5  1  0
  8  7  2  0
 10  9  1  1
 10 12  1  0
 11 10  1  0
 12 14  1  0
 12 13  1  6
 13  7  1  0
 14 15  2  0
 16 17  1  0
 18 17  1  0
 18 19  1  1
 18 20  1  0
 20 22  1  0
 20 21  1  6
 21 14  1  0
 22 23  2  0
 22 24  1  0
M  END
$$$$
