MVI.pdb
     RDKit          3D

 24 23  0  0  1  0  0  0  0  0999 V2000
   24.2745  -26.8383  -15.5885 C   0  0  0  0  0  0  0  0  0  0  0  0
   25.1463  -26.9966  -17.1500 S   0  0  0  0  0  0  0  0  0  0  0  0
   26.8740  -26.5529  -17.0485 C   0  0  0  0  0  0  0  0  0  0  0  0
   27.0424  -25.2883  -16.2892 C   0  0  0  0  0  0  0  0  0  0  0  0
   26.7879  -24.0166  -17.0117 C   0  0  2  0  0  0  0  0  0  0  0  0
   27.7328  -23.6576  -18.0267 N   0  0  0  0  0  0  0  0  0  0  0  0
   26.6688  -22.8602  -16.0660 C   0  0  0  0  0  0  0  0  0  0  0  0
   27.6797  -22.2048  -15.6916 O   0  0  0  0  0  0  0  0  0  0  0  0
   22.8520  -21.0346  -15.6311 C   0  0  0  0  0  0  0  0  0  0  0  0
   24.1784  -20.3621  -15.4244 C   0  0  1  0  0  0  0  0  0  0  0  0
   23.8995  -19.1194  -14.5639 C   0  0  0  0  0  0  0  0  0  0  0  0
   25.2404  -21.2127  -14.7937 C   0  0  2  0  0  0  0  0  0  0  0  0
   25.4179  -22.4564  -15.5564 N   0  0  0  0  0  0  0  0  0  0  0  0
   24.9490  -21.5249  -13.3758 C   0  0  0  0  0  0  0  0  0  0  0  0
   24.1575  -22.4996  -13.0896 O   0  0  0  0  0  0  0  0  0  0  0  0
   26.1504  -19.9949   -7.4174 C   0  0  0  0  0  0  0  0  0  0  0  0
   25.3958  -20.8310   -8.4278 C   0  0  0  0  0  0  0  0  0  0  0  0
   25.7863  -20.4782   -9.8337 C   0  0  2  0  0  0  0  0  0  0  0  0
   25.8474  -18.9876  -10.0591 C   0  0  0  0  0  0  0  0  0  0  0  0
   24.9683  -21.1531  -10.8867 C   0  0  2  0  0  0  0  0  0  0  0  0
   25.4516  -20.8632  -12.2413 N   0  0  0  0  0  0  0  0  0  0  0  0
   23.5462  -20.7605  -10.8420 C   0  0  0  0  0  0  0  0  0  0  0  0
   23.1774  -19.7165  -11.4327 O   0  0  0  0  0  0  0  0  0  0  0  0
   22.5789  -21.4998  -10.1676 O   0  0  0  0  0  0  0  0  0  0  0  0
  1  2  1  0
  3  2  1  0
  4  3  1  0
  5  6  1  6
  5  4  1  0
  7  5  1  0
  8  7  2  0
 10  9  1  1
 10 12  1  0
 11 10  1  0
 12 14  1  0
 12 13  1  6
 13  7  1  0
 14 15  2  0
 16 17  1  0
 18 17  1  0
 18 19  1  1
 18 20  1  0
 20 22  1  0
 20 21  1  6
 21 14  1  0
 22 23  2  0
 22 24  1  0
M  END
$$$$
