MVI.pdb
     RDKit          3D

 24 23  0  0  1  0  0  0  0  0999 V2000
   29.0402  -15.5068  -15.9294 C   0  0  0  0  0  0  0  0  0  0  0  0
   29.4905  -16.9727  -16.8632 S   0  0  0  0  0  0  0  0  0  0  0  0
   28.3017  -18.2990  -16.7226 C   0  0  0  0  0  0  0  0  0  0  0  0
   27.5628  -18.2011  -15.4385 C   0  0  0  0  0  0  0  0  0  0  0  0
   26.5471  -19.2451  -15.1516 C   0  0  2  0  0  0  0  0  0  0  0  0
   25.4935  -19.3931  -16.1107 N   0  0  0  0  0  0  0  0  0  0  0  0
   25.9180  -19.0463  -13.8060 C   0  0  0  0  0  0  0  0  0  0  0  0
   25.3830  -17.9510  -13.4810 O   0  0  0  0  0  0  0  0  0  0  0  0
   22.9347  -20.1582  -12.7377 C   0  0  0  0  0  0  0  0  0  0  0  0
   23.8503  -20.6489  -11.6537 C   0  0  1  0  0  0  0  0  0  0  0  0
   24.0384  -22.1544  -11.9004 C   0  0  0  0  0  0  0  0  0  0  0  0
   25.1788  -19.9580  -11.5709 C   0  0  2  0  0  0  0  0  0  0  0  0
   25.8976  -20.0795  -12.8471 N   0  0  0  0  0  0  0  0  0  0  0  0
   26.0181  -20.4737  -10.4653 C   0  0  0  0  0  0  0  0  0  0  0  0
   26.6871  -21.5618  -10.6298 O   0  0  0  0  0  0  0  0  0  0  0  0
   29.4258  -19.2970   -5.4953 C   0  0  0  0  0  0  0  0  0  0  0  0
   28.6264  -20.3081   -6.2875 C   0  0  0  0  0  0  0  0  0  0  0  0
   27.7573  -19.6394   -7.3127 C   0  0  2  0  0  0  0  0  0  0  0  0
   26.9200  -18.5304   -6.7248 C   0  0  0  0  0  0  0  0  0  0  0  0
   26.9222  -20.5807   -8.1189 C   0  0  2  0  0  0  0  0  0  0  0  0
   26.1914  -19.8996   -9.1933 N   0  0  0  0  0  0  0  0  0  0  0  0
   25.9224  -21.2971   -7.3029 C   0  0  0  0  0  0  0  0  0  0  0  0
   24.7182  -20.9485   -7.3597 O   0  0  0  0  0  0  0  0  0  0  0  0
   26.2520  -22.3550   -6.4608 O   0  0  0  0  0  0  0  0  0  0  0  0
  1  2  1  0
  3  2  1  0
  4  3  1  0
  5  6  1  6
  5  4  1  0
  7  5  1  0
  8  7  2  0
 10  9  1  6
 10 12  1  0
 11 10  1  0
 12 14  1  0
 12 13  1  6
 13  7  1  0
 14 15  2  0
 16 17  1  0
 18 17  1  0
 18 19  1  1
 18 20  1  0
 20 22  1  0
 20 21  1  6
 21 14  1  0
 22 23  2  0
 22 24  1  0
M  END
$$$$
