MVI.pdb
     RDKit          3D

 24 23  0  0  1  0  0  0  0  0999 V2000
   23.1645  -26.7769  -14.2971 C   0  0  0  0  0  0  0  0  0  0  0  0
   23.0263  -26.8415  -16.0860 S   0  0  0  0  0  0  0  0  0  0  0  0
   24.6049  -26.9199  -16.9192 C   0  0  0  0  0  0  0  0  0  0  0  0
   25.5585  -25.9534  -16.3185 C   0  0  0  0  0  0  0  0  0  0  0  0
   25.3405  -24.5120  -16.5990 C   0  0  2  0  0  0  0  0  0  0  0  0
   25.6727  -24.0595  -17.9169 N   0  0  0  0  0  0  0  0  0  0  0  0
   26.0691  -23.6437  -15.6186 C   0  0  0  0  0  0  0  0  0  0  0  0
   27.3134  -23.7486  -15.4390 O   0  0  0  0  0  0  0  0  0  0  0  0
   24.7830  -19.7170  -14.9547 C   0  0  0  0  0  0  0  0  0  0  0  0
   26.1243  -20.3505  -14.7230 C   0  0  1  0  0  0  0  0  0  0  0  0
   26.9433  -19.3351  -13.9101 C   0  0  0  0  0  0  0  0  0  0  0  0
   26.0974  -21.6809  -14.0312 C   0  0  2  0  0  0  0  0  0  0  0  0
   25.3909  -22.6709  -14.8563 N   0  0  0  0  0  0  0  0  0  0  0  0
   25.4805  -21.6085  -12.6869 C   0  0  0  0  0  0  0  0  0  0  0  0
   24.2570  -21.9780  -12.5287 O   0  0  0  0  0  0  0  0  0  0  0  0
   26.3598  -19.7628   -6.7601 C   0  0  0  0  0  0  0  0  0  0  0  0
   25.4960  -20.4430   -7.7995 C   0  0  0  0  0  0  0  0  0  0  0  0
   26.2038  -20.5466   -9.1193 C   0  0  2  0  0  0  0  0  0  0  0  0
   26.9360  -19.2785   -9.4828 C   0  0  0  0  0  0  0  0  0  0  0  0
   25.3402  -21.0161  -10.2449 C   0  0  2  0  0  0  0  0  0  0  0  0
   26.0884  -21.1686  -11.4976 N   0  0  0  0  0  0  0  0  0  0  0  0
   24.2166  -20.0997  -10.5214 C   0  0  0  0  0  0  0  0  0  0  0  0
   24.3924  -19.1266  -11.2942 O   0  0  0  0  0  0  0  0  0  0  0  0
   22.9534  -20.2617   -9.9601 O   0  0  0  0  0  0  0  0  0  0  0  0
  1  2  1  0
  3  2  1  0
  4  3  1  0
  5  6  1  6
  5  4  1  0
  7  5  1  0
  8  7  2  0
 10  9  1  1
 10 12  1  0
 11 10  1  0
 12 14  1  0
 12 13  1  6
 13  7  1  0
 14 15  2  0
 16 17  1  0
 18 17  1  0
 18 19  1  6
 18 20  1  0
 20 22  1  0
 20 21  1  6
 21 14  1  0
 22 23  2  0
 22 24  1  0
M  END
$$$$
