MVI.pdb
     RDKit          3D

 24 23  0  0  1  0  0  0  0  0999 V2000
   20.2865  -21.1331  -13.2884 C   0  0  0  0  0  0  0  0  0  0  0  0
   20.1827  -22.2161  -11.8602 S   0  0  0  0  0  0  0  0  0  0  0  0
   21.6333  -22.1610  -10.8186 C   0  0  0  0  0  0  0  0  0  0  0  0
   22.8620  -22.0441  -11.6439 C   0  0  0  0  0  0  0  0  0  0  0  0
   23.5157  -20.7131  -11.7140 C   0  0  2  0  0  0  0  0  0  0  0  0
   23.5628  -20.0907  -13.0033 N   0  0  0  0  0  0  0  0  0  0  0  0
   24.9131  -20.7568  -11.1744 C   0  0  0  0  0  0  0  0  0  0  0  0
   25.8252  -21.4101  -11.7514 O   0  0  0  0  0  0  0  0  0  0  0  0
   27.1028  -18.1993  -11.4612 C   0  0  0  0  0  0  0  0  0  0  0  0
   27.1210  -18.4857   -9.9875 C   0  0  1  0  0  0  0  0  0  0  0  0
   26.2388  -17.4117   -9.3311 C   0  0  0  0  0  0  0  0  0  0  0  0
   26.6632  -19.8580   -9.5923 C   0  0  2  0  0  0  0  0  0  0  0  0
   25.2657  -20.0661   -9.9971 N   0  0  0  0  0  0  0  0  0  0  0  0
   26.8133  -20.1097   -8.1407 C   0  0  0  0  0  0  0  0  0  0  0  0
   25.7633  -20.2353   -7.4058 O   0  0  0  0  0  0  0  0  0  0  0  0
   31.6037  -21.7831   -5.6649 C   0  0  0  0  0  0  0  0  0  0  0  0
   30.1311  -21.7871   -6.0123 C   0  0  0  0  0  0  0  0  0  0  0  0
   29.4283  -20.5912   -5.4384 C   0  0  2  0  0  0  0  0  0  0  0  0
   29.4505  -20.5774   -3.9299 C   0  0  0  0  0  0  0  0  0  0  0  0
   28.0446  -20.3812   -5.9626 C   0  0  2  0  0  0  0  0  0  0  0  0
   28.0154  -20.2387   -7.4225 N   0  0  0  0  0  0  0  0  0  0  0  0
   27.3978  -19.1804   -5.3982 C   0  0  0  0  0  0  0  0  0  0  0  0
   26.5607  -19.3104   -4.4723 O   0  0  0  0  0  0  0  0  0  0  0  0
   27.6726  -17.8922   -5.8475 O   0  0  0  0  0  0  0  0  0  0  0  0
  1  2  1  0
  3  2  1  0
  4  3  1  0
  5  6  1  6
  5  4  1  0
  7  5  1  0
  8  7  2  0
 10  9  1  6
 10 12  1  0
 11 10  1  0
 12 14  1  0
 12 13  1  1
 13  7  1  0
 14 15  2  0
 16 17  1  0
 18 17  1  0
 18 19  1  1
 18 20  1  0
 20 22  1  0
 20 21  1  6
 21 14  1  0
 22 23  2  0
 22 24  1  0
M  END
$$$$
