MVI.pdb
     RDKit          3D

 24 23  0  0  1  0  0  0  0  0999 V2000
   20.4334  -30.1898   -9.0369 C   0  0  0  0  0  0  0  0  0  0  0  0
   19.9388  -29.7953  -10.7171 S   0  0  0  0  0  0  0  0  0  0  0  0
   18.9034  -28.3437  -10.8317 C   0  0  0  0  0  0  0  0  0  0  0  0
   19.1239  -27.4541   -9.6637 C   0  0  0  0  0  0  0  0  0  0  0  0
   18.3445  -26.1919   -9.6074 C   0  0  2  0  0  0  0  0  0  0  0  0
   18.7220  -25.1653  -10.5324 N   0  0  0  0  0  0  0  0  0  0  0  0
   18.3575  -25.5974   -8.2319 C   0  0  0  0  0  0  0  0  0  0  0  0
   19.1970  -24.7162   -7.8998 O   0  0  0  0  0  0  0  0  0  0  0  0
   16.1901  -23.3480   -6.8805 C   0  0  0  0  0  0  0  0  0  0  0  0
   16.2093  -24.4303   -5.8400 C   0  0  1  0  0  0  0  0  0  0  0  0
   14.8789  -25.1866   -5.9835 C   0  0  0  0  0  0  0  0  0  0  0  0
   17.3672  -25.3801   -5.9199 C   0  0  2  0  0  0  0  0  0  0  0  0
   17.4281  -25.9998   -7.2512 N   0  0  0  0  0  0  0  0  0  0  0  0
   17.3139  -26.4280   -4.8749 C   0  0  0  0  0  0  0  0  0  0  0  0
   16.7534  -27.5576   -5.1360 O   0  0  0  0  0  0  0  0  0  0  0  0
   21.2352  -27.5291   -1.1138 C   0  0  0  0  0  0  0  0  0  0  0  0
   20.1636  -27.6425   -2.1758 C   0  0  0  0  0  0  0  0  0  0  0  0
   18.7922  -27.4562   -1.5943 C   0  0  2  0  0  0  0  0  0  0  0  0
   18.5022  -28.4276   -0.4769 C   0  0  0  0  0  0  0  0  0  0  0  0
   17.6916  -27.4478   -2.6053 C   0  0  2  0  0  0  0  0  0  0  0  0
   17.8242  -26.3479   -3.5670 N   0  0  0  0  0  0  0  0  0  0  0  0
   16.3549  -27.3261   -1.9911 C   0  0  0  0  0  0  0  0  0  0  0  0
   15.8919  -26.1855   -1.7467 O   0  0  0  0  0  0  0  0  0  0  0  0
   15.5704  -28.4280   -1.6638 O   0  0  0  0  0  0  0  0  0  0  0  0
  1  2  1  0
  3  2  1  0
  4  3  1  0
  5  6  1  6
  5  4  1  0
  7  5  1  0
  8  7  2  0
 10  9  1  6
 10 12  1  0
 11 10  1  0
 12 14  1  0
 12 13  1  6
 13  7  1  0
 14 15  2  0
 16 17  1  0
 18 17  1  0
 18 19  1  1
 18 20  1  0
 20 22  1  0
 20 21  1  6
 21 14  1  0
 22 23  2  0
 22 24  1  0
M  END
$$$$
