MVI.pdb
     RDKit          3D

 24 23  0  0  1  0  0  0  0  0999 V2000
   26.6116  -19.0275   -5.8390 C   0  0  0  0  0  0  0  0  0  0  0  0
   28.2602  -19.2818   -6.5028 S   0  0  0  0  0  0  0  0  0  0  0  0
   28.3232  -20.5075   -7.8013 C   0  0  0  0  0  0  0  0  0  0  0  0
   27.4269  -20.1249   -8.9214 C   0  0  0  0  0  0  0  0  0  0  0  0
   27.2844  -21.0863  -10.0435 C   0  0  2  0  0  0  0  0  0  0  0  0
   28.4988  -21.5879  -10.6140 N   0  0  0  0  0  0  0  0  0  0  0  0
   26.4563  -20.5167  -11.1550 C   0  0  0  0  0  0  0  0  0  0  0  0
   26.8195  -19.4897  -11.7914 O   0  0  0  0  0  0  0  0  0  0  0  0
   26.2167  -22.2595  -14.1365 C   0  0  0  0  0  0  0  0  0  0  0  0
   24.7895  -21.9677  -13.7729 C   0  0  1  0  0  0  0  0  0  0  0  0
   24.2237  -23.2680  -13.1799 C   0  0  0  0  0  0  0  0  0  0  0  0
   24.5875  -20.8237  -12.8244 C   0  0  2  0  0  0  0  0  0  0  0  0
   25.2349  -21.1086  -11.5360 N   0  0  0  0  0  0  0  0  0  0  0  0
   23.1561  -20.5080  -12.6136 C   0  0  0  0  0  0  0  0  0  0  0  0
   22.5776  -20.8784  -11.5243 O   0  0  0  0  0  0  0  0  0  0  0  0
   18.9784  -16.1513  -13.4753 C   0  0  0  0  0  0  0  0  0  0  0  0
   19.2244  -17.5973  -13.1043 C   0  0  0  0  0  0  0  0  0  0  0  0
   20.6377  -18.0075  -13.4009 C   0  0  2  0  0  0  0  0  0  0  0  0
   21.0712  -17.6199  -14.7932 C   0  0  0  0  0  0  0  0  0  0  0  0
   20.9318  -19.4459  -13.1219 C   0  0  2  0  0  0  0  0  0  0  0  0
   22.3017  -19.8185  -13.4922 N   0  0  0  0  0  0  0  0  0  0  0  0
   20.0254  -20.3626  -13.8408 C   0  0  0  0  0  0  0  0  0  0  0  0
   18.8242  -20.4432  -13.4863 O   0  0  0  0  0  0  0  0  0  0  0  0
   20.4411  -21.1544  -14.9072 O   0  0  0  0  0  0  0  0  0  0  0  0
  1  2  1  0
  3  2  1  0
  4  3  1  0
  5  6  1  6
  5  4  1  0
  7  5  1  0
  8  7  2  0
 10  9  1  1
 10 12  1  0
 11 10  1  0
 12 14  1  0
 12 13  1  1
 13  7  1  0
 14 15  2  0
 16 17  1  0
 18 17  1  0
 18 19  1  6
 18 20  1  0
 20 22  1  0
 20 21  1  6
 21 14  1  0
 22 23  2  0
 22 24  1  0
M  END
$$$$
