MVI.pdb
     RDKit          3D

 24 23  0  0  1  0  0  0  0  0999 V2000
   28.8382  -15.5087  -16.4633 C   0  0  0  0  0  0  0  0  0  0  0  0
   27.2970  -14.6420  -16.1518 S   0  0  0  0  0  0  0  0  0  0  0  0
   25.8785  -15.7243  -16.0577 C   0  0  0  0  0  0  0  0  0  0  0  0
   26.2849  -17.0751  -15.5946 C   0  0  0  0  0  0  0  0  0  0  0  0
   25.2527  -18.1420  -15.6052 C   0  0  2  0  0  0  0  0  0  0  0  0
   24.0702  -17.8802  -16.3702 N   0  0  0  0  0  0  0  0  0  0  0  0
   24.8281  -18.5114  -14.2163 C   0  0  0  0  0  0  0  0  0  0  0  0
   23.9906  -17.8199  -13.5744 O   0  0  0  0  0  0  0  0  0  0  0  0
   23.0063  -21.4036  -13.4939 C   0  0  0  0  0  0  0  0  0  0  0  0
   24.0954  -21.4229  -12.4606 C   0  0  1  0  0  0  0  0  0  0  0  0
   25.0613  -22.5438  -12.8767 C   0  0  0  0  0  0  0  0  0  0  0  0
   24.8342  -20.1304  -12.2793 C   0  0  2  0  0  0  0  0  0  0  0  0
   25.3484  -19.6511  -13.5700 N   0  0  0  0  0  0  0  0  0  0  0  0
   25.9415  -20.2426  -11.3025 C   0  0  0  0  0  0  0  0  0  0  0  0
   27.1215  -20.5550  -11.7130 O   0  0  0  0  0  0  0  0  0  0  0  0
   28.2451  -18.3318   -5.9183 C   0  0  0  0  0  0  0  0  0  0  0  0
   28.3099  -19.3036   -7.0762 C   0  0  0  0  0  0  0  0  0  0  0  0
   27.0739  -19.2298   -7.9249 C   0  0  2  0  0  0  0  0  0  0  0  0
   25.8078  -19.2606   -7.1049 C   0  0  0  0  0  0  0  0  0  0  0  0
   27.0276  -20.2323   -9.0322 C   0  0  2  0  0  0  0  0  0  0  0  0
   25.8702  -20.0397   -9.9129 N   0  0  0  0  0  0  0  0  0  0  0  0
   26.9694  -21.6226   -8.5399 C   0  0  0  0  0  0  0  0  0  0  0  0
   25.8721  -22.2316   -8.5453 O   0  0  0  0  0  0  0  0  0  0  0  0
   28.0858  -22.3027   -8.0622 O   0  0  0  0  0  0  0  0  0  0  0  0
  1  2  1  0
  3  2  1  0
  4  3  1  0
  5  6  1  6
  5  4  1  0
  7  5  1  0
  8  7  2  0
 10  9  1  6
 10 12  1  0
 11 10  1  0
 12 14  1  0
 12 13  1  6
 13  7  1  0
 14 15  2  0
 16 17  1  0
 18 17  1  0
 18 19  1  1
 18 20  1  0
 20 22  1  0
 20 21  1  1
 21 14  1  0
 22 23  2  0
 22 24  1  0
M  END
$$$$
