MVI.pdb
     RDKit          3D

 24 23  0  0  1  0  0  0  0  0999 V2000
   29.7450  -16.4571  -17.3863 C   0  0  0  0  0  0  0  0  0  0  0  0
   28.5240  -17.2701  -16.3512 S   0  0  0  0  0  0  0  0  0  0  0  0
   28.1230  -18.9257  -16.8902 C   0  0  0  0  0  0  0  0  0  0  0  0
   27.1759  -19.5659  -15.9429 C   0  0  0  0  0  0  0  0  0  0  0  0
   27.6750  -20.7159  -15.1478 C   0  0  2  0  0  0  0  0  0  0  0  0
   28.2848  -21.7843  -15.8817 N   0  0  0  0  0  0  0  0  0  0  0  0
   26.5942  -21.3049  -14.2930 C   0  0  0  0  0  0  0  0  0  0  0  0
   25.8932  -22.2764  -14.6886 O   0  0  0  0  0  0  0  0  0  0  0  0
   27.0845  -21.4623  -10.4039 C   0  0  0  0  0  0  0  0  0  0  0  0
   25.6332  -21.2280  -10.7088 C   0  0  1  0  0  0  0  0  0  0  0  0
   25.3031  -19.8263  -10.1715 C   0  0  0  0  0  0  0  0  0  0  0  0
   25.2523  -21.3417  -12.1549 C   0  0  2  0  0  0  0  0  0  0  0  0
   26.3177  -20.7960  -13.0077 N   0  0  0  0  0  0  0  0  0  0  0  0
   23.9673  -20.6707  -12.4572 C   0  0  0  0  0  0  0  0  0  0  0  0
   23.9203  -19.3851  -12.5156 O   0  0  0  0  0  0  0  0  0  0  0  0
   19.8374  -20.3889  -16.6224 C   0  0  0  0  0  0  0  0  0  0  0  0
   20.0474  -20.1064  -15.1509 C   0  0  0  0  0  0  0  0  0  0  0  0
   21.2425  -20.8404  -14.6159 C   0  0  2  0  0  0  0  0  0  0  0  0
   21.1602  -22.3281  -14.8532 C   0  0  0  0  0  0  0  0  0  0  0  0
   21.5629  -20.5357  -13.1883 C   0  0  2  0  0  0  0  0  0  0  0  0
   22.7271  -21.2858  -12.7042 N   0  0  0  0  0  0  0  0  0  0  0  0
   20.4432  -20.8395  -12.2758 C   0  0  0  0  0  0  0  0  0  0  0  0
   19.3856  -20.1685  -12.3553 O   0  0  0  0  0  0  0  0  0  0  0  0
   20.5014  -21.8467  -11.3171 O   0  0  0  0  0  0  0  0  0  0  0  0
  1  2  1  0
  3  2  1  0
  4  3  1  0
  5  6  1  6
  5  4  1  0
  7  5  1  0
  8  7  2  0
 10  9  1  6
 10 12  1  0
 11 10  1  0
 12 14  1  0
 12 13  1  6
 13  7  1  0
 14 15  2  0
 16 17  1  0
 18 17  1  0
 18 19  1  1
 18 20  1  0
 20 22  1  0
 20 21  1  1
 21 14  1  0
 22 23  2  0
 22 24  1  0
M  END
$$$$
