MVI.pdb
     RDKit          3D

 24 23  0  0  1  0  0  0  0  0999 V2000
   12.2665  -25.8303    2.4830 C   0  0  0  0  0  0  0  0  0  0  0  0
   11.5865  -25.6368    0.8327 S   0  0  0  0  0  0  0  0  0  0  0  0
   12.0632  -24.1074    0.0415 C   0  0  0  0  0  0  0  0  0  0  0  0
   13.1800  -23.4658    0.7802 C   0  0  0  0  0  0  0  0  0  0  0  0
   13.7178  -22.1928    0.2379 C   0  0  2  0  0  0  0  0  0  0  0  0
   14.1789  -22.2194   -1.1180 N   0  0  0  0  0  0  0  0  0  0  0  0
   14.8283  -21.6569    1.0897 C   0  0  0  0  0  0  0  0  0  0  0  0
   16.0397  -21.8252    0.7803 O   0  0  0  0  0  0  0  0  0  0  0  0
   15.9930  -18.2599    4.5711 C   0  0  0  0  0  0  0  0  0  0  0  0
   15.0503  -19.0005    3.6673 C   0  0  1  0  0  0  0  0  0  0  0  0
   14.5949  -17.9902    2.6022 C   0  0  0  0  0  0  0  0  0  0  0  0
   15.6118  -20.2316    3.0204 C   0  0  2  0  0  0  0  0  0  0  0  0
   14.5624  -20.9397    2.2739 N   0  0  0  0  0  0  0  0  0  0  0  0
   16.2445  -21.1470    3.9973 C   0  0  0  0  0  0  0  0  0  0  0  0
   15.5048  -21.9128    4.7217 O   0  0  0  0  0  0  0  0  0  0  0  0
   20.3946  -24.4699    3.0802 C   0  0  0  0  0  0  0  0  0  0  0  0
   19.1136  -23.8176    3.5523 C   0  0  0  0  0  0  0  0  0  0  0  0
   19.3440  -22.9754    4.7734 C   0  0  2  0  0  0  0  0  0  0  0  0
   19.9923  -23.7493    5.8946 C   0  0  0  0  0  0  0  0  0  0  0  0
   18.1334  -22.2405    5.2506 C   0  0  2  0  0  0  0  0  0  0  0  0
   17.6196  -21.2995    4.2491 N   0  0  0  0  0  0  0  0  0  0  0  0
   18.3855  -21.4662    6.4818 C   0  0  0  0  0  0  0  0  0  0  0  0
   18.0959  -21.9689    7.5946 O   0  0  0  0  0  0  0  0  0  0  0  0
   18.9358  -20.1880    6.4713 O   0  0  0  0  0  0  0  0  0  0  0  0
  1  2  1  0
  3  2  1  0
  4  3  1  0
  5  6  1  6
  5  4  1  0
  7  5  1  0
  8  7  2  0
 10  9  1  1
 10 12  1  0
 11 10  1  0
 12 14  1  0
 12 13  1  1
 13  7  1  0
 14 15  2  0
 16 17  1  0
 18 17  1  0
 18 19  1  1
 18 20  1  0
 20 22  1  0
 20 21  1  6
 21 14  1  0
 22 23  2  0
 22 24  1  0
M  END
$$$$
