MVI.pdb
     RDKit          3D

 24 23  0  0  1  0  0  0  0  0999 V2000
   29.6159  -20.6848   -5.4997 C   0  0  0  0  0  0  0  0  0  0  0  0
   28.2890  -19.4759   -5.5338 S   0  0  0  0  0  0  0  0  0  0  0  0
   26.7070  -20.1685   -5.9919 C   0  0  0  0  0  0  0  0  0  0  0  0
   26.3529  -19.7824   -7.3811 C   0  0  0  0  0  0  0  0  0  0  0  0
   26.7755  -20.6938   -8.4741 C   0  0  2  0  0  0  0  0  0  0  0  0
   28.1853  -20.8926   -8.6319 N   0  0  0  0  0  0  0  0  0  0  0  0
   26.2223  -20.2602   -9.7976 C   0  0  0  0  0  0  0  0  0  0  0  0
   26.6994  -19.2740  -10.4232 O   0  0  0  0  0  0  0  0  0  0  0  0
   26.5905  -21.9583  -12.5987 C   0  0  0  0  0  0  0  0  0  0  0  0
   25.1518  -21.5590  -12.7565 C   0  0  1  0  0  0  0  0  0  0  0  0
   24.3389  -22.8631  -12.7251 C   0  0  0  0  0  0  0  0  0  0  0  0
   24.6360  -20.5913  -11.7334 C   0  0  2  0  0  0  0  0  0  0  0  0
   25.1439  -20.9404  -10.3991 N   0  0  0  0  0  0  0  0  0  0  0  0
   23.1568  -20.5245  -11.7112 C   0  0  0  0  0  0  0  0  0  0  0  0
   22.5034  -21.2015  -10.8319 O   0  0  0  0  0  0  0  0  0  0  0  0
   20.1811  -16.0241  -12.8098 C   0  0  0  0  0  0  0  0  0  0  0  0
   20.7268  -17.2907  -12.1878 C   0  0  0  0  0  0  0  0  0  0  0  0
   20.2475  -18.5117  -12.9179 C   0  0  2  0  0  0  0  0  0  0  0  0
   18.7424  -18.6117  -12.9497 C   0  0  0  0  0  0  0  0  0  0  0  0
   20.8664  -19.7895  -12.4515 C   0  0  2  0  0  0  0  0  0  0  0  0
   22.3288  -19.7777  -12.5680 N   0  0  0  0  0  0  0  0  0  0  0  0
   20.3825  -20.9643  -13.2027 C   0  0  0  0  0  0  0  0  0  0  0  0
   20.9630  -21.2973  -14.2644 O   0  0  0  0  0  0  0  0  0  0  0  0
   19.2989  -21.7329  -12.7878 O   0  0  0  0  0  0  0  0  0  0  0  0
  1  2  1  0
  3  2  1  0
  4  3  1  0
  5  6  1  6
  5  4  1  0
  7  5  1  0
  8  7  2  0
 10  9  1  1
 10 12  1  0
 11 10  1  0
 12 14  1  0
 12 13  1  1
 13  7  1  0
 14 15  2  0
 16 17  1  0
 18 17  1  0
 18 19  1  1
 18 20  1  0
 20 22  1  0
 20 21  1  6
 21 14  1  0
 22 23  2  0
 22 24  1  0
M  END
$$$$
