MVI.pdb
     RDKit          3D

 24 23  0  0  1  0  0  0  0  0999 V2000
   32.1389  -22.4902  -10.6568 C   0  0  0  0  0  0  0  0  0  0  0  0
   32.5926  -22.3673  -12.3895 S   0  0  0  0  0  0  0  0  0  0  0  0
   31.1922  -22.1548  -13.4785 C   0  0  0  0  0  0  0  0  0  0  0  0
   30.1413  -21.3378  -12.8208 C   0  0  0  0  0  0  0  0  0  0  0  0
   28.8969  -21.0772  -13.5871 C   0  0  2  0  0  0  0  0  0  0  0  0
   29.0443  -20.3741  -14.8263 N   0  0  0  0  0  0  0  0  0  0  0  0
   27.8848  -20.3431  -12.7608 C   0  0  0  0  0  0  0  0  0  0  0  0
   27.6873  -19.1051  -12.9024 O   0  0  0  0  0  0  0  0  0  0  0  0
   24.5953  -19.8362  -12.8395 C   0  0  0  0  0  0  0  0  0  0  0  0
   24.7779  -20.3845  -11.4538 C   0  0  1  0  0  0  0  0  0  0  0  0
   24.3035  -21.8456  -11.5048 C   0  0  0  0  0  0  0  0  0  0  0  0
   26.1719  -20.3015  -10.9068 C   0  0  2  0  0  0  0  0  0  0  0  0
   27.1096  -21.0092  -11.7899 N   0  0  0  0  0  0  0  0  0  0  0  0
   26.2729  -20.8344   -9.5288 C   0  0  0  0  0  0  0  0  0  0  0  0
   26.1268  -22.0974   -9.3239 O   0  0  0  0  0  0  0  0  0  0  0  0
   28.9700  -19.8476   -4.0587 C   0  0  0  0  0  0  0  0  0  0  0  0
   27.9517  -20.6333   -4.8555 C   0  0  0  0  0  0  0  0  0  0  0  0
   27.6747  -19.9869   -6.1817 C   0  0  2  0  0  0  0  0  0  0  0  0
   27.2390  -18.5490   -6.0433 C   0  0  0  0  0  0  0  0  0  0  0  0
   26.7384  -20.7556   -7.0568 C   0  0  2  0  0  0  0  0  0  0  0  0
   26.5230  -20.1041   -8.3535 N   0  0  0  0  0  0  0  0  0  0  0  0
   25.4098  -20.9446   -6.4421 C   0  0  0  0  0  0  0  0  0  0  0  0
   24.4144  -20.3626   -6.9376 O   0  0  0  0  0  0  0  0  0  0  0  0
   25.2015  -21.7467   -5.3240 O   0  0  0  0  0  0  0  0  0  0  0  0
  1  2  1  0
  3  2  1  0
  4  3  1  0
  5  6  1  6
  5  4  1  0
  7  5  1  0
  8  7  2  0
 10  9  1  6
 10 12  1  0
 11 10  1  0
 12 14  1  0
 12 13  1  6
 13  7  1  0
 14 15  2  0
 16 17  1  0
 18 17  1  0
 18 19  1  1
 18 20  1  0
 20 22  1  0
 20 21  1  6
 21 14  1  0
 22 23  2  0
 22 24  1  0
M  END
$$$$
