MVI.pdb
     RDKit          3D

 24 23  0  0  1  0  0  0  0  0999 V2000
   25.3404  -13.3178  -15.0803 C   0  0  0  0  0  0  0  0  0  0  0  0
   24.9674  -14.6550  -16.2189 S   0  0  0  0  0  0  0  0  0  0  0  0
   23.2196  -14.8591  -16.5286 C   0  0  0  0  0  0  0  0  0  0  0  0
   22.5433  -13.5385  -16.5827 C   0  0  0  0  0  0  0  0  0  0  0  0
   21.0760  -13.5292  -16.8081 C   0  0  2  0  0  0  0  0  0  0  0  0
   20.5682  -14.4783  -17.7531 N   0  0  0  0  0  0  0  0  0  0  0  0
   20.5900  -12.1714  -17.2153 C   0  0  0  0  0  0  0  0  0  0  0  0
   20.7485  -11.7362  -18.3888 O   0  0  0  0  0  0  0  0  0  0  0  0
   17.2744  -11.3315  -16.4359 C   0  0  0  0  0  0  0  0  0  0  0  0
   17.9207   -9.9931  -16.6481 C   0  0  1  0  0  0  0  0  0  0  0  0
   17.4073   -9.0852  -15.5190 C   0  0  0  0  0  0  0  0  0  0  0  0
   19.4201   -9.9995  -16.6791 C   0  0  2  0  0  0  0  0  0  0  0  0
   19.9327  -11.3238  -16.3004 N   0  0  0  0  0  0  0  0  0  0  0  0
   20.0096   -8.9590  -15.8058 C   0  0  0  0  0  0  0  0  0  0  0  0
   20.2456   -9.2271  -14.5685 O   0  0  0  0  0  0  0  0  0  0  0  0
   24.0195   -7.1023  -16.3895 C   0  0  0  0  0  0  0  0  0  0  0  0
   22.8834   -6.3576  -17.0558 C   0  0  0  0  0  0  0  0  0  0  0  0
   21.9463   -5.7657  -16.0435 C   0  0  2  0  0  0  0  0  0  0  0  0
   22.6378   -4.8025  -15.1104 C   0  0  0  0  0  0  0  0  0  0  0  0
   21.1436   -6.7732  -15.2858 C   0  0  2  0  0  0  0  0  0  0  0  0
   20.3666   -7.6486  -16.1703 N   0  0  0  0  0  0  0  0  0  0  0  0
   20.1899   -6.1517  -14.3462 C   0  0  0  0  0  0  0  0  0  0  0  0
   20.5793   -5.8304  -13.1972 O   0  0  0  0  0  0  0  0  0  0  0  0
   18.8608   -5.9006  -14.6740 O   0  0  0  0  0  0  0  0  0  0  0  0
  1  2  1  0
  3  2  1  0
  4  3  1  0
  5  6  1  6
  5  4  1  0
  7  5  1  0
  8  7  2  0
 10  9  1  1
 10 12  1  0
 11 10  1  0
 12 14  1  0
 12 13  1  1
 13  7  1  0
 14 15  2  0
 16 17  1  0
 18 17  1  0
 18 19  1  1
 18 20  1  0
 20 22  1  0
 20 21  1  6
 21 14  1  0
 22 23  2  0
 22 24  1  0
M  END
$$$$
