MVI.pdb
     RDKit          3D

 24 23  0  0  1  0  0  0  0  0999 V2000
   27.3690  -25.7750  -17.4694 C   0  0  0  0  0  0  0  0  0  0  0  0
   28.3441  -24.4652  -18.2159 S   0  0  0  0  0  0  0  0  0  0  0  0
   29.3840  -23.5991  -17.0494 C   0  0  0  0  0  0  0  0  0  0  0  0
   28.7229  -22.3516  -16.5899 C   0  0  0  0  0  0  0  0  0  0  0  0
   27.3624  -22.4717  -16.0083 C   0  0  2  0  0  0  0  0  0  0  0  0
   26.2692  -22.4761  -16.9340 N   0  0  0  0  0  0  0  0  0  0  0  0
   27.1004  -21.3999  -14.9942 C   0  0  0  0  0  0  0  0  0  0  0  0
   27.5415  -20.2272  -15.1417 O   0  0  0  0  0  0  0  0  0  0  0  0
   24.3746  -19.6755  -14.7751 C   0  0  0  0  0  0  0  0  0  0  0  0
   24.5014  -20.1416  -13.3535 C   0  0  1  0  0  0  0  0  0  0  0  0
   23.4858  -21.2830  -13.1844 C   0  0  0  0  0  0  0  0  0  0  0  0
   25.8722  -20.5902  -12.9426 C   0  0  2  0  0  0  0  0  0  0  0  0
   26.3469  -21.6601  -13.8314 N   0  0  0  0  0  0  0  0  0  0  0  0
   25.9219  -21.0425  -11.5334 C   0  0  0  0  0  0  0  0  0  0  0  0
   25.8762  -22.3020  -11.2685 O   0  0  0  0  0  0  0  0  0  0  0  0
   29.2426  -19.6319   -7.3437 C   0  0  0  0  0  0  0  0  0  0  0  0
   28.3514  -20.4785   -8.2259 C   0  0  0  0  0  0  0  0  0  0  0  0
   26.9107  -20.0768   -8.0977 C   0  0  2  0  0  0  0  0  0  0  0  0
   26.4157  -20.1489   -6.6742 C   0  0  0  0  0  0  0  0  0  0  0  0
   25.9876  -20.7924   -9.0300 C   0  0  2  0  0  0  0  0  0  0  0  0
   26.0202  -20.2347  -10.3866 N   0  0  0  0  0  0  0  0  0  0  0  0
   24.5821  -20.7542   -8.5808 C   0  0  0  0  0  0  0  0  0  0  0  0
   23.8232  -19.8519   -9.0108 O   0  0  0  0  0  0  0  0  0  0  0  0
   24.0475  -21.6812   -7.6909 O   0  0  0  0  0  0  0  0  0  0  0  0
  1  2  1  0
  3  2  1  0
  4  3  1  0
  5  6  1  6
  5  4  1  0
  7  5  1  0
  8  7  2  0
 10  9  1  6
 10 12  1  0
 11 10  1  0
 12 14  1  0
 12 13  1  6
 13  7  1  0
 14 15  2  0
 16 17  1  0
 18 17  1  0
 18 19  1  1
 18 20  1  0
 20 22  1  0
 20 21  1  6
 21 14  1  0
 22 23  2  0
 22 24  1  0
M  END
$$$$
