MVI.pdb
     RDKit          3D

 24 23  0  0  1  0  0  0  0  0999 V2000
   30.7574  -21.5144  -10.5495 C   0  0  0  0  0  0  0  0  0  0  0  0
   29.3853  -21.1787   -9.4413 S   0  0  0  0  0  0  0  0  0  0  0  0
   27.8551  -21.9480   -9.9500 C   0  0  0  0  0  0  0  0  0  0  0  0
   27.0069  -20.9794  -10.6896 C   0  0  0  0  0  0  0  0  0  0  0  0
   27.0622  -21.0138  -12.1727 C   0  0  2  0  0  0  0  0  0  0  0  0
   28.2183  -20.4286  -12.7833 N   0  0  0  0  0  0  0  0  0  0  0  0
   25.8498  -20.3793  -12.7838 C   0  0  0  0  0  0  0  0  0  0  0  0
   25.4666  -19.2252  -12.4480 O   0  0  0  0  0  0  0  0  0  0  0  0
   25.1502  -21.2937  -16.4062 C   0  0  0  0  0  0  0  0  0  0  0  0
   23.9493  -20.5733  -15.8648 C   0  0  1  0  0  0  0  0  0  0  0  0
   22.7206  -21.3271  -16.3984 C   0  0  0  0  0  0  0  0  0  0  0  0
   23.8880  -20.4557  -14.3709 C   0  0  2  0  0  0  0  0  0  0  0  0
   25.0875  -21.0486  -13.7627 N   0  0  0  0  0  0  0  0  0  0  0  0
   22.6707  -21.0787  -13.8026 C   0  0  0  0  0  0  0  0  0  0  0  0
   22.6871  -22.3249  -13.4782 O   0  0  0  0  0  0  0  0  0  0  0  0
   18.2282  -18.3708  -11.3096 C   0  0  0  0  0  0  0  0  0  0  0  0
   18.9559  -19.1092  -12.4116 C   0  0  0  0  0  0  0  0  0  0  0  0
   19.6229  -20.3503  -11.8936 C   0  0  2  0  0  0  0  0  0  0  0  0
   20.5442  -20.0688  -10.7324 C   0  0  0  0  0  0  0  0  0  0  0  0
   20.3067  -21.1647  -12.9437 C   0  0  2  0  0  0  0  0  0  0  0  0
   21.4352  -20.4544  -13.5555 N   0  0  0  0  0  0  0  0  0  0  0  0
   19.3995  -21.5594  -14.0390 C   0  0  0  0  0  0  0  0  0  0  0  0
   18.4921  -22.3969  -13.8146 O   0  0  0  0  0  0  0  0  0  0  0  0
   19.5007  -21.0430  -15.3274 O   0  0  0  0  0  0  0  0  0  0  0  0
  1  2  1  0
  3  2  1  0
  4  3  1  0
  5  6  1  6
  5  4  1  0
  7  5  1  0
  8  7  2  0
 10  9  1  1
 10 12  1  0
 11 10  1  0
 12 14  1  0
 12 13  1  1
 13  7  1  0
 14 15  2  0
 16 17  1  0
 18 17  1  0
 18 19  1  1
 18 20  1  0
 20 22  1  0
 20 21  1  6
 21 14  1  0
 22 23  2  0
 22 24  1  0
M  END
$$$$
