TDR.pdb
     RDKit          3D

 27 26  0  0  1  0  0  0  0  0999 V2000
   16.2367  -11.1871  -16.8594 C   0  0  0  0  0  0  0  0  0  0  0  0
   17.0089  -12.4708  -16.7480 C   0  0  1  0  0  0  0  0  0  0  0  0
   16.5726  -13.3396  -17.7396 O   0  0  0  0  0  0  0  0  0  0  0  0
   18.5181  -12.2230  -16.8698 C   0  0  2  0  0  0  0  0  0  0  0  0
   19.2244  -13.4781  -16.8681 N   0  0  0  0  0  0  0  0  0  0  0  0
   18.8693  -11.3736  -15.6986 C   0  0  0  0  0  0  0  0  0  0  0  0
   18.6820  -11.8460  -14.5527 O   0  0  0  0  0  0  0  0  0  0  0  0
   19.3991  -10.0725  -15.8112 N   0  0  0  0  0  0  0  0  0  0  0  0
   19.6266   -9.1570  -14.7173 C   0  0  1  0  0  0  0  0  0  0  0  0
   20.7172   -8.2054  -15.1370 C   0  0  0  0  0  0  0  0  0  0  0  0
   21.0136   -7.2899  -14.0117 C   0  0  0  0  0  0  0  0  0  0  0  0
   20.4489   -7.4465  -12.9024 O   0  0  0  0  0  0  0  0  0  0  0  0
   18.3947   -8.5151  -14.2354 C   0  0  0  0  0  0  0  0  0  0  0  0
   17.6915   -7.8299  -15.0248 O   0  0  0  0  0  0  0  0  0  0  0  0
   21.9163   -6.2233  -14.1164 O   0  0  0  0  0  0  0  0  0  0  0  0
   12.5522   -9.1036   -7.2145 N   0  0  0  0  0  0  0  0  0  0  0  0
   12.0291   -8.4237   -8.3322 C   0  0  0  0  0  0  0  0  0  0  0  0
   10.7726   -8.1153   -8.3947 N   0  0  0  0  0  0  0  0  0  0  0  0
   12.8585   -8.0578   -9.4214 N   0  0  0  0  0  0  0  0  0  0  0  0
   14.2048   -8.5469   -9.5613 C   0  0  0  0  0  0  0  0  0  0  0  0
   14.7685   -7.9843  -10.8445 C   0  0  0  0  0  0  0  0  0  0  0  0
   16.1391   -8.5391  -11.1541 C   0  0  0  0  0  0  0  0  0  0  0  0
   16.6699   -7.9934  -12.4423 C   0  0  2  0  0  0  0  0  0  0  0  0
   17.9064   -8.6024  -12.8916 N   0  0  0  0  0  0  0  0  0  0  0  0
   16.8161   -6.5015  -12.3790 C   0  0  0  0  0  0  0  0  0  0  0  0
   15.8689   -5.8006  -12.8570 O   0  0  0  0  0  0  0  0  0  0  0  0
   17.8810   -5.8374  -11.8514 O   0  0  0  0  0  0  0  0  0  0  0  0
  2  1  1  6
  2  3  1  0
  4  2  1  0
  4  5  1  1
  6  4  1  0
  6  7  2  0
  8  6  1  0
  9  8  1  0
  9 10  1  6
 10 11  1  0
 11 12  2  0
 13  9  1  0
 14 13  2  0
 15 11  1  0
 17 18  2  0
 17 16  1  0
 19 17  1  0
 20 19  1  0
 21 20  1  0
 22 21  1  0
 23 22  1  1
 23 24  1  0
 24 13  1  0
 25 23  1  0
 26 25  2  0
 27 25  1  0
M  END
$$$$
