TDR.pdb
     RDKit          3D

 27 26  0  0  1  0  0  0  0  0999 V2000
   22.9966  -12.0826  -17.9423 C   0  0  0  0  0  0  0  0  0  0  0  0
   22.5242  -11.1600  -16.8551 C   0  0  1  0  0  0  0  0  0  0  0  0
   21.9097  -11.9166  -15.8659 O   0  0  0  0  0  0  0  0  0  0  0  0
   23.6879  -10.3476  -16.2719 C   0  0  2  0  0  0  0  0  0  0  0  0
   24.6211  -11.2266  -15.6155 N   0  0  0  0  0  0  0  0  0  0  0  0
   23.0564   -9.3848  -15.3280 C   0  0  0  0  0  0  0  0  0  0  0  0
   22.7889   -9.7857  -14.1709 O   0  0  0  0  0  0  0  0  0  0  0  0
   22.7457   -8.0525  -15.6668 N   0  0  0  0  0  0  0  0  0  0  0  0
   21.9970   -7.1271  -14.8485 C   0  0  1  0  0  0  0  0  0  0  0  0
   22.4451   -5.7337  -15.2076 C   0  0  0  0  0  0  0  0  0  0  0  0
   21.7843   -4.7688  -14.2994 C   0  0  0  0  0  0  0  0  0  0  0  0
   21.3661   -5.1406  -13.1765 O   0  0  0  0  0  0  0  0  0  0  0  0
   20.5444   -7.3467  -14.9095 C   0  0  0  0  0  0  0  0  0  0  0  0
   19.9782   -7.5075  -16.0234 O   0  0  0  0  0  0  0  0  0  0  0  0
   21.5910   -3.4214  -14.6316 O   0  0  0  0  0  0  0  0  0  0  0  0
   14.0111  -11.4492  -10.2493 N   0  0  0  0  0  0  0  0  0  0  0  0
   13.4948  -10.7995  -11.3880 C   0  0  0  0  0  0  0  0  0  0  0  0
   12.2642  -10.9743  -11.7525 N   0  0  0  0  0  0  0  0  0  0  0  0
   14.3037   -9.9376  -12.1695 N   0  0  0  0  0  0  0  0  0  0  0  0
   15.7093   -9.7617  -11.9154 C   0  0  0  0  0  0  0  0  0  0  0  0
   16.2488   -8.8047  -12.9518 C   0  0  0  0  0  0  0  0  0  0  0  0
   17.7471   -8.6409  -12.8482 C   0  0  0  0  0  0  0  0  0  0  0  0
   18.2565   -7.6454  -13.8425 C   0  0  2  0  0  0  0  0  0  0  0  0
   19.6821   -7.3925  -13.7667 N   0  0  0  0  0  0  0  0  0  0  0  0
   17.4929   -6.3566  -13.7583 C   0  0  0  0  0  0  0  0  0  0  0  0
   18.0067   -5.4165  -13.0735 O   0  0  0  0  0  0  0  0  0  0  0  0
   16.2942   -6.1125  -14.3555 O   0  0  0  0  0  0  0  0  0  0  0  0
  2  1  1  6
  2  3  1  0
  4  2  1  0
  4  5  1  1
  6  4  1  0
  6  7  2  0
  8  6  1  0
  9  8  1  0
  9 10  1  6
 10 11  1  0
 11 12  2  0
 13  9  1  0
 14 13  2  0
 15 11  1  0
 17 18  2  0
 17 16  1  0
 19 17  1  0
 20 19  1  0
 21 20  1  0
 22 21  1  0
 23 22  1  1
 23 24  1  0
 24 13  1  0
 25 23  1  0
 26 25  2  0
 27 25  1  0
M  END
$$$$
