TDR.pdb
     RDKit          3D

 27 26  0  0  1  0  0  0  0  0999 V2000
   38.8226   -7.3542  -18.7572 C   0  0  0  0  0  0  0  0  0  0  0  0
   38.4607   -8.7797  -19.0629 C   0  0  1  0  0  0  0  0  0  0  0  0
   39.6292   -9.4983  -19.2796 O   0  0  0  0  0  0  0  0  0  0  0  0
   37.6451   -9.4022  -17.9221 C   0  0  2  0  0  0  0  0  0  0  0  0
   38.2546  -10.6363  -17.4983 N   0  0  0  0  0  0  0  0  0  0  0  0
   36.2820   -9.6073  -18.4847 C   0  0  0  0  0  0  0  0  0  0  0  0
   35.8749   -8.7965  -19.3495 O   0  0  0  0  0  0  0  0  0  0  0  0
   35.4301  -10.6610  -18.0969 N   0  0  0  0  0  0  0  0  0  0  0  0
   34.1125  -10.9196  -18.6296 C   0  0  1  0  0  0  0  0  0  0  0  0
   33.8181  -12.3840  -18.4296 C   0  0  0  0  0  0  0  0  0  0  0  0
   32.5094  -12.6983  -19.0469 C   0  0  0  0  0  0  0  0  0  0  0  0
   31.4444  -12.4691  -18.4246 O   0  0  0  0  0  0  0  0  0  0  0  0
   33.0880  -10.0037  -18.1066 C   0  0  0  0  0  0  0  0  0  0  0  0
   33.0064   -9.7919  -16.8674 O   0  0  0  0  0  0  0  0  0  0  0  0
   32.3864  -13.2559  -20.3264 O   0  0  0  0  0  0  0  0  0  0  0  0
   27.2346   -4.3481  -21.8458 N   0  0  0  0  0  0  0  0  0  0  0  0
   27.9455   -5.5588  -21.9641 C   0  0  0  0  0  0  0  0  0  0  0  0
   28.0614   -6.1526  -23.1095 N   0  0  0  0  0  0  0  0  0  0  0  0
   28.5536   -6.1645  -20.8366 N   0  0  0  0  0  0  0  0  0  0  0  0
   29.1767   -5.3947  -19.7924 C   0  0  0  0  0  0  0  0  0  0  0  0
   29.7355   -6.3630  -18.7769 C   0  0  0  0  0  0  0  0  0  0  0  0
   30.6128   -7.4135  -19.4166 C   0  0  0  0  0  0  0  0  0  0  0  0
   31.1848   -8.3430  -18.3930 C   0  0  2  0  0  0  0  0  0  0  0  0
   32.1345   -9.3056  -18.9159 N   0  0  0  0  0  0  0  0  0  0  0  0
   30.0987   -9.0431  -17.6304 C   0  0  0  0  0  0  0  0  0  0  0  0
   29.6101  -10.0982  -18.1451 O   0  0  0  0  0  0  0  0  0  0  0  0
   29.5939   -8.6399  -16.4322 O   0  0  0  0  0  0  0  0  0  0  0  0
  2  1  1  1
  2  3  1  0
  4  2  1  0
  4  5  1  6
  6  4  1  0
  6  7  2  0
  8  6  1  0
  9  8  1  0
  9 10  1  1
 10 11  1  0
 11 12  2  0
 13  9  1  0
 14 13  2  0
 15 11  1  0
 17 18  2  0
 17 16  1  0
 19 17  1  0
 20 19  1  0
 21 20  1  0
 22 21  1  0
 23 22  1  6
 23 24  1  0
 24 13  1  0
 25 23  1  0
 26 25  2  0
 27 25  1  0
M  END
$$$$
