TDR.pdb
     RDKit          3D

 27 26  0  0  1  0  0  0  0  0999 V2000
   26.4315  -23.2844  -20.2957 C   0  0  0  0  0  0  0  0  0  0  0  0
   25.5285  -22.4855  -21.1917 C   0  0  1  0  0  0  0  0  0  0  0  0
   25.4694  -23.1076  -22.4319 O   0  0  0  0  0  0  0  0  0  0  0  0
   24.1254  -22.3488  -20.5863 C   0  0  2  0  0  0  0  0  0  0  0  0
   23.2653  -21.6348  -21.4944 N   0  0  0  0  0  0  0  0  0  0  0  0
   24.3239  -21.6204  -19.3031 C   0  0  0  0  0  0  0  0  0  0  0  0
   25.0378  -22.1600  -18.4253 O   0  0  0  0  0  0  0  0  0  0  0  0
   23.7537  -20.3617  -19.0259 N   0  0  0  0  0  0  0  0  0  0  0  0
   23.8122  -19.6700  -17.7591 C   0  0  1  0  0  0  0  0  0  0  0  0
   24.3013  -18.2696  -18.0253 C   0  0  0  0  0  0  0  0  0  0  0  0
   25.7068  -18.1587  -17.5727 C   0  0  0  0  0  0  0  0  0  0  0  0
   26.2596  -19.1182  -16.9829 O   0  0  0  0  0  0  0  0  0  0  0  0
   22.5581  -19.7547  -16.9963 C   0  0  0  0  0  0  0  0  0  0  0  0
   21.4780  -19.3661  -17.5154 O   0  0  0  0  0  0  0  0  0  0  0  0
   26.4806  -17.0073  -17.7695 O   0  0  0  0  0  0  0  0  0  0  0  0
   21.0365  -22.6103   -8.9069 N   0  0  0  0  0  0  0  0  0  0  0  0
   21.7105  -21.5529   -9.5495 C   0  0  0  0  0  0  0  0  0  0  0  0
   22.7522  -21.0033   -9.0104 N   0  0  0  0  0  0  0  0  0  0  0  0
   21.2705  -21.0574  -10.8020 N   0  0  0  0  0  0  0  0  0  0  0  0
   20.1184  -21.5919  -11.4790 C   0  0  0  0  0  0  0  0  0  0  0  0
   20.0174  -20.9117  -12.8237 C   0  0  0  0  0  0  0  0  0  0  0  0
   21.3650  -20.7725  -13.4924 C   0  0  0  0  0  0  0  0  0  0  0  0
   21.2310  -20.2321  -14.8813 C   0  0  2  0  0  0  0  0  0  0  0  0
   22.4541  -20.2580  -15.6593 N   0  0  0  0  0  0  0  0  0  0  0  0
   20.6489  -18.8492  -14.8704 C   0  0  0  0  0  0  0  0  0  0  0  0
   21.4585  -17.8752  -14.7582 O   0  0  0  0  0  0  0  0  0  0  0  0
   19.3240  -18.5530  -14.9707 O   0  0  0  0  0  0  0  0  0  0  0  0
  2  1  1  1
  2  3  1  0
  4  2  1  0
  4  5  1  6
  6  4  1  0
  6  7  2  0
  8  6  1  0
  9  8  1  0
  9 10  1  6
 10 11  1  0
 11 12  2  0
 13  9  1  0
 14 13  2  0
 15 11  1  0
 17 18  2  0
 17 16  1  0
 19 17  1  0
 20 19  1  0
 21 20  1  0
 22 21  1  0
 23 22  1  1
 23 24  1  0
 24 13  1  0
 25 23  1  0
 26 25  2  0
 27 25  1  0
M  END
$$$$
