TDR.pdb
     RDKit          3D

 27 26  0  0  1  0  0  0  0  0999 V2000
   24.5473  -18.3398  -17.9701 C   0  0  0  0  0  0  0  0  0  0  0  0
   25.5621  -19.4134  -17.6981 C   0  0  1  0  0  0  0  0  0  0  0  0
   26.7702  -19.0388  -18.2716 O   0  0  0  0  0  0  0  0  0  0  0  0
   25.7280  -19.6516  -16.1915 C   0  0  2  0  0  0  0  0  0  0  0  0
   26.7786  -20.6084  -15.9575 N   0  0  0  0  0  0  0  0  0  0  0  0
   24.4014  -20.1418  -15.7262 C   0  0  0  0  0  0  0  0  0  0  0  0
   24.0929  -21.3305  -15.9770 O   0  0  0  0  0  0  0  0  0  0  0  0
   23.4792  -19.3421  -15.0216 N   0  0  0  0  0  0  0  0  0  0  0  0
   22.1416  -19.7333  -14.6416 C   0  0  1  0  0  0  0  0  0  0  0  0
   21.6593  -18.7584  -13.5985 C   0  0  0  0  0  0  0  0  0  0  0  0
   20.3238  -19.1865  -13.1235 C   0  0  0  0  0  0  0  0  0  0  0  0
   20.0283  -20.4050  -13.0787 O   0  0  0  0  0  0  0  0  0  0  0  0
   21.2419  -19.9070  -15.7915 C   0  0  0  0  0  0  0  0  0  0  0  0
   21.2996  -19.1066  -16.7626 O   0  0  0  0  0  0  0  0  0  0  0  0
   19.3379  -18.2813  -12.7089 O   0  0  0  0  0  0  0  0  0  0  0  0
   17.1047  -26.2220  -20.5469 N   0  0  0  0  0  0  0  0  0  0  0  0
   17.1006  -24.9810  -21.2141 C   0  0  0  0  0  0  0  0  0  0  0  0
   16.5448  -24.8533  -22.3771 N   0  0  0  0  0  0  0  0  0  0  0  0
   17.7041  -23.8366  -20.6363 N   0  0  0  0  0  0  0  0  0  0  0  0
   18.3401  -23.8712  -19.3456 C   0  0  0  0  0  0  0  0  0  0  0  0
   18.9845  -22.5252  -19.1132 C   0  0  0  0  0  0  0  0  0  0  0  0
   19.7077  -22.4629  -17.7882 C   0  0  0  0  0  0  0  0  0  0  0  0
   19.4539  -21.1645  -17.0892 C   0  0  2  0  0  0  0  0  0  0  0  0
   20.2642  -20.9475  -15.9068 N   0  0  0  0  0  0  0  0  0  0  0  0
   17.9988  -21.0013  -16.7616 C   0  0  0  0  0  0  0  0  0  0  0  0
   17.6279  -21.3008  -15.5828 O   0  0  0  0  0  0  0  0  0  0  0  0
   17.0434  -20.5588  -17.6245 O   0  0  0  0  0  0  0  0  0  0  0  0
  2  1  1  1
  2  3  1  0
  4  2  1  0
  4  5  1  6
  6  4  1  0
  6  7  2  0
  8  6  1  0
  9  8  1  0
  9 10  1  1
 10 11  1  0
 11 12  2  0
 13  9  1  0
 14 13  2  0
 15 11  1  0
 17 18  2  0
 17 16  1  0
 19 17  1  0
 20 19  1  0
 21 20  1  0
 22 21  1  0
 23 22  1  1
 23 24  1  0
 24 13  1  0
 25 23  1  0
 26 25  2  0
 27 25  1  0
M  END
$$$$
