TDR.pdb
     RDKit          3D

 27 26  0  0  1  0  0  0  0  0999 V2000
   21.1886  -10.9227  -16.3254 C   0  0  0  0  0  0  0  0  0  0  0  0
   22.4815  -11.4166  -15.7418 C   0  0  1  0  0  0  0  0  0  0  0  0
   22.9284  -12.4923  -16.4981 O   0  0  0  0  0  0  0  0  0  0  0  0
   23.5363  -10.3029  -15.7071 C   0  0  2  0  0  0  0  0  0  0  0  0
   24.7902  -10.8277  -15.2312 N   0  0  0  0  0  0  0  0  0  0  0  0
   22.9760   -9.2639  -14.7999 C   0  0  0  0  0  0  0  0  0  0  0  0
   23.0178   -9.4770  -13.5654 O   0  0  0  0  0  0  0  0  0  0  0  0
   22.4041   -8.0589  -15.2553 N   0  0  0  0  0  0  0  0  0  0  0  0
   21.8502   -7.0195  -14.4190 C   0  0  1  0  0  0  0  0  0  0  0  0
   22.2438   -5.6934  -15.0173 C   0  0  0  0  0  0  0  0  0  0  0  0
   21.7305   -4.6065  -14.1527 C   0  0  0  0  0  0  0  0  0  0  0  0
   20.9476   -3.7436  -14.6180 O   0  0  0  0  0  0  0  0  0  0  0  0
   20.4106   -7.1847  -14.1694 C   0  0  0  0  0  0  0  0  0  0  0  0
   19.6411   -7.5080  -15.1130 O   0  0  0  0  0  0  0  0  0  0  0  0
   22.0801   -4.4799  -12.8017 O   0  0  0  0  0  0  0  0  0  0  0  0
   14.5258   -7.2376   -7.1538 N   0  0  0  0  0  0  0  0  0  0  0  0
   13.9094   -7.6148   -8.3634 C   0  0  0  0  0  0  0  0  0  0  0  0
   12.6662   -7.9774   -8.3913 N   0  0  0  0  0  0  0  0  0  0  0  0
   14.6284   -7.6109   -9.5844 N   0  0  0  0  0  0  0  0  0  0  0  0
   16.0668   -7.5937   -9.6300 C   0  0  0  0  0  0  0  0  0  0  0  0
   16.4809   -7.5055  -11.0797 C   0  0  0  0  0  0  0  0  0  0  0  0
   17.9768   -7.3631  -11.2355 C   0  0  0  0  0  0  0  0  0  0  0  0
   18.3592   -7.1638  -12.6684 C   0  0  2  0  0  0  0  0  0  0  0  0
   19.7815   -6.9996  -12.8960 N   0  0  0  0  0  0  0  0  0  0  0  0
   17.5982   -6.0234  -13.2782 C   0  0  0  0  0  0  0  0  0  0  0  0
   18.0853   -4.8568  -13.1423 O   0  0  0  0  0  0  0  0  0  0  0  0
   16.4282   -6.1368  -13.9648 O   0  0  0  0  0  0  0  0  0  0  0  0
  2  1  1  6
  2  3  1  0
  4  2  1  0
  4  5  1  1
  6  4  1  0
  6  7  2  0
  8  6  1  0
  9  8  1  0
  9 10  1  6
 10 11  1  0
 11 12  2  0
 13  9  1  0
 14 13  2  0
 15 11  1  0
 17 18  2  0
 17 16  1  0
 19 17  1  0
 20 19  1  0
 21 20  1  0
 22 21  1  0
 23 22  1  1
 23 24  1  0
 24 13  1  0
 25 23  1  0
 26 25  2  0
 27 25  1  0
M  END
$$$$
