TDR.pdb
     RDKit          3D

 27 26  0  0  1  0  0  0  0  0999 V2000
   24.4806  -10.4441  -19.0210 C   0  0  0  0  0  0  0  0  0  0  0  0
   23.5225  -11.4427  -18.4369 C   0  0  1  0  0  0  0  0  0  0  0  0
   24.0282  -12.7191  -18.6462 O   0  0  0  0  0  0  0  0  0  0  0  0
   23.2978  -11.1871  -16.9408 C   0  0  2  0  0  0  0  0  0  0  0  0
   22.5289  -12.2618  -16.3682 N   0  0  0  0  0  0  0  0  0  0  0  0
   22.5859   -9.8814  -16.8712 C   0  0  0  0  0  0  0  0  0  0  0  0
   23.2415   -8.8408  -17.1134 O   0  0  0  0  0  0  0  0  0  0  0  0
   21.2197   -9.7556  -16.5489 N   0  0  0  0  0  0  0  0  0  0  0  0
   20.4757   -8.5185  -16.4983 C   0  0  1  0  0  0  0  0  0  0  0  0
   19.2723   -8.6722  -17.3924 C   0  0  0  0  0  0  0  0  0  0  0  0
   18.5424   -7.3847  -17.4391 C   0  0  0  0  0  0  0  0  0  0  0  0
   19.0866   -6.3657  -17.9284 O   0  0  0  0  0  0  0  0  0  0  0  0
   20.1777   -8.0792  -15.1272 C   0  0  0  0  0  0  0  0  0  0  0  0
   20.1028   -8.9256  -14.1971 O   0  0  0  0  0  0  0  0  0  0  0  0
   17.2375   -7.2321  -16.9518 O   0  0  0  0  0  0  0  0  0  0  0  0
   15.1695   -8.4525   -8.7862 N   0  0  0  0  0  0  0  0  0  0  0  0
   15.5918   -7.1104   -8.7130 C   0  0  0  0  0  0  0  0  0  0  0  0
   15.0877   -6.3016   -7.8357 N   0  0  0  0  0  0  0  0  0  0  0  0
   16.5778   -6.6034   -9.5955 N   0  0  0  0  0  0  0  0  0  0  0  0
   16.9662   -7.2971  -10.7951 C   0  0  0  0  0  0  0  0  0  0  0  0
   18.0868   -6.5145  -11.4377 C   0  0  0  0  0  0  0  0  0  0  0  0
   18.4388   -7.0468  -12.8071 C   0  0  0  0  0  0  0  0  0  0  0  0
   19.5991   -6.3088  -13.3971 C   0  0  2  0  0  0  0  0  0  0  0  0
   19.9534   -6.7179  -14.7420 N   0  0  0  0  0  0  0  0  0  0  0  0
   20.7983   -6.3777  -12.4979 C   0  0  0  0  0  0  0  0  0  0  0  0
   21.4159   -7.4871  -12.4314 O   0  0  0  0  0  0  0  0  0  0  0  0
   21.2783   -5.3485  -11.7473 O   0  0  0  0  0  0  0  0  0  0  0  0
  2  1  1  1
  2  3  1  0
  4  2  1  0
  4  5  1  6
  6  4  1  0
  6  7  2  0
  8  6  1  0
  9  8  1  0
  9 10  1  6
 10 11  1  0
 11 12  2  0
 13  9  1  0
 14 13  2  0
 15 11  1  0
 17 18  2  0
 17 16  1  0
 19 17  1  0
 20 19  1  0
 21 20  1  0
 22 21  1  0
 23 22  1  1
 23 24  1  0
 24 13  1  0
 25 23  1  0
 26 25  2  0
 27 25  1  0
M  END
$$$$
