TDR.pdb
     RDKit          3D

 27 26  0  0  1  0  0  0  0  0999 V2000
   18.7969   -7.3452  -14.2929 C   0  0  0  0  0  0  0  0  0  0  0  0
   20.1421   -7.9306  -13.9700 C   0  0  1  0  0  0  0  0  0  0  0  0
   20.8756   -8.0338  -15.1447 O   0  0  0  0  0  0  0  0  0  0  0  0
   20.8875   -7.0732  -12.9388 C   0  0  2  0  0  0  0  0  0  0  0  0
   22.1812   -7.6447  -12.6671 N   0  0  0  0  0  0  0  0  0  0  0  0
   20.0101   -7.0596  -11.7361 C   0  0  0  0  0  0  0  0  0  0  0  0
   19.7869   -8.1497  -11.1590 O   0  0  0  0  0  0  0  0  0  0  0  0
   19.4206   -5.8901  -11.2155 N   0  0  0  0  0  0  0  0  0  0  0  0
   18.4677   -5.8369  -10.1312 C   0  0  1  0  0  0  0  0  0  0  0  0
   18.3636   -4.4014   -9.6843 C   0  0  0  0  0  0  0  0  0  0  0  0
   17.3653   -4.3100   -8.5945 C   0  0  0  0  0  0  0  0  0  0  0  0
   16.8775   -5.3517   -8.0937 O   0  0  0  0  0  0  0  0  0  0  0  0
   17.1860   -6.4798  -10.4566 C   0  0  0  0  0  0  0  0  0  0  0  0
   16.5777   -6.1710  -11.5157 O   0  0  0  0  0  0  0  0  0  0  0  0
   16.9179   -3.0887   -8.0735 O   0  0  0  0  0  0  0  0  0  0  0  0
   13.0987  -14.4588  -10.0254 N   0  0  0  0  0  0  0  0  0  0  0  0
   12.1638  -13.4554  -10.3485 C   0  0  0  0  0  0  0  0  0  0  0  0
   10.9426  -13.7586  -10.6561 N   0  0  0  0  0  0  0  0  0  0  0  0
   12.5291  -12.0863  -10.3485 N   0  0  0  0  0  0  0  0  0  0  0  0
   13.8460  -11.6415   -9.9752 C   0  0  0  0  0  0  0  0  0  0  0  0
   13.8925  -10.1420  -10.1494 C   0  0  0  0  0  0  0  0  0  0  0  0
   15.2281   -9.5643   -9.7433 C   0  0  0  0  0  0  0  0  0  0  0  0
   15.2760   -8.0868   -9.9750 C   0  0  2  0  0  0  0  0  0  0  0  0
   16.5417   -7.4643   -9.6396 N   0  0  0  0  0  0  0  0  0  0  0  0
   14.1493   -7.3912   -9.2693 C   0  0  0  0  0  0  0  0  0  0  0  0
   12.9652   -7.6853   -9.6275 O   0  0  0  0  0  0  0  0  0  0  0  0
   14.2922   -6.4704   -8.2770 O   0  0  0  0  0  0  0  0  0  0  0  0
  2  1  1  6
  2  3  1  0
  4  2  1  0
  4  5  1  1
  6  4  1  0
  6  7  2  0
  8  6  1  0
  9  8  1  0
  9 10  1  6
 10 11  1  0
 11 12  2  0
 13  9  1  0
 14 13  2  0
 15 11  1  0
 17 18  2  0
 17 16  1  0
 19 17  1  0
 20 19  1  0
 21 20  1  0
 22 21  1  0
 23 22  1  1
 23 24  1  0
 24 13  1  0
 25 23  1  0
 26 25  2  0
 27 25  1  0
M  END
$$$$
