TDR.pdb
     RDKit          3D

 27 26  0  0  1  0  0  0  0  0999 V2000
   19.3221  -12.2684  -18.8986 C   0  0  0  0  0  0  0  0  0  0  0  0
   19.1534  -11.4444  -17.6540 C   0  0  1  0  0  0  0  0  0  0  0  0
   17.9100  -11.7229  -17.1017 O   0  0  0  0  0  0  0  0  0  0  0  0
   20.2719  -11.7299  -16.6433 C   0  0  2  0  0  0  0  0  0  0  0  0
   20.1966  -13.0979  -16.1997 N   0  0  0  0  0  0  0  0  0  0  0  0
   20.0512  -10.7616  -15.5341 C   0  0  0  0  0  0  0  0  0  0  0  0
   19.3812  -11.1428  -14.5457 O   0  0  0  0  0  0  0  0  0  0  0  0
   20.5543   -9.4451  -15.5381 N   0  0  0  0  0  0  0  0  0  0  0  0
   20.4325   -8.4926  -14.4590 C   0  0  1  0  0  0  0  0  0  0  0  0
   21.5295   -7.4725  -14.6238 C   0  0  0  0  0  0  0  0  0  0  0  0
   21.4163   -6.4680  -13.5419 C   0  0  0  0  0  0  0  0  0  0  0  0
   21.0812   -6.8186  -12.3849 O   0  0  0  0  0  0  0  0  0  0  0  0
   19.0788   -7.9328  -14.3326 C   0  0  0  0  0  0  0  0  0  0  0  0
   18.4842   -7.4871  -15.3499 O   0  0  0  0  0  0  0  0  0  0  0  0
   21.6685   -5.1041  -13.7410 O   0  0  0  0  0  0  0  0  0  0  0  0
   12.7956   -8.5240   -8.1911 N   0  0  0  0  0  0  0  0  0  0  0  0
   14.0408   -7.8679   -8.2558 C   0  0  0  0  0  0  0  0  0  0  0  0
   14.6681   -7.5240   -7.1759 N   0  0  0  0  0  0  0  0  0  0  0  0
   14.6442   -7.5627   -9.5011 N   0  0  0  0  0  0  0  0  0  0  0  0
   13.9574   -7.7417  -10.7531 C   0  0  0  0  0  0  0  0  0  0  0  0
   14.8283   -7.1636  -11.8432 C   0  0  0  0  0  0  0  0  0  0  0  0
   16.2054   -7.7847  -11.8592 C   0  0  0  0  0  0  0  0  0  0  0  0
   17.0294   -7.2545  -12.9902 C   0  0  2  0  0  0  0  0  0  0  0  0
   18.3491   -7.8439  -13.1032 N   0  0  0  0  0  0  0  0  0  0  0  0
   17.1293   -5.7585  -12.9324 C   0  0  0  0  0  0  0  0  0  0  0  0
   18.2332   -5.2612  -12.5437 O   0  0  0  0  0  0  0  0  0  0  0  0
   16.1338   -4.8906  -13.2621 O   0  0  0  0  0  0  0  0  0  0  0  0
  2  1  1  6
  2  3  1  0
  4  2  1  0
  4  5  1  1
  6  4  1  0
  6  7  2  0
  8  6  1  0
  9  8  1  0
  9 10  1  6
 10 11  1  0
 11 12  2  0
 13  9  1  0
 14 13  2  0
 15 11  1  0
 17 18  2  0
 17 16  1  0
 19 17  1  0
 20 19  1  0
 21 20  1  0
 22 21  1  0
 23 22  1  1
 23 24  1  0
 24 13  1  0
 25 23  1  0
 26 25  2  0
 27 25  1  0
M  END
$$$$
