TDR.pdb
     RDKit          3D

 27 26  0  0  1  0  0  0  0  0999 V2000
   27.9740  -23.0699  -16.3655 C   0  0  0  0  0  0  0  0  0  0  0  0
   26.7902  -22.2508  -15.9364 C   0  0  1  0  0  0  0  0  0  0  0  0
   26.8138  -22.1261  -14.5535 O   0  0  0  0  0  0  0  0  0  0  0  0
   26.7987  -20.8700  -16.6054 C   0  0  2  0  0  0  0  0  0  0  0  0
   28.0343  -20.1899  -16.3141 N   0  0  0  0  0  0  0  0  0  0  0  0
   25.6155  -20.1594  -16.0472 C   0  0  0  0  0  0  0  0  0  0  0  0
   25.8180  -19.2467  -15.2122 O   0  0  0  0  0  0  0  0  0  0  0  0
   24.2862  -20.4583  -16.4075 N   0  0  0  0  0  0  0  0  0  0  0  0
   23.1108  -19.7496  -15.9573 C   0  0  1  0  0  0  0  0  0  0  0  0
   22.5593  -18.9857  -17.1335 C   0  0  0  0  0  0  0  0  0  0  0  0
   21.3591  -18.2359  -16.6977 C   0  0  0  0  0  0  0  0  0  0  0  0
   21.4487  -17.3632  -15.8009 O   0  0  0  0  0  0  0  0  0  0  0  0
   22.1414  -20.6162  -15.2707 C   0  0  0  0  0  0  0  0  0  0  0  0
   22.0014  -21.8147  -15.6328 O   0  0  0  0  0  0  0  0  0  0  0  0
   20.0874  -18.4516  -17.2450 O   0  0  0  0  0  0  0  0  0  0  0  0
   17.2010  -24.0124  -10.1210 N   0  0  0  0  0  0  0  0  0  0  0  0
   18.4817  -24.5476   -9.8790 C   0  0  0  0  0  0  0  0  0  0  0  0
   18.6548  -25.8245   -9.7475 N   0  0  0  0  0  0  0  0  0  0  0  0
   19.6181  -23.7079   -9.7705 N   0  0  0  0  0  0  0  0  0  0  0  0
   19.5539  -22.2912  -10.0154 C   0  0  0  0  0  0  0  0  0  0  0  0
   19.3864  -22.0878  -11.5025 C   0  0  0  0  0  0  0  0  0  0  0  0
   20.4537  -21.1853  -12.0761 C   0  0  0  0  0  0  0  0  0  0  0  0
   20.3119  -21.0478  -13.5593 C   0  0  2  0  0  0  0  0  0  0  0  0
   21.3068  -20.1983  -14.1842 N   0  0  0  0  0  0  0  0  0  0  0  0
   18.9309  -20.5946  -13.9315 C   0  0  0  0  0  0  0  0  0  0  0  0
   18.8195  -19.4572  -14.4891 O   0  0  0  0  0  0  0  0  0  0  0  0
   17.7874  -21.3024  -13.7202 O   0  0  0  0  0  0  0  0  0  0  0  0
  2  1  1  6
  2  3  1  0
  4  2  1  0
  4  5  1  1
  6  4  1  0
  6  7  2  0
  8  6  1  0
  9  8  1  0
  9 10  1  6
 10 11  1  0
 11 12  2  0
 13  9  1  0
 14 13  2  0
 15 11  1  0
 17 18  2  0
 17 16  1  0
 19 17  1  0
 20 19  1  0
 21 20  1  0
 22 21  1  0
 23 22  1  1
 23 24  1  0
 24 13  1  0
 25 23  1  0
 26 25  2  0
 27 25  1  0
M  END
$$$$
