TDR.pdb
     RDKit          3D

 27 26  0  0  1  0  0  0  0  0999 V2000
   25.4100  -22.9173  -13.9662 C   0  0  0  0  0  0  0  0  0  0  0  0
   25.3623  -22.2570  -12.6178 C   0  0  1  0  0  0  0  0  0  0  0  0
   25.3647  -23.2429  -11.6398 O   0  0  0  0  0  0  0  0  0  0  0  0
   26.5463  -21.3002  -12.4261 C   0  0  2  0  0  0  0  0  0  0  0  0
   26.5344  -20.7647  -11.0892 N   0  0  0  0  0  0  0  0  0  0  0  0
   26.3659  -20.2450  -13.4608 C   0  0  0  0  0  0  0  0  0  0  0  0
   25.5264  -19.3412  -13.2385 O   0  0  0  0  0  0  0  0  0  0  0  0
   27.0871  -20.2100  -14.6712 N   0  0  0  0  0  0  0  0  0  0  0  0
   26.8443  -19.3062  -15.7715 C   0  0  1  0  0  0  0  0  0  0  0  0
   27.9892  -19.4488  -16.7411 C   0  0  0  0  0  0  0  0  0  0  0  0
   27.8007  -18.4860  -17.8502 C   0  0  0  0  0  0  0  0  0  0  0  0
   27.6378  -18.8968  -19.0244 O   0  0  0  0  0  0  0  0  0  0  0  0
   25.5074  -19.4623  -16.3631 C   0  0  0  0  0  0  0  0  0  0  0  0
   25.1216  -20.5949  -16.7574 O   0  0  0  0  0  0  0  0  0  0  0  0
   27.7946  -17.0979  -17.6595 O   0  0  0  0  0  0  0  0  0  0  0  0
   17.2734  -19.1175  -14.0752 N   0  0  0  0  0  0  0  0  0  0  0  0
   17.2882  -18.5650  -15.3713 C   0  0  0  0  0  0  0  0  0  0  0  0
   16.1909  -18.1823  -15.9434 N   0  0  0  0  0  0  0  0  0  0  0  0
   18.5005  -18.4122  -16.0888 N   0  0  0  0  0  0  0  0  0  0  0  0
   19.7677  -18.8409  -15.5581 C   0  0  0  0  0  0  0  0  0  0  0  0
   20.8319  -18.4996  -16.5739 C   0  0  0  0  0  0  0  0  0  0  0  0
   22.1952  -19.0012  -16.1587 C   0  0  0  0  0  0  0  0  0  0  0  0
   23.2530  -18.5672  -17.1239 C   0  0  2  0  0  0  0  0  0  0  0  0
   24.5687  -18.3949  -16.5398 N   0  0  0  0  0  0  0  0  0  0  0  0
   22.8406  -17.3243  -17.8564 C   0  0  0  0  0  0  0  0  0  0  0  0
   21.7632  -17.3733  -18.5299 O   0  0  0  0  0  0  0  0  0  0  0  0
   23.5268  -16.1486  -17.8584 O   0  0  0  0  0  0  0  0  0  0  0  0
  2  1  1  6
  2  3  1  0
  4  2  1  0
  4  5  1  1
  6  4  1  0
  6  7  2  0
  8  6  1  0
  9  8  1  0
  9 10  1  6
 10 11  1  0
 11 12  2  0
 13  9  1  0
 14 13  2  0
 15 11  1  0
 17 18  2  0
 17 16  1  0
 19 17  1  0
 20 19  1  0
 21 20  1  0
 22 21  1  0
 23 22  1  1
 23 24  1  0
 24 13  1  0
 25 23  1  0
 26 25  2  0
 27 25  1  0
M  END
$$$$
