TDR.pdb
     RDKit          3D

 27 26  0  0  1  0  0  0  0  0999 V2000
   17.1938   -9.6573  -15.4675 C   0  0  0  0  0  0  0  0  0  0  0  0
   18.2235  -10.7504  -15.4977 C   0  0  1  0  0  0  0  0  0  0  0  0
   17.9161  -11.6222  -16.5342 O   0  0  0  0  0  0  0  0  0  0  0  0
   19.6362  -10.1776  -15.6721 C   0  0  2  0  0  0  0  0  0  0  0  0
   20.5952  -11.2492  -15.7507 N   0  0  0  0  0  0  0  0  0  0  0  0
   19.8537   -9.3086  -14.4829 C   0  0  0  0  0  0  0  0  0  0  0  0
   19.9121   -9.8567  -13.3572 O   0  0  0  0  0  0  0  0  0  0  0  0
   19.9968   -7.9085  -14.5574 N   0  0  0  0  0  0  0  0  0  0  0  0
   20.1563   -7.0162  -13.4328 C   0  0  1  0  0  0  0  0  0  0  0  0
   20.9130   -5.8050  -13.9141 C   0  0  0  0  0  0  0  0  0  0  0  0
   21.2582   -4.9608  -12.7477 C   0  0  0  0  0  0  0  0  0  0  0  0
   20.9573   -5.3307  -11.5872 O   0  0  0  0  0  0  0  0  0  0  0  0
   18.8910   -6.7236  -12.7435 C   0  0  0  0  0  0  0  0  0  0  0  0
   17.9174   -6.2509  -13.3883 O   0  0  0  0  0  0  0  0  0  0  0  0
   21.9217   -3.7325  -12.8675 O   0  0  0  0  0  0  0  0  0  0  0  0
   12.4718   -9.4472   -9.0291 N   0  0  0  0  0  0  0  0  0  0  0  0
   12.4861   -8.1773   -8.4191 C   0  0  0  0  0  0  0  0  0  0  0  0
   11.4057   -7.6682   -7.9177 N   0  0  0  0  0  0  0  0  0  0  0  0
   13.6795   -7.4178   -8.3362 N   0  0  0  0  0  0  0  0  0  0  0  0
   14.9373   -7.9040   -8.8393 C   0  0  0  0  0  0  0  0  0  0  0  0
   15.9554   -6.8001   -8.6791 C   0  0  0  0  0  0  0  0  0  0  0  0
   17.2870   -7.1619   -9.2944 C   0  0  0  0  0  0  0  0  0  0  0  0
   17.4231   -6.5939  -10.6720 C   0  0  2  0  0  0  0  0  0  0  0  0
   18.6607   -6.9352  -11.3456 N   0  0  0  0  0  0  0  0  0  0  0  0
   17.2251   -5.1067  -10.6665 C   0  0  0  0  0  0  0  0  0  0  0  0
   18.2624   -4.3794  -10.5570 O   0  0  0  0  0  0  0  0  0  0  0  0
   16.0247   -4.4729  -10.7689 O   0  0  0  0  0  0  0  0  0  0  0  0
  2  1  1  6
  2  3  1  0
  4  2  1  0
  4  5  1  1
  6  4  1  0
  6  7  2  0
  8  6  1  0
  9  8  1  0
  9 10  1  6
 10 11  1  0
 11 12  2  0
 13  9  1  0
 14 13  2  0
 15 11  1  0
 17 18  2  0
 17 16  1  0
 19 17  1  0
 20 19  1  0
 21 20  1  0
 22 21  1  0
 23 22  1  1
 23 24  1  0
 24 13  1  0
 25 23  1  0
 26 25  2  0
 27 25  1  0
M  END
$$$$
