NPF.pdb
     RDKit          3D

 27 28  0  0  1  0  0  0  0  0999 V2000
   12.7374  -12.2396  -15.7047 N   0  0  0  0  0  0  0  0  0  0  0  0
   12.4670  -10.9744  -15.1156 C   0  0  0  0  0  0  0  0  0  0  0  0
   11.7385  -10.1536  -15.7521 O   0  0  0  0  0  0  0  0  0  0  0  0
   12.9812  -10.5400  -13.8002 C   0  0  0  0  0  0  0  0  0  0  0  0
   13.7497  -11.6321  -13.0853 C   0  0  2  0  0  0  0  0  0  0  0  0
   12.9185  -12.7518  -12.7461 N   0  0  0  0  0  0  0  0  0  0  0  0
   14.4593  -11.0916  -11.8963 C   0  0  0  0  0  0  0  0  0  0  0  0
   13.9160  -11.2221  -10.7375 O   0  0  0  0  0  0  0  0  0  0  0  0
   15.7119  -10.4287  -11.9241 N   0  0  0  0  0  0  0  0  0  0  0  0
   16.6164  -10.1493  -13.0184 C   0  0  0  0  0  0  0  0  0  0  0  0
   18.0154  -10.2834  -12.3878 C   0  0  0  0  0  0  0  0  0  0  0  0
   17.7935  -10.1730  -10.9282 C   0  0  0  0  0  0  0  0  0  0  0  0
   16.3475   -9.8386  -10.7621 C   0  0  1  0  0  0  0  0  0  0  0  0
   16.0515   -8.3840  -10.7361 C   0  0  0  0  0  0  0  0  0  0  0  0
   16.1208   -7.7348  -11.8359 O   0  0  0  0  0  0  0  0  0  0  0  0
   15.6985   -7.6494   -9.6012 N   0  0  0  0  0  0  0  0  0  0  0  0
   15.4229   -6.2022   -9.6020 C   0  0  1  0  0  0  0  0  0  0  0  0
   13.9303   -5.9916   -9.5611 C   0  0  0  0  0  0  0  0  0  0  0  0
   13.3959   -6.4642   -8.2672 C   0  0  0  0  0  0  0  0  0  0  0  0
   13.0602   -7.8175   -8.1398 C   0  0  0  0  0  0  0  0  0  0  0  0
   12.5762   -8.3653   -6.9747 C   0  0  0  0  0  0  0  0  0  0  0  0
   12.4299   -7.5132   -5.9102 C   0  0  0  0  0  0  0  0  0  0  0  0
   12.7535   -6.1615   -5.9999 C   0  0  0  0  0  0  0  0  0  0  0  0
   13.2345   -5.6215   -7.1619 C   0  0  0  0  0  0  0  0  0  0  0  0
   16.1430   -5.5252   -8.5318 C   0  0  0  0  0  0  0  0  0  0  0  0
   16.7343   -6.1627   -7.6376 O   0  0  0  0  0  0  0  0  0  0  0  0
   16.1818   -4.1421   -8.4918 O   0  0  0  0  0  0  0  0  0  0  0  0
  2  1  1  0
  3  2  2  0
  4  2  1  0
  5  4  1  0
  5  6  1  1
  7  5  1  0
  7  8  2  0
  9  7  1  0
 10  9  1  0
 11 10  1  0
 12 11  1  0
 12 13  1  0
 13  9  1  0
 13 14  1  6
 15 14  2  0
 16 14  1  0
 17 16  1  0
 17 25  1  0
 17 18  1  1
 19 18  1  0
 20 19  2  0
 21 20  1  0
 22 21  2  0
 22 23  1  0
 23 24  2  0
 24 19  1  0
 25 27  1  0
 26 25  2  0
M  END
$$$$
