NPF.pdb
     RDKit          3D

 27 28  0  0  1  0  0  0  0  0999 V2000
   28.9896  -23.2842  -18.1149 N   0  0  0  0  0  0  0  0  0  0  0  0
   28.7050  -23.7231  -16.7931 C   0  0  0  0  0  0  0  0  0  0  0  0
   28.9579  -24.9283  -16.4877 O   0  0  0  0  0  0  0  0  0  0  0  0
   28.1267  -22.8671  -15.7366 C   0  0  0  0  0  0  0  0  0  0  0  0
   27.9710  -21.4255  -16.1747 C   0  0  2  0  0  0  0  0  0  0  0  0
   29.2313  -20.8058  -16.4696 N   0  0  0  0  0  0  0  0  0  0  0  0
   27.1940  -20.6472  -15.1748 C   0  0  0  0  0  0  0  0  0  0  0  0
   27.8307  -19.9481  -14.3024 O   0  0  0  0  0  0  0  0  0  0  0  0
   25.7795  -20.6040  -15.0933 N   0  0  0  0  0  0  0  0  0  0  0  0
   24.7624  -21.3467  -15.8056 C   0  0  0  0  0  0  0  0  0  0  0  0
   23.6192  -20.3304  -15.9879 C   0  0  0  0  0  0  0  0  0  0  0  0
   23.8826  -19.2694  -14.9896 C   0  0  0  0  0  0  0  0  0  0  0  0
   25.0416  -19.7523  -14.1809 C   0  0  1  0  0  0  0  0  0  0  0  0
   24.6676  -20.5407  -12.9797 C   0  0  0  0  0  0  0  0  0  0  0  0
   24.3416  -21.7669  -13.1408 O   0  0  0  0  0  0  0  0  0  0  0  0
   24.6397  -20.0564  -11.6695 N   0  0  0  0  0  0  0  0  0  0  0  0
   24.1645  -20.8296  -10.5090 C   0  0  1  0  0  0  0  0  0  0  0  0
   24.6548  -20.1642   -9.2477 C   0  0  0  0  0  0  0  0  0  0  0  0
   26.1281  -20.2526   -9.1784 C   0  0  0  0  0  0  0  0  0  0  0  0
   26.7748  -21.2187   -9.9585 C   0  0  0  0  0  0  0  0  0  0  0  0
   28.1414  -21.3715   -9.9854 C   0  0  0  0  0  0  0  0  0  0  0  0
   28.8700  -20.5179   -9.1973 C   0  0  0  0  0  0  0  0  0  0  0  0
   28.2615  -19.5449   -8.4083 C   0  0  0  0  0  0  0  0  0  0  0  0
   26.9010  -19.3973   -8.3851 C   0  0  0  0  0  0  0  0  0  0  0  0
   22.7205  -21.0174  -10.5529 C   0  0  0  0  0  0  0  0  0  0  0  0
   22.0017  -20.3711  -11.3411 O   0  0  0  0  0  0  0  0  0  0  0  0
   22.1161  -21.9309   -9.7065 O   0  0  0  0  0  0  0  0  0  0  0  0
  2  1  1  0
  3  2  2  0
  4  2  1  0
  5  4  1  0
  5  6  1  1
  7  5  1  0
  7  8  2  0
  9  7  1  0
 10  9  1  0
 11 10  1  0
 12 11  1  0
 12 13  1  0
 13  9  1  0
 13 14  1  1
 15 14  2  0
 16 14  1  0
 17 16  1  0
 17 25  1  0
 17 18  1  1
 19 18  1  0
 20 19  2  0
 21 20  1  0
 22 21  2  0
 22 23  1  0
 23 24  2  0
 24 19  1  0
 25 27  1  0
 26 25  2  0
M  END
$$$$
