NPF.pdb
     RDKit          3D

 27 28  0  0  1  0  0  0  0  0999 V2000
   20.8846  -18.4876  -14.5670 N   0  0  0  0  0  0  0  0  0  0  0  0
   22.2788  -18.5277  -14.2923 C   0  0  0  0  0  0  0  0  0  0  0  0
   23.0734  -17.9729  -15.1111 O   0  0  0  0  0  0  0  0  0  0  0  0
   22.8770  -19.1788  -13.1084 C   0  0  0  0  0  0  0  0  0  0  0  0
   23.4406  -20.5499  -13.4198 C   0  0  2  0  0  0  0  0  0  0  0  0
   22.4248  -21.4773  -13.8290 N   0  0  0  0  0  0  0  0  0  0  0  0
   24.2345  -21.0704  -12.2761 C   0  0  0  0  0  0  0  0  0  0  0  0
   23.6496  -21.8098  -11.4006 O   0  0  0  0  0  0  0  0  0  0  0  0
   25.6124  -20.8200  -12.0570 N   0  0  0  0  0  0  0  0  0  0  0  0
   26.5436  -19.9544  -12.7477 C   0  0  0  0  0  0  0  0  0  0  0  0
   27.8731  -20.7315  -12.7077 C   0  0  0  0  0  0  0  0  0  0  0  0
   27.7047  -21.7299  -11.6277 C   0  0  0  0  0  0  0  0  0  0  0  0
   26.3901  -21.4201  -10.9905 C   0  0  1  0  0  0  0  0  0  0  0  0
   26.4665  -20.4680   -9.8538 C   0  0  0  0  0  0  0  0  0  0  0  0
   26.5350  -19.2184  -10.1176 O   0  0  0  0  0  0  0  0  0  0  0  0
   26.4702  -20.8196   -8.5016 N   0  0  0  0  0  0  0  0  0  0  0  0
   27.0994  -20.0182   -7.4375 C   0  0  1  0  0  0  0  0  0  0  0  0
   26.8754  -20.7057   -6.1142 C   0  0  0  0  0  0  0  0  0  0  0  0
   27.6764  -20.0409   -5.0657 C   0  0  0  0  0  0  0  0  0  0  0  0
   27.2487  -18.7954   -4.5901 C   0  0  0  0  0  0  0  0  0  0  0  0
   27.9072  -18.1018   -3.6018 C   0  0  0  0  0  0  0  0  0  0  0  0
   29.0314  -18.6913   -3.0828 C   0  0  0  0  0  0  0  0  0  0  0  0
   29.4866  -19.9289   -3.5309 C   0  0  0  0  0  0  0  0  0  0  0  0
   28.8277  -20.6149   -4.5150 C   0  0  0  0  0  0  0  0  0  0  0  0
   28.5008  -19.7519   -7.7333 C   0  0  0  0  0  0  0  0  0  0  0  0
   29.0088  -18.6306   -7.5328 O   0  0  0  0  0  0  0  0  0  0  0  0
   29.3014  -20.7563   -8.2496 O   0  0  0  0  0  0  0  0  0  0  0  0
  2  1  1  0
  3  2  2  0
  4  2  1  0
  5  4  1  0
  5  6  1  1
  7  5  1  0
  7  8  2  0
  9  7  1  0
 10  9  1  0
 11 10  1  0
 12 11  1  0
 12 13  1  0
 13  9  1  0
 13 14  1  1
 15 14  2  0
 16 14  1  0
 17 16  1  0
 17 25  1  0
 17 18  1  1
 19 18  1  0
 20 19  2  0
 21 20  1  0
 22 21  2  0
 22 23  1  0
 23 24  2  0
 24 19  1  0
 25 27  1  0
 26 25  2  0
M  END
$$$$
