NPF.pdb
     RDKit          3D

 27 28  0  0  1  0  0  0  0  0999 V2000
   13.4110  -22.4755    6.6053 N   0  0  0  0  0  0  0  0  0  0  0  0
   14.0672  -21.7506    7.6372 C   0  0  0  0  0  0  0  0  0  0  0  0
   13.4464  -20.7947    8.1945 O   0  0  0  0  0  0  0  0  0  0  0  0
   15.4377  -22.0322    8.1123 C   0  0  0  0  0  0  0  0  0  0  0  0
   16.0965  -23.1652    7.3529 C   0  0  2  0  0  0  0  0  0  0  0  0
   15.4738  -24.4316    7.6139 N   0  0  0  0  0  0  0  0  0  0  0  0
   17.5584  -23.2040    7.6189 C   0  0  0  0  0  0  0  0  0  0  0  0
   18.0362  -24.1731    8.3172 O   0  0  0  0  0  0  0  0  0  0  0  0
   18.4976  -22.2460    7.1613 N   0  0  0  0  0  0  0  0  0  0  0  0
   18.3132  -20.9839    6.4781 C   0  0  0  0  0  0  0  0  0  0  0  0
   19.5147  -20.9024    5.5175 C   0  0  0  0  0  0  0  0  0  0  0  0
   20.5002  -21.8712    6.0482 C   0  0  0  0  0  0  0  0  0  0  0  0
   19.9319  -22.3615    7.3393 C   0  0  1  0  0  0  0  0  0  0  0  0
   20.3363  -21.5709    8.5292 C   0  0  0  0  0  0  0  0  0  0  0  0
   19.6754  -20.5104    8.8015 O   0  0  0  0  0  0  0  0  0  0  0  0
   21.3897  -21.8862    9.3913 N   0  0  0  0  0  0  0  0  0  0  0  0
   21.7893  -21.0657   10.5478 C   0  0  1  0  0  0  0  0  0  0  0  0
   22.6500  -21.9008   11.4620 C   0  0  0  0  0  0  0  0  0  0  0  0
   23.0133  -21.1150   12.6594 C   0  0  0  0  0  0  0  0  0  0  0  0
   22.1293  -21.1084   13.7451 C   0  0  0  0  0  0  0  0  0  0  0  0
   22.3801  -20.4290   14.9143 C   0  0  0  0  0  0  0  0  0  0  0  0
   23.5626  -19.7377   14.9811 C   0  0  0  0  0  0  0  0  0  0  0  0
   24.4661  -19.7214   13.9212 C   0  0  0  0  0  0  0  0  0  0  0  0
   24.2114  -20.3991   12.7597 C   0  0  0  0  0  0  0  0  0  0  0  0
   22.4159  -19.8211   10.1231 C   0  0  0  0  0  0  0  0  0  0  0  0
   22.4502  -18.8204   10.8668 O   0  0  0  0  0  0  0  0  0  0  0  0
   22.9916  -19.7301    8.8675 O   0  0  0  0  0  0  0  0  0  0  0  0
  2  1  1  0
  3  2  2  0
  4  2  1  0
  5  4  1  0
  5  6  1  1
  7  5  1  0
  7  8  2  0
  9  7  1  0
 10  9  1  0
 11 10  1  0
 12 11  1  0
 12 13  1  0
 13  9  1  0
 13 14  1  1
 15 14  2  0
 16 14  1  0
 17 16  1  0
 17 25  1  0
 17 18  1  1
 19 18  1  0
 20 19  2  0
 21 20  1  0
 22 21  2  0
 22 23  1  0
 23 24  2  0
 24 19  1  0
 25 27  1  0
 26 25  2  0
M  END
$$$$
