NPF.pdb
     RDKit          3D

 27 28  0  0  1  0  0  0  0  0999 V2000
   27.3429  -15.7117  -16.5201 N   0  0  0  0  0  0  0  0  0  0  0  0
   25.9396  -15.6660  -16.2972 C   0  0  0  0  0  0  0  0  0  0  0  0
   25.2846  -14.6837  -16.7618 O   0  0  0  0  0  0  0  0  0  0  0  0
   25.1797  -16.6913  -15.5525 C   0  0  0  0  0  0  0  0  0  0  0  0
   25.2391  -18.0538  -16.2115 C   0  0  2  0  0  0  0  0  0  0  0  0
   24.2104  -18.2288  -17.1967 N   0  0  0  0  0  0  0  0  0  0  0  0
   25.2189  -19.1375  -15.1943 C   0  0  0  0  0  0  0  0  0  0  0  0
   24.0851  -19.6215  -14.8263 O   0  0  0  0  0  0  0  0  0  0  0  0
   26.3643  -19.7003  -14.5775 N   0  0  0  0  0  0  0  0  0  0  0  0
   27.7720  -19.4071  -14.7379 C   0  0  0  0  0  0  0  0  0  0  0  0
   28.4565  -20.7794  -14.5925 C   0  0  0  0  0  0  0  0  0  0  0  0
   27.4572  -21.6403  -13.9202 C   0  0  0  0  0  0  0  0  0  0  0  0
   26.3181  -20.7407  -13.5687 C   0  0  1  0  0  0  0  0  0  0  0  0
   26.4194  -20.1160  -12.2256 C   0  0  0  0  0  0  0  0  0  0  0  0
   26.7026  -18.8706  -12.1596 O   0  0  0  0  0  0  0  0  0  0  0  0
   26.2300  -20.7764  -11.0089 N   0  0  0  0  0  0  0  0  0  0  0  0
   26.2473  -20.1133   -9.6934 C   0  0  1  0  0  0  0  0  0  0  0  0
   25.2216  -19.0079   -9.6928 C   0  0  0  0  0  0  0  0  0  0  0  0
   23.8650  -19.5871   -9.7781 C   0  0  0  0  0  0  0  0  0  0  0  0
   23.2432  -19.6449  -11.0312 C   0  0  0  0  0  0  0  0  0  0  0  0
   21.9926  -20.1833  -11.2256 C   0  0  0  0  0  0  0  0  0  0  0  0
   21.3574  -20.6767  -10.1149 C   0  0  0  0  0  0  0  0  0  0  0  0
   21.9447  -20.6364   -8.8527 C   0  0  0  0  0  0  0  0  0  0  0  0
   23.1894  -20.0992   -8.6648 C   0  0  0  0  0  0  0  0  0  0  0  0
   26.0772  -21.0755   -8.6129 C   0  0  0  0  0  0  0  0  0  0  0  0
   25.7901  -22.2679   -8.8396 O   0  0  0  0  0  0  0  0  0  0  0  0
   26.2344  -20.6732   -7.2977 O   0  0  0  0  0  0  0  0  0  0  0  0
  2  1  1  0
  3  2  2  0
  4  2  1  0
  5  4  1  0
  5  6  1  6
  7  5  1  0
  7  8  2  0
  9  7  1  0
 10  9  1  0
 11 10  1  0
 12 11  1  0
 12 13  1  0
 13  9  1  0
 13 14  1  1
 15 14  2  0
 16 14  1  0
 17 16  1  0
 17 25  1  0
 17 18  1  6
 19 18  1  0
 20 19  2  0
 21 20  1  0
 22 21  2  0
 22 23  1  0
 23 24  2  0
 24 19  1  0
 25 27  1  0
 26 25  2  0
M  END
$$$$
