NPF.pdb
     RDKit          3D

 27 28  0  0  1  0  0  0  0  0999 V2000
   28.3813  -22.5674  -17.4007 N   0  0  0  0  0  0  0  0  0  0  0  0
   29.0003  -22.4514  -16.1262 C   0  0  0  0  0  0  0  0  0  0  0  0
   30.1121  -23.0330  -15.9380 O   0  0  0  0  0  0  0  0  0  0  0  0
   28.4344  -21.6949  -14.9901 C   0  0  0  0  0  0  0  0  0  0  0  0
   27.1846  -20.9263  -15.3664 C   0  0  2  0  0  0  0  0  0  0  0  0
   27.4519  -19.8776  -16.3088 N   0  0  0  0  0  0  0  0  0  0  0  0
   26.4898  -20.4160  -14.1556 C   0  0  0  0  0  0  0  0  0  0  0  0
   26.7247  -19.2123  -13.7668 O   0  0  0  0  0  0  0  0  0  0  0  0
   25.5684  -21.1537  -13.3706 N   0  0  0  0  0  0  0  0  0  0  0  0
   25.1417  -22.5339  -13.4507 C   0  0  0  0  0  0  0  0  0  0  0  0
   23.6535  -22.4864  -13.0557 C   0  0  0  0  0  0  0  0  0  0  0  0
   23.4807  -21.1933  -12.3559 C   0  0  0  0  0  0  0  0  0  0  0  0
   24.8510  -20.6126  -12.2327 C   0  0  1  0  0  0  0  0  0  0  0  0
   25.5679  -20.9864  -10.9874 C   0  0  0  0  0  0  0  0  0  0  0  0
   25.9638  -22.1957  -10.8594 O   0  0  0  0  0  0  0  0  0  0  0  0
   25.8534  -20.1227   -9.9269 N   0  0  0  0  0  0  0  0  0  0  0  0
   26.5494  -20.5259   -8.6927 C   0  0  1  0  0  0  0  0  0  0  0  0
   27.6484  -19.5334   -8.4079 C   0  0  0  0  0  0  0  0  0  0  0  0
   28.2275  -19.8003   -7.0750 C   0  0  0  0  0  0  0  0  0  0  0  0
   27.7630  -19.0536   -5.9855 C   0  0  0  0  0  0  0  0  0  0  0  0
   28.2178  -19.2364   -4.7005 C   0  0  0  0  0  0  0  0  0  0  0  0
   29.1709  -20.2056   -4.5187 C   0  0  0  0  0  0  0  0  0  0  0  0
   29.6565  -20.9678   -5.5784 C   0  0  0  0  0  0  0  0  0  0  0  0
   29.2006  -20.7815   -6.8554 C   0  0  0  0  0  0  0  0  0  0  0  0
   25.6137  -20.7013   -7.5900 C   0  0  0  0  0  0  0  0  0  0  0  0
   24.5367  -20.0742   -7.5415 O   0  0  0  0  0  0  0  0  0  0  0  0
   25.9117  -21.5811   -6.5636 O   0  0  0  0  0  0  0  0  0  0  0  0
  2  1  1  0
  3  2  2  0
  4  2  1  0
  5  4  1  0
  5  6  1  6
  7  5  1  0
  7  8  2  0
  9  7  1  0
 10  9  1  0
 11 10  1  0
 12 11  1  0
 12 13  1  0
 13  9  1  0
 13 14  1  1
 15 14  2  0
 16 14  1  0
 17 16  1  0
 17 25  1  0
 17 18  1  1
 19 18  1  0
 20 19  2  0
 21 20  1  0
 22 21  2  0
 22 23  1  0
 23 24  2  0
 24 19  1  0
 25 27  1  0
 26 25  2  0
M  END
$$$$
