NPF.pdb
     RDKit          3D

 27 28  0  0  1  0  0  0  0  0999 V2000
   22.3716  -19.5343  -16.6079 N   0  0  0  0  0  0  0  0  0  0  0  0
   22.1542  -19.8575  -15.2407 C   0  0  0  0  0  0  0  0  0  0  0  0
   20.9644  -19.8573  -14.8004 O   0  0  0  0  0  0  0  0  0  0  0  0
   23.2274  -20.1957  -14.2830 C   0  0  0  0  0  0  0  0  0  0  0  0
   24.3302  -21.0223  -14.9114 C   0  0  2  0  0  0  0  0  0  0  0  0
   23.8259  -22.1910  -15.5742 N   0  0  0  0  0  0  0  0  0  0  0  0
   25.3750  -21.3631  -13.9107 C   0  0  0  0  0  0  0  0  0  0  0  0
   25.4539  -22.5745  -13.4846 O   0  0  0  0  0  0  0  0  0  0  0  0
   26.3161  -20.4517  -13.3696 N   0  0  0  0  0  0  0  0  0  0  0  0
   26.5498  -19.0505  -13.6441 C   0  0  0  0  0  0  0  0  0  0  0  0
   28.0774  -18.8967  -13.5179 C   0  0  0  0  0  0  0  0  0  0  0  0
   28.5228  -20.0816  -12.7503 C   0  0  0  0  0  0  0  0  0  0  0  0
   27.2746  -20.7884  -12.3350 C   0  0  1  0  0  0  0  0  0  0  0  0
   26.7349  -20.3619  -11.0192 C   0  0  0  0  0  0  0  0  0  0  0  0
   25.8835  -19.4078  -10.9973 O   0  0  0  0  0  0  0  0  0  0  0  0
   27.0786  -20.9176   -9.7842 N   0  0  0  0  0  0  0  0  0  0  0  0
   26.1361  -21.1052   -8.6676 C   0  0  1  0  0  0  0  0  0  0  0  0
   26.8352  -21.8559   -7.5622 C   0  0  0  0  0  0  0  0  0  0  0  0
   27.6037  -20.9102   -6.7266 C   0  0  0  0  0  0  0  0  0  0  0  0
   28.9603  -20.7177   -7.0143 C   0  0  0  0  0  0  0  0  0  0  0  0
   29.7608  -19.8457   -6.3141 C   0  0  0  0  0  0  0  0  0  0  0  0
   29.1649  -19.1503   -5.2933 C   0  0  0  0  0  0  0  0  0  0  0  0
   27.8184  -19.3157   -4.9783 C   0  0  0  0  0  0  0  0  0  0  0  0
   27.0263  -20.1851   -5.6783 C   0  0  0  0  0  0  0  0  0  0  0  0
   25.5573  -19.8372   -8.2441 C   0  0  0  0  0  0  0  0  0  0  0  0
   26.1676  -18.7594   -8.3911 O   0  0  0  0  0  0  0  0  0  0  0  0
   24.3011  -19.8103   -7.6632 O   0  0  0  0  0  0  0  0  0  0  0  0
  2  1  1  0
  3  2  2  0
  4  2  1  0
  5  4  1  0
  5  6  1  1
  7  5  1  0
  7  8  2  0
  9  7  1  0
 10  9  1  0
 11 10  1  0
 12 11  1  0
 12 13  1  0
 13  9  1  0
 13 14  1  1
 15 14  2  0
 16 14  1  0
 17 16  1  0
 17 25  1  0
 17 18  1  1
 19 18  1  0
 20 19  2  0
 21 20  1  0
 22 21  2  0
 22 23  1  0
 23 24  2  0
 24 19  1  0
 25 27  1  0
 26 25  2  0
M  END
$$$$
