NPF.pdb
     RDKit          3D

 27 28  0  0  1  0  0  0  0  0999 V2000
   27.8018  -22.3120  -16.4171 N   0  0  0  0  0  0  0  0  0  0  0  0
   28.7213  -21.8715  -15.4265 C   0  0  0  0  0  0  0  0  0  0  0  0
   29.8539  -22.4389  -15.3567 O   0  0  0  0  0  0  0  0  0  0  0  0
   28.4491  -20.7885  -14.4588 C   0  0  0  0  0  0  0  0  0  0  0  0
   27.0902  -20.1516  -14.6639 C   0  0  2  0  0  0  0  0  0  0  0  0
   27.1399  -19.0399  -15.5701 N   0  0  0  0  0  0  0  0  0  0  0  0
   26.4776  -19.7758  -13.3628 C   0  0  0  0  0  0  0  0  0  0  0  0
   26.7367  -18.6172  -12.8669 O   0  0  0  0  0  0  0  0  0  0  0  0
   25.6118  -20.5987  -12.5996 N   0  0  0  0  0  0  0  0  0  0  0  0
   25.2210  -21.9817  -12.7673 C   0  0  0  0  0  0  0  0  0  0  0  0
   23.7504  -22.0104  -12.3097 C   0  0  0  0  0  0  0  0  0  0  0  0
   23.5714  -20.7795  -11.5069 C   0  0  0  0  0  0  0  0  0  0  0  0
   24.9290  -20.1671  -11.3956 C   0  0  1  0  0  0  0  0  0  0  0  0
   25.7088  -20.6107  -10.2126 C   0  0  0  0  0  0  0  0  0  0  0  0
   26.1792  -21.7999  -10.2118 O   0  0  0  0  0  0  0  0  0  0  0  0
   25.9791  -19.8339   -9.0831 N   0  0  0  0  0  0  0  0  0  0  0  0
   26.8011  -20.2817   -7.9454 C   0  0  1  0  0  0  0  0  0  0  0  0
   27.6819  -19.1405   -7.5031 C   0  0  0  0  0  0  0  0  0  0  0  0
   28.4028  -19.5169   -6.2695 C   0  0  0  0  0  0  0  0  0  0  0  0
   28.0102  -18.9263   -5.0623 C   0  0  0  0  0  0  0  0  0  0  0  0
   28.5985  -19.2219   -3.8547 C   0  0  0  0  0  0  0  0  0  0  0  0
   29.6138  -20.1435   -3.8758 C   0  0  0  0  0  0  0  0  0  0  0  0
   30.0311  -20.7514   -5.0573 C   0  0  0  0  0  0  0  0  0  0  0  0
   29.4424  -20.4535   -6.2564 C   0  0  0  0  0  0  0  0  0  0  0  0
   25.9753  -20.8354   -6.8807 C   0  0  0  0  0  0  0  0  0  0  0  0
   24.7881  -20.4855   -6.7261 O   0  0  0  0  0  0  0  0  0  0  0  0
   26.5053  -21.7733   -6.0113 O   0  0  0  0  0  0  0  0  0  0  0  0
  2  1  1  0
  3  2  2  0
  4  2  1  0
  5  4  1  0
  5  6  1  6
  7  5  1  0
  7  8  2  0
  9  7  1  0
 10  9  1  0
 11 10  1  0
 12 11  1  0
 12 13  1  0
 13  9  1  0
 13 14  1  1
 15 14  2  0
 16 14  1  0
 17 16  1  0
 17 25  1  0
 17 18  1  1
 19 18  1  0
 20 19  2  0
 21 20  1  0
 22 21  2  0
 22 23  1  0
 23 24  2  0
 24 19  1  0
 25 27  1  0
 26 25  2  0
M  END
$$$$
