NPF.pdb
     RDKit          3D

 27 28  0  0  1  0  0  0  0  0999 V2000
   23.4250  -12.8169  -19.3076 N   0  0  0  0  0  0  0  0  0  0  0  0
   23.2439  -11.4075  -19.3484 C   0  0  0  0  0  0  0  0  0  0  0  0
   23.7874  -10.7543  -20.2905 O   0  0  0  0  0  0  0  0  0  0  0  0
   22.4604  -10.6385  -18.3594 C   0  0  0  0  0  0  0  0  0  0  0  0
   21.8406  -11.5195  -17.2946 C   0  0  2  0  0  0  0  0  0  0  0  0
   21.0041  -12.5435  -17.8525 N   0  0  0  0  0  0  0  0  0  0  0  0
   21.1154  -10.7037  -16.2857 C   0  0  0  0  0  0  0  0  0  0  0  0
   19.8318  -10.6409  -16.3454 O   0  0  0  0  0  0  0  0  0  0  0  0
   21.7251   -9.9701  -15.2371 N   0  0  0  0  0  0  0  0  0  0  0  0
   23.1138   -9.8321  -14.8551 C   0  0  0  0  0  0  0  0  0  0  0  0
   23.0699   -9.7494  -13.3175 C   0  0  0  0  0  0  0  0  0  0  0  0
   21.6716   -9.3902  -12.9897 C   0  0  0  0  0  0  0  0  0  0  0  0
   21.0011   -9.1342  -14.2994 C   0  0  1  0  0  0  0  0  0  0  0  0
   21.0668   -7.7239  -14.7589 C   0  0  0  0  0  0  0  0  0  0  0  0
   22.1326   -7.3301  -15.3460 O   0  0  0  0  0  0  0  0  0  0  0  0
   20.0537   -6.7741  -14.6054 N   0  0  0  0  0  0  0  0  0  0  0  0
   20.0042   -5.4899  -15.3257 C   0  0  1  0  0  0  0  0  0  0  0  0
   20.0805   -5.7603  -16.8073 C   0  0  0  0  0  0  0  0  0  0  0  0
   18.7565   -6.1880  -17.3044 C   0  0  0  0  0  0  0  0  0  0  0  0
   17.7987   -5.2045  -17.5792 C   0  0  0  0  0  0  0  0  0  0  0  0
   16.5447   -5.4916  -18.0656 C   0  0  0  0  0  0  0  0  0  0  0  0
   16.2572   -6.8155  -18.2786 C   0  0  0  0  0  0  0  0  0  0  0  0
   17.1846   -7.8211  -18.0167 C   0  0  0  0  0  0  0  0  0  0  0  0
   18.4311   -7.5298  -17.5325 C   0  0  0  0  0  0  0  0  0  0  0  0
   18.8431   -4.7045  -14.9292 C   0  0  0  0  0  0  0  0  0  0  0  0
   18.6946   -3.5241  -15.3035 O   0  0  0  0  0  0  0  0  0  0  0  0
   17.8723   -5.2667  -14.1181 O   0  0  0  0  0  0  0  0  0  0  0  0
  2  1  1  0
  3  2  2  0
  4  2  1  0
  5  4  1  0
  5  6  1  6
  7  5  1  0
  7  8  2  0
  9  7  1  0
 10  9  1  0
 11 10  1  0
 12 11  1  0
 12 13  1  0
 13  9  1  0
 13 14  1  6
 15 14  2  0
 16 14  1  0
 17 16  1  0
 17 25  1  0
 17 18  1  6
 19 18  1  0
 20 19  2  0
 21 20  1  0
 22 21  2  0
 22 23  1  0
 23 24  2  0
 24 19  1  0
 25 27  1  0
 26 25  2  0
M  END
$$$$
