NPF.pdb
     RDKit          3D

 27 28  0  0  1  0  0  0  0  0999 V2000
   15.3467  -20.8278    2.5987 N   0  0  0  0  0  0  0  0  0  0  0  0
   16.7085  -20.6236    2.9518 C   0  0  0  0  0  0  0  0  0  0  0  0
   17.5909  -21.3568    2.4101 O   0  0  0  0  0  0  0  0  0  0  0  0
   17.1763  -19.6080    3.9178 C   0  0  0  0  0  0  0  0  0  0  0  0
   16.0408  -18.7948    4.5042 C   0  0  2  0  0  0  0  0  0  0  0  0
   15.2458  -18.1592    3.4926 N   0  0  0  0  0  0  0  0  0  0  0  0
   16.5476  -17.8173    5.5027 C   0  0  0  0  0  0  0  0  0  0  0  0
   16.7271  -16.5963    5.1395 O   0  0  0  0  0  0  0  0  0  0  0  0
   16.8588  -18.1159    6.8530 N   0  0  0  0  0  0  0  0  0  0  0  0
   16.8724  -19.3722    7.5707 C   0  0  0  0  0  0  0  0  0  0  0  0
   16.3878  -18.9979    8.9843 C   0  0  0  0  0  0  0  0  0  0  0  0
   16.5780  -17.5331    9.0827 C   0  0  0  0  0  0  0  0  0  0  0  0
   17.2822  -17.1305    7.8287 C   0  0  1  0  0  0  0  0  0  0  0  0
   18.7638  -17.1489    7.9222 C   0  0  0  0  0  0  0  0  0  0  0  0
   19.3636  -18.2686    7.7730 O   0  0  0  0  0  0  0  0  0  0  0  0
   19.5740  -16.0361    8.1619 N   0  0  0  0  0  0  0  0  0  0  0  0
   21.0467  -16.0708    8.1819 C   0  0  1  0  0  0  0  0  0  0  0  0
   21.5628  -15.5720    6.8557 C   0  0  0  0  0  0  0  0  0  0  0  0
   21.0153  -14.2272    6.5821 C   0  0  0  0  0  0  0  0  0  0  0  0
   19.8811  -14.1228    5.7679 C   0  0  0  0  0  0  0  0  0  0  0  0
   19.2788  -12.9232    5.4683 C   0  0  0  0  0  0  0  0  0  0  0  0
   19.8455  -11.7991    6.0121 C   0  0  0  0  0  0  0  0  0  0  0  0
   20.9736  -11.8642    6.8263 C   0  0  0  0  0  0  0  0  0  0  0  0
   21.5693  -13.0607    7.1211 C   0  0  0  0  0  0  0  0  0  0  0  0
   21.5781  -15.3487    9.3301 C   0  0  0  0  0  0  0  0  0  0  0  0
   22.7900  -15.3880    9.6224 O   0  0  0  0  0  0  0  0  0  0  0  0
   20.7314  -14.5964   10.1260 O   0  0  0  0  0  0  0  0  0  0  0  0
  2  1  1  0
  3  2  2  0
  4  2  1  0
  5  4  1  0
  5  6  1  6
  7  5  1  0
  7  8  2  0
  9  7  1  0
 10  9  1  0
 11 10  1  0
 12 11  1  0
 12 13  1  0
 13  9  1  0
 13 14  1  1
 15 14  2  0
 16 14  1  0
 17 16  1  0
 17 25  1  0
 17 18  1  6
 19 18  1  0
 20 19  2  0
 21 20  1  0
 22 21  2  0
 22 23  1  0
 23 24  2  0
 24 19  1  0
 25 27  1  0
 26 25  2  0
M  END
$$$$
