NPF.pdb
     RDKit          3D

 27 28  0  0  1  0  0  0  0  0999 V2000
   28.8704  -18.5178  -16.7775 N   0  0  0  0  0  0  0  0  0  0  0  0
   27.5048  -18.7418  -17.1031 C   0  0  0  0  0  0  0  0  0  0  0  0
   27.0682  -18.3090  -18.2129 O   0  0  0  0  0  0  0  0  0  0  0  0
   26.5448  -19.4493  -16.2306 C   0  0  0  0  0  0  0  0  0  0  0  0
   27.0537  -20.8035  -15.7817 C   0  0  2  0  0  0  0  0  0  0  0  0
   27.4409  -21.6343  -16.8859 N   0  0  0  0  0  0  0  0  0  0  0  0
   26.0629  -21.4793  -14.9037 C   0  0  0  0  0  0  0  0  0  0  0  0
   25.3625  -22.4442  -15.3869 O   0  0  0  0  0  0  0  0  0  0  0  0
   25.8135  -21.1488  -13.5480 N   0  0  0  0  0  0  0  0  0  0  0  0
   26.3998  -20.1412  -12.6910 C   0  0  0  0  0  0  0  0  0  0  0  0
   26.4441  -20.8121  -11.3051 C   0  0  0  0  0  0  0  0  0  0  0  0
   25.4839  -21.9357  -11.3889 C   0  0  0  0  0  0  0  0  0  0  0  0
   24.8192  -21.8027  -12.7196 C   0  0  1  0  0  0  0  0  0  0  0  0
   23.5824  -20.9814  -12.7102 C   0  0  0  0  0  0  0  0  0  0  0  0
   23.7035  -19.7098  -12.6470 O   0  0  0  0  0  0  0  0  0  0  0  0
   22.2785  -21.4803  -12.7651 N   0  0  0  0  0  0  0  0  0  0  0  0
   21.0841  -20.6551  -13.0157 C   0  0  1  0  0  0  0  0  0  0  0  0
   21.2800  -19.8946  -14.3030 C   0  0  0  0  0  0  0  0  0  0  0  0
   21.1893  -20.8232  -15.4488 C   0  0  0  0  0  0  0  0  0  0  0  0
   22.3775  -21.3015  -16.0141 C   0  0  0  0  0  0  0  0  0  0  0  0
   22.4062  -22.1853  -17.0675 C   0  0  0  0  0  0  0  0  0  0  0  0
   21.1930  -22.5940  -17.5590 C   0  0  0  0  0  0  0  0  0  0  0  0
   19.9909  -22.1396  -17.0222 C   0  0  0  0  0  0  0  0  0  0  0  0
   19.9680  -21.2598  -15.9741 C   0  0  0  0  0  0  0  0  0  0  0  0
   19.8692  -21.4584  -12.9850 C   0  0  0  0  0  0  0  0  0  0  0  0
   19.9096  -22.7046  -13.0131 O   0  0  0  0  0  0  0  0  0  0  0  0
   18.6325  -20.8395  -12.9231 O   0  0  0  0  0  0  0  0  0  0  0  0
  2  1  1  0
  3  2  2  0
  4  2  1  0
  5  4  1  0
  5  6  1  6
  7  5  1  0
  7  8  2  0
  9  7  1  0
 10  9  1  0
 11 10  1  0
 12 11  1  0
 12 13  1  0
 13  9  1  0
 13 14  1  1
 15 14  2  0
 16 14  1  0
 17 16  1  0
 17 25  1  0
 17 18  1  6
 19 18  1  0
 20 19  2  0
 21 20  1  0
 22 21  2  0
 22 23  1  0
 23 24  2  0
 24 19  1  0
 25 27  1  0
 26 25  2  0
M  END
$$$$
