NPF.pdb
     RDKit          3D

 27 28  0  0  1  0  0  0  0  0999 V2000
   23.2148  -26.4045  -14.0731 N   0  0  0  0  0  0  0  0  0  0  0  0
   23.4548  -25.9062  -15.3827 C   0  0  0  0  0  0  0  0  0  0  0  0
   23.5377  -26.7348  -16.3399 O   0  0  0  0  0  0  0  0  0  0  0  0
   23.6187  -24.4755  -15.7135 C   0  0  0  0  0  0  0  0  0  0  0  0
   22.3171  -23.8199  -16.1266 C   0  0  2  0  0  0  0  0  0  0  0  0
   21.8105  -24.3440  -17.3628 N   0  0  0  0  0  0  0  0  0  0  0  0
   22.4576  -22.3409  -16.1707 C   0  0  0  0  0  0  0  0  0  0  0  0
   22.5177  -21.7575  -17.3158 O   0  0  0  0  0  0  0  0  0  0  0  0
   22.5331  -21.4933  -15.0370 N   0  0  0  0  0  0  0  0  0  0  0  0
   22.6586  -21.7979  -13.6281 C   0  0  0  0  0  0  0  0  0  0  0  0
   21.8197  -20.7071  -12.9359 C   0  0  0  0  0  0  0  0  0  0  0  0
   21.6732  -19.6338  -13.9449 C   0  0  0  0  0  0  0  0  0  0  0  0
   22.5251  -20.0448  -15.1006 C   0  0  1  0  0  0  0  0  0  0  0  0
   23.9239  -19.5509  -15.0401 C   0  0  0  0  0  0  0  0  0  0  0  0
   24.1618  -18.3621  -15.4475 O   0  0  0  0  0  0  0  0  0  0  0  0
   25.0203  -20.2789  -14.5709 N   0  0  0  0  0  0  0  0  0  0  0  0
   26.4257  -19.8879  -14.7771 C   0  0  1  0  0  0  0  0  0  0  0  0
   26.9385  -19.2356  -13.5180 C   0  0  0  0  0  0  0  0  0  0  0  0
   26.4253  -19.9602  -12.3371 C   0  0  0  0  0  0  0  0  0  0  0  0
   27.1702  -21.0366  -11.8406 C   0  0  0  0  0  0  0  0  0  0  0  0
   26.7949  -21.7640  -10.7353 C   0  0  0  0  0  0  0  0  0  0  0  0
   25.6302  -21.3858  -10.1180 C   0  0  0  0  0  0  0  0  0  0  0  0
   24.8634  -20.3204  -10.5833 C   0  0  0  0  0  0  0  0  0  0  0  0
   25.2413  -19.6000  -11.6840 C   0  0  0  0  0  0  0  0  0  0  0  0
   27.2295  -21.0173  -15.2251 C   0  0  0  0  0  0  0  0  0  0  0  0
   26.7642  -22.1737  -15.2677 O   0  0  0  0  0  0  0  0  0  0  0  0
   28.5425  -20.8194  -15.6163 O   0  0  0  0  0  0  0  0  0  0  0  0
  2  1  1  0
  3  2  2  0
  4  2  1  0
  5  4  1  0
  5  6  1  6
  7  5  1  0
  7  8  2  0
  9  7  1  0
 10  9  1  0
 11 10  1  0
 12 11  1  0
 12 13  1  0
 13  9  1  0
 13 14  1  1
 15 14  2  0
 16 14  1  0
 17 16  1  0
 17 25  1  0
 17 18  1  1
 19 18  1  0
 20 19  2  0
 21 20  1  0
 22 21  2  0
 22 23  1  0
 23 24  2  0
 24 19  1  0
 25 27  1  0
 26 25  2  0
M  END
$$$$
