NPF.pdb
     RDKit          3D

 27 28  0  0  1  0  0  0  0  0999 V2000
   16.1593  -20.2009    8.1164 N   0  0  0  0  0  0  0  0  0  0  0  0
   17.3241  -19.6171    7.5478 C   0  0  0  0  0  0  0  0  0  0  0  0
   18.2119  -20.3843    7.0652 O   0  0  0  0  0  0  0  0  0  0  0  0
   17.5798  -18.1634    7.4794 C   0  0  0  0  0  0  0  0  0  0  0  0
   16.3773  -17.3400    7.8924 C   0  0  2  0  0  0  0  0  0  0  0  0
   15.3812  -17.2740    6.8615 N   0  0  0  0  0  0  0  0  0  0  0  0
   16.7908  -15.9868    8.3476 C   0  0  0  0  0  0  0  0  0  0  0  0
   16.6205  -14.9872    7.5557 O   0  0  0  0  0  0  0  0  0  0  0  0
   17.3701  -15.6902    9.6068 N   0  0  0  0  0  0  0  0  0  0  0  0
   17.7594  -16.5522   10.7017 C   0  0  0  0  0  0  0  0  0  0  0  0
   17.4414  -15.7219   11.9597 C   0  0  0  0  0  0  0  0  0  0  0  0
   17.3368  -14.3240   11.4836 C   0  0  0  0  0  0  0  0  0  0  0  0
   17.7311  -14.3555   10.0436 C   0  0  1  0  0  0  0  0  0  0  0  0
   19.1796  -14.1420    9.7975 C   0  0  0  0  0  0  0  0  0  0  0  0
   19.9369  -15.1700    9.7253 O   0  0  0  0  0  0  0  0  0  0  0  0
   19.7990  -12.9001    9.6352 N   0  0  0  0  0  0  0  0  0  0  0  0
   21.2256  -12.7200    9.3144 C   0  0  1  0  0  0  0  0  0  0  0  0
   21.5274  -13.4359    8.0220 C   0  0  0  0  0  0  0  0  0  0  0  0
   20.6920  -12.8795    6.9377 C   0  0  0  0  0  0  0  0  0  0  0  0
   21.0534  -11.6447    6.3854 C   0  0  0  0  0  0  0  0  0  0  0  0
   20.3589  -11.0484    5.3589 C   0  0  0  0  0  0  0  0  0  0  0  0
   19.2672  -11.7268    4.8809 C   0  0  0  0  0  0  0  0  0  0  0  0
   18.8779  -12.9569    5.4054 C   0  0  0  0  0  0  0  0  0  0  0  0
   19.5724  -13.5458    6.4272 C   0  0  0  0  0  0  0  0  0  0  0  0
   21.5930  -11.3104    9.3069 C   0  0  0  0  0  0  0  0  0  0  0  0
   22.7793  -10.9455    9.1839 O   0  0  0  0  0  0  0  0  0  0  0  0
   20.6145  -10.3401    9.4383 O   0  0  0  0  0  0  0  0  0  0  0  0
  2  1  1  0
  3  2  2  0
  4  2  1  0
  5  4  1  0
  5  6  1  6
  7  5  1  0
  7  8  2  0
  9  7  1  0
 10  9  1  0
 11 10  1  0
 12 11  1  0
 12 13  1  0
 13  9  1  0
 13 14  1  1
 15 14  2  0
 16 14  1  0
 17 16  1  0
 17 25  1  0
 17 18  1  6
 19 18  1  0
 20 19  2  0
 21 20  1  0
 22 21  2  0
 22 23  1  0
 23 24  2  0
 24 19  1  0
 25 27  1  0
 26 25  2  0
M  END
$$$$
