NPF.pdb
     RDKit          3D

 27 28  0  0  1  0  0  0  0  0999 V2000
   17.9162  -14.6649  -20.2612 N   0  0  0  0  0  0  0  0  0  0  0  0
   17.7851  -13.8211  -19.1247 C   0  0  0  0  0  0  0  0  0  0  0  0
   16.8430  -14.0499  -18.3062 O   0  0  0  0  0  0  0  0  0  0  0  0
   18.6764  -12.6813  -18.8250 C   0  0  0  0  0  0  0  0  0  0  0  0
   19.7876  -12.5272  -19.8427 C   0  0  2  0  0  0  0  0  0  0  0  0
   20.6387  -13.6812  -19.9002 N   0  0  0  0  0  0  0  0  0  0  0  0
   20.5621  -11.2820  -19.5995 C   0  0  0  0  0  0  0  0  0  0  0  0
   21.8131  -11.3756  -19.3139 O   0  0  0  0  0  0  0  0  0  0  0  0
   20.0343   -9.9677  -19.6552 N   0  0  0  0  0  0  0  0  0  0  0  0
   18.6979   -9.4904  -19.9377 C   0  0  0  0  0  0  0  0  0  0  0  0
   18.9277   -8.1785  -20.7117 C   0  0  0  0  0  0  0  0  0  0  0  0
   20.3244   -7.7914  -20.4099 C   0  0  0  0  0  0  0  0  0  0  0  0
   20.8040   -8.7685  -19.3873 C   0  0  1  0  0  0  0  0  0  0  0  0
   20.5735   -8.3505  -17.9814 C   0  0  0  0  0  0  0  0  0  0  0  0
   19.5364   -8.7980  -17.3817 O   0  0  0  0  0  0  0  0  0  0  0  0
   21.4004   -7.4995  -17.2436 N   0  0  0  0  0  0  0  0  0  0  0  0
   21.3474   -7.3561  -15.7783 C   0  0  1  0  0  0  0  0  0  0  0  0
   22.6374   -7.8722  -15.1924 C   0  0  0  0  0  0  0  0  0  0  0  0
   22.5821   -7.7918  -13.7181 C   0  0  0  0  0  0  0  0  0  0  0  0
   22.5365   -8.9852  -12.9873 C   0  0  0  0  0  0  0  0  0  0  0  0
   22.5052   -9.0241  -11.6128 C   0  0  0  0  0  0  0  0  0  0  0  0
   22.5212   -7.8160  -10.9640 C   0  0  0  0  0  0  0  0  0  0  0  0
   22.5663   -6.6090  -11.6575 C   0  0  0  0  0  0  0  0  0  0  0  0
   22.5970   -6.5760  -13.0254 C   0  0  0  0  0  0  0  0  0  0  0  0
   21.0301   -5.9881  -15.3911 C   0  0  0  0  0  0  0  0  0  0  0  0
   21.5213   -5.0097  -15.9887 O   0  0  0  0  0  0  0  0  0  0  0  0
   20.1645   -5.7509  -14.3371 O   0  0  0  0  0  0  0  0  0  0  0  0
  2  1  1  0
  3  2  2  0
  4  2  1  0
  5  4  1  0
  5  6  1  1
  7  5  1  0
  7  8  2  0
  9  7  1  0
 10  9  1  0
 11 10  1  0
 12 11  1  0
 12 13  1  0
 13  9  1  0
 13 14  1  1
 15 14  2  0
 16 14  1  0
 17 16  1  0
 17 25  1  0
 17 18  1  1
 19 18  1  0
 20 19  2  0
 21 20  1  0
 22 21  2  0
 22 23  1  0
 23 24  2  0
 24 19  1  0
 25 27  1  0
 26 25  2  0
M  END
$$$$
