VHD.pdb
     RDKit          3D

 26 26  0  0  1  0  0  0  0  0999 V2000
    9.0569  -13.2031   20.5759 C   0  0  0  0  0  0  0  0  0  0  0  0
    8.2736  -13.8282   19.4566 C   0  0  1  0  0  0  0  0  0  0  0  0
    7.1368  -12.9125   19.0911 C   0  0  0  0  0  0  0  0  0  0  0  0
    9.1638  -14.0093   18.2499 C   0  0  2  0  0  0  0  0  0  0  0  0
    8.4817  -14.5995   17.1383 N   0  0  0  0  0  0  0  0  0  0  0  0
   10.3415  -14.8450   18.5911 C   0  0  0  0  0  0  0  0  0  0  0  0
   10.3239  -16.0993   18.4176 O   0  0  0  0  0  0  0  0  0  0  0  0
   11.5135  -14.2514   19.1202 N   0  0  0  0  0  0  0  0  0  0  0  0
   12.6767  -15.0833   19.5494 C   0  0  1  0  0  0  0  0  0  0  0  0
   13.9149  -14.3219   19.3364 C   0  0  0  0  0  0  0  0  0  0  0  0
   14.6445  -14.6156   18.0912 C   0  0  0  0  0  0  0  0  0  0  0  0
   14.5014  -15.7020   17.2365 C   0  0  0  0  0  0  0  0  0  0  0  0
   15.3967  -15.5942   16.2404 N   0  0  0  0  0  0  0  0  0  0  0  0
   16.1125  -14.4710   16.4280 C   0  0  0  0  0  0  0  0  0  0  0  0
   15.6610  -13.8919   17.5308 N   0  0  0  0  0  0  0  0  0  0  0  0
   12.3336  -15.6235   20.8356 C   0  0  0  0  0  0  0  0  0  0  0  0
   11.9675  -14.8001   21.7589 O   0  0  0  0  0  0  0  0  0  0  0  0
   12.3302  -16.9879   21.2617 N   0  0  0  0  0  0  0  0  0  0  0  0
   11.8847  -17.3434   22.6163 C   0  0  1  0  0  0  0  0  0  0  0  0
   11.1522  -18.6653   22.5798 C   0  0  0  0  0  0  0  0  0  0  0  0
   11.8636  -19.6856   21.7902 C   0  0  0  0  0  0  0  0  0  0  0  0
   13.0293  -20.0839   22.1525 O   0  0  0  0  0  0  0  0  0  0  0  0
   13.0784  -17.4626   23.4719 C   0  0  0  0  0  0  0  0  0  0  0  0
   14.2181  -17.3317   22.9909 O   0  0  0  0  0  0  0  0  0  0  0  0
   11.3817  -20.2897   20.6356 O   0  0  0  0  0  0  0  0  0  0  0  0
   12.9523  -17.7189   24.8098 O   0  0  0  0  0  0  0  0  0  0  0  0
  2  4  1  0
  2  1  1  1
  3  2  1  0
  4  5  1  6
  4  6  1  0
  6  7  2  0
  8  6  1  0
  8  9  1  0
  9 16  1  0
  9 10  1  1
 10 11  1  0
 11 12  2  0
 12 13  1  0
 14 13  1  0
 15 11  1  0
 15 14  2  0
 16 17  2  0
 18 19  1  0
 18 16  1  0
 19 23  1  0
 20 21  1  0
 19 20  1  6
 21 22  2  0
 23 24  2  0
 23 26  1  0
 25 21  1  0
M  END
$$$$
