VHD.pdb
     RDKit          3D

 26 26  0  0  1  0  0  0  0  0999 V2000
    6.5567  -11.3419   26.7607 C   0  0  0  0  0  0  0  0  0  0  0  0
    7.3853  -12.4749   26.2251 C   0  0  1  0  0  0  0  0  0  0  0  0
    8.0459  -13.1792   27.3792 C   0  0  0  0  0  0  0  0  0  0  0  0
    6.4979  -13.4558   25.4960 C   0  0  2  0  0  0  0  0  0  0  0  0
    5.5666  -14.1139   26.3615 N   0  0  0  0  0  0  0  0  0  0  0  0
    7.3146  -14.4802   24.7994 C   0  0  0  0  0  0  0  0  0  0  0  0
    7.2140  -15.7073   25.0959 O   0  0  0  0  0  0  0  0  0  0  0  0
    8.2268  -14.1020   23.7841 N   0  0  0  0  0  0  0  0  0  0  0  0
    8.9511  -15.1255   22.9735 C   0  0  1  0  0  0  0  0  0  0  0  0
    9.4038  -14.5103   21.7187 C   0  0  0  0  0  0  0  0  0  0  0  0
    8.3615  -14.2745   20.7052 C   0  0  0  0  0  0  0  0  0  0  0  0
    7.0199  -14.6355   20.7390 C   0  0  0  0  0  0  0  0  0  0  0  0
    6.4385  -14.2618   19.5867 N   0  0  0  0  0  0  0  0  0  0  0  0
    7.3654  -13.6709   18.8116 C   0  0  0  0  0  0  0  0  0  0  0  0
    8.5083  -13.6808   19.4816 N   0  0  0  0  0  0  0  0  0  0  0  0
    9.8666  -15.7759   23.8696 C   0  0  0  0  0  0  0  0  0  0  0  0
   10.5787  -15.0345   24.6492 O   0  0  0  0  0  0  0  0  0  0  0  0
   10.1127  -17.1736   24.0391 N   0  0  0  0  0  0  0  0  0  0  0  0
   11.1657  -17.6383   24.9530 C   0  0  1  0  0  0  0  0  0  0  0  0
   10.7940  -18.9940   25.5090 C   0  0  0  0  0  0  0  0  0  0  0  0
    9.9552  -18.9004   26.7166 C   0  0  0  0  0  0  0  0  0  0  0  0
    9.6936  -17.7541   27.2325 O   0  0  0  0  0  0  0  0  0  0  0  0
   12.4198  -17.7447   24.1867 C   0  0  0  0  0  0  0  0  0  0  0  0
   12.4240  -17.5831   22.9534 O   0  0  0  0  0  0  0  0  0  0  0  0
    9.3919  -19.9772   27.3903 O   0  0  0  0  0  0  0  0  0  0  0  0
   13.6002  -18.0227   24.8199 O   0  0  0  0  0  0  0  0  0  0  0  0
  2  4  1  0
  2  1  1  1
  3  2  1  0
  4  5  1  1
  4  6  1  0
  6  7  2  0
  8  6  1  0
  8  9  1  0
  9 16  1  0
  9 10  1  6
 10 11  1  0
 11 12  2  0
 12 13  1  0
 14 13  1  0
 15 11  1  0
 15 14  2  0
 16 17  2  0
 18 19  1  0
 18 16  1  0
 19 23  1  0
 20 21  1  0
 19 20  1  6
 21 22  2  0
 23 24  2  0
 23 26  1  0
 25 21  1  0
M  END
$$$$
