VHD.pdb
     RDKit          3D

 26 26  0  0  1  0  0  0  0  0999 V2000
    8.5280  -16.5916   17.8161 C   0  0  0  0  0  0  0  0  0  0  0  0
    8.8793  -15.2590   17.2179 C   0  0  1  0  0  0  0  0  0  0  0  0
    8.5217  -15.2752   15.7562 C   0  0  0  0  0  0  0  0  0  0  0  0
    8.0903  -14.1684   17.9029 C   0  0  2  0  0  0  0  0  0  0  0  0
    8.3021  -12.8781   17.3203 N   0  0  0  0  0  0  0  0  0  0  0  0
    8.4298  -14.1067   19.3461 C   0  0  0  0  0  0  0  0  0  0  0  0
    9.5389  -13.6358   19.7359 O   0  0  0  0  0  0  0  0  0  0  0  0
    7.5142  -14.5760   20.3194 N   0  0  0  0  0  0  0  0  0  0  0  0
    7.7985  -14.4402   21.7789 C   0  0  1  0  0  0  0  0  0  0  0  0
    6.5264  -14.3576   22.5090 C   0  0  0  0  0  0  0  0  0  0  0  0
    6.6291  -14.3161   23.9776 C   0  0  0  0  0  0  0  0  0  0  0  0
    6.8251  -13.2158   24.8036 C   0  0  0  0  0  0  0  0  0  0  0  0
    6.8993  -13.6349   26.0781 N   0  0  0  0  0  0  0  0  0  0  0  0
    6.7571  -14.9722   26.0978 C   0  0  0  0  0  0  0  0  0  0  0  0
    6.5965  -15.3731   24.8453 N   0  0  0  0  0  0  0  0  0  0  0  0
    8.7863  -15.4353   22.0919 C   0  0  0  0  0  0  0  0  0  0  0  0
    9.2489  -16.1529   21.1248 O   0  0  0  0  0  0  0  0  0  0  0  0
    9.3607  -15.7586   23.3602 N   0  0  0  0  0  0  0  0  0  0  0  0
   10.4301  -16.7618   23.4587 C   0  0  1  0  0  0  0  0  0  0  0  0
   11.6723  -16.2501   22.7656 C   0  0  0  0  0  0  0  0  0  0  0  0
   12.1257  -17.1420   21.6841 C   0  0  0  0  0  0  0  0  0  0  0  0
   11.4260  -18.1685   21.3592 O   0  0  0  0  0  0  0  0  0  0  0  0
   10.7164  -16.9838   24.8870 C   0  0  0  0  0  0  0  0  0  0  0  0
   10.1414  -16.3100   25.7604 O   0  0  0  0  0  0  0  0  0  0  0  0
   13.2907  -16.9817   20.9443 O   0  0  0  0  0  0  0  0  0  0  0  0
   11.6194  -17.9352   25.2756 O   0  0  0  0  0  0  0  0  0  0  0  0
  2  4  1  0
  2  1  1  1
  3  2  1  0
  4  5  1  6
  4  6  1  0
  6  7  2  0
  8  6  1  0
  8  9  1  0
  9 16  1  0
  9 10  1  1
 10 11  1  0
 11 12  2  0
 12 13  1  0
 14 13  1  0
 15 11  1  0
 15 14  2  0
 16 17  2  0
 18 19  1  0
 18 16  1  0
 19 23  1  0
 20 21  1  0
 19 20  1  6
 21 22  2  0
 23 24  2  0
 23 26  1  0
 25 21  1  0
M  END
$$$$
