VHD.pdb
     RDKit          3D

 26 26  0  0  1  0  0  0  0  0999 V2000
    6.8819  -12.8174   21.8897 C   0  0  0  0  0  0  0  0  0  0  0  0
    7.5040  -13.4276   20.6658 C   0  0  1  0  0  0  0  0  0  0  0  0
    8.9316  -12.9626   20.5656 C   0  0  0  0  0  0  0  0  0  0  0  0
    7.4864  -14.9334   20.7813 C   0  0  2  0  0  0  0  0  0  0  0  0
    8.1175  -15.4077   21.9755 N   0  0  0  0  0  0  0  0  0  0  0  0
    8.1485  -15.5545   19.6076 C   0  0  0  0  0  0  0  0  0  0  0  0
    7.7020  -15.3757   18.4361 O   0  0  0  0  0  0  0  0  0  0  0  0
    9.2988  -16.3631   19.7773 N   0  0  0  0  0  0  0  0  0  0  0  0
   10.0463  -16.9023   18.6026 C   0  0  1  0  0  0  0  0  0  0  0  0
   10.2536  -15.8215   17.6294 C   0  0  0  0  0  0  0  0  0  0  0  0
    9.2406  -15.7104   16.5661 C   0  0  0  0  0  0  0  0  0  0  0  0
    8.1466  -16.5312   16.3198 C   0  0  0  0  0  0  0  0  0  0  0  0
    7.5088  -16.0902   15.2224 N   0  0  0  0  0  0  0  0  0  0  0  0
    8.1592  -15.0099   14.7545 C   0  0  0  0  0  0  0  0  0  0  0  0
    9.1892  -14.7877   15.5576 N   0  0  0  0  0  0  0  0  0  0  0  0
   11.1445  -17.6596   19.1361 C   0  0  0  0  0  0  0  0  0  0  0  0
   12.0370  -18.0929   18.3114 O   0  0  0  0  0  0  0  0  0  0  0  0
   11.4114  -18.0137   20.4948 N   0  0  0  0  0  0  0  0  0  0  0  0
   12.6357  -18.7470   20.8460 C   0  0  1  0  0  0  0  0  0  0  0  0
   12.9714  -18.5084   22.3005 C   0  0  0  0  0  0  0  0  0  0  0  0
   13.1381  -17.0790   22.6163 C   0  0  0  0  0  0  0  0  0  0  0  0
   13.7066  -16.2947   21.7734 O   0  0  0  0  0  0  0  0  0  0  0  0
   12.3864  -20.1823   20.6248 C   0  0  0  0  0  0  0  0  0  0  0  0
   11.2752  -20.5788   20.2305 O   0  0  0  0  0  0  0  0  0  0  0  0
   12.7262  -16.4612   23.7906 O   0  0  0  0  0  0  0  0  0  0  0  0
   13.3736  -21.1024   20.8493 O   0  0  0  0  0  0  0  0  0  0  0  0
  2  4  1  0
  2  1  1  1
  3  2  1  0
  4  5  1  1
  4  6  1  0
  6  7  2  0
  8  6  1  0
  8  9  1  0
  9 16  1  0
  9 10  1  6
 10 11  1  0
 11 12  2  0
 12 13  1  0
 14 13  1  0
 15 11  1  0
 15 14  2  0
 16 17  2  0
 18 19  1  0
 18 16  1  0
 19 23  1  0
 20 21  1  0
 19 20  1  1
 21 22  2  0
 23 24  2  0
 23 26  1  0
 25 21  1  0
M  END
$$$$
