VHD.pdb
     RDKit          3D

 26 26  0  0  1  0  0  0  0  0999 V2000
    9.8883  -12.6818   20.2755 C   0  0  0  0  0  0  0  0  0  0  0  0
    8.5867  -13.2900   19.8363 C   0  0  1  0  0  0  0  0  0  0  0  0
    7.4985  -12.2605   19.9801 C   0  0  0  0  0  0  0  0  0  0  0  0
    8.6804  -13.7041   18.3868 C   0  0  2  0  0  0  0  0  0  0  0  0
    7.4259  -14.1354   17.8487 N   0  0  0  0  0  0  0  0  0  0  0  0
    9.6760  -14.7914   18.2182 C   0  0  0  0  0  0  0  0  0  0  0  0
    9.3208  -16.0070   18.2172 O   0  0  0  0  0  0  0  0  0  0  0  0
   11.0495  -14.4876   18.0543 N   0  0  0  0  0  0  0  0  0  0  0  0
   12.0690  -15.5681   17.9040 C   0  0  1  0  0  0  0  0  0  0  0  0
   12.6358  -15.5070   16.5501 C   0  0  0  0  0  0  0  0  0  0  0  0
   11.7798  -16.0270   15.4703 C   0  0  0  0  0  0  0  0  0  0  0  0
   11.1195  -17.2477   15.3972 C   0  0  0  0  0  0  0  0  0  0  0  0
   10.4842  -17.3298   14.2161 N   0  0  0  0  0  0  0  0  0  0  0  0
   10.7155  -16.1987   13.5261 C   0  0  0  0  0  0  0  0  0  0  0  0
   11.4871  -15.4264   14.2767 N   0  0  0  0  0  0  0  0  0  0  0  0
   12.8996  -15.5049   19.0745 C   0  0  0  0  0  0  0  0  0  0  0  0
   13.0316  -14.3634   19.6611 O   0  0  0  0  0  0  0  0  0  0  0  0
   13.6243  -16.5567   19.7159 N   0  0  0  0  0  0  0  0  0  0  0  0
   14.1474  -16.3773   21.0775 C   0  0  1  0  0  0  0  0  0  0  0  0
   12.9982  -16.2113   22.0455 C   0  0  0  0  0  0  0  0  0  0  0  0
   13.4432  -16.1549   23.4488 C   0  0  0  0  0  0  0  0  0  0  0  0
   14.6891  -16.0123   23.7247 O   0  0  0  0  0  0  0  0  0  0  0  0
   14.9217  -17.5803   21.4303 C   0  0  0  0  0  0  0  0  0  0  0  0
   14.5969  -18.6956   20.9855 O   0  0  0  0  0  0  0  0  0  0  0  0
   12.6143  -16.2473   24.5600 O   0  0  0  0  0  0  0  0  0  0  0  0
   16.0110  -17.4897   22.2530 O   0  0  0  0  0  0  0  0  0  0  0  0
  2  4  1  0
  2  1  1  6
  3  2  1  0
  4  5  1  1
  4  6  1  0
  6  7  2  0
  8  6  1  0
  8  9  1  0
  9 16  1  0
  9 10  1  6
 10 11  1  0
 11 12  2  0
 12 13  1  0
 14 13  1  0
 15 11  1  0
 15 14  2  0
 16 17  2  0
 18 19  1  0
 18 16  1  0
 19 23  1  0
 20 21  1  0
 19 20  1  1
 21 22  2  0
 23 24  2  0
 23 26  1  0
 25 21  1  0
M  END
$$$$
