VHD.pdb
     RDKit          3D

 26 26  0  0  1  0  0  0  0  0999 V2000
    7.9181  -11.4721   19.3346 C   0  0  0  0  0  0  0  0  0  0  0  0
    8.8656  -12.5724   19.7199 C   0  0  1  0  0  0  0  0  0  0  0  0
    8.3262  -13.2709   20.9388 C   0  0  0  0  0  0  0  0  0  0  0  0
    8.9743  -13.5705   18.5915 C   0  0  2  0  0  0  0  0  0  0  0  0
    7.7261  -14.1998   18.2826 N   0  0  0  0  0  0  0  0  0  0  0  0
    9.9742  -14.6178   18.9158 C   0  0  0  0  0  0  0  0  0  0  0  0
    9.6133  -15.7580   19.3323 O   0  0  0  0  0  0  0  0  0  0  0  0
   11.3585  -14.3596   18.7644 N   0  0  0  0  0  0  0  0  0  0  0  0
   12.3799  -15.4004   19.0853 C   0  0  1  0  0  0  0  0  0  0  0  0
   13.3365  -15.4915   17.9741 C   0  0  0  0  0  0  0  0  0  0  0  0
   12.8824  -16.2480   16.7949 C   0  0  0  0  0  0  0  0  0  0  0  0
   12.2576  -17.4884   16.7466 C   0  0  0  0  0  0  0  0  0  0  0  0
   12.0553  -17.8253   15.4617 N   0  0  0  0  0  0  0  0  0  0  0  0
   12.5313  -16.8391   14.6807 C   0  0  0  0  0  0  0  0  0  0  0  0
   13.0225  -15.9025   15.4788 N   0  0  0  0  0  0  0  0  0  0  0  0
   12.8085  -15.1434   20.4322 C   0  0  0  0  0  0  0  0  0  0  0  0
   13.4879  -14.0696   20.6558 O   0  0  0  0  0  0  0  0  0  0  0  0
   12.5821  -15.9237   21.6081 N   0  0  0  0  0  0  0  0  0  0  0  0
   13.1115  -15.4838   22.9066 C   0  0  1  0  0  0  0  0  0  0  0  0
   12.2369  -16.0161   24.0187 C   0  0  0  0  0  0  0  0  0  0  0  0
   12.0766  -17.4795   23.9622 C   0  0  0  0  0  0  0  0  0  0  0  0
   12.3267  -18.1138   22.8742 O   0  0  0  0  0  0  0  0  0  0  0  0
   14.4756  -16.0227   23.0487 C   0  0  0  0  0  0  0  0  0  0  0  0
   15.1543  -15.7698   24.0600 O   0  0  0  0  0  0  0  0  0  0  0  0
   11.6596  -18.2844   25.0152 O   0  0  0  0  0  0  0  0  0  0  0  0
   15.0176  -16.8104   22.0703 O   0  0  0  0  0  0  0  0  0  0  0  0
  2  4  1  0
  2  1  1  6
  3  2  1  0
  4  5  1  1
  4  6  1  0
  6  7  2  0
  8  6  1  0
  8  9  1  0
  9 16  1  0
  9 10  1  6
 10 11  1  0
 11 12  2  0
 12 13  1  0
 14 13  1  0
 15 11  1  0
 15 14  2  0
 16 17  2  0
 18 19  1  0
 18 16  1  0
 19 23  1  0
 20 21  1  0
 19 20  1  1
 21 22  2  0
 23 24  2  0
 23 26  1  0
 25 21  1  0
M  END
$$$$
