VHD.pdb
     RDKit          3D

 26 26  0  0  1  0  0  0  0  0999 V2000
    7.2960  -12.2503   19.6690 C   0  0  0  0  0  0  0  0  0  0  0  0
    8.5265  -13.0920   19.8547 C   0  0  1  0  0  0  0  0  0  0  0  0
    8.2541  -14.1190   20.9204 C   0  0  0  0  0  0  0  0  0  0  0  0
    8.8584  -13.8022   18.5637 C   0  0  2  0  0  0  0  0  0  0  0  0
    7.8028  -14.6564   18.1108 N   0  0  0  0  0  0  0  0  0  0  0  0
   10.0970  -14.6055   18.7136 C   0  0  0  0  0  0  0  0  0  0  0  0
   10.0568  -15.8712   18.7230 O   0  0  0  0  0  0  0  0  0  0  0  0
   11.3540  -13.9673   18.8498 N   0  0  0  0  0  0  0  0  0  0  0  0
   12.6234  -14.7533   18.8684 C   0  0  1  0  0  0  0  0  0  0  0  0
   13.6399  -14.0404   18.0832 C   0  0  0  0  0  0  0  0  0  0  0  0
   14.9674  -14.6753   18.0218 C   0  0  0  0  0  0  0  0  0  0  0  0
   16.2003  -14.1468   18.3848 C   0  0  0  0  0  0  0  0  0  0  0  0
   17.1571  -15.0538   18.1254 N   0  0  0  0  0  0  0  0  0  0  0  0
   16.5774  -16.1507   17.6061 C   0  0  0  0  0  0  0  0  0  0  0  0
   15.2741  -15.9207   17.5464 N   0  0  0  0  0  0  0  0  0  0  0  0
   12.8489  -15.1232   20.2382 C   0  0  0  0  0  0  0  0  0  0  0  0
   12.4769  -14.2969   21.1565 O   0  0  0  0  0  0  0  0  0  0  0  0
   13.4396  -16.3166   20.7577 N   0  0  0  0  0  0  0  0  0  0  0  0
   13.5724  -16.5106   22.2084 C   0  0  1  0  0  0  0  0  0  0  0  0
   13.2132  -17.9349   22.5656 C   0  0  0  0  0  0  0  0  0  0  0  0
   13.4392  -18.2360   23.9899 C   0  0  0  0  0  0  0  0  0  0  0  0
   14.5157  -18.8299   24.3603 O   0  0  0  0  0  0  0  0  0  0  0  0
   14.9745  -16.2466   22.5769 C   0  0  0  0  0  0  0  0  0  0  0  0
   15.8441  -16.1044   21.6990 O   0  0  0  0  0  0  0  0  0  0  0  0
   12.5641  -17.9315   25.0252 O   0  0  0  0  0  0  0  0  0  0  0  0
   15.3423  -16.1534   23.8913 O   0  0  0  0  0  0  0  0  0  0  0  0
  2  4  1  0
  2  1  1  6
  3  2  1  0
  4  5  1  1
  4  6  1  0
  6  7  2  0
  8  6  1  0
  8  9  1  0
  9 16  1  0
  9 10  1  1
 10 11  1  0
 11 12  2  0
 12 13  1  0
 14 13  1  0
 15 11  1  0
 15 14  2  0
 16 17  2  0
 18 19  1  0
 18 16  1  0
 19 23  1  0
 20 21  1  0
 19 20  1  6
 21 22  2  0
 23 24  2  0
 23 26  1  0
 25 21  1  0
M  END
$$$$
