VHD.pdb
     RDKit          3D

 26 26  0  0  1  0  0  0  0  0999 V2000
   15.1870  -16.9234   18.0906 C   0  0  0  0  0  0  0  0  0  0  0  0
   15.8559  -15.7255   17.4784 C   0  0  1  0  0  0  0  0  0  0  0  0
   16.9806  -16.1970   16.5969 C   0  0  0  0  0  0  0  0  0  0  0  0
   14.8618  -14.9607   16.6369 C   0  0  2  0  0  0  0  0  0  0  0  0
   15.4701  -13.9200   15.8648 N   0  0  0  0  0  0  0  0  0  0  0  0
   13.8013  -14.3700   17.4902 C   0  0  0  0  0  0  0  0  0  0  0  0
   14.0282  -13.3437   18.1965 O   0  0  0  0  0  0  0  0  0  0  0  0
   12.5083  -14.9467   17.5302 N   0  0  0  0  0  0  0  0  0  0  0  0
   11.4746  -14.4637   18.4932 C   0  0  1  0  0  0  0  0  0  0  0  0
   10.1862  -14.3511   17.7964 C   0  0  0  0  0  0  0  0  0  0  0  0
    9.0066  -14.1469   18.6542 C   0  0  0  0  0  0  0  0  0  0  0  0
    8.5691  -12.9778   19.2653 C   0  0  0  0  0  0  0  0  0  0  0  0
    7.4724  -13.2498   19.9924 N   0  0  0  0  0  0  0  0  0  0  0  0
    7.1904  -14.5590   19.8682 C   0  0  0  0  0  0  0  0  0  0  0  0
    8.1062  -15.0887   19.0708 N   0  0  0  0  0  0  0  0  0  0  0  0
   11.6250  -15.2597   19.6796 C   0  0  0  0  0  0  0  0  0  0  0  0
   11.7525  -16.5358   19.5392 O   0  0  0  0  0  0  0  0  0  0  0  0
   11.6626  -14.8349   21.0439 N   0  0  0  0  0  0  0  0  0  0  0  0
   11.6853  -15.8238   22.1308 C   0  0  1  0  0  0  0  0  0  0  0  0
   12.8589  -15.5493   23.0432 C   0  0  0  0  0  0  0  0  0  0  0  0
   14.1096  -16.1565   22.5558 C   0  0  0  0  0  0  0  0  0  0  0  0
   14.0764  -17.0466   21.6309 O   0  0  0  0  0  0  0  0  0  0  0  0
   10.4284  -15.6962   22.8891 C   0  0  0  0  0  0  0  0  0  0  0  0
    9.6733  -14.7251   22.7048 O   0  0  0  0  0  0  0  0  0  0  0  0
   15.3844  -15.8532   23.0176 O   0  0  0  0  0  0  0  0  0  0  0  0
   10.0715  -16.6444   23.8085 O   0  0  0  0  0  0  0  0  0  0  0  0
  2  4  1  0
  2  1  1  6
  3  2  1  0
  4  5  1  1
  4  6  1  0
  6  7  2  0
  8  6  1  0
  8  9  1  0
  9 16  1  0
  9 10  1  6
 10 11  1  0
 11 12  2  0
 12 13  1  0
 14 13  1  0
 15 11  1  0
 15 14  2  0
 16 17  2  0
 18 19  1  0
 18 16  1  0
 19 23  1  0
 20 21  1  0
 19 20  1  1
 21 22  2  0
 23 24  2  0
 23 26  1  0
 25 21  1  0
M  END
$$$$
