VHD.pdb
     RDKit          3D

 26 26  0  0  1  0  0  0  0  0999 V2000
    9.5924  -20.6474   20.0190 C   0  0  0  0  0  0  0  0  0  0  0  0
   10.0997  -20.0309   18.7464 C   0  0  1  0  0  0  0  0  0  0  0  0
    9.6653  -20.8867   17.5873 C   0  0  0  0  0  0  0  0  0  0  0  0
    9.5145  -18.6484   18.5806 C   0  0  2  0  0  0  0  0  0  0  0  0
    9.8107  -18.0675   17.3062 N   0  0  0  0  0  0  0  0  0  0  0  0
   10.0055  -17.7426   19.6484 C   0  0  0  0  0  0  0  0  0  0  0  0
   11.1765  -17.2619   19.6090 O   0  0  0  0  0  0  0  0  0  0  0  0
    9.1685  -17.3972   20.7375 N   0  0  0  0  0  0  0  0  0  0  0  0
    9.5965  -16.3912   21.7543 C   0  0  1  0  0  0  0  0  0  0  0  0
    8.5084  -15.4262   21.9611 C   0  0  0  0  0  0  0  0  0  0  0  0
    8.2980  -14.4518   20.8769 C   0  0  0  0  0  0  0  0  0  0  0  0
    9.0912  -14.2084   19.7621 C   0  0  0  0  0  0  0  0  0  0  0  0
    8.5496  -13.2043   19.0522 N   0  0  0  0  0  0  0  0  0  0  0  0
    7.4313  -12.7935   19.6765 C   0  0  0  0  0  0  0  0  0  0  0  0
    7.2857  -13.5390   20.7620 N   0  0  0  0  0  0  0  0  0  0  0  0
   10.1638  -17.1354   22.8444 C   0  0  0  0  0  0  0  0  0  0  0  0
    9.4541  -18.0775   23.3671 O   0  0  0  0  0  0  0  0  0  0  0  0
   11.4470  -16.9888   23.4566 N   0  0  0  0  0  0  0  0  0  0  0  0
   11.8679  -17.9002   24.5300 C   0  0  1  0  0  0  0  0  0  0  0  0
   13.3728  -17.8620   24.6680 C   0  0  0  0  0  0  0  0  0  0  0  0
   14.0651  -18.3250   23.4528 C   0  0  0  0  0  0  0  0  0  0  0  0
   13.5550  -19.2614   22.7375 O   0  0  0  0  0  0  0  0  0  0  0  0
   11.2441  -17.4451   25.7849 C   0  0  0  0  0  0  0  0  0  0  0  0
   10.5285  -16.4278   25.8039 O   0  0  0  0  0  0  0  0  0  0  0  0
   15.2740  -17.8313   22.9780 O   0  0  0  0  0  0  0  0  0  0  0  0
   11.4419  -18.1346   26.9498 O   0  0  0  0  0  0  0  0  0  0  0  0
  2  4  1  0
  2  1  1  1
  3  2  1  0
  4  5  1  6
  4  6  1  0
  6  7  2  0
  8  6  1  0
  8  9  1  0
  9 16  1  0
  9 10  1  1
 10 11  1  0
 11 12  2  0
 12 13  1  0
 14 13  1  0
 15 11  1  0
 15 14  2  0
 16 17  2  0
 18 19  1  0
 18 16  1  0
 19 23  1  0
 20 21  1  0
 19 20  1  1
 21 22  2  0
 23 24  2  0
 23 26  1  0
 25 21  1  0
M  END
$$$$
