VHD.pdb
     RDKit          3D

 26 26  0  0  1  0  0  0  0  0999 V2000
    8.4721  -13.3503   21.7817 C   0  0  0  0  0  0  0  0  0  0  0  0
    7.6351  -13.9496   20.6875 C   0  0  1  0  0  0  0  0  0  0  0  0
    7.0756  -12.8376   19.8420 C   0  0  0  0  0  0  0  0  0  0  0  0
    8.4917  -14.8409   19.8198 C   0  0  2  0  0  0  0  0  0  0  0  0
    7.7875  -15.3567   18.6852 N   0  0  0  0  0  0  0  0  0  0  0  0
    9.0301  -15.9761   20.6093 C   0  0  0  0  0  0  0  0  0  0  0  0
    8.3631  -17.0423   20.7575 O   0  0  0  0  0  0  0  0  0  0  0  0
   10.3072  -15.8871   21.2150 N   0  0  0  0  0  0  0  0  0  0  0  0
   10.8864  -17.0358   21.9729 C   0  0  1  0  0  0  0  0  0  0  0  0
   12.3072  -17.1717   21.6251 C   0  0  0  0  0  0  0  0  0  0  0  0
   12.5977  -17.9043   20.3809 C   0  0  0  0  0  0  0  0  0  0  0  0
   11.9251  -18.9916   19.8362 C   0  0  0  0  0  0  0  0  0  0  0  0
   12.5525  -19.3735   18.7111 N   0  0  0  0  0  0  0  0  0  0  0  0
   13.6092  -18.5649   18.5147 C   0  0  0  0  0  0  0  0  0  0  0  0
   13.6319  -17.6920   19.5112 N   0  0  0  0  0  0  0  0  0  0  0  0
   10.4531  -16.8808   23.3339 C   0  0  0  0  0  0  0  0  0  0  0  0
   10.7511  -15.7825   23.9417 O   0  0  0  0  0  0  0  0  0  0  0  0
    9.7077  -17.7912   24.1453 N   0  0  0  0  0  0  0  0  0  0  0  0
    9.4266  -17.4750   25.5527 C   0  0  1  0  0  0  0  0  0  0  0  0
    8.1945  -18.2246   26.0058 C   0  0  0  0  0  0  0  0  0  0  0  0
    6.9600  -17.7125   25.3861 C   0  0  0  0  0  0  0  0  0  0  0  0
    6.9954  -16.6574   24.6551 O   0  0  0  0  0  0  0  0  0  0  0  0
   10.5871  -17.8992   26.3556 C   0  0  0  0  0  0  0  0  0  0  0  0
   11.4150  -18.7055   25.8953 O   0  0  0  0  0  0  0  0  0  0  0  0
    5.6983  -18.2789   25.5190 O   0  0  0  0  0  0  0  0  0  0  0  0
   10.7728  -17.4126   27.6206 O   0  0  0  0  0  0  0  0  0  0  0  0
  2  4  1  0
  2  1  1  1
  3  2  1  0
  4  5  1  6
  4  6  1  0
  6  7  2  0
  8  6  1  0
  8  9  1  0
  9 16  1  0
  9 10  1  1
 10 11  1  0
 11 12  2  0
 12 13  1  0
 14 13  1  0
 15 11  1  0
 15 14  2  0
 16 17  2  0
 18 19  1  0
 18 16  1  0
 19 23  1  0
 20 21  1  0
 19 20  1  1
 21 22  2  0
 23 24  2  0
 23 26  1  0
 25 21  1  0
M  END
$$$$
