VHD.pdb
     RDKit          3D

 26 26  0  0  1  0  0  0  0  0999 V2000
    9.2503  -12.8789   20.3762 C   0  0  0  0  0  0  0  0  0  0  0  0
    8.2213  -13.3010   19.3663 C   0  0  1  0  0  0  0  0  0  0  0  0
    7.3004  -12.1411   19.0998 C   0  0  0  0  0  0  0  0  0  0  0  0
    8.9028  -13.6916   18.0762 C   0  0  2  0  0  0  0  0  0  0  0  0
    7.9776  -13.9741   17.0210 N   0  0  0  0  0  0  0  0  0  0  0  0
    9.7729  -14.8755   18.2835 C   0  0  0  0  0  0  0  0  0  0  0  0
    9.5715  -15.9526   17.6486 O   0  0  0  0  0  0  0  0  0  0  0  0
   10.8509  -14.8220   19.2006 N   0  0  0  0  0  0  0  0  0  0  0  0
   12.0322  -15.7244   19.0603 C   0  0  1  0  0  0  0  0  0  0  0  0
   12.4669  -15.7299   17.6571 C   0  0  0  0  0  0  0  0  0  0  0  0
   13.5495  -16.6708   17.3227 C   0  0  0  0  0  0  0  0  0  0  0  0
   13.7759  -17.9473   17.8232 C   0  0  0  0  0  0  0  0  0  0  0  0
   14.9013  -18.4370   17.2763 N   0  0  0  0  0  0  0  0  0  0  0  0
   15.4066  -17.5141   16.4385 C   0  0  0  0  0  0  0  0  0  0  0  0
   14.5985  -16.4647   16.4695 N   0  0  0  0  0  0  0  0  0  0  0  0
   12.9302  -15.3824   20.1283 C   0  0  0  0  0  0  0  0  0  0  0  0
   13.3461  -14.1633   20.2013 O   0  0  0  0  0  0  0  0  0  0  0  0
   13.4473  -16.2187   21.1656 N   0  0  0  0  0  0  0  0  0  0  0  0
   14.2850  -15.6508   22.2313 C   0  0  1  0  0  0  0  0  0  0  0  0
   14.1154  -16.4601   23.4967 C   0  0  0  0  0  0  0  0  0  0  0  0
   12.7244  -16.4680   23.9821 C   0  0  0  0  0  0  0  0  0  0  0  0
   11.8691  -15.6399   23.5009 O   0  0  0  0  0  0  0  0  0  0  0  0
   15.6891  -15.7125   21.7888 C   0  0  0  0  0  0  0  0  0  0  0  0
   15.9910  -16.2615   20.7142 O   0  0  0  0  0  0  0  0  0  0  0  0
   12.2172  -17.3185   24.9567 O   0  0  0  0  0  0  0  0  0  0  0  0
   16.6838  -15.1666   22.5531 O   0  0  0  0  0  0  0  0  0  0  0  0
  2  4  1  0
  2  1  1  1
  3  2  1  0
  4  5  1  6
  4  6  1  0
  6  7  2  0
  8  6  1  0
  8  9  1  0
  9 16  1  0
  9 10  1  6
 10 11  1  0
 11 12  2  0
 12 13  1  0
 14 13  1  0
 15 11  1  0
 15 14  2  0
 16 17  2  0
 18 19  1  0
 18 16  1  0
 19 23  1  0
 20 21  1  0
 19 20  1  1
 21 22  2  0
 23 24  2  0
 23 26  1  0
 25 21  1  0
M  END
$$$$
