SWQ.pdb
     RDKit          3D

 30 31  0  0  1  0  0  0  0  0999 V2000
    8.6446  -17.5170   19.8265 O   0  0  0  0  0  0  0  0  0  0  0  0
    7.4283  -17.3412   20.5003 C   0  0  0  0  0  0  0  0  0  0  0  0
    7.3306  -15.8525   20.8218 C   0  0  2  0  0  0  0  0  0  0  0  0
    7.3741  -15.0794   19.6200 N   0  0  0  0  0  0  0  0  0  0  0  0
    8.4143  -15.4685   21.7916 C   0  0  0  0  0  0  0  0  0  0  0  0
    9.3926  -14.7734   21.4352 O   0  0  0  0  0  0  0  0  0  0  0  0
    8.3115  -15.9089   23.1278 N   0  0  0  0  0  0  0  0  0  0  0  0
    9.2800  -15.6190   24.1520 C   0  0  1  0  0  0  0  0  0  0  0  0
    8.6014  -15.9118   25.4976 C   0  0  0  0  0  0  0  0  0  0  0  0
    7.5079  -14.9785   25.7875 C   0  0  0  0  0  0  0  0  0  0  0  0
    6.1596  -15.2481   25.8831 C   0  0  0  0  0  0  0  0  0  0  0  0
    5.4917  -14.1079   26.1653 N   0  0  0  0  0  0  0  0  0  0  0  0
    6.3648  -13.0868   26.2594 C   0  0  0  0  0  0  0  0  0  0  0  0
    6.2156  -11.7432   26.5234 C   0  0  0  0  0  0  0  0  0  0  0  0
    7.2953  -10.8769   26.5669 C   0  0  0  0  0  0  0  0  0  0  0  0
    8.5395  -11.4045   26.3355 C   0  0  0  0  0  0  0  0  0  0  0  0
    8.6976  -12.7570   26.0690 C   0  0  0  0  0  0  0  0  0  0  0  0
    7.6257  -13.6254   26.0243 C   0  0  0  0  0  0  0  0  0  0  0  0
   10.3926  -16.5931   24.0459 C   0  0  0  0  0  0  0  0  0  0  0  0
   10.1036  -17.7602   23.6529 O   0  0  0  0  0  0  0  0  0  0  0  0
   15.2724  -15.6000   20.4747 N   0  0  0  0  0  0  0  0  0  0  0  0
   15.0115  -15.4374   21.8387 C   0  0  0  0  0  0  0  0  0  0  0  0
   15.8472  -14.8877   22.5877 O   0  0  0  0  0  0  0  0  0  0  0  0
   13.7298  -15.9102   22.4607 C   0  0  0  0  0  0  0  0  0  0  0  0
   13.9897  -16.8085   23.6182 C   0  0  0  0  0  0  0  0  0  0  0  0
   12.7376  -17.3379   24.2230 C   0  0  2  0  0  0  0  0  0  0  0  0
   11.7318  -16.2729   24.3602 N   0  0  0  0  0  0  0  0  0  0  0  0
   12.9896  -17.9123   25.5618 C   0  0  0  0  0  0  0  0  0  0  0  0
   13.7874  -18.8390   25.8160 O   0  0  0  0  0  0  0  0  0  0  0  0
   12.2998  -17.4131   26.6916 O   0  0  0  0  0  0  0  0  0  0  0  0
  2  1  1  0
  3  2  1  0
  3  4  1  6
  5  3  1  0
  5  6  2  0
  7  5  1  0
  8  7  1  0
  9 10  1  0
  8  9  1  1
 10 18  1  0
 11 10  2  0
 11 12  1  0
 12 13  1  0
 13 14  1  0
 14 15  2  0
 16 15  1  0
 17 16  2  0
 18 13  2  0
 18 17  1  0
 19  8  1  0
 19 27  1  0
 20 19  2  0
 21 22  1  0
 22 23  2  0
 22 24  1  0
 24 25  1  0
 26 25  1  1
 26 27  1  0
 26 28  1  0
 28 29  2  0
 28 30  1  0
M  END
$$$$
