SWQ.pdb
     RDKit          3D

 30 31  0  0  1  0  0  0  0  0999 V2000
   11.4599  -18.2714   19.6282 O   0  0  0  0  0  0  0  0  0  0  0  0
   10.1286  -18.0215   19.2680 C   0  0  0  0  0  0  0  0  0  0  0  0
    9.9945  -16.5052   19.1578 C   0  0  2  0  0  0  0  0  0  0  0  0
   11.0263  -15.9731   18.3236 N   0  0  0  0  0  0  0  0  0  0  0  0
    9.9932  -15.8927   20.5316 C   0  0  0  0  0  0  0  0  0  0  0  0
   11.0038  -15.3115   20.9878 O   0  0  0  0  0  0  0  0  0  0  0  0
    8.8204  -15.9837   21.3101 N   0  0  0  0  0  0  0  0  0  0  0  0
    8.7125  -15.5189   22.6678 C   0  0  1  0  0  0  0  0  0  0  0  0
    7.2133  -15.4189   22.9829 C   0  0  0  0  0  0  0  0  0  0  0  0
    6.9585  -15.0469   24.3784 C   0  0  0  0  0  0  0  0  0  0  0  0
    6.6082  -15.8672   25.4292 C   0  0  0  0  0  0  0  0  0  0  0  0
    6.4671  -15.1266   26.5506 N   0  0  0  0  0  0  0  0  0  0  0  0
    6.7156  -13.8331   26.2693 C   0  0  0  0  0  0  0  0  0  0  0  0
    6.7120  -12.6871   27.0335 C   0  0  0  0  0  0  0  0  0  0  0  0
    7.0093  -11.4445   26.4989 C   0  0  0  0  0  0  0  0  0  0  0  0
    7.3127  -11.3867   25.1630 C   0  0  0  0  0  0  0  0  0  0  0  0
    7.3184  -12.5369   24.3869 C   0  0  0  0  0  0  0  0  0  0  0  0
    7.0231  -13.7780   24.9137 C   0  0  0  0  0  0  0  0  0  0  0  0
    9.2418  -16.5660   23.5741 C   0  0  0  0  0  0  0  0  0  0  0  0
    9.2380  -17.7565   23.1464 O   0  0  0  0  0  0  0  0  0  0  0  0
   15.7413  -17.8677   24.7206 N   0  0  0  0  0  0  0  0  0  0  0  0
   14.5411  -17.1921   24.4794 C   0  0  0  0  0  0  0  0  0  0  0  0
   14.4832  -16.2759   23.6316 O   0  0  0  0  0  0  0  0  0  0  0  0
   13.2798  -17.5317   25.2190 C   0  0  0  0  0  0  0  0  0  0  0  0
   12.1103  -16.8039   24.6560 C   0  0  0  0  0  0  0  0  0  0  0  0
   10.8425  -17.1237   25.3661 C   0  0  2  0  0  0  0  0  0  0  0  0
    9.7384  -16.2892   24.8670 N   0  0  0  0  0  0  0  0  0  0  0  0
   10.9716  -16.8990   26.8217 C   0  0  0  0  0  0  0  0  0  0  0  0
   10.3739  -16.0193   27.4765 O   0  0  0  0  0  0  0  0  0  0  0  0
   11.8292  -17.7166   27.5946 O   0  0  0  0  0  0  0  0  0  0  0  0
  2  1  1  0
  3  2  1  0
  3  4  1  6
  5  3  1  0
  5  6  2  0
  7  5  1  0
  8  7  1  0
  9 10  1  0
  8  9  1  1
 10 18  1  0
 11 10  2  0
 11 12  1  0
 12 13  1  0
 13 14  1  0
 14 15  2  0
 16 15  1  0
 17 16  2  0
 18 13  2  0
 18 17  1  0
 19  8  1  0
 19 27  1  0
 20 19  2  0
 21 22  1  0
 22 23  2  0
 22 24  1  0
 24 25  1  0
 26 25  1  6
 26 27  1  0
 26 28  1  0
 28 29  2  0
 28 30  1  0
M  END
$$$$
