SWQ.pdb
     RDKit          3D

 30 31  0  0  1  0  0  0  0  0999 V2000
    8.3289  -17.4670   19.6237 O   0  0  0  0  0  0  0  0  0  0  0  0
    7.1434  -17.5778   20.3631 C   0  0  0  0  0  0  0  0  0  0  0  0
    6.8008  -16.1668   20.8332 C   0  0  2  0  0  0  0  0  0  0  0  0
    6.4587  -15.3397   19.7184 N   0  0  0  0  0  0  0  0  0  0  0  0
    7.9425  -15.6060   21.6359 C   0  0  0  0  0  0  0  0  0  0  0  0
    8.6902  -14.7150   21.1726 O   0  0  0  0  0  0  0  0  0  0  0  0
    8.1625  -16.1051   22.9367 N   0  0  0  0  0  0  0  0  0  0  0  0
    9.1898  -15.6270   23.8239 C   0  0  1  0  0  0  0  0  0  0  0  0
    8.6881  -15.8720   25.2539 C   0  0  0  0  0  0  0  0  0  0  0  0
    7.5671  -14.9966   25.6113 C   0  0  0  0  0  0  0  0  0  0  0  0
    6.2337  -15.3243   25.7301 C   0  0  0  0  0  0  0  0  0  0  0  0
    5.5293  -14.2247   26.0776 N   0  0  0  0  0  0  0  0  0  0  0  0
    6.3639  -13.1739   26.1927 C   0  0  0  0  0  0  0  0  0  0  0  0
    6.1692  -11.8496   26.5174 C   0  0  0  0  0  0  0  0  0  0  0  0
    7.2149  -10.9428   26.5699 C   0  0  0  0  0  0  0  0  0  0  0  0
    8.4720  -11.4096   26.2842 C   0  0  0  0  0  0  0  0  0  0  0  0
    8.6758  -12.7424   25.9564 C   0  0  0  0  0  0  0  0  0  0  0  0
    7.6381  -13.6508   25.9024 C   0  0  0  0  0  0  0  0  0  0  0  0
   10.3900  -16.4837   23.6697 C   0  0  0  0  0  0  0  0  0  0  0  0
   10.2327  -17.7304   23.8147 O   0  0  0  0  0  0  0  0  0  0  0  0
   15.2181  -15.8661   19.3878 N   0  0  0  0  0  0  0  0  0  0  0  0
   14.5665  -15.1630   20.4057 C   0  0  0  0  0  0  0  0  0  0  0  0
   14.9183  -14.0022   20.7063 O   0  0  0  0  0  0  0  0  0  0  0  0
   13.4268  -15.7625   21.1768 C   0  0  0  0  0  0  0  0  0  0  0  0
   13.8950  -16.3606   22.4564 C   0  0  0  0  0  0  0  0  0  0  0  0
   12.7814  -16.9304   23.2620 C   0  0  2  0  0  0  0  0  0  0  0  0
   11.6721  -15.9704   23.3738 N   0  0  0  0  0  0  0  0  0  0  0  0
   13.2306  -17.2800   24.6265 C   0  0  0  0  0  0  0  0  0  0  0  0
   12.8129  -16.7623   25.6836 O   0  0  0  0  0  0  0  0  0  0  0  0
   14.2150  -18.2779   24.8177 O   0  0  0  0  0  0  0  0  0  0  0  0
  2  1  1  0
  3  2  1  0
  3  4  1  6
  5  3  1  0
  5  6  2  0
  7  5  1  0
  8  7  1  0
  9 10  1  0
  8  9  1  1
 10 18  1  0
 11 10  2  0
 11 12  1  0
 12 13  1  0
 13 14  1  0
 14 15  2  0
 16 15  1  0
 17 16  2  0
 18 13  2  0
 18 17  1  0
 19  8  1  0
 19 27  1  0
 20 19  2  0
 21 22  1  0
 22 23  2  0
 22 24  1  0
 24 25  1  0
 26 25  1  6
 26 27  1  0
 26 28  1  0
 28 29  2  0
 28 30  1  0
M  END
$$$$
