SWQ.pdb
     RDKit          3D

 30 31  0  0  1  0  0  0  0  0999 V2000
    7.5198  -20.5754   21.3992 O   0  0  0  0  0  0  0  0  0  0  0  0
    6.5274  -19.6778   20.9822 C   0  0  0  0  0  0  0  0  0  0  0  0
    7.2586  -18.4287   20.4983 C   0  0  2  0  0  0  0  0  0  0  0  0
    8.0498  -18.7295   19.3462 N   0  0  0  0  0  0  0  0  0  0  0  0
    8.0751  -17.8493   21.6208 C   0  0  0  0  0  0  0  0  0  0  0  0
    9.2870  -18.1312   21.7591 O   0  0  0  0  0  0  0  0  0  0  0  0
    7.4472  -16.9714   22.5290 N   0  0  0  0  0  0  0  0  0  0  0  0
    8.1327  -16.2716   23.5832 C   0  0  1  0  0  0  0  0  0  0  0  0
    7.1761  -15.1805   24.0844 C   0  0  0  0  0  0  0  0  0  0  0  0
    7.7312  -14.4245   25.2118 C   0  0  0  0  0  0  0  0  0  0  0  0
    8.9462  -14.5977   25.8388 C   0  0  0  0  0  0  0  0  0  0  0  0
    9.0723  -13.6921   26.8337 N   0  0  0  0  0  0  0  0  0  0  0  0
    7.9692  -12.9210   26.8823 C   0  0  0  0  0  0  0  0  0  0  0  0
    7.5906  -11.8710   27.6894 C   0  0  0  0  0  0  0  0  0  0  0  0
    6.3746  -11.2259   27.5365 C   0  0  0  0  0  0  0  0  0  0  0  0
    5.5434  -11.6704   26.5408 C   0  0  0  0  0  0  0  0  0  0  0  0
    5.9179  -12.7275   25.7239 C   0  0  0  0  0  0  0  0  0  0  0  0
    7.1282  -13.3744   25.8711 C   0  0  0  0  0  0  0  0  0  0  0  0
    8.3183  -17.1960   24.7273 C   0  0  0  0  0  0  0  0  0  0  0  0
    7.2913  -17.7957   25.1584 O   0  0  0  0  0  0  0  0  0  0  0  0
   13.3524  -18.9412   23.6730 N   0  0  0  0  0  0  0  0  0  0  0  0
   12.8673  -19.5426   24.8383 C   0  0  0  0  0  0  0  0  0  0  0  0
   13.1113  -20.7428   25.0867 O   0  0  0  0  0  0  0  0  0  0  0  0
   12.0400  -18.7837   25.8347 C   0  0  0  0  0  0  0  0  0  0  0  0
   10.7264  -19.4449   26.0620 C   0  0  0  0  0  0  0  0  0  0  0  0
    9.6432  -18.4725   26.3704 C   0  0  2  0  0  0  0  0  0  0  0  0
    9.5704  -17.4259   25.3390 N   0  0  0  0  0  0  0  0  0  0  0  0
    9.8650  -17.8195   27.6782 C   0  0  0  0  0  0  0  0  0  0  0  0
   10.0576  -16.5985   27.8568 O   0  0  0  0  0  0  0  0  0  0  0  0
    9.8710  -18.5885   28.8656 O   0  0  0  0  0  0  0  0  0  0  0  0
  2  1  1  0
  3  2  1  0
  3  4  1  6
  5  3  1  0
  5  6  2  0
  7  5  1  0
  8  7  1  0
  9 10  1  0
  8  9  1  1
 10 18  1  0
 11 10  2  0
 11 12  1  0
 12 13  1  0
 13 14  1  0
 14 15  2  0
 16 15  1  0
 17 16  2  0
 18 13  2  0
 18 17  1  0
 19  8  1  0
 19 27  1  0
 20 19  2  0
 21 22  1  0
 22 23  2  0
 22 24  1  0
 24 25  1  0
 26 25  1  6
 26 27  1  0
 26 28  1  0
 28 29  2  0
 28 30  1  0
M  END
$$$$
