SWQ.pdb
     RDKit          3D

 30 31  0  0  1  0  0  0  0  0999 V2000
    8.0845  -19.4860   20.0359 O   0  0  0  0  0  0  0  0  0  0  0  0
    8.6347  -18.2322   19.7366 C   0  0  0  0  0  0  0  0  0  0  0  0
    7.7921  -17.2063   20.4895 C   0  0  2  0  0  0  0  0  0  0  0  0
    7.1541  -16.3153   19.5712 N   0  0  0  0  0  0  0  0  0  0  0  0
    8.6473  -16.4820   21.4926 C   0  0  0  0  0  0  0  0  0  0  0  0
    9.4477  -15.5857   21.1415 O   0  0  0  0  0  0  0  0  0  0  0  0
    8.5335  -16.8319   22.8544 N   0  0  0  0  0  0  0  0  0  0  0  0
    9.3224  -16.2500   23.9080 C   0  0  1  0  0  0  0  0  0  0  0  0
    8.5608  -16.4962   25.2180 C   0  0  0  0  0  0  0  0  0  0  0  0
    7.4866  -15.5211   25.4323 C   0  0  0  0  0  0  0  0  0  0  0  0
    6.1250  -15.7341   25.4115 C   0  0  0  0  0  0  0  0  0  0  0  0
    5.4837  -14.5703   25.6569 N   0  0  0  0  0  0  0  0  0  0  0  0
    6.3875  -13.5888   25.8403 C   0  0  0  0  0  0  0  0  0  0  0  0
    6.2726  -12.2437   26.1139 C   0  0  0  0  0  0  0  0  0  0  0  0
    7.3800  -11.4250   26.2613 C   0  0  0  0  0  0  0  0  0  0  0  0
    8.6162  -12.0021   26.1246 C   0  0  0  0  0  0  0  0  0  0  0  0
    8.7397  -13.3564   25.8491 C   0  0  0  0  0  0  0  0  0  0  0  0
    7.6402  -14.1775   25.7011 C   0  0  0  0  0  0  0  0  0  0  0  0
   10.5880  -17.0121   24.0329 C   0  0  0  0  0  0  0  0  0  0  0  0
   10.5410  -18.2535   23.7947 O   0  0  0  0  0  0  0  0  0  0  0  0
   16.6706  -16.3408   22.0898 N   0  0  0  0  0  0  0  0  0  0  0  0
   16.1097  -17.4234   22.7742 C   0  0  0  0  0  0  0  0  0  0  0  0
   16.1174  -18.5685   22.2739 O   0  0  0  0  0  0  0  0  0  0  0  0
   15.4788  -17.2630   24.1268 C   0  0  0  0  0  0  0  0  0  0  0  0
   14.2252  -16.4651   24.0475 C   0  0  0  0  0  0  0  0  0  0  0  0
   13.0165  -17.2654   24.3831 C   0  0  2  0  0  0  0  0  0  0  0  0
   11.8150  -16.4164   24.3995 N   0  0  0  0  0  0  0  0  0  0  0  0
   13.1488  -17.9066   25.7087 C   0  0  0  0  0  0  0  0  0  0  0  0
   12.4846  -17.6157   26.7256 O   0  0  0  0  0  0  0  0  0  0  0  0
   14.0899  -18.9442   25.9065 O   0  0  0  0  0  0  0  0  0  0  0  0
  2  1  1  0
  3  2  1  0
  3  4  1  6
  5  3  1  0
  5  6  2  0
  7  5  1  0
  8  7  1  0
  9 10  1  0
  8  9  1  1
 10 18  1  0
 11 10  2  0
 11 12  1  0
 12 13  1  0
 13 14  1  0
 14 15  2  0
 16 15  1  0
 17 16  2  0
 18 13  2  0
 18 17  1  0
 19  8  1  0
 19 27  1  0
 20 19  2  0
 21 22  1  0
 22 23  2  0
 22 24  1  0
 24 25  1  0
 26 25  1  1
 26 27  1  0
 26 28  1  0
 28 29  2  0
 28 30  1  0
M  END
$$$$
