SWQ.pdb
     RDKit          3D

 30 31  0  0  1  0  0  0  0  0999 V2000
   10.3919  -18.4148   19.1110 O   0  0  0  0  0  0  0  0  0  0  0  0
    9.0639  -17.9729   19.0365 C   0  0  0  0  0  0  0  0  0  0  0  0
    9.1268  -16.4530   18.9134 C   0  0  2  0  0  0  0  0  0  0  0  0
   10.1437  -16.0702   17.9843 N   0  0  0  0  0  0  0  0  0  0  0  0
    9.3292  -15.8398   20.2718 C   0  0  0  0  0  0  0  0  0  0  0  0
   10.4503  -15.4195   20.6375 O   0  0  0  0  0  0  0  0  0  0  0  0
    8.2222  -15.7434   21.1407 N   0  0  0  0  0  0  0  0  0  0  0  0
    8.3159  -15.4043   22.5361 C   0  0  1  0  0  0  0  0  0  0  0  0
    6.8791  -15.3382   23.0725 C   0  0  0  0  0  0  0  0  0  0  0  0
    6.8306  -15.0367   24.5068 C   0  0  0  0  0  0  0  0  0  0  0  0
    6.7380  -15.9196   25.5611 C   0  0  0  0  0  0  0  0  0  0  0  0
    6.7216  -15.2317   26.7240 N   0  0  0  0  0  0  0  0  0  0  0  0
    6.8013  -13.9121   26.4670 C   0  0  0  0  0  0  0  0  0  0  0  0
    6.8231  -12.7964   27.2745 C   0  0  0  0  0  0  0  0  0  0  0  0
    6.9126  -11.5147   26.7574 C   0  0  0  0  0  0  0  0  0  0  0  0
    6.9801  -11.3858   25.3940 C   0  0  0  0  0  0  0  0  0  0  0  0
    6.9586  -12.5051   24.5742 C   0  0  0  0  0  0  0  0  0  0  0  0
    6.8696  -13.7848   25.0834 C   0  0  0  0  0  0  0  0  0  0  0  0
    8.9600  -16.5279   23.2578 C   0  0  0  0  0  0  0  0  0  0  0  0
    8.9572  -17.6577   22.6888 O   0  0  0  0  0  0  0  0  0  0  0  0
   13.9779  -16.7468   22.0744 N   0  0  0  0  0  0  0  0  0  0  0  0
   14.2239  -17.3116   23.3296 C   0  0  0  0  0  0  0  0  0  0  0  0
   15.3900  -17.5733   23.6947 O   0  0  0  0  0  0  0  0  0  0  0  0
   13.1115  -17.6267   24.2869 C   0  0  0  0  0  0  0  0  0  0  0  0
   11.8560  -16.9238   23.9071 C   0  0  0  0  0  0  0  0  0  0  0  0
   10.7280  -17.2320   24.8272 C   0  0  2  0  0  0  0  0  0  0  0  0
    9.5623  -16.3860   24.5274 N   0  0  0  0  0  0  0  0  0  0  0  0
   11.1106  -17.0105   26.2380 C   0  0  0  0  0  0  0  0  0  0  0  0
   10.6665  -16.1074   26.9776 O   0  0  0  0  0  0  0  0  0  0  0  0
   12.0553  -17.8596   26.8608 O   0  0  0  0  0  0  0  0  0  0  0  0
  2  1  1  0
  3  2  1  0
  3  4  1  6
  5  3  1  0
  5  6  2  0
  7  5  1  0
  8  7  1  0
  9 10  1  0
  8  9  1  1
 10 18  1  0
 11 10  2  0
 11 12  1  0
 12 13  1  0
 13 14  1  0
 14 15  2  0
 16 15  1  0
 17 16  2  0
 18 13  2  0
 18 17  1  0
 19  8  1  0
 19 27  1  0
 20 19  2  0
 21 22  1  0
 22 23  2  0
 22 24  1  0
 24 25  1  0
 26 25  1  6
 26 27  1  0
 26 28  1  0
 28 29  2  0
 28 30  1  0
M  END
$$$$
