SWQ.pdb
     RDKit          3D

 30 31  0  0  1  0  0  0  0  0999 V2000
    9.2290  -16.1156   18.4775 O   0  0  0  0  0  0  0  0  0  0  0  0
    7.8951  -15.7727   18.2177 C   0  0  0  0  0  0  0  0  0  0  0  0
    7.7059  -14.3579   18.7578 C   0  0  2  0  0  0  0  0  0  0  0  0
    8.2405  -13.3993   17.8417 N   0  0  0  0  0  0  0  0  0  0  0  0
    8.3194  -14.2489   20.1268 C   0  0  0  0  0  0  0  0  0  0  0  0
    9.4733  -13.7917   20.2901 O   0  0  0  0  0  0  0  0  0  0  0  0
    7.5656  -14.6753   21.2402 N   0  0  0  0  0  0  0  0  0  0  0  0
    8.0435  -14.6526   22.5974 C   0  0  1  0  0  0  0  0  0  0  0  0
    6.8233  -14.8844   23.4997 C   0  0  0  0  0  0  0  0  0  0  0  0
    7.1492  -14.7608   24.9242 C   0  0  0  0  0  0  0  0  0  0  0  0
    7.5358  -15.7526   25.7997 C   0  0  0  0  0  0  0  0  0  0  0  0
    7.7410  -15.2177   27.0235 N   0  0  0  0  0  0  0  0  0  0  0  0
    7.4998  -13.8933   26.9815 C   0  0  0  0  0  0  0  0  0  0  0  0
    7.5576  -12.8965   27.9303 C   0  0  0  0  0  0  0  0  0  0  0  0
    7.2552  -11.5781   27.6326 C   0  0  0  0  0  0  0  0  0  0  0  0
    6.8900  -11.2884   26.3431 C   0  0  0  0  0  0  0  0  0  0  0  0
    6.8297  -12.2873   25.3820 C   0  0  0  0  0  0  0  0  0  0  0  0
    7.1298  -13.6028   25.6724 C   0  0  0  0  0  0  0  0  0  0  0  0
    8.9267  -15.8241   22.8118 C   0  0  0  0  0  0  0  0  0  0  0  0
    8.5428  -16.9319   22.3371 O   0  0  0  0  0  0  0  0  0  0  0  0
   14.6074  -16.7062   21.4246 N   0  0  0  0  0  0  0  0  0  0  0  0
   14.3288  -15.7372   22.3933 C   0  0  0  0  0  0  0  0  0  0  0  0
   15.1103  -14.7807   22.5831 O   0  0  0  0  0  0  0  0  0  0  0  0
   13.0919  -15.7994   23.2414 C   0  0  0  0  0  0  0  0  0  0  0  0
   12.1826  -16.8884   22.7922 C   0  0  0  0  0  0  0  0  0  0  0  0
   10.9497  -16.9811   23.6201 C   0  0  2  0  0  0  0  0  0  0  0  0
   10.1520  -15.7497   23.5103 N   0  0  0  0  0  0  0  0  0  0  0  0
   11.2760  -17.1960   25.0460 C   0  0  0  0  0  0  0  0  0  0  0  0
   10.9662  -16.4329   25.9849 O   0  0  0  0  0  0  0  0  0  0  0  0
   11.9988  -18.3447   25.4453 O   0  0  0  0  0  0  0  0  0  0  0  0
  2  1  1  0
  3  2  1  0
  3  4  1  6
  5  3  1  0
  5  6  2  0
  7  5  1  0
  8  7  1  0
  9 10  1  0
  8  9  1  1
 10 18  1  0
 11 10  2  0
 11 12  1  0
 12 13  1  0
 13 14  1  0
 14 15  2  0
 16 15  1  0
 17 16  2  0
 18 13  2  0
 18 17  1  0
 19  8  1  0
 19 27  1  0
 20 19  2  0
 21 22  1  0
 22 23  2  0
 22 24  1  0
 24 25  1  0
 26 25  1  6
 26 27  1  0
 26 28  1  0
 28 29  2  0
 28 30  1  0
M  END
$$$$
