SWQ.pdb
     RDKit          3D

 30 31  0  0  1  0  0  0  0  0999 V2000
    9.8534  -20.6728   19.5544 O   0  0  0  0  0  0  0  0  0  0  0  0
    9.5612  -19.8263   20.6326 C   0  0  0  0  0  0  0  0  0  0  0  0
    9.2836  -18.4511   20.0316 C   0  0  2  0  0  0  0  0  0  0  0  0
   10.0667  -18.2559   18.8515 N   0  0  0  0  0  0  0  0  0  0  0  0
    9.5260  -17.3852   21.0648 C   0  0  0  0  0  0  0  0  0  0  0  0
   10.5317  -16.6416   21.0117 O   0  0  0  0  0  0  0  0  0  0  0  0
    8.5908  -17.2330   22.1098 N   0  0  0  0  0  0  0  0  0  0  0  0
    8.7519  -16.3238   23.2137 C   0  0  1  0  0  0  0  0  0  0  0  0
    7.3444  -16.0238   23.7482 C   0  0  0  0  0  0  0  0  0  0  0  0
    7.2090  -14.6431   24.2236 C   0  0  0  0  0  0  0  0  0  0  0  0
    6.8240  -13.5292   23.5092 C   0  0  0  0  0  0  0  0  0  0  0  0
    6.8288  -12.4496   24.3218 N   0  0  0  0  0  0  0  0  0  0  0  0
    7.2081  -12.8203   25.5597 C   0  0  0  0  0  0  0  0  0  0  0  0
    7.3761  -12.1279   26.7386 C   0  0  0  0  0  0  0  0  0  0  0  0
    7.7842  -12.7506   27.9065 C   0  0  0  0  0  0  0  0  0  0  0  0
    8.0203  -14.1002   27.8548 C   0  0  0  0  0  0  0  0  0  0  0  0
    7.8531  -14.8043   26.6709 C   0  0  0  0  0  0  0  0  0  0  0  0
    7.4467  -14.1896   25.5038 C   0  0  0  0  0  0  0  0  0  0  0  0
    9.4546  -17.0279   24.3130 C   0  0  0  0  0  0  0  0  0  0  0  0
    9.2084  -18.2598   24.4609 O   0  0  0  0  0  0  0  0  0  0  0  0
   14.5499  -18.5649   24.1364 N   0  0  0  0  0  0  0  0  0  0  0  0
   14.2773  -18.8133   25.4851 C   0  0  0  0  0  0  0  0  0  0  0  0
   14.5361  -19.9246   25.9948 O   0  0  0  0  0  0  0  0  0  0  0  0
   13.6681  -17.7688   26.3744 C   0  0  0  0  0  0  0  0  0  0  0  0
   12.7030  -16.9181   25.6265 C   0  0  0  0  0  0  0  0  0  0  0  0
   11.2870  -17.2400   25.9507 C   0  0  2  0  0  0  0  0  0  0  0  0
   10.3672  -16.3882   25.1806 N   0  0  0  0  0  0  0  0  0  0  0  0
   11.0075  -17.0416   27.3889 C   0  0  0  0  0  0  0  0  0  0  0  0
   11.5828  -17.6300   28.3284 O   0  0  0  0  0  0  0  0  0  0  0  0
   10.0156  -16.1207   27.8006 O   0  0  0  0  0  0  0  0  0  0  0  0
  2  1  1  0
  3  2  1  0
  3  4  1  6
  5  3  1  0
  5  6  2  0
  7  5  1  0
  8  7  1  0
  9 10  1  0
  8  9  1  1
 10 18  1  0
 11 10  2  0
 11 12  1  0
 12 13  1  0
 13 14  1  0
 14 15  2  0
 16 15  1  0
 17 16  2  0
 18 13  2  0
 18 17  1  0
 19  8  1  0
 19 27  1  0
 20 19  2  0
 21 22  1  0
 22 23  2  0
 22 24  1  0
 24 25  1  0
 26 25  1  1
 26 27  1  0
 26 28  1  0
 28 29  2  0
 28 30  1  0
M  END
$$$$
