SWQ.pdb
     RDKit          3D

 30 31  0  0  1  0  0  0  0  0999 V2000
    7.1118  -17.3691   19.1324 O   0  0  0  0  0  0  0  0  0  0  0  0
    8.0972  -16.7921   19.9451 C   0  0  0  0  0  0  0  0  0  0  0  0
    7.3894  -15.7344   20.7873 C   0  0  2  0  0  0  0  0  0  0  0  0
    7.0170  -14.6182   19.9754 N   0  0  0  0  0  0  0  0  0  0  0  0
    8.2632  -15.3366   21.9452 C   0  0  0  0  0  0  0  0  0  0  0  0
    8.9603  -14.2974   21.9097 O   0  0  0  0  0  0  0  0  0  0  0  0
    8.2866  -16.1628   23.0883 N   0  0  0  0  0  0  0  0  0  0  0  0
    9.0813  -15.9015   24.2593 C   0  0  1  0  0  0  0  0  0  0  0  0
    8.1735  -16.1453   25.4730 C   0  0  0  0  0  0  0  0  0  0  0  0
    7.1869  -15.0761   25.6575 C   0  0  0  0  0  0  0  0  0  0  0  0
    5.8181  -15.1444   25.5116 C   0  0  0  0  0  0  0  0  0  0  0  0
    5.2766  -13.9345   25.7742 N   0  0  0  0  0  0  0  0  0  0  0  0
    6.2539  -13.0638   26.0914 C   0  0  0  0  0  0  0  0  0  0  0  0
    6.2497  -11.7303   26.4366 C   0  0  0  0  0  0  0  0  0  0  0  0
    7.4157  -11.0406   26.7247 C   0  0  0  0  0  0  0  0  0  0  0  0
    8.5956  -11.7356   26.6552 C   0  0  0  0  0  0  0  0  0  0  0  0
    8.6076  -13.0790   26.3082 C   0  0  0  0  0  0  0  0  0  0  0  0
    7.4492  -13.7719   26.0200 C   0  0  0  0  0  0  0  0  0  0  0  0
   10.1503  -16.9250   24.3485 C   0  0  0  0  0  0  0  0  0  0  0  0
    9.8127  -18.1306   24.1677 O   0  0  0  0  0  0  0  0  0  0  0  0
   15.9686  -15.5999   23.7475 N   0  0  0  0  0  0  0  0  0  0  0  0
   14.8948  -15.6513   22.8535 C   0  0  0  0  0  0  0  0  0  0  0  0
   14.7974  -14.8217   21.9240 O   0  0  0  0  0  0  0  0  0  0  0  0
   13.8205  -16.6936   22.9666 C   0  0  0  0  0  0  0  0  0  0  0  0
   13.8117  -17.3163   24.3181 C   0  0  0  0  0  0  0  0  0  0  0  0
   12.4481  -17.7279   24.7485 C   0  0  2  0  0  0  0  0  0  0  0  0
   11.4998  -16.6102   24.6216 N   0  0  0  0  0  0  0  0  0  0  0  0
   12.4439  -18.1814   26.1557 C   0  0  0  0  0  0  0  0  0  0  0  0
   11.7783  -17.6711   27.0811 O   0  0  0  0  0  0  0  0  0  0  0  0
   13.2403  -19.2817   26.5511 O   0  0  0  0  0  0  0  0  0  0  0  0
  2  1  1  0
  3  2  1  0
  3  4  1  6
  5  3  1  0
  5  6  2  0
  7  5  1  0
  8  7  1  0
  9 10  1  0
  8  9  1  1
 10 18  1  0
 11 10  2  0
 11 12  1  0
 12 13  1  0
 13 14  1  0
 14 15  2  0
 16 15  1  0
 17 16  2  0
 18 13  2  0
 18 17  1  0
 19  8  1  0
 19 27  1  0
 20 19  2  0
 21 22  1  0
 22 23  2  0
 22 24  1  0
 24 25  1  0
 26 25  1  1
 26 27  1  0
 26 28  1  0
 28 29  2  0
 28 30  1  0
M  END
$$$$
