SWQ.pdb
     RDKit          3D

 30 31  0  0  1  0  0  0  0  0999 V2000
    8.6293  -17.6338   19.4292 O   0  0  0  0  0  0  0  0  0  0  0  0
    7.6469  -17.8226   20.4107 C   0  0  0  0  0  0  0  0  0  0  0  0
    7.1592  -16.4296   20.7991 C   0  0  2  0  0  0  0  0  0  0  0  0
    6.8658  -15.6606   19.6301 N   0  0  0  0  0  0  0  0  0  0  0  0
    8.1752  -15.7628   21.6854 C   0  0  0  0  0  0  0  0  0  0  0  0
    8.9015  -14.8351   21.2623 O   0  0  0  0  0  0  0  0  0  0  0  0
    8.3003  -16.2039   23.0194 N   0  0  0  0  0  0  0  0  0  0  0  0
    9.2743  -15.6989   23.9506 C   0  0  1  0  0  0  0  0  0  0  0  0
    8.7244  -15.9728   25.3575 C   0  0  0  0  0  0  0  0  0  0  0  0
    7.5633  -15.1359   25.6771 C   0  0  0  0  0  0  0  0  0  0  0  0
    6.2342  -15.4988   25.7113 C   0  0  0  0  0  0  0  0  0  0  0  0
    5.4838  -14.4276   26.0511 N   0  0  0  0  0  0  0  0  0  0  0  0
    6.2835  -13.3612   26.2435 C   0  0  0  0  0  0  0  0  0  0  0  0
    6.0374  -12.0525   26.5955 C   0  0  0  0  0  0  0  0  0  0  0  0
    7.0549  -11.1230   26.7331 C   0  0  0  0  0  0  0  0  0  0  0  0
    8.3375  -11.5506   26.5048 C   0  0  0  0  0  0  0  0  0  0  0  0
    8.5932  -12.8674   26.1499 C   0  0  0  0  0  0  0  0  0  0  0  0
    7.5836  -13.7983   26.0111 C   0  0  0  0  0  0  0  0  0  0  0  0
   10.5082  -16.5132   23.8389 C   0  0  0  0  0  0  0  0  0  0  0  0
   10.3658  -17.7530   23.6323 O   0  0  0  0  0  0  0  0  0  0  0  0
   15.5197  -13.9847   21.6529 N   0  0  0  0  0  0  0  0  0  0  0  0
   15.2658  -15.2585   21.1353 C   0  0  0  0  0  0  0  0  0  0  0  0
   15.9691  -15.7253   20.2138 O   0  0  0  0  0  0  0  0  0  0  0  0
   14.1490  -16.1157   21.6560 C   0  0  0  0  0  0  0  0  0  0  0  0
   14.1006  -16.0958   23.1432 C   0  0  0  0  0  0  0  0  0  0  0  0
   12.9457  -16.8600   23.6875 C   0  0  2  0  0  0  0  0  0  0  0  0
   11.8061  -15.9678   23.9522 N   0  0  0  0  0  0  0  0  0  0  0  0
   13.3016  -17.5436   24.9491 C   0  0  0  0  0  0  0  0  0  0  0  0
   14.2018  -18.3990   25.0827 O   0  0  0  0  0  0  0  0  0  0  0  0
   12.5999  -17.2475   26.1413 O   0  0  0  0  0  0  0  0  0  0  0  0
  2  1  1  0
  3  2  1  0
  3  4  1  6
  5  3  1  0
  5  6  2  0
  7  5  1  0
  8  7  1  0
  9 10  1  0
  8  9  1  1
 10 18  1  0
 11 10  2  0
 11 12  1  0
 12 13  1  0
 13 14  1  0
 14 15  2  0
 16 15  1  0
 17 16  2  0
 18 13  2  0
 18 17  1  0
 19  8  1  0
 19 27  1  0
 20 19  2  0
 21 22  1  0
 22 23  2  0
 22 24  1  0
 24 25  1  0
 26 25  1  1
 26 27  1  0
 26 28  1  0
 28 29  2  0
 28 30  1  0
M  END
$$$$
