SWQ.pdb
     RDKit          3D

 30 31  0  0  1  0  0  0  0  0999 V2000
    9.2894  -16.2617   18.2967 O   0  0  0  0  0  0  0  0  0  0  0  0
    7.9102  -16.0161   18.2518 C   0  0  0  0  0  0  0  0  0  0  0  0
    7.7129  -14.5962   18.7752 C   0  0  2  0  0  0  0  0  0  0  0  0
    8.2849  -13.6480   17.8709 N   0  0  0  0  0  0  0  0  0  0  0  0
    8.2807  -14.4813   20.1633 C   0  0  0  0  0  0  0  0  0  0  0  0
    9.3865  -13.9331   20.3726 O   0  0  0  0  0  0  0  0  0  0  0  0
    7.5391  -15.0076   21.2416 N   0  0  0  0  0  0  0  0  0  0  0  0
    7.9188  -14.8792   22.6238 C   0  0  1  0  0  0  0  0  0  0  0  0
    6.6533  -15.1327   23.4552 C   0  0  0  0  0  0  0  0  0  0  0  0
    6.8738  -14.9184   24.8891 C   0  0  0  0  0  0  0  0  0  0  0  0
    7.0400  -15.8650   25.8770 C   0  0  0  0  0  0  0  0  0  0  0  0
    7.2171  -15.2480   27.0661 N   0  0  0  0  0  0  0  0  0  0  0  0
    7.1725  -13.9134   26.8913 C   0  0  0  0  0  0  0  0  0  0  0  0
    7.2932  -12.8473   27.7550 C   0  0  0  0  0  0  0  0  0  0  0  0
    7.2087  -11.5347   27.3211 C   0  0  0  0  0  0  0  0  0  0  0  0
    6.9975  -11.3231   25.9830 C   0  0  0  0  0  0  0  0  0  0  0  0
    6.8749  -12.3920   25.1069 C   0  0  0  0  0  0  0  0  0  0  0  0
    6.9582  -13.7022   25.5331 C   0  0  0  0  0  0  0  0  0  0  0  0
    8.8493  -15.9812   22.9672 C   0  0  0  0  0  0  0  0  0  0  0  0
    8.7022  -17.0754   22.3499 O   0  0  0  0  0  0  0  0  0  0  0  0
   13.5667  -17.1587   20.9513 N   0  0  0  0  0  0  0  0  0  0  0  0
   14.0694  -17.5350   22.2006 C   0  0  0  0  0  0  0  0  0  0  0  0
   15.2608  -17.8898   22.3291 O   0  0  0  0  0  0  0  0  0  0  0  0
   13.2116  -17.5306   23.4324 C   0  0  0  0  0  0  0  0  0  0  0  0
   12.1448  -16.4969   23.3446 C   0  0  0  0  0  0  0  0  0  0  0  0
   10.8802  -16.9238   24.0023 C   0  0  2  0  0  0  0  0  0  0  0  0
    9.8697  -15.8565   23.9357 N   0  0  0  0  0  0  0  0  0  0  0  0
   11.1029  -17.2627   25.4240 C   0  0  0  0  0  0  0  0  0  0  0  0
   10.6780  -16.6111   26.4011 O   0  0  0  0  0  0  0  0  0  0  0  0
   11.8532  -18.4102   25.7729 O   0  0  0  0  0  0  0  0  0  0  0  0
  2  1  1  0
  3  2  1  0
  3  4  1  6
  5  3  1  0
  5  6  2  0
  7  5  1  0
  8  7  1  0
  9 10  1  0
  8  9  1  1
 10 18  1  0
 11 10  2  0
 11 12  1  0
 12 13  1  0
 13 14  1  0
 14 15  2  0
 16 15  1  0
 17 16  2  0
 18 13  2  0
 18 17  1  0
 19  8  1  0
 19 27  1  0
 20 19  2  0
 21 22  1  0
 22 23  2  0
 22 24  1  0
 24 25  1  0
 26 25  1  1
 26 27  1  0
 26 28  1  0
 28 29  2  0
 28 30  1  0
M  END
$$$$
