SWQ.pdb
     RDKit          3D

 30 31  0  0  1  0  0  0  0  0999 V2000
   10.8630  -18.9264   19.8519 O   0  0  0  0  0  0  0  0  0  0  0  0
    9.7219  -18.4613   19.1841 C   0  0  0  0  0  0  0  0  0  0  0  0
    9.8631  -16.9437   19.1055 C   0  0  2  0  0  0  0  0  0  0  0  0
   10.9901  -16.5892   18.3005 N   0  0  0  0  0  0  0  0  0  0  0  0
    9.9434  -16.3671   20.4924 C   0  0  0  0  0  0  0  0  0  0  0  0
   11.0427  -16.0710   21.0132 O   0  0  0  0  0  0  0  0  0  0  0  0
    8.7456  -16.1616   21.2085 N   0  0  0  0  0  0  0  0  0  0  0  0
    8.6852  -15.6780   22.5625 C   0  0  1  0  0  0  0  0  0  0  0  0
    7.2229  -15.2948   22.8303 C   0  0  0  0  0  0  0  0  0  0  0  0
    6.9819  -14.9556   24.2365 C   0  0  0  0  0  0  0  0  0  0  0  0
    6.4893  -15.7659   25.2367 C   0  0  0  0  0  0  0  0  0  0  0  0
    6.4206  -15.0655   26.3903 N   0  0  0  0  0  0  0  0  0  0  0  0
    6.8561  -13.8086   26.1798 C   0  0  0  0  0  0  0  0  0  0  0  0
    6.9908  -12.7103   27.0001 C   0  0  0  0  0  0  0  0  0  0  0  0
    7.4750  -11.4989   26.5352 C   0  0  0  0  0  0  0  0  0  0  0  0
    7.8227  -11.4227   25.2111 C   0  0  0  0  0  0  0  0  0  0  0  0
    7.6898  -12.5249   24.3787 C   0  0  0  0  0  0  0  0  0  0  0  0
    7.2080  -13.7347   24.8360 C   0  0  0  0  0  0  0  0  0  0  0  0
    8.9785  -16.8018   23.4840 C   0  0  0  0  0  0  0  0  0  0  0  0
    8.6333  -17.9601   23.1111 O   0  0  0  0  0  0  0  0  0  0  0  0
   13.0057  -20.1028   23.5913 N   0  0  0  0  0  0  0  0  0  0  0  0
   13.1210  -18.7101   23.6374 C   0  0  0  0  0  0  0  0  0  0  0  0
   14.0746  -18.1292   23.0763 O   0  0  0  0  0  0  0  0  0  0  0  0
   12.1162  -17.8566   24.3551 C   0  0  0  0  0  0  0  0  0  0  0  0
   10.9542  -18.6628   24.8178 C   0  0  0  0  0  0  0  0  0  0  0  0
    9.9271  -17.8392   25.5110 C   0  0  2  0  0  0  0  0  0  0  0  0
    9.6142  -16.6299   24.7335 N   0  0  0  0  0  0  0  0  0  0  0  0
   10.3900  -17.4211   26.8515 C   0  0  0  0  0  0  0  0  0  0  0  0
   10.7531  -18.1894   27.7667 O   0  0  0  0  0  0  0  0  0  0  0  0
   10.4493  -16.0482   27.1876 O   0  0  0  0  0  0  0  0  0  0  0  0
  2  1  1  0
  3  2  1  0
  3  4  1  6
  5  3  1  0
  5  6  2  0
  7  5  1  0
  8  7  1  0
  9 10  1  0
  8  9  1  1
 10 18  1  0
 11 10  2  0
 11 12  1  0
 12 13  1  0
 13 14  1  0
 14 15  2  0
 16 15  1  0
 17 16  2  0
 18 13  2  0
 18 17  1  0
 19  8  1  0
 19 27  1  0
 20 19  2  0
 21 22  1  0
 22 23  2  0
 22 24  1  0
 24 25  1  0
 26 25  1  6
 26 27  1  0
 26 28  1  0
 28 29  2  0
 28 30  1  0
M  END
$$$$
