SWQ.pdb
     RDKit          3D

 30 31  0  0  1  0  0  0  0  0999 V2000
    8.9310  -16.3619   19.4544 O   0  0  0  0  0  0  0  0  0  0  0  0
    7.7265  -16.7531   20.0549 C   0  0  0  0  0  0  0  0  0  0  0  0
    7.2737  -15.5728   20.9100 C   0  0  2  0  0  0  0  0  0  0  0  0
    6.9714  -14.4460   20.0837 N   0  0  0  0  0  0  0  0  0  0  0  0
    8.3201  -15.2622   21.9448 C   0  0  0  0  0  0  0  0  0  0  0  0
    9.1956  -14.3898   21.7460 O   0  0  0  0  0  0  0  0  0  0  0  0
    8.3010  -15.9782   23.1601 N   0  0  0  0  0  0  0  0  0  0  0  0
    9.2061  -15.7406   24.2534 C   0  0  1  0  0  0  0  0  0  0  0  0
    8.3990  -15.9325   25.5451 C   0  0  0  0  0  0  0  0  0  0  0  0
    7.3072  -14.9616   25.6721 C   0  0  0  0  0  0  0  0  0  0  0  0
    5.9594  -15.1623   25.4655 C   0  0  0  0  0  0  0  0  0  0  0  0
    5.2931  -14.0082   25.6888 N   0  0  0  0  0  0  0  0  0  0  0  0
    6.1670  -13.0451   26.0390 C   0  0  0  0  0  0  0  0  0  0  0  0
    6.0194  -11.7156   26.3675 C   0  0  0  0  0  0  0  0  0  0  0  0
    7.0995  -10.9147   26.6994 C   0  0  0  0  0  0  0  0  0  0  0  0
    8.3424  -11.4935   26.6914 C   0  0  0  0  0  0  0  0  0  0  0  0
    8.4989  -12.8322   26.3617 C   0  0  0  0  0  0  0  0  0  0  0  0
    7.4266  -13.6355   26.0301 C   0  0  0  0  0  0  0  0  0  0  0  0
   10.2339  -16.8091   24.2626 C   0  0  0  0  0  0  0  0  0  0  0  0
    9.8706  -17.9637   23.8952 O   0  0  0  0  0  0  0  0  0  0  0  0
   15.9112  -16.9622   22.2468 N   0  0  0  0  0  0  0  0  0  0  0  0
   15.4169  -15.9550   23.0813 C   0  0  0  0  0  0  0  0  0  0  0  0
   15.8851  -14.7975   23.0317 O   0  0  0  0  0  0  0  0  0  0  0  0
   14.3130  -16.2138   24.0649 C   0  0  0  0  0  0  0  0  0  0  0  0
   13.6557  -17.5239   23.8078 C   0  0  0  0  0  0  0  0  0  0  0  0
   12.4743  -17.7518   24.6830 C   0  0  2  0  0  0  0  0  0  0  0  0
   11.5721  -16.5899   24.6574 N   0  0  0  0  0  0  0  0  0  0  0  0
   12.8825  -17.9904   26.0838 C   0  0  0  0  0  0  0  0  0  0  0  0
   12.5667  -17.2823   27.0629 O   0  0  0  0  0  0  0  0  0  0  0  0
   13.7003  -19.0984   26.4078 O   0  0  0  0  0  0  0  0  0  0  0  0
  2  1  1  0
  3  2  1  0
  3  4  1  6
  5  3  1  0
  5  6  2  0
  7  5  1  0
  8  7  1  0
  9 10  1  0
  8  9  1  1
 10 18  1  0
 11 10  2  0
 11 12  1  0
 12 13  1  0
 13 14  1  0
 14 15  2  0
 16 15  1  0
 17 16  2  0
 18 13  2  0
 18 17  1  0
 19  8  1  0
 19 27  1  0
 20 19  2  0
 21 22  1  0
 22 23  2  0
 22 24  1  0
 24 25  1  0
 26 25  1  6
 26 27  1  0
 26 28  1  0
 28 29  2  0
 28 30  1  0
M  END
$$$$
