SWQ.pdb
     RDKit          3D

 30 31  0  0  1  0  0  0  0  0999 V2000
    6.0919  -17.9506   20.3712 O   0  0  0  0  0  0  0  0  0  0  0  0
    7.4530  -17.7589   20.0973 C   0  0  0  0  0  0  0  0  0  0  0  0
    7.6433  -16.2557   19.9144 C   0  0  2  0  0  0  0  0  0  0  0  0
    7.7683  -15.9346   18.5269 N   0  0  0  0  0  0  0  0  0  0  0  0
    8.8246  -15.7899   20.7207 C   0  0  0  0  0  0  0  0  0  0  0  0
    9.9284  -15.5490   20.1815 O   0  0  0  0  0  0  0  0  0  0  0  0
    8.6691  -15.6260   22.1131 N   0  0  0  0  0  0  0  0  0  0  0  0
    9.7611  -15.4531   23.0343 C   0  0  1  0  0  0  0  0  0  0  0  0
    9.4566  -14.1875   23.8481 C   0  0  0  0  0  0  0  0  0  0  0  0
    8.2045  -14.2961   24.6039 C   0  0  0  0  0  0  0  0  0  0  0  0
    7.4007  -15.4036   24.7677 C   0  0  0  0  0  0  0  0  0  0  0  0
    6.3388  -15.0790   25.5377 N   0  0  0  0  0  0  0  0  0  0  0  0
    6.4183  -13.7814   25.8894 C   0  0  0  0  0  0  0  0  0  0  0  0
    5.6137  -12.9624   26.6505 C   0  0  0  0  0  0  0  0  0  0  0  0
    5.9186  -11.6295   26.8712 C   0  0  0  0  0  0  0  0  0  0  0  0
    7.0649  -11.1397   26.3001 C   0  0  0  0  0  0  0  0  0  0  0  0
    7.8803  -11.9588   25.5323 C   0  0  0  0  0  0  0  0  0  0  0  0
    7.5820  -13.2877   25.3087 C   0  0  0  0  0  0  0  0  0  0  0  0
    9.7432  -16.5690   24.0102 C   0  0  0  0  0  0  0  0  0  0  0  0
    8.6143  -17.0493   24.3184 O   0  0  0  0  0  0  0  0  0  0  0  0
   13.2149  -20.9496   22.4906 N   0  0  0  0  0  0  0  0  0  0  0  0
   13.4560  -20.1753   23.6296 C   0  0  0  0  0  0  0  0  0  0  0  0
   14.4222  -20.4280   24.3808 O   0  0  0  0  0  0  0  0  0  0  0  0
   12.5757  -19.0172   23.9997 C   0  0  0  0  0  0  0  0  0  0  0  0
   11.5758  -19.4060   25.0309 C   0  0  0  0  0  0  0  0  0  0  0  0
   10.7596  -18.2532   25.4986 C   0  0  2  0  0  0  0  0  0  0  0  0
   10.9131  -17.1026   24.5946 N   0  0  0  0  0  0  0  0  0  0  0  0
   11.1579  -17.8304   26.8582 C   0  0  0  0  0  0  0  0  0  0  0  0
   11.6168  -16.7101   27.1650 O   0  0  0  0  0  0  0  0  0  0  0  0
   11.0330  -18.7251   27.9468 O   0  0  0  0  0  0  0  0  0  0  0  0
  2  1  1  0
  3  2  1  0
  3  4  1  6
  5  3  1  0
  5  6  2  0
  7  5  1  0
  8  7  1  0
  9 10  1  0
  8  9  1  1
 10 18  1  0
 11 10  2  0
 11 12  1  0
 12 13  1  0
 13 14  1  0
 14 15  2  0
 16 15  1  0
 17 16  2  0
 18 13  2  0
 18 17  1  0
 19  8  1  0
 19 27  1  0
 20 19  2  0
 21 22  1  0
 22 23  2  0
 22 24  1  0
 24 25  1  0
 26 25  1  6
 26 27  1  0
 26 28  1  0
 28 29  2  0
 28 30  1  0
M  END
$$$$
