RAK.pdb
     RDKit          3D

 26 25  0  0  1  0  0  0  0  0999 V2000
    8.2310  -14.2363   17.2270 N   0  0  0  0  0  0  0  0  0  0  0  0
    8.1332  -13.4449   18.3941 C   0  0  0  0  0  0  0  0  0  0  0  0
    7.8217  -12.1723   18.3393 N   0  0  0  0  0  0  0  0  0  0  0  0
    8.3838  -14.0651   19.6481 N   0  0  0  0  0  0  0  0  0  0  0  0
    8.9900  -15.3505   19.7417 C   0  0  0  0  0  0  0  0  0  0  0  0
    8.1322  -16.3626   20.4701 C   0  0  0  0  0  0  0  0  0  0  0  0
    7.8269  -17.4766   19.4817 C   0  0  0  0  0  0  0  0  0  0  0  0
    6.9395  -18.5344   20.1134 C   0  0  2  0  0  0  0  0  0  0  0  0
    5.6097  -18.0608   20.3312 N   0  0  0  0  0  0  0  0  0  0  0  0
    7.5073  -19.0221   21.3884 C   0  0  0  0  0  0  0  0  0  0  0  0
    7.1134  -18.4858   22.4787 O   0  0  0  0  0  0  0  0  0  0  0  0
    7.8041  -11.5866   19.1940 C   0  0  0  0  0  0  0  0  0  0  0  0
    9.8288  -21.8295   22.4041 C   0  0  1  0  0  0  0  0  0  0  0  0
    8.9672  -20.6039   22.6494 N   0  0  0  0  0  0  0  0  0  0  0  0
    8.4626  -20.0572   21.4002 C   0  0  0  0  0  0  0  0  0  0  0  0
    9.7997  -19.5914   23.3355 O   0  0  0  0  0  0  0  0  0  0  0  0
   10.4866  -18.7881   22.6559 N   0  0  0  0  0  0  0  0  0  0  0  0
    9.8234  -19.5280   24.7398 C   0  0  1  0  0  0  0  0  0  0  0  0
   10.6644  -18.4324   25.3784 C   0  0  0  0  0  0  0  0  0  0  0  0
    9.6637  -17.4590   25.8472 C   0  0  0  0  0  0  0  0  0  0  0  0
    9.0747  -16.4033   25.0542 C   0  0  0  0  0  0  0  0  0  0  0  0
    8.0339  -15.4915   25.5764 C   0  0  0  0  0  0  0  0  0  0  0  0
    7.6735  -14.4434   24.4666 N   0  0  0  0  0  0  0  0  0  0  0  0
    6.6772  -13.5398   25.0091 C   0  0  0  0  0  0  0  0  0  0  0  0
   11.4306  -19.1370   26.4447 O   0  0  0  0  0  0  0  0  0  0  0  0
   12.3923  -18.6566   27.0491 O   0  0  0  0  0  0  0  0  0  0  0  0
  1  2  1  0
  2  4  1  0
  3  2  2  0
  5  4  1  0
  5  6  1  0
  6  7  1  0
  7  8  1  0
  8 10  1  0
  8  9  1  1
 10 11  2  0
 13 12  1  1
 13 15  1  0
 14 10  1  0
 14 13  1  0
 15 17  1  0
 15 16  2  0
 17 18  1  0
 18 24  1  0
 18 19  1  1
 20 19  1  0
 21 20  1  0
 22 23  1  0
 22 21  1  0
 24 25  2  0
 24 26  1  0
M  END
$$$$
