RAK.pdb
     RDKit          3D

 26 25  0  0  1  0  0  0  0  0999 V2000
    6.3586  -13.7901   14.9200 N   0  0  0  0  0  0  0  0  0  0  0  0
    7.7361  -13.4738   14.9278 C   0  0  0  0  0  0  0  0  0  0  0  0
    8.4993  -13.6940   13.8844 N   0  0  0  0  0  0  0  0  0  0  0  0
    8.2870  -12.9040   16.1076 N   0  0  0  0  0  0  0  0  0  0  0  0
    7.5348  -12.8000   17.3125 C   0  0  0  0  0  0  0  0  0  0  0  0
    7.2184  -14.1427   17.9356 C   0  0  0  0  0  0  0  0  0  0  0  0
    7.7991  -14.1261   19.3405 C   0  0  0  0  0  0  0  0  0  0  0  0
    9.1759  -14.7656   19.3662 C   0  0  2  0  0  0  0  0  0  0  0  0
    9.4511  -15.4980   18.1711 N   0  0  0  0  0  0  0  0  0  0  0  0
    9.3362  -15.6516   20.5388 C   0  0  0  0  0  0  0  0  0  0  0  0
    8.8003  -15.3054   21.6453 O   0  0  0  0  0  0  0  0  0  0  0  0
    9.4848  -13.3742   13.8630 C   0  0  0  0  0  0  0  0  0  0  0  0
   10.7765  -19.0960   21.1281 C   0  0  2  0  0  0  0  0  0  0  0  0
   10.1481  -17.7811   21.5534 N   0  0  0  0  0  0  0  0  0  0  0  0
   10.0647  -16.8529   20.4374 C   0  0  0  0  0  0  0  0  0  0  0  0
   10.9888  -17.1992   22.6229 O   0  0  0  0  0  0  0  0  0  0  0  0
   12.0119  -16.5368   22.3175 N   0  0  0  0  0  0  0  0  0  0  0  0
   10.6459  -17.3862   23.9734 C   0  0  1  0  0  0  0  0  0  0  0  0
   11.5839  -16.8065   25.0221 C   0  0  0  0  0  0  0  0  0  0  0  0
   10.6702  -16.1883   25.9976 C   0  0  0  0  0  0  0  0  0  0  0  0
   11.0599  -15.5522   27.2361 C   0  0  0  0  0  0  0  0  0  0  0  0
   10.0835  -14.9696   28.1819 C   0  0  0  0  0  0  0  0  0  0  0  0
   10.8570  -14.3864   29.4154 N   0  0  0  0  0  0  0  0  0  0  0  0
    9.8956  -13.7240   30.2759 C   0  0  0  0  0  0  0  0  0  0  0  0
   12.3535  -17.9845   25.5127 O   0  0  0  0  0  0  0  0  0  0  0  0
   11.9386  -19.1458   25.5006 O   0  0  0  0  0  0  0  0  0  0  0  0
  1  2  1  0
  2  4  1  0
  3  2  2  0
  5  4  1  0
  5  6  1  0
  6  7  1  0
  7  8  1  0
  8 10  1  0
  8  9  1  6
 10 11  2  0
 13 12  1  6
 13 15  1  0
 14 10  1  0
 14 13  1  0
 15 17  1  0
 15 16  2  0
 17 18  1  0
 18 24  1  0
 18 19  1  1
 20 19  1  0
 21 20  1  0
 22 23  1  0
 22 21  1  0
 24 25  2  0
 24 26  1  0
M  END
$$$$
