RAK.pdb
     RDKit          3D

 26 25  0  0  1  0  0  0  0  0999 V2000
    6.0013  -19.3998   18.4308 N   0  0  0  0  0  0  0  0  0  0  0  0
    7.3821  -19.2670   18.7021 C   0  0  0  0  0  0  0  0  0  0  0  0
    8.2246  -20.2475   18.4823 N   0  0  0  0  0  0  0  0  0  0  0  0
    7.8469  -18.0306   19.2268 N   0  0  0  0  0  0  0  0  0  0  0  0
    6.9494  -16.9931   19.6093 C   0  0  0  0  0  0  0  0  0  0  0  0
    7.6518  -15.7665   20.1507 C   0  0  0  0  0  0  0  0  0  0  0  0
    6.5809  -14.7160   20.3969 C   0  0  0  0  0  0  0  0  0  0  0  0
    7.1991  -13.4090   20.8604 C   0  0  2  0  0  0  0  0  0  0  0  0
    8.1527  -12.9035   19.9247 N   0  0  0  0  0  0  0  0  0  0  0  0
    7.8354  -13.5550   22.1869 C   0  0  0  0  0  0  0  0  0  0  0  0
    9.0556  -13.9287   22.2427 O   0  0  0  0  0  0  0  0  0  0  0  0
    9.2252  -20.1632   18.7386 C   0  0  0  0  0  0  0  0  0  0  0  0
    6.8106  -12.9120   25.7698 C   0  0  1  0  0  0  0  0  0  0  0  0
    7.7165  -13.4495   24.6765 N   0  0  0  0  0  0  0  0  0  0  0  0
    7.1108  -13.2870   23.3647 C   0  0  0  0  0  0  0  0  0  0  0  0
    7.9492  -14.8862   24.9428 O   0  0  0  0  0  0  0  0  0  0  0  0
    7.0874  -15.7304   24.5915 N   0  0  0  0  0  0  0  0  0  0  0  0
    9.1272  -15.3052   25.5856 C   0  0  1  0  0  0  0  0  0  0  0  0
    9.3053  -16.7981   25.8202 C   0  0  0  0  0  0  0  0  0  0  0  0
   10.4557  -17.1457   24.9691 C   0  0  0  0  0  0  0  0  0  0  0  0
   10.9424  -18.4822   24.7097 C   0  0  0  0  0  0  0  0  0  0  0  0
   12.0958  -18.7598   23.8265 C   0  0  0  0  0  0  0  0  0  0  0  0
   12.3094  -20.3114   23.7426 N   0  0  0  0  0  0  0  0  0  0  0  0
   13.4798  -20.5597   22.9229 C   0  0  0  0  0  0  0  0  0  0  0  0
    9.5297  -16.9112   27.2890 O   0  0  0  0  0  0  0  0  0  0  0  0
    9.8031  -15.9641   28.0301 O   0  0  0  0  0  0  0  0  0  0  0  0
  1  2  1  0
  2  4  1  0
  3  2  2  0
  5  4  1  0
  5  6  1  0
  6  7  1  0
  7  8  1  0
  8 10  1  0
  8  9  1  6
 10 11  2  0
 13 12  1  6
 13 15  1  0
 14 10  1  0
 14 13  1  0
 15 17  1  0
 15 16  2  0
 17 18  1  0
 18 24  1  0
 18 19  1  1
 20 19  1  0
 21 20  1  0
 22 23  1  0
 22 21  1  0
 24 25  2  0
 24 26  1  0
M  END
$$$$
