RAK.pdb
     RDKit          3D

 26 25  0  0  1  0  0  0  0  0999 V2000
    8.2532  -17.9161   15.9115 N   0  0  0  0  0  0  0  0  0  0  0  0
    8.5601  -19.0844   16.6455 C   0  0  0  0  0  0  0  0  0  0  0  0
    8.1977  -20.2741   16.2297 N   0  0  0  0  0  0  0  0  0  0  0  0
    9.2800  -18.9423   17.8626 N   0  0  0  0  0  0  0  0  0  0  0  0
    9.2412  -17.7374   18.6211 C   0  0  0  0  0  0  0  0  0  0  0  0
   10.1459  -17.7671   19.8341 C   0  0  0  0  0  0  0  0  0  0  0  0
    9.9271  -16.4612   20.5811 C   0  0  0  0  0  0  0  0  0  0  0  0
    8.8981  -16.6329   21.6842 C   0  0  2  0  0  0  0  0  0  0  0  0
    7.5609  -16.5896   21.1837 N   0  0  0  0  0  0  0  0  0  0  0  0
    9.0655  -15.6119   22.7403 C   0  0  0  0  0  0  0  0  0  0  0  0
   10.2392  -15.3824   23.1892 O   0  0  0  0  0  0  0  0  0  0  0  0
    8.4031  -21.1233   16.7871 C   0  0  0  0  0  0  0  0  0  0  0  0
    6.8690  -13.0542   24.4270 C   0  0  2  0  0  0  0  0  0  0  0  0
    8.0949  -13.9434   24.3207 N   0  0  0  0  0  0  0  0  0  0  0  0
    7.9536  -14.9067   23.2407 C   0  0  0  0  0  0  0  0  0  0  0  0
    8.2530  -14.6574   25.6069 O   0  0  0  0  0  0  0  0  0  0  0  0
    7.4794  -15.6063   25.8896 N   0  0  0  0  0  0  0  0  0  0  0  0
    9.2622  -14.2766   26.5084 C   0  0  1  0  0  0  0  0  0  0  0  0
    9.4498  -15.1313   27.7534 C   0  0  0  0  0  0  0  0  0  0  0  0
   10.6826  -15.8856   27.4708 C   0  0  0  0  0  0  0  0  0  0  0  0
   11.1591  -17.0343   28.2085 C   0  0  0  0  0  0  0  0  0  0  0  0
   12.4200  -17.7336   27.8796 C   0  0  0  0  0  0  0  0  0  0  0  0
   12.6285  -18.9098   28.8961 N   0  0  0  0  0  0  0  0  0  0  0  0
   13.8700  -19.5796   28.5592 C   0  0  0  0  0  0  0  0  0  0  0  0
    9.5370  -14.1419   28.8641 O   0  0  0  0  0  0  0  0  0  0  0  0
    9.6227  -12.9214   28.7089 O   0  0  0  0  0  0  0  0  0  0  0  0
  1  2  1  0
  2  4  1  0
  3  2  2  0
  5  4  1  0
  5  6  1  0
  6  7  1  0
  7  8  1  0
  8 10  1  0
  8  9  1  6
 10 11  2  0
 13 12  1  6
 13 15  1  0
 14 10  1  0
 14 13  1  0
 15 17  1  0
 15 16  2  0
 17 18  1  0
 18 24  1  0
 18 19  1  1
 20 19  1  0
 21 20  1  0
 22 23  1  0
 22 21  1  0
 24 25  2  0
 24 26  1  0
M  END
$$$$
