RAK.pdb
     RDKit          3D

 26 25  0  0  1  0  0  0  0  0999 V2000
    8.4918  -12.0505   18.3923 N   0  0  0  0  0  0  0  0  0  0  0  0
    8.5903  -13.2046   17.5824 C   0  0  0  0  0  0  0  0  0  0  0  0
    8.7335  -13.1230   16.2814 N   0  0  0  0  0  0  0  0  0  0  0  0
    8.5295  -14.4757   18.2155 N   0  0  0  0  0  0  0  0  0  0  0  0
    8.5039  -14.6072   19.6334 C   0  0  0  0  0  0  0  0  0  0  0  0
    8.3414  -16.0390   20.0965 C   0  0  0  0  0  0  0  0  0  0  0  0
    8.3974  -16.0215   21.6156 C   0  0  0  0  0  0  0  0  0  0  0  0
    8.2750  -17.4260   22.1794 C   0  0  2  0  0  0  0  0  0  0  0  0
    7.0076  -18.0152   21.8847 N   0  0  0  0  0  0  0  0  0  0  0  0
    8.5013  -17.4414   23.6402 C   0  0  0  0  0  0  0  0  0  0  0  0
    7.5869  -16.9845   24.4062 O   0  0  0  0  0  0  0  0  0  0  0  0
    8.9090  -13.9673   15.7066 C   0  0  0  0  0  0  0  0  0  0  0  0
   10.9900  -19.0994   25.9173 C   0  0  1  0  0  0  0  0  0  0  0  0
    9.8761  -18.1148   25.6101 N   0  0  0  0  0  0  0  0  0  0  0  0
    9.7007  -17.9498   24.1762 C   0  0  0  0  0  0  0  0  0  0  0  0
   10.2351  -16.8156   26.2203 O   0  0  0  0  0  0  0  0  0  0  0  0
   10.9738  -16.0171   25.5914 N   0  0  0  0  0  0  0  0  0  0  0  0
    9.7534  -16.4758   27.4966 C   0  0  1  0  0  0  0  0  0  0  0  0
   10.1698  -15.1281   28.0676 C   0  0  0  0  0  0  0  0  0  0  0  0
    8.8926  -14.4134   28.2302 C   0  0  0  0  0  0  0  0  0  0  0  0
    8.2009  -13.6725   27.1992 C   0  0  0  0  0  0  0  0  0  0  0  0
    6.8459  -13.1100   27.3858 C   0  0  0  0  0  0  0  0  0  0  0  0
    6.4116  -12.3827   26.0658 N   0  0  0  0  0  0  0  0  0  0  0  0
    5.0569  -11.8971   26.2456 C   0  0  0  0  0  0  0  0  0  0  0  0
   10.8835  -15.4727   29.3295 O   0  0  0  0  0  0  0  0  0  0  0  0
   10.7771  -16.5490   29.9222 O   0  0  0  0  0  0  0  0  0  0  0  0
  1  2  1  0
  2  4  1  0
  3  2  2  0
  5  4  1  0
  5  6  1  0
  6  7  1  0
  7  8  1  0
  8 10  1  0
  8  9  1  1
 10 11  2  0
 13 12  1  6
 13 15  1  0
 14 10  1  0
 14 13  1  0
 15 17  1  0
 15 16  2  0
 17 18  1  0
 18 24  1  0
 18 19  1  1
 20 19  1  0
 21 20  1  0
 22 23  1  0
 22 21  1  0
 24 25  2  0
 24 26  1  0
M  END
$$$$
