RAK.pdb
     RDKit          3D

 26 25  0  0  1  0  0  0  0  0999 V2000
    2.3678  -18.3930   21.9204 N   0  0  0  0  0  0  0  0  0  0  0  0
    2.4287  -18.8308   20.5778 C   0  0  0  0  0  0  0  0  0  0  0  0
    1.3576  -18.8910   19.8237 N   0  0  0  0  0  0  0  0  0  0  0  0
    3.6935  -19.2113   20.0529 N   0  0  0  0  0  0  0  0  0  0  0  0
    4.8615  -19.2541   20.8669 C   0  0  0  0  0  0  0  0  0  0  0  0
    5.8336  -18.1315   20.5743 C   0  0  0  0  0  0  0  0  0  0  0  0
    5.3593  -16.9197   21.3601 C   0  0  0  0  0  0  0  0  0  0  0  0
    6.2480  -15.7179   21.0931 C   0  0  2  0  0  0  0  0  0  0  0  0
    6.9768  -15.8489   19.8716 N   0  0  0  0  0  0  0  0  0  0  0  0
    7.1888  -15.4854   22.2095 C   0  0  0  0  0  0  0  0  0  0  0  0
    8.3712  -15.9608   22.1226 O   0  0  0  0  0  0  0  0  0  0  0  0
    1.4205  -19.1460   18.8212 C   0  0  0  0  0  0  0  0  0  0  0  0
    7.0751  -13.6194   25.5007 C   0  0  1  0  0  0  0  0  0  0  0  0
    7.7061  -14.5126   24.4477 N   0  0  0  0  0  0  0  0  0  0  0  0
    6.7894  -14.7542   23.3453 C   0  0  0  0  0  0  0  0  0  0  0  0
    8.0595  -15.7969   25.0917 O   0  0  0  0  0  0  0  0  0  0  0  0
    7.3494  -16.8123   24.8831 N   0  0  0  0  0  0  0  0  0  0  0  0
    9.1827  -15.8815   25.9329 C   0  0  1  0  0  0  0  0  0  0  0  0
    9.7967  -17.2573   26.1471 C   0  0  0  0  0  0  0  0  0  0  0  0
   10.5927  -17.4731   24.9271 C   0  0  0  0  0  0  0  0  0  0  0  0
   11.4123  -18.6305   24.6458 C   0  0  0  0  0  0  0  0  0  0  0  0
   12.1998  -18.7741   23.4022 C   0  0  0  0  0  0  0  0  0  0  0  0
   13.0188  -20.1100   23.4711 N   0  0  0  0  0  0  0  0  0  0  0  0
   13.8920  -20.1614   22.3142 C   0  0  0  0  0  0  0  0  0  0  0  0
   10.5743  -17.1158   27.4103 O   0  0  0  0  0  0  0  0  0  0  0  0
   10.9297  -16.0396   27.8965 O   0  0  0  0  0  0  0  0  0  0  0  0
  1  2  1  0
  2  4  1  0
  3  2  2  0
  5  4  1  0
  5  6  1  0
  6  7  1  0
  7  8  1  0
  8 10  1  0
  8  9  1  6
 10 11  2  0
 13 12  1  6
 13 15  1  0
 14 10  1  0
 14 13  1  0
 15 17  1  0
 15 16  2  0
 17 18  1  0
 18 24  1  0
 18 19  1  1
 20 19  1  0
 21 20  1  0
 22 23  1  0
 22 21  1  0
 24 25  2  0
 24 26  1  0
M  END
$$$$
