RAK.pdb
     RDKit          3D

 26 25  0  0  1  0  0  0  0  0999 V2000
    8.8301  -15.2304   15.4918 N   0  0  0  0  0  0  0  0  0  0  0  0
    7.8818  -14.2769   15.9270 C   0  0  0  0  0  0  0  0  0  0  0  0
    8.0261  -12.9979   15.6762 N   0  0  0  0  0  0  0  0  0  0  0  0
    6.7510  -14.7387   16.6537 N   0  0  0  0  0  0  0  0  0  0  0  0
    6.7743  -14.8738   18.0713 C   0  0  0  0  0  0  0  0  0  0  0  0
    8.1488  -15.1957   18.6171 C   0  0  0  0  0  0  0  0  0  0  0  0
    8.0003  -15.3592   20.1212 C   0  0  0  0  0  0  0  0  0  0  0  0
    7.7693  -14.0172   20.7928 C   0  0  2  0  0  0  0  0  0  0  0  0
    8.4469  -12.9552   20.1194 N   0  0  0  0  0  0  0  0  0  0  0  0
    8.1818  -14.0473   22.2122 C   0  0  0  0  0  0  0  0  0  0  0  0
    9.3918  -14.3459   22.4918 O   0  0  0  0  0  0  0  0  0  0  0  0
    7.3447  -12.3014   16.0291 C   0  0  0  0  0  0  0  0  0  0  0  0
    6.5391  -13.2291   25.5203 C   0  0  2  0  0  0  0  0  0  0  0  0
    7.6620  -13.7336   24.6319 N   0  0  0  0  0  0  0  0  0  0  0  0
    7.2592  -13.7524   23.2349 C   0  0  0  0  0  0  0  0  0  0  0  0
    8.0078  -15.1043   25.0686 O   0  0  0  0  0  0  0  0  0  0  0  0
    7.2337  -16.0563   24.7976 N   0  0  0  0  0  0  0  0  0  0  0  0
    9.1951  -15.3412   25.7832 C   0  0  1  0  0  0  0  0  0  0  0  0
    9.4570  -16.7634   26.2567 C   0  0  0  0  0  0  0  0  0  0  0  0
   10.7091  -17.1290   25.5732 C   0  0  0  0  0  0  0  0  0  0  0  0
   10.9919  -18.4030   24.9506 C   0  0  0  0  0  0  0  0  0  0  0  0
   12.2471  -18.6784   24.2187 C   0  0  0  0  0  0  0  0  0  0  0  0
   12.1622  -20.1110   23.5859 N   0  0  0  0  0  0  0  0  0  0  0  0
   13.3170  -20.2916   22.7273 C   0  0  0  0  0  0  0  0  0  0  0  0
    9.5406  -16.6433   27.7397 O   0  0  0  0  0  0  0  0  0  0  0  0
    9.6052  -15.5752   28.3527 O   0  0  0  0  0  0  0  0  0  0  0  0
  1  2  1  0
  2  4  1  0
  3  2  2  0
  5  4  1  0
  5  6  1  0
  6  7  1  0
  7  8  1  0
  8 10  1  0
  8  9  1  6
 10 11  2  0
 13 12  1  6
 13 15  1  0
 14 10  1  0
 14 13  1  0
 15 17  1  0
 15 16  2  0
 17 18  1  0
 18 24  1  0
 18 19  1  1
 20 19  1  0
 21 20  1  0
 22 23  1  0
 22 21  1  0
 24 25  2  0
 24 26  1  0
M  END
$$$$
