RAK.pdb
     RDKit          3D

 26 25  0  0  1  0  0  0  0  0999 V2000
    8.4198  -14.0027   16.9996 N   0  0  0  0  0  0  0  0  0  0  0  0
    7.8948  -14.2780   15.7164 C   0  0  0  0  0  0  0  0  0  0  0  0
    7.1491  -13.4096   15.0765 N   0  0  0  0  0  0  0  0  0  0  0  0
    8.1950  -15.5345   15.1241 N   0  0  0  0  0  0  0  0  0  0  0  0
    8.1856  -16.7417   15.8798 C   0  0  0  0  0  0  0  0  0  0  0  0
    7.7905  -16.5364   17.3264 C   0  0  0  0  0  0  0  0  0  0  0  0
    7.8722  -17.8947   18.0042 C   0  0  0  0  0  0  0  0  0  0  0  0
    7.6094  -17.7741   19.4948 C   0  0  2  0  0  0  0  0  0  0  0  0
    6.2211  -17.6032   19.7839 N   0  0  0  0  0  0  0  0  0  0  0  0
    8.3803  -16.6613   20.0891 C   0  0  0  0  0  0  0  0  0  0  0  0
    9.6377  -16.6031   19.8717 O   0  0  0  0  0  0  0  0  0  0  0  0
    6.7574  -13.6243   14.1414 C   0  0  0  0  0  0  0  0  0  0  0  0
    7.6041  -13.5947   22.1535 C   0  0  2  0  0  0  0  0  0  0  0  0
    8.5053  -14.6909   21.6140 N   0  0  0  0  0  0  0  0  0  0  0  0
    7.7411  -15.6854   20.8785 C   0  0  0  0  0  0  0  0  0  0  0  0
    9.1807  -15.3325   22.7635 O   0  0  0  0  0  0  0  0  0  0  0  0
    8.4930  -15.8118   23.6994 N   0  0  0  0  0  0  0  0  0  0  0  0
   10.5840  -15.4052   22.8094 C   0  0  1  0  0  0  0  0  0  0  0  0
   11.2097  -16.1562   23.9756 C   0  0  0  0  0  0  0  0  0  0  0  0
   10.8264  -17.5566   23.7290 C   0  0  0  0  0  0  0  0  0  0  0  0
   10.9950  -18.6550   24.6540 C   0  0  0  0  0  0  0  0  0  0  0  0
   10.5571  -20.0347   24.3510 C   0  0  0  0  0  0  0  0  0  0  0  0
   10.7594  -20.9236   25.6274 N   0  0  0  0  0  0  0  0  0  0  0  0
   10.1214  -22.2039   25.3886 C   0  0  0  0  0  0  0  0  0  0  0  0
   12.6646  -15.8544   23.8639 O   0  0  0  0  0  0  0  0  0  0  0  0
   13.2186  -15.4496   22.8391 O   0  0  0  0  0  0  0  0  0  0  0  0
  1  2  1  0
  2  4  1  0
  3  2  2  0
  5  4  1  0
  5  6  1  0
  6  7  1  0
  7  8  1  0
  8 10  1  0
  8  9  1  6
 10 11  2  0
 13 12  1  6
 13 15  1  0
 14 10  1  0
 14 13  1  0
 15 17  1  0
 15 16  2  0
 17 18  1  0
 18 24  1  0
 18 19  1  1
 20 19  1  0
 21 20  1  0
 22 23  1  0
 22 21  1  0
 24 25  2  0
 24 26  1  0
M  END
$$$$
