RAK.pdb
     RDKit          3D

 26 25  0  0  1  0  0  0  0  0999 V2000
    8.7195  -12.5448   17.2959 N   0  0  0  0  0  0  0  0  0  0  0  0
    8.3914  -13.8514   16.8682 C   0  0  0  0  0  0  0  0  0  0  0  0
    8.0733  -14.1088   15.6223 N   0  0  0  0  0  0  0  0  0  0  0  0
    8.4125  -14.8974   17.8302 N   0  0  0  0  0  0  0  0  0  0  0  0
    8.6820  -14.6461   19.2060 C   0  0  0  0  0  0  0  0  0  0  0  0
    7.5045  -14.0468   19.9444 C   0  0  0  0  0  0  0  0  0  0  0  0
    7.6484  -14.4458   21.4043 C   0  0  0  0  0  0  0  0  0  0  0  0
    7.8883  -15.9392   21.5376 C   0  0  2  0  0  0  0  0  0  0  0  0
    6.7417  -16.7036   21.1621 N   0  0  0  0  0  0  0  0  0  0  0  0
    8.2953  -16.2984   22.9127 C   0  0  0  0  0  0  0  0  0  0  0  0
    7.4174  -16.2630   23.8399 O   0  0  0  0  0  0  0  0  0  0  0  0
    7.8193  -15.0670   15.3201 C   0  0  0  0  0  0  0  0  0  0  0  0
   11.2811  -18.0006   24.4210 C   0  0  2  0  0  0  0  0  0  0  0  0
   10.0022  -17.1865   24.5007 N   0  0  0  0  0  0  0  0  0  0  0  0
    9.6239  -16.6725   23.1943 C   0  0  0  0  0  0  0  0  0  0  0  0
   10.2365  -16.0594   25.4301 O   0  0  0  0  0  0  0  0  0  0  0  0
   10.8993  -15.0640   25.0446 N   0  0  0  0  0  0  0  0  0  0  0  0
    9.7215  -16.1013   26.7376 C   0  0  1  0  0  0  0  0  0  0  0  0
   10.0285  -14.9233   27.6506 C   0  0  0  0  0  0  0  0  0  0  0  0
    8.7004  -14.3577   27.9416 C   0  0  0  0  0  0  0  0  0  0  0  0
    8.0750  -13.2614   27.2362 C   0  0  0  0  0  0  0  0  0  0  0  0
    6.7376  -12.7378   27.5890 C   0  0  0  0  0  0  0  0  0  0  0  0
    6.4274  -11.4901   26.6906 N   0  0  0  0  0  0  0  0  0  0  0  0
    5.1630  -10.9276   27.1245 C   0  0  0  0  0  0  0  0  0  0  0  0
   10.7386  -15.5360   28.8085 O   0  0  0  0  0  0  0  0  0  0  0  0
   11.2696  -14.8984   29.7209 O   0  0  0  0  0  0  0  0  0  0  0  0
  1  2  1  0
  2  4  1  0
  3  2  2  0
  5  4  1  0
  5  6  1  0
  6  7  1  0
  7  8  1  0
  8 10  1  0
  8  9  1  1
 10 11  2  0
 13 12  1  6
 13 15  1  0
 14 10  1  0
 14 13  1  0
 15 17  1  0
 15 16  2  0
 17 18  1  0
 18 24  1  0
 18 19  1  1
 20 19  1  0
 21 20  1  0
 22 23  1  0
 22 21  1  0
 24 25  2  0
 24 26  1  0
M  END
$$$$
