RAK.pdb
     RDKit          3D

 26 25  0  0  1  0  0  0  0  0999 V2000
    6.6140  -19.5549   17.5451 N   0  0  0  0  0  0  0  0  0  0  0  0
    7.2539  -18.6715   16.6462 C   0  0  0  0  0  0  0  0  0  0  0  0
    6.7295  -18.3748   15.4814 N   0  0  0  0  0  0  0  0  0  0  0  0
    8.4968  -18.1025   17.0353 N   0  0  0  0  0  0  0  0  0  0  0  0
    8.5954  -17.1866   18.1215 C   0  0  0  0  0  0  0  0  0  0  0  0
    7.2490  -16.7525   18.6596 C   0  0  0  0  0  0  0  0  0  0  0  0
    7.5154  -15.6871   19.7108 C   0  0  0  0  0  0  0  0  0  0  0  0
    7.8274  -16.3182   21.0561 C   0  0  2  0  0  0  0  0  0  0  0  0
    6.7136  -17.0413   21.5821 N   0  0  0  0  0  0  0  0  0  0  0  0
    8.2683  -15.3040   22.0372 C   0  0  0  0  0  0  0  0  0  0  0  0
    9.3744  -14.6978   21.8359 O   0  0  0  0  0  0  0  0  0  0  0  0
    7.1916  -17.7051   14.8396 C   0  0  0  0  0  0  0  0  0  0  0  0
    6.7838  -13.5697   25.0263 C   0  0  2  0  0  0  0  0  0  0  0  0
    7.9409  -14.0733   24.1825 N   0  0  0  0  0  0  0  0  0  0  0  0
    7.4841  -15.0121   23.1705 C   0  0  0  0  0  0  0  0  0  0  0  0
    8.9046  -14.7429   25.0836 O   0  0  0  0  0  0  0  0  0  0  0  0
    9.3645  -14.1208   26.0737 N   0  0  0  0  0  0  0  0  0  0  0  0
    9.3046  -16.0673   24.8339 C   0  0  1  0  0  0  0  0  0  0  0  0
   10.3167  -16.6859   25.7871 C   0  0  0  0  0  0  0  0  0  0  0  0
    9.9418  -18.1098   25.8111 C   0  0  0  0  0  0  0  0  0  0  0  0
   10.6906  -19.1917   25.2115 C   0  0  0  0  0  0  0  0  0  0  0  0
   10.2254  -20.5955   25.2262 C   0  0  0  0  0  0  0  0  0  0  0  0
   11.2510  -21.4788   24.4338 N   0  0  0  0  0  0  0  0  0  0  0  0
   10.7665  -22.8457   24.4418 C   0  0  0  0  0  0  0  0  0  0  0  0
   11.6362  -16.3746   25.1686 O   0  0  0  0  0  0  0  0  0  0  0  0
   11.7965  -16.0427   23.9917 O   0  0  0  0  0  0  0  0  0  0  0  0
  1  2  1  0
  2  4  1  0
  3  2  2  0
  5  4  1  0
  5  6  1  0
  6  7  1  0
  7  8  1  0
  8 10  1  0
  8  9  1  1
 10 11  2  0
 13 12  1  6
 13 15  1  0
 14 10  1  0
 14 13  1  0
 15 17  1  0
 15 16  2  0
 17 18  1  0
 18 24  1  0
 18 19  1  6
 20 19  1  0
 21 20  1  0
 22 23  1  0
 22 21  1  0
 24 25  2  0
 24 26  1  0
M  END
$$$$
