RAK.pdb
     RDKit          3D

 26 25  0  0  1  0  0  0  0  0999 V2000
   10.4576  -19.4358   48.1860 N   0  0  0  0  0  0  0  0  0  0  0  0
   10.1823  -20.3908   47.1810 C   0  0  0  0  0  0  0  0  0  0  0  0
   10.1328  -21.6742   47.4453 N   0  0  0  0  0  0  0  0  0  0  0  0
    9.9571  -19.9255   45.8570 N   0  0  0  0  0  0  0  0  0  0  0  0
   10.0614  -18.5460   45.5186 C   0  0  0  0  0  0  0  0  0  0  0  0
    8.8771  -17.7266   45.9843 C   0  0  0  0  0  0  0  0  0  0  0  0
    9.1192  -16.2981   45.5241 C   0  0  0  0  0  0  0  0  0  0  0  0
    7.9445  -15.4057   45.8834 C   0  0  2  0  0  0  0  0  0  0  0  0
    6.7108  -15.9066   45.3663 N   0  0  0  0  0  0  0  0  0  0  0  0
    8.1553  -14.0213   45.4094 C   0  0  0  0  0  0  0  0  0  0  0  0
    8.3446  -13.8237   44.1617 O   0  0  0  0  0  0  0  0  0  0  0  0
    9.9573  -22.3700   46.6976 C   0  0  0  0  0  0  0  0  0  0  0  0
    7.7879  -10.5690   46.8173 C   0  0  1  0  0  0  0  0  0  0  0  0
    8.4059  -11.5826   45.8710 N   0  0  0  0  0  0  0  0  0  0  0  0
    8.1471  -12.9426   46.3152 C   0  0  0  0  0  0  0  0  0  0  0  0
    9.8651  -11.3404   45.8335 O   0  0  0  0  0  0  0  0  0  0  0  0
   10.5914  -11.7790   46.7603 N   0  0  0  0  0  0  0  0  0  0  0  0
   10.4365  -10.6233   44.7678 C   0  0  1  0  0  0  0  0  0  0  0  0
   11.9497  -10.4634   44.7614 C   0  0  0  0  0  0  0  0  0  0  0  0
   12.3283  -10.8227   43.3844 C   0  0  0  0  0  0  0  0  0  0  0  0
   12.5453  -12.1639   42.8896 C   0  0  0  0  0  0  0  0  0  0  0  0
   12.8795  -12.4554   41.4788 C   0  0  0  0  0  0  0  0  0  0  0  0
   12.9925  -14.0088   41.2941 N   0  0  0  0  0  0  0  0  0  0  0  0
   13.3238  -14.2731   39.9071 C   0  0  0  0  0  0  0  0  0  0  0  0
   12.1664   -9.0388   45.1411 O   0  0  0  0  0  0  0  0  0  0  0  0
   13.2725   -8.5051   45.2537 O   0  0  0  0  0  0  0  0  0  0  0  0
  1  2  1  0
  2  4  1  0
  3  2  2  0
  5  4  1  0
  5  6  1  0
  6  7  1  0
  7  8  1  0
  8 10  1  0
  8  9  1  6
 10 11  2  0
 13 12  1  6
 13 15  1  0
 14 10  1  0
 14 13  1  0
 15 17  1  0
 15 16  2  0
 17 18  1  0
 18 24  1  0
 18 19  1  1
 20 19  1  0
 21 20  1  0
 22 23  1  0
 22 21  1  0
 24 25  2  0
 24 26  1  0
M  END
$$$$
