RAK.pdb
     RDKit          3D

 26 25  0  0  1  0  0  0  0  0999 V2000
    8.5948  -14.1506   15.5877 N   0  0  0  0  0  0  0  0  0  0  0  0
    7.8416  -15.3397   15.4581 C   0  0  0  0  0  0  0  0  0  0  0  0
    7.2088  -15.6367   14.3486 N   0  0  0  0  0  0  0  0  0  0  0  0
    7.7819  -16.2207   16.5717 N   0  0  0  0  0  0  0  0  0  0  0  0
    8.4678  -15.9402   17.7880 C   0  0  0  0  0  0  0  0  0  0  0  0
    8.0741  -14.6140   18.4023 C   0  0  0  0  0  0  0  0  0  0  0  0
    8.0341  -14.8186   19.9081 C   0  0  0  0  0  0  0  0  0  0  0  0
    7.7382  -13.5135   20.6254 C   0  0  2  0  0  0  0  0  0  0  0  0
    8.3105  -12.3896   19.9550 N   0  0  0  0  0  0  0  0  0  0  0  0
    8.2114  -13.5494   22.0256 C   0  0  0  0  0  0  0  0  0  0  0  0
    9.4675  -13.6235   22.2455 O   0  0  0  0  0  0  0  0  0  0  0  0
    6.6087  -16.4790   14.2819 C   0  0  0  0  0  0  0  0  0  0  0  0
    6.6685  -13.1159   25.4343 C   0  0  1  0  0  0  0  0  0  0  0  0
    7.7424  -13.5976   24.4753 N   0  0  0  0  0  0  0  0  0  0  0  0
    7.2957  -13.5026   23.0950 C   0  0  0  0  0  0  0  0  0  0  0  0
    8.0473  -15.0077   24.8038 O   0  0  0  0  0  0  0  0  0  0  0  0
    7.3874  -15.9286   24.2605 N   0  0  0  0  0  0  0  0  0  0  0  0
    9.0691  -15.3163   25.7188 C   0  0  1  0  0  0  0  0  0  0  0  0
    9.4263  -16.7840   25.9028 C   0  0  0  0  0  0  0  0  0  0  0  0
   10.6868  -16.9281   25.1552 C   0  0  0  0  0  0  0  0  0  0  0  0
   11.3641  -18.1736   24.8714 C   0  0  0  0  0  0  0  0  0  0  0  0
   12.6510  -18.2410   24.1457 C   0  0  0  0  0  0  0  0  0  0  0  0
   13.1142  -19.7377   24.0712 N   0  0  0  0  0  0  0  0  0  0  0  0
   14.3852  -19.7800   23.3739 C   0  0  0  0  0  0  0  0  0  0  0  0
    9.5274  -16.9513   27.3800 O   0  0  0  0  0  0  0  0  0  0  0  0
    9.6651  -16.0241   28.1814 O   0  0  0  0  0  0  0  0  0  0  0  0
  1  2  1  0
  2  4  1  0
  3  2  2  0
  5  4  1  0
  5  6  1  0
  6  7  1  0
  7  8  1  0
  8 10  1  0
  8  9  1  6
 10 11  2  0
 13 12  1  6
 13 15  1  0
 14 10  1  0
 14 13  1  0
 15 17  1  0
 15 16  2  0
 17 18  1  0
 18 24  1  0
 18 19  1  1
 20 19  1  0
 21 20  1  0
 22 23  1  0
 22 21  1  0
 24 25  2  0
 24 26  1  0
M  END
$$$$
