RAK.pdb
     RDKit          3D

 26 25  0  0  1  0  0  0  0  0999 V2000
    8.3051  -14.5482   17.4843 N   0  0  0  0  0  0  0  0  0  0  0  0
    8.2599  -13.4304   18.3483 C   0  0  0  0  0  0  0  0  0  0  0  0
    8.8326  -12.2934   18.0340 N   0  0  0  0  0  0  0  0  0  0  0  0
    7.5714  -13.5652   19.5842 N   0  0  0  0  0  0  0  0  0  0  0  0
    6.9793  -14.7977   19.9827 C   0  0  0  0  0  0  0  0  0  0  0  0
    7.9915  -15.9005   20.2070 C   0  0  0  0  0  0  0  0  0  0  0  0
    8.7795  -15.5307   21.4534 C   0  0  0  0  0  0  0  0  0  0  0  0
    8.0983  -16.0595   22.7030 C   0  0  2  0  0  0  0  0  0  0  0  0
    6.6752  -15.9703   22.6183 N   0  0  0  0  0  0  0  0  0  0  0  0
    8.5683  -15.3518   23.9129 C   0  0  0  0  0  0  0  0  0  0  0  0
    9.8022  -15.4379   24.2318 O   0  0  0  0  0  0  0  0  0  0  0  0
    8.7315  -11.4566   18.6370 C   0  0  0  0  0  0  0  0  0  0  0  0
    7.0490  -12.9271   26.3808 C   0  0  2  0  0  0  0  0  0  0  0  0
    8.1316  -13.8557   25.8609 N   0  0  0  0  0  0  0  0  0  0  0  0
    7.6737  -14.5978   24.6974 C   0  0  0  0  0  0  0  0  0  0  0  0
    8.4831  -14.7984   26.9458 O   0  0  0  0  0  0  0  0  0  0  0  0
    7.6171  -15.6006   27.3763 N   0  0  0  0  0  0  0  0  0  0  0  0
    9.7782  -14.7970   27.4928 C   0  0  1  0  0  0  0  0  0  0  0  0
   10.0806  -15.8152   28.5825 C   0  0  0  0  0  0  0  0  0  0  0  0
   11.2609  -16.5299   28.0681 C   0  0  0  0  0  0  0  0  0  0  0  0
   11.2518  -17.5503   27.0437 C   0  0  0  0  0  0  0  0  0  0  0  0
   11.7885  -17.3279   25.6836 C   0  0  0  0  0  0  0  0  0  0  0  0
   11.5136  -18.6041   24.8142 N   0  0  0  0  0  0  0  0  0  0  0  0
   12.0342  -18.3609   23.4826 C   0  0  0  0  0  0  0  0  0  0  0  0
   10.3055  -14.9878   29.8012 O   0  0  0  0  0  0  0  0  0  0  0  0
   10.4524  -15.4422   30.9382 O   0  0  0  0  0  0  0  0  0  0  0  0
  1  2  1  0
  2  4  1  0
  3  2  2  0
  5  4  1  0
  5  6  1  0
  6  7  1  0
  7  8  1  0
  8 10  1  0
  8  9  1  6
 10 11  2  0
 13 12  1  6
 13 15  1  0
 14 10  1  0
 14 13  1  0
 15 17  1  0
 15 16  2  0
 17 18  1  0
 18 24  1  0
 18 19  1  1
 20 19  1  0
 21 20  1  0
 22 23  1  0
 22 21  1  0
 24 25  2  0
 24 26  1  0
M  END
$$$$
