RAK.pdb
     RDKit          3D

 26 25  0  0  1  0  0  0  0  0999 V2000
   10.3665  -18.6691   17.4283 N   0  0  0  0  0  0  0  0  0  0  0  0
   10.2341  -19.3943   16.2223 C   0  0  0  0  0  0  0  0  0  0  0  0
   11.1763  -20.2008   15.7966 N   0  0  0  0  0  0  0  0  0  0  0  0
    9.0411  -19.2292   15.4677 N   0  0  0  0  0  0  0  0  0  0  0  0
    8.0522  -18.2696   15.8280 C   0  0  0  0  0  0  0  0  0  0  0  0
    8.5966  -16.8608   15.9273 C   0  0  0  0  0  0  0  0  0  0  0  0
    7.4334  -15.9638   16.3189 C   0  0  0  0  0  0  0  0  0  0  0  0
    7.8879  -14.5237   16.4767 C   0  0  2  0  0  0  0  0  0  0  0  0
    8.8355  -14.1463   15.4768 N   0  0  0  0  0  0  0  0  0  0  0  0
    8.4605  -14.2837   17.8184 C   0  0  0  0  0  0  0  0  0  0  0  0
    9.6833  -14.5891   18.0256 O   0  0  0  0  0  0  0  0  0  0  0  0
   11.0722  -20.7274   14.9101 C   0  0  0  0  0  0  0  0  0  0  0  0
    7.2293  -12.7408   21.0469 C   0  0  1  0  0  0  0  0  0  0  0  0
    8.2324  -13.4580   20.1614 N   0  0  0  0  0  0  0  0  0  0  0  0
    7.6736  -13.7293   18.8468 C   0  0  0  0  0  0  0  0  0  0  0  0
    8.5935  -14.7321   20.8212 O   0  0  0  0  0  0  0  0  0  0  0  0
    7.9644  -15.7809   20.5330 N   0  0  0  0  0  0  0  0  0  0  0  0
    9.6341  -14.7700   21.7658 C   0  0  1  0  0  0  0  0  0  0  0  0
    9.9783  -16.1205   22.3766 C   0  0  0  0  0  0  0  0  0  0  0  0
   11.4479  -16.1705   22.2962 C   0  0  0  0  0  0  0  0  0  0  0  0
   12.2548  -17.3703   22.3019 C   0  0  0  0  0  0  0  0  0  0  0  0
   13.7235  -17.3514   22.1290 C   0  0  0  0  0  0  0  0  0  0  0  0
   14.2692  -18.8160   22.2609 N   0  0  0  0  0  0  0  0  0  0  0  0
   15.6811  -18.8005   21.9295 C   0  0  0  0  0  0  0  0  0  0  0  0
    9.4075  -16.0539   23.7515 O   0  0  0  0  0  0  0  0  0  0  0  0
    8.9700  -15.0284   24.2786 O   0  0  0  0  0  0  0  0  0  0  0  0
  1  2  1  0
  2  4  1  0
  3  2  2  0
  5  4  1  0
  5  6  1  0
  6  7  1  0
  7  8  1  0
  8 10  1  0
  8  9  1  6
 10 11  2  0
 13 12  1  6
 13 15  1  0
 14 10  1  0
 14 13  1  0
 15 17  1  0
 15 16  2  0
 17 18  1  0
 18 24  1  0
 18 19  1  1
 20 19  1  0
 21 20  1  0
 22 23  1  0
 22 21  1  0
 24 25  2  0
 24 26  1  0
M  END
$$$$
