NGV.pdb
     RDKit          3D

 20 19  0  0  1  0  0  0  0  0999 V2000
    8.5737  -12.8771   16.9751 N   0  0  0  0  0  0  0  0  0  0  0  0
    8.0857  -14.1784   17.2802 C   0  0  0  0  0  0  0  0  0  0  0  0
    8.2367  -15.1315   16.4713 O   0  0  0  0  0  0  0  0  0  0  0  0
    7.3983  -14.3859   18.5666 C   0  0  0  0  0  0  0  0  0  0  0  0
    8.4033  -14.6457   19.6793 C   0  0  2  0  0  0  0  0  0  0  0  0
    8.9772  -15.9373   19.4404 N   0  0  0  0  0  0  0  0  0  0  0  0
    7.6955  -14.6396   21.0001 C   0  0  0  0  0  0  0  0  0  0  0  0
    7.1808  -13.5716   21.4395 O   0  0  0  0  0  0  0  0  0  0  0  0
    7.6037  -15.8283   21.7543 N   0  0  0  0  0  0  0  0  0  0  0  0
    6.9716  -15.9226   23.0399 C   0  0  0  0  0  0  0  0  0  0  0  0
    7.7118  -15.1424   24.0325 C   0  0  0  0  0  0  0  0  0  0  0  0
    8.9807  -15.1208   23.8903 O   0  0  0  0  0  0  0  0  0  0  0  0
    6.0313  -12.9027   27.2750 C   0  0  0  0  0  0  0  0  0  0  0  0
    7.3228  -12.5220   26.6003 C   0  0  2  0  0  0  0  0  0  0  0  0
    7.0848  -11.5509   25.4794 C   0  0  0  0  0  0  0  0  0  0  0  0
    8.0111  -13.7692   26.0507 C   0  0  2  0  0  0  0  0  0  0  0  0
    7.1215  -14.4342   25.1108 N   0  0  0  0  0  0  0  0  0  0  0  0
    8.3684  -14.6990   27.1585 C   0  0  0  0  0  0  0  0  0  0  0  0
    9.3442  -14.3292   28.0731 O   0  0  0  0  0  0  0  0  0  0  0  0
    7.8264  -15.8231   27.3172 O   0  0  0  0  0  0  0  0  0  0  0  0
  1  2  1  0
  2  3  2  0
  4  2  1  0
  4  5  1  0
  5  6  1  6
  7  5  1  0
  8  7  2  0
  9  7  1  0
 10  9  1  0
 11 17  1  0
 11 10  1  0
 12 11  2  0
 14 13  1  6
 14 15  1  0
 16 17  1  6
 16 14  1  0
 18 16  1  0
 19 18  1  0
 20 18  2  0
M  END
$$$$
