NGV.pdb
     RDKit          3D

 20 19  0  0  1  0  0  0  0  0999 V2000
    8.1735  -19.2603   17.0536 N   0  0  0  0  0  0  0  0  0  0  0  0
    8.7894  -19.1070   18.3271 C   0  0  0  0  0  0  0  0  0  0  0  0
    9.9572  -19.5295   18.5355 O   0  0  0  0  0  0  0  0  0  0  0  0
    8.0283  -18.4416   19.3988 C   0  0  0  0  0  0  0  0  0  0  0  0
    8.5772  -17.0473   19.6641 C   0  0  2  0  0  0  0  0  0  0  0  0
    9.7527  -17.1998   20.4700 N   0  0  0  0  0  0  0  0  0  0  0  0
    7.5531  -16.2423   20.4049 C   0  0  0  0  0  0  0  0  0  0  0  0
    6.4032  -16.0674   19.9092 O   0  0  0  0  0  0  0  0  0  0  0  0
    7.8734  -15.6787   21.6579 N   0  0  0  0  0  0  0  0  0  0  0  0
    6.9543  -14.9257   22.4637 C   0  0  0  0  0  0  0  0  0  0  0  0
    7.6147  -14.4423   23.6770 C   0  0  0  0  0  0  0  0  0  0  0  0
    8.8622  -14.6985   23.7718 O   0  0  0  0  0  0  0  0  0  0  0  0
    5.7820  -12.4187   27.0138 C   0  0  0  0  0  0  0  0  0  0  0  0
    7.1196  -12.0226   26.4464 C   0  0  2  0  0  0  0  0  0  0  0  0
    6.9737  -10.9395   25.4160 C   0  0  0  0  0  0  0  0  0  0  0  0
    7.7965  -13.2355   25.8122 C   0  0  2  0  0  0  0  0  0  0  0  0
    6.9702  -13.7316   24.7221 N   0  0  0  0  0  0  0  0  0  0  0  0
    8.0002  -14.3085   26.8255 C   0  0  0  0  0  0  0  0  0  0  0  0
    7.2811  -15.4907   26.7228 O   0  0  0  0  0  0  0  0  0  0  0  0
    8.8025  -14.2039   27.7888 O   0  0  0  0  0  0  0  0  0  0  0  0
  1  2  1  0
  2  3  2  0
  4  2  1  0
  4  5  1  0
  5  6  1  1
  7  5  1  0
  8  7  2  0
  9  7  1  0
 10  9  1  0
 11 17  1  0
 11 10  1  0
 12 11  2  0
 14 13  1  6
 14 15  1  0
 16 17  1  6
 16 14  1  0
 18 16  1  0
 19 18  1  0
 20 18  2  0
M  END
$$$$
