NGV.pdb
     RDKit          3D

 20 19  0  0  1  0  0  0  0  0999 V2000
    7.6663  -12.6159   18.8465 N   0  0  0  0  0  0  0  0  0  0  0  0
    8.3058  -13.8528   19.1395 C   0  0  0  0  0  0  0  0  0  0  0  0
    9.4681  -14.0949   18.7200 O   0  0  0  0  0  0  0  0  0  0  0  0
    7.5757  -14.8459   19.9465 C   0  0  0  0  0  0  0  0  0  0  0  0
    8.1463  -14.9205   21.3553 C   0  0  2  0  0  0  0  0  0  0  0  0
    9.1946  -15.8980   21.3378 N   0  0  0  0  0  0  0  0  0  0  0  0
    7.0692  -15.3462   22.3061 C   0  0  0  0  0  0  0  0  0  0  0  0
    6.0151  -14.6575   22.4208 O   0  0  0  0  0  0  0  0  0  0  0  0
    7.2323  -16.5181   23.0746 N   0  0  0  0  0  0  0  0  0  0  0  0
    6.2883  -16.9809   24.0523 C   0  0  0  0  0  0  0  0  0  0  0  0
    6.3383  -16.1408   25.2496 C   0  0  0  0  0  0  0  0  0  0  0  0
    5.5661  -16.4875   26.2058 O   0  0  0  0  0  0  0  0  0  0  0  0
    8.6862  -12.4904   25.9752 C   0  0  0  0  0  0  0  0  0  0  0  0
    8.2993  -13.5386   26.9849 C   0  0  2  0  0  0  0  0  0  0  0  0
    9.3515  -14.6053   27.0913 C   0  0  0  0  0  0  0  0  0  0  0  0
    6.9701  -14.1777   26.5895 C   0  0  2  0  0  0  0  0  0  0  0  0
    7.1654  -14.9985   25.4041 N   0  0  0  0  0  0  0  0  0  0  0  0
    5.9469  -13.1290   26.3197 C   0  0  0  0  0  0  0  0  0  0  0  0
    5.4257  -12.3951   27.3756 O   0  0  0  0  0  0  0  0  0  0  0  0
    5.5184  -12.8641   25.1670 O   0  0  0  0  0  0  0  0  0  0  0  0
  1  2  1  0
  2  3  2  0
  4  2  1  0
  4  5  1  0
  5  6  1  6
  7  5  1  0
  8  7  2  0
  9  7  1  0
 10  9  1  0
 11 17  1  0
 11 10  1  0
 12 11  2  0
 14 13  1  6
 14 15  1  0
 16 17  1  6
 16 14  1  0
 18 16  1  0
 19 18  1  0
 20 18  2  0
M  END
$$$$
