NGV.pdb
     RDKit          3D

 20 19  0  0  1  0  0  0  0  0999 V2000
    9.9166  -18.8130   17.1696 N   0  0  0  0  0  0  0  0  0  0  0  0
    8.9545  -18.5450   18.1830 C   0  0  0  0  0  0  0  0  0  0  0  0
    8.4203  -19.4829   18.8316 O   0  0  0  0  0  0  0  0  0  0  0  0
    8.5965  -17.1424   18.4570 C   0  0  0  0  0  0  0  0  0  0  0  0
    9.4089  -16.5962   19.6221 C   0  0  2  0  0  0  0  0  0  0  0  0
    9.7825  -17.7127   20.4398 N   0  0  0  0  0  0  0  0  0  0  0  0
    8.5646  -15.6450   20.4145 C   0  0  0  0  0  0  0  0  0  0  0  0
    8.6133  -14.4041   20.1772 O   0  0  0  0  0  0  0  0  0  0  0  0
    7.7137  -16.1359   21.4272 N   0  0  0  0  0  0  0  0  0  0  0  0
    6.7952  -15.3240   22.1744 C   0  0  0  0  0  0  0  0  0  0  0  0
    7.4752  -14.6900   23.3047 C   0  0  0  0  0  0  0  0  0  0  0  0
    8.7172  -14.9595   23.4298 O   0  0  0  0  0  0  0  0  0  0  0  0
    7.8481  -11.4481   26.9799 C   0  0  0  0  0  0  0  0  0  0  0  0
    6.9739  -12.0715   25.9239 C   0  0  2  0  0  0  0  0  0  0  0  0
    5.6568  -12.5096   26.4979 C   0  0  0  0  0  0  0  0  0  0  0  0
    7.6812  -13.2753   25.3059 C   0  0  2  0  0  0  0  0  0  0  0  0
    6.8547  -13.8239   24.2414 N   0  0  0  0  0  0  0  0  0  0  0  0
    7.9377  -14.3172   26.3394 C   0  0  0  0  0  0  0  0  0  0  0  0
    8.9983  -14.1594   27.2201 O   0  0  0  0  0  0  0  0  0  0  0  0
    7.2349  -15.3531   26.4636 O   0  0  0  0  0  0  0  0  0  0  0  0
  1  2  1  0
  2  3  2  0
  4  2  1  0
  4  5  1  0
  5  6  1  1
  7  5  1  0
  8  7  2  0
  9  7  1  0
 10  9  1  0
 11 17  1  0
 11 10  1  0
 12 11  2  0
 14 13  1  1
 14 15  1  0
 16 17  1  6
 16 14  1  0
 18 16  1  0
 19 18  1  0
 20 18  2  0
M  END
$$$$
