NGV.pdb
     RDKit          3D

 20 19  0  0  1  0  0  0  0  0999 V2000
    8.1521  -14.8266   17.0160 N   0  0  0  0  0  0  0  0  0  0  0  0
    8.3787  -13.7447   17.9120 C   0  0  0  0  0  0  0  0  0  0  0  0
    8.7985  -12.6344   17.4918 O   0  0  0  0  0  0  0  0  0  0  0  0
    8.1106  -13.9534   19.3455 C   0  0  0  0  0  0  0  0  0  0  0  0
    7.6588  -15.3827   19.6072 C   0  0  2  0  0  0  0  0  0  0  0  0
    6.2893  -15.4776   19.1946 N   0  0  0  0  0  0  0  0  0  0  0  0
    7.7708  -15.6795   21.0717 C   0  0  0  0  0  0  0  0  0  0  0  0
    8.9004  -15.9209   21.5859 O   0  0  0  0  0  0  0  0  0  0  0  0
    6.6131  -15.6895   21.8779 N   0  0  0  0  0  0  0  0  0  0  0  0
    6.6021  -16.0344   23.2715 C   0  0  0  0  0  0  0  0  0  0  0  0
    7.3934  -15.0745   24.0425 C   0  0  0  0  0  0  0  0  0  0  0  0
    8.5221  -14.7520   23.5397 O   0  0  0  0  0  0  0  0  0  0  0  0
    6.1040  -12.9075   27.4259 C   0  0  0  0  0  0  0  0  0  0  0  0
    7.2922  -12.4845   26.6030 C   0  0  2  0  0  0  0  0  0  0  0  0
    6.8836  -11.5550   25.4962 C   0  0  0  0  0  0  0  0  0  0  0  0
    7.9759  -13.7121   26.0054 C   0  0  2  0  0  0  0  0  0  0  0  0
    6.9943  -14.5022   25.2778 N   0  0  0  0  0  0  0  0  0  0  0  0
    8.5986  -14.5367   27.0786 C   0  0  0  0  0  0  0  0  0  0  0  0
    9.6394  -14.0084   27.8290 O   0  0  0  0  0  0  0  0  0  0  0  0
    8.2291  -15.7081   27.3503 O   0  0  0  0  0  0  0  0  0  0  0  0
  1  2  1  0
  2  3  2  0
  4  2  1  0
  4  5  1  0
  5  6  1  1
  7  5  1  0
  8  7  2  0
  9  7  1  0
 10  9  1  0
 11 17  1  0
 11 10  1  0
 12 11  2  0
 14 13  1  6
 14 15  1  0
 16 17  1  1
 16 14  1  0
 18 16  1  0
 19 18  1  0
 20 18  2  0
M  END
$$$$
