NGV.pdb
     RDKit          3D

 20 19  0  0  1  0  0  0  0  0999 V2000
    4.8464  -19.2249   19.0254 N   0  0  0  0  0  0  0  0  0  0  0  0
    6.0053  -18.8786   19.7747 C   0  0  0  0  0  0  0  0  0  0  0  0
    7.1587  -19.0796   19.3113 O   0  0  0  0  0  0  0  0  0  0  0  0
    5.8250  -18.2783   21.1080 C   0  0  0  0  0  0  0  0  0  0  0  0
    6.9866  -18.6379   22.0229 C   0  0  2  0  0  0  0  0  0  0  0  0
    6.7325  -19.9523   22.5353 N   0  0  0  0  0  0  0  0  0  0  0  0
    7.0527  -17.6554   23.1524 C   0  0  0  0  0  0  0  0  0  0  0  0
    7.2566  -16.4300   22.9166 O   0  0  0  0  0  0  0  0  0  0  0  0
    6.8870  -18.0992   24.4813 N   0  0  0  0  0  0  0  0  0  0  0  0
    6.7611  -17.2268   25.6145 C   0  0  0  0  0  0  0  0  0  0  0  0
    8.0736  -16.7222   26.0202 C   0  0  0  0  0  0  0  0  0  0  0  0
    9.0741  -17.2001   25.3867 O   0  0  0  0  0  0  0  0  0  0  0  0
    9.2254  -14.0357   29.3464 C   0  0  0  0  0  0  0  0  0  0  0  0
    9.6111  -13.9078   27.8963 C   0  0  2  0  0  0  0  0  0  0  0  0
    8.6422  -13.0349   27.1511 C   0  0  0  0  0  0  0  0  0  0  0  0
    9.6524  -15.2879   27.2443 C   0  0  2  0  0  0  0  0  0  0  0  0
    8.2928  -15.7662   27.0453 N   0  0  0  0  0  0  0  0  0  0  0  0
   10.4091  -16.2459   28.0983 C   0  0  0  0  0  0  0  0  0  0  0  0
    9.7263  -17.2523   28.7664 O   0  0  0  0  0  0  0  0  0  0  0  0
   11.6566  -16.1954   28.2526 O   0  0  0  0  0  0  0  0  0  0  0  0
  1  2  1  0
  2  3  2  0
  4  2  1  0
  4  5  1  0
  5  6  1  1
  7  5  1  0
  8  7  2  0
  9  7  1  0
 10  9  1  0
 11 17  1  0
 11 10  1  0
 12 11  2  0
 14 13  1  1
 14 15  1  0
 16 17  1  1
 16 14  1  0
 18 16  1  0
 19 18  1  0
 20 18  2  0
M  END
$$$$
