NGV.pdb
     RDKit          3D

 20 19  0  0  1  0  0  0  0  0999 V2000
    6.7791  -12.7121   17.7408 N   0  0  0  0  0  0  0  0  0  0  0  0
    7.5128  -13.9030   18.0019 C   0  0  0  0  0  0  0  0  0  0  0  0
    7.4480  -14.8870   17.2189 O   0  0  0  0  0  0  0  0  0  0  0  0
    8.3519  -13.9589   19.2115 C   0  0  0  0  0  0  0  0  0  0  0  0
    7.9363  -15.1202   20.1029 C   0  0  2  0  0  0  0  0  0  0  0  0
    6.8452  -14.6644   20.9131 N   0  0  0  0  0  0  0  0  0  0  0  0
    9.0887  -15.5141   20.9760 C   0  0  0  0  0  0  0  0  0  0  0  0
   10.0909  -16.1021   20.4774 O   0  0  0  0  0  0  0  0  0  0  0  0
    9.0548  -15.2281   22.3571 N   0  0  0  0  0  0  0  0  0  0  0  0
   10.0900  -15.5914   23.2830 C   0  0  0  0  0  0  0  0  0  0  0  0
    9.7975  -15.0562   24.6134 C   0  0  0  0  0  0  0  0  0  0  0  0
   10.6582  -15.3167   25.5201 O   0  0  0  0  0  0  0  0  0  0  0  0
    6.0923  -13.2106   25.8551 C   0  0  0  0  0  0  0  0  0  0  0  0
    7.4143  -12.8875   26.5000 C   0  0  2  0  0  0  0  0  0  0  0  0
    8.0373  -11.6688   25.8814 C   0  0  0  0  0  0  0  0  0  0  0  0
    8.3679  -14.0712   26.3554 C   0  0  2  0  0  0  0  0  0  0  0  0
    8.6489  -14.2923   24.9450 N   0  0  0  0  0  0  0  0  0  0  0  0
    7.7713  -15.2981   26.9541 C   0  0  0  0  0  0  0  0  0  0  0  0
    7.9231  -15.5389   28.3122 O   0  0  0  0  0  0  0  0  0  0  0  0
    7.1246  -16.1463   26.2873 O   0  0  0  0  0  0  0  0  0  0  0  0
  1  2  1  0
  2  3  2  0
  4  2  1  0
  4  5  1  0
  5  6  1  1
  7  5  1  0
  8  7  2  0
  9  7  1  0
 10  9  1  0
 11 17  1  0
 11 10  1  0
 12 11  2  0
 14 13  1  6
 14 15  1  0
 16 17  1  6
 16 14  1  0
 18 16  1  0
 19 18  1  0
 20 18  2  0
M  END
$$$$
