NGV.pdb
     RDKit          3D

 20 19  0  0  1  0  0  0  0  0999 V2000
    8.4448  -12.5733   17.2631 N   0  0  0  0  0  0  0  0  0  0  0  0
    7.9081  -13.8592   17.5515 C   0  0  0  0  0  0  0  0  0  0  0  0
    7.9869  -14.7954   16.7132 O   0  0  0  0  0  0  0  0  0  0  0  0
    7.2568  -14.0709   18.8560 C   0  0  0  0  0  0  0  0  0  0  0  0
    8.2732  -14.5056   19.9018 C   0  0  2  0  0  0  0  0  0  0  0  0
    8.6859  -15.8366   19.5657 N   0  0  0  0  0  0  0  0  0  0  0  0
    7.6285  -14.4990   21.2546 C   0  0  0  0  0  0  0  0  0  0  0  0
    7.2465  -13.4097   21.7704 O   0  0  0  0  0  0  0  0  0  0  0  0
    7.4478  -15.7111   21.9535 N   0  0  0  0  0  0  0  0  0  0  0  0
    6.8710  -15.8095   23.2645 C   0  0  0  0  0  0  0  0  0  0  0  0
    7.7329  -15.1596   24.2528 C   0  0  0  0  0  0  0  0  0  0  0  0
    8.9425  -14.9630   23.8935 O   0  0  0  0  0  0  0  0  0  0  0  0
    6.5367  -12.9209   27.7301 C   0  0  0  0  0  0  0  0  0  0  0  0
    7.7066  -12.7072   26.8060 C   0  0  2  0  0  0  0  0  0  0  0  0
    7.3006  -11.9311   25.5858 C   0  0  0  0  0  0  0  0  0  0  0  0
    8.2860  -14.0537   26.3787 C   0  0  2  0  0  0  0  0  0  0  0  0
    7.3176  -14.7512   25.5464 N   0  0  0  0  0  0  0  0  0  0  0  0
    8.6203  -14.8802   27.5723 C   0  0  0  0  0  0  0  0  0  0  0  0
    9.6827  -14.5094   28.3844 O   0  0  0  0  0  0  0  0  0  0  0  0
    7.9833  -15.9161   27.8942 O   0  0  0  0  0  0  0  0  0  0  0  0
  1  2  1  0
  2  3  2  0
  4  2  1  0
  4  5  1  0
  5  6  1  6
  7  5  1  0
  8  7  2  0
  9  7  1  0
 10  9  1  0
 11 17  1  0
 11 10  1  0
 12 11  2  0
 14 13  1  1
 14 15  1  0
 16 17  1  6
 16 14  1  0
 18 16  1  0
 19 18  1  0
 20 18  2  0
M  END
$$$$
