NGV.pdb
     RDKit          3D

 20 19  0  0  1  0  0  0  0  0999 V2000
    7.3482  -14.0511   16.2328 N   0  0  0  0  0  0  0  0  0  0  0  0
    8.0979  -13.7507   17.4042 C   0  0  0  0  0  0  0  0  0  0  0  0
    9.2743  -13.3091   17.3233 O   0  0  0  0  0  0  0  0  0  0  0  0
    7.4653  -13.9686   18.7168 C   0  0  0  0  0  0  0  0  0  0  0  0
    8.4812  -14.4831   19.7263 C   0  0  2  0  0  0  0  0  0  0  0  0
    8.7822  -15.8392   19.3726 N   0  0  0  0  0  0  0  0  0  0  0  0
    7.8850  -14.4358   21.1002 C   0  0  0  0  0  0  0  0  0  0  0  0
    7.5852  -13.3248   21.6241 O   0  0  0  0  0  0  0  0  0  0  0  0
    7.6579  -15.6336   21.8101 N   0  0  0  0  0  0  0  0  0  0  0  0
    6.9546  -15.7116   23.0592 C   0  0  0  0  0  0  0  0  0  0  0  0
    7.6730  -14.9722   24.0980 C   0  0  0  0  0  0  0  0  0  0  0  0
    8.9044  -14.7317   23.8598 O   0  0  0  0  0  0  0  0  0  0  0  0
    5.8677  -12.8019   27.1834 C   0  0  0  0  0  0  0  0  0  0  0  0
    7.2258  -12.4749   26.6205 C   0  0  2  0  0  0  0  0  0  0  0  0
    7.1155  -11.5732   25.4243 C   0  0  0  0  0  0  0  0  0  0  0  0
    7.9471  -13.7597   26.2200 C   0  0  2  0  0  0  0  0  0  0  0  0
    7.1009  -14.5242   25.3164 N   0  0  0  0  0  0  0  0  0  0  0  0
    8.2710  -14.5735   27.4251 C   0  0  0  0  0  0  0  0  0  0  0  0
    9.2071  -14.1040   28.3354 O   0  0  0  0  0  0  0  0  0  0  0  0
    7.7348  -15.6845   27.6714 O   0  0  0  0  0  0  0  0  0  0  0  0
  1  2  1  0
  2  3  2  0
  4  2  1  0
  4  5  1  0
  5  6  1  6
  7  5  1  0
  8  7  2  0
  9  7  1  0
 10  9  1  0
 11 17  1  0
 11 10  1  0
 12 11  2  0
 14 13  1  6
 14 15  1  0
 16 17  1  6
 16 14  1  0
 18 16  1  0
 19 18  1  0
 20 18  2  0
M  END
$$$$
