NGV.pdb
     RDKit          3D

 20 19  0  0  1  0  0  0  0  0999 V2000
    7.0638  -12.2184   19.4479 N   0  0  0  0  0  0  0  0  0  0  0  0
    7.7689  -13.4264   19.7089 C   0  0  0  0  0  0  0  0  0  0  0  0
    8.0702  -14.2140   18.7737 O   0  0  0  0  0  0  0  0  0  0  0  0
    8.1393  -13.7357   21.1009 C   0  0  0  0  0  0  0  0  0  0  0  0
    8.8615  -15.0726   21.1824 C   0  0  2  0  0  0  0  0  0  0  0  0
    7.8763  -16.0991   21.0076 N   0  0  0  0  0  0  0  0  0  0  0  0
    9.5052  -15.2089   22.5287 C   0  0  0  0  0  0  0  0  0  0  0  0
   10.3957  -14.3884   22.8925 O   0  0  0  0  0  0  0  0  0  0  0  0
    9.1163  -16.2551   23.3916 N   0  0  0  0  0  0  0  0  0  0  0  0
   10.0274  -17.1887   23.9910 C   0  0  0  0  0  0  0  0  0  0  0  0
   10.6317  -16.6137   25.1936 C   0  0  0  0  0  0  0  0  0  0  0  0
   11.9081  -16.6164   25.2312 O   0  0  0  0  0  0  0  0  0  0  0  0
    8.5990  -14.6702   28.4324 C   0  0  0  0  0  0  0  0  0  0  0  0
   10.0291  -14.3989   28.0458 C   0  0  2  0  0  0  0  0  0  0  0  0
   10.1187  -13.2865   27.0407 C   0  0  0  0  0  0  0  0  0  0  0  0
   10.6591  -15.6607   27.4606 C   0  0  2  0  0  0  0  0  0  0  0  0
    9.9057  -16.0737   26.2864 N   0  0  0  0  0  0  0  0  0  0  0  0
   10.6685  -16.7559   28.4706 C   0  0  0  0  0  0  0  0  0  0  0  0
   11.5119  -16.6654   29.5688 O   0  0  0  0  0  0  0  0  0  0  0  0
    9.9419  -17.7792   28.3850 O   0  0  0  0  0  0  0  0  0  0  0  0
  1  2  1  0
  2  3  2  0
  4  2  1  0
  4  5  1  0
  5  6  1  1
  7  5  1  0
  8  7  2  0
  9  7  1  0
 10  9  1  0
 11 17  1  0
 11 10  1  0
 12 11  2  0
 14 13  1  6
 14 15  1  0
 16 17  1  6
 16 14  1  0
 18 16  1  0
 19 18  1  0
 20 18  2  0
M  END
$$$$
