NGV.pdb
     RDKit          3D

 20 19  0  0  1  0  0  0  0  0999 V2000
   11.3660  -19.8660   19.8095 N   0  0  0  0  0  0  0  0  0  0  0  0
   10.4098  -18.9934   19.2189 C   0  0  0  0  0  0  0  0  0  0  0  0
   10.4535  -18.7234   17.9897 O   0  0  0  0  0  0  0  0  0  0  0  0
    9.3652  -18.4117   20.0797 C   0  0  0  0  0  0  0  0  0  0  0  0
    9.1810  -16.9314   19.7788 C   0  0  2  0  0  0  0  0  0  0  0  0
   10.4012  -16.2701   20.1373 N   0  0  0  0  0  0  0  0  0  0  0  0
    8.0499  -16.3937   20.6015 C   0  0  0  0  0  0  0  0  0  0  0  0
    6.8539  -16.5890   20.2409 O   0  0  0  0  0  0  0  0  0  0  0  0
    8.3207  -15.6682   21.7807 N   0  0  0  0  0  0  0  0  0  0  0  0
    7.3111  -15.1445   22.6568 C   0  0  0  0  0  0  0  0  0  0  0  0
    7.9245  -14.5337   23.8370 C   0  0  0  0  0  0  0  0  0  0  0  0
    9.1993  -14.5843   23.8913 O   0  0  0  0  0  0  0  0  0  0  0  0
    5.8813  -12.6611   27.1316 C   0  0  0  0  0  0  0  0  0  0  0  0
    7.1996  -12.1722   26.5922 C   0  0  2  0  0  0  0  0  0  0  0  0
    6.9997  -11.1101   25.5492 C   0  0  0  0  0  0  0  0  0  0  0  0
    7.9782  -13.3368   25.9847 C   0  0  2  0  0  0  0  0  0  0  0  0
    7.2084  -13.9115   24.8919 N   0  0  0  0  0  0  0  0  0  0  0  0
    8.2518  -14.3761   27.0164 C   0  0  0  0  0  0  0  0  0  0  0  0
    9.1648  -14.1118   28.0273 O   0  0  0  0  0  0  0  0  0  0  0  0
    7.6924  -15.5028   27.0255 O   0  0  0  0  0  0  0  0  0  0  0  0
  1  2  1  0
  2  3  2  0
  4  2  1  0
  4  5  1  0
  5  6  1  1
  7  5  1  0
  8  7  2  0
  9  7  1  0
 10  9  1  0
 11 17  1  0
 11 10  1  0
 12 11  2  0
 14 13  1  6
 14 15  1  0
 16 17  1  6
 16 14  1  0
 18 16  1  0
 19 18  1  0
 20 18  2  0
M  END
$$$$
