NGV.pdb
     RDKit          3D

 20 19  0  0  1  0  0  0  0  0999 V2000
    9.2444  -16.3306   16.1322 N   0  0  0  0  0  0  0  0  0  0  0  0
    8.7391  -17.1936   17.1444 C   0  0  0  0  0  0  0  0  0  0  0  0
    9.0078  -18.4238   17.1385 O   0  0  0  0  0  0  0  0  0  0  0  0
    7.8927  -16.6141   18.2019 C   0  0  0  0  0  0  0  0  0  0  0  0
    8.6643  -16.5003   19.5085 C   0  0  2  0  0  0  0  0  0  0  0  0
    8.7346  -17.8147   20.0762 N   0  0  0  0  0  0  0  0  0  0  0  0
    7.9328  -15.5821   20.4398 C   0  0  0  0  0  0  0  0  0  0  0  0
    7.8972  -14.3397   20.2082 O   0  0  0  0  0  0  0  0  0  0  0  0
    7.2827  -16.1058   21.5771 N   0  0  0  0  0  0  0  0  0  0  0  0
    6.5082  -15.3220   22.4974 C   0  0  0  0  0  0  0  0  0  0  0  0
    7.3684  -14.7556   23.5372 C   0  0  0  0  0  0  0  0  0  0  0  0
    8.6214  -14.9560   23.3937 O   0  0  0  0  0  0  0  0  0  0  0  0
    6.0558  -12.4786   26.8911 C   0  0  0  0  0  0  0  0  0  0  0  0
    7.3898  -12.2342   26.2363 C   0  0  2  0  0  0  0  0  0  0  0  0
    7.2920  -11.1645   25.1864 C   0  0  0  0  0  0  0  0  0  0  0  0
    7.9011  -13.5235   25.5980 C   0  0  2  0  0  0  0  0  0  0  0  0
    6.9064  -14.0232   24.6610 N   0  0  0  0  0  0  0  0  0  0  0  0
    8.1769  -14.5492   26.6426 C   0  0  0  0  0  0  0  0  0  0  0  0
    9.2439  -14.3699   27.5114 O   0  0  0  0  0  0  0  0  0  0  0  0
    7.4853  -15.5901   26.7867 O   0  0  0  0  0  0  0  0  0  0  0  0
  1  2  1  0
  2  3  2  0
  4  2  1  0
  4  5  1  0
  5  6  1  1
  7  5  1  0
  8  7  2  0
  9  7  1  0
 10  9  1  0
 11 17  1  0
 11 10  1  0
 12 11  2  0
 14 13  1  6
 14 15  1  0
 16 17  1  6
 16 14  1  0
 18 16  1  0
 19 18  1  0
 20 18  2  0
M  END
$$$$
