NGV.pdb
     RDKit          3D

 20 19  0  0  1  0  0  0  0  0999 V2000
    7.8113  -18.0637   16.8825 N   0  0  0  0  0  0  0  0  0  0  0  0
    7.5609  -18.3819   18.2465 C   0  0  0  0  0  0  0  0  0  0  0  0
    7.7135  -19.5560   18.6751 O   0  0  0  0  0  0  0  0  0  0  0  0
    7.1182  -17.3042   19.1482 C   0  0  0  0  0  0  0  0  0  0  0  0
    8.0522  -17.1833   20.3435 C   0  0  2  0  0  0  0  0  0  0  0  0
    8.3171  -18.5119   20.8117 N   0  0  0  0  0  0  0  0  0  0  0  0
    7.3802  -16.3883   21.4214 C   0  0  0  0  0  0  0  0  0  0  0  0
    7.0730  -15.1784   21.2200 O   0  0  0  0  0  0  0  0  0  0  0  0
    7.0901  -16.9916   22.6632 N   0  0  0  0  0  0  0  0  0  0  0  0
    6.4101  -16.3325   23.7423 C   0  0  0  0  0  0  0  0  0  0  0  0
    7.3240  -15.4361   24.4516 C   0  0  0  0  0  0  0  0  0  0  0  0
    8.5644  -15.5798   24.1839 O   0  0  0  0  0  0  0  0  0  0  0  0
    6.2422  -12.5288   27.4003 C   0  0  0  0  0  0  0  0  0  0  0  0
    7.3616  -12.2909   26.4213 C   0  0  2  0  0  0  0  0  0  0  0  0
    6.8758  -11.5460   25.2109 C   0  0  0  0  0  0  0  0  0  0  0  0
    7.9652  -13.6240   25.9857 C   0  0  2  0  0  0  0  0  0  0  0  0
    6.9258  -14.4508   25.3914 N   0  0  0  0  0  0  0  0  0  0  0  0
    8.5714  -14.3277   27.1505 C   0  0  0  0  0  0  0  0  0  0  0  0
    9.7083  -13.8038   27.7493 O   0  0  0  0  0  0  0  0  0  0  0  0
    8.1039  -15.3911   27.6335 O   0  0  0  0  0  0  0  0  0  0  0  0
  1  2  1  0
  2  3  2  0
  4  2  1  0
  4  5  1  0
  5  6  1  1
  7  5  1  0
  8  7  2  0
  9  7  1  0
 10  9  1  0
 11 17  1  0
 11 10  1  0
 12 11  2  0
 14 13  1  1
 14 15  1  0
 16 17  1  1
 16 14  1  0
 18 16  1  0
 19 18  1  0
 20 18  2  0
M  END
$$$$
