NGV.pdb
     RDKit          3D

 20 19  0  0  1  0  0  0  0  0999 V2000
    8.6969  -17.8591   16.1501 N   0  0  0  0  0  0  0  0  0  0  0  0
    9.2175  -17.5001   17.4248 C   0  0  0  0  0  0  0  0  0  0  0  0
   10.4597  -17.4495   17.6248 O   0  0  0  0  0  0  0  0  0  0  0  0
    8.2684  -17.1884   18.5076 C   0  0  0  0  0  0  0  0  0  0  0  0
    9.0091  -16.7915   19.7763 C   0  0  2  0  0  0  0  0  0  0  0  0
    9.1528  -17.9750   20.5722 N   0  0  0  0  0  0  0  0  0  0  0  0
    8.2053  -15.7707   20.5227 C   0  0  0  0  0  0  0  0  0  0  0  0
    8.1721  -14.5719   20.1220 O   0  0  0  0  0  0  0  0  0  0  0  0
    7.4842  -16.1486   21.6750 N   0  0  0  0  0  0  0  0  0  0  0  0
    6.6989  -15.2461   22.4687 C   0  0  0  0  0  0  0  0  0  0  0  0
    7.4939  -14.7151   23.5769 C   0  0  0  0  0  0  0  0  0  0  0  0
    8.7512  -14.9293   23.5131 O   0  0  0  0  0  0  0  0  0  0  0  0
    5.9849  -12.5809   26.9543 C   0  0  0  0  0  0  0  0  0  0  0  0
    7.3286  -12.2678   26.3505 C   0  0  2  0  0  0  0  0  0  0  0  0
    7.2248  -11.1654   25.3357 C   0  0  0  0  0  0  0  0  0  0  0  0
    7.9040  -13.5154   25.6843 C   0  0  2  0  0  0  0  0  0  0  0  0
    6.9660  -14.0020   24.6839 N   0  0  0  0  0  0  0  0  0  0  0  0
    8.1627  -14.5760   26.6980 C   0  0  0  0  0  0  0  0  0  0  0  0
    9.2484  -14.4534   27.5534 O   0  0  0  0  0  0  0  0  0  0  0  0
    7.4401  -15.5976   26.8271 O   0  0  0  0  0  0  0  0  0  0  0  0
  1  2  1  0
  2  3  2  0
  4  2  1  0
  4  5  1  0
  5  6  1  1
  7  5  1  0
  8  7  2  0
  9  7  1  0
 10  9  1  0
 11 17  1  0
 11 10  1  0
 12 11  2  0
 14 13  1  6
 14 15  1  0
 16 17  1  6
 16 14  1  0
 18 16  1  0
 19 18  1  0
 20 18  2  0
M  END
$$$$
