NGV.pdb
     RDKit          3D

 20 19  0  0  1  0  0  0  0  0999 V2000
    7.5947  -12.8562   17.7854 N   0  0  0  0  0  0  0  0  0  0  0  0
    8.4490  -13.9940   17.8028 C   0  0  0  0  0  0  0  0  0  0  0  0
    9.2835  -14.1901   16.8804 O   0  0  0  0  0  0  0  0  0  0  0  0
    8.3350  -14.9395   18.9268 C   0  0  0  0  0  0  0  0  0  0  0  0
    7.1864  -14.5490   19.8456 C   0  0  2  0  0  0  0  0  0  0  0  0
    7.5071  -13.2693   20.4062 N   0  0  0  0  0  0  0  0  0  0  0  0
    7.0565  -15.5655   20.9389 C   0  0  0  0  0  0  0  0  0  0  0  0
    6.5445  -16.6960   20.6971 O   0  0  0  0  0  0  0  0  0  0  0  0
    7.5067  -15.2598   22.2406 N   0  0  0  0  0  0  0  0  0  0  0  0
    7.5358  -16.1984   23.3265 C   0  0  0  0  0  0  0  0  0  0  0  0
    8.0324  -15.5566   24.5444 C   0  0  0  0  0  0  0  0  0  0  0  0
    9.1276  -16.0192   25.0108 O   0  0  0  0  0  0  0  0  0  0  0  0
    6.0869  -12.7565   27.1664 C   0  0  0  0  0  0  0  0  0  0  0  0
    7.4304  -12.4565   26.5557 C   0  0  2  0  0  0  0  0  0  0  0  0
    7.2887  -11.6301   25.3095 C   0  0  0  0  0  0  0  0  0  0  0  0
    8.1522  -13.7592   26.2188 C   0  0  2  0  0  0  0  0  0  0  0  0
    7.3875  -14.4872   25.2175 N   0  0  0  0  0  0  0  0  0  0  0  0
    8.3171  -14.5955   27.4406 C   0  0  0  0  0  0  0  0  0  0  0  0
    9.1823  -14.1787   28.4422 O   0  0  0  0  0  0  0  0  0  0  0  0
    7.7056  -15.6798   27.6219 O   0  0  0  0  0  0  0  0  0  0  0  0
  1  2  1  0
  2  3  2  0
  4  2  1  0
  4  5  1  0
  5  6  1  1
  7  5  1  0
  8  7  2  0
  9  7  1  0
 10  9  1  0
 11 17  1  0
 11 10  1  0
 12 11  2  0
 14 13  1  6
 14 15  1  0
 16 17  1  6
 16 14  1  0
 18 16  1  0
 19 18  1  0
 20 18  2  0
M  END
$$$$
