KNR.pdb
     RDKit          3D

 29 28  0  0  1  0  0  0  0  0999 V2000
   27.0455  -19.5899  -16.8078 N   0  0  0  0  0  0  0  0  0  0  0  0
   26.3049  -20.7822  -17.0875 C   0  0  1  0  0  0  0  0  0  0  0  0
   27.0984  -21.8393  -17.8358 C   0  0  0  0  0  0  0  0  0  0  0  0
   28.5323  -21.4420  -17.7952 C   0  0  0  0  0  0  0  0  0  0  0  0
   29.3694  -22.0773  -16.7436 C   0  0  0  0  0  0  0  0  0  0  0  0
   29.9564  -23.4032  -17.0670 C   0  0  0  0  0  0  0  0  0  0  0  0
   30.9228  -23.9160  -16.1581 N   0  0  0  0  0  0  0  0  0  0  0  0
   25.7820  -21.3263  -15.8113 C   0  0  0  0  0  0  0  0  0  0  0  0
   25.1773  -22.4230  -15.8394 O   0  0  0  0  0  0  0  0  0  0  0  0
   25.4426  -20.8855   -9.6882 N   0  0  0  0  0  0  0  0  0  0  0  0
   25.5299  -21.5678  -10.9368 C   0  0  0  0  0  0  0  0  0  0  0  0
   25.2381  -22.7777  -11.0562 O   0  0  0  0  0  0  0  0  0  0  0  0
   25.9937  -20.7563  -12.1144 C   0  0  0  0  0  0  0  0  0  0  0  0
   25.3563  -21.2648  -13.3920 C   0  0  2  0  0  0  0  0  0  0  0  0
   25.9282  -20.6750  -14.5620 N   0  0  0  0  0  0  0  0  0  0  0  0
   23.8894  -20.9499  -13.2829 C   0  0  0  0  0  0  0  0  0  0  0  0
   23.5423  -19.7525  -13.1719 O   0  0  0  0  0  0  0  0  0  0  0  0
   17.3617  -22.6398  -10.0675 N   0  0  0  0  0  0  0  0  0  0  0  0
   16.5661  -23.0708  -11.1618 C   0  0  0  0  0  0  0  0  0  0  0  0
   15.3052  -22.8381  -11.1440 N   0  0  0  0  0  0  0  0  0  0  0  0
   17.1285  -23.7542  -12.2792 N   0  0  0  0  0  0  0  0  0  0  0  0
   18.5439  -24.0448  -12.3746 C   0  0  0  0  0  0  0  0  0  0  0  0
   19.2717  -22.7176  -12.6746 C   0  0  0  0  0  0  0  0  0  0  0  0
   20.7248  -22.9742  -12.9464 C   0  0  0  0  0  0  0  0  0  0  0  0
   21.4725  -21.7236  -13.1579 C   0  0  2  0  0  0  0  0  0  0  0  0
   22.9050  -21.9460  -13.3014 N   0  0  0  0  0  0  0  0  0  0  0  0
   21.1885  -20.6943  -12.1663 C   0  0  0  0  0  0  0  0  0  0  0  0
   21.7680  -20.7419  -11.0129 O   0  0  0  0  0  0  0  0  0  0  0  0
   20.3315  -19.6301  -12.3439 O   0  0  0  0  0  0  0  0  0  0  0  0
  2  1  1  1
  2  3  1  0
  3  4  1  0
  4  5  1  0
  6  7  1  0
  6  5  1  0
  8  9  2  0
  8  2  1  0
 11 10  1  0
 11 13  1  0
 12 11  2  0
 14 13  1  1
 14 16  1  0
 14 15  1  0
 15  8  1  0
 16 26  1  0
 17 16  2  0
 19 20  2  0
 19 18  1  0
 21 22  1  0
 21 19  1  0
 22 23  1  0
 23 24  1  0
 25 24  1  1
 25 27  1  0
 26 25  1  0
 27 28  2  0
 27 29  1  0
M  END
$$$$
