KNR.pdb
     RDKit          3D

 29 28  0  0  1  0  0  0  0  0999 V2000
   26.7263  -19.4311  -16.0939 N   0  0  0  0  0  0  0  0  0  0  0  0
   27.0272  -20.8302  -16.1084 C   0  0  1  0  0  0  0  0  0  0  0  0
   28.2451  -21.1901  -16.9414 C   0  0  0  0  0  0  0  0  0  0  0  0
   28.3837  -20.1615  -18.0085 C   0  0  0  0  0  0  0  0  0  0  0  0
   29.6292  -19.3500  -17.9928 C   0  0  0  0  0  0  0  0  0  0  0  0
   29.7880  -18.3482  -19.0783 C   0  0  0  0  0  0  0  0  0  0  0  0
   30.9617  -17.5455  -19.0440 N   0  0  0  0  0  0  0  0  0  0  0  0
   27.1940  -21.2941  -14.7102 C   0  0  0  0  0  0  0  0  0  0  0  0
   27.4253  -22.5096  -14.5137 O   0  0  0  0  0  0  0  0  0  0  0  0
   24.9896  -21.8133  -10.3724 N   0  0  0  0  0  0  0  0  0  0  0  0
   25.9243  -20.7884  -10.0435 C   0  0  0  0  0  0  0  0  0  0  0  0
   26.1312  -20.4295   -8.8638 O   0  0  0  0  0  0  0  0  0  0  0  0
   26.6565  -20.1534  -11.1929 C   0  0  0  0  0  0  0  0  0  0  0  0
   26.2381  -20.7892  -12.5036 C   0  0  2  0  0  0  0  0  0  0  0  0
   27.1065  -20.4396  -13.5840 N   0  0  0  0  0  0  0  0  0  0  0  0
   24.8302  -20.3274  -12.7629 C   0  0  0  0  0  0  0  0  0  0  0  0
   24.6568  -19.3015  -13.4587 O   0  0  0  0  0  0  0  0  0  0  0  0
   21.3471  -21.7060  -18.7278 N   0  0  0  0  0  0  0  0  0  0  0  0
   20.1552  -21.2024  -18.1428 C   0  0  0  0  0  0  0  0  0  0  0  0
   19.3840  -20.4570  -18.8456 N   0  0  0  0  0  0  0  0  0  0  0  0
   19.7913  -21.5018  -16.7975 N   0  0  0  0  0  0  0  0  0  0  0  0
   20.6539  -22.2584  -15.9141 C   0  0  0  0  0  0  0  0  0  0  0  0
   20.8039  -21.4515  -14.6074 C   0  0  0  0  0  0  0  0  0  0  0  0
   22.1904  -21.6112  -14.0568 C   0  0  0  0  0  0  0  0  0  0  0  0
   22.3562  -20.9062  -12.7749 C   0  0  2  0  0  0  0  0  0  0  0  0
   23.7135  -21.0031  -12.2549 N   0  0  0  0  0  0  0  0  0  0  0  0
   21.3707  -21.2781  -11.7680 C   0  0  0  0  0  0  0  0  0  0  0  0
   21.7285  -22.0067  -10.7632 O   0  0  0  0  0  0  0  0  0  0  0  0
   20.0422  -20.9131  -11.7788 O   0  0  0  0  0  0  0  0  0  0  0  0
  2  1  1  1
  2  3  1  0
  3  4  1  0
  4  5  1  0
  6  7  1  0
  6  5  1  0
  8  9  2  0
  8  2  1  0
 11 10  1  0
 11 13  1  0
 12 11  2  0
 14 13  1  1
 14 16  1  0
 14 15  1  0
 15  8  1  0
 16 26  1  0
 17 16  2  0
 19 20  2  0
 19 18  1  0
 21 22  1  0
 21 19  1  0
 22 23  1  0
 23 24  1  0
 25 24  1  6
 25 27  1  0
 26 25  1  0
 27 28  2  0
 27 29  1  0
M  END
$$$$
