KNR.pdb
     RDKit          3D

 29 28  0  0  1  0  0  0  0  0999 V2000
   26.0937  -20.8736  -15.9708 N   0  0  0  0  0  0  0  0  0  0  0  0
   25.1125  -21.8175  -15.5298 C   0  0  1  0  0  0  0  0  0  0  0  0
   25.6942  -23.0156  -14.7997 C   0  0  0  0  0  0  0  0  0  0  0  0
   26.2487  -23.9437  -15.8229 C   0  0  0  0  0  0  0  0  0  0  0  0
   25.4904  -25.1998  -16.0626 C   0  0  0  0  0  0  0  0  0  0  0  0
   26.0548  -26.1404  -17.0645 C   0  0  0  0  0  0  0  0  0  0  0  0
   25.3238  -27.3367  -17.3045 N   0  0  0  0  0  0  0  0  0  0  0  0
   24.1264  -21.1128  -14.6759 C   0  0  0  0  0  0  0  0  0  0  0  0
   24.5087  -20.6803  -13.5642 O   0  0  0  0  0  0  0  0  0  0  0  0
   20.4020  -18.9165  -12.3542 N   0  0  0  0  0  0  0  0  0  0  0  0
   20.3545  -18.3736  -13.6714 C   0  0  0  0  0  0  0  0  0  0  0  0
   19.6314  -17.3962  -13.9630 O   0  0  0  0  0  0  0  0  0  0  0  0
   21.2230  -19.0380  -14.7032 C   0  0  0  0  0  0  0  0  0  0  0  0
   21.8844  -20.2724  -14.1235 C   0  0  2  0  0  0  0  0  0  0  0  0
   22.7760  -20.9013  -15.0473 N   0  0  0  0  0  0  0  0  0  0  0  0
   20.7678  -21.1984  -13.7254 C   0  0  0  0  0  0  0  0  0  0  0  0
   20.0726  -21.7180  -14.6272 O   0  0  0  0  0  0  0  0  0  0  0  0
   17.5550  -25.8067   -6.4844 N   0  0  0  0  0  0  0  0  0  0  0  0
   18.3201  -26.3889   -7.5293 C   0  0  0  0  0  0  0  0  0  0  0  0
   18.4409  -27.6647   -7.5755 N   0  0  0  0  0  0  0  0  0  0  0  0
   18.9574  -25.5965   -8.5282 N   0  0  0  0  0  0  0  0  0  0  0  0
   18.7977  -24.1586   -8.5917 C   0  0  0  0  0  0  0  0  0  0  0  0
   18.5774  -23.7802  -10.0713 C   0  0  0  0  0  0  0  0  0  0  0  0
   19.6359  -22.8173  -10.5225 C   0  0  0  0  0  0  0  0  0  0  0  0
   19.4488  -22.4145  -11.9262 C   0  0  2  0  0  0  0  0  0  0  0  0
   20.4820  -21.4968  -12.3871 N   0  0  0  0  0  0  0  0  0  0  0  0
   18.1146  -21.9072  -12.2192 C   0  0  0  0  0  0  0  0  0  0  0  0
   17.8038  -20.6986  -11.8858 O   0  0  0  0  0  0  0  0  0  0  0  0
   17.1113  -22.6149  -12.8444 O   0  0  0  0  0  0  0  0  0  0  0  0
  2  1  1  1
  2  3  1  0
  3  4  1  0
  4  5  1  0
  6  7  1  0
  6  5  1  0
  8  9  2  0
  8  2  1  0
 11 10  1  0
 11 13  1  0
 12 11  2  0
 14 13  1  6
 14 16  1  0
 14 15  1  0
 15  8  1  0
 16 26  1  0
 17 16  2  0
 19 20  2  0
 19 18  1  0
 21 22  1  0
 21 19  1  0
 22 23  1  0
 23 24  1  0
 25 24  1  1
 25 27  1  0
 26 25  1  0
 27 28  2  0
 27 29  1  0
M  END
$$$$
