KNR.pdb
     RDKit          3D

 29 28  0  0  1  0  0  0  0  0999 V2000
   17.1488  -25.8085   -2.3446 N   0  0  0  0  0  0  0  0  0  0  0  0
   17.2995  -26.5573   -3.5549 C   0  0  1  0  0  0  0  0  0  0  0  0
   16.2332  -27.6193   -3.7594 C   0  0  0  0  0  0  0  0  0  0  0  0
   16.5655  -28.7704   -2.8760 C   0  0  0  0  0  0  0  0  0  0  0  0
   16.3709  -28.5670   -1.4163 C   0  0  0  0  0  0  0  0  0  0  0  0
   16.5807  -29.7501   -0.5427 C   0  0  0  0  0  0  0  0  0  0  0  0
   16.4712  -29.5397    0.8598 N   0  0  0  0  0  0  0  0  0  0  0  0
   17.3230  -25.6126   -4.6974 C   0  0  0  0  0  0  0  0  0  0  0  0
   16.8487  -24.4658   -4.5266 O   0  0  0  0  0  0  0  0  0  0  0  0
   19.5458  -22.7754   -8.3516 N   0  0  0  0  0  0  0  0  0  0  0  0
   19.2165  -24.0408   -8.9195 C   0  0  0  0  0  0  0  0  0  0  0  0
   19.0543  -24.1967  -10.1494 O   0  0  0  0  0  0  0  0  0  0  0  0
   19.0720  -25.1899   -7.9608 C   0  0  0  0  0  0  0  0  0  0  0  0
   17.9657  -24.9113   -6.9630 C   0  0  2  0  0  0  0  0  0  0  0  0
   17.8519  -25.9347   -5.9713 N   0  0  0  0  0  0  0  0  0  0  0  0
   16.6996  -24.7848   -7.7652 C   0  0  0  0  0  0  0  0  0  0  0  0
   16.0574  -25.8246   -8.0354 O   0  0  0  0  0  0  0  0  0  0  0  0
   11.8901  -20.4977   -4.7274 N   0  0  0  0  0  0  0  0  0  0  0  0
   11.5103  -19.9181   -5.9668 C   0  0  0  0  0  0  0  0  0  0  0  0
   10.7031  -18.9217   -5.9661 N   0  0  0  0  0  0  0  0  0  0  0  0
   12.0003  -20.4116   -7.2111 N   0  0  0  0  0  0  0  0  0  0  0  0
   12.7068  -21.6710   -7.3183 C   0  0  0  0  0  0  0  0  0  0  0  0
   13.0529  -21.8848   -8.8067 C   0  0  0  0  0  0  0  0  0  0  0  0
   14.5405  -21.9590   -8.9868 C   0  0  0  0  0  0  0  0  0  0  0  0
   15.0201  -23.3507   -9.0216 C   0  0  2  0  0  0  0  0  0  0  0  0
   16.2181  -23.5496   -8.2170 N   0  0  0  0  0  0  0  0  0  0  0  0
   15.1872  -23.8811  -10.3685 C   0  0  0  0  0  0  0  0  0  0  0  0
   14.1552  -24.0189  -11.1329 O   0  0  0  0  0  0  0  0  0  0  0  0
   16.3848  -24.2631  -10.9327 O   0  0  0  0  0  0  0  0  0  0  0  0
  2  1  1  1
  2  3  1  0
  3  4  1  0
  4  5  1  0
  6  7  1  0
  6  5  1  0
  8  9  2  0
  8  2  1  0
 11 10  1  0
 11 13  1  0
 12 11  2  0
 14 13  1  6
 14 16  1  0
 14 15  1  0
 15  8  1  0
 16 26  1  0
 17 16  2  0
 19 20  2  0
 19 18  1  0
 21 22  1  0
 21 19  1  0
 22 23  1  0
 23 24  1  0
 25 24  1  6
 25 27  1  0
 26 25  1  0
 27 28  2  0
 27 29  1  0
M  END
$$$$
