KNR.pdb
     RDKit          3D

 29 28  0  0  1  0  0  0  0  0999 V2000
   26.1814  -22.3084  -15.2818 N   0  0  0  0  0  0  0  0  0  0  0  0
   26.3278  -20.9294  -14.9279 C   0  0  1  0  0  0  0  0  0  0  0  0
   26.9378  -20.0732  -16.0242 C   0  0  0  0  0  0  0  0  0  0  0  0
   27.2926  -20.9724  -17.1561 C   0  0  0  0  0  0  0  0  0  0  0  0
   28.5341  -20.6422  -17.9044 C   0  0  0  0  0  0  0  0  0  0  0  0
   28.8860  -21.5318  -19.0410 C   0  0  0  0  0  0  0  0  0  0  0  0
   30.0922  -21.2387  -19.7356 N   0  0  0  0  0  0  0  0  0  0  0  0
   25.0027  -20.3993  -14.5265 C   0  0  0  0  0  0  0  0  0  0  0  0
   24.8928  -19.1667  -14.3316 O   0  0  0  0  0  0  0  0  0  0  0  0
   19.7839  -19.0246  -15.6466 N   0  0  0  0  0  0  0  0  0  0  0  0
   20.8787  -18.9422  -14.7372 C   0  0  0  0  0  0  0  0  0  0  0  0
   20.8000  -18.3211  -13.6550 O   0  0  0  0  0  0  0  0  0  0  0  0
   22.1443  -19.6441  -15.1447 C   0  0  0  0  0  0  0  0  0  0  0  0
   22.5992  -20.5920  -14.0530 C   0  0  2  0  0  0  0  0  0  0  0  0
   23.8539  -21.2091  -14.3510 N   0  0  0  0  0  0  0  0  0  0  0  0
   21.5078  -21.6167  -13.9057 C   0  0  0  0  0  0  0  0  0  0  0  0
   21.0626  -22.1675  -14.9376 O   0  0  0  0  0  0  0  0  0  0  0  0
   17.0148  -26.8607   -9.9950 N   0  0  0  0  0  0  0  0  0  0  0  0
   18.1094  -26.7214   -9.1012 C   0  0  0  0  0  0  0  0  0  0  0  0
   18.6500  -27.7756   -8.6105 N   0  0  0  0  0  0  0  0  0  0  0  0
   18.6247  -25.4440   -8.7341 N   0  0  0  0  0  0  0  0  0  0  0  0
   18.1273  -24.2144   -9.3153 C   0  0  0  0  0  0  0  0  0  0  0  0
   18.5693  -24.1868  -10.7934 C   0  0  0  0  0  0  0  0  0  0  0  0
   19.5663  -23.0878  -11.0151 C   0  0  0  0  0  0  0  0  0  0  0  0
   19.8979  -22.9272  -12.4406 C   0  0  2  0  0  0  0  0  0  0  0  0
   20.9765  -21.9728  -12.6597 N   0  0  0  0  0  0  0  0  0  0  0  0
   18.7455  -22.6332  -13.2825 C   0  0  0  0  0  0  0  0  0  0  0  0
   18.3488  -21.4114  -13.4176 O   0  0  0  0  0  0  0  0  0  0  0  0
   18.0083  -23.5652  -13.9799 O   0  0  0  0  0  0  0  0  0  0  0  0
  2  1  1  6
  2  3  1  0
  3  4  1  0
  4  5  1  0
  6  7  1  0
  6  5  1  0
  8  9  2  0
  8  2  1  0
 11 10  1  0
 11 13  1  0
 12 11  2  0
 14 13  1  6
 14 16  1  0
 14 15  1  0
 15  8  1  0
 16 26  1  0
 17 16  2  0
 19 20  2  0
 19 18  1  0
 21 22  1  0
 21 19  1  0
 22 23  1  0
 23 24  1  0
 25 24  1  1
 25 27  1  0
 26 25  1  0
 27 28  2  0
 27 29  1  0
M  END
$$$$
