KNR.pdb
     RDKit          3D

 29 28  0  0  1  0  0  0  0  0999 V2000
   27.4842  -21.2365  -17.8588 N   0  0  0  0  0  0  0  0  0  0  0  0
   27.2313  -21.8848  -16.6082 C   0  0  1  0  0  0  0  0  0  0  0  0
   28.4885  -22.2978  -15.8628 C   0  0  0  0  0  0  0  0  0  0  0  0
   29.6364  -22.1607  -16.8006 C   0  0  0  0  0  0  0  0  0  0  0  0
   29.7371  -23.1759  -17.8820 C   0  0  0  0  0  0  0  0  0  0  0  0
   30.9494  -23.1215  -18.7390 C   0  0  0  0  0  0  0  0  0  0  0  0
   32.1503  -23.6461  -18.1857 N   0  0  0  0  0  0  0  0  0  0  0  0
   26.3964  -20.9907  -15.7706 C   0  0  0  0  0  0  0  0  0  0  0  0
   26.1262  -21.3556  -14.6031 O   0  0  0  0  0  0  0  0  0  0  0  0
   27.3341  -17.8356  -15.5892 N   0  0  0  0  0  0  0  0  0  0  0  0
   26.2356  -16.9567  -15.8194 C   0  0  0  0  0  0  0  0  0  0  0  0
   26.3951  -15.7397  -16.0573 O   0  0  0  0  0  0  0  0  0  0  0  0
   24.8632  -17.5680  -15.7621 C   0  0  0  0  0  0  0  0  0  0  0  0
   24.9525  -19.0372  -15.4004 C   0  0  2  0  0  0  0  0  0  0  0  0
   25.8871  -19.7467  -16.2171 N   0  0  0  0  0  0  0  0  0  0  0  0
   23.5625  -19.5918  -15.5531 C   0  0  0  0  0  0  0  0  0  0  0  0
   23.1956  -19.9803  -16.6849 O   0  0  0  0  0  0  0  0  0  0  0  0
   18.6504  -25.5907  -12.3389 N   0  0  0  0  0  0  0  0  0  0  0  0
   17.7263  -24.6326  -12.8333 C   0  0  0  0  0  0  0  0  0  0  0  0
   16.5277  -25.0034  -13.0984 N   0  0  0  0  0  0  0  0  0  0  0  0
   18.0923  -23.2710  -13.0430 N   0  0  0  0  0  0  0  0  0  0  0  0
   19.4626  -22.8147  -12.9391 C   0  0  0  0  0  0  0  0  0  0  0  0
   19.4818  -21.3147  -13.3008 C   0  0  0  0  0  0  0  0  0  0  0  0
   20.8840  -20.7847  -13.2364 C   0  0  0  0  0  0  0  0  0  0  0  0
   21.3311  -20.2567  -14.5360 C   0  0  2  0  0  0  0  0  0  0  0  0
   22.6708  -19.6874  -14.4774 N   0  0  0  0  0  0  0  0  0  0  0  0
   20.3858  -19.3350  -15.1526 C   0  0  0  0  0  0  0  0  0  0  0  0
   20.4961  -18.0667  -14.9343 O   0  0  0  0  0  0  0  0  0  0  0  0
   19.3455  -19.6949  -15.9813 O   0  0  0  0  0  0  0  0  0  0  0  0
  2  1  1  6
  2  3  1  0
  3  4  1  0
  4  5  1  0
  6  7  1  0
  6  5  1  0
  8  9  2  0
  8  2  1  0
 11 10  1  0
 11 13  1  0
 12 11  2  0
 14 13  1  6
 14 16  1  0
 14 15  1  0
 15  8  1  0
 16 26  1  0
 17 16  2  0
 19 20  2  0
 19 18  1  0
 21 22  1  0
 21 19  1  0
 22 23  1  0
 23 24  1  0
 25 24  1  1
 25 27  1  0
 26 25  1  0
 27 28  2  0
 27 29  1  0
M  END
$$$$
