KNR.pdb
     RDKit          3D

 29 28  0  0  1  0  0  0  0  0999 V2000
   27.9899  -22.3170  -17.0220 N   0  0  0  0  0  0  0  0  0  0  0  0
   27.5094  -21.0706  -16.5082 C   0  0  1  0  0  0  0  0  0  0  0  0
   26.6729  -20.2777  -17.4973 C   0  0  0  0  0  0  0  0  0  0  0  0
   27.6072  -19.5631  -18.4096 C   0  0  0  0  0  0  0  0  0  0  0  0
   29.0586  -19.8075  -18.2005 C   0  0  0  0  0  0  0  0  0  0  0  0
   29.9963  -19.0390  -19.0590 C   0  0  0  0  0  0  0  0  0  0  0  0
   31.3833  -19.1713  -18.7728 N   0  0  0  0  0  0  0  0  0  0  0  0
   26.7425  -21.3332  -15.2668 C   0  0  0  0  0  0  0  0  0  0  0  0
   25.9006  -22.2608  -15.2765 O   0  0  0  0  0  0  0  0  0  0  0  0
   25.7073  -21.9025  -10.0633 N   0  0  0  0  0  0  0  0  0  0  0  0
   25.6454  -20.5561  -10.5275 C   0  0  0  0  0  0  0  0  0  0  0  0
   24.8871  -19.7075  -10.0098 O   0  0  0  0  0  0  0  0  0  0  0  0
   26.5435  -20.2011  -11.6798 C   0  0  0  0  0  0  0  0  0  0  0  0
   26.0602  -20.8669  -12.9527 C   0  0  2  0  0  0  0  0  0  0  0  0
   26.9088  -20.5937  -14.0703 N   0  0  0  0  0  0  0  0  0  0  0  0
   24.6648  -20.3569  -13.1888 C   0  0  0  0  0  0  0  0  0  0  0  0
   24.5206  -19.2667  -13.7865 O   0  0  0  0  0  0  0  0  0  0  0  0
   18.5613  -16.2183  -15.5149 N   0  0  0  0  0  0  0  0  0  0  0  0
   18.4785  -17.4481  -16.2200 C   0  0  0  0  0  0  0  0  0  0  0  0
   17.9633  -17.4585  -17.3942 N   0  0  0  0  0  0  0  0  0  0  0  0
   18.9515  -18.6708  -15.6605 N   0  0  0  0  0  0  0  0  0  0  0  0
   20.3613  -18.9343  -15.4602 C   0  0  0  0  0  0  0  0  0  0  0  0
   20.4905  -20.3594  -14.8828 C   0  0  0  0  0  0  0  0  0  0  0  0
   21.9239  -20.6566  -14.5540 C   0  0  0  0  0  0  0  0  0  0  0  0
   22.1516  -20.7202  -13.1008 C   0  0  2  0  0  0  0  0  0  0  0  0
   23.5285  -21.0573  -12.7648 N   0  0  0  0  0  0  0  0  0  0  0  0
   21.2053  -21.5738  -12.3944 C   0  0  0  0  0  0  0  0  0  0  0  0
   21.4811  -22.8233  -12.2180 O   0  0  0  0  0  0  0  0  0  0  0  0
   19.9979  -21.1647  -11.8717 O   0  0  0  0  0  0  0  0  0  0  0  0
  2  1  1  6
  2  3  1  0
  3  4  1  0
  4  5  1  0
  6  7  1  0
  6  5  1  0
  8  9  2  0
  8  2  1  0
 11 10  1  0
 11 13  1  0
 12 11  2  0
 14 13  1  1
 14 16  1  0
 14 15  1  0
 15  8  1  0
 16 26  1  0
 17 16  2  0
 19 20  2  0
 19 18  1  0
 21 22  1  0
 21 19  1  0
 22 23  1  0
 23 24  1  0
 25 24  1  6
 25 27  1  0
 26 25  1  0
 27 28  2  0
 27 29  1  0
M  END
$$$$
