KNR.pdb
     RDKit          3D

 29 28  0  0  1  0  0  0  0  0999 V2000
   25.2920  -21.8582  -11.9643 N   0  0  0  0  0  0  0  0  0  0  0  0
   24.4582  -20.6992  -11.8652 C   0  0  1  0  0  0  0  0  0  0  0  0
   24.2693  -20.1956  -10.4449 C   0  0  0  0  0  0  0  0  0  0  0  0
   23.4861  -21.2202   -9.7016 C   0  0  0  0  0  0  0  0  0  0  0  0
   22.0752  -20.8772   -9.3827 C   0  0  0  0  0  0  0  0  0  0  0  0
   21.3300  -21.8386   -8.5298 C   0  0  0  0  0  0  0  0  0  0  0  0
   21.4470  -21.6720   -7.1221 N   0  0  0  0  0  0  0  0  0  0  0  0
   25.0228  -19.6335  -12.7275 C   0  0  0  0  0  0  0  0  0  0  0  0
   24.5200  -18.4882  -12.6584 O   0  0  0  0  0  0  0  0  0  0  0  0
   28.2365  -16.6343  -15.4943 N   0  0  0  0  0  0  0  0  0  0  0  0
   28.1513  -17.9124  -16.1200 C   0  0  0  0  0  0  0  0  0  0  0  0
   28.3742  -18.0727  -17.3398 O   0  0  0  0  0  0  0  0  0  0  0  0
   27.7775  -19.0693  -15.2357 C   0  0  0  0  0  0  0  0  0  0  0  0
   26.4606  -18.7975  -14.5364 C   0  0  2  0  0  0  0  0  0  0  0  0
   26.0990  -19.8382  -13.6253 N   0  0  0  0  0  0  0  0  0  0  0  0
   25.4328  -18.6419  -15.6236 C   0  0  0  0  0  0  0  0  0  0  0  0
   25.1694  -19.6320  -16.3426 O   0  0  0  0  0  0  0  0  0  0  0  0
   20.3271  -11.5951  -18.4216 N   0  0  0  0  0  0  0  0  0  0  0  0
   20.0097  -12.7776  -19.1408 C   0  0  0  0  0  0  0  0  0  0  0  0
   19.0796  -12.7387  -20.0227 N   0  0  0  0  0  0  0  0  0  0  0  0
   20.6951  -14.0062  -18.9110 N   0  0  0  0  0  0  0  0  0  0  0  0
   21.6588  -14.1648  -17.8418 C   0  0  0  0  0  0  0  0  0  0  0  0
   22.1523  -15.6265  -17.8739 C   0  0  0  0  0  0  0  0  0  0  0  0
   23.3061  -15.8039  -16.9313 C   0  0  0  0  0  0  0  0  0  0  0  0
   23.7921  -17.1936  -16.9146 C   0  0  2  0  0  0  0  0  0  0  0  0
   24.7646  -17.4333  -15.8567 N   0  0  0  0  0  0  0  0  0  0  0  0
   24.2812  -17.6607  -18.2053 C   0  0  0  0  0  0  0  0  0  0  0  0
   25.3165  -17.1002  -18.7366 O   0  0  0  0  0  0  0  0  0  0  0  0
   23.7295  -18.6842  -18.9447 O   0  0  0  0  0  0  0  0  0  0  0  0
  2  1  1  1
  2  3  1  0
  3  4  1  0
  4  5  1  0
  6  7  1  0
  6  5  1  0
  8  9  2  0
  8  2  1  0
 11 10  1  0
 11 13  1  0
 12 11  2  0
 14 13  1  6
 14 16  1  0
 14 15  1  0
 15  8  1  0
 16 26  1  0
 17 16  2  0
 19 20  2  0
 19 18  1  0
 21 22  1  0
 21 19  1  0
 22 23  1  0
 23 24  1  0
 25 24  1  6
 25 27  1  0
 26 25  1  0
 27 28  2  0
 27 29  1  0
M  END
$$$$
