KNR.pdb
     RDKit          3D

 29 28  0  0  1  0  0  0  0  0999 V2000
   28.7171  -23.9596  -19.0892 N   0  0  0  0  0  0  0  0  0  0  0  0
   29.0117  -24.1634  -17.7036 C   0  0  1  0  0  0  0  0  0  0  0  0
   30.4680  -24.4926  -17.4251 C   0  0  0  0  0  0  0  0  0  0  0  0
   30.7637  -25.8074  -18.0572 C   0  0  0  0  0  0  0  0  0  0  0  0
   32.1714  -26.2798  -17.9832 C   0  0  0  0  0  0  0  0  0  0  0  0
   32.4753  -27.5798  -18.6348 C   0  0  0  0  0  0  0  0  0  0  0  0
   33.8422  -27.9706  -18.6805 N   0  0  0  0  0  0  0  0  0  0  0  0
   28.5939  -22.9584  -16.9476 C   0  0  0  0  0  0  0  0  0  0  0  0
   29.0760  -22.7800  -15.8052 O   0  0  0  0  0  0  0  0  0  0  0  0
   28.8782  -18.3537  -17.5537 N   0  0  0  0  0  0  0  0  0  0  0  0
   27.8914  -19.0967  -18.2654 C   0  0  0  0  0  0  0  0  0  0  0  0
   27.9286  -19.2338  -19.5076 O   0  0  0  0  0  0  0  0  0  0  0  0
   26.7935  -19.7136  -17.4441 C   0  0  0  0  0  0  0  0  0  0  0  0
   27.3290  -20.8755  -16.6315 C   0  0  2  0  0  0  0  0  0  0  0  0
   27.6798  -21.9975  -17.4451 N   0  0  0  0  0  0  0  0  0  0  0  0
   26.2491  -21.2313  -15.6466 C   0  0  0  0  0  0  0  0  0  0  0  0
   25.2335  -21.8314  -16.0649 O   0  0  0  0  0  0  0  0  0  0  0  0
   22.1558  -20.3206   -9.5162 N   0  0  0  0  0  0  0  0  0  0  0  0
   22.8798  -21.0275   -8.5200 C   0  0  0  0  0  0  0  0  0  0  0  0
   22.2330  -21.6360   -7.5949 N   0  0  0  0  0  0  0  0  0  0  0  0
   24.3043  -21.0802   -8.5186 N   0  0  0  0  0  0  0  0  0  0  0  0
   25.1020  -20.4386   -9.5427 C   0  0  0  0  0  0  0  0  0  0  0  0
   24.7276  -21.0815  -10.8946 C   0  0  0  0  0  0  0  0  0  0  0  0
   25.6415  -20.5835  -11.9753 C   0  0  0  0  0  0  0  0  0  0  0  0
   25.3148  -21.1726  -13.2845 C   0  0  2  0  0  0  0  0  0  0  0  0
   26.3417  -20.9155  -14.2853 N   0  0  0  0  0  0  0  0  0  0  0  0
   23.9899  -20.8161  -13.7752 C   0  0  0  0  0  0  0  0  0  0  0  0
   22.9978  -21.6188  -13.5754 O   0  0  0  0  0  0  0  0  0  0  0  0
   23.6755  -19.6602  -14.4560 O   0  0  0  0  0  0  0  0  0  0  0  0
  2  1  1  6
  2  3  1  0
  3  4  1  0
  4  5  1  0
  6  7  1  0
  6  5  1  0
  8  9  2  0
  8  2  1  0
 11 10  1  0
 11 13  1  0
 12 11  2  0
 14 13  1  6
 14 16  1  0
 14 15  1  0
 15  8  1  0
 16 26  1  0
 17 16  2  0
 19 20  2  0
 19 18  1  0
 21 22  1  0
 21 19  1  0
 22 23  1  0
 23 24  1  0
 25 24  1  1
 25 27  1  0
 26 25  1  0
 27 28  2  0
 27 29  1  0
M  END
$$$$
