KNR.pdb
     RDKit          3D

 29 28  0  0  1  0  0  0  0  0999 V2000
   20.3852  -18.1632  -14.2396 N   0  0  0  0  0  0  0  0  0  0  0  0
   21.5727  -18.8671  -14.6174 C   0  0  1  0  0  0  0  0  0  0  0  0
   21.4262  -20.3787  -14.5960 C   0  0  0  0  0  0  0  0  0  0  0  0
   20.4736  -20.7258  -13.5061 C   0  0  0  0  0  0  0  0  0  0  0  0
   20.1924  -22.1714  -13.3034 C   0  0  0  0  0  0  0  0  0  0  0  0
   19.1939  -22.5182  -12.2596 C   0  0  0  0  0  0  0  0  0  0  0  0
   18.8929  -23.8984  -12.0928 N   0  0  0  0  0  0  0  0  0  0  0  0
   21.9934  -18.4011  -15.9605 C   0  0  0  0  0  0  0  0  0  0  0  0
   22.9914  -18.9433  -16.4890 O   0  0  0  0  0  0  0  0  0  0  0  0
   19.3403  -17.0714  -20.6577 N   0  0  0  0  0  0  0  0  0  0  0  0
   19.6947  -17.1883  -19.2819 C   0  0  0  0  0  0  0  0  0  0  0  0
   19.1525  -18.0211  -18.5231 O   0  0  0  0  0  0  0  0  0  0  0  0
   20.7615  -16.2545  -18.7816 C   0  0  0  0  0  0  0  0  0  0  0  0
   21.7988  -17.0158  -17.9806 C   0  0  2  0  0  0  0  0  0  0  0  0
   21.3296  -17.3770  -16.6794 N   0  0  0  0  0  0  0  0  0  0  0  0
   23.0044  -16.1200  -17.8973 C   0  0  0  0  0  0  0  0  0  0  0  0
   23.5550  -15.9617  -16.7846 O   0  0  0  0  0  0  0  0  0  0  0  0
   30.6151  -18.5469  -18.1961 N   0  0  0  0  0  0  0  0  0  0  0  0
   30.7390  -17.1808  -18.5630 C   0  0  0  0  0  0  0  0  0  0  0  0
   31.9101  -16.6807  -18.7134 N   0  0  0  0  0  0  0  0  0  0  0  0
   29.5994  -16.3496  -18.7690 N   0  0  0  0  0  0  0  0  0  0  0  0
   28.2460  -16.8491  -18.6428 C   0  0  0  0  0  0  0  0  0  0  0  0
   27.2881  -15.6738  -18.9293 C   0  0  0  0  0  0  0  0  0  0  0  0
   25.8636  -16.1411  -18.8710 C   0  0  0  0  0  0  0  0  0  0  0  0
   24.9177  -15.0586  -19.1891 C   0  0  2  0  0  0  0  0  0  0  0  0
   23.5283  -15.4614  -19.0169 N   0  0  0  0  0  0  0  0  0  0  0  0
   25.1391  -14.4493  -20.4941 C   0  0  0  0  0  0  0  0  0  0  0  0
   24.6473  -15.0066  -21.5506 O   0  0  0  0  0  0  0  0  0  0  0  0
   25.8466  -13.2894  -20.7234 O   0  0  0  0  0  0  0  0  0  0  0  0
  2  1  1  6
  2  3  1  0
  3  4  1  0
  4  5  1  0
  6  7  1  0
  6  5  1  0
  8  9  2  0
  8  2  1  0
 11 10  1  0
 11 13  1  0
 12 11  2  0
 14 13  1  1
 14 16  1  0
 14 15  1  0
 15  8  1  0
 16 26  1  0
 17 16  2  0
 19 20  2  0
 19 18  1  0
 21 22  1  0
 21 19  1  0
 22 23  1  0
 23 24  1  0
 25 24  1  6
 25 27  1  0
 26 25  1  0
 27 28  2  0
 27 29  1  0
M  END
$$$$
