KNR.pdb
     RDKit          3D

 29 28  0  0  1  0  0  0  0  0999 V2000
   27.3465  -22.3536  -15.9420 N   0  0  0  0  0  0  0  0  0  0  0  0
   26.1121  -22.6336  -16.6099 C   0  0  1  0  0  0  0  0  0  0  0  0
   25.8459  -24.1144  -16.8179 C   0  0  0  0  0  0  0  0  0  0  0  0
   27.1034  -24.7345  -17.3178 C   0  0  0  0  0  0  0  0  0  0  0  0
   27.4109  -26.1038  -16.8273 C   0  0  0  0  0  0  0  0  0  0  0  0
   28.6408  -26.7442  -17.3603 C   0  0  0  0  0  0  0  0  0  0  0  0
   28.9492  -28.0449  -16.8742 N   0  0  0  0  0  0  0  0  0  0  0  0
   25.0068  -22.0054  -15.8471 C   0  0  0  0  0  0  0  0  0  0  0  0
   25.2406  -21.6153  -14.6798 O   0  0  0  0  0  0  0  0  0  0  0  0
   23.2469  -18.5050  -17.6776 N   0  0  0  0  0  0  0  0  0  0  0  0
   22.8117  -18.8723  -16.3707 C   0  0  0  0  0  0  0  0  0  0  0  0
   23.1200  -18.2104  -15.3557 O   0  0  0  0  0  0  0  0  0  0  0  0
   21.9564  -20.1046  -16.2694 C   0  0  0  0  0  0  0  0  0  0  0  0
   22.7019  -21.2087  -15.5465 C   0  0  2  0  0  0  0  0  0  0  0  0
   23.7012  -21.8218  -16.3646 N   0  0  0  0  0  0  0  0  0  0  0  0
   21.6607  -22.2057  -15.1166 C   0  0  0  0  0  0  0  0  0  0  0  0
   21.2609  -23.0488  -15.9508 O   0  0  0  0  0  0  0  0  0  0  0  0
   17.8947  -26.3420   -8.4847 N   0  0  0  0  0  0  0  0  0  0  0  0
   16.9256  -25.5088   -9.1035 C   0  0  0  0  0  0  0  0  0  0  0  0
   15.6938  -25.8644   -9.0806 N   0  0  0  0  0  0  0  0  0  0  0  0
   17.2824  -24.2890   -9.7490 N   0  0  0  0  0  0  0  0  0  0  0  0
   18.6584  -23.8565   -9.8769 C   0  0  0  0  0  0  0  0  0  0  0  0
   19.1139  -24.1748  -11.3164 C   0  0  0  0  0  0  0  0  0  0  0  0
   19.9045  -23.0283  -11.8745 C   0  0  0  0  0  0  0  0  0  0  0  0
   20.1647  -23.1908  -13.3146 C   0  0  2  0  0  0  0  0  0  0  0  0
   21.1272  -22.2220  -13.8218 N   0  0  0  0  0  0  0  0  0  0  0  0
   18.9575  -23.2212  -14.1301 C   0  0  0  0  0  0  0  0  0  0  0  0
   18.4158  -22.1119  -14.5103 O   0  0  0  0  0  0  0  0  0  0  0  0
   18.3111  -24.3609  -14.5563 O   0  0  0  0  0  0  0  0  0  0  0  0
  2  1  1  1
  2  3  1  0
  3  4  1  0
  4  5  1  0
  6  7  1  0
  6  5  1  0
  8  9  2  0
  8  2  1  0
 11 10  1  0
 11 13  1  0
 12 11  2  0
 14 13  1  6
 14 16  1  0
 14 15  1  0
 15  8  1  0
 16 26  1  0
 17 16  2  0
 19 20  2  0
 19 18  1  0
 21 22  1  0
 21 19  1  0
 22 23  1  0
 23 24  1  0
 25 24  1  1
 25 27  1  0
 26 25  1  0
 27 28  2  0
 27 29  1  0
M  END
$$$$
