KNR.pdb
     RDKit          3D

 29 28  0  0  1  0  0  0  0  0999 V2000
   19.9073  -10.9970  -15.2166 N   0  0  0  0  0  0  0  0  0  0  0  0
   19.0439   -9.8563  -15.1741 C   0  0  1  0  0  0  0  0  0  0  0  0
   17.5709  -10.2029  -15.0442 C   0  0  0  0  0  0  0  0  0  0  0  0
   17.0430  -10.4559  -16.4128 C   0  0  0  0  0  0  0  0  0  0  0  0
   16.3382   -9.3260  -17.0736 C   0  0  0  0  0  0  0  0  0  0  0  0
   15.6913   -9.6139  -18.3797 C   0  0  0  0  0  0  0  0  0  0  0  0
   14.9995   -8.5392  -19.0038 N   0  0  0  0  0  0  0  0  0  0  0  0
   19.4745   -8.9766  -14.0611 C   0  0  0  0  0  0  0  0  0  0  0  0
   19.6054   -9.4835  -12.9230 O   0  0  0  0  0  0  0  0  0  0  0  0
   22.2883   -5.5257  -11.2172 N   0  0  0  0  0  0  0  0  0  0  0  0
   21.3933   -4.9182  -12.1458 C   0  0  0  0  0  0  0  0  0  0  0  0
   20.8970   -3.7874  -11.9499 O   0  0  0  0  0  0  0  0  0  0  0  0
   21.0714   -5.7087  -13.3834 C   0  0  0  0  0  0  0  0  0  0  0  0
   20.0875   -6.8163  -13.0635 C   0  0  2  0  0  0  0  0  0  0  0  0
   19.7461   -7.5948  -14.2129 N   0  0  0  0  0  0  0  0  0  0  0  0
   18.8752   -6.1444  -12.4790 C   0  0  0  0  0  0  0  0  0  0  0  0
   18.1401   -5.4736  -13.2381 O   0  0  0  0  0  0  0  0  0  0  0  0
   12.6104   -9.6427   -7.8945 N   0  0  0  0  0  0  0  0  0  0  0  0
   12.7595   -9.6193   -9.3064 C   0  0  0  0  0  0  0  0  0  0  0  0
   12.0440  -10.4081  -10.0207 N   0  0  0  0  0  0  0  0  0  0  0  0
   13.6811   -8.7445   -9.9525 N   0  0  0  0  0  0  0  0  0  0  0  0
   14.7914   -8.1363   -9.2494 C   0  0  0  0  0  0  0  0  0  0  0  0
   15.5392   -7.2341  -10.2533 C   0  0  0  0  0  0  0  0  0  0  0  0
   16.6855   -6.5439   -9.5746 C   0  0  0  0  0  0  0  0  0  0  0  0
   17.3890   -5.6249  -10.4847 C   0  0  2  0  0  0  0  0  0  0  0  0
   18.5436   -6.2439  -11.1219 N   0  0  0  0  0  0  0  0  0  0  0  0
   17.7360   -4.3468   -9.8768 C   0  0  0  0  0  0  0  0  0  0  0  0
   18.9661   -3.9529   -9.8769 O   0  0  0  0  0  0  0  0  0  0  0  0
   16.8470   -3.4795   -9.2803 O   0  0  0  0  0  0  0  0  0  0  0  0
  2  1  1  1
  2  3  1  0
  3  4  1  0
  4  5  1  0
  6  7  1  0
  6  5  1  0
  8  9  2  0
  8  2  1  0
 11 10  1  0
 11 13  1  0
 12 11  2  0
 14 13  1  6
 14 16  1  0
 14 15  1  0
 15  8  1  0
 16 26  1  0
 17 16  2  0
 19 20  2  0
 19 18  1  0
 21 22  1  0
 21 19  1  0
 22 23  1  0
 23 24  1  0
 25 24  1  1
 25 27  1  0
 26 25  1  0
 27 28  2  0
 27 29  1  0
M  END
$$$$
