LLT.pdb
     RDKit          3D

 24 23  0  0  1  0  0  0  0  0999 V2000
    9.0968  -14.5688   18.4580 C   0  0  0  0  0  0  0  0  0  0  0  0
    8.0122  -13.6485   18.9143 C   0  0  2  0  0  0  0  0  0  0  0  0
    8.0388  -12.3751   18.1348 C   0  0  0  0  0  0  0  0  0  0  0  0
    8.1942  -13.3855   20.4031 C   0  0  0  0  0  0  0  0  0  0  0  0
    8.1910  -14.7332   21.0901 C   0  0  2  0  0  0  0  0  0  0  0  0
    6.8926  -15.3608   20.9411 N   0  0  0  0  0  0  0  0  0  0  0  0
    8.5394  -14.6233   22.5250 C   0  0  0  0  0  0  0  0  0  0  0  0
    9.7241  -14.4639   22.9306 O   0  0  0  0  0  0  0  0  0  0  0  0
    8.2030  -12.3471   27.1602 C   0  0  0  0  0  0  0  0  0  0  0  0
    6.9170  -13.1931   26.9089 C   0  0  1  0  0  0  0  0  0  0  0  0
    5.8120  -12.3207   27.4632 C   0  0  0  0  0  0  0  0  0  0  0  0
    6.8326  -13.4983   25.4553 C   0  0  0  0  0  0  0  0  0  0  0  0
    7.7371  -14.5103   24.9359 C   0  0  2  0  0  0  0  0  0  0  0  0
    7.5290  -14.6968   23.4830 N   0  0  0  0  0  0  0  0  0  0  0  0
    7.7716  -15.8505   25.5042 C   0  0  0  0  0  0  0  0  0  0  0  0
    6.7775  -16.5868   25.7557 O   0  0  0  0  0  0  0  0  0  0  0  0
    8.7742  -18.8535   24.2171 C   0  0  0  0  0  0  0  0  0  0  0  0
    9.6610  -18.7767   25.4263 C   0  0  1  0  0  0  0  0  0  0  0  0
   10.9368  -18.3081   25.0804 O   0  0  0  0  0  0  0  0  0  0  0  0
    9.0389  -17.7953   26.4050 C   0  0  2  0  0  0  0  0  0  0  0  0
    9.0353  -16.4670   25.8404 N   0  0  0  0  0  0  0  0  0  0  0  0
    9.8630  -17.7585   27.6409 C   0  0  0  0  0  0  0  0  0  0  0  0
   10.4762  -16.7201   27.9771 O   0  0  0  0  0  0  0  0  0  0  0  0
    9.9948  -18.8667   28.4811 O   0  0  0  0  0  0  0  0  0  0  0  0
  2  1  1  6
  2  3  1  0
  4  2  1  0
  4  5  1  0
  5  7  1  0
  5  6  1  1
  7  8  2  0
 10  9  1  6
 10 12  1  0
 11 10  1  0
 13 12  1  1
 14 13  1  0
 14  7  1  0
 15 16  2  0
 15 13  1  0
 18 17  1  6
 18 20  1  0
 19 18  1  0
 20 21  1  6
 21 15  1  0
 22 20  1  0
 22 24  1  0
 23 22  2  0
M  END
$$$$
