LLT.pdb
     RDKit          3D

 24 23  0  0  1  0  0  0  0  0999 V2000
    7.4715  -11.8589   25.8639 C   0  0  0  0  0  0  0  0  0  0  0  0
    6.5742  -12.8621   26.5120 C   0  0  2  0  0  0  0  0  0  0  0  0
    6.2996  -12.4849   27.9305 C   0  0  0  0  0  0  0  0  0  0  0  0
    7.2354  -14.2311   26.4254 C   0  0  0  0  0  0  0  0  0  0  0  0
    6.4921  -15.0107   25.3634 C   0  0  2  0  0  0  0  0  0  0  0  0
    5.7297  -16.0798   25.9778 N   0  0  0  0  0  0  0  0  0  0  0  0
    7.4086  -15.5645   24.3408 C   0  0  0  0  0  0  0  0  0  0  0  0
    7.7446  -16.7809   24.3107 O   0  0  0  0  0  0  0  0  0  0  0  0
    7.8881  -12.1952   20.0688 C   0  0  0  0  0  0  0  0  0  0  0  0
    7.5644  -13.4887   20.8781 C   0  0  1  0  0  0  0  0  0  0  0  0
    6.6233  -14.2444   19.9656 C   0  0  0  0  0  0  0  0  0  0  0  0
    8.8450  -14.1748   21.1983 C   0  0  0  0  0  0  0  0  0  0  0  0
    8.8204  -15.1629   22.2636 C   0  0  2  0  0  0  0  0  0  0  0  0
    7.9324  -14.7213   23.3615 N   0  0  0  0  0  0  0  0  0  0  0  0
   10.0497  -15.6068   22.9056 C   0  0  0  0  0  0  0  0  0  0  0  0
   10.6274  -15.0584   23.8849 O   0  0  0  0  0  0  0  0  0  0  0  0
   11.1933  -18.5058   24.9153 C   0  0  0  0  0  0  0  0  0  0  0  0
   11.9006  -18.5718   23.5925 C   0  0  1  0  0  0  0  0  0  0  0  0
   11.1839  -19.3621   22.6823 O   0  0  0  0  0  0  0  0  0  0  0  0
   11.9905  -17.1612   23.0356 C   0  0  2  0  0  0  0  0  0  0  0  0
   10.7355  -16.7868   22.4289 N   0  0  0  0  0  0  0  0  0  0  0  0
   13.0324  -17.1260   21.9768 C   0  0  0  0  0  0  0  0  0  0  0  0
   12.7320  -16.8980   20.7830 O   0  0  0  0  0  0  0  0  0  0  0  0
   14.3841  -17.3426   22.2549 O   0  0  0  0  0  0  0  0  0  0  0  0
  2  1  1  1
  2  3  1  0
  4  2  1  0
  4  5  1  0
  5  7  1  0
  5  6  1  1
  7  8  2  0
 10  9  1  6
 10 12  1  0
 11 10  1  0
 13 12  1  6
 14 13  1  0
 14  7  1  0
 15 16  2  0
 15 13  1  0
 18 17  1  1
 18 20  1  0
 19 18  1  0
 20 21  1  6
 21 15  1  0
 22 20  1  0
 22 24  1  0
 23 22  2  0
M  END
$$$$
