LLT.pdb
     RDKit          3D

 24 23  0  0  1  0  0  0  0  0999 V2000
    6.2292  -20.4808   26.5397 C   0  0  0  0  0  0  0  0  0  0  0  0
    7.4053  -20.7679   25.6646 C   0  0  2  0  0  0  0  0  0  0  0  0
    8.3825  -21.6512   26.3679 C   0  0  0  0  0  0  0  0  0  0  0  0
    8.0472  -19.4457   25.2661 C   0  0  0  0  0  0  0  0  0  0  0  0
    7.0061  -18.6688   24.4911 C   0  0  2  0  0  0  0  0  0  0  0  0
    6.7457  -19.3207   23.2227 N   0  0  0  0  0  0  0  0  0  0  0  0
    7.4189  -17.2651   24.2644 C   0  0  0  0  0  0  0  0  0  0  0  0
    8.1509  -16.9155   23.2972 O   0  0  0  0  0  0  0  0  0  0  0  0
    6.8421  -11.9368   24.3943 C   0  0  0  0  0  0  0  0  0  0  0  0
    6.8289  -12.5486   25.8290 C   0  0  1  0  0  0  0  0  0  0  0  0
    5.8340  -11.6813   26.5687 C   0  0  0  0  0  0  0  0  0  0  0  0
    6.4763  -13.9899   25.7214 C   0  0  0  0  0  0  0  0  0  0  0  0
    7.4657  -14.8729   25.1270 C   0  0  2  0  0  0  0  0  0  0  0  0
    6.9905  -16.2738   25.1465 N   0  0  0  0  0  0  0  0  0  0  0  0
    8.8331  -14.9137   25.6262 C   0  0  0  0  0  0  0  0  0  0  0  0
    9.8048  -14.2204   25.2155 O   0  0  0  0  0  0  0  0  0  0  0  0
   10.4463  -13.6152   28.3118 C   0  0  0  0  0  0  0  0  0  0  0  0
   10.5798  -15.0908   28.5551 C   0  0  1  0  0  0  0  0  0  0  0  0
    9.5158  -15.5661   29.3352 O   0  0  0  0  0  0  0  0  0  0  0  0
   10.5402  -15.7954   27.2098 C   0  0  2  0  0  0  0  0  0  0  0  0
    9.1902  -15.8140   26.6994 N   0  0  0  0  0  0  0  0  0  0  0  0
   10.9743  -17.2049   27.3904 C   0  0  0  0  0  0  0  0  0  0  0  0
   10.2072  -18.1564   27.1189 O   0  0  0  0  0  0  0  0  0  0  0  0
   12.2447  -17.5375   27.8666 O   0  0  0  0  0  0  0  0  0  0  0  0
  2  1  1  1
  2  3  1  0
  4  2  1  0
  4  5  1  0
  5  7  1  0
  5  6  1  6
  7  8  2  0
 10  9  1  6
 10 12  1  0
 11 10  1  0
 13 12  1  1
 14 13  1  0
 14  7  1  0
 15 16  2  0
 15 13  1  0
 18 17  1  6
 18 20  1  0
 19 18  1  0
 20 21  1  1
 21 15  1  0
 22 20  1  0
 22 24  1  0
 23 22  2  0
M  END
$$$$
