LLT.pdb
     RDKit          3D

 24 23  0  0  1  0  0  0  0  0999 V2000
    8.4376  -14.7435   18.9413 C   0  0  0  0  0  0  0  0  0  0  0  0
    7.7765  -13.6841   19.7612 C   0  0  2  0  0  0  0  0  0  0  0  0
    7.6849  -12.4055   18.9953 C   0  0  0  0  0  0  0  0  0  0  0  0
    8.5717  -13.4991   21.0466 C   0  0  0  0  0  0  0  0  0  0  0  0
    8.4261  -14.7786   21.8403 C   0  0  2  0  0  0  0  0  0  0  0  0
    7.0939  -15.3220   21.6619 N   0  0  0  0  0  0  0  0  0  0  0  0
    8.7001  -14.5704   23.2803 C   0  0  0  0  0  0  0  0  0  0  0  0
    9.8216  -14.1863   23.7143 O   0  0  0  0  0  0  0  0  0  0  0  0
    5.5161  -11.6937   26.4907 C   0  0  0  0  0  0  0  0  0  0  0  0
    6.8143  -12.3498   25.9279 C   0  0  1  0  0  0  0  0  0  0  0  0
    7.9202  -11.5914   26.6287 C   0  0  0  0  0  0  0  0  0  0  0  0
    6.7582  -13.8111   26.2014 C   0  0  0  0  0  0  0  0  0  0  0  0
    7.8379  -14.6274   25.6724 C   0  0  2  0  0  0  0  0  0  0  0  0
    7.6884  -14.8033   24.2110 N   0  0  0  0  0  0  0  0  0  0  0  0
    8.1050  -15.9566   26.2039 C   0  0  0  0  0  0  0  0  0  0  0  0
    8.1054  -16.2942   27.4202 O   0  0  0  0  0  0  0  0  0  0  0  0
    6.4947  -19.2281   25.1524 C   0  0  0  0  0  0  0  0  0  0  0  0
    7.9781  -19.4249   25.0289 C   0  0  1  0  0  0  0  0  0  0  0  0
    8.3917  -19.2784   23.6969 O   0  0  0  0  0  0  0  0  0  0  0  0
    8.6657  -18.3587   25.8646 C   0  0  2  0  0  0  0  0  0  0  0  0
    8.4082  -17.0514   25.3097 N   0  0  0  0  0  0  0  0  0  0  0  0
   10.1336  -18.5857   25.8234 C   0  0  0  0  0  0  0  0  0  0  0  0
   10.9030  -17.7425   25.3090 O   0  0  0  0  0  0  0  0  0  0  0  0
   10.7239  -19.7371   26.3497 O   0  0  0  0  0  0  0  0  0  0  0  0
  2  1  1  6
  2  3  1  0
  4  2  1  0
  4  5  1  0
  5  7  1  0
  5  6  1  1
  7  8  2  0
 10  9  1  1
 10 12  1  0
 11 10  1  0
 13 12  1  1
 14 13  1  0
 14  7  1  0
 15 16  2  0
 15 13  1  0
 18 17  1  6
 18 20  1  0
 19 18  1  0
 20 21  1  6
 21 15  1  0
 22 20  1  0
 22 24  1  0
 23 22  2  0
M  END
$$$$
