LLT.pdb
     RDKit          3D

 24 23  0  0  1  0  0  0  0  0999 V2000
    7.8030  -12.6617   19.7052 C   0  0  0  0  0  0  0  0  0  0  0  0
    7.6799  -14.1469   19.6016 C   0  0  2  0  0  0  0  0  0  0  0  0
    6.4746  -14.5214   18.8037 C   0  0  0  0  0  0  0  0  0  0  0  0
    7.6101  -14.7267   21.0079 C   0  0  0  0  0  0  0  0  0  0  0  0
    8.8387  -14.2403   21.7443 C   0  0  2  0  0  0  0  0  0  0  0  0
   10.0351  -14.7071   21.0716 N   0  0  0  0  0  0  0  0  0  0  0  0
    8.8470  -14.6813   23.1577 C   0  0  0  0  0  0  0  0  0  0  0  0
    9.7668  -15.3949   23.6458 O   0  0  0  0  0  0  0  0  0  0  0  0
    5.4436  -11.8443   26.6832 C   0  0  0  0  0  0  0  0  0  0  0  0
    6.7647  -12.4397   26.1065 C   0  0  1  0  0  0  0  0  0  0  0  0
    7.8281  -11.8896   27.0317 C   0  0  0  0  0  0  0  0  0  0  0  0
    6.6376  -13.9217   26.0759 C   0  0  0  0  0  0  0  0  0  0  0  0
    7.7057  -14.6664   25.4306 C   0  0  2  0  0  0  0  0  0  0  0  0
    7.8027  -14.3017   24.0000 N   0  0  0  0  0  0  0  0  0  0  0  0
    7.7369  -16.1217   25.4691 C   0  0  0  0  0  0  0  0  0  0  0  0
    6.7872  -16.9024   25.1826 O   0  0  0  0  0  0  0  0  0  0  0  0
    9.0840  -18.7575   23.6603 C   0  0  0  0  0  0  0  0  0  0  0  0
    9.7587  -18.9274   24.9908 C   0  0  1  0  0  0  0  0  0  0  0  0
   11.0235  -18.3215   24.9897 O   0  0  0  0  0  0  0  0  0  0  0  0
    8.9016  -18.2461   26.0439 C   0  0  2  0  0  0  0  0  0  0  0  0
    8.9423  -16.8144   25.8659 N   0  0  0  0  0  0  0  0  0  0  0  0
    9.4566  -18.5501   27.3883 C   0  0  0  0  0  0  0  0  0  0  0  0
    9.9527  -17.6481   28.1009 O   0  0  0  0  0  0  0  0  0  0  0  0
    9.4538  -19.8418   27.9202 O   0  0  0  0  0  0  0  0  0  0  0  0
  2  1  1  1
  2  3  1  0
  4  2  1  0
  4  5  1  0
  5  7  1  0
  5  6  1  6
  7  8  2  0
 10  9  1  1
 10 12  1  0
 11 10  1  0
 13 12  1  6
 14 13  1  0
 14  7  1  0
 15 16  2  0
 15 13  1  0
 18 17  1  6
 18 20  1  0
 19 18  1  0
 20 21  1  6
 21 15  1  0
 22 20  1  0
 22 24  1  0
 23 22  2  0
M  END
$$$$
