LLT.pdb
     RDKit          3D

 24 23  0  0  1  0  0  0  0  0999 V2000
    5.8155  -17.3003   19.5660 C   0  0  0  0  0  0  0  0  0  0  0  0
    5.6795  -17.5436   21.0336 C   0  0  2  0  0  0  0  0  0  0  0  0
    4.2405  -17.5771   21.4311 C   0  0  0  0  0  0  0  0  0  0  0  0
    6.4301  -16.4477   21.7782 C   0  0  0  0  0  0  0  0  0  0  0  0
    6.9498  -17.0639   23.0582 C   0  0  2  0  0  0  0  0  0  0  0  0
    5.8406  -17.5159   23.8750 N   0  0  0  0  0  0  0  0  0  0  0  0
    7.7918  -16.1180   23.8253 C   0  0  0  0  0  0  0  0  0  0  0  0
    8.8706  -15.6423   23.3741 O   0  0  0  0  0  0  0  0  0  0  0  0
    5.6048  -12.1461   26.6952 C   0  0  0  0  0  0  0  0  0  0  0  0
    6.5822  -12.9648   25.7968 C   0  0  1  0  0  0  0  0  0  0  0  0
    7.3899  -11.8948   25.0953 C   0  0  0  0  0  0  0  0  0  0  0  0
    7.3546  -13.8918   26.6672 C   0  0  0  0  0  0  0  0  0  0  0  0
    8.1967  -14.8752   26.0071 C   0  0  2  0  0  0  0  0  0  0  0  0
    7.3920  -15.7247   25.1018 N   0  0  0  0  0  0  0  0  0  0  0  0
    9.0247  -15.7933   26.7765 C   0  0  0  0  0  0  0  0  0  0  0  0
    9.6534  -15.5291   27.8388 O   0  0  0  0  0  0  0  0  0  0  0  0
    8.0436  -18.8830   28.5204 C   0  0  0  0  0  0  0  0  0  0  0  0
    9.0683  -19.2923   27.5021 C   0  0  1  0  0  0  0  0  0  0  0  0
    8.4513  -19.7234   26.3188 O   0  0  0  0  0  0  0  0  0  0  0  0
    9.9248  -18.0791   27.1819 C   0  0  2  0  0  0  0  0  0  0  0  0
    9.1914  -17.1621   26.3425 N   0  0  0  0  0  0  0  0  0  0  0  0
   11.1252  -18.5218   26.4263 C   0  0  0  0  0  0  0  0  0  0  0  0
   11.3434  -18.1120   25.2636 O   0  0  0  0  0  0  0  0  0  0  0  0
   12.0606  -19.4072   26.9670 O   0  0  0  0  0  0  0  0  0  0  0  0
  2  1  1  6
  2  3  1  0
  4  2  1  0
  4  5  1  0
  5  7  1  0
  5  6  1  1
  7  8  2  0
 10  9  1  1
 10 12  1  0
 11 10  1  0
 13 12  1  1
 14 13  1  0
 14  7  1  0
 15 16  2  0
 15 13  1  0
 18 17  1  1
 18 20  1  0
 19 18  1  0
 20 21  1  6
 21 15  1  0
 22 20  1  0
 22 24  1  0
 23 22  2  0
M  END
$$$$
