LLT.pdb
     RDKit          3D

 24 23  0  0  1  0  0  0  0  0999 V2000
    8.6828  -14.4319   18.6173 C   0  0  0  0  0  0  0  0  0  0  0  0
    7.7753  -13.7259   19.5711 C   0  0  2  0  0  0  0  0  0  0  0  0
    7.4076  -12.3765   19.0480 C   0  0  0  0  0  0  0  0  0  0  0  0
    8.4760  -13.6208   20.9190 C   0  0  0  0  0  0  0  0  0  0  0  0
    8.3346  -14.9676   21.5930 C   0  0  2  0  0  0  0  0  0  0  0  0
    6.9810  -15.4612   21.4319 N   0  0  0  0  0  0  0  0  0  0  0  0
    8.6842  -14.9061   23.0304 C   0  0  0  0  0  0  0  0  0  0  0  0
    9.8516  -14.6555   23.4400 O   0  0  0  0  0  0  0  0  0  0  0  0
    5.6439  -12.2155   26.5276 C   0  0  0  0  0  0  0  0  0  0  0  0
    6.9316  -12.8345   25.9022 C   0  0  1  0  0  0  0  0  0  0  0  0
    8.0501  -12.1044   26.6130 C   0  0  0  0  0  0  0  0  0  0  0  0
    6.8900  -14.3079   26.1042 C   0  0  0  0  0  0  0  0  0  0  0  0
    7.9190  -15.0972   25.4485 C   0  0  2  0  0  0  0  0  0  0  0  0
    7.6947  -15.1319   23.9865 N   0  0  0  0  0  0  0  0  0  0  0  0
    8.1727  -16.4763   25.8409 C   0  0  0  0  0  0  0  0  0  0  0  0
    7.3093  -17.3821   26.0073 O   0  0  0  0  0  0  0  0  0  0  0  0
    9.9126  -19.0224   24.1095 C   0  0  0  0  0  0  0  0  0  0  0  0
   10.6501  -18.9747   25.4165 C   0  0  1  0  0  0  0  0  0  0  0  0
   11.8240  -18.2163   25.2996 O   0  0  0  0  0  0  0  0  0  0  0  0
    9.7487  -18.3080   26.4417 C   0  0  2  0  0  0  0  0  0  0  0  0
    9.5246  -16.9283   26.0821 N   0  0  0  0  0  0  0  0  0  0  0  0
   10.4263  -18.3258   27.7640 C   0  0  0  0  0  0  0  0  0  0  0  0
   10.7890  -17.2632   28.3178 O   0  0  0  0  0  0  0  0  0  0  0  0
   10.6906  -19.5141   28.4492 O   0  0  0  0  0  0  0  0  0  0  0  0
  2  1  1  6
  2  3  1  0
  4  2  1  0
  4  5  1  0
  5  7  1  0
  5  6  1  1
  7  8  2  0
 10  9  1  1
 10 12  1  0
 11 10  1  0
 13 12  1  1
 14 13  1  0
 14  7  1  0
 15 16  2  0
 15 13  1  0
 18 17  1  6
 18 20  1  0
 19 18  1  0
 20 21  1  6
 21 15  1  0
 22 20  1  0
 22 24  1  0
 23 22  2  0
M  END
$$$$
