LLT.pdb
     RDKit          3D

 24 23  0  0  1  0  0  0  0  0999 V2000
    8.6501  -22.1264   18.5360 C   0  0  0  0  0  0  0  0  0  0  0  0
    7.6252  -21.1471   18.0647 C   0  0  2  0  0  0  0  0  0  0  0  0
    6.9697  -21.6315   16.8135 C   0  0  0  0  0  0  0  0  0  0  0  0
    8.3050  -19.8025   17.8442 C   0  0  0  0  0  0  0  0  0  0  0  0
    8.8436  -19.3581   19.1860 C   0  0  2  0  0  0  0  0  0  0  0  0
    7.8303  -19.5331   20.2079 N   0  0  0  0  0  0  0  0  0  0  0  0
    9.2995  -17.9496   19.1600 C   0  0  0  0  0  0  0  0  0  0  0  0
   10.1921  -17.5344   18.3699 O   0  0  0  0  0  0  0  0  0  0  0  0
    8.3514  -12.6703   18.9194 C   0  0  0  0  0  0  0  0  0  0  0  0
    8.1340  -13.2971   20.3310 C   0  0  1  0  0  0  0  0  0  0  0  0
    6.9574  -12.5203   20.8799 C   0  0  0  0  0  0  0  0  0  0  0  0
    7.9231  -14.7607   20.1671 C   0  0  0  0  0  0  0  0  0  0  0  0
    9.1080  -15.6005   20.1159 C   0  0  2  0  0  0  0  0  0  0  0  0
    8.7297  -17.0287   20.0383 N   0  0  0  0  0  0  0  0  0  0  0  0
   10.1317  -15.5196   21.1483 C   0  0  0  0  0  0  0  0  0  0  0  0
   10.8316  -14.5092   21.4362 O   0  0  0  0  0  0  0  0  0  0  0  0
    9.7897  -16.0477   24.7861 C   0  0  0  0  0  0  0  0  0  0  0  0
   10.8238  -17.0388   24.3359 C   0  0  1  0  0  0  0  0  0  0  0  0
   10.2464  -18.2980   24.1177 O   0  0  0  0  0  0  0  0  0  0  0  0
   11.4088  -16.5456   23.0234 C   0  0  2  0  0  0  0  0  0  0  0  0
   10.4333  -16.6722   21.9672 N   0  0  0  0  0  0  0  0  0  0  0  0
   12.5746  -17.3946   22.6657 C   0  0  0  0  0  0  0  0  0  0  0  0
   12.5756  -18.0820   21.6193 O   0  0  0  0  0  0  0  0  0  0  0  0
   13.7157  -17.4688   23.4680 O   0  0  0  0  0  0  0  0  0  0  0  0
  2  1  1  6
  2  3  1  0
  4  2  1  0
  4  5  1  0
  5  7  1  0
  5  6  1  1
  7  8  2  0
 10  9  1  6
 10 12  1  0
 11 10  1  0
 13 12  1  1
 14 13  1  0
 14  7  1  0
 15 16  2  0
 15 13  1  0
 18 17  1  6
 18 20  1  0
 19 18  1  0
 20 21  1  6
 21 15  1  0
 22 20  1  0
 22 24  1  0
 23 22  2  0
M  END
$$$$
