LLT.pdb
     RDKit          3D

 24 23  0  0  1  0  0  0  0  0999 V2000
    4.9532  -22.0311   20.2252 C   0  0  0  0  0  0  0  0  0  0  0  0
    6.2884  -21.4931   20.6249 C   0  0  2  0  0  0  0  0  0  0  0  0
    6.8722  -22.3035   21.7350 C   0  0  0  0  0  0  0  0  0  0  0  0
    6.1206  -20.0367   21.0368 C   0  0  0  0  0  0  0  0  0  0  0  0
    6.3027  -19.2039   19.7872 C   0  0  2  0  0  0  0  0  0  0  0  0
    6.6598  -20.0581   18.6716 N   0  0  0  0  0  0  0  0  0  0  0  0
    7.3285  -18.1516   19.9687 C   0  0  0  0  0  0  0  0  0  0  0  0
    8.5262  -18.2929   19.5959 O   0  0  0  0  0  0  0  0  0  0  0  0
    8.8973  -13.2612   19.3815 C   0  0  0  0  0  0  0  0  0  0  0  0
    8.0288  -13.3103   20.6761 C   0  0  1  0  0  0  0  0  0  0  0  0
    7.2612  -12.0073   20.6305 C   0  0  0  0  0  0  0  0  0  0  0  0
    7.2043  -14.5483   20.6415 C   0  0  0  0  0  0  0  0  0  0  0  0
    7.9014  -15.8145   20.7922 C   0  0  2  0  0  0  0  0  0  0  0  0
    6.9745  -16.9470   20.5751 N   0  0  0  0  0  0  0  0  0  0  0  0
    8.6305  -16.1304   22.0125 C   0  0  0  0  0  0  0  0  0  0  0  0
    8.1624  -16.1503   23.1847 O   0  0  0  0  0  0  0  0  0  0  0  0
   10.0141  -19.1657   23.1849 C   0  0  0  0  0  0  0  0  0  0  0  0
   11.2092  -18.2614   23.0933 C   0  0  1  0  0  0  0  0  0  0  0  0
   11.8734  -18.4346   21.8703 O   0  0  0  0  0  0  0  0  0  0  0  0
   10.7203  -16.8252   23.1742 C   0  0  2  0  0  0  0  0  0  0  0  0
   10.0357  -16.4652   21.9556 N   0  0  0  0  0  0  0  0  0  0  0  0
   11.8929  -15.9238   23.3169 C   0  0  0  0  0  0  0  0  0  0  0  0
   12.2411  -15.1651   22.3838 O   0  0  0  0  0  0  0  0  0  0  0  0
   12.6579  -15.8765   24.4847 O   0  0  0  0  0  0  0  0  0  0  0  0
  2  1  1  1
  2  3  1  0
  4  2  1  0
  4  5  1  0
  5  7  1  0
  5  6  1  6
  7  8  2  0
 10  9  1  6
 10 12  1  0
 11 10  1  0
 13 12  1  1
 14 13  1  0
 14  7  1  0
 15 16  2  0
 15 13  1  0
 18 17  1  6
 18 20  1  0
 19 18  1  0
 20 21  1  6
 21 15  1  0
 22 20  1  0
 22 24  1  0
 23 22  2  0
M  END
$$$$
