LLT.pdb
     RDKit          3D

 24 23  0  0  1  0  0  0  0  0999 V2000
    6.2818  -12.7681   26.2211 C   0  0  0  0  0  0  0  0  0  0  0  0
    7.1507  -13.6497   27.0575 C   0  0  2  0  0  0  0  0  0  0  0  0
    8.0978  -12.8341   27.8746 C   0  0  0  0  0  0  0  0  0  0  0  0
    7.8998  -14.6049   26.1381 C   0  0  0  0  0  0  0  0  0  0  0  0
    6.8725  -15.2200   25.2137 C   0  0  2  0  0  0  0  0  0  0  0  0
    6.1949  -16.3120   25.8847 N   0  0  0  0  0  0  0  0  0  0  0  0
    7.4807  -15.6996   23.9519 C   0  0  0  0  0  0  0  0  0  0  0  0
    7.4398  -16.9081   23.5893 O   0  0  0  0  0  0  0  0  0  0  0  0
    6.3014  -13.9142   20.9820 C   0  0  0  0  0  0  0  0  0  0  0  0
    7.5759  -13.5910   20.1431 C   0  0  1  0  0  0  0  0  0  0  0  0
    7.4114  -12.1242   19.8101 C   0  0  0  0  0  0  0  0  0  0  0  0
    8.7730  -13.9397   20.9547 C   0  0  0  0  0  0  0  0  0  0  0  0
    8.6874  -15.1278   21.7872 C   0  0  2  0  0  0  0  0  0  0  0  0
    8.1304  -14.7921   23.1161 N   0  0  0  0  0  0  0  0  0  0  0  0
    9.8614  -15.9489   22.0481 C   0  0  0  0  0  0  0  0  0  0  0  0
   10.4644  -16.6844   21.2181 O   0  0  0  0  0  0  0  0  0  0  0  0
   13.1485  -15.2187   22.6243 C   0  0  0  0  0  0  0  0  0  0  0  0
   12.8277  -15.9855   23.8747 C   0  0  1  0  0  0  0  0  0  0  0  0
   12.5461  -15.1136   24.9364 O   0  0  0  0  0  0  0  0  0  0  0  0
   11.5928  -16.8287   23.6062 C   0  0  2  0  0  0  0  0  0  0  0  0
   10.4529  -15.9762   23.3669 N   0  0  0  0  0  0  0  0  0  0  0  0
   11.2982  -17.6496   24.8092 C   0  0  0  0  0  0  0  0  0  0  0  0
   10.1840  -17.5866   25.3767 O   0  0  0  0  0  0  0  0  0  0  0  0
   12.2373  -18.5232   25.3626 O   0  0  0  0  0  0  0  0  0  0  0  0
  2  1  1  6
  2  3  1  0
  4  2  1  0
  4  5  1  0
  5  7  1  0
  5  6  1  1
  7  8  2  0
 10  9  1  1
 10 12  1  0
 11 10  1  0
 13 12  1  1
 14 13  1  0
 14  7  1  0
 15 16  2  0
 15 13  1  0
 18 17  1  6
 18 20  1  0
 19 18  1  0
 20 21  1  1
 21 15  1  0
 22 20  1  0
 22 24  1  0
 23 22  2  0
M  END
$$$$
