LLT.pdb
     RDKit          3D

 24 23  0  0  1  0  0  0  0  0999 V2000
   11.4233  -16.0560   30.1176 C   0  0  0  0  0  0  0  0  0  0  0  0
   10.8308  -15.3787   28.9252 C   0  0  2  0  0  0  0  0  0  0  0  0
   10.5138  -13.9522   29.2328 C   0  0  0  0  0  0  0  0  0  0  0  0
    9.5814  -16.1414   28.5056 C   0  0  0  0  0  0  0  0  0  0  0  0
    9.6778  -16.3525   27.0109 C   0  0  2  0  0  0  0  0  0  0  0  0
   10.7766  -15.5754   26.4718 N   0  0  0  0  0  0  0  0  0  0  0  0
    8.4178  -15.9963   26.3197 C   0  0  0  0  0  0  0  0  0  0  0  0
    7.3180  -16.5644   26.5672 O   0  0  0  0  0  0  0  0  0  0  0  0
    6.4989  -13.1674   27.2201 C   0  0  0  0  0  0  0  0  0  0  0  0
    6.1780  -12.5013   25.8468 C   0  0  1  0  0  0  0  0  0  0  0  0
    6.2764  -11.0214   26.1457 C   0  0  0  0  0  0  0  0  0  0  0  0
    7.1380  -13.0224   24.8367 C   0  0  0  0  0  0  0  0  0  0  0  0
    7.2192  -14.4649   24.6804 C   0  0  2  0  0  0  0  0  0  0  0  0
    8.4274  -14.9931   25.3513 N   0  0  0  0  0  0  0  0  0  0  0  0
    7.2007  -15.0802   23.3607 C   0  0  0  0  0  0  0  0  0  0  0  0
    6.1901  -15.5375   22.7581 O   0  0  0  0  0  0  0  0  0  0  0  0
    7.6525  -13.5544   20.3977 C   0  0  0  0  0  0  0  0  0  0  0  0
    8.6899  -14.6312   20.2610 C   0  0  1  0  0  0  0  0  0  0  0  0
    9.9673  -14.1338   20.5570 O   0  0  0  0  0  0  0  0  0  0  0  0
    8.3611  -15.7310   21.2561 C   0  0  2  0  0  0  0  0  0  0  0  0
    8.4243  -15.2160   22.6029 N   0  0  0  0  0  0  0  0  0  0  0  0
    9.3767  -16.8091   21.1365 C   0  0  0  0  0  0  0  0  0  0  0  0
   10.0710  -17.1537   22.1197 O   0  0  0  0  0  0  0  0  0  0  0  0
    9.6065  -17.4856   19.9362 O   0  0  0  0  0  0  0  0  0  0  0  0
  2  1  1  1
  2  3  1  0
  4  2  1  0
  4  5  1  0
  5  7  1  0
  5  6  1  6
  7  8  2  0
 10  9  1  1
 10 12  1  0
 11 10  1  0
 13 12  1  6
 14 13  1  0
 14  7  1  0
 15 16  2  0
 15 13  1  0
 18 17  1  1
 18 20  1  0
 19 18  1  0
 20 21  1  1
 21 15  1  0
 22 20  1  0
 22 24  1  0
 23 22  2  0
M  END
$$$$
