LLT.pdb
     RDKit          3D

 24 23  0  0  1  0  0  0  0  0999 V2000
    6.3031  -18.0307   20.0102 C   0  0  0  0  0  0  0  0  0  0  0  0
    7.6991  -18.5559   20.0942 C   0  0  2  0  0  0  0  0  0  0  0  0
    7.6995  -20.0488   20.1263 C   0  0  0  0  0  0  0  0  0  0  0  0
    8.3599  -17.9790   21.3389 C   0  0  0  0  0  0  0  0  0  0  0  0
    8.2860  -16.4731   21.2167 C   0  0  2  0  0  0  0  0  0  0  0  0
    9.1350  -16.0231   20.1312 N   0  0  0  0  0  0  0  0  0  0  0  0
    8.6717  -15.7965   22.4760 C   0  0  0  0  0  0  0  0  0  0  0  0
    9.8632  -15.4757   22.7425 O   0  0  0  0  0  0  0  0  0  0  0  0
    8.2924  -12.2135   26.2945 C   0  0  0  0  0  0  0  0  0  0  0  0
    7.0753  -13.1864   26.3641 C   0  0  1  0  0  0  0  0  0  0  0  0
    5.9236  -12.2778   26.7347 C   0  0  0  0  0  0  0  0  0  0  0  0
    6.9550  -13.8820   25.0546 C   0  0  0  0  0  0  0  0  0  0  0  0
    7.9590  -14.8847   24.7408 C   0  0  2  0  0  0  0  0  0  0  0  0
    7.6907  -15.4929   23.4191 N   0  0  0  0  0  0  0  0  0  0  0  0
    8.2158  -15.9989   25.6424 C   0  0  0  0  0  0  0  0  0  0  0  0
    7.3586  -16.6321   26.3191 O   0  0  0  0  0  0  0  0  0  0  0  0
   10.0287  -19.1402   24.6966 C   0  0  0  0  0  0  0  0  0  0  0  0
   10.7244  -18.6169   25.9200 C   0  0  1  0  0  0  0  0  0  0  0  0
   11.8808  -17.9049   25.5702 O   0  0  0  0  0  0  0  0  0  0  0  0
    9.7747  -17.6690   26.6325 C   0  0  2  0  0  0  0  0  0  0  0  0
    9.5636  -16.4856   25.8337 N   0  0  0  0  0  0  0  0  0  0  0  0
   10.3906  -17.2437   27.9161 C   0  0  0  0  0  0  0  0  0  0  0  0
   10.6387  -18.0743   28.8195 O   0  0  0  0  0  0  0  0  0  0  0  0
   10.7205  -15.9119   28.1784 O   0  0  0  0  0  0  0  0  0  0  0  0
  2  1  1  1
  2  3  1  0
  4  2  1  0
  4  5  1  0
  5  7  1  0
  5  6  1  6
  7  8  2  0
 10  9  1  6
 10 12  1  0
 11 10  1  0
 13 12  1  1
 14 13  1  0
 14  7  1  0
 15 16  2  0
 15 13  1  0
 18 17  1  6
 18 20  1  0
 19 18  1  0
 20 21  1  6
 21 15  1  0
 22 20  1  0
 22 24  1  0
 23 22  2  0
M  END
$$$$
