LLT.pdb
     RDKit          3D

 24 23  0  0  1  0  0  0  0  0999 V2000
    7.9201  -14.7896   18.4809 C   0  0  0  0  0  0  0  0  0  0  0  0
    7.7884  -13.8317   19.6196 C   0  0  2  0  0  0  0  0  0  0  0  0
    7.6256  -12.4349   19.1173 C   0  0  0  0  0  0  0  0  0  0  0  0
    9.0215  -13.9577   20.5041 C   0  0  0  0  0  0  0  0  0  0  0  0
    8.7470  -15.0784   21.4822 C   0  0  2  0  0  0  0  0  0  0  0  0
    7.3894  -15.5588   21.3152 N   0  0  0  0  0  0  0  0  0  0  0  0
    8.9662  -14.6551   22.8840 C   0  0  0  0  0  0  0  0  0  0  0  0
   10.0789  -14.2326   23.3046 O   0  0  0  0  0  0  0  0  0  0  0  0
    7.7972  -11.7106   27.0644 C   0  0  0  0  0  0  0  0  0  0  0  0
    6.7477  -12.8492   26.8779 C   0  0  1  0  0  0  0  0  0  0  0  0
    5.4382  -12.1771   27.2284 C   0  0  0  0  0  0  0  0  0  0  0  0
    6.8577  -13.3656   25.4870 C   0  0  0  0  0  0  0  0  0  0  0  0
    7.9783  -14.2422   25.1911 C   0  0  2  0  0  0  0  0  0  0  0  0
    7.9100  -14.7188   23.7921 N   0  0  0  0  0  0  0  0  0  0  0  0
    8.2403  -15.4257   25.9981 C   0  0  0  0  0  0  0  0  0  0  0  0
    8.3376  -15.4721   27.2558 O   0  0  0  0  0  0  0  0  0  0  0  0
    6.4120  -18.7958   25.7140 C   0  0  0  0  0  0  0  0  0  0  0  0
    7.8848  -19.0699   25.6134 C   0  0  1  0  0  0  0  0  0  0  0  0
    8.2733  -19.2240   24.2747 O   0  0  0  0  0  0  0  0  0  0  0  0
    8.6264  -17.8777   26.1937 C   0  0  2  0  0  0  0  0  0  0  0  0
    8.4183  -16.7137   25.3661 N   0  0  0  0  0  0  0  0  0  0  0  0
   10.0827  -18.1723   26.2010 C   0  0  0  0  0  0  0  0  0  0  0  0
   10.8832  -17.4874   25.5246 O   0  0  0  0  0  0  0  0  0  0  0  0
   10.6275  -19.2157   26.9534 O   0  0  0  0  0  0  0  0  0  0  0  0
  2  1  1  6
  2  3  1  0
  4  2  1  0
  4  5  1  0
  5  7  1  0
  5  6  1  1
  7  8  2  0
 10  9  1  6
 10 12  1  0
 11 10  1  0
 13 12  1  1
 14 13  1  0
 14  7  1  0
 15 16  2  0
 15 13  1  0
 18 17  1  6
 18 20  1  0
 19 18  1  0
 20 21  1  6
 21 15  1  0
 22 20  1  0
 22 24  1  0
 23 22  2  0
M  END
$$$$
