GQE.pdb
     RDKit          3D

 23 22  0  0  1  0  0  0  0  0999 V2000
    9.6617  -17.5147   17.0647 N   0  0  0  0  0  0  0  0  0  0  0  0
    9.0935  -17.8206   18.3395 C   0  0  0  0  0  0  0  0  0  0  0  0
    9.3784  -16.7399   19.3478 C   0  0  0  0  0  0  0  0  0  0  0  0
   10.5657  -16.4349   19.6039 O   0  0  0  0  0  0  0  0  0  0  0  0
    6.4395  -13.7935   18.5614 N   0  0  0  0  0  0  0  0  0  0  0  0
    7.4961  -13.3062   19.3602 C   0  0  0  0  0  0  0  0  0  0  0  0
    8.6004  -13.0763   18.8362 O   0  0  0  0  0  0  0  0  0  0  0  0
    7.3004  -13.0702   20.7996 C   0  0  0  0  0  0  0  0  0  0  0  0
    7.4194  -14.3584   21.5372 C   0  0  0  0  0  0  0  0  0  0  0  0
    8.6232  -15.1729   21.1519 C   0  0  2  0  0  0  0  0  0  0  0  0
    8.3482  -16.0511   20.0216 N   0  0  0  0  0  0  0  0  0  0  0  0
    9.1139  -16.0114   22.2763 C   0  0  0  0  0  0  0  0  0  0  0  0
    8.4767  -17.0536   22.6505 O   0  0  0  0  0  0  0  0  0  0  0  0
   10.2961  -15.7213   22.9966 N   0  0  0  0  0  0  0  0  0  0  0  0
   10.7489  -16.5808   24.1094 C   0  0  1  0  0  0  0  0  0  0  0  0
   12.2308  -16.4146   24.3158 C   0  0  0  0  0  0  0  0  0  0  0  0
   13.0801  -16.7407   23.1425 C   0  0  0  0  0  0  0  0  0  0  0  0
   14.5114  -16.4670   23.2934 C   0  0  0  0  0  0  0  0  0  0  0  0
   15.2555  -17.1269   24.0593 O   0  0  0  0  0  0  0  0  0  0  0  0
   10.0553  -16.1259   25.3356 C   0  0  0  0  0  0  0  0  0  0  0  0
    9.4084  -15.0574   25.3681 O   0  0  0  0  0  0  0  0  0  0  0  0
   15.1414  -15.4406   22.5836 O   0  0  0  0  0  0  0  0  0  0  0  0
   10.1063  -16.8821   26.4918 O   0  0  0  0  0  0  0  0  0  0  0  0
  2  1  1  0
  3  4  2  0
  3  2  1  0
  6  7  2  0
  6  5  1  0
  8  6  1  0
 10  9  1  1
  9  8  1  0
 10 11  1  0
 11  3  1  0
 12 10  1  0
 13 12  2  0
 14 12  1  0
 15 14  1  0
 15 16  1  1
 17 16  1  0
 18 19  2  0
 18 17  1  0
 20 23  1  0
 20 15  1  0
 21 20  2  0
 22 18  1  0
M  END
$$$$
