GQE.pdb
     RDKit          3D

 23 22  0  0  1  0  0  0  0  0999 V2000
    7.8887  -12.9479   18.4077 N   0  0  0  0  0  0  0  0  0  0  0  0
    7.0864  -13.4055   19.4979 C   0  0  0  0  0  0  0  0  0  0  0  0
    7.8686  -13.4471   20.7833 C   0  0  0  0  0  0  0  0  0  0  0  0
    9.1026  -13.2346   20.7598 O   0  0  0  0  0  0  0  0  0  0  0  0
    5.6719  -12.2747   26.4795 N   0  0  0  0  0  0  0  0  0  0  0  0
    7.0398  -12.5053   26.7396 C   0  0  0  0  0  0  0  0  0  0  0  0
    7.5097  -12.1972   27.8491 O   0  0  0  0  0  0  0  0  0  0  0  0
    7.9075  -13.1042   25.7128 C   0  0  0  0  0  0  0  0  0  0  0  0
    7.1952  -13.1203   24.4051 C   0  0  0  0  0  0  0  0  0  0  0  0
    8.0092  -13.6853   23.2741 C   0  0  2  0  0  0  0  0  0  0  0  0
    7.2580  -13.7190   22.0255 N   0  0  0  0  0  0  0  0  0  0  0  0
    8.4845  -15.0637   23.5616 C   0  0  0  0  0  0  0  0  0  0  0  0
    7.6842  -16.0590   23.5276 O   0  0  0  0  0  0  0  0  0  0  0  0
    9.8278  -15.3647   23.8862 N   0  0  0  0  0  0  0  0  0  0  0  0
   10.2827  -16.7594   24.0595 C   0  0  1  0  0  0  0  0  0  0  0  0
   11.7594  -16.8554   23.7827 C   0  0  0  0  0  0  0  0  0  0  0  0
   12.3705  -18.1859   24.0283 C   0  0  0  0  0  0  0  0  0  0  0  0
   13.8162  -18.1915   24.2660 C   0  0  0  0  0  0  0  0  0  0  0  0
   14.5566  -17.2155   23.9922 O   0  0  0  0  0  0  0  0  0  0  0  0
   10.0500  -17.1326   25.4731 C   0  0  0  0  0  0  0  0  0  0  0  0
    9.7637  -18.3022   25.8067 O   0  0  0  0  0  0  0  0  0  0  0  0
   14.4649  -19.2993   24.8192 O   0  0  0  0  0  0  0  0  0  0  0  0
   10.1446  -16.1835   26.4738 O   0  0  0  0  0  0  0  0  0  0  0  0
  2  1  1  0
  3  4  2  0
  3  2  1  0
  6  7  2  0
  6  5  1  0
  8  6  1  0
 10  9  1  1
  9  8  1  0
 10 11  1  0
 11  3  1  0
 12 10  1  0
 13 12  2  0
 14 12  1  0
 15 14  1  0
 15 16  1  1
 17 16  1  0
 18 19  2  0
 18 17  1  0
 20 23  1  0
 20 15  1  0
 21 20  2  0
 22 18  1  0
M  END
$$$$
