GQE.pdb
     RDKit          3D

 23 22  0  0  1  0  0  0  0  0999 V2000
   15.5799  -14.2349   16.4512 N   0  0  0  0  0  0  0  0  0  0  0  0
   14.2703  -14.8025   16.5167 C   0  0  0  0  0  0  0  0  0  0  0  0
   13.5439  -14.3793   17.7652 C   0  0  0  0  0  0  0  0  0  0  0  0
   14.1966  -13.9249   18.7327 O   0  0  0  0  0  0  0  0  0  0  0  0
    7.3362  -13.6243   18.5670 N   0  0  0  0  0  0  0  0  0  0  0  0
    7.8085  -13.5062   19.8917 C   0  0  0  0  0  0  0  0  0  0  0  0
    7.0061  -13.2382   20.8034 O   0  0  0  0  0  0  0  0  0  0  0  0
    9.2351  -13.6970   20.1987 C   0  0  0  0  0  0  0  0  0  0  0  0
    9.9748  -14.0262   18.9488 C   0  0  0  0  0  0  0  0  0  0  0  0
   11.4583  -14.1796   19.1404 C   0  0  2  0  0  0  0  0  0  0  0  0
   12.1419  -14.4761   17.8878 N   0  0  0  0  0  0  0  0  0  0  0  0
   11.7883  -15.2564   20.1099 C   0  0  0  0  0  0  0  0  0  0  0  0
   11.7060  -16.4885   19.7822 O   0  0  0  0  0  0  0  0  0  0  0  0
   12.2079  -14.9989   21.4359 N   0  0  0  0  0  0  0  0  0  0  0  0
   12.6050  -16.0950   22.3431 C   0  0  1  0  0  0  0  0  0  0  0  0
   13.9978  -15.8532   22.8608 C   0  0  0  0  0  0  0  0  0  0  0  0
   15.0896  -16.0507   21.8743 C   0  0  0  0  0  0  0  0  0  0  0  0
   16.4476  -15.8034   22.3654 C   0  0  0  0  0  0  0  0  0  0  0  0
   16.6869  -15.3498   23.5112 O   0  0  0  0  0  0  0  0  0  0  0  0
   11.6732  -16.0822   23.4934 C   0  0  0  0  0  0  0  0  0  0  0  0
   11.7717  -16.9039   24.4295 O   0  0  0  0  0  0  0  0  0  0  0  0
   17.5720  -16.0615   21.5761 O   0  0  0  0  0  0  0  0  0  0  0  0
   10.6565  -15.1481   23.5621 O   0  0  0  0  0  0  0  0  0  0  0  0
  2  1  1  0
  3  4  2  0
  3  2  1  0
  6  7  2  0
  6  5  1  0
  8  6  1  0
 10  9  1  6
  9  8  1  0
 10 11  1  0
 11  3  1  0
 12 10  1  0
 13 12  2  0
 14 12  1  0
 15 14  1  0
 15 16  1  1
 17 16  1  0
 18 19  2  0
 18 17  1  0
 20 23  1  0
 20 15  1  0
 21 20  2  0
 22 18  1  0
M  END
$$$$
