GQE.pdb
     RDKit          3D

 23 22  0  0  1  0  0  0  0  0999 V2000
    9.0180  -17.8670   16.0561 N   0  0  0  0  0  0  0  0  0  0  0  0
    8.7802  -18.0291   17.4556 C   0  0  0  0  0  0  0  0  0  0  0  0
    9.3280  -16.8732   18.2490 C   0  0  0  0  0  0  0  0  0  0  0  0
   10.5233  -16.5327   18.0951 O   0  0  0  0  0  0  0  0  0  0  0  0
    9.5043  -12.6543   18.8753 N   0  0  0  0  0  0  0  0  0  0  0  0
    8.1368  -12.8341   18.5758 C   0  0  0  0  0  0  0  0  0  0  0  0
    7.6830  -12.3880   17.5072 O   0  0  0  0  0  0  0  0  0  0  0  0
    7.2508  -13.5416   19.5140 C   0  0  0  0  0  0  0  0  0  0  0  0
    8.0668  -14.1957   20.5742 C   0  0  0  0  0  0  0  0  0  0  0  0
    9.1118  -15.1386   20.0449 C   0  0  2  0  0  0  0  0  0  0  0  0
    8.5379  -16.1520   19.1685 N   0  0  0  0  0  0  0  0  0  0  0  0
    9.8409  -15.8348   21.1366 C   0  0  0  0  0  0  0  0  0  0  0  0
    9.2699  -16.7310   21.8458 O   0  0  0  0  0  0  0  0  0  0  0  0
   11.1900  -15.5605   21.4609 N   0  0  0  0  0  0  0  0  0  0  0  0
   11.9618  -16.4484   22.3543 C   0  0  1  0  0  0  0  0  0  0  0  0
   13.4278  -16.3599   22.0239 C   0  0  0  0  0  0  0  0  0  0  0  0
   13.9300  -14.9998   21.7042 C   0  0  0  0  0  0  0  0  0  0  0  0
   15.2002  -14.9419   20.9764 C   0  0  0  0  0  0  0  0  0  0  0  0
   15.2691  -14.7462   19.7384 O   0  0  0  0  0  0  0  0  0  0  0  0
   11.7681  -15.9652   23.7402 C   0  0  0  0  0  0  0  0  0  0  0  0
   12.3080  -16.5292   24.7156 O   0  0  0  0  0  0  0  0  0  0  0  0
   16.4270  -15.1034   21.6269 O   0  0  0  0  0  0  0  0  0  0  0  0
   10.9739  -14.8624   23.9939 O   0  0  0  0  0  0  0  0  0  0  0  0
  2  1  1  0
  3  4  2  0
  3  2  1  0
  6  7  2  0
  6  5  1  0
  8  6  1  0
 10  9  1  1
  9  8  1  0
 10 11  1  0
 11  3  1  0
 12 10  1  0
 13 12  2  0
 14 12  1  0
 15 14  1  0
 15 16  1  6
 17 16  1  0
 18 19  2  0
 18 17  1  0
 20 23  1  0
 20 15  1  0
 21 20  2  0
 22 18  1  0
M  END
$$$$
