GQE.pdb
     RDKit          3D

 23 22  0  0  1  0  0  0  0  0999 V2000
   12.3857  -19.0253   16.9224 N   0  0  0  0  0  0  0  0  0  0  0  0
   12.2351  -19.2941   18.3176 C   0  0  0  0  0  0  0  0  0  0  0  0
   12.6841  -18.1294   19.1587 C   0  0  0  0  0  0  0  0  0  0  0  0
   13.3694  -17.2208   18.6359 O   0  0  0  0  0  0  0  0  0  0  0  0
   10.3610  -15.5393   24.4549 N   0  0  0  0  0  0  0  0  0  0  0  0
   10.4939  -16.9385   24.3272 C   0  0  0  0  0  0  0  0  0  0  0  0
   10.0382  -17.6780   25.2173 O   0  0  0  0  0  0  0  0  0  0  0  0
   11.1641  -17.5239   23.1550 C   0  0  0  0  0  0  0  0  0  0  0  0
   11.6396  -16.4354   22.2568 C   0  0  0  0  0  0  0  0  0  0  0  0
   12.7352  -16.8555   21.3164 C   0  0  2  0  0  0  0  0  0  0  0  0
   12.3587  -18.0216   20.5271 N   0  0  0  0  0  0  0  0  0  0  0  0
   13.9964  -17.1746   22.0345 C   0  0  0  0  0  0  0  0  0  0  0  0
   14.2863  -18.3758   22.3590 O   0  0  0  0  0  0  0  0  0  0  0  0
   14.9450  -16.1919   22.4018 N   0  0  0  0  0  0  0  0  0  0  0  0
   16.2109  -16.5571   23.0698 C   0  0  1  0  0  0  0  0  0  0  0  0
   17.1951  -15.4234   22.9588 C   0  0  0  0  0  0  0  0  0  0  0  0
   18.5120  -15.6546   23.6042 C   0  0  0  0  0  0  0  0  0  0  0  0
   19.6431  -15.8559   22.6951 C   0  0  0  0  0  0  0  0  0  0  0  0
   20.2891  -16.9307   22.6368 O   0  0  0  0  0  0  0  0  0  0  0  0
   15.9127  -16.7744   24.5035 C   0  0  0  0  0  0  0  0  0  0  0  0
   16.6214  -17.5143   25.2186 O   0  0  0  0  0  0  0  0  0  0  0  0
   20.0755  -14.8490   21.8272 O   0  0  0  0  0  0  0  0  0  0  0  0
   14.8274  -16.1558   25.0958 O   0  0  0  0  0  0  0  0  0  0  0  0
  2  1  1  0
  3  4  2  0
  3  2  1  0
  6  7  2  0
  6  5  1  0
  8  6  1  0
 10  9  1  1
  9  8  1  0
 10 11  1  0
 11  3  1  0
 12 10  1  0
 13 12  2  0
 14 12  1  0
 15 14  1  0
 15 16  1  1
 17 16  1  0
 18 19  2  0
 18 17  1  0
 20 23  1  0
 20 15  1  0
 21 20  2  0
 22 18  1  0
M  END
$$$$
