GQE.pdb
     RDKit          3D

 23 22  0  0  1  0  0  0  0  0999 V2000
    5.7071  -18.3061   19.1330 N   0  0  0  0  0  0  0  0  0  0  0  0
    6.5511  -18.4013   20.2820 C   0  0  0  0  0  0  0  0  0  0  0  0
    7.5963  -17.3183   20.2940 C   0  0  0  0  0  0  0  0  0  0  0  0
    8.7616  -17.5836   19.9196 O   0  0  0  0  0  0  0  0  0  0  0  0
    9.4204  -12.6759   18.6512 N   0  0  0  0  0  0  0  0  0  0  0  0
    8.1286  -13.1352   18.3166 C   0  0  0  0  0  0  0  0  0  0  0  0
    7.8657  -13.4054   17.1313 O   0  0  0  0  0  0  0  0  0  0  0  0
    7.0977  -13.2954   19.3546 C   0  0  0  0  0  0  0  0  0  0  0  0
    7.7475  -13.5882   20.6622 C   0  0  0  0  0  0  0  0  0  0  0  0
    8.3362  -14.9687   20.7551 C   0  0  2  0  0  0  0  0  0  0  0  0
    7.3099  -16.0028   20.7152 N   0  0  0  0  0  0  0  0  0  0  0  0
    9.1288  -15.1558   21.9981 C   0  0  0  0  0  0  0  0  0  0  0  0
    8.5817  -15.0717   23.1496 O   0  0  0  0  0  0  0  0  0  0  0  0
   10.5155  -15.4344   21.9944 N   0  0  0  0  0  0  0  0  0  0  0  0
   11.2577  -15.6596   23.2517 C   0  0  1  0  0  0  0  0  0  0  0  0
   10.7664  -16.9162   23.9193 C   0  0  0  0  0  0  0  0  0  0  0  0
   10.9129  -18.1615   23.1244 C   0  0  0  0  0  0  0  0  0  0  0  0
   10.5714  -19.4064   23.8173 C   0  0  0  0  0  0  0  0  0  0  0  0
   11.3651  -19.9974   24.5896 O   0  0  0  0  0  0  0  0  0  0  0  0
   12.6837  -15.8471   22.9009 C   0  0  0  0  0  0  0  0  0  0  0  0
   13.0573  -15.9887   21.7170 O   0  0  0  0  0  0  0  0  0  0  0  0
    9.3244  -20.0175   23.6570 O   0  0  0  0  0  0  0  0  0  0  0  0
   13.6516  -15.8706   23.8877 O   0  0  0  0  0  0  0  0  0  0  0  0
  2  1  1  0
  3  4  2  0
  3  2  1  0
  6  7  2  0
  6  5  1  0
  8  6  1  0
 10  9  1  1
  9  8  1  0
 10 11  1  0
 11  3  1  0
 12 10  1  0
 13 12  2  0
 14 12  1  0
 15 14  1  0
 15 16  1  6
 17 16  1  0
 18 19  2  0
 18 17  1  0
 20 23  1  0
 20 15  1  0
 21 20  2  0
 22 18  1  0
M  END
$$$$
