GQE.pdb
     RDKit          3D

 23 22  0  0  1  0  0  0  0  0999 V2000
   10.0463  -19.9351   17.5657 N   0  0  0  0  0  0  0  0  0  0  0  0
    9.2883  -19.3234   18.6111 C   0  0  0  0  0  0  0  0  0  0  0  0
    9.9801  -18.1032   19.1570 C   0  0  0  0  0  0  0  0  0  0  0  0
   11.1548  -17.8517   18.8029 O   0  0  0  0  0  0  0  0  0  0  0  0
    7.2821  -13.2974   22.1023 N   0  0  0  0  0  0  0  0  0  0  0  0
    7.3231  -13.4821   20.7037 C   0  0  0  0  0  0  0  0  0  0  0  0
    6.5069  -12.8787   19.9850 O   0  0  0  0  0  0  0  0  0  0  0  0
    8.3190  -14.3784   20.0948 C   0  0  0  0  0  0  0  0  0  0  0  0
    9.1116  -15.0442   21.1653 C   0  0  0  0  0  0  0  0  0  0  0  0
   10.0569  -16.0981   20.6585 C   0  0  2  0  0  0  0  0  0  0  0  0
    9.3490  -17.2236   20.0614 N   0  0  0  0  0  0  0  0  0  0  0  0
   10.9345  -16.6262   21.7350 C   0  0  0  0  0  0  0  0  0  0  0  0
   10.5932  -17.6457   22.4252 O   0  0  0  0  0  0  0  0  0  0  0  0
   12.1834  -16.0499   22.0648 N   0  0  0  0  0  0  0  0  0  0  0  0
   13.0991  -16.6976   23.0261 C   0  0  1  0  0  0  0  0  0  0  0  0
   14.4859  -16.1318   22.8745 C   0  0  0  0  0  0  0  0  0  0  0  0
   15.4934  -16.6424   23.8380 C   0  0  0  0  0  0  0  0  0  0  0  0
   16.8488  -16.1065   23.6900 C   0  0  0  0  0  0  0  0  0  0  0  0
   17.4280  -16.0121   22.5803 O   0  0  0  0  0  0  0  0  0  0  0  0
   12.6142  -16.3797   24.3883 C   0  0  0  0  0  0  0  0  0  0  0  0
   11.9563  -15.3448   24.6280 O   0  0  0  0  0  0  0  0  0  0  0  0
   17.5870  -15.6626   24.7909 O   0  0  0  0  0  0  0  0  0  0  0  0
   12.8804  -17.2313   25.4442 O   0  0  0  0  0  0  0  0  0  0  0  0
  2  1  1  0
  3  4  2  0
  3  2  1  0
  6  7  2  0
  6  5  1  0
  8  6  1  0
 10  9  1  1
  9  8  1  0
 10 11  1  0
 11  3  1  0
 12 10  1  0
 13 12  2  0
 14 12  1  0
 15 14  1  0
 15 16  1  1
 17 16  1  0
 18 19  2  0
 18 17  1  0
 20 23  1  0
 20 15  1  0
 21 20  2  0
 22 18  1  0
M  END
$$$$
