GQE.pdb
     RDKit          3D

 23 22  0  0  1  0  0  0  0  0999 V2000
    6.3401  -16.6654   20.0280 N   0  0  0  0  0  0  0  0  0  0  0  0
    5.9339  -16.3122   21.3516 C   0  0  0  0  0  0  0  0  0  0  0  0
    7.0790  -15.7534   22.1529 C   0  0  0  0  0  0  0  0  0  0  0  0
    8.2377  -15.7908   21.6790 O   0  0  0  0  0  0  0  0  0  0  0  0
    6.8148  -11.4772   26.7292 N   0  0  0  0  0  0  0  0  0  0  0  0
    6.1090  -12.6935   26.8497 C   0  0  0  0  0  0  0  0  0  0  0  0
    5.2159  -12.7975   27.7090 O   0  0  0  0  0  0  0  0  0  0  0  0
    6.4213  -13.8317   25.9706 C   0  0  0  0  0  0  0  0  0  0  0  0
    7.5413  -13.4660   25.0597 C   0  0  0  0  0  0  0  0  0  0  0  0
    7.9991  -14.5913   24.1737 C   0  0  2  0  0  0  0  0  0  0  0  0
    6.8944  -15.1837   23.4301 N   0  0  0  0  0  0  0  0  0  0  0  0
    8.6669  -15.6727   24.9436 C   0  0  0  0  0  0  0  0  0  0  0  0
    7.9982  -16.6451   25.4330 O   0  0  0  0  0  0  0  0  0  0  0  0
   10.0604  -15.7014   25.1839 N   0  0  0  0  0  0  0  0  0  0  0  0
   10.7149  -16.8881   25.7718 C   0  0  1  0  0  0  0  0  0  0  0  0
   12.1604  -16.9363   25.3542 C   0  0  0  0  0  0  0  0  0  0  0  0
   12.4097  -16.7987   23.8972 C   0  0  0  0  0  0  0  0  0  0  0  0
   13.8151  -16.6983   23.4956 C   0  0  0  0  0  0  0  0  0  0  0  0
   14.5213  -15.6873   23.7298 O   0  0  0  0  0  0  0  0  0  0  0  0
   10.6613  -16.7440   27.2442 C   0  0  0  0  0  0  0  0  0  0  0  0
   10.2644  -15.6918   27.7887 O   0  0  0  0  0  0  0  0  0  0  0  0
   14.4611  -17.7369   22.8187 O   0  0  0  0  0  0  0  0  0  0  0  0
   11.0546  -17.7841   28.0656 O   0  0  0  0  0  0  0  0  0  0  0  0
  2  1  1  0
  3  4  2  0
  3  2  1  0
  6  7  2  0
  6  5  1  0
  8  6  1  0
 10  9  1  1
  9  8  1  0
 10 11  1  0
 11  3  1  0
 12 10  1  0
 13 12  2  0
 14 12  1  0
 15 14  1  0
 15 16  1  6
 17 16  1  0
 18 19  2  0
 18 17  1  0
 20 23  1  0
 20 15  1  0
 21 20  2  0
 22 18  1  0
M  END
$$$$
