GQE.pdb
     RDKit          3D

 23 22  0  0  1  0  0  0  0  0999 V2000
    8.3539  -15.3076   19.9842 N   0  0  0  0  0  0  0  0  0  0  0  0
    7.4765  -15.4124   21.1071 C   0  0  0  0  0  0  0  0  0  0  0  0
    8.1363  -14.9357   22.3731 C   0  0  0  0  0  0  0  0  0  0  0  0
    9.3696  -14.7175   22.3798 O   0  0  0  0  0  0  0  0  0  0  0  0
    5.5261  -12.5211   27.5515 N   0  0  0  0  0  0  0  0  0  0  0  0
    6.1037  -11.7182   26.5446 C   0  0  0  0  0  0  0  0  0  0  0  0
    5.8798  -10.4948   26.5372 O   0  0  0  0  0  0  0  0  0  0  0  0
    6.9634  -12.3159   25.5104 C   0  0  0  0  0  0  0  0  0  0  0  0
    7.1729  -13.7597   25.8090 C   0  0  0  0  0  0  0  0  0  0  0  0
    8.0778  -14.4594   24.8329 C   0  0  2  0  0  0  0  0  0  0  0  0
    7.4108  -14.7233   23.5641 N   0  0  0  0  0  0  0  0  0  0  0  0
    8.5809  -15.7524   25.3650 C   0  0  0  0  0  0  0  0  0  0  0  0
    7.8066  -16.7606   25.4925 O   0  0  0  0  0  0  0  0  0  0  0  0
    9.9241  -15.9541   25.7597 N   0  0  0  0  0  0  0  0  0  0  0  0
   10.3612  -17.2221   26.3789 C   0  0  1  0  0  0  0  0  0  0  0  0
   11.7125  -17.6149   25.8442 C   0  0  0  0  0  0  0  0  0  0  0  0
   11.8069  -17.7290   24.3670 C   0  0  0  0  0  0  0  0  0  0  0  0
   13.1285  -18.0708   23.8352 C   0  0  0  0  0  0  0  0  0  0  0  0
   14.0963  -17.2713   23.8461 O   0  0  0  0  0  0  0  0  0  0  0  0
   10.4883  -16.9873   27.8351 C   0  0  0  0  0  0  0  0  0  0  0  0
   10.7684  -17.9106   28.6289 O   0  0  0  0  0  0  0  0  0  0  0  0
   13.3933  -19.3246   23.2766 O   0  0  0  0  0  0  0  0  0  0  0  0
   10.2976  -15.7230   28.3609 O   0  0  0  0  0  0  0  0  0  0  0  0
  2  1  1  0
  3  4  2  0
  3  2  1  0
  6  7  2  0
  6  5  1  0
  8  6  1  0
 10  9  1  1
  9  8  1  0
 10 11  1  0
 11  3  1  0
 12 10  1  0
 13 12  2  0
 14 12  1  0
 15 14  1  0
 15 16  1  6
 17 16  1  0
 18 19  2  0
 18 17  1  0
 20 23  1  0
 20 15  1  0
 21 20  2  0
 22 18  1  0
M  END
$$$$
