GQE.pdb
     RDKit          3D

 23 22  0  0  1  0  0  0  0  0999 V2000
    9.2927  -17.4654   15.4195 N   0  0  0  0  0  0  0  0  0  0  0  0
    8.2467  -17.4449   16.3927 C   0  0  0  0  0  0  0  0  0  0  0  0
    8.5796  -16.5366   17.5459 C   0  0  0  0  0  0  0  0  0  0  0  0
    9.7564  -16.1340   17.6923 O   0  0  0  0  0  0  0  0  0  0  0  0
    7.6284  -12.1536   19.7258 N   0  0  0  0  0  0  0  0  0  0  0  0
    7.5470  -12.5359   21.0819 C   0  0  0  0  0  0  0  0  0  0  0  0
    7.9379  -11.7485   21.9618 O   0  0  0  0  0  0  0  0  0  0  0  0
    7.0060  -13.8516   21.4587 C   0  0  0  0  0  0  0  0  0  0  0  0
    6.7227  -14.6449   20.2306 C   0  0  0  0  0  0  0  0  0  0  0  0
    7.9439  -15.2646   19.6096 C   0  0  2  0  0  0  0  0  0  0  0  0
    7.6062  -16.1178   18.4771 N   0  0  0  0  0  0  0  0  0  0  0  0
    8.7148  -16.0791   20.5846 C   0  0  0  0  0  0  0  0  0  0  0  0
    8.3789  -17.2824   20.8519 O   0  0  0  0  0  0  0  0  0  0  0  0
    9.8506  -15.5901   21.2710 N   0  0  0  0  0  0  0  0  0  0  0  0
   10.6883  -16.4790   22.1020 C   0  0  1  0  0  0  0  0  0  0  0  0
   12.1449  -16.1999   21.8441 C   0  0  0  0  0  0  0  0  0  0  0  0
   13.1009  -16.9704   22.6787 C   0  0  0  0  0  0  0  0  0  0  0  0
   14.5168  -16.6387   22.5006 C   0  0  0  0  0  0  0  0  0  0  0  0
   14.9125  -15.7214   21.7405 O   0  0  0  0  0  0  0  0  0  0  0  0
   10.3997  -16.1671   23.5202 C   0  0  0  0  0  0  0  0  0  0  0  0
    9.7186  -15.1729   23.8502 O   0  0  0  0  0  0  0  0  0  0  0  0
   15.5242  -17.3338   23.1760 O   0  0  0  0  0  0  0  0  0  0  0  0
   10.8830  -16.9790   24.5293 O   0  0  0  0  0  0  0  0  0  0  0  0
  2  1  1  0
  3  4  2  0
  3  2  1  0
  6  7  2  0
  6  5  1  0
  8  6  1  0
 10  9  1  1
  9  8  1  0
 10 11  1  0
 11  3  1  0
 12 10  1  0
 13 12  2  0
 14 12  1  0
 15 14  1  0
 15 16  1  6
 17 16  1  0
 18 19  2  0
 18 17  1  0
 20 23  1  0
 20 15  1  0
 21 20  2  0
 22 18  1  0
M  END
$$$$
