GQE.pdb
     RDKit          3D

 23 22  0  0  1  0  0  0  0  0999 V2000
    7.5446  -12.9088   18.4391 N   0  0  0  0  0  0  0  0  0  0  0  0
    8.6964  -13.3441   19.1639 C   0  0  0  0  0  0  0  0  0  0  0  0
    8.3328  -14.3236   20.2474 C   0  0  0  0  0  0  0  0  0  0  0  0
    7.1328  -14.4545   20.5811 O   0  0  0  0  0  0  0  0  0  0  0  0
   11.6196  -18.3049   19.1236 N   0  0  0  0  0  0  0  0  0  0  0  0
   11.0329  -18.6140   20.3695 C   0  0  0  0  0  0  0  0  0  0  0  0
   10.6838  -19.7842   20.6054 O   0  0  0  0  0  0  0  0  0  0  0  0
   10.8333  -17.5670   21.3843 C   0  0  0  0  0  0  0  0  0  0  0  0
    9.3808  -17.4341   21.6850 C   0  0  0  0  0  0  0  0  0  0  0  0
    8.9457  -16.0257   21.9817 C   0  0  2  0  0  0  0  0  0  0  0  0
    9.3023  -15.1073   20.9075 N   0  0  0  0  0  0  0  0  0  0  0  0
    9.5403  -15.5108   23.2425 C   0  0  0  0  0  0  0  0  0  0  0  0
   10.7548  -15.1168   23.2877 O   0  0  0  0  0  0  0  0  0  0  0  0
    8.8191  -15.4225   24.4560 N   0  0  0  0  0  0  0  0  0  0  0  0
    9.4237  -14.8339   25.6685 C   0  0  1  0  0  0  0  0  0  0  0  0
    8.7213  -13.5497   26.0203 C   0  0  0  0  0  0  0  0  0  0  0  0
    7.2496  -13.6511   26.1872 C   0  0  0  0  0  0  0  0  0  0  0  0
    6.5528  -12.3988   26.4917 C   0  0  0  0  0  0  0  0  0  0  0  0
    5.3059  -12.3245   26.6165 O   0  0  0  0  0  0  0  0  0  0  0  0
    9.2221  -15.7926   26.7784 C   0  0  0  0  0  0  0  0  0  0  0  0
    8.5018  -16.8055   26.6507 O   0  0  0  0  0  0  0  0  0  0  0  0
    7.2450  -11.1966   26.6636 O   0  0  0  0  0  0  0  0  0  0  0  0
    9.8340  -15.5888   28.0012 O   0  0  0  0  0  0  0  0  0  0  0  0
  2  1  1  0
  3  4  2  0
  3  2  1  0
  6  7  2  0
  6  5  1  0
  8  6  1  0
 10  9  1  6
  9  8  1  0
 10 11  1  0
 11  3  1  0
 12 10  1  0
 13 12  2  0
 14 12  1  0
 15 14  1  0
 15 16  1  1
 17 16  1  0
 18 19  2  0
 18 17  1  0
 20 23  1  0
 20 15  1  0
 21 20  2  0
 22 18  1  0
M  END
$$$$
