GQE.pdb
     RDKit          3D

 23 22  0  0  1  0  0  0  0  0999 V2000
    7.4236  -16.0479   18.6827 N   0  0  0  0  0  0  0  0  0  0  0  0
    6.8463  -16.2747   19.9699 C   0  0  0  0  0  0  0  0  0  0  0  0
    7.6530  -15.6252   21.0621 C   0  0  0  0  0  0  0  0  0  0  0  0
    8.8443  -15.3080   20.8415 O   0  0  0  0  0  0  0  0  0  0  0  0
    5.4746  -13.3996   26.5341 N   0  0  0  0  0  0  0  0  0  0  0  0
    6.6240  -12.6317   26.2492 C   0  0  0  0  0  0  0  0  0  0  0  0
    6.8448  -11.5985   26.9055 O   0  0  0  0  0  0  0  0  0  0  0  0
    7.5563  -13.0433   25.1876 C   0  0  0  0  0  0  0  0  0  0  0  0
    7.0646  -14.2959   24.5497 C   0  0  0  0  0  0  0  0  0  0  0  0
    7.9142  -14.7708   23.4035 C   0  0  2  0  0  0  0  0  0  0  0  0
    7.1124  -15.3578   22.3373 N   0  0  0  0  0  0  0  0  0  0  0  0
    8.9177  -15.7796   23.8321 C   0  0  0  0  0  0  0  0  0  0  0  0
    8.5879  -16.9984   24.0268 O   0  0  0  0  0  0  0  0  0  0  0  0
   10.2801  -15.4683   24.0503 N   0  0  0  0  0  0  0  0  0  0  0  0
   11.2877  -16.5290   24.2553 C   0  0  1  0  0  0  0  0  0  0  0  0
   12.6492  -16.0275   23.8540 C   0  0  0  0  0  0  0  0  0  0  0  0
   13.7599  -17.0005   24.0088 C   0  0  0  0  0  0  0  0  0  0  0  0
   15.0845  -16.5297   23.5965 C   0  0  0  0  0  0  0  0  0  0  0  0
   16.0827  -16.5478   24.3574 O   0  0  0  0  0  0  0  0  0  0  0  0
   11.3165  -16.8437   25.7016 C   0  0  0  0  0  0  0  0  0  0  0  0
   10.9499  -16.0161   26.5629 O   0  0  0  0  0  0  0  0  0  0  0  0
   15.3179  -16.0256   22.3137 O   0  0  0  0  0  0  0  0  0  0  0  0
   11.7557  -18.0783   26.1422 O   0  0  0  0  0  0  0  0  0  0  0  0
  2  1  1  0
  3  4  2  0
  3  2  1  0
  6  7  2  0
  6  5  1  0
  8  6  1  0
 10  9  1  1
  9  8  1  0
 10 11  1  0
 11  3  1  0
 12 10  1  0
 13 12  2  0
 14 12  1  0
 15 14  1  0
 15 16  1  1
 17 16  1  0
 18 19  2  0
 18 17  1  0
 20 23  1  0
 20 15  1  0
 21 20  2  0
 22 18  1  0
M  END
$$$$
