IHH.pdb
     RDKit          3D

 29 30  0  0  1  0  0  0  0  0999 V2000
   23.2048   -9.9625  -17.1072 C   0  0  0  0  0  0  0  0  0  0  0  0
   21.9544   -9.8755  -16.2631 C   0  0  0  0  0  0  0  0  0  0  0  0
   22.2961   -9.3535  -14.8603 C   0  0  2  0  0  0  0  0  0  0  0  0
   23.1386  -10.4326  -14.2151 C   0  0  0  0  0  0  0  0  0  0  0  0
   21.0006   -9.2592  -14.0886 C   0  0  2  0  0  0  0  0  0  0  0  0
   20.0240  -10.1516  -14.6780 N   0  0  0  0  0  0  0  0  0  0  0  0
   20.4450   -7.8670  -14.1354 C   0  0  0  0  0  0  0  0  0  0  0  0
   21.0988   -6.8865  -13.6950 O   0  0  0  0  0  0  0  0  0  0  0  0
   19.1608   -7.5930  -14.6766 N   0  0  0  0  0  0  0  0  0  0  0  0
   18.6189   -6.2598  -14.8469 C   0  0  1  0  0  0  0  0  0  0  0  0
   18.2232   -6.0828  -16.3091 C   0  0  0  0  0  0  0  0  0  0  0  0
   19.4173   -6.0782  -17.1747 C   0  0  0  0  0  0  0  0  0  0  0  0
   19.8464   -7.0672  -18.0256 C   0  0  0  0  0  0  0  0  0  0  0  0
   20.9672   -6.6289  -18.6024 N   0  0  0  0  0  0  0  0  0  0  0  0
   21.2598   -5.4048  -18.1485 C   0  0  0  0  0  0  0  0  0  0  0  0
   20.3067   -5.0761  -17.2759 N   0  0  0  0  0  0  0  0  0  0  0  0
   17.4196   -6.1456  -13.9760 C   0  0  0  0  0  0  0  0  0  0  0  0
   16.5866   -7.1076  -13.8583 O   0  0  0  0  0  0  0  0  0  0  0  0
   17.2301   -4.9247  -13.2756 N   0  0  0  0  0  0  0  0  0  0  0  0
   16.1065   -4.7299  -12.3933 C   0  0  1  0  0  0  0  0  0  0  0  0
   16.4801   -4.9117  -10.9449 C   0  0  0  0  0  0  0  0  0  0  0  0
   16.7793   -6.2932  -10.5825 C   0  0  0  0  0  0  0  0  0  0  0  0
   17.8863   -6.7202   -9.8981 C   0  0  0  0  0  0  0  0  0  0  0  0
   17.7721   -8.0508   -9.7766 N   0  0  0  0  0  0  0  0  0  0  0  0
   16.6320   -8.4468  -10.3648 C   0  0  0  0  0  0  0  0  0  0  0  0
   16.0385   -7.3654  -10.8507 N   0  0  0  0  0  0  0  0  0  0  0  0
   15.4738   -3.4452  -12.6823 C   0  0  0  0  0  0  0  0  0  0  0  0
   14.4283   -3.0203  -12.1213 O   0  0  0  0  0  0  0  0  0  0  0  0
   16.0324   -2.6062  -13.6340 O   0  0  0  0  0  0  0  0  0  0  0  0
  2  1  1  0
  3  2  1  0
  3  4  1  1
  5  3  1  0
  5  6  1  6
  7  5  1  0
  7  8  2  0
  9  7  1  0
 10  9  1  0
 10 11  1  6
 12 11  1  0
 12 16  1  0
 13 14  1  0
 13 12  2  0
 14 15  1  0
 15 16  2  0
 17 10  1  0
 18 17  2  0
 19 17  1  0
 20 19  1  0
 20 21  1  1
 21 22  1  0
 22 26  1  0
 23 22  2  0
 23 24  1  0
 24 25  1  0
 26 25  2  0
 27 29  1  0
 27 20  1  0
 28 27  2  0
M  END
$$$$
