IHH.pdb
     RDKit          3D

 29 30  0  0  1  0  0  0  0  0999 V2000
   27.2690  -19.8403   -7.3956 C   0  0  0  0  0  0  0  0  0  0  0  0
   27.3189  -20.6972   -8.6393 C   0  0  0  0  0  0  0  0  0  0  0  0
   26.4926  -20.0529   -9.7614 C   0  0  2  0  0  0  0  0  0  0  0  0
   25.0483  -20.1647   -9.3233 C   0  0  0  0  0  0  0  0  0  0  0  0
   26.6661  -20.9085  -10.9946 C   0  0  2  0  0  0  0  0  0  0  0  0
   28.0784  -21.1033  -11.2495 N   0  0  0  0  0  0  0  0  0  0  0  0
   26.0639  -20.2476  -12.1987 C   0  0  0  0  0  0  0  0  0  0  0  0
   26.4713  -19.1280  -12.6027 O   0  0  0  0  0  0  0  0  0  0  0  0
   25.0108  -20.8530  -12.9347 N   0  0  0  0  0  0  0  0  0  0  0  0
   24.3716  -20.2470  -14.0854 C   0  0  1  0  0  0  0  0  0  0  0  0
   24.9517  -20.8771  -15.3473 C   0  0  0  0  0  0  0  0  0  0  0  0
   26.0185  -20.0282  -15.9099 C   0  0  0  0  0  0  0  0  0  0  0  0
   26.4491  -18.8045  -15.4590 C   0  0  0  0  0  0  0  0  0  0  0  0
   27.4304  -18.4100  -16.2727 N   0  0  0  0  0  0  0  0  0  0  0  0
   27.6340  -19.3361  -17.2166 C   0  0  0  0  0  0  0  0  0  0  0  0
   26.7662  -20.3220  -16.9870 N   0  0  0  0  0  0  0  0  0  0  0  0
   22.9156  -20.5326  -13.9952 C   0  0  0  0  0  0  0  0  0  0  0  0
   22.4793  -21.7168  -13.7940 O   0  0  0  0  0  0  0  0  0  0  0  0
   22.0212  -19.4390  -14.1411 N   0  0  0  0  0  0  0  0  0  0  0  0
   20.5921  -19.6296  -14.1341 C   0  0  1  0  0  0  0  0  0  0  0  0
   20.1123  -20.3932  -15.3412 C   0  0  0  0  0  0  0  0  0  0  0  0
   20.4878  -19.7824  -16.6122 C   0  0  0  0  0  0  0  0  0  0  0  0
   21.3641  -20.3068  -17.5251 C   0  0  0  0  0  0  0  0  0  0  0  0
   21.4245  -19.4353  -18.5425 N   0  0  0  0  0  0  0  0  0  0  0  0
   20.6137  -18.3983  -18.2782 C   0  0  0  0  0  0  0  0  0  0  0  0
   20.0504  -18.6242  -17.0994 N   0  0  0  0  0  0  0  0  0  0  0  0
   20.1830  -20.2202  -12.8619 C   0  0  0  0  0  0  0  0  0  0  0  0
   20.7524  -21.2014  -12.3128 O   0  0  0  0  0  0  0  0  0  0  0  0
   19.0972  -19.6926  -12.1804 O   0  0  0  0  0  0  0  0  0  0  0  0
  2  1  1  0
  3  2  1  0
  3  4  1  1
  5  3  1  0
  5  6  1  6
  7  5  1  0
  7  8  2  0
  9  7  1  0
 10  9  1  0
 10 11  1  6
 12 11  1  0
 12 16  1  0
 13 14  1  0
 13 12  2  0
 14 15  1  0
 15 16  2  0
 17 10  1  0
 18 17  2  0
 19 17  1  0
 20 19  1  0
 20 21  1  6
 21 22  1  0
 22 26  1  0
 23 22  2  0
 23 24  1  0
 24 25  1  0
 26 25  2  0
 27 29  1  0
 27 20  1  0
 28 27  2  0
M  END
$$$$
