IHH.pdb
     RDKit          3D

 29 30  0  0  1  0  0  0  0  0999 V2000
   30.8794  -21.6427  -10.9544 C   0  0  0  0  0  0  0  0  0  0  0  0
   29.6658  -20.8757  -11.4261 C   0  0  0  0  0  0  0  0  0  0  0  0
   29.3537  -21.2230  -12.8886 C   0  0  2  0  0  0  0  0  0  0  0  0
   30.4845  -20.6302  -13.7013 C   0  0  0  0  0  0  0  0  0  0  0  0
   28.0861  -20.4910  -13.2631 C   0  0  2  0  0  0  0  0  0  0  0  0
   28.2348  -19.0838  -12.9549 N   0  0  0  0  0  0  0  0  0  0  0  0
   26.9125  -21.0141  -12.4894 C   0  0  0  0  0  0  0  0  0  0  0  0
   26.4780  -22.1809  -12.6693 O   0  0  0  0  0  0  0  0  0  0  0  0
   26.2412  -20.2194  -11.5224 N   0  0  0  0  0  0  0  0  0  0  0  0
   24.9328  -20.5303  -10.9827 C   0  0  1  0  0  0  0  0  0  0  0  0
   24.7373  -19.7297   -9.6994 C   0  0  0  0  0  0  0  0  0  0  0  0
   25.8283  -20.0016   -8.7450 C   0  0  0  0  0  0  0  0  0  0  0  0
   26.9327  -20.7969   -8.9300 C   0  0  0  0  0  0  0  0  0  0  0  0
   27.6455  -20.7461   -7.8030 N   0  0  0  0  0  0  0  0  0  0  0  0
   27.0340  -19.9513   -6.9174 C   0  0  0  0  0  0  0  0  0  0  0  0
   25.9236  -19.5005   -7.5019 N   0  0  0  0  0  0  0  0  0  0  0  0
   23.9203  -20.1285  -11.9943 C   0  0  0  0  0  0  0  0  0  0  0  0
   24.1942  -19.2837  -12.9131 O   0  0  0  0  0  0  0  0  0  0  0  0
   22.6315  -20.7186  -11.9044 N   0  0  0  0  0  0  0  0  0  0  0  0
   21.7198  -20.7087  -13.0213 C   0  0  1  0  0  0  0  0  0  0  0  0
   22.2868  -21.4124  -14.2270 C   0  0  0  0  0  0  0  0  0  0  0  0
   21.3982  -21.4067  -15.3845 C   0  0  0  0  0  0  0  0  0  0  0  0
   20.1689  -20.8059  -15.4478 C   0  0  0  0  0  0  0  0  0  0  0  0
   19.6916  -21.0386  -16.6792 N   0  0  0  0  0  0  0  0  0  0  0  0
   20.5904  -21.7612  -17.3667 C   0  0  0  0  0  0  0  0  0  0  0  0
   21.6241  -21.9773  -16.5650 N   0  0  0  0  0  0  0  0  0  0  0  0
   20.4195  -21.2217  -12.5965 C   0  0  0  0  0  0  0  0  0  0  0  0
   20.2474  -22.2953  -11.9591 O   0  0  0  0  0  0  0  0  0  0  0  0
   19.2706  -20.5064  -12.8966 O   0  0  0  0  0  0  0  0  0  0  0  0
  2  1  1  0
  3  2  1  0
  3  4  1  6
  5  3  1  0
  5  6  1  1
  7  5  1  0
  7  8  2  0
  9  7  1  0
 10  9  1  0
 10 11  1  1
 12 11  1  0
 12 16  1  0
 13 14  1  0
 13 12  2  0
 14 15  1  0
 15 16  2  0
 17 10  1  0
 18 17  2  0
 19 17  1  0
 20 19  1  0
 20 21  1  6
 21 22  1  0
 22 26  1  0
 23 22  2  0
 23 24  1  0
 24 25  1  0
 26 25  2  0
 27 29  1  0
 27 20  1  0
 28 27  2  0
M  END
$$$$
