IHH.pdb
     RDKit          3D

 29 30  0  0  1  0  0  0  0  0999 V2000
   22.9648  -31.7452   -8.1378 C   0  0  0  0  0  0  0  0  0  0  0  0
   24.4437  -31.8996   -8.4073 C   0  0  0  0  0  0  0  0  0  0  0  0
   25.0468  -32.9554   -7.4701 C   0  0  2  0  0  0  0  0  0  0  0  0
   24.9014  -32.3941   -6.0722 C   0  0  0  0  0  0  0  0  0  0  0  0
   26.5232  -33.0398   -7.7800 C   0  0  2  0  0  0  0  0  0  0  0  0
   26.7041  -33.5570   -9.1206 N   0  0  0  0  0  0  0  0  0  0  0  0
   27.2223  -33.9638   -6.8277 C   0  0  0  0  0  0  0  0  0  0  0  0
   27.0215  -35.2054   -6.8549 O   0  0  0  0  0  0  0  0  0  0  0  0
   28.1388  -33.4814   -5.8559 N   0  0  0  0  0  0  0  0  0  0  0  0
   28.8828  -34.3319   -4.9487 C   0  0  1  0  0  0  0  0  0  0  0  0
   30.2461  -33.6954   -4.6989 C   0  0  0  0  0  0  0  0  0  0  0  0
   31.2711  -34.3026   -5.5683 C   0  0  0  0  0  0  0  0  0  0  0  0
   31.1328  -35.3771   -6.4124 C   0  0  0  0  0  0  0  0  0  0  0  0
   32.3169  -35.5718   -6.9963 N   0  0  0  0  0  0  0  0  0  0  0  0
   33.1936  -34.6633   -6.5535 C   0  0  0  0  0  0  0  0  0  0  0  0
   32.5454  -33.8914   -5.6806 N   0  0  0  0  0  0  0  0  0  0  0  0
   28.1171  -34.4140   -3.6771 C   0  0  0  0  0  0  0  0  0  0  0  0
   27.6669  -33.3661   -3.1007 O   0  0  0  0  0  0  0  0  0  0  0  0
   27.9019  -35.7034   -3.1219 N   0  0  0  0  0  0  0  0  0  0  0  0
   27.1023  -35.8883   -1.9365 C   0  0  1  0  0  0  0  0  0  0  0  0
   26.7093  -37.3285   -1.7320 C   0  0  0  0  0  0  0  0  0  0  0  0
   25.8219  -37.5411   -0.5933 C   0  0  0  0  0  0  0  0  0  0  0  0
   24.7956  -36.7177   -0.2127 C   0  0  0  0  0  0  0  0  0  0  0  0
   24.2397  -37.2749    0.8730 N   0  0  0  0  0  0  0  0  0  0  0  0
   24.8944  -38.4102    1.1651 C   0  0  0  0  0  0  0  0  0  0  0  0
   25.8550  -38.5587    0.2633 N   0  0  0  0  0  0  0  0  0  0  0  0
   27.7837  -35.2944   -0.7887 C   0  0  0  0  0  0  0  0  0  0  0  0
   27.2017  -34.7191    0.1698 O   0  0  0  0  0  0  0  0  0  0  0  0
   29.1669  -35.3468   -0.7118 O   0  0  0  0  0  0  0  0  0  0  0  0
  2  1  1  0
  3  2  1  0
  3  4  1  1
  5  3  1  0
  5  6  1  6
  7  5  1  0
  7  8  2  0
  9  7  1  0
 10  9  1  0
 10 11  1  1
 12 11  1  0
 12 16  1  0
 13 14  1  0
 13 12  2  0
 14 15  1  0
 15 16  2  0
 17 10  1  0
 18 17  2  0
 19 17  1  0
 20 19  1  0
 20 21  1  1
 21 22  1  0
 22 26  1  0
 23 22  2  0
 23 24  1  0
 24 25  1  0
 26 25  2  0
 27 29  1  0
 27 20  1  0
 28 27  2  0
M  END
$$$$
