IHH.pdb
     RDKit          3D

 29 30  0  0  1  0  0  0  0  0999 V2000
   26.8839  -17.8120  -17.7488 C   0  0  0  0  0  0  0  0  0  0  0  0
   25.3824  -17.7566  -17.5879 C   0  0  0  0  0  0  0  0  0  0  0  0
   24.9220  -18.7835  -16.5436 C   0  0  2  0  0  0  0  0  0  0  0  0
   25.3703  -20.1307  -17.0676 C   0  0  0  0  0  0  0  0  0  0  0  0
   23.4112  -18.7722  -16.5386 C   0  0  2  0  0  0  0  0  0  0  0  0
   22.9418  -17.4689  -16.1158 N   0  0  0  0  0  0  0  0  0  0  0  0
   22.8673  -19.7934  -15.5843 C   0  0  0  0  0  0  0  0  0  0  0  0
   22.9596  -21.0254  -15.8219 O   0  0  0  0  0  0  0  0  0  0  0  0
   22.2259  -19.4179  -14.3740 N   0  0  0  0  0  0  0  0  0  0  0  0
   21.6109  -20.3556  -13.4562 C   0  0  1  0  0  0  0  0  0  0  0  0
   22.0617  -20.0115  -12.0404 C   0  0  0  0  0  0  0  0  0  0  0  0
   23.3558  -20.6503  -11.7365 C   0  0  0  0  0  0  0  0  0  0  0  0
   24.0923  -21.4877  -12.5381 C   0  0  0  0  0  0  0  0  0  0  0  0
   25.1888  -21.8207  -11.8543 N   0  0  0  0  0  0  0  0  0  0  0  0
   25.1712  -21.2267  -10.6556 C   0  0  0  0  0  0  0  0  0  0  0  0
   24.0467  -20.5130  -10.5923 N   0  0  0  0  0  0  0  0  0  0  0  0
   20.1370  -20.2016  -13.5742 C   0  0  0  0  0  0  0  0  0  0  0  0
   19.5601  -19.0897  -13.3213 O   0  0  0  0  0  0  0  0  0  0  0  0
   19.3880  -21.3382  -13.9797 N   0  0  0  0  0  0  0  0  0  0  0  0
   17.9630  -21.2657  -14.1864 C   0  0  1  0  0  0  0  0  0  0  0  0
   17.5601  -21.7436  -15.5574 C   0  0  0  0  0  0  0  0  0  0  0  0
   17.9307  -20.8293  -16.6326 C   0  0  0  0  0  0  0  0  0  0  0  0
   17.9879  -19.4639  -16.5390 C   0  0  0  0  0  0  0  0  0  0  0  0
   18.3669  -19.0128  -17.7437 N   0  0  0  0  0  0  0  0  0  0  0  0
   18.5421  -20.0592  -18.5666 C   0  0  0  0  0  0  0  0  0  0  0  0
   18.2727  -21.1582  -17.8756 N   0  0  0  0  0  0  0  0  0  0  0  0
   17.2745  -21.9529  -13.0964 C   0  0  0  0  0  0  0  0  0  0  0  0
   17.7406  -22.9390  -12.4648 O   0  0  0  0  0  0  0  0  0  0  0  0
   16.0187  -21.5201  -12.6997 O   0  0  0  0  0  0  0  0  0  0  0  0
  2  1  1  0
  3  2  1  0
  3  4  1  6
  5  3  1  0
  5  6  1  1
  7  5  1  0
  7  8  2  0
  9  7  1  0
 10  9  1  0
 10 11  1  1
 12 11  1  0
 12 16  1  0
 13 14  1  0
 13 12  2  0
 14 15  1  0
 15 16  2  0
 17 10  1  0
 18 17  2  0
 19 17  1  0
 20 19  1  0
 20 21  1  6
 21 22  1  0
 22 26  1  0
 23 22  2  0
 23 24  1  0
 24 25  1  0
 26 25  2  0
 27 29  1  0
 27 20  1  0
 28 27  2  0
M  END
$$$$
