IHH.pdb
     RDKit          3D

 29 30  0  0  1  0  0  0  0  0999 V2000
   19.5227  -28.9943    4.2388 C   0  0  0  0  0  0  0  0  0  0  0  0
   20.6259  -28.6258    5.2035 C   0  0  0  0  0  0  0  0  0  0  0  0
   21.5333  -29.8372    5.4601 C   0  0  2  0  0  0  0  0  0  0  0  0
   20.6598  -30.8665    6.1443 C   0  0  0  0  0  0  0  0  0  0  0  0
   22.5919  -29.4041    6.4474 C   0  0  2  0  0  0  0  0  0  0  0  0
   23.3988  -28.3559    5.8577 N   0  0  0  0  0  0  0  0  0  0  0  0
   23.4991  -30.5449    6.8007 C   0  0  0  0  0  0  0  0  0  0  0  0
   23.0433  -31.6288    7.2480 O   0  0  0  0  0  0  0  0  0  0  0  0
   24.9081  -30.4541    6.6471 N   0  0  0  0  0  0  0  0  0  0  0  0
   25.8290  -31.5313    6.9496 C   0  0  1  0  0  0  0  0  0  0  0  0
   26.9702  -31.4889    5.9388 C   0  0  0  0  0  0  0  0  0  0  0  0
   26.5830  -32.1671    4.6877 C   0  0  0  0  0  0  0  0  0  0  0  0
   25.9145  -33.3585    4.5457 C   0  0  0  0  0  0  0  0  0  0  0  0
   25.7821  -33.5800    3.2365 N   0  0  0  0  0  0  0  0  0  0  0  0
   26.3402  -32.5764    2.5499 C   0  0  0  0  0  0  0  0  0  0  0  0
   26.8274  -31.7170    3.4455 N   0  0  0  0  0  0  0  0  0  0  0  0
   26.3538  -31.3044    8.3218 C   0  0  0  0  0  0  0  0  0  0  0  0
   26.9131  -30.2028    8.6484 O   0  0  0  0  0  0  0  0  0  0  0  0
   26.2116  -32.3591    9.2624 N   0  0  0  0  0  0  0  0  0  0  0  0
   26.7199  -32.2422   10.6065 C   0  0  1  0  0  0  0  0  0  0  0  0
   25.6595  -32.5102   11.6429 C   0  0  0  0  0  0  0  0  0  0  0  0
   24.6483  -31.4622   11.7358 C   0  0  0  0  0  0  0  0  0  0  0  0
   24.8931  -30.1161   11.8014 C   0  0  0  0  0  0  0  0  0  0  0  0
   23.6980  -29.5125   11.8768 N   0  0  0  0  0  0  0  0  0  0  0  0
   22.7345  -30.4475   11.8593 C   0  0  0  0  0  0  0  0  0  0  0  0
   23.3288  -31.6295   11.7731 N   0  0  0  0  0  0  0  0  0  0  0  0
   27.9117  -33.0743   10.7534 C   0  0  0  0  0  0  0  0  0  0  0  0
   28.3893  -33.8066    9.8456 O   0  0  0  0  0  0  0  0  0  0  0  0
   28.5930  -33.0866   11.9607 O   0  0  0  0  0  0  0  0  0  0  0  0
  2  1  1  0
  3  2  1  0
  3  4  1  1
  5  3  1  0
  5  6  1  6
  7  5  1  0
  7  8  2  0
  9  7  1  0
 10  9  1  0
 10 11  1  6
 12 11  1  0
 12 16  1  0
 13 14  1  0
 13 12  2  0
 14 15  1  0
 15 16  2  0
 17 10  1  0
 18 17  2  0
 19 17  1  0
 20 19  1  0
 20 21  1  1
 21 22  1  0
 22 26  1  0
 23 22  2  0
 23 24  1  0
 24 25  1  0
 26 25  2  0
 27 29  1  0
 27 20  1  0
 28 27  2  0
M  END
$$$$
