IHH.pdb
     RDKit          3D

 29 30  0  0  1  0  0  0  0  0999 V2000
   34.5081  -34.2385   -7.2665 C   0  0  0  0  0  0  0  0  0  0  0  0
   33.0429  -34.6000   -7.1890 C   0  0  0  0  0  0  0  0  0  0  0  0
   32.5091  -34.3519   -5.7712 C   0  0  2  0  0  0  0  0  0  0  0  0
   33.1774  -35.3884   -4.8939 C   0  0  0  0  0  0  0  0  0  0  0  0
   31.0284  -34.6518   -5.7901 C   0  0  2  0  0  0  0  0  0  0  0  0
   30.3537  -33.6885   -6.6353 N   0  0  0  0  0  0  0  0  0  0  0  0
   30.4405  -34.5538   -4.4138 C   0  0  0  0  0  0  0  0  0  0  0  0
   30.0914  -33.4466   -3.9289 O   0  0  0  0  0  0  0  0  0  0  0  0
   30.2520  -35.7013   -3.5985 N   0  0  0  0  0  0  0  0  0  0  0  0
   29.6907  -35.6653   -2.2630 C   0  0  1  0  0  0  0  0  0  0  0  0
   28.1890  -35.9118   -2.3637 C   0  0  0  0  0  0  0  0  0  0  0  0
   27.5694  -35.9040   -1.0254 C   0  0  0  0  0  0  0  0  0  0  0  0
   27.1606  -34.8177   -0.2911 C   0  0  0  0  0  0  0  0  0  0  0  0
   26.6597  -35.2848    0.8542 N   0  0  0  0  0  0  0  0  0  0  0  0
   26.7369  -36.6204    0.8694 C   0  0  0  0  0  0  0  0  0  0  0  0
   27.2945  -36.9903   -0.2839 N   0  0  0  0  0  0  0  0  0  0  0  0
   30.3341  -36.7484   -1.4738 C   0  0  0  0  0  0  0  0  0  0  0  0
   30.4177  -37.9417   -1.9232 O   0  0  0  0  0  0  0  0  0  0  0  0
   30.8553  -36.4101   -0.1966 N   0  0  0  0  0  0  0  0  0  0  0  0
   31.4500  -37.4048    0.6609 C   0  0  1  0  0  0  0  0  0  0  0  0
   32.5312  -36.8290    1.5384 C   0  0  0  0  0  0  0  0  0  0  0  0
   33.7255  -36.4170    0.8081 C   0  0  0  0  0  0  0  0  0  0  0  0
   33.9305  -36.5605   -0.5386 C   0  0  0  0  0  0  0  0  0  0  0  0
   35.1461  -36.0567   -0.7970 N   0  0  0  0  0  0  0  0  0  0  0  0
   35.6870  -35.6116    0.3484 C   0  0  0  0  0  0  0  0  0  0  0  0
   34.8100  -35.8379    1.3168 N   0  0  0  0  0  0  0  0  0  0  0  0
   30.4016  -38.1047    1.3995 C   0  0  0  0  0  0  0  0  0  0  0  0
   29.1682  -37.8730    1.2834 O   0  0  0  0  0  0  0  0  0  0  0  0
   30.7473  -39.0999    2.3005 O   0  0  0  0  0  0  0  0  0  0  0  0
  2  1  1  0
  3  2  1  0
  3  4  1  1
  5  3  1  0
  5  6  1  6
  7  5  1  0
  7  8  2  0
  9  7  1  0
 10  9  1  0
 10 11  1  6
 12 11  1  0
 12 16  1  0
 13 14  1  0
 13 12  2  0
 14 15  1  0
 15 16  2  0
 17 10  1  0
 18 17  2  0
 19 17  1  0
 20 19  1  0
 20 21  1  1
 21 22  1  0
 22 26  1  0
 23 22  2  0
 23 24  1  0
 24 25  1  0
 26 25  2  0
 27 29  1  0
 27 20  1  0
 28 27  2  0
M  END
$$$$
