IHH.pdb
     RDKit          3D

 29 30  0  0  1  0  0  0  0  0999 V2000
   21.2388  -19.1169  -16.9884 C   0  0  0  0  0  0  0  0  0  0  0  0
   21.2342  -17.9823  -15.9902 C   0  0  0  0  0  0  0  0  0  0  0  0
   21.2996  -16.6331  -16.7197 C   0  0  2  0  0  0  0  0  0  0  0  0
   22.6343  -16.6167  -17.4330 C   0  0  0  0  0  0  0  0  0  0  0  0
   21.3298  -15.5529  -15.6637 C   0  0  2  0  0  0  0  0  0  0  0  0
   20.1222  -15.6252  -14.8675 N   0  0  0  0  0  0  0  0  0  0  0  0
   21.3936  -14.1904  -16.2875 C   0  0  0  0  0  0  0  0  0  0  0  0
   22.3579  -13.8511  -17.0208 O   0  0  0  0  0  0  0  0  0  0  0  0
   20.3726  -13.2253  -16.0797 N   0  0  0  0  0  0  0  0  0  0  0  0
   20.3788  -11.8984  -16.6622 C   0  0  1  0  0  0  0  0  0  0  0  0
   18.9446  -11.5202  -17.0170 C   0  0  0  0  0  0  0  0  0  0  0  0
   18.5021  -12.2355  -18.2285 C   0  0  0  0  0  0  0  0  0  0  0  0
   18.9121  -12.0350  -19.5238 C   0  0  0  0  0  0  0  0  0  0  0  0
   18.2480  -12.9074  -20.2846 N   0  0  0  0  0  0  0  0  0  0  0  0
   17.4374  -13.6479  -19.5200 C   0  0  0  0  0  0  0  0  0  0  0  0
   17.5994  -13.2301  -18.2641 N   0  0  0  0  0  0  0  0  0  0  0  0
   20.9167  -10.9604  -15.6421 C   0  0  0  0  0  0  0  0  0  0  0  0
   20.4834  -10.9622  -14.4399 O   0  0  0  0  0  0  0  0  0  0  0  0
   21.9338  -10.0574  -16.0512 N   0  0  0  0  0  0  0  0  0  0  0  0
   22.4854   -9.0835  -15.1424 C   0  0  1  0  0  0  0  0  0  0  0  0
   23.9348   -8.7899  -15.4313 C   0  0  0  0  0  0  0  0  0  0  0  0
   24.8144   -9.9417  -15.2616 C   0  0  0  0  0  0  0  0  0  0  0  0
   24.4340  -11.1829  -14.8245 C   0  0  0  0  0  0  0  0  0  0  0  0
   25.5401  -11.9408  -14.8131 N   0  0  0  0  0  0  0  0  0  0  0  0
   26.5807  -11.2013  -15.2288 C   0  0  0  0  0  0  0  0  0  0  0  0
   26.1230   -9.9865  -15.4983 N   0  0  0  0  0  0  0  0  0  0  0  0
   21.6356   -7.8952  -15.1231 C   0  0  0  0  0  0  0  0  0  0  0  0
   20.7295   -7.6499  -15.9642 O   0  0  0  0  0  0  0  0  0  0  0  0
   21.8068   -6.9477  -14.1258 O   0  0  0  0  0  0  0  0  0  0  0  0
  2  1  1  0
  3  2  1  0
  3  4  1  1
  5  3  1  0
  5  6  1  6
  7  5  1  0
  7  8  2  0
  9  7  1  0
 10  9  1  0
 10 11  1  1
 12 11  1  0
 12 16  1  0
 13 14  1  0
 13 12  2  0
 14 15  1  0
 15 16  2  0
 17 10  1  0
 18 17  2  0
 19 17  1  0
 20 19  1  0
 20 21  1  6
 21 22  1  0
 22 26  1  0
 23 22  2  0
 23 24  1  0
 24 25  1  0
 26 25  2  0
 27 29  1  0
 27 20  1  0
 28 27  2  0
M  END
$$$$
