EVI.pdb
     RDKit          3D

 25 24  0  0  1  0  0  0  0  0999 V2000
   11.5820  -17.0581   18.7783 N   0  0  0  0  0  0  0  0  0  0  0  0
   11.1716  -17.5187   20.1093 C   0  0  1  0  0  0  0  0  0  0  0  0
   12.4405  -17.8109   20.8743 C   0  0  0  0  0  0  0  0  0  0  0  0
   13.1525  -19.0517   20.4490 C   0  0  0  0  0  0  0  0  0  0  0  0
   14.3047  -19.3370   21.3230 C   0  0  0  0  0  0  0  0  0  0  0  0
   14.2296  -19.4336   22.5549 O   0  0  0  0  0  0  0  0  0  0  0  0
   10.4873  -16.3953   20.8388 C   0  0  0  0  0  0  0  0  0  0  0  0
   11.0018  -15.2570   20.7381 O   0  0  0  0  0  0  0  0  0  0  0  0
   15.5529  -19.5074   20.7175 O   0  0  0  0  0  0  0  0  0  0  0  0
    7.1155  -15.0258   20.2769 C   0  0  0  0  0  0  0  0  0  0  0  0
    7.1705  -15.4325   21.7519 C   0  0  1  0  0  0  0  0  0  0  0  0
    6.4620  -16.7348   21.9586 C   0  0  0  0  0  0  0  0  0  0  0  0
    8.6331  -15.4896   22.2138 C   0  0  2  0  0  0  0  0  0  0  0  0
    9.3167  -16.6055   21.6049 N   0  0  0  0  0  0  0  0  0  0  0  0
    8.5884  -15.5941   23.6922 C   0  0  0  0  0  0  0  0  0  0  0  0
    9.0142  -16.6349   24.2302 O   0  0  0  0  0  0  0  0  0  0  0  0
    5.7248  -11.8028   26.8673 C   0  0  0  0  0  0  0  0  0  0  0  0
    6.2224  -13.0724   26.2067 C   0  0  0  0  0  0  0  0  0  0  0  0
    7.6344  -13.3831   26.6449 C   0  0  2  0  0  0  0  0  0  0  0  0
    8.5386  -12.2180   26.3384 C   0  0  0  0  0  0  0  0  0  0  0  0
    8.0694  -14.6574   25.9905 C   0  0  2  0  0  0  0  0  0  0  0  0
    8.0855  -14.5717   24.5407 N   0  0  0  0  0  0  0  0  0  0  0  0
    7.1810  -15.7823   26.3681 C   0  0  0  0  0  0  0  0  0  0  0  0
    7.3530  -16.3413   27.6278 O   0  0  0  0  0  0  0  0  0  0  0  0
    6.2891  -16.2849   25.6719 O   0  0  0  0  0  0  0  0  0  0  0  0
  2  1  1  6
  3  2  1  0
  4  3  1  0
  5  6  2  0
  5  4  1  0
  7  2  1  0
  7  8  2  0
  9  5  1  0
 11 10  1  6
 11 12  1  0
 13 14  1  6
 13 11  1  0
 14  7  1  0
 15 13  1  0
 16 15  2  0
 18 17  1  0
 19 18  1  0
 19 20  1  6
 21 19  1  0
 21 22  1  6
 22 15  1  0
 23 24  1  0
 23 21  1  0
 25 23  2  0
M  END
$$$$
