EVI.pdb
     RDKit          3D

 25 24  0  0  1  0  0  0  0  0999 V2000
   13.0250  -17.0562   20.4282 N   0  0  0  0  0  0  0  0  0  0  0  0
   11.7245  -17.6034   20.8300 C   0  0  1  0  0  0  0  0  0  0  0  0
   12.0102  -18.7266   21.7982 C   0  0  0  0  0  0  0  0  0  0  0  0
   12.5148  -18.2861   23.1319 C   0  0  0  0  0  0  0  0  0  0  0  0
   12.0824  -19.2045   24.2008 C   0  0  0  0  0  0  0  0  0  0  0  0
   12.1601  -20.4376   24.1247 O   0  0  0  0  0  0  0  0  0  0  0  0
   10.9610  -16.5631   21.6028 C   0  0  0  0  0  0  0  0  0  0  0  0
   11.6295  -15.7945   22.3329 O   0  0  0  0  0  0  0  0  0  0  0  0
   11.5543  -18.6419   25.3663 O   0  0  0  0  0  0  0  0  0  0  0  0
    6.8339  -13.8811   22.0945 C   0  0  0  0  0  0  0  0  0  0  0  0
    7.5516  -15.0424   21.4015 C   0  0  1  0  0  0  0  0  0  0  0  0
    7.7628  -14.7323   19.9524 C   0  0  0  0  0  0  0  0  0  0  0  0
    8.8709  -15.3368   22.1287 C   0  0  2  0  0  0  0  0  0  0  0  0
    9.5535  -16.4508   21.5151 N   0  0  0  0  0  0  0  0  0  0  0  0
    8.5052  -15.6075   23.5400 C   0  0  0  0  0  0  0  0  0  0  0  0
    8.3102  -16.7878   23.8903 O   0  0  0  0  0  0  0  0  0  0  0  0
    6.2260  -11.6569   26.8897 C   0  0  0  0  0  0  0  0  0  0  0  0
    6.6250  -12.8504   26.0457 C   0  0  0  0  0  0  0  0  0  0  0  0
    7.7600  -13.6069   26.6953 C   0  0  2  0  0  0  0  0  0  0  0  0
    8.9727  -12.7208   26.8096 C   0  0  0  0  0  0  0  0  0  0  0  0
    8.0127  -14.8570   25.9114 C   0  0  2  0  0  0  0  0  0  0  0  0
    8.3622  -14.5949   24.5262 N   0  0  0  0  0  0  0  0  0  0  0  0
    6.8237  -15.7421   25.9190 C   0  0  0  0  0  0  0  0  0  0  0  0
    6.5836  -16.4848   27.0677 O   0  0  0  0  0  0  0  0  0  0  0  0
    6.0094  -15.8931   24.9987 O   0  0  0  0  0  0  0  0  0  0  0  0
  2  1  1  1
  3  2  1  0
  4  3  1  0
  5  6  2  0
  5  4  1  0
  7  2  1  0
  7  8  2  0
  9  5  1  0
 11 10  1  1
 11 12  1  0
 13 14  1  6
 13 11  1  0
 14  7  1  0
 15 13  1  0
 16 15  2  0
 18 17  1  0
 19 18  1  0
 19 20  1  6
 21 19  1  0
 21 22  1  6
 22 15  1  0
 23 24  1  0
 23 21  1  0
 25 23  2  0
M  END
$$$$
