EVI.pdb
     RDKit          3D

 25 24  0  0  1  0  0  0  0  0999 V2000
   10.7123  -19.2465   20.5648 N   0  0  0  0  0  0  0  0  0  0  0  0
   10.6499  -17.7834   20.4779 C   0  0  1  0  0  0  0  0  0  0  0  0
   10.2451  -17.4528   19.0611 C   0  0  0  0  0  0  0  0  0  0  0  0
   11.2384  -17.8504   18.0205 C   0  0  0  0  0  0  0  0  0  0  0  0
   10.7663  -17.5069   16.6671 C   0  0  0  0  0  0  0  0  0  0  0  0
   10.9102  -16.3924   16.1479 O   0  0  0  0  0  0  0  0  0  0  0  0
    9.5444  -17.2761   21.3628 C   0  0  0  0  0  0  0  0  0  0  0  0
    9.1710  -16.0934   21.1827 O   0  0  0  0  0  0  0  0  0  0  0  0
   10.1186  -18.5042   15.9324 O   0  0  0  0  0  0  0  0  0  0  0  0
    6.2062  -18.0346   24.9649 C   0  0  0  0  0  0  0  0  0  0  0  0
    7.2326  -18.6518   24.0113 C   0  0  1  0  0  0  0  0  0  0  0  0
    6.5622  -19.6057   23.0725 C   0  0  0  0  0  0  0  0  0  0  0  0
    7.9775  -17.5349   23.2672 C   0  0  2  0  0  0  0  0  0  0  0  0
    8.9484  -18.0899   22.3546 N   0  0  0  0  0  0  0  0  0  0  0  0
    8.6050  -16.6960   24.3166 C   0  0  0  0  0  0  0  0  0  0  0  0
    9.7092  -17.0445   24.7785 O   0  0  0  0  0  0  0  0  0  0  0  0
    6.0300  -12.1529   26.9304 C   0  0  0  0  0  0  0  0  0  0  0  0
    6.6360  -13.4975   26.5832 C   0  0  0  0  0  0  0  0  0  0  0  0
    7.9987  -13.3218   25.9551 C   0  0  2  0  0  0  0  0  0  0  0  0
    7.8714  -12.6023   24.6378 C   0  0  0  0  0  0  0  0  0  0  0  0
    8.6474  -14.6656   25.8348 C   0  0  2  0  0  0  0  0  0  0  0  0
    8.0196  -15.5088   24.8325 N   0  0  0  0  0  0  0  0  0  0  0  0
    8.6123  -15.3934   27.1256 C   0  0  0  0  0  0  0  0  0  0  0  0
    9.4634  -14.9563   28.1324 O   0  0  0  0  0  0  0  0  0  0  0  0
    7.8959  -16.3629   27.4077 O   0  0  0  0  0  0  0  0  0  0  0  0
  2  1  1  6
  3  2  1  0
  4  3  1  0
  5  6  2  0
  5  4  1  0
  7  2  1  0
  7  8  2  0
  9  5  1  0
 11 10  1  1
 11 12  1  0
 13 14  1  6
 13 11  1  0
 14  7  1  0
 15 13  1  0
 16 15  2  0
 18 17  1  0
 19 18  1  0
 19 20  1  6
 21 19  1  0
 21 22  1  6
 22 15  1  0
 23 24  1  0
 23 21  1  0
 25 23  2  0
M  END
$$$$
