EVI.pdb
     RDKit          3D

 25 24  0  0  1  0  0  0  0  0999 V2000
   11.8937  -16.5275   19.1877 N   0  0  0  0  0  0  0  0  0  0  0  0
   11.1026  -17.3582   20.1023 C   0  0  1  0  0  0  0  0  0  0  0  0
   12.0258  -18.4409   20.6084 C   0  0  0  0  0  0  0  0  0  0  0  0
   13.4685  -18.2282   20.2904 C   0  0  0  0  0  0  0  0  0  0  0  0
   14.3226  -19.2080   20.9856 C   0  0  0  0  0  0  0  0  0  0  0  0
   14.7141  -19.0773   22.1527 O   0  0  0  0  0  0  0  0  0  0  0  0
   10.7080  -16.5436   21.3036 C   0  0  0  0  0  0  0  0  0  0  0  0
   11.5609  -15.7412   21.7502 O   0  0  0  0  0  0  0  0  0  0  0  0
   14.7093  -20.3500   20.2783 O   0  0  0  0  0  0  0  0  0  0  0  0
    7.0751  -14.5326   23.9534 C   0  0  0  0  0  0  0  0  0  0  0  0
    7.5106  -15.4507   22.8083 C   0  0  1  0  0  0  0  0  0  0  0  0
    7.1542  -14.8405   21.4887 C   0  0  0  0  0  0  0  0  0  0  0  0
    9.0136  -15.7389   22.9255 C   0  0  2  0  0  0  0  0  0  0  0  0
    9.4349  -16.6711   21.9072 N   0  0  0  0  0  0  0  0  0  0  0  0
    9.2200  -16.2686   24.2951 C   0  0  0  0  0  0  0  0  0  0  0  0
    8.9947  -17.4759   24.5085 O   0  0  0  0  0  0  0  0  0  0  0  0
    9.8485  -12.8800   28.8606 C   0  0  0  0  0  0  0  0  0  0  0  0
    9.3805  -13.9403   27.8846 C   0  0  0  0  0  0  0  0  0  0  0  0
   10.4621  -14.9704   27.6576 C   0  0  2  0  0  0  0  0  0  0  0  0
   11.7211  -14.2995   27.1742 C   0  0  0  0  0  0  0  0  0  0  0  0
    9.9440  -16.0081   26.7111 C   0  0  2  0  0  0  0  0  0  0  0  0
    9.6628  -15.4772   25.3887 N   0  0  0  0  0  0  0  0  0  0  0  0
    8.6987  -16.6263   27.2253 C   0  0  0  0  0  0  0  0  0  0  0  0
    8.8062  -17.4667   28.3258 O   0  0  0  0  0  0  0  0  0  0  0  0
    7.5565  -16.4723   26.7735 O   0  0  0  0  0  0  0  0  0  0  0  0
  2  1  1  6
  3  2  1  0
  4  3  1  0
  5  6  2  0
  5  4  1  0
  7  2  1  0
  7  8  2  0
  9  5  1  0
 11 10  1  1
 11 12  1  0
 13 14  1  6
 13 11  1  0
 14  7  1  0
 15 13  1  0
 16 15  2  0
 18 17  1  0
 19 18  1  0
 19 20  1  6
 21 19  1  0
 21 22  1  6
 22 15  1  0
 23 24  1  0
 23 21  1  0
 25 23  2  0
M  END
$$$$
