EVI.pdb
     RDKit          3D

 25 24  0  0  1  0  0  0  0  0999 V2000
   11.3503  -18.6619   20.5701 N   0  0  0  0  0  0  0  0  0  0  0  0
   12.2128  -17.8137   21.4002 C   0  0  1  0  0  0  0  0  0  0  0  0
   12.8533  -16.8103   20.4710 C   0  0  0  0  0  0  0  0  0  0  0  0
   13.7502  -17.4039   19.4361 C   0  0  0  0  0  0  0  0  0  0  0  0
   15.1681  -17.1322   19.7334 C   0  0  0  0  0  0  0  0  0  0  0  0
   15.7087  -16.0304   19.5711 O   0  0  0  0  0  0  0  0  0  0  0  0
   11.3644  -17.0221   22.3573 C   0  0  0  0  0  0  0  0  0  0  0  0
   11.9231  -16.0781   22.9634 O   0  0  0  0  0  0  0  0  0  0  0  0
   15.9418  -18.1863   20.2275 O   0  0  0  0  0  0  0  0  0  0  0  0
    6.9534  -16.1369   24.4801 C   0  0  0  0  0  0  0  0  0  0  0  0
    7.7322  -16.8609   23.3787 C   0  0  1  0  0  0  0  0  0  0  0  0
    7.2325  -16.4459   22.0301 C   0  0  0  0  0  0  0  0  0  0  0  0
    9.2332  -16.5889   23.5486 C   0  0  2  0  0  0  0  0  0  0  0  0
    9.9983  -17.3227   22.5690 N   0  0  0  0  0  0  0  0  0  0  0  0
    9.5639  -16.9891   24.9376 C   0  0  0  0  0  0  0  0  0  0  0  0
    9.8119  -18.1883   25.1704 O   0  0  0  0  0  0  0  0  0  0  0  0
   10.1044  -12.7693   28.2774 C   0  0  0  0  0  0  0  0  0  0  0  0
   10.6662  -14.0118   27.6168 C   0  0  0  0  0  0  0  0  0  0  0  0
   10.1356  -15.2577   28.2865 C   0  0  2  0  0  0  0  0  0  0  0  0
   10.8867  -15.5159   29.5664 C   0  0  0  0  0  0  0  0  0  0  0  0
   10.2144  -16.3941   27.3150 C   0  0  2  0  0  0  0  0  0  0  0  0
    9.6157  -16.0813   26.0292 N   0  0  0  0  0  0  0  0  0  0  0  0
    9.5382  -17.6006   27.8481 C   0  0  0  0  0  0  0  0  0  0  0  0
    8.1812  -17.7431   27.5891 O   0  0  0  0  0  0  0  0  0  0  0  0
   10.0597  -18.5084   28.5089 O   0  0  0  0  0  0  0  0  0  0  0  0
  2  1  1  6
  3  2  1  0
  4  3  1  0
  5  6  2  0
  5  4  1  0
  7  2  1  0
  7  8  2  0
  9  5  1  0
 11 10  1  1
 11 12  1  0
 13 14  1  6
 13 11  1  0
 14  7  1  0
 15 13  1  0
 16 15  2  0
 18 17  1  0
 19 18  1  0
 19 20  1  1
 21 19  1  0
 21 22  1  6
 22 15  1  0
 23 24  1  0
 23 21  1  0
 25 23  2  0
M  END
$$$$
