EVI.pdb
     RDKit          3D

 25 24  0  0  1  0  0  0  0  0999 V2000
   10.1710  -16.4660   19.8138 N   0  0  0  0  0  0  0  0  0  0  0  0
    9.5105  -17.1133   20.9527 C   0  0  1  0  0  0  0  0  0  0  0  0
   10.2705  -18.3901   21.2228 C   0  0  0  0  0  0  0  0  0  0  0  0
   10.1794  -19.4106   20.1375 C   0  0  0  0  0  0  0  0  0  0  0  0
   10.8453  -20.6676   20.5239 C   0  0  0  0  0  0  0  0  0  0  0  0
   10.3096  -21.5514   21.2054 O   0  0  0  0  0  0  0  0  0  0  0  0
    9.6734  -16.2570   22.1786 C   0  0  0  0  0  0  0  0  0  0  0  0
   10.7983  -15.7355   22.3610 O   0  0  0  0  0  0  0  0  0  0  0  0
   12.1596  -20.8660   20.0915 O   0  0  0  0  0  0  0  0  0  0  0  0
    7.0066  -13.5846   23.5876 C   0  0  0  0  0  0  0  0  0  0  0  0
    7.4712  -14.5615   24.6709 C   0  0  1  0  0  0  0  0  0  0  0  0
    6.4102  -15.5827   24.9395 C   0  0  0  0  0  0  0  0  0  0  0  0
    8.7989  -15.2042   24.2464 C   0  0  2  0  0  0  0  0  0  0  0  0
    8.6109  -16.0450   23.0882 N   0  0  0  0  0  0  0  0  0  0  0  0
    9.2764  -15.9666   25.4252 C   0  0  0  0  0  0  0  0  0  0  0  0
    9.2149  -17.2113   25.3961 O   0  0  0  0  0  0  0  0  0  0  0  0
   10.2158  -14.6748   30.5406 C   0  0  0  0  0  0  0  0  0  0  0  0
   10.4129  -14.2062   29.1132 C   0  0  0  0  0  0  0  0  0  0  0  0
   11.4390  -15.0620   28.4082 C   0  0  2  0  0  0  0  0  0  0  0  0
   12.4307  -14.1889   27.6849 C   0  0  0  0  0  0  0  0  0  0  0  0
   10.7252  -16.0195   27.5054 C   0  0  2  0  0  0  0  0  0  0  0  0
    9.8043  -15.3598   26.5963 N   0  0  0  0  0  0  0  0  0  0  0  0
    9.9548  -17.0166   28.2860 C   0  0  0  0  0  0  0  0  0  0  0  0
    8.5757  -17.0333   28.1228 O   0  0  0  0  0  0  0  0  0  0  0  0
   10.4144  -17.8485   29.0795 O   0  0  0  0  0  0  0  0  0  0  0  0
  2  1  1  6
  3  2  1  0
  4  3  1  0
  5  6  2  0
  5  4  1  0
  7  2  1  0
  7  8  2  0
  9  5  1  0
 11 10  1  6
 11 12  1  0
 13 14  1  6
 13 11  1  0
 14  7  1  0
 15 13  1  0
 16 15  2  0
 18 17  1  0
 19 18  1  0
 19 20  1  6
 21 19  1  0
 21 22  1  6
 22 15  1  0
 23 24  1  0
 23 21  1  0
 25 23  2  0
M  END
$$$$
