EVI.pdb
     RDKit          3D

 25 24  0  0  1  0  0  0  0  0999 V2000
   12.5996  -16.3096   19.6132 N   0  0  0  0  0  0  0  0  0  0  0  0
   11.7665  -17.1839   20.4460 C   0  0  1  0  0  0  0  0  0  0  0  0
   12.7061  -18.1413   21.1398 C   0  0  0  0  0  0  0  0  0  0  0  0
   13.2572  -19.2173   20.2645 C   0  0  0  0  0  0  0  0  0  0  0  0
   14.0668  -20.1769   21.0368 C   0  0  0  0  0  0  0  0  0  0  0  0
   15.2113  -20.5266   20.7202 O   0  0  0  0  0  0  0  0  0  0  0  0
   11.1153  -16.3702   21.5305 C   0  0  0  0  0  0  0  0  0  0  0  0
   11.8299  -15.5166   22.1060 O   0  0  0  0  0  0  0  0  0  0  0  0
   13.5016  -20.7200   22.1941 O   0  0  0  0  0  0  0  0  0  0  0  0
    7.0100  -14.8367   23.8439 C   0  0  0  0  0  0  0  0  0  0  0  0
    7.6370  -15.6311   22.6952 C   0  0  1  0  0  0  0  0  0  0  0  0
    7.2851  -15.0087   21.3801 C   0  0  0  0  0  0  0  0  0  0  0  0
    9.1548  -15.7232   22.9042 C   0  0  2  0  0  0  0  0  0  0  0  0
    9.7594  -16.5537   21.8902 N   0  0  0  0  0  0  0  0  0  0  0  0
    9.3444  -16.2713   24.2689 C   0  0  0  0  0  0  0  0  0  0  0  0
    9.4613  -17.5048   24.4060 O   0  0  0  0  0  0  0  0  0  0  0  0
   10.0590  -12.5280   28.3318 C   0  0  0  0  0  0  0  0  0  0  0  0
   10.3924  -13.6652   27.3875 C   0  0  0  0  0  0  0  0  0  0  0  0
    9.7033  -14.9376   27.8214 C   0  0  2  0  0  0  0  0  0  0  0  0
   10.2548  -15.3981   29.1454 C   0  0  0  0  0  0  0  0  0  0  0  0
    9.8489  -15.9559   26.7337 C   0  0  2  0  0  0  0  0  0  0  0  0
    9.4015  -15.4695   25.4403 N   0  0  0  0  0  0  0  0  0  0  0  0
    9.0810  -17.1847   27.0459 C   0  0  0  0  0  0  0  0  0  0  0  0
    7.7565  -17.2368   26.6312 O   0  0  0  0  0  0  0  0  0  0  0  0
    9.4986  -18.1844   27.6450 O   0  0  0  0  0  0  0  0  0  0  0  0
  2  1  1  6
  3  2  1  0
  4  3  1  0
  5  6  2  0
  5  4  1  0
  7  2  1  0
  7  8  2  0
  9  5  1  0
 11 10  1  1
 11 12  1  0
 13 14  1  6
 13 11  1  0
 14  7  1  0
 15 13  1  0
 16 15  2  0
 18 17  1  0
 19 18  1  0
 19 20  1  1
 21 19  1  0
 21 22  1  6
 22 15  1  0
 23 24  1  0
 23 21  1  0
 25 23  2  0
M  END
$$$$
