EVI.pdb
     RDKit          3D

 25 24  0  0  1  0  0  0  0  0999 V2000
    8.6898  -18.9372   20.4063 N   0  0  0  0  0  0  0  0  0  0  0  0
    9.4625  -18.5957   21.6058 C   0  0  1  0  0  0  0  0  0  0  0  0
   10.8346  -19.1988   21.4205 C   0  0  0  0  0  0  0  0  0  0  0  0
   10.9956  -20.5679   21.9923 C   0  0  0  0  0  0  0  0  0  0  0  0
   11.1339  -21.5813   20.9309 C   0  0  0  0  0  0  0  0  0  0  0  0
   11.8262  -21.4281   19.9161 O   0  0  0  0  0  0  0  0  0  0  0  0
    9.6602  -17.1059   21.6664 C   0  0  0  0  0  0  0  0  0  0  0  0
   10.7755  -16.6662   21.3011 O   0  0  0  0  0  0  0  0  0  0  0  0
   10.4389  -22.7841   21.0865 O   0  0  0  0  0  0  0  0  0  0  0  0
    7.4211  -14.3985   20.1288 C   0  0  0  0  0  0  0  0  0  0  0  0
    7.6252  -14.0618   21.6083 C   0  0  1  0  0  0  0  0  0  0  0  0
    6.3901  -14.3848   22.3900 C   0  0  0  0  0  0  0  0  0  0  0  0
    8.8574  -14.8077   22.1386 C   0  0  2  0  0  0  0  0  0  0  0  0
    8.6394  -16.2344   22.1135 N   0  0  0  0  0  0  0  0  0  0  0  0
    9.0824  -14.2956   23.5119 C   0  0  0  0  0  0  0  0  0  0  0  0
    9.1239  -13.0625   23.6899 O   0  0  0  0  0  0  0  0  0  0  0  0
    6.6841  -11.9447   25.9383 C   0  0  0  0  0  0  0  0  0  0  0  0
    7.9109  -12.7309   25.5227 C   0  0  0  0  0  0  0  0  0  0  0  0
    8.1379  -13.8971   26.4559 C   0  0  2  0  0  0  0  0  0  0  0  0
    8.2239  -13.4107   27.8790 C   0  0  0  0  0  0  0  0  0  0  0  0
    9.3600  -14.6372   26.0089 C   0  0  2  0  0  0  0  0  0  0  0  0
    9.2551  -15.1318   24.6473 N   0  0  0  0  0  0  0  0  0  0  0  0
    9.6359  -15.7955   26.8917 C   0  0  0  0  0  0  0  0  0  0  0  0
   10.2101  -15.5368   28.1296 O   0  0  0  0  0  0  0  0  0  0  0  0
    9.4066  -16.9861   26.6415 O   0  0  0  0  0  0  0  0  0  0  0  0
  2  1  1  6
  3  2  1  0
  4  3  1  0
  5  6  2  0
  5  4  1  0
  7  2  1  0
  7  8  2  0
  9  5  1  0
 11 10  1  6
 11 12  1  0
 13 14  1  1
 13 11  1  0
 14  7  1  0
 15 13  1  0
 16 15  2  0
 18 17  1  0
 19 18  1  0
 19 20  1  1
 21 19  1  0
 21 22  1  6
 22 15  1  0
 23 24  1  0
 23 21  1  0
 25 23  2  0
M  END
$$$$
