EVI.pdb
     RDKit          3D

 25 24  0  0  1  0  0  0  0  0999 V2000
   11.9607  -16.5082   18.8084 N   0  0  0  0  0  0  0  0  0  0  0  0
   11.4700  -17.3402   19.9126 C   0  0  1  0  0  0  0  0  0  0  0  0
   12.6808  -18.0085   20.5194 C   0  0  0  0  0  0  0  0  0  0  0  0
   13.0384  -19.3226   19.9088 C   0  0  0  0  0  0  0  0  0  0  0  0
   14.2271  -19.9095   20.5532 C   0  0  0  0  0  0  0  0  0  0  0  0
   14.6346  -21.0578   20.3348 O   0  0  0  0  0  0  0  0  0  0  0  0
   10.8920  -16.4583   20.9852 C   0  0  0  0  0  0  0  0  0  0  0  0
   11.6340  -15.5558   21.4387 O   0  0  0  0  0  0  0  0  0  0  0  0
   14.9306  -19.1160   21.4638 O   0  0  0  0  0  0  0  0  0  0  0  0
    6.9017  -14.7445   23.3705 C   0  0  0  0  0  0  0  0  0  0  0  0
    7.4758  -15.6870   22.3094 C   0  0  1  0  0  0  0  0  0  0  0  0
    6.9962  -15.2906   20.9479 C   0  0  0  0  0  0  0  0  0  0  0  0
    9.0078  -15.6932   22.4042 C   0  0  2  0  0  0  0  0  0  0  0  0
    9.5727  -16.6328   21.4653 N   0  0  0  0  0  0  0  0  0  0  0  0
    9.3264  -16.0402   23.8102 C   0  0  0  0  0  0  0  0  0  0  0  0
    9.6220  -17.2204   24.0816 O   0  0  0  0  0  0  0  0  0  0  0  0
   10.1672  -13.4547   29.4601 C   0  0  0  0  0  0  0  0  0  0  0  0
   10.2205  -14.6222   28.4958 C   0  0  0  0  0  0  0  0  0  0  0  0
    9.7283  -14.2075   27.1291 C   0  0  2  0  0  0  0  0  0  0  0  0
    8.3499  -13.6096   27.2359 C   0  0  0  0  0  0  0  0  0  0  0  0
    9.7893  -15.3938   26.2179 C   0  0  2  0  0  0  0  0  0  0  0  0
    9.3152  -15.1014   24.8765 N   0  0  0  0  0  0  0  0  0  0  0  0
    8.9817  -16.5176   26.7490 C   0  0  0  0  0  0  0  0  0  0  0  0
    7.6956  -16.6763   26.2492 O   0  0  0  0  0  0  0  0  0  0  0  0
    9.3346  -17.3422   27.6024 O   0  0  0  0  0  0  0  0  0  0  0  0
  2  1  1  6
  3  2  1  0
  4  3  1  0
  5  6  2  0
  5  4  1  0
  7  2  1  0
  7  8  2  0
  9  5  1  0
 11 10  1  1
 11 12  1  0
 13 14  1  6
 13 11  1  0
 14  7  1  0
 15 13  1  0
 16 15  2  0
 18 17  1  0
 19 18  1  0
 19 20  1  1
 21 19  1  0
 21 22  1  6
 22 15  1  0
 23 24  1  0
 23 21  1  0
 25 23  2  0
M  END
$$$$
