EVI.pdb
     RDKit          3D

 25 24  0  0  1  0  0  0  0  0999 V2000
   12.9973  -16.9902   20.1695 N   0  0  0  0  0  0  0  0  0  0  0  0
   12.0399  -17.4335   21.1889 C   0  0  1  0  0  0  0  0  0  0  0  0
   12.8475  -17.7766   22.4181 C   0  0  0  0  0  0  0  0  0  0  0  0
   13.2723  -19.2047   22.5057 C   0  0  0  0  0  0  0  0  0  0  0  0
   13.1769  -19.7105   23.8869 C   0  0  0  0  0  0  0  0  0  0  0  0
   13.7530  -19.1933   24.8528 O   0  0  0  0  0  0  0  0  0  0  0  0
   11.1510  -16.2831   21.5746 C   0  0  0  0  0  0  0  0  0  0  0  0
   11.7158  -15.2429   21.9862 O   0  0  0  0  0  0  0  0  0  0  0  0
   12.3870  -20.8417   24.1113 O   0  0  0  0  0  0  0  0  0  0  0  0
    6.8197  -16.5766   21.5280 C   0  0  0  0  0  0  0  0  0  0  0  0
    7.5625  -15.2762   21.2102 C   0  0  1  0  0  0  0  0  0  0  0  0
    6.7209  -14.0939   21.5770 C   0  0  0  0  0  0  0  0  0  0  0  0
    8.9165  -15.2695   21.9332 C   0  0  2  0  0  0  0  0  0  0  0  0
    9.7418  -16.3636   21.4799 N   0  0  0  0  0  0  0  0  0  0  0  0
    8.6049  -15.3599   23.3801 C   0  0  0  0  0  0  0  0  0  0  0  0
    8.9167  -16.3990   23.9941 O   0  0  0  0  0  0  0  0  0  0  0  0
    7.0443  -10.7532   26.1391 C   0  0  0  0  0  0  0  0  0  0  0  0
    7.8046  -12.0513   25.9584 C   0  0  0  0  0  0  0  0  0  0  0  0
    6.8651  -13.2326   26.0225 C   0  0  2  0  0  0  0  0  0  0  0  0
    6.3401  -13.3995   27.4245 C   0  0  0  0  0  0  0  0  0  0  0  0
    7.5824  -14.4433   25.5116 C   0  0  2  0  0  0  0  0  0  0  0  0
    7.9671  -14.3255   24.1159 N   0  0  0  0  0  0  0  0  0  0  0  0
    6.7450  -15.6585   25.6498 C   0  0  0  0  0  0  0  0  0  0  0  0
    7.0705  -16.5506   26.6632 O   0  0  0  0  0  0  0  0  0  0  0  0
    5.7725  -15.9689   24.9494 O   0  0  0  0  0  0  0  0  0  0  0  0
  2  1  1  6
  3  2  1  0
  4  3  1  0
  5  6  2  0
  5  4  1  0
  7  2  1  0
  7  8  2  0
  9  5  1  0
 11 10  1  1
 11 12  1  0
 13 14  1  6
 13 11  1  0
 14  7  1  0
 15 13  1  0
 16 15  2  0
 18 17  1  0
 19 18  1  0
 19 20  1  1
 21 19  1  0
 21 22  1  6
 22 15  1  0
 23 24  1  0
 23 21  1  0
 25 23  2  0
M  END
$$$$
