EVI.pdb
     RDKit          3D

 25 24  0  0  1  0  0  0  0  0999 V2000
   12.1934  -16.4560   19.2196 N   0  0  0  0  0  0  0  0  0  0  0  0
   11.5043  -17.2767   20.2216 C   0  0  1  0  0  0  0  0  0  0  0  0
   12.5584  -18.1454   20.8657 C   0  0  0  0  0  0  0  0  0  0  0  0
   12.8883  -19.3889   20.1091 C   0  0  0  0  0  0  0  0  0  0  0  0
   13.7906  -20.2637   20.8794 C   0  0  0  0  0  0  0  0  0  0  0  0
   14.9187  -19.9268   21.2617 O   0  0  0  0  0  0  0  0  0  0  0  0
   10.9647  -16.3896   21.3098 C   0  0  0  0  0  0  0  0  0  0  0  0
   11.7475  -15.5338   21.7846 O   0  0  0  0  0  0  0  0  0  0  0  0
   13.3383  -21.5487   21.1928 O   0  0  0  0  0  0  0  0  0  0  0  0
    7.1351  -14.5752   23.8596 C   0  0  0  0  0  0  0  0  0  0  0  0
    7.6492  -15.3773   22.6613 C   0  0  1  0  0  0  0  0  0  0  0  0
    7.3395  -14.6602   21.3844 C   0  0  0  0  0  0  0  0  0  0  0  0
    9.1522  -15.6405   22.8274 C   0  0  2  0  0  0  0  0  0  0  0  0
    9.6362  -16.5093   21.7812 N   0  0  0  0  0  0  0  0  0  0  0  0
    9.3137  -16.2368   24.1754 C   0  0  0  0  0  0  0  0  0  0  0  0
    9.0615  -17.4482   24.3264 O   0  0  0  0  0  0  0  0  0  0  0  0
    9.6601  -13.1322   28.9432 C   0  0  0  0  0  0  0  0  0  0  0  0
    9.2905  -14.1481   27.8814 C   0  0  0  0  0  0  0  0  0  0  0  0
   10.4325  -15.1075   27.6412 C   0  0  2  0  0  0  0  0  0  0  0  0
   11.6745  -14.3464   27.2575 C   0  0  0  0  0  0  0  0  0  0  0  0
   10.0093  -16.1071   26.6102 C   0  0  2  0  0  0  0  0  0  0  0  0
    9.7420  -15.5055   25.3155 N   0  0  0  0  0  0  0  0  0  0  0  0
    8.7863  -16.8284   27.0358 C   0  0  0  0  0  0  0  0  0  0  0  0
    8.9201  -17.7868   28.0321 O   0  0  0  0  0  0  0  0  0  0  0  0
    7.6416  -16.6667   26.5929 O   0  0  0  0  0  0  0  0  0  0  0  0
  2  1  1  6
  3  2  1  0
  4  3  1  0
  5  6  2  0
  5  4  1  0
  7  2  1  0
  7  8  2  0
  9  5  1  0
 11 10  1  1
 11 12  1  0
 13 14  1  6
 13 11  1  0
 14  7  1  0
 15 13  1  0
 16 15  2  0
 18 17  1  0
 19 18  1  0
 19 20  1  6
 21 19  1  0
 21 22  1  6
 22 15  1  0
 23 24  1  0
 23 21  1  0
 25 23  2  0
M  END
$$$$
