EVI.pdb
     RDKit          3D

 25 24  0  0  1  0  0  0  0  0999 V2000
   12.8704  -17.3396   20.1125 N   0  0  0  0  0  0  0  0  0  0  0  0
   11.9581  -17.7877   21.1705 C   0  0  1  0  0  0  0  0  0  0  0  0
   12.8207  -18.1701   22.3497 C   0  0  0  0  0  0  0  0  0  0  0  0
   13.4950  -19.4957   22.2243 C   0  0  0  0  0  0  0  0  0  0  0  0
   13.7502  -20.0965   23.5459 C   0  0  0  0  0  0  0  0  0  0  0  0
   13.0317  -20.9633   24.0606 O   0  0  0  0  0  0  0  0  0  0  0  0
   11.1109  -16.6306   21.6241 C   0  0  0  0  0  0  0  0  0  0  0  0
   11.7137  -15.6273   22.0720 O   0  0  0  0  0  0  0  0  0  0  0  0
   14.8719  -19.6561   24.2541 O   0  0  0  0  0  0  0  0  0  0  0  0
    6.7372  -14.3069   21.6033 C   0  0  0  0  0  0  0  0  0  0  0  0
    7.5592  -15.5284   21.1837 C   0  0  1  0  0  0  0  0  0  0  0  0
    7.6964  -15.5758   19.6939 C   0  0  0  0  0  0  0  0  0  0  0  0
    8.9218  -15.4966   21.8897 C   0  0  2  0  0  0  0  0  0  0  0  0
    9.6985  -16.6652   21.5515 N   0  0  0  0  0  0  0  0  0  0  0  0
    8.6258  -15.4165   23.3405 C   0  0  0  0  0  0  0  0  0  0  0  0
    8.6546  -16.4648   24.0144 O   0  0  0  0  0  0  0  0  0  0  0  0
    6.7439  -11.4239   27.7839 C   0  0  0  0  0  0  0  0  0  0  0  0
    7.2199  -12.7861   27.3215 C   0  0  0  0  0  0  0  0  0  0  0  0
    7.4108  -12.8035   25.8230 C   0  0  2  0  0  0  0  0  0  0  0  0
    6.1103  -12.4847   25.1329 C   0  0  0  0  0  0  0  0  0  0  0  0
    7.9800  -14.1307   25.4282 C   0  0  2  0  0  0  0  0  0  0  0  0
    8.3085  -14.2074   24.0155 N   0  0  0  0  0  0  0  0  0  0  0  0
    7.0338  -15.2301   25.7337 C   0  0  0  0  0  0  0  0  0  0  0  0
    7.2038  -15.9087   26.9335 O   0  0  0  0  0  0  0  0  0  0  0  0
    6.0944  -15.6145   25.0247 O   0  0  0  0  0  0  0  0  0  0  0  0
  2  1  1  6
  3  2  1  0
  4  3  1  0
  5  6  2  0
  5  4  1  0
  7  2  1  0
  7  8  2  0
  9  5  1  0
 11 10  1  6
 11 12  1  0
 13 14  1  1
 13 11  1  0
 14  7  1  0
 15 13  1  0
 16 15  2  0
 18 17  1  0
 19 18  1  0
 19 20  1  6
 21 19  1  0
 21 22  1  6
 22 15  1  0
 23 24  1  0
 23 21  1  0
 25 23  2  0
M  END
$$$$
