EVI.pdb
     RDKit          3D

 25 24  0  0  1  0  0  0  0  0999 V2000
    9.0009  -18.2622   18.8334 N   0  0  0  0  0  0  0  0  0  0  0  0
    9.7507  -18.1621   20.0905 C   0  0  1  0  0  0  0  0  0  0  0  0
   10.9148  -17.2373   19.8253 C   0  0  0  0  0  0  0  0  0  0  0  0
   12.2504  -17.7981   20.1849 C   0  0  0  0  0  0  0  0  0  0  0  0
   13.3372  -16.8662   19.8338 C   0  0  0  0  0  0  0  0  0  0  0  0
   13.4396  -16.3080   18.7337 O   0  0  0  0  0  0  0  0  0  0  0  0
    8.8995  -17.4835   21.1283 C   0  0  0  0  0  0  0  0  0  0  0  0
    8.2474  -16.4790   20.7589 O   0  0  0  0  0  0  0  0  0  0  0  0
   14.3060  -16.6023   20.8062 O   0  0  0  0  0  0  0  0  0  0  0  0
    6.1863  -17.9083   25.1678 C   0  0  0  0  0  0  0  0  0  0  0  0
    7.1308  -18.5209   24.1303 C   0  0  1  0  0  0  0  0  0  0  0  0
    6.3725  -19.4186   23.2030 C   0  0  0  0  0  0  0  0  0  0  0  0
    7.8645  -17.4006   23.3802 C   0  0  2  0  0  0  0  0  0  0  0  0
    8.8325  -17.9511   22.4618 N   0  0  0  0  0  0  0  0  0  0  0  0
    8.4940  -16.5571   24.4246 C   0  0  0  0  0  0  0  0  0  0  0  0
    9.5660  -16.9384   24.9340 O   0  0  0  0  0  0  0  0  0  0  0  0
    6.0600  -11.7996   26.7290 C   0  0  0  0  0  0  0  0  0  0  0  0
    6.6022  -13.1749   26.3969 C   0  0  0  0  0  0  0  0  0  0  0  0
    8.0138  -13.0777   25.8676 C   0  0  2  0  0  0  0  0  0  0  0  0
    8.0163  -12.3940   24.5253 C   0  0  0  0  0  0  0  0  0  0  0  0
    8.6078  -14.4515   25.8327 C   0  0  2  0  0  0  0  0  0  0  0  0
    7.9454  -15.3299   24.8844 N   0  0  0  0  0  0  0  0  0  0  0  0
    8.5448  -15.0949   27.1666 C   0  0  0  0  0  0  0  0  0  0  0  0
    7.7174  -16.2015   27.3072 O   0  0  0  0  0  0  0  0  0  0  0  0
    9.1589  -14.7475   28.1839 O   0  0  0  0  0  0  0  0  0  0  0  0
  2  1  1  6
  3  2  1  0
  4  3  1  0
  5  6  2  0
  5  4  1  0
  7  2  1  0
  7  8  2  0
  9  5  1  0
 11 10  1  1
 11 12  1  0
 13 14  1  6
 13 11  1  0
 14  7  1  0
 15 13  1  0
 16 15  2  0
 18 17  1  0
 19 18  1  0
 19 20  1  6
 21 19  1  0
 21 22  1  6
 22 15  1  0
 23 24  1  0
 23 21  1  0
 25 23  2  0
M  END
$$$$
