EVI.pdb
     RDKit          3D

 25 24  0  0  1  0  0  0  0  0999 V2000
   10.1664  -18.8265   19.2759 N   0  0  0  0  0  0  0  0  0  0  0  0
    9.6309  -18.5940   20.6218 C   0  0  1  0  0  0  0  0  0  0  0  0
   10.5584  -19.2997   21.5823 C   0  0  0  0  0  0  0  0  0  0  0  0
   10.9847  -20.6627   21.1485 C   0  0  0  0  0  0  0  0  0  0  0  0
   11.7902  -21.3302   22.1870 C   0  0  0  0  0  0  0  0  0  0  0  0
   12.2406  -22.4783   22.0796 O   0  0  0  0  0  0  0  0  0  0  0  0
    9.7186  -17.1286   20.9492 C   0  0  0  0  0  0  0  0  0  0  0  0
   10.8671  -16.6344   21.0362 O   0  0  0  0  0  0  0  0  0  0  0  0
   12.0570  -20.6181   23.3598 O   0  0  0  0  0  0  0  0  0  0  0  0
    7.4844  -12.7540   21.7240 C   0  0  0  0  0  0  0  0  0  0  0  0
    7.3304  -14.2289   21.3437 C   0  0  1  0  0  0  0  0  0  0  0  0
    6.7618  -14.3533   19.9645 C   0  0  0  0  0  0  0  0  0  0  0  0
    8.6856  -14.9369   21.4770 C   0  0  2  0  0  0  0  0  0  0  0  0
    8.5631  -16.3377   21.1509 N   0  0  0  0  0  0  0  0  0  0  0  0
    9.1212  -14.7200   22.8778 C   0  0  0  0  0  0  0  0  0  0  0  0
   10.0348  -13.9013   23.0989 O   0  0  0  0  0  0  0  0  0  0  0  0
    7.2325  -11.8904   27.2197 C   0  0  0  0  0  0  0  0  0  0  0  0
    8.0721  -13.1220   26.9474 C   0  0  0  0  0  0  0  0  0  0  0  0
    7.8158  -13.6441   25.5532 C   0  0  2  0  0  0  0  0  0  0  0  0
    6.3378  -13.8415   25.3391 C   0  0  0  0  0  0  0  0  0  0  0  0
    8.6143  -14.8950   25.3560 C   0  0  2  0  0  0  0  0  0  0  0  0
    8.5559  -15.3942   23.9932 N   0  0  0  0  0  0  0  0  0  0  0  0
    8.1445  -15.9760   26.2549 C   0  0  0  0  0  0  0  0  0  0  0  0
    8.6981  -16.0388   27.5271 O   0  0  0  0  0  0  0  0  0  0  0  0
    7.2998  -16.8416   25.9906 O   0  0  0  0  0  0  0  0  0  0  0  0
  2  1  1  6
  3  2  1  0
  4  3  1  0
  5  6  2  0
  5  4  1  0
  7  2  1  0
  7  8  2  0
  9  5  1  0
 11 10  1  6
 11 12  1  0
 13 14  1  1
 13 11  1  0
 14  7  1  0
 15 13  1  0
 16 15  2  0
 18 17  1  0
 19 18  1  0
 19 20  1  1
 21 19  1  0
 21 22  1  6
 22 15  1  0
 23 24  1  0
 23 21  1  0
 25 23  2  0
M  END
$$$$
