EVI.pdb
     RDKit          3D

 25 24  0  0  1  0  0  0  0  0999 V2000
    9.8460  -15.9883   20.4851 N   0  0  0  0  0  0  0  0  0  0  0  0
    9.0518  -16.5459   21.5855 C   0  0  1  0  0  0  0  0  0  0  0  0
    9.6501  -17.8943   21.9084 C   0  0  0  0  0  0  0  0  0  0  0  0
    9.1866  -19.0081   21.0296 C   0  0  0  0  0  0  0  0  0  0  0  0
    9.6484  -20.3156   21.5296 C   0  0  0  0  0  0  0  0  0  0  0  0
   10.3386  -20.4611   22.5469 O   0  0  0  0  0  0  0  0  0  0  0  0
    9.2337  -15.6974   22.8140 C   0  0  0  0  0  0  0  0  0  0  0  0
   10.3860  -15.2556   23.0329 O   0  0  0  0  0  0  0  0  0  0  0  0
    9.2812  -21.4541   20.8066 O   0  0  0  0  0  0  0  0  0  0  0  0
    7.2762  -13.3471   26.7309 C   0  0  0  0  0  0  0  0  0  0  0  0
    7.0638  -13.9857   25.3559 C   0  0  1  0  0  0  0  0  0  0  0  0
    6.5374  -12.9724   24.3880 C   0  0  0  0  0  0  0  0  0  0  0  0
    8.3778  -14.6170   24.8754 C   0  0  2  0  0  0  0  0  0  0  0  0
    8.1592  -15.4067   23.6871 N   0  0  0  0  0  0  0  0  0  0  0  0
    8.8759  -15.4314   26.0100 C   0  0  0  0  0  0  0  0  0  0  0  0
    8.3278  -16.5260   26.2451 O   0  0  0  0  0  0  0  0  0  0  0  0
   13.9563  -14.0706   27.6724 C   0  0  0  0  0  0  0  0  0  0  0  0
   12.7631  -14.8463   27.1525 C   0  0  0  0  0  0  0  0  0  0  0  0
   11.9144  -15.3487   28.2969 C   0  0  2  0  0  0  0  0  0  0  0  0
   12.7052  -16.3129   29.1419 C   0  0  0  0  0  0  0  0  0  0  0  0
   10.6599  -15.9440   27.7374 C   0  0  2  0  0  0  0  0  0  0  0  0
    9.9493  -15.0370   26.8530 N   0  0  0  0  0  0  0  0  0  0  0  0
    9.7292  -16.3435   28.8196 C   0  0  0  0  0  0  0  0  0  0  0  0
    8.8492  -15.3811   29.2974 O   0  0  0  0  0  0  0  0  0  0  0  0
    9.6501  -17.4586   29.3516 O   0  0  0  0  0  0  0  0  0  0  0  0
  2  1  1  6
  3  2  1  0
  4  3  1  0
  5  6  2  0
  5  4  1  0
  7  2  1  0
  7  8  2  0
  9  5  1  0
 11 10  1  1
 11 12  1  0
 13 14  1  6
 13 11  1  0
 14  7  1  0
 15 13  1  0
 16 15  2  0
 18 17  1  0
 19 18  1  0
 19 20  1  6
 21 19  1  0
 21 22  1  6
 22 15  1  0
 23 24  1  0
 23 21  1  0
 25 23  2  0
M  END
$$$$
