EVI.pdb
     RDKit          3D

 25 24  0  0  1  0  0  0  0  0999 V2000
   11.0636  -17.5489   18.6054 N   0  0  0  0  0  0  0  0  0  0  0  0
    9.9902  -17.8355   19.5634 C   0  0  1  0  0  0  0  0  0  0  0  0
   10.4264  -19.0496   20.3486 C   0  0  0  0  0  0  0  0  0  0  0  0
    9.8063  -20.3331   19.9063 C   0  0  0  0  0  0  0  0  0  0  0  0
   10.5375  -20.9200   18.7689 C   0  0  0  0  0  0  0  0  0  0  0  0
   11.4461  -20.3407   18.1595 O   0  0  0  0  0  0  0  0  0  0  0  0
    9.8875  -16.7069   20.5525 C   0  0  0  0  0  0  0  0  0  0  0  0
   10.9633  -16.2416   20.9960 O   0  0  0  0  0  0  0  0  0  0  0  0
   10.1779  -22.2073   18.3601 O   0  0  0  0  0  0  0  0  0  0  0  0
    7.2027  -13.1712   22.7447 C   0  0  0  0  0  0  0  0  0  0  0  0
    7.2919  -14.2707   21.6831 C   0  0  1  0  0  0  0  0  0  0  0  0
    7.2150  -13.6763   20.3115 C   0  0  0  0  0  0  0  0  0  0  0  0
    8.5785  -15.0813   21.8914 C   0  0  2  0  0  0  0  0  0  0  0  0
    8.6383  -16.1889   20.9678 N   0  0  0  0  0  0  0  0  0  0  0  0
    8.5535  -15.5269   23.3055 C   0  0  0  0  0  0  0  0  0  0  0  0
    8.2799  -16.7180   23.5513 O   0  0  0  0  0  0  0  0  0  0  0  0
   10.1000  -13.5411   29.0484 C   0  0  0  0  0  0  0  0  0  0  0  0
    9.9016  -14.6268   28.0103 C   0  0  0  0  0  0  0  0  0  0  0  0
    9.4315  -14.0343   26.7026 C   0  0  2  0  0  0  0  0  0  0  0  0
    8.2009  -13.1952   26.9284 C   0  0  0  0  0  0  0  0  0  0  0  0
    9.2178  -15.1457   25.7226 C   0  0  2  0  0  0  0  0  0  0  0  0
    8.8246  -14.6718   24.4071 N   0  0  0  0  0  0  0  0  0  0  0  0
    8.1726  -16.0833   26.1976 C   0  0  0  0  0  0  0  0  0  0  0  0
    6.9000  -15.9536   25.6566 O   0  0  0  0  0  0  0  0  0  0  0  0
    8.3132  -16.9827   27.0367 O   0  0  0  0  0  0  0  0  0  0  0  0
  2  1  1  6
  3  2  1  0
  4  3  1  0
  5  6  2  0
  5  4  1  0
  7  2  1  0
  7  8  2  0
  9  5  1  0
 11 10  1  1
 11 12  1  0
 13 14  1  6
 13 11  1  0
 14  7  1  0
 15 13  1  0
 16 15  2  0
 18 17  1  0
 19 18  1  0
 19 20  1  1
 21 19  1  0
 21 22  1  6
 22 15  1  0
 23 24  1  0
 23 21  1  0
 25 23  2  0
M  END
$$$$
