EVI.pdb
     RDKit          3D

 25 24  0  0  1  0  0  0  0  0999 V2000
   12.6425  -16.9663   19.7757 N   0  0  0  0  0  0  0  0  0  0  0  0
   11.6520  -17.3883   20.7722 C   0  0  1  0  0  0  0  0  0  0  0  0
   12.4256  -17.9955   21.9183 C   0  0  0  0  0  0  0  0  0  0  0  0
   11.6970  -19.0622   22.6659 C   0  0  0  0  0  0  0  0  0  0  0  0
   12.5142  -19.6003   23.7683 C   0  0  0  0  0  0  0  0  0  0  0  0
   13.6784  -19.9990   23.6338 O   0  0  0  0  0  0  0  0  0  0  0  0
   10.9538  -16.1775   21.3280 C   0  0  0  0  0  0  0  0  0  0  0  0
   11.6796  -15.2673   21.7923 O   0  0  0  0  0  0  0  0  0  0  0  0
   11.9329  -19.6610   25.0380 O   0  0  0  0  0  0  0  0  0  0  0  0
    6.8628  -13.4750   21.9790 C   0  0  0  0  0  0  0  0  0  0  0  0
    7.6029  -14.5725   21.2099 C   0  0  1  0  0  0  0  0  0  0  0  0
    7.8489  -14.1419   19.7975 C   0  0  0  0  0  0  0  0  0  0  0  0
    8.9049  -14.9234   21.9430 C   0  0  2  0  0  0  0  0  0  0  0  0
    9.5437  -16.0634   21.3300 N   0  0  0  0  0  0  0  0  0  0  0  0
    8.5208  -15.1821   23.3517 C   0  0  0  0  0  0  0  0  0  0  0  0
    8.2668  -16.3530   23.6958 O   0  0  0  0  0  0  0  0  0  0  0  0
    7.5113  -10.8347   26.8965 C   0  0  0  0  0  0  0  0  0  0  0  0
    8.2204  -12.1299   26.5568 C   0  0  0  0  0  0  0  0  0  0  0  0
    7.2206  -13.2248   26.2672 C   0  0  2  0  0  0  0  0  0  0  0  0
    6.4421  -13.5563   27.5134 C   0  0  0  0  0  0  0  0  0  0  0  0
    7.9501  -14.4004   25.6953 C   0  0  2  0  0  0  0  0  0  0  0  0
    8.4238  -14.1681   24.3420 N   0  0  0  0  0  0  0  0  0  0  0  0
    7.0871  -15.6053   25.6727 C   0  0  0  0  0  0  0  0  0  0  0  0
    6.0489  -15.6342   24.7506 O   0  0  0  0  0  0  0  0  0  0  0  0
    7.1932  -16.6035   26.3973 O   0  0  0  0  0  0  0  0  0  0  0  0
  2  1  1  6
  3  2  1  0
  4  3  1  0
  5  6  2  0
  5  4  1  0
  7  2  1  0
  7  8  2  0
  9  5  1  0
 11 10  1  1
 11 12  1  0
 13 14  1  6
 13 11  1  0
 14  7  1  0
 15 13  1  0
 16 15  2  0
 18 17  1  0
 19 18  1  0
 19 20  1  1
 21 19  1  0
 21 22  1  6
 22 15  1  0
 23 24  1  0
 23 21  1  0
 25 23  2  0
M  END
$$$$
