YEN.pdb
     RDKit          3D

 30 30  0  0  1  0  0  0  0  0999 V2000
    4.9178  -10.8426   27.5135 O   0  0  0  0  0  0  0  0  0  0  0  0
    5.7637  -11.7971   26.9684 C   0  0  0  0  0  0  0  0  0  0  0  0
    6.7150  -12.3943   27.7886 C   0  0  0  0  0  0  0  0  0  0  0  0
    7.5481  -13.3402   27.2344 C   0  0  0  0  0  0  0  0  0  0  0  0
    7.4152  -13.6617   25.9007 C   0  0  0  0  0  0  0  0  0  0  0  0
    8.3141  -14.6763   25.3256 C   0  0  0  0  0  0  0  0  0  0  0  0
    7.4809  -15.7808   24.6608 C   0  0  2  0  0  0  0  0  0  0  0  0
    6.8679  -16.5474   25.7537 N   0  0  0  0  0  0  0  0  0  0  0  0
    8.4664  -16.6274   23.9263 C   0  0  0  0  0  0  0  0  0  0  0  0
    8.9557  -17.5946   24.5642 O   0  0  0  0  0  0  0  0  0  0  0  0
    6.4745  -13.0712   25.0895 C   0  0  0  0  0  0  0  0  0  0  0  0
    5.6410  -12.1264   25.6393 C   0  0  0  0  0  0  0  0  0  0  0  0
    8.7827  -16.3109   22.6120 N   0  0  0  0  0  0  0  0  0  0  0  0
    9.7920  -17.1323   21.8884 C   0  0  1  0  0  0  0  0  0  0  0  0
    9.6435  -16.8326   20.4292 C   0  0  0  0  0  0  0  0  0  0  0  0
   10.6113  -17.5886   19.5874 C   0  0  0  0  0  0  0  0  0  0  0  0
   10.5247  -17.2886   18.1351 C   0  0  0  0  0  0  0  0  0  0  0  0
   11.1933  -16.3256   17.6836 O   0  0  0  0  0  0  0  0  0  0  0  0
   11.1214  -16.6916   22.3626 C   0  0  0  0  0  0  0  0  0  0  0  0
   11.1586  -15.7046   23.1697 O   0  0  0  0  0  0  0  0  0  0  0  0
    9.7463  -18.0145   17.2601 O   0  0  0  0  0  0  0  0  0  0  0  0
   14.4247  -17.3707   25.9512 N   0  0  0  0  0  0  0  0  0  0  0  0
   14.0735  -18.3926   25.0309 C   0  0  0  0  0  0  0  0  0  0  0  0
   14.7623  -19.4411   25.0708 O   0  0  0  0  0  0  0  0  0  0  0  0
   12.9513  -18.1739   24.1046 C   0  0  0  0  0  0  0  0  0  0  0  0
   13.4358  -17.4081   22.8818 C   0  0  2  0  0  0  0  0  0  0  0  0
   12.3113  -17.3186   21.9655 N   0  0  0  0  0  0  0  0  0  0  0  0
   14.6226  -18.0728   22.2929 C   0  0  0  0  0  0  0  0  0  0  0  0
   15.9272  -17.7008   22.5398 O   0  0  0  0  0  0  0  0  0  0  0  0
   14.3988  -19.0392   21.5184 O   0  0  0  0  0  0  0  0  0  0  0  0
  2  1  1  0
  3  2  2  0
  4  3  1  0
  5  4  2  0
  5 11  1  0
  6  5  1  0
  7  8  1  1
  7  6  1  0
  9  7  1  0
 10  9  2  0
 11 12  2  0
 12  2  1  0
 13  9  1  0
 14 13  1  0
 14 15  1  6
 15 16  1  0
 17 16  1  0
 17 18  2  0
 19 14  1  0
 20 19  2  0
 21 17  1  0
 22 23  1  0
 23 24  2  0
 25 23  1  0
 26 25  1  1
 26 27  1  0
 27 19  1  0
 28 26  1  0
 28 29  1  0
 30 28  2  0
M  END
$$$$
