YEN.pdb
     RDKit          3D

 30 30  0  0  1  0  0  0  0  0999 V2000
    5.1175  -10.3509   26.7515 O   0  0  0  0  0  0  0  0  0  0  0  0
    5.8692  -11.4788   26.4572 C   0  0  0  0  0  0  0  0  0  0  0  0
    6.8707  -11.3834   25.4969 C   0  0  0  0  0  0  0  0  0  0  0  0
    7.6092  -12.5107   25.2148 C   0  0  0  0  0  0  0  0  0  0  0  0
    7.3365  -13.6842   25.8845 C   0  0  0  0  0  0  0  0  0  0  0  0
    8.1373  -14.8793   25.5704 C   0  0  0  0  0  0  0  0  0  0  0  0
    7.3182  -15.8253   24.6814 C   0  0  2  0  0  0  0  0  0  0  0  0
    6.3712  -16.5092   25.5720 N   0  0  0  0  0  0  0  0  0  0  0  0
    8.3056  -16.8002   24.1317 C   0  0  0  0  0  0  0  0  0  0  0  0
    8.5712  -17.7934   24.8560 O   0  0  0  0  0  0  0  0  0  0  0  0
    6.3461  -13.7787   26.8342 C   0  0  0  0  0  0  0  0  0  0  0  0
    5.6067  -12.6552   27.1185 C   0  0  0  0  0  0  0  0  0  0  0  0
    8.8640  -16.5653   22.8825 N   0  0  0  0  0  0  0  0  0  0  0  0
    9.9249  -17.4791   22.3762 C   0  0  1  0  0  0  0  0  0  0  0  0
   10.2927  -17.0128   21.0019 C   0  0  0  0  0  0  0  0  0  0  0  0
   11.4444  -17.7639   20.4310 C   0  0  0  0  0  0  0  0  0  0  0  0
   11.8112  -17.3643   19.0481 C   0  0  0  0  0  0  0  0  0  0  0  0
   11.2131  -17.9133   18.0895 O   0  0  0  0  0  0  0  0  0  0  0  0
   11.0821  -17.3361   23.2855 C   0  0  0  0  0  0  0  0  0  0  0  0
   11.5180  -16.1566   23.4989 O   0  0  0  0  0  0  0  0  0  0  0  0
   12.7759  -16.4217   18.7662 O   0  0  0  0  0  0  0  0  0  0  0  0
   11.7438  -20.5049   25.6855 N   0  0  0  0  0  0  0  0  0  0  0  0
   11.9381  -19.4664   26.6334 C   0  0  0  0  0  0  0  0  0  0  0  0
   11.6902  -19.7496   27.8309 O   0  0  0  0  0  0  0  0  0  0  0  0
   12.4070  -18.1496   26.1740 C   0  0  0  0  0  0  0  0  0  0  0  0
   12.8777  -18.2465   24.7299 C   0  0  2  0  0  0  0  0  0  0  0  0
   11.6924  -18.4335   23.9099 N   0  0  0  0  0  0  0  0  0  0  0  0
   13.8720  -19.3359   24.5828 C   0  0  0  0  0  0  0  0  0  0  0  0
   13.6572  -20.4966   23.8700 O   0  0  0  0  0  0  0  0  0  0  0  0
   14.9796  -19.1670   25.1562 O   0  0  0  0  0  0  0  0  0  0  0  0
  2  1  1  0
  3  2  2  0
  4  3  1  0
  5  4  2  0
  5 11  1  0
  6  5  1  0
  7  8  1  1
  7  6  1  0
  9  7  1  0
 10  9  2  0
 11 12  2  0
 12  2  1  0
 13  9  1  0
 14 13  1  0
 14 15  1  6
 15 16  1  0
 17 16  1  0
 17 18  2  0
 19 14  1  0
 20 19  2  0
 21 17  1  0
 22 23  1  0
 23 24  2  0
 25 23  1  0
 26 25  1  1
 26 27  1  0
 27 19  1  0
 28 26  1  0
 28 29  1  0
 30 28  2  0
M  END
$$$$
