YEN.pdb
     RDKit          3D

 30 30  0  0  1  0  0  0  0  0999 V2000
    5.2607  -10.0909   26.5563 O   0  0  0  0  0  0  0  0  0  0  0  0
    6.0635  -11.1853   26.2707 C   0  0  0  0  0  0  0  0  0  0  0  0
    6.3092  -11.5053   24.9397 C   0  0  0  0  0  0  0  0  0  0  0  0
    7.1080  -12.5942   24.6707 C   0  0  0  0  0  0  0  0  0  0  0  0
    7.6327  -13.3240   25.7156 C   0  0  0  0  0  0  0  0  0  0  0  0
    8.4855  -14.4844   25.4087 C   0  0  0  0  0  0  0  0  0  0  0  0
    7.6936  -15.4929   24.5648 C   0  0  2  0  0  0  0  0  0  0  0  0
    6.7364  -16.1310   25.4782 N   0  0  0  0  0  0  0  0  0  0  0  0
    8.7014  -16.4887   24.0956 C   0  0  0  0  0  0  0  0  0  0  0  0
    8.7438  -17.5777   24.7234 O   0  0  0  0  0  0  0  0  0  0  0  0
    7.3897  -13.0076   27.0318 C   0  0  0  0  0  0  0  0  0  0  0  0
    6.5927  -11.9211   27.3043 C   0  0  0  0  0  0  0  0  0  0  0  0
    9.5175  -16.1688   23.0189 N   0  0  0  0  0  0  0  0  0  0  0  0
   10.5176  -17.1639   22.5429 C   0  0  1  0  0  0  0  0  0  0  0  0
   10.6590  -16.9777   21.0642 C   0  0  0  0  0  0  0  0  0  0  0  0
   11.6046  -17.9510   20.4518 C   0  0  0  0  0  0  0  0  0  0  0  0
   11.7385  -17.8300   18.9773 C   0  0  0  0  0  0  0  0  0  0  0  0
   12.8729  -17.5792   18.4995 O   0  0  0  0  0  0  0  0  0  0  0  0
   11.7939  -16.8436   23.2174 C   0  0  0  0  0  0  0  0  0  0  0  0
   12.7551  -16.4301   22.4880 O   0  0  0  0  0  0  0  0  0  0  0  0
   10.6790  -17.9787   18.1091 O   0  0  0  0  0  0  0  0  0  0  0  0
   13.2414  -21.4907   24.9374 N   0  0  0  0  0  0  0  0  0  0  0  0
   12.8711  -20.3735   25.7307 C   0  0  0  0  0  0  0  0  0  0  0  0
   13.2706  -20.3765   26.9207 O   0  0  0  0  0  0  0  0  0  0  0  0
   12.0609  -19.3011   25.1321 C   0  0  0  0  0  0  0  0  0  0  0  0
   12.8461  -17.9974   25.1412 C   0  0  2  0  0  0  0  0  0  0  0  0
   11.9690  -16.9712   24.6029 N   0  0  0  0  0  0  0  0  0  0  0  0
   14.1089  -18.1497   24.3801 C   0  0  0  0  0  0  0  0  0  0  0  0
   15.3678  -17.9780   24.9161 O   0  0  0  0  0  0  0  0  0  0  0  0
   13.9989  -18.4568   23.1645 O   0  0  0  0  0  0  0  0  0  0  0  0
  2  1  1  0
  3  2  2  0
  4  3  1  0
  5  4  2  0
  5 11  1  0
  6  5  1  0
  7  8  1  1
  7  6  1  0
  9  7  1  0
 10  9  2  0
 11 12  2  0
 12  2  1  0
 13  9  1  0
 14 13  1  0
 14 15  1  6
 15 16  1  0
 17 16  1  0
 17 18  2  0
 19 14  1  0
 20 19  2  0
 21 17  1  0
 22 23  1  0
 23 24  2  0
 25 23  1  0
 26 25  1  6
 26 27  1  0
 27 19  1  0
 28 26  1  0
 28 29  1  0
 30 28  2  0
M  END
$$$$
