YEN.pdb
     RDKit          3D

 30 30  0  0  1  0  0  0  0  0999 V2000
    7.3066  -12.3672   17.2891 O   0  0  0  0  0  0  0  0  0  0  0  0
    7.4799  -13.0630   18.4763 C   0  0  0  0  0  0  0  0  0  0  0  0
    7.3087  -14.4433   18.4737 C   0  0  0  0  0  0  0  0  0  0  0  0
    7.4839  -15.1214   19.6592 C   0  0  0  0  0  0  0  0  0  0  0  0
    7.8193  -14.4201   20.7975 C   0  0  0  0  0  0  0  0  0  0  0  0
    8.0037  -15.1622   22.0558 C   0  0  0  0  0  0  0  0  0  0  0  0
    9.5021  -15.2738   22.3696 C   0  0  2  0  0  0  0  0  0  0  0  0
   10.1497  -15.7193   21.1287 N   0  0  0  0  0  0  0  0  0  0  0  0
    9.6062  -16.3337   23.4152 C   0  0  0  0  0  0  0  0  0  0  0  0
    8.7502  -16.2949   24.3358 O   0  0  0  0  0  0  0  0  0  0  0  0
    7.9886  -13.0552   20.8002 C   0  0  0  0  0  0  0  0  0  0  0  0
    7.8145  -12.3748   19.6184 C   0  0  0  0  0  0  0  0  0  0  0  0
   10.6159  -17.2817   23.3188 N   0  0  0  0  0  0  0  0  0  0  0  0
   10.7986  -18.2650   24.4219 C   0  0  1  0  0  0  0  0  0  0  0  0
   11.6960  -19.3469   23.9070 C   0  0  0  0  0  0  0  0  0  0  0  0
   11.9704  -20.3972   24.9260 C   0  0  0  0  0  0  0  0  0  0  0  0
   13.0669  -21.3313   24.5629 C   0  0  0  0  0  0  0  0  0  0  0  0
   12.8639  -22.1608   23.6415 O   0  0  0  0  0  0  0  0  0  0  0  0
   11.4594  -17.5449   25.5315 C   0  0  0  0  0  0  0  0  0  0  0  0
   11.9764  -16.4090   25.2680 O   0  0  0  0  0  0  0  0  0  0  0  0
   14.2947  -21.3325   25.1880 O   0  0  0  0  0  0  0  0  0  0  0  0
   10.3490  -14.1082   28.8435 N   0  0  0  0  0  0  0  0  0  0  0  0
   10.0171  -15.4783   29.0088 C   0  0  0  0  0  0  0  0  0  0  0  0
    9.6199  -15.8233   30.1485 O   0  0  0  0  0  0  0  0  0  0  0  0
   10.1527  -16.3957   27.8665 C   0  0  0  0  0  0  0  0  0  0  0  0
   11.4584  -17.1695   27.9807 C   0  0  2  0  0  0  0  0  0  0  0  0
   11.5242  -18.0602   26.8341 N   0  0  0  0  0  0  0  0  0  0  0  0
   11.5266  -17.8785   29.2806 C   0  0  0  0  0  0  0  0  0  0  0  0
   10.8564  -19.0493   29.5661 O   0  0  0  0  0  0  0  0  0  0  0  0
   12.2515  -17.3573   30.1676 O   0  0  0  0  0  0  0  0  0  0  0  0
  2  1  1  0
  3  2  2  0
  4  3  1  0
  5  4  2  0
  5 11  1  0
  6  5  1  0
  7  8  1  6
  7  6  1  0
  9  7  1  0
 10  9  2  0
 11 12  2  0
 12  2  1  0
 13  9  1  0
 14 13  1  0
 14 15  1  6
 15 16  1  0
 17 16  1  0
 17 18  2  0
 19 14  1  0
 20 19  2  0
 21 17  1  0
 22 23  1  0
 23 24  2  0
 25 23  1  0
 26 25  1  1
 26 27  1  0
 27 19  1  0
 28 26  1  0
 28 29  1  0
 30 28  2  0
M  END
$$$$
