YEN.pdb
     RDKit          3D

 30 30  0  0  1  0  0  0  0  0999 V2000
    8.9120  -11.9821   19.9114 O   0  0  0  0  0  0  0  0  0  0  0  0
    8.2834  -13.0242   20.5767 C   0  0  0  0  0  0  0  0  0  0  0  0
    7.4700  -13.8875   19.8504 C   0  0  0  0  0  0  0  0  0  0  0  0
    6.8523  -14.9177   20.5236 C   0  0  0  0  0  0  0  0  0  0  0  0
    7.0566  -15.0596   21.8793 C   0  0  0  0  0  0  0  0  0  0  0  0
    6.3887  -16.1678   22.5821 C   0  0  0  0  0  0  0  0  0  0  0  0
    6.7823  -17.4998   21.9286 C   0  0  2  0  0  0  0  0  0  0  0  0
    5.8004  -18.4900   22.3903 N   0  0  0  0  0  0  0  0  0  0  0  0
    8.1339  -17.8202   22.4744 C   0  0  0  0  0  0  0  0  0  0  0  0
    8.1610  -18.4513   23.5620 O   0  0  0  0  0  0  0  0  0  0  0  0
    7.8609  -14.2060   22.5976 C   0  0  0  0  0  0  0  0  0  0  0  0
    8.4794  -13.1763   21.9289 C   0  0  0  0  0  0  0  0  0  0  0  0
    9.2605  -17.4155   21.7711 N   0  0  0  0  0  0  0  0  0  0  0  0
   10.5998  -17.9081   22.1963 C   0  0  1  0  0  0  0  0  0  0  0  0
   11.5832  -17.4727   21.1549 C   0  0  0  0  0  0  0  0  0  0  0  0
   12.9698  -17.9275   21.4504 C   0  0  0  0  0  0  0  0  0  0  0  0
   13.9717  -17.5456   20.4223 C   0  0  0  0  0  0  0  0  0  0  0  0
   13.7614  -17.8811   19.2301 O   0  0  0  0  0  0  0  0  0  0  0  0
   10.9061  -17.2539   23.4864 C   0  0  0  0  0  0  0  0  0  0  0  0
   10.2349  -16.2127   23.7900 O   0  0  0  0  0  0  0  0  0  0  0  0
   15.1203  -16.8423   20.7132 O   0  0  0  0  0  0  0  0  0  0  0  0
    9.9229  -17.3654   28.2035 N   0  0  0  0  0  0  0  0  0  0  0  0
   10.0795  -18.5778   27.4821 C   0  0  0  0  0  0  0  0  0  0  0  0
    9.9572  -19.6394   28.1407 O   0  0  0  0  0  0  0  0  0  0  0  0
   10.3688  -18.5265   26.0404 C   0  0  0  0  0  0  0  0  0  0  0  0
   11.6481  -17.7375   25.8005 C   0  0  2  0  0  0  0  0  0  0  0  0
   11.8840  -17.7396   24.3664 N   0  0  0  0  0  0  0  0  0  0  0  0
   12.7667  -18.3176   26.5811 C   0  0  0  0  0  0  0  0  0  0  0  0
   13.8620  -18.9449   26.0259 O   0  0  0  0  0  0  0  0  0  0  0  0
   12.6888  -18.2184   27.8334 O   0  0  0  0  0  0  0  0  0  0  0  0
  2  1  1  0
  3  2  2  0
  4  3  1  0
  5  4  2  0
  5 11  1  0
  6  5  1  0
  7  8  1  1
  7  6  1  0
  9  7  1  0
 10  9  2  0
 11 12  2  0
 12  2  1  0
 13  9  1  0
 14 13  1  0
 14 15  1  6
 15 16  1  0
 17 16  1  0
 17 18  2  0
 19 14  1  0
 20 19  2  0
 21 17  1  0
 22 23  1  0
 23 24  2  0
 25 23  1  0
 26 25  1  6
 26 27  1  0
 27 19  1  0
 28 26  1  0
 28 29  1  0
 30 28  2  0
M  END
$$$$
