YEN.pdb
     RDKit          3D

 30 30  0  0  1  0  0  0  0  0999 V2000
    8.1450  -11.9775   17.3584 O   0  0  0  0  0  0  0  0  0  0  0  0
    7.9574  -12.5004   18.6292 C   0  0  0  0  0  0  0  0  0  0  0  0
    8.9171  -12.2494   19.6041 C   0  0  0  0  0  0  0  0  0  0  0  0
    8.7180  -12.7745   20.8613 C   0  0  0  0  0  0  0  0  0  0  0  0
    7.5881  -13.5232   21.1115 C   0  0  0  0  0  0  0  0  0  0  0  0
    7.3915  -14.0757   22.4622 C   0  0  0  0  0  0  0  0  0  0  0  0
    8.5586  -15.0111   22.8075 C   0  0  2  0  0  0  0  0  0  0  0  0
    8.6443  -15.9837   21.7101 N   0  0  0  0  0  0  0  0  0  0  0  0
    8.1535  -15.6937   24.0714 C   0  0  0  0  0  0  0  0  0  0  0  0
    7.9873  -14.9551   25.0757 O   0  0  0  0  0  0  0  0  0  0  0  0
    6.6390  -13.7714   20.1476 C   0  0  0  0  0  0  0  0  0  0  0  0
    6.8343  -13.2487   18.8912 C   0  0  0  0  0  0  0  0  0  0  0  0
    7.9859  -17.0719   24.0718 N   0  0  0  0  0  0  0  0  0  0  0  0
    7.7185  -17.7722   25.3583 C   0  0  1  0  0  0  0  0  0  0  0  0
    6.8788  -18.9711   25.0441 C   0  0  0  0  0  0  0  0  0  0  0  0
    5.9128  -18.7207   23.9392 C   0  0  0  0  0  0  0  0  0  0  0  0
    5.7469  -19.8601   23.0007 C   0  0  0  0  0  0  0  0  0  0  0  0
    4.9513  -19.7291   22.0374 O   0  0  0  0  0  0  0  0  0  0  0  0
    9.0292  -18.1987   25.8934 C   0  0  0  0  0  0  0  0  0  0  0  0
   10.0714  -17.6695   25.3828 O   0  0  0  0  0  0  0  0  0  0  0  0
    6.4224  -21.0533   23.1362 O   0  0  0  0  0  0  0  0  0  0  0  0
   12.3270  -17.0391   29.2764 N   0  0  0  0  0  0  0  0  0  0  0  0
   11.0116  -17.4371   29.6313 C   0  0  0  0  0  0  0  0  0  0  0  0
   10.7889  -17.6011   30.8557 O   0  0  0  0  0  0  0  0  0  0  0  0
   10.0071  -17.6308   28.5739 C   0  0  0  0  0  0  0  0  0  0  0  0
   10.1969  -18.9959   27.9282 C   0  0  2  0  0  0  0  0  0  0  0  0
    9.1539  -19.1390   26.9263 N   0  0  0  0  0  0  0  0  0  0  0  0
   10.1734  -20.0620   28.9577 C   0  0  0  0  0  0  0  0  0  0  0  0
    9.0368  -20.4909   29.6100 O   0  0  0  0  0  0  0  0  0  0  0  0
   11.2777  -20.5967   29.2383 O   0  0  0  0  0  0  0  0  0  0  0  0
  2  1  1  0
  3  2  2  0
  4  3  1  0
  5  4  2  0
  5 11  1  0
  6  5  1  0
  7  8  1  6
  7  6  1  0
  9  7  1  0
 10  9  2  0
 11 12  2  0
 12  2  1  0
 13  9  1  0
 14 13  1  0
 14 15  1  6
 15 16  1  0
 17 16  1  0
 17 18  2  0
 19 14  1  0
 20 19  2  0
 21 17  1  0
 22 23  1  0
 23 24  2  0
 25 23  1  0
 26 25  1  1
 26 27  1  0
 27 19  1  0
 28 26  1  0
 28 29  1  0
 30 28  2  0
M  END
$$$$
