YEN.pdb
     RDKit          3D

 30 30  0  0  1  0  0  0  0  0999 V2000
   14.3411  -22.2504   10.2912 O   0  0  0  0  0  0  0  0  0  0  0  0
   14.1053  -21.7707   11.5711 C   0  0  0  0  0  0  0  0  0  0  0  0
   14.8586  -20.6963   12.0320 C   0  0  0  0  0  0  0  0  0  0  0  0
   14.6139  -20.2303   13.3044 C   0  0  0  0  0  0  0  0  0  0  0  0
   13.6423  -20.8355   14.0722 C   0  0  0  0  0  0  0  0  0  0  0  0
   13.3938  -20.3229   15.4300 C   0  0  0  0  0  0  0  0  0  0  0  0
   12.0759  -19.5361   15.4469 C   0  0  2  0  0  0  0  0  0  0  0  0
   12.3045  -18.3338   14.6346 N   0  0  0  0  0  0  0  0  0  0  0  0
   11.8616  -19.1605   16.8754 C   0  0  0  0  0  0  0  0  0  0  0  0
   12.3686  -18.0715   17.2478 O   0  0  0  0  0  0  0  0  0  0  0  0
   12.8973  -21.8981   13.6165 C   0  0  0  0  0  0  0  0  0  0  0  0
   13.1388  -22.3660   12.3466 C   0  0  0  0  0  0  0  0  0  0  0  0
   11.1328  -20.0107   17.6961 N   0  0  0  0  0  0  0  0  0  0  0  0
   10.8732  -19.6141   19.1076 C   0  0  1  0  0  0  0  0  0  0  0  0
    9.4616  -19.9995   19.4238 C   0  0  0  0  0  0  0  0  0  0  0  0
    8.4671  -19.2591   18.5996 C   0  0  0  0  0  0  0  0  0  0  0  0
    7.0604  -19.6917   18.8020 C   0  0  0  0  0  0  0  0  0  0  0  0
    6.4819  -20.2982   17.8662 O   0  0  0  0  0  0  0  0  0  0  0  0
   11.8099  -20.3895   19.9488 C   0  0  0  0  0  0  0  0  0  0  0  0
   12.3336  -21.4328   19.4347 O   0  0  0  0  0  0  0  0  0  0  0  0
    6.3597  -19.4591   19.9653 O   0  0  0  0  0  0  0  0  0  0  0  0
   15.5392  -20.1145   18.7416 N   0  0  0  0  0  0  0  0  0  0  0  0
   15.2419  -20.4194   20.0956 C   0  0  0  0  0  0  0  0  0  0  0  0
   15.6991  -21.5016   20.5378 O   0  0  0  0  0  0  0  0  0  0  0  0
   14.4357  -19.4764   20.8866 C   0  0  0  0  0  0  0  0  0  0  0  0
   13.4732  -20.2462   21.7797 C   0  0  2  0  0  0  0  0  0  0  0  0
   12.1359  -20.0140   21.2599 N   0  0  0  0  0  0  0  0  0  0  0  0
   13.6350  -19.8300   23.1931 C   0  0  0  0  0  0  0  0  0  0  0  0
   13.2545  -18.6024   23.6928 O   0  0  0  0  0  0  0  0  0  0  0  0
   14.1574  -20.6710   23.9702 O   0  0  0  0  0  0  0  0  0  0  0  0
  2  1  1  0
  3  2  2  0
  4  3  1  0
  5  4  2  0
  5 11  1  0
  6  5  1  0
  7  8  1  6
  7  6  1  0
  9  7  1  0
 10  9  2  0
 11 12  2  0
 12  2  1  0
 13  9  1  0
 14 13  1  0
 14 15  1  1
 15 16  1  0
 17 16  1  0
 17 18  2  0
 19 14  1  0
 20 19  2  0
 21 17  1  0
 22 23  1  0
 23 24  2  0
 25 23  1  0
 26 25  1  6
 26 27  1  0
 27 19  1  0
 28 26  1  0
 28 29  1  0
 30 28  2  0
M  END
$$$$
