YEN.pdb
     RDKit          3D

 30 30  0  0  1  0  0  0  0  0999 V2000
   11.8998  -19.5908   30.4274 O   0  0  0  0  0  0  0  0  0  0  0  0
   12.8104  -19.3524   29.4086 C   0  0  0  0  0  0  0  0  0  0  0  0
   14.0746  -18.8762   29.7394 C   0  0  0  0  0  0  0  0  0  0  0  0
   14.9685  -18.6441   28.7181 C   0  0  0  0  0  0  0  0  0  0  0  0
   14.5875  -18.8877   27.4161 C   0  0  0  0  0  0  0  0  0  0  0  0
   15.5572  -18.6348   26.3372 C   0  0  0  0  0  0  0  0  0  0  0  0
   16.2169  -19.9569   25.9213 C   0  0  2  0  0  0  0  0  0  0  0  0
   16.9135  -20.4610   27.1123 N   0  0  0  0  0  0  0  0  0  0  0  0
   17.2036  -19.5875   24.8643 C   0  0  0  0  0  0  0  0  0  0  0  0
   18.4146  -19.5984   25.2034 O   0  0  0  0  0  0  0  0  0  0  0  0
   13.3374  -19.3587   27.0889 C   0  0  0  0  0  0  0  0  0  0  0  0
   12.4422  -19.5916   28.1059 C   0  0  0  0  0  0  0  0  0  0  0  0
   16.7445  -19.2600   23.5956 N   0  0  0  0  0  0  0  0  0  0  0  0
   17.7199  -19.1419   22.4767 C   0  0  1  0  0  0  0  0  0  0  0  0
   17.0876  -19.7628   21.2702 C   0  0  0  0  0  0  0  0  0  0  0  0
   17.5807  -21.1435   21.0112 C   0  0  0  0  0  0  0  0  0  0  0  0
   16.9924  -21.7887   19.8094 C   0  0  0  0  0  0  0  0  0  0  0  0
   16.0424  -22.5950   19.9694 O   0  0  0  0  0  0  0  0  0  0  0  0
   17.9353  -17.6971   22.2480 C   0  0  0  0  0  0  0  0  0  0  0  0
   16.9058  -16.9795   22.0197 O   0  0  0  0  0  0  0  0  0  0  0  0
   17.4387  -21.5463   18.5285 O   0  0  0  0  0  0  0  0  0  0  0  0
   20.9376  -14.6565   25.2116 N   0  0  0  0  0  0  0  0  0  0  0  0
   20.1219  -14.5759   24.0528 C   0  0  0  0  0  0  0  0  0  0  0  0
   19.0425  -13.9466   24.1722 O   0  0  0  0  0  0  0  0  0  0  0  0
   20.5732  -15.2170   22.8077 C   0  0  0  0  0  0  0  0  0  0  0  0
   19.3684  -15.6902   22.0071 C   0  0  2  0  0  0  0  0  0  0  0  0
   19.2075  -17.1081   22.2825 N   0  0  0  0  0  0  0  0  0  0  0  0
   19.5538  -15.3883   20.5678 C   0  0  0  0  0  0  0  0  0  0  0  0
   19.3841  -16.3041   19.5509 O   0  0  0  0  0  0  0  0  0  0  0  0
   19.8886  -14.2098   20.2794 O   0  0  0  0  0  0  0  0  0  0  0  0
  2  1  1  0
  3  2  2  0
  4  3  1  0
  5  4  2  0
  5 11  1  0
  6  5  1  0
  7  8  1  1
  7  6  1  0
  9  7  1  0
 10  9  2  0
 11 12  2  0
 12  2  1  0
 13  9  1  0
 14 13  1  0
 14 15  1  6
 15 16  1  0
 17 16  1  0
 17 18  2  0
 19 14  1  0
 20 19  2  0
 21 17  1  0
 22 23  1  0
 23 24  2  0
 25 23  1  0
 26 25  1  1
 26 27  1  0
 27 19  1  0
 28 26  1  0
 28 29  1  0
 30 28  2  0
M  END
$$$$
