YEN.pdb
     RDKit          3D

 30 30  0  0  1  0  0  0  0  0999 V2000
    8.1398  -12.5079   18.4371 O   0  0  0  0  0  0  0  0  0  0  0  0
    8.0293  -13.1045   19.6843 C   0  0  0  0  0  0  0  0  0  0  0  0
    7.4640  -12.3769   20.7262 C   0  0  0  0  0  0  0  0  0  0  0  0
    7.3604  -12.9816   21.9589 C   0  0  0  0  0  0  0  0  0  0  0  0
    7.8145  -14.2729   22.1202 C   0  0  0  0  0  0  0  0  0  0  0  0
    7.6944  -14.9036   23.4453 C   0  0  0  0  0  0  0  0  0  0  0  0
    7.2453  -16.3620   23.2794 C   0  0  2  0  0  0  0  0  0  0  0  0
    5.8682  -16.4281   23.7864 N   0  0  0  0  0  0  0  0  0  0  0  0
    8.1564  -17.1553   24.1557 C   0  0  0  0  0  0  0  0  0  0  0  0
    7.7165  -17.4495   25.2967 O   0  0  0  0  0  0  0  0  0  0  0  0
    8.3735  -14.9926   21.0900 C   0  0  0  0  0  0  0  0  0  0  0  0
    8.4785  -14.3922   19.8578 C   0  0  0  0  0  0  0  0  0  0  0  0
    9.4086  -17.5172   23.6777 N   0  0  0  0  0  0  0  0  0  0  0  0
   10.2891  -18.3738   24.5191 C   0  0  1  0  0  0  0  0  0  0  0  0
   11.3140  -18.9811   23.6126 C   0  0  0  0  0  0  0  0  0  0  0  0
   12.3251  -19.7879   24.3499 C   0  0  0  0  0  0  0  0  0  0  0  0
   13.3615  -20.4090   23.4857 C   0  0  0  0  0  0  0  0  0  0  0  0
   14.5097  -19.8994   23.4703 O   0  0  0  0  0  0  0  0  0  0  0  0
   10.9451  -17.4810   25.4983 C   0  0  0  0  0  0  0  0  0  0  0  0
   11.0634  -16.2508   25.1830 O   0  0  0  0  0  0  0  0  0  0  0  0
   13.1242  -21.5157   22.7000 O   0  0  0  0  0  0  0  0  0  0  0  0
   11.0864  -15.3303   29.9280 N   0  0  0  0  0  0  0  0  0  0  0  0
    9.9669  -15.4631   29.0656 C   0  0  0  0  0  0  0  0  0  0  0  0
    8.9728  -14.7422   29.3257 O   0  0  0  0  0  0  0  0  0  0  0  0
   10.0300  -16.4129   27.9437 C   0  0  0  0  0  0  0  0  0  0  0  0
   11.4056  -17.0625   27.8967 C   0  0  2  0  0  0  0  0  0  0  0  0
   11.4213  -17.9370   26.7360 N   0  0  0  0  0  0  0  0  0  0  0  0
   11.6869  -17.7690   29.1690 C   0  0  0  0  0  0  0  0  0  0  0  0
   11.1864  -19.0111   29.4982 O   0  0  0  0  0  0  0  0  0  0  0  0
   12.4356  -17.1751   29.9880 O   0  0  0  0  0  0  0  0  0  0  0  0
  2  1  1  0
  3  2  2  0
  4  3  1  0
  5  4  2  0
  5 11  1  0
  6  5  1  0
  7  8  1  1
  7  6  1  0
  9  7  1  0
 10  9  2  0
 11 12  2  0
 12  2  1  0
 13  9  1  0
 14 13  1  0
 14 15  1  6
 15 16  1  0
 17 16  1  0
 17 18  2  0
 19 14  1  0
 20 19  2  0
 21 17  1  0
 22 23  1  0
 23 24  2  0
 25 23  1  0
 26 25  1  1
 26 27  1  0
 27 19  1  0
 28 26  1  0
 28 29  1  0
 30 28  2  0
M  END
$$$$
