YEN.pdb
     RDKit          3D

 30 30  0  0  1  0  0  0  0  0999 V2000
    8.1451  -13.0070   27.7343 O   0  0  0  0  0  0  0  0  0  0  0  0
    7.6436  -13.4685   26.5263 C   0  0  0  0  0  0  0  0  0  0  0  0
    7.2225  -14.7911   26.4384 C   0  0  0  0  0  0  0  0  0  0  0  0
    6.7268  -15.2358   25.2332 C   0  0  0  0  0  0  0  0  0  0  0  0
    6.6641  -14.3674   24.1647 C   0  0  0  0  0  0  0  0  0  0  0  0
    6.1301  -14.8604   22.8841 C   0  0  0  0  0  0  0  0  0  0  0  0
    7.2927  -15.1926   21.9385 C   0  0  2  0  0  0  0  0  0  0  0  0
    6.6887  -15.7785   20.7345 N   0  0  0  0  0  0  0  0  0  0  0  0
    8.1042  -16.2169   22.6593 C   0  0  0  0  0  0  0  0  0  0  0  0
    7.6178  -17.3754   22.7155 O   0  0  0  0  0  0  0  0  0  0  0  0
    7.0806  -13.0594   24.2515 C   0  0  0  0  0  0  0  0  0  0  0  0
    7.5760  -12.6118   25.4532 C   0  0  0  0  0  0  0  0  0  0  0  0
    9.3214  -15.8467   23.2151 N   0  0  0  0  0  0  0  0  0  0  0  0
   10.2767  -16.9045   23.6457 C   0  0  1  0  0  0  0  0  0  0  0  0
   11.6531  -16.4236   23.3061 C   0  0  0  0  0  0  0  0  0  0  0  0
   12.7185  -17.3357   23.8059 C   0  0  0  0  0  0  0  0  0  0  0  0
   14.0970  -16.9336   23.4257 C   0  0  0  0  0  0  0  0  0  0  0  0
   14.2691  -15.7970   22.9192 O   0  0  0  0  0  0  0  0  0  0  0  0
   10.1347  -17.0380   25.1114 C   0  0  0  0  0  0  0  0  0  0  0  0
    9.1567  -16.4332   25.6633 O   0  0  0  0  0  0  0  0  0  0  0  0
   15.1953  -17.7469   23.6010 O   0  0  0  0  0  0  0  0  0  0  0  0
    7.1672  -18.2601   26.2262 N   0  0  0  0  0  0  0  0  0  0  0  0
    8.1249  -18.6658   27.1921 C   0  0  0  0  0  0  0  0  0  0  0  0
    7.8350  -18.4446   28.3932 O   0  0  0  0  0  0  0  0  0  0  0  0
    9.3720  -19.3063   26.7458 C   0  0  0  0  0  0  0  0  0  0  0  0
   10.5607  -18.4308   27.1159 C   0  0  2  0  0  0  0  0  0  0  0  0
   11.0188  -17.7987   25.8899 N   0  0  0  0  0  0  0  0  0  0  0  0
   11.6070  -19.2375   27.7878 C   0  0  0  0  0  0  0  0  0  0  0  0
   11.8838  -19.1866   29.1378 O   0  0  0  0  0  0  0  0  0  0  0  0
   12.2745  -20.0139   27.0560 O   0  0  0  0  0  0  0  0  0  0  0  0
  2  1  1  0
  3  2  2  0
  4  3  1  0
  5  4  2  0
  5 11  1  0
  6  5  1  0
  7  8  1  6
  7  6  1  0
  9  7  1  0
 10  9  2  0
 11 12  2  0
 12  2  1  0
 13  9  1  0
 14 13  1  0
 14 15  1  1
 15 16  1  0
 17 16  1  0
 17 18  2  0
 19 14  1  0
 20 19  2  0
 21 17  1  0
 22 23  1  0
 23 24  2  0
 25 23  1  0
 26 25  1  6
 26 27  1  0
 27 19  1  0
 28 26  1  0
 28 29  1  0
 30 28  2  0
M  END
$$$$
