YEN.pdb
     RDKit          3D

 30 30  0  0  1  0  0  0  0  0999 V2000
    7.6401  -12.5639   26.9763 O   0  0  0  0  0  0  0  0  0  0  0  0
    7.3753  -13.2313   25.7896 C   0  0  0  0  0  0  0  0  0  0  0  0
    6.8366  -14.5122   25.8485 C   0  0  0  0  0  0  0  0  0  0  0  0
    6.5786  -15.1631   24.6629 C   0  0  0  0  0  0  0  0  0  0  0  0
    6.8587  -14.5330   23.4694 C   0  0  0  0  0  0  0  0  0  0  0  0
    6.5752  -15.2441   22.2116 C   0  0  0  0  0  0  0  0  0  0  0  0
    7.8910  -15.5160   21.4694 C   0  0  2  0  0  0  0  0  0  0  0  0
    7.5223  -16.1613   20.2023 N   0  0  0  0  0  0  0  0  0  0  0  0
    8.6401  -16.4723   22.3365 C   0  0  0  0  0  0  0  0  0  0  0  0
    8.1113  -17.6002   22.5096 O   0  0  0  0  0  0  0  0  0  0  0  0
    7.3915  -13.2664   23.4111 C   0  0  0  0  0  0  0  0  0  0  0  0
    7.6503  -12.6134   24.5928 C   0  0  0  0  0  0  0  0  0  0  0  0
    9.8497  -16.0767   22.8915 N   0  0  0  0  0  0  0  0  0  0  0  0
   10.6654  -17.0705   23.6425 C   0  0  1  0  0  0  0  0  0  0  0  0
   12.0373  -17.0610   23.0434 C   0  0  0  0  0  0  0  0  0  0  0  0
   12.2022  -18.0822   21.9725 C   0  0  0  0  0  0  0  0  0  0  0  0
   13.4629  -17.9581   21.1968 C   0  0  0  0  0  0  0  0  0  0  0  0
   13.4111  -17.4445   20.0515 O   0  0  0  0  0  0  0  0  0  0  0  0
   10.7225  -16.6048   25.0446 C   0  0  0  0  0  0  0  0  0  0  0  0
   11.1711  -15.4294   25.2544 O   0  0  0  0  0  0  0  0  0  0  0  0
   14.6855  -18.3798   21.6720 O   0  0  0  0  0  0  0  0  0  0  0  0
   10.1111  -13.6630   28.7040 N   0  0  0  0  0  0  0  0  0  0  0  0
   10.2097  -14.6615   27.7000 C   0  0  0  0  0  0  0  0  0  0  0  0
   10.7492  -14.3166   26.6203 O   0  0  0  0  0  0  0  0  0  0  0  0
    9.6886  -16.0105   27.9712 C   0  0  0  0  0  0  0  0  0  0  0  0
   10.6825  -17.0538   27.4811 C   0  0  2  0  0  0  0  0  0  0  0  0
   10.2998  -17.3972   26.1217 N   0  0  0  0  0  0  0  0  0  0  0  0
   10.7032  -18.2182   28.3979 C   0  0  0  0  0  0  0  0  0  0  0  0
   11.1812  -18.1841   29.6909 O   0  0  0  0  0  0  0  0  0  0  0  0
   10.2485  -19.3000   27.9428 O   0  0  0  0  0  0  0  0  0  0  0  0
  2  1  1  0
  3  2  2  0
  4  3  1  0
  5  4  2  0
  5 11  1  0
  6  5  1  0
  7  8  1  6
  7  6  1  0
  9  7  1  0
 10  9  2  0
 11 12  2  0
 12  2  1  0
 13  9  1  0
 14 13  1  0
 14 15  1  6
 15 16  1  0
 17 16  1  0
 17 18  2  0
 19 14  1  0
 20 19  2  0
 21 17  1  0
 22 23  1  0
 23 24  2  0
 25 23  1  0
 26 25  1  1
 26 27  1  0
 27 19  1  0
 28 26  1  0
 28 29  1  0
 30 28  2  0
M  END
$$$$
