YEN.pdb
     RDKit          3D

 30 30  0  0  1  0  0  0  0  0999 V2000
    7.7723  -12.5699   26.8852 O   0  0  0  0  0  0  0  0  0  0  0  0
    7.4237  -13.2270   25.7146 C   0  0  0  0  0  0  0  0  0  0  0  0
    6.8129  -14.4733   25.8036 C   0  0  0  0  0  0  0  0  0  0  0  0
    6.4720  -15.1142   24.6336 C   0  0  0  0  0  0  0  0  0  0  0  0
    6.7433  -14.5085   23.4256 C   0  0  0  0  0  0  0  0  0  0  0  0
    6.3707  -15.2084   22.1849 C   0  0  0  0  0  0  0  0  0  0  0  0
    7.6238  -15.4316   21.3268 C   0  0  2  0  0  0  0  0  0  0  0  0
    7.1784  -16.1578   20.1302 N   0  0  0  0  0  0  0  0  0  0  0  0
    8.5161  -16.2967   22.1531 C   0  0  0  0  0  0  0  0  0  0  0  0
    8.0462  -17.4098   22.5025 O   0  0  0  0  0  0  0  0  0  0  0  0
    7.3474  -13.2760   23.3374 C   0  0  0  0  0  0  0  0  0  0  0  0
    7.6891  -12.6330   24.5035 C   0  0  0  0  0  0  0  0  0  0  0  0
    9.7845  -15.8392   22.4837 N   0  0  0  0  0  0  0  0  0  0  0  0
   10.7158  -16.7415   23.2154 C   0  0  1  0  0  0  0  0  0  0  0  0
   12.0778  -16.1239   23.1454 C   0  0  0  0  0  0  0  0  0  0  0  0
   13.1296  -16.9855   23.7520 C   0  0  0  0  0  0  0  0  0  0  0  0
   14.5081  -16.6910   23.2832 C   0  0  0  0  0  0  0  0  0  0  0  0
   14.6822  -15.7074   22.5214 O   0  0  0  0  0  0  0  0  0  0  0  0
   10.2526  -16.7871   24.6188 C   0  0  0  0  0  0  0  0  0  0  0  0
    9.2200  -16.1008   24.9182 O   0  0  0  0  0  0  0  0  0  0  0  0
   15.6041  -17.4447   23.6426 O   0  0  0  0  0  0  0  0  0  0  0  0
    7.0625  -18.7847   27.3065 N   0  0  0  0  0  0  0  0  0  0  0  0
    7.7997  -18.6385   26.1024 C   0  0  0  0  0  0  0  0  0  0  0  0
    7.2120  -18.0634   25.1540 O   0  0  0  0  0  0  0  0  0  0  0  0
    9.1756  -19.1549   26.0324 C   0  0  0  0  0  0  0  0  0  0  0  0
   10.1312  -18.1610   26.6772 C   0  0  2  0  0  0  0  0  0  0  0  0
   10.8965  -17.5515   25.6025 N   0  0  0  0  0  0  0  0  0  0  0  0
   10.9758  -18.8387   27.6893 C   0  0  0  0  0  0  0  0  0  0  0  0
   10.6156  -19.0243   29.0074 O   0  0  0  0  0  0  0  0  0  0  0  0
   12.0925  -19.2649   27.2951 O   0  0  0  0  0  0  0  0  0  0  0  0
  2  1  1  0
  3  2  2  0
  4  3  1  0
  5  4  2  0
  5 11  1  0
  6  5  1  0
  7  8  1  6
  7  6  1  0
  9  7  1  0
 10  9  2  0
 11 12  2  0
 12  2  1  0
 13  9  1  0
 14 13  1  0
 14 15  1  1
 15 16  1  0
 17 16  1  0
 17 18  2  0
 19 14  1  0
 20 19  2  0
 21 17  1  0
 22 23  1  0
 23 24  2  0
 25 23  1  0
 26 25  1  6
 26 27  1  0
 27 19  1  0
 28 26  1  0
 28 29  1  0
 30 28  2  0
M  END
$$$$
