YEN.pdb
     RDKit          3D

 30 30  0  0  1  0  0  0  0  0999 V2000
    9.1819  -12.2369   18.0785 O   0  0  0  0  0  0  0  0  0  0  0  0
    8.7109  -12.9002   19.2019 C   0  0  0  0  0  0  0  0  0  0  0  0
    7.3689  -12.7686   19.5427 C   0  0  0  0  0  0  0  0  0  0  0  0
    6.9148  -13.4326   20.6602 C   0  0  0  0  0  0  0  0  0  0  0  0
    7.7933  -14.1974   21.3973 C   0  0  0  0  0  0  0  0  0  0  0  0
    7.2895  -14.9011   22.5885 C   0  0  0  0  0  0  0  0  0  0  0  0
    6.8698  -16.3261   22.2021 C   0  0  2  0  0  0  0  0  0  0  0  0
    5.5274  -16.2145   21.6163 N   0  0  0  0  0  0  0  0  0  0  0  0
    6.8101  -17.0801   23.4887 C   0  0  0  0  0  0  0  0  0  0  0  0
    5.8035  -16.8693   24.2126 O   0  0  0  0  0  0  0  0  0  0  0  0
    9.1204  -14.3276   21.0604 C   0  0  0  0  0  0  0  0  0  0  0  0
    9.5773  -13.6661   19.9452 C   0  0  0  0  0  0  0  0  0  0  0  0
    7.8420  -17.9516   23.8101 N   0  0  0  0  0  0  0  0  0  0  0  0
    7.7133  -18.8197   25.0130 C   0  0  1  0  0  0  0  0  0  0  0  0
    7.1970  -20.1461   24.5491 C   0  0  0  0  0  0  0  0  0  0  0  0
    7.1057  -21.1428   25.6514 C   0  0  0  0  0  0  0  0  0  0  0  0
    6.5530  -22.4596   25.2422 C   0  0  0  0  0  0  0  0  0  0  0  0
    7.3040  -23.2572   24.6274 O   0  0  0  0  0  0  0  0  0  0  0  0
    9.0717  -18.9743   25.5760 C   0  0  0  0  0  0  0  0  0  0  0  0
   10.0437  -18.4966   24.9022 O   0  0  0  0  0  0  0  0  0  0  0  0
    5.2571  -22.8477   25.5035 O   0  0  0  0  0  0  0  0  0  0  0  0
   10.8555  -16.1568   29.7078 N   0  0  0  0  0  0  0  0  0  0  0  0
   11.2202  -17.0448   28.6623 C   0  0  0  0  0  0  0  0  0  0  0  0
   12.4448  -17.2925   28.5416 O   0  0  0  0  0  0  0  0  0  0  0  0
   10.1718  -17.6117   27.7996 C   0  0  0  0  0  0  0  0  0  0  0  0
   10.3547  -19.1188   27.6908 C   0  0  2  0  0  0  0  0  0  0  0  0
    9.3133  -19.6085   26.8032 N   0  0  0  0  0  0  0  0  0  0  0  0
   10.3217  -19.7414   29.0356 C   0  0  0  0  0  0  0  0  0  0  0  0
   11.3852  -19.7584   29.9132 O   0  0  0  0  0  0  0  0  0  0  0  0
    9.2390  -20.2849   29.3768 O   0  0  0  0  0  0  0  0  0  0  0  0
  2  1  1  0
  3  2  2  0
  4  3  1  0
  5  4  2  0
  5 11  1  0
  6  5  1  0
  7  8  1  1
  7  6  1  0
  9  7  1  0
 10  9  2  0
 11 12  2  0
 12  2  1  0
 13  9  1  0
 14 13  1  0
 14 15  1  6
 15 16  1  0
 17 16  1  0
 17 18  2  0
 19 14  1  0
 20 19  2  0
 21 17  1  0
 22 23  1  0
 23 24  2  0
 25 23  1  0
 26 25  1  1
 26 27  1  0
 27 19  1  0
 28 26  1  0
 28 29  1  0
 30 28  2  0
M  END
$$$$
