YEN.pdb
     RDKit          3D

 30 30  0  0  1  0  0  0  0  0999 V2000
    8.2941  -12.4019   28.2650 O   0  0  0  0  0  0  0  0  0  0  0  0
    7.8570  -13.0025   27.0937 C   0  0  0  0  0  0  0  0  0  0  0  0
    8.7971  -13.5803   26.2471 C   0  0  0  0  0  0  0  0  0  0  0  0
    8.3492  -14.1731   25.0879 C   0  0  0  0  0  0  0  0  0  0  0  0
    7.0000  -14.1755   24.8059 C   0  0  0  0  0  0  0  0  0  0  0  0
    6.5394  -14.8151   23.5622 C   0  0  0  0  0  0  0  0  0  0  0  0
    6.6215  -16.3408   23.7102 C   0  0  2  0  0  0  0  0  0  0  0  0
    6.2703  -16.6378   25.1052 N   0  0  0  0  0  0  0  0  0  0  0  0
    8.0514  -16.6834   23.4540 C   0  0  0  0  0  0  0  0  0  0  0  0
    8.7063  -17.1149   24.4371 O   0  0  0  0  0  0  0  0  0  0  0  0
    6.0703  -13.6042   25.6431 C   0  0  0  0  0  0  0  0  0  0  0  0
    6.5137  -13.0115   26.8014 C   0  0  0  0  0  0  0  0  0  0  0  0
    8.5693  -16.5123   22.1773 N   0  0  0  0  0  0  0  0  0  0  0  0
    9.8812  -17.1281   21.8356 C   0  0  1  0  0  0  0  0  0  0  0  0
   10.0943  -16.9310   20.3670 C   0  0  0  0  0  0  0  0  0  0  0  0
   11.3863  -17.4997   19.8939 C   0  0  0  0  0  0  0  0  0  0  0  0
   11.2528  -18.4979   18.8019 C   0  0  0  0  0  0  0  0  0  0  0  0
   12.1364  -18.5282   17.9094 O   0  0  0  0  0  0  0  0  0  0  0  0
   10.9111  -16.3918   22.5995 C   0  0  0  0  0  0  0  0  0  0  0  0
   10.5973  -15.2392   23.0468 O   0  0  0  0  0  0  0  0  0  0  0  0
   10.2068  -19.3910   18.7202 O   0  0  0  0  0  0  0  0  0  0  0  0
   11.4395  -18.1251   25.6093 N   0  0  0  0  0  0  0  0  0  0  0  0
   12.4605  -17.1600   25.8110 C   0  0  0  0  0  0  0  0  0  0  0  0
   13.3199  -17.4305   26.6849 O   0  0  0  0  0  0  0  0  0  0  0  0
   12.4568  -15.9279   25.0068 C   0  0  0  0  0  0  0  0  0  0  0  0
   13.1364  -16.1848   23.6694 C   0  0  2  0  0  0  0  0  0  0  0  0
   12.1880  -16.9164   22.8463 N   0  0  0  0  0  0  0  0  0  0  0  0
   14.4171  -16.9035   23.8704 C   0  0  0  0  0  0  0  0  0  0  0  0
   14.6914  -18.1611   23.3757 O   0  0  0  0  0  0  0  0  0  0  0  0
   15.2980  -16.3051   24.5413 O   0  0  0  0  0  0  0  0  0  0  0  0
  2  1  1  0
  3  2  2  0
  4  3  1  0
  5  4  2  0
  5 11  1  0
  6  5  1  0
  7  8  1  1
  7  6  1  0
  9  7  1  0
 10  9  2  0
 11 12  2  0
 12  2  1  0
 13  9  1  0
 14 13  1  0
 14 15  1  6
 15 16  1  0
 17 16  1  0
 17 18  2  0
 19 14  1  0
 20 19  2  0
 21 17  1  0
 22 23  1  0
 23 24  2  0
 25 23  1  0
 26 25  1  1
 26 27  1  0
 27 19  1  0
 28 26  1  0
 28 29  1  0
 30 28  2  0
M  END
$$$$
