YEN.pdb
     RDKit          3D

 30 30  0  0  1  0  0  0  0  0999 V2000
    6.2707  -12.0265   18.6809 O   0  0  0  0  0  0  0  0  0  0  0  0
    7.0819  -13.0134   19.2210 C   0  0  0  0  0  0  0  0  0  0  0  0
    6.5555  -13.8511   20.1985 C   0  0  0  0  0  0  0  0  0  0  0  0
    7.3719  -14.8265   20.7258 C   0  0  0  0  0  0  0  0  0  0  0  0
    8.6691  -14.9411   20.2743 C   0  0  0  0  0  0  0  0  0  0  0  0
    9.5270  -15.9907   20.8490 C   0  0  0  0  0  0  0  0  0  0  0  0
    9.7392  -17.1029   19.8125 C   0  0  2  0  0  0  0  0  0  0  0  0
    8.4485  -17.7911   19.6780 N   0  0  0  0  0  0  0  0  0  0  0  0
   10.7506  -18.0173   20.4197 C   0  0  0  0  0  0  0  0  0  0  0  0
   10.3027  -18.9378   21.1504 O   0  0  0  0  0  0  0  0  0  0  0  0
    9.1897  -14.1128   19.3076 C   0  0  0  0  0  0  0  0  0  0  0  0
    8.3776  -13.1377   18.7788 C   0  0  0  0  0  0  0  0  0  0  0  0
   12.0970  -17.8089   20.1528 N   0  0  0  0  0  0  0  0  0  0  0  0
   13.1024  -18.7656   20.6923 C   0  0  1  0  0  0  0  0  0  0  0  0
   14.3925  -18.5008   19.9807 C   0  0  0  0  0  0  0  0  0  0  0  0
   14.3973  -19.0269   18.5879 C   0  0  0  0  0  0  0  0  0  0  0  0
   15.6677  -18.8005   17.8520 C   0  0  0  0  0  0  0  0  0  0  0  0
   16.3087  -19.8016   17.4455 O   0  0  0  0  0  0  0  0  0  0  0  0
   13.2483  -18.4656   22.1328 C   0  0  0  0  0  0  0  0  0  0  0  0
   13.0098  -17.2707   22.5100 O   0  0  0  0  0  0  0  0  0  0  0  0
   16.1772  -17.5465   17.5948 O   0  0  0  0  0  0  0  0  0  0  0  0
   10.8373  -18.3568   26.4529 N   0  0  0  0  0  0  0  0  0  0  0  0
   11.0197  -19.5396   25.6897 C   0  0  0  0  0  0  0  0  0  0  0  0
   10.6671  -20.6148   26.2330 O   0  0  0  0  0  0  0  0  0  0  0  0
   11.5964  -19.4444   24.3395 C   0  0  0  0  0  0  0  0  0  0  0  0
   13.1142  -19.3788   24.4322 C   0  0  2  0  0  0  0  0  0  0  0  0
   13.6241  -19.4363   23.0724 N   0  0  0  0  0  0  0  0  0  0  0  0
   13.6262  -20.4672   25.2985 C   0  0  0  0  0  0  0  0  0  0  0  0
   14.4270  -21.5008   24.8606 O   0  0  0  0  0  0  0  0  0  0  0  0
   13.2941  -20.4231   26.5117 O   0  0  0  0  0  0  0  0  0  0  0  0
  2  1  1  0
  3  2  2  0
  4  3  1  0
  5  4  2  0
  5 11  1  0
  6  5  1  0
  7  8  1  1
  7  6  1  0
  9  7  1  0
 10  9  2  0
 11 12  2  0
 12  2  1  0
 13  9  1  0
 14 13  1  0
 14 15  1  6
 15 16  1  0
 17 16  1  0
 17 18  2  0
 19 14  1  0
 20 19  2  0
 21 17  1  0
 22 23  1  0
 23 24  2  0
 25 23  1  0
 26 25  1  6
 26 27  1  0
 27 19  1  0
 28 26  1  0
 28 29  1  0
 30 28  2  0
M  END
$$$$
