TCH.pdb
     RDKit          3D

 24 24  0  0  1  0  0  0  0  0999 V2000
   28.0298  -28.2740  -19.6946 C   0  0  0  0  0  0  0  0  0  0  0  0
   28.1421  -29.2931  -18.5923 C   0  0  1  0  0  0  0  0  0  0  0  0
   29.0874  -30.2441  -18.9377 O   0  0  0  0  0  0  0  0  0  0  0  0
   28.5971  -28.6290  -17.3125 C   0  0  2  0  0  0  0  0  0  0  0  0
   28.6902  -29.6189  -16.2865 N   0  0  0  0  0  0  0  0  0  0  0  0
   27.6963  -27.5138  -16.9546 C   0  0  0  0  0  0  0  0  0  0  0  0
   26.6692  -27.8220  -16.2622 O   0  0  0  0  0  0  0  0  0  0  0  0
   27.9389  -26.1715  -17.3465 N   0  0  0  0  0  0  0  0  0  0  0  0
   27.0742  -25.1408  -16.8874 C   0  0  1  0  0  0  0  0  0  0  0  0
   27.7399  -23.7880  -17.0354 C   0  0  0  0  0  0  0  0  0  0  0  0
   29.3404  -23.7381  -16.2301 S   0  0  0  0  0  0  0  0  0  0  0  0
   25.7379  -25.1629  -17.5462 C   0  0  0  0  0  0  0  0  0  0  0  0
   25.6121  -25.2996  -18.7905 O   0  0  0  0  0  0  0  0  0  0  0  0
   24.5199  -25.0315  -16.8164 N   0  0  0  0  0  0  0  0  0  0  0  0
   23.2195  -25.0564  -17.4275 C   0  0  1  0  0  0  0  0  0  0  0  0
   22.1232  -25.4207  -16.4595 C   0  0  0  0  0  0  0  0  0  0  0  0
   21.9331  -24.4103  -15.4035 C   0  0  0  0  0  0  0  0  0  0  0  0
   22.6709  -23.2608  -15.2365 C   0  0  0  0  0  0  0  0  0  0  0  0
   22.1670  -22.6156  -14.1476 N   0  0  0  0  0  0  0  0  0  0  0  0
   21.1494  -23.3333  -13.6482 C   0  0  0  0  0  0  0  0  0  0  0  0
   21.0246  -24.4093  -14.4178 N   0  0  0  0  0  0  0  0  0  0  0  0
   22.9191  -23.8324  -18.1958 C   0  0  0  0  0  0  0  0  0  0  0  0
   23.7352  -22.7405  -18.1508 O   0  0  0  0  0  0  0  0  0  0  0  0
   21.8886  -23.8098  -18.9006 O   0  0  0  0  0  0  0  0  0  0  0  0
  2  1  1  6
  2  3  1  0
  2  4  1  0
  4  5  1  1
  6  4  1  0
  6  8  1  0
  7  6  2  0
  9  8  1  0
  9 12  1  0
  9 10  1  6
 11 10  1  0
 12 14  1  0
 13 12  2  0
 14 15  1  0
 15 22  1  0
 15 16  1  1
 16 17  1  0
 17 21  1  0
 18 17  2  0
 18 19  1  0
 19 20  1  0
 21 20  2  0
 22 23  1  0
 24 22  2  0
M  END
$$$$
