TCH.pdb
     RDKit          3D

 24 24  0  0  1  0  0  0  0  0999 V2000
   23.1473  -12.6938  -19.6586 C   0  0  0  0  0  0  0  0  0  0  0  0
   23.2742  -13.7906  -18.6351 C   0  0  1  0  0  0  0  0  0  0  0  0
   23.3571  -15.0141  -19.2780 O   0  0  0  0  0  0  0  0  0  0  0  0
   24.5373  -13.6045  -17.8252 C   0  0  2  0  0  0  0  0  0  0  0  0
   24.7443  -14.7658  -17.0194 N   0  0  0  0  0  0  0  0  0  0  0  0
   24.4700  -12.3596  -17.0322 C   0  0  0  0  0  0  0  0  0  0  0  0
   23.4753  -12.2523  -16.2395 O   0  0  0  0  0  0  0  0  0  0  0  0
   25.4425  -11.3306  -17.1298 N   0  0  0  0  0  0  0  0  0  0  0  0
   25.2888  -10.1464  -16.3583 C   0  0  1  0  0  0  0  0  0  0  0  0
   26.5615   -9.3253  -16.3920 C   0  0  0  0  0  0  0  0  0  0  0  0
   27.9642  -10.2387  -15.7513 S   0  0  0  0  0  0  0  0  0  0  0  0
   24.1078   -9.3337  -16.7648 C   0  0  0  0  0  0  0  0  0  0  0  0
   23.6992   -9.3032  -17.9543 O   0  0  0  0  0  0  0  0  0  0  0  0
   23.3663   -8.5412  -15.8400 N   0  0  0  0  0  0  0  0  0  0  0  0
   22.1284   -7.8879  -16.1656 C   0  0  1  0  0  0  0  0  0  0  0  0
   21.1451   -8.8020  -16.8507 C   0  0  0  0  0  0  0  0  0  0  0  0
   20.0814   -8.0694  -17.5605 C   0  0  0  0  0  0  0  0  0  0  0  0
   19.9765   -6.7025  -17.6795 C   0  0  0  0  0  0  0  0  0  0  0  0
   18.8542   -6.4485  -18.4088 N   0  0  0  0  0  0  0  0  0  0  0  0
   18.2746   -7.6133  -18.7363 C   0  0  0  0  0  0  0  0  0  0  0  0
   19.0282   -8.5765  -18.2167 N   0  0  0  0  0  0  0  0  0  0  0  0
   21.5368   -7.1684  -15.0206 C   0  0  0  0  0  0  0  0  0  0  0  0
   20.5350   -6.2580  -15.1874 O   0  0  0  0  0  0  0  0  0  0  0  0
   21.9739   -7.4091  -13.8760 O   0  0  0  0  0  0  0  0  0  0  0  0
  2  1  1  6
  2  3  1  0
  2  4  1  0
  4  5  1  1
  6  4  1  0
  6  8  1  0
  7  6  2  0
  9  8  1  0
  9 12  1  0
  9 10  1  6
 11 10  1  0
 12 14  1  0
 13 12  2  0
 14 15  1  0
 15 22  1  0
 15 16  1  1
 16 17  1  0
 17 21  1  0
 18 17  2  0
 18 19  1  0
 19 20  1  0
 21 20  2  0
 22 23  1  0
 24 22  2  0
M  END
$$$$
