TCH.pdb
     RDKit          3D

 24 24  0  0  1  0  0  0  0  0999 V2000
   19.5531  -23.5763   -6.5083 C   0  0  0  0  0  0  0  0  0  0  0  0
   19.3002  -23.8198   -7.9723 C   0  0  1  0  0  0  0  0  0  0  0  0
   20.5065  -23.8398   -8.6518 O   0  0  0  0  0  0  0  0  0  0  0  0
   18.6329  -25.1620   -8.1701 C   0  0  2  0  0  0  0  0  0  0  0  0
   18.5492  -25.4341   -9.5701 N   0  0  0  0  0  0  0  0  0  0  0  0
   17.3170  -25.1945   -7.4989 C   0  0  0  0  0  0  0  0  0  0  0  0
   16.2976  -25.0652   -8.2559 O   0  0  0  0  0  0  0  0  0  0  0  0
   17.1714  -25.3587   -6.0968 N   0  0  0  0  0  0  0  0  0  0  0  0
   15.8690  -25.4031   -5.5285 C   0  0  1  0  0  0  0  0  0  0  0  0
   15.0534  -26.5110   -6.1630 C   0  0  0  0  0  0  0  0  0  0  0  0
   15.9202  -28.0796   -6.1359 S   0  0  0  0  0  0  0  0  0  0  0  0
   15.8836  -25.5226   -4.0433 C   0  0  0  0  0  0  0  0  0  0  0  0
   16.5034  -26.4469   -3.4566 O   0  0  0  0  0  0  0  0  0  0  0  0
   15.2010  -24.6041   -3.1925 N   0  0  0  0  0  0  0  0  0  0  0  0
   15.2262  -24.6793   -1.7576 C   0  0  1  0  0  0  0  0  0  0  0  0
   14.0019  -25.3450   -1.1835 C   0  0  0  0  0  0  0  0  0  0  0  0
   12.7506  -24.8753   -1.8046 C   0  0  0  0  0  0  0  0  0  0  0  0
   12.6353  -23.8794   -2.7471 C   0  0  0  0  0  0  0  0  0  0  0  0
   11.3119  -23.7645   -3.0492 N   0  0  0  0  0  0  0  0  0  0  0  0
   10.6203  -24.6557   -2.3230 C   0  0  0  0  0  0  0  0  0  0  0  0
   11.5039  -25.3142   -1.5807 N   0  0  0  0  0  0  0  0  0  0  0  0
   16.4835  -25.2453   -1.2311 C   0  0  0  0  0  0  0  0  0  0  0  0
   16.7297  -25.3194    0.1084 O   0  0  0  0  0  0  0  0  0  0  0  0
   17.3346  -25.6631   -2.0437 O   0  0  0  0  0  0  0  0  0  0  0  0
  2  1  1  1
  2  3  1  0
  2  4  1  0
  4  5  1  6
  6  4  1  0
  6  8  1  0
  7  6  2  0
  9  8  1  0
  9 12  1  0
  9 10  1  6
 11 10  1  0
 12 14  1  0
 13 12  2  0
 14 15  1  0
 15 22  1  0
 15 16  1  6
 16 17  1  0
 17 21  1  0
 18 17  2  0
 18 19  1  0
 19 20  1  0
 21 20  2  0
 22 23  1  0
 24 22  2  0
M  END
$$$$
