TCH.pdb
     RDKit          3D

 24 24  0  0  1  0  0  0  0  0999 V2000
  -45.0654   23.2439  -37.4239 C   0  0  0  0  0  0  0  0  0  0  0  0
  -45.8519   22.6416  -38.5576 C   0  0  1  0  0  0  0  0  0  0  0  0
  -45.0211   22.4607  -39.6504 O   0  0  0  0  0  0  0  0  0  0  0  0
  -46.3927   21.2880  -38.1557 C   0  0  2  0  0  0  0  0  0  0  0  0
  -47.8046   21.2719  -38.3731 N   0  0  0  0  0  0  0  0  0  0  0  0
  -46.0225   20.9714  -36.7607 C   0  0  0  0  0  0  0  0  0  0  0  0
  -45.4612   19.8407  -36.5719 O   0  0  0  0  0  0  0  0  0  0  0  0
  -46.2671   21.8569  -35.6790 N   0  0  0  0  0  0  0  0  0  0  0  0
  -45.7703   21.5369  -34.3860 C   0  0  1  0  0  0  0  0  0  0  0  0
  -45.3932   22.7991  -33.6378 C   0  0  0  0  0  0  0  0  0  0  0  0
  -44.0426   22.5201  -32.4930 S   0  0  0  0  0  0  0  0  0  0  0  0
  -46.7087   20.6951  -33.5916 C   0  0  0  0  0  0  0  0  0  0  0  0
  -47.6995   20.1259  -34.1179 O   0  0  0  0  0  0  0  0  0  0  0  0
  -46.5485   20.4793  -32.1912 N   0  0  0  0  0  0  0  0  0  0  0  0
  -45.3610   20.8315  -31.4626 C   0  0  1  0  0  0  0  0  0  0  0  0
  -44.7644   19.6668  -30.7149 C   0  0  0  0  0  0  0  0  0  0  0  0
  -43.8222   18.8832  -31.5336 C   0  0  0  0  0  0  0  0  0  0  0  0
  -43.5840   17.5320  -31.4290 C   0  0  0  0  0  0  0  0  0  0  0  0
  -42.6481   17.2160  -32.3672 N   0  0  0  0  0  0  0  0  0  0  0  0
  -42.3102   18.3281  -33.0373 C   0  0  0  0  0  0  0  0  0  0  0  0
  -43.0275   19.3202  -32.5208 N   0  0  0  0  0  0  0  0  0  0  0  0
  -44.3691   21.5488  -32.2873 C   0  0  0  0  0  0  0  0  0  0  0  0
  -44.7403   22.2898  -33.3706 O   0  0  0  0  0  0  0  0  0  0  0  0
  -43.1632   21.4666  -31.9739 O   0  0  0  0  0  0  0  0  0  0  0  0
  2  1  1  1
  2  3  1  0
  2  4  1  0
  4  5  1  1
  6  4  1  0
  6  8  1  0
  7  6  2  0
  9  8  1  0
  9 12  1  0
  9 10  1  1
 11 10  1  0
 12 14  1  0
 13 12  2  0
 14 15  1  0
 15 22  1  0
 15 16  1  6
 16 17  1  0
 17 21  1  0
 18 17  2  0
 18 19  1  0
 19 20  1  0
 21 20  2  0
 22 23  1  0
 24 22  2  0
M  END
$$$$
