TCH.pdb
     RDKit          3D

 24 24  0  0  1  0  0  0  0  0999 V2000
   17.4505  -12.9882    7.3391 C   0  0  0  0  0  0  0  0  0  0  0  0
   18.3147  -12.0967    6.4878 C   0  0  1  0  0  0  0  0  0  0  0  0
   17.6596  -10.8979    6.2622 O   0  0  0  0  0  0  0  0  0  0  0  0
   19.6113  -11.7905    7.2026 C   0  0  2  0  0  0  0  0  0  0  0  0
   20.3782  -10.8893    6.4020 N   0  0  0  0  0  0  0  0  0  0  0  0
   20.3384  -13.0366    7.5214 C   0  0  0  0  0  0  0  0  0  0  0  0
   21.4156  -13.2407    6.8678 O   0  0  0  0  0  0  0  0  0  0  0  0
   19.8844  -13.9662    8.4930 N   0  0  0  0  0  0  0  0  0  0  0  0
   20.6689  -15.1160    8.7823 C   0  0  1  0  0  0  0  0  0  0  0  0
   22.0830  -14.7124    9.1467 C   0  0  0  0  0  0  0  0  0  0  0  0
   23.1569  -16.1348    9.3363 S   0  0  0  0  0  0  0  0  0  0  0  0
   20.0656  -15.9859    9.8309 C   0  0  0  0  0  0  0  0  0  0  0  0
   19.4343  -15.5084   10.8087 O   0  0  0  0  0  0  0  0  0  0  0  0
   20.1623  -17.4082    9.7975 N   0  0  0  0  0  0  0  0  0  0  0  0
   19.0553  -18.2872   10.0559 C   0  0  1  0  0  0  0  0  0  0  0  0
   17.8332  -17.9465    9.2421 C   0  0  0  0  0  0  0  0  0  0  0  0
   16.6562  -18.7525    9.6122 C   0  0  0  0  0  0  0  0  0  0  0  0
   16.0592  -18.7974   10.8512 C   0  0  0  0  0  0  0  0  0  0  0  0
   15.0100  -19.6616   10.7597 N   0  0  0  0  0  0  0  0  0  0  0  0
   14.9496  -20.1425    9.5087 C   0  0  0  0  0  0  0  0  0  0  0  0
   15.9485  -19.5834    8.8339 N   0  0  0  0  0  0  0  0  0  0  0  0
   19.4192  -19.7150    9.9687 C   0  0  0  0  0  0  0  0  0  0  0  0
   19.0867  -20.5999   10.9519 O   0  0  0  0  0  0  0  0  0  0  0  0
   20.0473  -20.1090    8.9640 O   0  0  0  0  0  0  0  0  0  0  0  0
  2  1  1  1
  2  3  1  0
  2  4  1  0
  4  5  1  6
  6  4  1  0
  6  8  1  0
  7  6  2  0
  9  8  1  0
  9 12  1  0
  9 10  1  1
 11 10  1  0
 12 14  1  0
 13 12  2  0
 14 15  1  0
 15 22  1  0
 15 16  1  6
 16 17  1  0
 17 21  1  0
 18 17  2  0
 18 19  1  0
 19 20  1  0
 21 20  2  0
 22 23  1  0
 24 22  2  0
M  END
$$$$
