TCH.pdb
     RDKit          3D

 24 24  0  0  1  0  0  0  0  0999 V2000
   26.8102  -17.8935  -13.7835 C   0  0  0  0  0  0  0  0  0  0  0  0
   27.1182  -18.7490  -14.9833 C   0  0  1  0  0  0  0  0  0  0  0  0
   28.0916  -18.1331  -15.7515 O   0  0  0  0  0  0  0  0  0  0  0  0
   27.6548  -20.0920  -14.5424 C   0  0  2  0  0  0  0  0  0  0  0  0
   28.1445  -20.7920  -15.6874 N   0  0  0  0  0  0  0  0  0  0  0  0
   26.6230  -20.8492  -13.8040 C   0  0  0  0  0  0  0  0  0  0  0  0
   25.8128  -21.5333  -14.5146 O   0  0  0  0  0  0  0  0  0  0  0  0
   26.5200  -20.8318  -12.3887 N   0  0  0  0  0  0  0  0  0  0  0  0
   25.3757  -21.3975  -11.7628 C   0  0  1  0  0  0  0  0  0  0  0  0
   25.6181  -21.5717  -10.2775 C   0  0  0  0  0  0  0  0  0  0  0  0
   26.3660  -20.1161   -9.5464 S   0  0  0  0  0  0  0  0  0  0  0  0
   24.1272  -20.6267  -12.0221 C   0  0  0  0  0  0  0  0  0  0  0  0
   24.0645  -19.3829  -11.8443 O   0  0  0  0  0  0  0  0  0  0  0  0
   22.9274  -21.2422  -12.4860 N   0  0  0  0  0  0  0  0  0  0  0  0
   22.0051  -20.6083  -13.3874 C   0  0  1  0  0  0  0  0  0  0  0  0
   22.6675  -20.0976  -14.6413 C   0  0  0  0  0  0  0  0  0  0  0  0
   21.7584  -19.3020  -15.4855 C   0  0  0  0  0  0  0  0  0  0  0  0
   20.4622  -18.9550  -15.1810 C   0  0  0  0  0  0  0  0  0  0  0  0
   19.9867  -18.2232  -16.2272 N   0  0  0  0  0  0  0  0  0  0  0  0
   20.9491  -18.1142  -17.1556 C   0  0  0  0  0  0  0  0  0  0  0  0
   22.0070  -18.7700  -16.6906 N   0  0  0  0  0  0  0  0  0  0  0  0
   20.8125  -21.4318  -13.6667 C   0  0  0  0  0  0  0  0  0  0  0  0
   20.7880  -22.7695  -13.4014 O   0  0  0  0  0  0  0  0  0  0  0  0
   19.8077  -20.8770  -14.1584 O   0  0  0  0  0  0  0  0  0  0  0  0
  2  1  1  1
  2  3  1  0
  2  4  1  0
  4  5  1  6
  6  4  1  0
  6  8  1  0
  7  6  2  0
  9  8  1  0
  9 12  1  0
  9 10  1  1
 11 10  1  0
 12 14  1  0
 13 12  2  0
 14 15  1  0
 15 22  1  0
 15 16  1  6
 16 17  1  0
 17 21  1  0
 18 17  2  0
 18 19  1  0
 19 20  1  0
 21 20  2  0
 22 23  1  0
 24 22  2  0
M  END
$$$$
