TCH.pdb
     RDKit          3D

 24 24  0  0  1  0  0  0  0  0999 V2000
   24.8019  -14.7585  -21.4235 C   0  0  0  0  0  0  0  0  0  0  0  0
   24.5697  -13.7582  -20.3226 C   0  0  1  0  0  0  0  0  0  0  0  0
   23.2143  -13.6761  -20.0521 O   0  0  0  0  0  0  0  0  0  0  0  0
   25.2699  -14.2023  -19.0582 C   0  0  2  0  0  0  0  0  0  0  0  0
   24.7544  -15.4764  -18.6682 N   0  0  0  0  0  0  0  0  0  0  0  0
   25.1349  -13.1797  -18.0003 C   0  0  0  0  0  0  0  0  0  0  0  0
   24.3064  -13.4446  -17.0662 O   0  0  0  0  0  0  0  0  0  0  0  0
   25.8727  -11.9673  -18.0023 N   0  0  0  0  0  0  0  0  0  0  0  0
   25.6937  -11.0370  -16.9423 C   0  0  1  0  0  0  0  0  0  0  0  0
   27.0338  -10.5155  -16.4655 C   0  0  0  0  0  0  0  0  0  0  0  0
   27.9062  -11.7239  -15.4698 S   0  0  0  0  0  0  0  0  0  0  0  0
   24.7713   -9.9209  -17.2943 C   0  0  0  0  0  0  0  0  0  0  0  0
   24.9364   -9.2225  -18.3276 O   0  0  0  0  0  0  0  0  0  0  0  0
   23.6471   -9.5714  -16.4897 N   0  0  0  0  0  0  0  0  0  0  0  0
   22.6795   -8.5768  -16.8635 C   0  0  1  0  0  0  0  0  0  0  0  0
   21.4076   -8.6644  -16.0596 C   0  0  0  0  0  0  0  0  0  0  0  0
   20.3604   -7.7471  -16.5435 C   0  0  0  0  0  0  0  0  0  0  0  0
   20.2271   -7.2713  -17.8277 C   0  0  0  0  0  0  0  0  0  0  0  0
   19.1343   -6.4580  -17.8426 N   0  0  0  0  0  0  0  0  0  0  0  0
   18.5999   -6.4238  -16.6124 C   0  0  0  0  0  0  0  0  0  0  0  0
   19.3521   -7.2058  -15.8454 N   0  0  0  0  0  0  0  0  0  0  0  0
   23.2393   -7.2116  -16.8993 C   0  0  0  0  0  0  0  0  0  0  0  0
   23.0267   -6.3781  -17.9579 O   0  0  0  0  0  0  0  0  0  0  0  0
   23.9228   -6.8227  -15.9293 O   0  0  0  0  0  0  0  0  0  0  0  0
  2  1  1  6
  2  3  1  0
  2  4  1  0
  4  5  1  1
  6  4  1  0
  6  8  1  0
  7  6  2  0
  9  8  1  0
  9 12  1  0
  9 10  1  6
 11 10  1  0
 12 14  1  0
 13 12  2  0
 14 15  1  0
 15 22  1  0
 15 16  1  1
 16 17  1  0
 17 21  1  0
 18 17  2  0
 18 19  1  0
 19 20  1  0
 21 20  2  0
 22 23  1  0
 24 22  2  0
M  END
$$$$
