TCH.pdb
     RDKit          3D

 24 24  0  0  1  0  0  0  0  0999 V2000
   25.3976  -32.0722   -6.4102 C   0  0  0  0  0  0  0  0  0  0  0  0
   24.9170  -32.4874   -7.7752 C   0  0  1  0  0  0  0  0  0  0  0  0
   24.4897  -31.3706   -8.4733 O   0  0  0  0  0  0  0  0  0  0  0  0
   26.0469  -33.1194   -8.5560 C   0  0  2  0  0  0  0  0  0  0  0  0
   25.5731  -33.4597   -9.8601 N   0  0  0  0  0  0  0  0  0  0  0  0
   26.6016  -34.2780   -7.8259 C   0  0  0  0  0  0  0  0  0  0  0  0
   25.9821  -35.3841   -7.9748 O   0  0  0  0  0  0  0  0  0  0  0  0
   27.7538  -34.1896   -7.0020 N   0  0  0  0  0  0  0  0  0  0  0  0
   28.2184  -35.3480   -6.3212 C   0  0  1  0  0  0  0  0  0  0  0  0
   29.6974  -35.5533   -6.5774 C   0  0  0  0  0  0  0  0  0  0  0  0
   30.6561  -34.0950   -6.1687 S   0  0  0  0  0  0  0  0  0  0  0  0
   27.9182  -35.3276   -4.8619 C   0  0  0  0  0  0  0  0  0  0  0  0
   27.9705  -34.2671   -4.1870 O   0  0  0  0  0  0  0  0  0  0  0  0
   27.5540  -36.5000   -4.1366 N   0  0  0  0  0  0  0  0  0  0  0  0
   27.1618  -36.4907   -2.7541 C   0  0  1  0  0  0  0  0  0  0  0  0
   25.8177  -37.1317   -2.5212 C   0  0  0  0  0  0  0  0  0  0  0  0
   24.6963  -36.2926   -2.9797 C   0  0  0  0  0  0  0  0  0  0  0  0
   24.4304  -35.0028   -2.5806 C   0  0  0  0  0  0  0  0  0  0  0  0
   23.3094  -34.6013   -3.2425 N   0  0  0  0  0  0  0  0  0  0  0  0
   22.8859  -35.6022   -4.0290 C   0  0  0  0  0  0  0  0  0  0  0  0
   23.7336  -36.6108   -3.8567 N   0  0  0  0  0  0  0  0  0  0  0  0
   28.2076  -37.0144   -1.8539 C   0  0  0  0  0  0  0  0  0  0  0  0
   28.0281  -37.0683   -0.5029 O   0  0  0  0  0  0  0  0  0  0  0  0
   29.2789  -37.4148   -2.3552 O   0  0  0  0  0  0  0  0  0  0  0  0
  2  1  1  1
  2  3  1  0
  2  4  1  0
  4  5  1  6
  6  4  1  0
  6  8  1  0
  7  6  2  0
  9  8  1  0
  9 12  1  0
  9 10  1  1
 11 10  1  0
 12 14  1  0
 13 12  2  0
 14 15  1  0
 15 22  1  0
 15 16  1  6
 16 17  1  0
 17 21  1  0
 18 17  2  0
 18 19  1  0
 19 20  1  0
 21 20  2  0
 22 23  1  0
 24 22  2  0
M  END
$$$$
