TCH.pdb
     RDKit          3D

 24 24  0  0  1  0  0  0  0  0999 V2000
   15.8796   -9.9963  -16.8354 C   0  0  0  0  0  0  0  0  0  0  0  0
   15.5275  -11.1801  -15.9746 C   0  0  1  0  0  0  0  0  0  0  0  0
   14.4709  -11.8684  -16.5464 O   0  0  0  0  0  0  0  0  0  0  0  0
   16.7032  -12.1263  -15.8827 C   0  0  2  0  0  0  0  0  0  0  0  0
   16.3150  -13.2727  -15.1237 N   0  0  0  0  0  0  0  0  0  0  0  0
   17.8839  -11.4383  -15.3208 C   0  0  0  0  0  0  0  0  0  0  0  0
   17.8355  -11.1679  -14.0743 O   0  0  0  0  0  0  0  0  0  0  0  0
   19.0161  -11.0891  -16.1021 N   0  0  0  0  0  0  0  0  0  0  0  0
   20.1001  -10.3983  -15.4946 C   0  0  1  0  0  0  0  0  0  0  0  0
   21.4175  -11.0386  -15.8814 C   0  0  0  0  0  0  0  0  0  0  0  0
   22.8200  -10.1085  -15.2646 S   0  0  0  0  0  0  0  0  0  0  0  0
   20.0998   -8.9375  -15.7884 C   0  0  0  0  0  0  0  0  0  0  0  0
   20.1237   -8.4961  -16.9662 O   0  0  0  0  0  0  0  0  0  0  0  0
   20.0727   -7.9480  -14.7619 N   0  0  0  0  0  0  0  0  0  0  0  0
   20.1316   -6.5350  -15.0171 C   0  0  1  0  0  0  0  0  0  0  0  0
   18.7852   -5.8647  -14.9200 C   0  0  0  0  0  0  0  0  0  0  0  0
   18.8454   -4.4175  -15.1921 C   0  0  0  0  0  0  0  0  0  0  0  0
   19.5302   -3.8119  -16.2207 C   0  0  0  0  0  0  0  0  0  0  0  0
   19.3216   -2.4705  -16.1063 N   0  0  0  0  0  0  0  0  0  0  0  0
   18.5344   -2.2411  -15.0444 C   0  0  0  0  0  0  0  0  0  0  0  0
   18.2588   -3.4251  -14.5079 N   0  0  0  0  0  0  0  0  0  0  0  0
   21.1698   -5.8480  -14.2241 C   0  0  0  0  0  0  0  0  0  0  0  0
   21.9904   -6.5303  -13.3747 O   0  0  0  0  0  0  0  0  0  0  0  0
   21.2888   -4.6108  -14.3438 O   0  0  0  0  0  0  0  0  0  0  0  0
  2  1  1  6
  2  3  1  0
  2  4  1  0
  4  5  1  1
  6  4  1  0
  6  8  1  0
  7  6  2  0
  9  8  1  0
  9 12  1  0
  9 10  1  6
 11 10  1  0
 12 14  1  0
 13 12  2  0
 14 15  1  0
 15 22  1  0
 15 16  1  1
 16 17  1  0
 17 21  1  0
 18 17  2  0
 18 19  1  0
 19 20  1  0
 21 20  2  0
 22 23  1  0
 24 22  2  0
M  END
$$$$
