TCH.pdb
     RDKit          3D

 24 24  0  0  1  0  0  0  0  0999 V2000
   22.8745  -10.1186  -20.2537 C   0  0  0  0  0  0  0  0  0  0  0  0
   22.9661  -11.6008  -20.0067 C   0  0  1  0  0  0  0  0  0  0  0  0
   23.7921  -12.1767  -20.9571 O   0  0  0  0  0  0  0  0  0  0  0  0
   23.5682  -11.8664  -18.6454 C   0  0  2  0  0  0  0  0  0  0  0  0
   23.7510  -13.2746  -18.4882 N   0  0  0  0  0  0  0  0  0  0  0  0
   22.7329  -11.2732  -17.5807 C   0  0  0  0  0  0  0  0  0  0  0  0
   22.1103  -12.0976  -16.8310 O   0  0  0  0  0  0  0  0  0  0  0  0
   22.6149   -9.8726  -17.3847 N   0  0  0  0  0  0  0  0  0  0  0  0
   21.9166   -9.3809  -16.2481 C   0  0  1  0  0  0  0  0  0  0  0  0
   22.6857   -9.6920  -14.9805 C   0  0  0  0  0  0  0  0  0  0  0  0
   21.9371   -8.9318  -13.5402 S   0  0  0  0  0  0  0  0  0  0  0  0
   21.5931   -7.9296  -16.3442 C   0  0  0  0  0  0  0  0  0  0  0  0
   22.4795   -7.0426  -16.2427 O   0  0  0  0  0  0  0  0  0  0  0  0
   20.2666   -7.4511  -16.5561 N   0  0  0  0  0  0  0  0  0  0  0  0
   19.9344   -6.0592  -16.6877 C   0  0  1  0  0  0  0  0  0  0  0  0
   18.7626   -5.8199  -17.6050 C   0  0  0  0  0  0  0  0  0  0  0  0
   18.4167   -4.3929  -17.7312 C   0  0  0  0  0  0  0  0  0  0  0  0
   19.1566   -3.4319  -18.3812 C   0  0  0  0  0  0  0  0  0  0  0  0
   18.4813   -2.2550  -18.2588 N   0  0  0  0  0  0  0  0  0  0  0  0
   17.3577   -2.4684  -17.5575 C   0  0  0  0  0  0  0  0  0  0  0  0
   17.3372   -3.7608  -17.2493 N   0  0  0  0  0  0  0  0  0  0  0  0
   19.7909   -5.3746  -15.3880 C   0  0  0  0  0  0  0  0  0  0  0  0
   19.9389   -6.0414  -14.2073 O   0  0  0  0  0  0  0  0  0  0  0  0
   19.5272   -4.1541  -15.3839 O   0  0  0  0  0  0  0  0  0  0  0  0
  2  1  1  6
  2  3  1  0
  2  4  1  0
  4  5  1  1
  6  4  1  0
  6  8  1  0
  7  6  2  0
  9  8  1  0
  9 12  1  0
  9 10  1  1
 11 10  1  0
 12 14  1  0
 13 12  2  0
 14 15  1  0
 15 22  1  0
 15 16  1  1
 16 17  1  0
 17 21  1  0
 18 17  2  0
 18 19  1  0
 19 20  1  0
 21 20  2  0
 22 23  1  0
 24 22  2  0
M  END
$$$$
