TCH.pdb
     RDKit          3D

 24 24  0  0  1  0  0  0  0  0999 V2000
   14.4791  -12.5593  -14.7289 C   0  0  0  0  0  0  0  0  0  0  0  0
   15.3376  -13.7617  -14.4402 C   0  0  1  0  0  0  0  0  0  0  0  0
   14.5882  -14.9142  -14.6056 O   0  0  0  0  0  0  0  0  0  0  0  0
   16.4977  -13.8187  -15.4081 C   0  0  2  0  0  0  0  0  0  0  0  0
   17.2142  -15.0369  -15.1988 N   0  0  0  0  0  0  0  0  0  0  0  0
   17.3507  -12.6200  -15.2714 C   0  0  0  0  0  0  0  0  0  0  0  0
   18.1236  -12.5940  -14.2560 O   0  0  0  0  0  0  0  0  0  0  0  0
   17.3285  -11.5487  -16.2020 N   0  0  0  0  0  0  0  0  0  0  0  0
   18.1134  -10.3896  -15.9543 C   0  0  1  0  0  0  0  0  0  0  0  0
   18.8643   -9.9830  -17.2058 C   0  0  0  0  0  0  0  0  0  0  0  0
   20.3818  -10.9150  -17.4082 S   0  0  0  0  0  0  0  0  0  0  0  0
   17.3209   -9.2541  -15.4041 C   0  0  0  0  0  0  0  0  0  0  0  0
   16.1369   -9.0321  -15.7668 O   0  0  0  0  0  0  0  0  0  0  0  0
   17.8469   -8.3487  -14.4361 N   0  0  0  0  0  0  0  0  0  0  0  0
   17.1482   -7.1795  -13.9780 C   0  0  1  0  0  0  0  0  0  0  0  0
   16.7978   -7.2416  -12.5134 C   0  0  0  0  0  0  0  0  0  0  0  0
   15.9635   -8.4080  -12.1735 C   0  0  0  0  0  0  0  0  0  0  0  0
   16.3591   -9.5046  -11.4424 C   0  0  0  0  0  0  0  0  0  0  0  0
   15.2872  -10.3417  -11.3634 N   0  0  0  0  0  0  0  0  0  0  0  0
   14.2553   -9.7915  -12.0209 C   0  0  0  0  0  0  0  0  0  0  0  0
   14.6824   -8.6284  -12.5010 N   0  0  0  0  0  0  0  0  0  0  0  0
   17.8230   -5.9207  -14.3505 C   0  0  0  0  0  0  0  0  0  0  0  0
   17.2696   -4.7041  -14.0789 O   0  0  0  0  0  0  0  0  0  0  0  0
   18.9280   -5.9860  -14.9285 O   0  0  0  0  0  0  0  0  0  0  0  0
  2  1  1  6
  2  3  1  0
  2  4  1  0
  4  5  1  1
  6  4  1  0
  6  8  1  0
  7  6  2  0
  9  8  1  0
  9 12  1  0
  9 10  1  6
 11 10  1  0
 12 14  1  0
 13 12  2  0
 14 15  1  0
 15 22  1  0
 15 16  1  1
 16 17  1  0
 17 21  1  0
 18 17  2  0
 18 19  1  0
 19 20  1  0
 21 20  2  0
 22 23  1  0
 24 22  2  0
M  END
$$$$
