TCH.pdb
     RDKit          3D

 24 24  0  0  1  0  0  0  0  0999 V2000
   26.9310  -10.6569  -14.9571 C   0  0  0  0  0  0  0  0  0  0  0  0
   27.1093  -11.7828  -15.9404 C   0  0  1  0  0  0  0  0  0  0  0  0
   28.1636  -12.5847  -15.5374 O   0  0  0  0  0  0  0  0  0  0  0  0
   25.8641  -12.6393  -15.9838 C   0  0  2  0  0  0  0  0  0  0  0  0
   26.1321  -13.8044  -16.7660 N   0  0  0  0  0  0  0  0  0  0  0  0
   24.7131  -11.8616  -16.4875 C   0  0  0  0  0  0  0  0  0  0  0  0
   24.7526  -11.5357  -17.7209 O   0  0  0  0  0  0  0  0  0  0  0  0
   23.6175  -11.4879  -15.6664 N   0  0  0  0  0  0  0  0  0  0  0  0
   22.5478  -10.7366  -16.2254 C   0  0  1  0  0  0  0  0  0  0  0  0
   21.2314  -11.4568  -16.0172 C   0  0  0  0  0  0  0  0  0  0  0  0
   19.8310  -10.4389  -16.4816 S   0  0  0  0  0  0  0  0  0  0  0  0
   22.4876   -9.3378  -15.7155 C   0  0  0  0  0  0  0  0  0  0  0  0
   22.5873   -9.0719  -14.4899 O   0  0  0  0  0  0  0  0  0  0  0  0
   22.3141   -8.2139  -16.5758 N   0  0  0  0  0  0  0  0  0  0  0  0
   22.2083   -6.8603  -16.1049 C   0  0  1  0  0  0  0  0  0  0  0  0
   22.3036   -5.8442  -17.2141 C   0  0  0  0  0  0  0  0  0  0  0  0
   22.2082   -4.4560  -16.7283 C   0  0  0  0  0  0  0  0  0  0  0  0
   21.2516   -3.9583  -15.8735 C   0  0  0  0  0  0  0  0  0  0  0  0
   21.5305   -2.6383  -15.6844 N   0  0  0  0  0  0  0  0  0  0  0  0
   22.6228   -2.3178  -16.3945 C   0  0  0  0  0  0  0  0  0  0  0  0
   23.0153   -3.4250  -17.0154 N   0  0  0  0  0  0  0  0  0  0  0  0
   21.0392   -6.6429  -15.2306 C   0  0  0  0  0  0  0  0  0  0  0  0
   21.1630   -6.0710  -13.9986 O   0  0  0  0  0  0  0  0  0  0  0  0
   19.9143   -6.9963  -15.6419 O   0  0  0  0  0  0  0  0  0  0  0  0
  2  1  1  1
  2  3  1  0
  2  4  1  0
  4  5  1  6
  6  4  1  0
  6  8  1  0
  7  6  2  0
  9  8  1  0
  9 12  1  0
  9 10  1  1
 11 10  1  0
 12 14  1  0
 13 12  2  0
 14 15  1  0
 15 22  1  0
 15 16  1  6
 16 17  1  0
 17 21  1  0
 18 17  2  0
 18 19  1  0
 19 20  1  0
 21 20  2  0
 22 23  1  0
 24 22  2  0
M  END
$$$$
