TCH.pdb
     RDKit          3D

 24 24  0  0  1  0  0  0  0  0999 V2000
   27.2779  -18.7578  -15.4445 C   0  0  0  0  0  0  0  0  0  0  0  0
   27.5807  -19.9981  -16.2421 C   0  0  1  0  0  0  0  0  0  0  0  0
   28.6712  -19.7641  -17.0626 O   0  0  0  0  0  0  0  0  0  0  0  0
   27.9323  -21.1406  -15.3162 C   0  0  2  0  0  0  0  0  0  0  0  0
   28.3188  -22.2694  -16.1020 N   0  0  0  0  0  0  0  0  0  0  0  0
   26.8103  -21.4348  -14.4010 C   0  0  0  0  0  0  0  0  0  0  0  0
   25.9271  -22.2459  -14.8385 O   0  0  0  0  0  0  0  0  0  0  0  0
   26.7005  -20.8609  -13.1077 N   0  0  0  0  0  0  0  0  0  0  0  0
   25.5991  -21.2085  -12.2786 C   0  0  1  0  0  0  0  0  0  0  0  0
   25.8955  -20.8617  -10.8339 C   0  0  0  0  0  0  0  0  0  0  0  0
   24.4302  -20.9648   -9.8069 S   0  0  0  0  0  0  0  0  0  0  0  0
   24.3146  -20.6026  -12.7294 C   0  0  0  0  0  0  0  0  0  0  0  0
   24.1748  -19.3589  -12.8575 O   0  0  0  0  0  0  0  0  0  0  0  0
   23.1652  -21.3857  -13.0440 N   0  0  0  0  0  0  0  0  0  0  0  0
   21.8948  -20.8226  -13.4104 C   0  0  1  0  0  0  0  0  0  0  0  0
   21.4967  -21.1457  -14.8277 C   0  0  0  0  0  0  0  0  0  0  0  0
   22.1778  -20.2966  -15.8212 C   0  0  0  0  0  0  0  0  0  0  0  0
   23.0690  -19.2838  -15.5500 C   0  0  0  0  0  0  0  0  0  0  0  0
   23.4574  -18.7604  -16.7462 N   0  0  0  0  0  0  0  0  0  0  0  0
   22.8331  -19.4201  -17.7337 C   0  0  0  0  0  0  0  0  0  0  0  0
   22.0679  -20.3404  -17.1565 N   0  0  0  0  0  0  0  0  0  0  0  0
   20.8279  -21.1221  -12.4354 C   0  0  0  0  0  0  0  0  0  0  0  0
   19.7194  -20.3354  -12.3230 O   0  0  0  0  0  0  0  0  0  0  0  0
   20.9563  -22.1240  -11.7014 O   0  0  0  0  0  0  0  0  0  0  0  0
  2  1  1  1
  2  3  1  0
  2  4  1  0
  4  5  1  6
  6  4  1  0
  6  8  1  0
  7  6  2  0
  9  8  1  0
  9 12  1  0
  9 10  1  1
 11 10  1  0
 12 14  1  0
 13 12  2  0
 14 15  1  0
 15 22  1  0
 15 16  1  6
 16 17  1  0
 17 21  1  0
 18 17  2  0
 18 19  1  0
 19 20  1  0
 21 20  2  0
 22 23  1  0
 24 22  2  0
M  END
$$$$
