TCH.pdb
     RDKit          3D

 24 24  0  0  1  0  0  0  0  0999 V2000
   26.9901  -10.0896  -15.4913 C   0  0  0  0  0  0  0  0  0  0  0  0
   27.0808  -10.6700  -16.8773 C   0  0  1  0  0  0  0  0  0  0  0  0
   28.3121  -11.2817  -17.0417 O   0  0  0  0  0  0  0  0  0  0  0  0
   26.0105  -11.7196  -17.0743 C   0  0  2  0  0  0  0  0  0  0  0  0
   26.2586  -12.4074  -18.3016 N   0  0  0  0  0  0  0  0  0  0  0  0
   24.6656  -11.1100  -17.0192 C   0  0  0  0  0  0  0  0  0  0  0  0
   24.2881  -10.4877  -18.0677 O   0  0  0  0  0  0  0  0  0  0  0  0
   23.8260  -11.1986  -15.8784 N   0  0  0  0  0  0  0  0  0  0  0  0
   22.5456  -10.5813  -15.9018 C   0  0  1  0  0  0  0  0  0  0  0  0
   21.5287  -11.4472  -15.1867 C   0  0  0  0  0  0  0  0  0  0  0  0
   21.4211  -13.0855  -15.9058 S   0  0  0  0  0  0  0  0  0  0  0  0
   22.5558   -9.1944  -15.3572 C   0  0  0  0  0  0  0  0  0  0  0  0
   23.6018   -8.6685  -14.8966 O   0  0  0  0  0  0  0  0  0  0  0  0
   21.3893   -8.3750  -15.3214 N   0  0  0  0  0  0  0  0  0  0  0  0
   21.4229   -6.9506  -15.1343 C   0  0  1  0  0  0  0  0  0  0  0  0
   22.4528   -6.2695  -15.9987 C   0  0  0  0  0  0  0  0  0  0  0  0
   22.5595   -4.8242  -15.7307 C   0  0  0  0  0  0  0  0  0  0  0  0
   22.0262   -4.1563  -14.6523 C   0  0  0  0  0  0  0  0  0  0  0  0
   22.3568   -2.8420  -14.7912 N   0  0  0  0  0  0  0  0  0  0  0  0
   23.0719   -2.6892  -15.9160 C   0  0  0  0  0  0  0  0  0  0  0  0
   23.1829   -3.8934  -16.4667 N   0  0  0  0  0  0  0  0  0  0  0  0
   20.0903   -6.3238  -15.2331 C   0  0  0  0  0  0  0  0  0  0  0  0
   19.5754   -5.5726  -14.2177 O   0  0  0  0  0  0  0  0  0  0  0  0
   19.4283   -6.4938  -16.2782 O   0  0  0  0  0  0  0  0  0  0  0  0
  2  1  1  1
  2  3  1  0
  2  4  1  0
  4  5  1  6
  6  4  1  0
  6  8  1  0
  7  6  2  0
  9  8  1  0
  9 12  1  0
  9 10  1  1
 11 10  1  0
 12 14  1  0
 13 12  2  0
 14 15  1  0
 15 22  1  0
 15 16  1  6
 16 17  1  0
 17 21  1  0
 18 17  2  0
 18 19  1  0
 19 20  1  0
 21 20  2  0
 22 23  1  0
 24 22  2  0
M  END
$$$$
