RVM.pdb
     RDKit          3D

 27 26  0  0  1  0  0  0  0  0999 V2000
   17.8728  -19.5977  -13.0727 N   0  0  0  0  0  0  0  0  0  0  0  0
   18.5021  -20.1645  -14.2256 C   0  0  0  0  0  0  0  0  0  0  0  0
   17.7913  -20.4575  -15.2509 N   0  0  0  0  0  0  0  0  0  0  0  0
   19.8988  -20.4124  -14.2641 N   0  0  0  0  0  0  0  0  0  0  0  0
   20.5081  -21.6130  -14.7365 C   0  0  0  0  0  0  0  0  0  0  0  0
   20.6832  -22.6574  -13.6931 C   0  0  0  0  0  0  0  0  0  0  0  0
   22.0272  -22.7855  -13.0856 C   0  0  0  0  0  0  0  0  0  0  0  0
   23.1884  -22.5386  -14.0009 C   0  0  2  0  0  0  0  0  0  0  0  0
   23.2695  -23.5086  -15.0727 N   0  0  0  0  0  0  0  0  0  0  0  0
   24.4789  -22.4843  -13.3015 C   0  0  0  0  0  0  0  0  0  0  0  0
   25.0258  -23.5470  -12.8402 O   0  0  0  0  0  0  0  0  0  0  0  0
   18.1855  -20.9246  -16.0728 C   0  0  0  0  0  0  0  0  0  0  0  0
   28.4176  -19.7192  -11.9830 C   0  0  1  0  0  0  0  0  0  0  0  0
   27.2108  -19.9418  -12.8511 C   0  0  0  0  0  0  0  0  0  0  0  0
   27.5773  -20.1167  -14.3089 C   0  0  1  0  0  0  0  0  0  0  0  0
   26.3705  -21.1165  -12.3574 N   0  0  0  0  0  0  0  0  0  0  0  0
   25.1492  -21.2456  -13.1228 C   0  0  0  0  0  0  0  0  0  0  0  0
   26.0208  -20.8052  -10.9534 O   0  0  0  0  0  0  0  0  0  0  0  0
   24.9222  -20.2583  -10.7083 C   0  0  0  0  0  0  0  0  0  0  0  0
   29.4927  -21.7414   -4.4948 S   0  0  0  0  0  0  0  0  0  0  0  0
   29.3190  -20.2285   -5.4593 C   0  0  0  0  0  0  0  0  0  0  0  0
   27.6885  -20.2484   -6.3235 C   0  0  0  0  0  0  0  0  0  0  0  0
   27.8963  -20.6781   -7.7503 C   0  0  1  0  0  0  0  0  0  0  0  0
   26.5870  -20.7132   -8.4872 N   0  0  0  0  0  0  0  0  0  0  0  0
   26.8910  -21.1069   -9.8720 C   0  0  0  0  0  0  0  0  0  0  0  0
   25.9469  -19.3893   -8.4457 O   0  0  0  0  0  0  0  0  0  0  0  0
   26.2528  -18.3849   -9.1107 O   0  0  0  0  0  0  0  0  0  0  0  0
  2  1  1  0
  3  2  2  0
  4  2  1  0
  5  6  1  0
  5  4  1  0
  6  7  1  0
  7  8  1  0
  8  9  1  6
  8 10  1  0
 10 11  2  0
 10 16  1  0
 13 12  1  6
 13 15  1  0
 13 14  1  0
 15 17  1  0
 15 16  1  6
 17 24  1  0
 17 18  2  0
 19 20  1  0
 20 21  1  0
 21 22  1  0
 23 22  1  1
 23 25  1  0
 24 23  1  0
 25 27  1  0
 26 25  2  0
M  END
$$$$
