RVM.pdb
     RDKit          3D

 27 26  0  0  1  0  0  0  0  0999 V2000
   22.3184  -21.1407  -17.2853 N   0  0  0  0  0  0  0  0  0  0  0  0
   21.3919  -22.1332  -17.7356 C   0  0  0  0  0  0  0  0  0  0  0  0
   21.4442  -22.5387  -18.9501 N   0  0  0  0  0  0  0  0  0  0  0  0
   20.4116  -22.6830  -16.8692 N   0  0  0  0  0  0  0  0  0  0  0  0
   20.5967  -22.9447  -15.4789 C   0  0  0  0  0  0  0  0  0  0  0  0
   21.5504  -24.0478  -15.1894 C   0  0  0  0  0  0  0  0  0  0  0  0
   22.7269  -23.7201  -14.3525 C   0  0  0  0  0  0  0  0  0  0  0  0
   23.9578  -23.2865  -15.0901 C   0  0  2  0  0  0  0  0  0  0  0  0
   24.4714  -24.3148  -15.9705 N   0  0  0  0  0  0  0  0  0  0  0  0
   25.0357  -22.8286  -14.2037 C   0  0  0  0  0  0  0  0  0  0  0  0
   25.8094  -23.6645  -13.6174 O   0  0  0  0  0  0  0  0  0  0  0  0
   20.7807  -23.2224  -19.3263 C   0  0  0  0  0  0  0  0  0  0  0  0
   25.4159  -18.5987  -13.3584 C   0  0  1  0  0  0  0  0  0  0  0  0
   26.6282  -19.4797  -13.4759 C   0  0  0  0  0  0  0  0  0  0  0  0
   27.7855  -18.9773  -12.6400 C   0  0  1  0  0  0  0  0  0  0  0  0
   26.3041  -20.9324  -13.1378 N   0  0  0  0  0  0  0  0  0  0  0  0
   25.2427  -21.4420  -13.9789 C   0  0  0  0  0  0  0  0  0  0  0  0
   25.8373  -20.9291  -11.7333 O   0  0  0  0  0  0  0  0  0  0  0  0
   24.6086  -20.8784  -11.5020 C   0  0  0  0  0  0  0  0  0  0  0  0
   29.3420  -20.3326   -5.4946 S   0  0  0  0  0  0  0  0  0  0  0  0
   28.1446  -19.1218   -6.0859 C   0  0  0  0  0  0  0  0  0  0  0  0
   26.8238  -19.9941   -7.0348 C   0  0  0  0  0  0  0  0  0  0  0  0
   27.2727  -20.1569   -8.4615 C   0  0  1  0  0  0  0  0  0  0  0  0
   26.2752  -20.9679   -9.2397 N   0  0  0  0  0  0  0  0  0  0  0  0
   26.7382  -20.9819  -10.6363 C   0  0  0  0  0  0  0  0  0  0  0  0
   24.9385  -20.3627   -9.1352 O   0  0  0  0  0  0  0  0  0  0  0  0
   24.0009  -20.7311   -8.4073 O   0  0  0  0  0  0  0  0  0  0  0  0
  2  1  1  0
  3  2  2  0
  4  2  1  0
  5  6  1  0
  5  4  1  0
  6  7  1  0
  7  8  1  0
  8  9  1  1
  8 10  1  0
 10 11  2  0
 10 16  1  0
 13 12  1  6
 13 15  1  0
 13 14  1  0
 15 17  1  0
 15 16  1  6
 17 24  1  0
 17 18  2  0
 19 20  1  0
 20 21  1  0
 21 22  1  0
 23 22  1  1
 23 25  1  0
 24 23  1  0
 25 27  1  0
 26 25  2  0
M  END
$$$$
