RVM.pdb
     RDKit          3D

 27 26  0  0  1  0  0  0  0  0999 V2000
   18.6138  -24.1069   -6.8398 N   0  0  0  0  0  0  0  0  0  0  0  0
   17.7890  -24.4483   -7.9576 C   0  0  0  0  0  0  0  0  0  0  0  0
   16.5633  -24.7672   -7.7618 N   0  0  0  0  0  0  0  0  0  0  0  0
   18.2944  -24.4439   -9.2836 N   0  0  0  0  0  0  0  0  0  0  0  0
   19.6081  -24.0354   -9.6616 C   0  0  0  0  0  0  0  0  0  0  0  0
   19.6571  -23.2150  -10.9005 C   0  0  0  0  0  0  0  0  0  0  0  0
   20.2687  -21.8709  -10.7958 C   0  0  0  0  0  0  0  0  0  0  0  0
   21.6275  -21.8144  -10.1651 C   0  0  2  0  0  0  0  0  0  0  0  0
   21.5775  -21.4477   -8.7653 N   0  0  0  0  0  0  0  0  0  0  0  0
   22.5567  -20.9178  -10.8651 C   0  0  0  0  0  0  0  0  0  0  0  0
   22.4538  -19.6453  -10.7588 O   0  0  0  0  0  0  0  0  0  0  0  0
   15.9499  -25.0706   -8.5238 C   0  0  0  0  0  0  0  0  0  0  0  0
   26.4084  -20.8463  -10.7630 C   0  0  2  0  0  0  0  0  0  0  0  0
   25.9660  -21.0718  -12.1818 C   0  0  0  0  0  0  0  0  0  0  0  0
   26.1461  -22.5100  -12.6170 C   0  0  2  0  0  0  0  0  0  0  0  0
   24.5271  -20.6132  -12.4030 N   0  0  0  0  0  0  0  0  0  0  0  0
   23.5937  -21.4476  -11.6775 C   0  0  0  0  0  0  0  0  0  0  0  0
   24.2705  -20.7628  -13.8529 O   0  0  0  0  0  0  0  0  0  0  0  0
   23.9544  -21.8878  -14.3006 C   0  0  0  0  0  0  0  0  0  0  0  0
   19.1624  -20.0262  -13.8432 S   0  0  0  0  0  0  0  0  0  0  0  0
   19.3617  -18.7012  -15.0489 C   0  0  0  0  0  0  0  0  0  0  0  0
   20.9175  -18.9816  -16.0010 C   0  0  0  0  0  0  0  0  0  0  0  0
   22.0590  -19.1471  -15.0350 C   0  0  2  0  0  0  0  0  0  0  0  0
   23.3436  -19.3976  -15.7735 N   0  0  0  0  0  0  0  0  0  0  0  0
   24.3707  -19.6709  -14.7559 C   0  0  0  0  0  0  0  0  0  0  0  0
   23.7025  -18.2204  -16.5794 O   0  0  0  0  0  0  0  0  0  0  0  0
   24.4956  -17.3135  -16.2742 O   0  0  0  0  0  0  0  0  0  0  0  0
  2  1  1  0
  3  2  2  0
  4  2  1  0
  5  6  1  0
  5  4  1  0
  6  7  1  0
  7  8  1  0
  8  9  1  1
  8 10  1  0
 10 11  2  0
 10 16  1  0
 13 12  1  6
 13 15  1  0
 13 14  1  0
 15 17  1  0
 15 16  1  6
 17 24  1  0
 17 18  2  0
 19 20  1  0
 20 21  1  0
 21 22  1  0
 23 22  1  6
 23 25  1  0
 24 23  1  0
 25 27  1  0
 26 25  2  0
M  END
$$$$
