RVM.pdb
     RDKit          3D

 27 26  0  0  1  0  0  0  0  0999 V2000
   25.5643  -21.6742   -9.7505 N   0  0  0  0  0  0  0  0  0  0  0  0
   24.3959  -21.1928  -10.4209 C   0  0  0  0  0  0  0  0  0  0  0  0
   23.3611  -20.8765   -9.7341 N   0  0  0  0  0  0  0  0  0  0  0  0
   24.3517  -21.0559  -11.8326 N   0  0  0  0  0  0  0  0  0  0  0  0
   24.9468  -21.9570  -12.7652 C   0  0  0  0  0  0  0  0  0  0  0  0
   26.3740  -21.6679  -13.0644 C   0  0  0  0  0  0  0  0  0  0  0  0
   26.6580  -20.5123  -13.9452 C   0  0  0  0  0  0  0  0  0  0  0  0
   27.0550  -20.8409  -15.3529 C   0  0  2  0  0  0  0  0  0  0  0  0
   28.1882  -21.7397  -15.4171 N   0  0  0  0  0  0  0  0  0  0  0  0
   27.3350  -19.6532  -16.1704 C   0  0  0  0  0  0  0  0  0  0  0  0
   28.4819  -19.0834  -16.1371 O   0  0  0  0  0  0  0  0  0  0  0  0
   22.5257  -20.4675  -10.1629 C   0  0  0  0  0  0  0  0  0  0  0  0
   24.6781  -18.8598  -19.2445 C   0  0  2  0  0  0  0  0  0  0  0  0
   26.0163  -18.1756  -19.2656 C   0  0  0  0  0  0  0  0  0  0  0  0
   25.9846  -16.8774  -20.0428 C   0  0  1  0  0  0  0  0  0  0  0  0
   26.5572  -17.9519  -17.8560 N   0  0  0  0  0  0  0  0  0  0  0  0
   26.3341  -19.1110  -17.0189 C   0  0  0  0  0  0  0  0  0  0  0  0
   25.7925  -16.8119  -17.3027 O   0  0  0  0  0  0  0  0  0  0  0  0
   24.6231  -17.0033  -16.9004 C   0  0  0  0  0  0  0  0  0  0  0  0
   28.2537  -10.4821  -16.2734 S   0  0  0  0  0  0  0  0  0  0  0  0
   27.0682  -10.9534  -15.0000 C   0  0  0  0  0  0  0  0  0  0  0  0
   25.8320  -12.1146  -15.7274 C   0  0  0  0  0  0  0  0  0  0  0  0
   26.5381  -13.3682  -16.1672 C   0  0  1  0  0  0  0  0  0  0  0  0
   25.5571  -14.3559  -16.7333 N   0  0  0  0  0  0  0  0  0  0  0  0
   26.3416  -15.5050  -17.2121 C   0  0  0  0  0  0  0  0  0  0  0  0
   24.7986  -13.7422  -17.8343 O   0  0  0  0  0  0  0  0  0  0  0  0
   25.1788  -13.5698  -19.0050 O   0  0  0  0  0  0  0  0  0  0  0  0
  2  1  1  0
  3  2  2  0
  4  2  1  0
  5  6  1  0
  5  4  1  0
  6  7  1  0
  7  8  1  0
  8  9  1  1
  8 10  1  0
 10 11  2  0
 10 16  1  0
 13 12  1  6
 13 15  1  0
 13 14  1  0
 15 17  1  0
 15 16  1  6
 17 24  1  0
 17 18  2  0
 19 20  1  0
 20 21  1  0
 21 22  1  0
 23 22  1  1
 23 25  1  0
 24 23  1  0
 25 27  1  0
 26 25  2  0
M  END
$$$$
