RVM.pdb
     RDKit          3D

 27 26  0  0  1  0  0  0  0  0999 V2000
   19.0700  -24.1108  -15.6650 N   0  0  0  0  0  0  0  0  0  0  0  0
   19.0873  -22.7280  -16.0311 C   0  0  0  0  0  0  0  0  0  0  0  0
   18.0573  -22.0019  -15.7982 N   0  0  0  0  0  0  0  0  0  0  0  0
   20.2198  -22.1363  -16.6484 N   0  0  0  0  0  0  0  0  0  0  0  0
   21.5685  -22.5708  -16.4813 C   0  0  0  0  0  0  0  0  0  0  0  0
   21.8651  -23.1295  -15.1359 C   0  0  0  0  0  0  0  0  0  0  0  0
   23.2566  -23.5639  -14.8776 C   0  0  0  0  0  0  0  0  0  0  0  0
   24.3338  -22.6996  -15.4606 C   0  0  2  0  0  0  0  0  0  0  0  0
   24.8850  -23.2447  -16.6834 N   0  0  0  0  0  0  0  0  0  0  0  0
   25.4279  -22.4209  -14.5212 C   0  0  0  0  0  0  0  0  0  0  0  0
   26.2256  -23.3487  -14.1416 O   0  0  0  0  0  0  0  0  0  0  0  0
   18.0048  -21.0206  -16.0868 C   0  0  0  0  0  0  0  0  0  0  0  0
   27.9167  -19.1691  -14.4755 C   0  0  2  0  0  0  0  0  0  0  0  0
   27.1325  -19.3499  -13.2059 C   0  0  0  0  0  0  0  0  0  0  0  0
   25.9776  -18.3775  -13.1017 C   0  0  2  0  0  0  0  0  0  0  0  0
   26.6482  -20.7882  -13.0428 N   0  0  0  0  0  0  0  0  0  0  0  0
   25.6240  -21.1097  -14.0132 C   0  0  0  0  0  0  0  0  0  0  0  0
   26.0601  -20.8683  -11.6870 O   0  0  0  0  0  0  0  0  0  0  0  0
   24.8202  -20.7619  -11.5558 C   0  0  0  0  0  0  0  0  0  0  0  0
   29.6672  -19.7351   -6.3654 S   0  0  0  0  0  0  0  0  0  0  0  0
   28.0502  -19.0333   -5.9887 C   0  0  0  0  0  0  0  0  0  0  0  0
   26.7644  -19.9198   -6.9720 C   0  0  0  0  0  0  0  0  0  0  0  0
   27.3001  -20.1829   -8.3531 C   0  0  1  0  0  0  0  0  0  0  0  0
   26.3021  -20.9564   -9.1680 N   0  0  0  0  0  0  0  0  0  0  0  0
   26.8564  -21.0627  -10.5269 C   0  0  0  0  0  0  0  0  0  0  0  0
   25.0081  -20.2567   -9.1816 O   0  0  0  0  0  0  0  0  0  0  0  0
   24.7295  -19.2024   -9.7779 O   0  0  0  0  0  0  0  0  0  0  0  0
  2  1  1  0
  3  2  2  0
  4  2  1  0
  5  6  1  0
  5  4  1  0
  6  7  1  0
  7  8  1  0
  8  9  1  6
  8 10  1  0
 10 11  2  0
 10 16  1  0
 13 12  1  1
 13 15  1  0
 13 14  1  0
 15 17  1  0
 15 16  1  1
 17 24  1  0
 17 18  2  0
 19 20  1  0
 20 21  1  0
 21 22  1  0
 23 22  1  1
 23 25  1  0
 24 23  1  0
 25 27  1  0
 26 25  2  0
M  END
$$$$
