RVM.pdb
     RDKit          3D

 27 26  0  0  1  0  0  0  0  0999 V2000
   18.1001  -21.6655  -12.9944 N   0  0  0  0  0  0  0  0  0  0  0  0
   18.6075  -21.8153  -11.6653 C   0  0  0  0  0  0  0  0  0  0  0  0
   18.1061  -22.7100  -10.8969 N   0  0  0  0  0  0  0  0  0  0  0  0
   19.6558  -20.9955  -11.1725 N   0  0  0  0  0  0  0  0  0  0  0  0
   20.3027  -19.9576  -11.9074 C   0  0  0  0  0  0  0  0  0  0  0  0
   21.0593  -20.4341  -13.0952 C   0  0  0  0  0  0  0  0  0  0  0  0
   22.4736  -20.0115  -13.2083 C   0  0  0  0  0  0  0  0  0  0  0  0
   23.4220  -21.0314  -13.7629 C   0  0  2  0  0  0  0  0  0  0  0  0
   22.7399  -22.1460  -14.3862 N   0  0  0  0  0  0  0  0  0  0  0  0
   24.3723  -21.5439  -12.7670 C   0  0  0  0  0  0  0  0  0  0  0  0
   24.3066  -22.7543  -12.3525 O   0  0  0  0  0  0  0  0  0  0  0  0
   18.4176  -22.8352   -9.9292 C   0  0  0  0  0  0  0  0  0  0  0  0
   28.1921  -21.5822  -13.1076 C   0  0  2  0  0  0  0  0  0  0  0  0
   27.8148  -20.7948  -11.8839 C   0  0  0  0  0  0  0  0  0  0  0  0
   27.9008  -19.3015  -12.1136 C   0  0  2  0  0  0  0  0  0  0  0  0
   26.4335  -21.1862  -11.3657 N   0  0  0  0  0  0  0  0  0  0  0  0
   25.3886  -20.7028  -12.2422 C   0  0  0  0  0  0  0  0  0  0  0  0
   26.2913  -20.5273  -10.0482 O   0  0  0  0  0  0  0  0  0  0  0  0
   25.5737  -19.5064   -9.9542 C   0  0  0  0  0  0  0  0  0  0  0  0
   30.2398  -22.1604   -5.3565 S   0  0  0  0  0  0  0  0  0  0  0  0
   29.5177  -20.7635   -4.4753 C   0  0  0  0  0  0  0  0  0  0  0  0
   28.0807  -20.1210   -5.4386 C   0  0  0  0  0  0  0  0  0  0  0  0
   28.0753  -20.7660   -6.7979 C   0  0  2  0  0  0  0  0  0  0  0  0
   26.8925  -20.2996   -7.5990 N   0  0  0  0  0  0  0  0  0  0  0  0
   26.9425  -21.0151   -8.8838 C   0  0  0  0  0  0  0  0  0  0  0  0
   26.9620  -18.8446   -7.8048 O   0  0  0  0  0  0  0  0  0  0  0  0
   27.5868  -18.2397   -8.6928 O   0  0  0  0  0  0  0  0  0  0  0  0
  2  1  1  0
  3  2  2  0
  4  2  1  0
  5  6  1  0
  5  4  1  0
  6  7  1  0
  7  8  1  0
  8  9  1  1
  8 10  1  0
 10 11  2  0
 10 16  1  0
 13 12  1  1
 13 15  1  0
 13 14  1  0
 15 17  1  0
 15 16  1  1
 17 24  1  0
 17 18  2  0
 19 20  1  0
 20 21  1  0
 21 22  1  0
 23 22  1  1
 23 25  1  0
 24 23  1  0
 25 27  1  0
 26 25  2  0
M  END
$$$$
