RVM.pdb
     RDKit          3D

 27 26  0  0  1  0  0  0  0  0999 V2000
   25.6199  -19.9362  -10.3665 N   0  0  0  0  0  0  0  0  0  0  0  0
   26.4914  -20.8715  -11.0083 C   0  0  0  0  0  0  0  0  0  0  0  0
   26.5298  -22.0835  -10.5937 N   0  0  0  0  0  0  0  0  0  0  0  0
   27.3188  -20.4912  -12.0967 N   0  0  0  0  0  0  0  0  0  0  0  0
   27.3671  -19.1886  -12.6770 C   0  0  0  0  0  0  0  0  0  0  0  0
   26.7474  -19.1003  -14.0255 C   0  0  0  0  0  0  0  0  0  0  0  0
   27.6261  -19.3542  -15.1897 C   0  0  0  0  0  0  0  0  0  0  0  0
   27.5483  -20.7280  -15.7845 C   0  0  2  0  0  0  0  0  0  0  0  0
   28.4272  -20.8930  -16.9231 N   0  0  0  0  0  0  0  0  0  0  0  0
   26.1853  -21.1195  -16.1673 C   0  0  0  0  0  0  0  0  0  0  0  0
   25.5825  -20.5475  -17.1422 O   0  0  0  0  0  0  0  0  0  0  0  0
   27.1193  -22.7938  -11.0376 C   0  0  0  0  0  0  0  0  0  0  0  0
   24.7231  -24.8410  -16.6023 C   0  0  2  0  0  0  0  0  0  0  0  0
   23.9612  -24.0500  -15.5759 C   0  0  0  0  0  0  0  0  0  0  0  0
   24.3093  -24.4602  -14.1614 C   0  0  2  0  0  0  0  0  0  0  0  0
   24.1502  -22.5477  -15.7680 N   0  0  0  0  0  0  0  0  0  0  0  0
   25.5060  -22.1463  -15.4601 C   0  0  0  0  0  0  0  0  0  0  0  0
   23.2320  -21.8957  -14.8077 O   0  0  0  0  0  0  0  0  0  0  0  0
   23.7126  -21.2880  -13.8251 C   0  0  0  0  0  0  0  0  0  0  0  0
   21.5558  -16.7983  -14.8628 S   0  0  0  0  0  0  0  0  0  0  0  0
   19.9564  -17.2444  -14.1613 C   0  0  0  0  0  0  0  0  0  0  0  0
   20.0347  -18.9794  -13.5372 C   0  0  0  0  0  0  0  0  0  0  0  0
   20.9205  -19.7868  -14.4466 C   0  0  2  0  0  0  0  0  0  0  0  0
   20.9097  -21.2349  -14.0450 N   0  0  0  0  0  0  0  0  0  0  0  0
   21.8207  -21.9359  -14.9636 C   0  0  0  0  0  0  0  0  0  0  0  0
   19.5457  -21.7773  -14.1420 O   0  0  0  0  0  0  0  0  0  0  0  0
   19.0153  -22.3056  -15.1341 O   0  0  0  0  0  0  0  0  0  0  0  0
  2  1  1  0
  3  2  2  0
  4  2  1  0
  5  6  1  0
  5  4  1  0
  6  7  1  0
  7  8  1  0
  8  9  1  6
  8 10  1  0
 10 11  2  0
 10 16  1  0
 13 12  1  6
 13 15  1  0
 13 14  1  0
 15 17  1  0
 15 16  1  6
 17 24  1  0
 17 18  2  0
 19 20  1  0
 20 21  1  0
 21 22  1  0
 23 22  1  1
 23 25  1  0
 24 23  1  0
 25 27  1  0
 26 25  2  0
M  END
$$$$
