RVM.pdb
     RDKit          3D

 27 26  0  0  1  0  0  0  0  0999 V2000
   30.5382  -27.1157  -19.0755 N   0  0  0  0  0  0  0  0  0  0  0  0
   29.4700  -28.0522  -18.9072 C   0  0  0  0  0  0  0  0  0  0  0  0
   29.6521  -29.2796  -19.2277 N   0  0  0  0  0  0  0  0  0  0  0  0
   28.2081  -27.6563  -18.3929 N   0  0  0  0  0  0  0  0  0  0  0  0
   27.9012  -26.3642  -17.8714 C   0  0  0  0  0  0  0  0  0  0  0  0
   28.7862  -25.9319  -16.7577 C   0  0  0  0  0  0  0  0  0  0  0  0
   28.4342  -24.6706  -16.0670 C   0  0  0  0  0  0  0  0  0  0  0  0
   28.3272  -23.4535  -16.9355 C   0  0  2  0  0  0  0  0  0  0  0  0
   29.5289  -23.2108  -17.7057 N   0  0  0  0  0  0  0  0  0  0  0  0
   27.9782  -22.2366  -16.1907 C   0  0  0  0  0  0  0  0  0  0  0  0
   28.8869  -21.4534  -15.7412 O   0  0  0  0  0  0  0  0  0  0  0  0
   28.9251  -29.9900  -19.1023 C   0  0  0  0  0  0  0  0  0  0  0  0
   25.8966  -19.1420  -17.0390 C   0  0  2  0  0  0  0  0  0  0  0  0
   25.2299  -19.8794  -15.9115 C   0  0  0  0  0  0  0  0  0  0  0  0
   24.0349  -20.6820  -16.3784 C   0  0  2  0  0  0  0  0  0  0  0  0
   26.2170  -20.7646  -15.1554 N   0  0  0  0  0  0  0  0  0  0  0  0
   26.6188  -21.9025  -15.9540 C   0  0  0  0  0  0  0  0  0  0  0  0
   25.4929  -21.2540  -13.9611 O   0  0  0  0  0  0  0  0  0  0  0  0
   24.6183  -22.1380  -14.1013 C   0  0  0  0  0  0  0  0  0  0  0  0
   27.5524  -19.7787   -8.1361 S   0  0  0  0  0  0  0  0  0  0  0  0
   25.9713  -20.4253   -7.5605 C   0  0  0  0  0  0  0  0  0  0  0  0
   25.0110  -21.0467   -9.0088 C   0  0  0  0  0  0  0  0  0  0  0  0
   25.7453  -20.6892  -10.2723 C   0  0  1  0  0  0  0  0  0  0  0  0
   25.0140  -21.2157  -11.4750 N   0  0  0  0  0  0  0  0  0  0  0  0
   25.7572  -20.7540  -12.6581 C   0  0  0  0  0  0  0  0  0  0  0  0
   23.6334  -20.7081  -11.4906 O   0  0  0  0  0  0  0  0  0  0  0  0
   23.2330  -19.6324  -11.9675 O   0  0  0  0  0  0  0  0  0  0  0  0
  2  1  1  0
  3  2  2  0
  4  2  1  0
  5  6  1  0
  5  4  1  0
  6  7  1  0
  7  8  1  0
  8  9  1  1
  8 10  1  0
 10 11  2  0
 10 16  1  0
 13 12  1  1
 13 15  1  0
 13 14  1  0
 15 17  1  0
 15 16  1  1
 17 24  1  0
 17 18  2  0
 19 20  1  0
 20 21  1  0
 21 22  1  0
 23 22  1  1
 23 25  1  0
 24 23  1  0
 25 27  1  0
 26 25  2  0
M  END
$$$$
