RVM.pdb
     RDKit          3D

 27 26  0  0  1  0  0  0  0  0999 V2000
   19.0254  -19.0523  -12.9466 N   0  0  0  0  0  0  0  0  0  0  0  0
   18.7988  -20.2540  -13.6888 C   0  0  0  0  0  0  0  0  0  0  0  0
   17.9362  -20.2556  -14.6367 N   0  0  0  0  0  0  0  0  0  0  0  0
   19.5065  -21.4501  -13.4019 N   0  0  0  0  0  0  0  0  0  0  0  0
   20.5366  -21.5815  -12.4235 C   0  0  0  0  0  0  0  0  0  0  0  0
   21.8802  -21.1525  -12.8936 C   0  0  0  0  0  0  0  0  0  0  0  0
   22.3609  -21.7221  -14.1728 C   0  0  0  0  0  0  0  0  0  0  0  0
   23.7485  -21.3328  -14.5853 C   0  0  2  0  0  0  0  0  0  0  0  0
   24.0903  -21.8076  -15.9096 N   0  0  0  0  0  0  0  0  0  0  0  0
   24.7811  -21.7684  -13.6359 C   0  0  0  0  0  0  0  0  0  0  0  0
   24.9167  -23.0044  -13.3280 O   0  0  0  0  0  0  0  0  0  0  0  0
   17.7573  -21.0850  -15.2104 C   0  0  0  0  0  0  0  0  0  0  0  0
   27.8141  -19.0181  -12.5603 C   0  0  2  0  0  0  0  0  0  0  0  0
   27.9895  -20.4968  -12.3552 C   0  0  0  0  0  0  0  0  0  0  0  0
   29.0067  -20.8100  -11.2794 C   0  0  1  0  0  0  0  0  0  0  0  0
   26.6598  -21.1870  -12.0633 N   0  0  0  0  0  0  0  0  0  0  0  0
   25.6547  -20.8220  -13.0382 C   0  0  0  0  0  0  0  0  0  0  0  0
   26.2312  -20.6989  -10.7334 O   0  0  0  0  0  0  0  0  0  0  0  0
   25.3351  -19.8281  -10.6661 C   0  0  0  0  0  0  0  0  0  0  0  0
   30.1614  -20.4280   -5.3434 S   0  0  0  0  0  0  0  0  0  0  0  0
   28.5947  -21.0918   -4.7487 C   0  0  0  0  0  0  0  0  0  0  0  0
   27.2406  -20.5424   -5.8758 C   0  0  0  0  0  0  0  0  0  0  0  0
   27.4509  -21.1610   -7.2310 C   0  0  1  0  0  0  0  0  0  0  0  0
   26.4332  -20.6468   -8.2099 N   0  0  0  0  0  0  0  0  0  0  0  0
   26.8032  -21.1862   -9.5279 C   0  0  0  0  0  0  0  0  0  0  0  0
   26.4412  -19.1758   -8.2231 O   0  0  0  0  0  0  0  0  0  0  0  0
   25.8120  -18.4136   -7.4696 O   0  0  0  0  0  0  0  0  0  0  0  0
  2  1  1  0
  3  2  2  0
  4  2  1  0
  5  6  1  0
  5  4  1  0
  6  7  1  0
  7  8  1  0
  8  9  1  6
  8 10  1  0
 10 11  2  0
 10 16  1  0
 13 12  1  6
 13 15  1  0
 13 14  1  0
 15 17  1  0
 15 16  1  6
 17 24  1  0
 17 18  2  0
 19 20  1  0
 20 21  1  0
 21 22  1  0
 23 22  1  1
 23 25  1  0
 24 23  1  0
 25 27  1  0
 26 25  2  0
M  END
$$$$
