RVM.pdb
     RDKit          3D

 27 26  0  0  1  0  0  0  0  0999 V2000
   19.7293  -21.9705  -15.6841 N   0  0  0  0  0  0  0  0  0  0  0  0
   20.4215  -20.9385  -16.3928 C   0  0  0  0  0  0  0  0  0  0  0  0
   19.7791  -19.8979  -16.7761 N   0  0  0  0  0  0  0  0  0  0  0  0
   21.8067  -21.0370  -16.6845 N   0  0  0  0  0  0  0  0  0  0  0  0
   22.6389  -22.1489  -16.3575 C   0  0  0  0  0  0  0  0  0  0  0  0
   23.5341  -21.9170  -15.1934 C   0  0  0  0  0  0  0  0  0  0  0  0
   23.0460  -22.3609  -13.8680 C   0  0  0  0  0  0  0  0  0  0  0  0
   23.3337  -21.4411  -12.7199 C   0  0  2  0  0  0  0  0  0  0  0  0
   23.4882  -20.0627  -13.1351 N   0  0  0  0  0  0  0  0  0  0  0  0
   24.5078  -21.8420  -11.9337 C   0  0  0  0  0  0  0  0  0  0  0  0
   24.6126  -23.0276  -11.4600 O   0  0  0  0  0  0  0  0  0  0  0  0
   20.2198  -19.1580  -17.3306 C   0  0  0  0  0  0  0  0  0  0  0  0
   28.0004  -19.2727  -11.7492 C   0  0  1  0  0  0  0  0  0  0  0  0
   28.0020  -20.7631  -11.5532 C   0  0  0  0  0  0  0  0  0  0  0  0
   29.2186  -21.2399  -10.7898 C   0  0  1  0  0  0  0  0  0  0  0  0
   26.7175  -21.2449  -10.8842 N   0  0  0  0  0  0  0  0  0  0  0  0
   25.5560  -20.9177  -11.6829 C   0  0  0  0  0  0  0  0  0  0  0  0
   26.6303  -20.5170   -9.5985 O   0  0  0  0  0  0  0  0  0  0  0  0
   26.0463  -19.4108   -9.5654 C   0  0  0  0  0  0  0  0  0  0  0  0
   30.4355  -22.0969   -4.5439 S   0  0  0  0  0  0  0  0  0  0  0  0
   29.0600  -21.3488   -3.6509 C   0  0  0  0  0  0  0  0  0  0  0  0
   28.0517  -20.3462   -4.8273 C   0  0  0  0  0  0  0  0  0  0  0  0
   27.9934  -21.0581   -6.1514 C   0  0  1  0  0  0  0  0  0  0  0  0
   27.1788  -20.2708   -7.1388 N   0  0  0  0  0  0  0  0  0  0  0  0
   27.1879  -21.0322   -8.3979 C   0  0  0  0  0  0  0  0  0  0  0  0
   27.7651  -18.9350   -7.3283 O   0  0  0  0  0  0  0  0  0  0  0  0
   28.7925  -18.6482   -7.9662 O   0  0  0  0  0  0  0  0  0  0  0  0
  2  1  1  0
  3  2  2  0
  4  2  1  0
  5  6  1  0
  5  4  1  0
  6  7  1  0
  7  8  1  0
  8  9  1  6
  8 10  1  0
 10 11  2  0
 10 16  1  0
 13 12  1  6
 13 15  1  0
 13 14  1  0
 15 17  1  0
 15 16  1  6
 17 24  1  0
 17 18  2  0
 19 20  1  0
 20 21  1  0
 21 22  1  0
 23 22  1  1
 23 25  1  0
 24 23  1  0
 25 27  1  0
 26 25  2  0
M  END
$$$$
