RVM.pdb
     RDKit          3D

 27 26  0  0  1  0  0  0  0  0999 V2000
   28.8335  -27.6329  -16.0935 N   0  0  0  0  0  0  0  0  0  0  0  0
   27.5016  -27.4357  -16.5768 C   0  0  0  0  0  0  0  0  0  0  0  0
   26.5941  -28.2940  -16.2902 N   0  0  0  0  0  0  0  0  0  0  0  0
   27.1570  -26.3100  -17.3692 N   0  0  0  0  0  0  0  0  0  0  0  0
   28.0298  -25.2249  -17.6799 C   0  0  0  0  0  0  0  0  0  0  0  0
   28.3861  -24.3773  -16.5117 C   0  0  0  0  0  0  0  0  0  0  0  0
   27.3530  -23.4380  -16.0196 C   0  0  0  0  0  0  0  0  0  0  0  0
   27.3294  -22.0875  -16.6698 C   0  0  2  0  0  0  0  0  0  0  0  0
   28.6487  -21.5033  -16.7895 N   0  0  0  0  0  0  0  0  0  0  0  0
   26.4392  -21.1332  -15.9959 C   0  0  0  0  0  0  0  0  0  0  0  0
   26.7991  -20.5412  -14.9183 O   0  0  0  0  0  0  0  0  0  0  0  0
   25.6489  -28.2400  -16.6811 C   0  0  0  0  0  0  0  0  0  0  0  0
   22.8462  -20.1356  -18.0051 C   0  0  2  0  0  0  0  0  0  0  0  0
   23.4663  -19.1458  -17.0589 C   0  0  0  0  0  0  0  0  0  0  0  0
   22.4415  -18.2110  -16.4538 C   0  0  1  0  0  0  0  0  0  0  0  0
   24.2784  -19.8406  -15.9692 N   0  0  0  0  0  0  0  0  0  0  0  0
   25.1552  -20.8462  -16.5295 C   0  0  0  0  0  0  0  0  0  0  0  0
   23.2925  -20.5068  -15.0891 O   0  0  0  0  0  0  0  0  0  0  0  0
   22.6390  -21.4766  -15.5343 C   0  0  0  0  0  0  0  0  0  0  0  0
   19.8389  -20.2273   -7.9456 S   0  0  0  0  0  0  0  0  0  0  0  0
   21.1626  -19.6534   -9.0261 C   0  0  0  0  0  0  0  0  0  0  0  0
   21.0704  -20.5643  -10.6285 C   0  0  0  0  0  0  0  0  0  0  0  0
   22.1021  -20.0043  -11.5695 C   0  0  1  0  0  0  0  0  0  0  0  0
   22.0649  -20.7288  -12.8856 N   0  0  0  0  0  0  0  0  0  0  0  0
   23.0623  -20.0825  -13.7531 C   0  0  0  0  0  0  0  0  0  0  0  0
   20.7199  -20.6403  -13.4748 O   0  0  0  0  0  0  0  0  0  0  0  0
   20.2062  -19.6551  -14.0319 O   0  0  0  0  0  0  0  0  0  0  0  0
  2  1  1  0
  3  2  2  0
  4  2  1  0
  5  6  1  0
  5  4  1  0
  6  7  1  0
  7  8  1  0
  8  9  1  1
  8 10  1  0
 10 11  2  0
 10 16  1  0
 13 12  1  6
 13 15  1  0
 13 14  1  0
 15 17  1  0
 15 16  1  6
 17 24  1  0
 17 18  2  0
 19 20  1  0
 20 21  1  0
 21 22  1  0
 23 22  1  1
 23 25  1  0
 24 23  1  0
 25 27  1  0
 26 25  2  0
M  END
$$$$
