RVM.pdb
     RDKit          3D

 27 26  0  0  1  0  0  0  0  0999 V2000
   23.0214  -19.5331   -8.8669 N   0  0  0  0  0  0  0  0  0  0  0  0
   23.4897  -20.6290   -8.0756 C   0  0  0  0  0  0  0  0  0  0  0  0
   22.6667  -21.2577   -7.3208 N   0  0  0  0  0  0  0  0  0  0  0  0
   24.8476  -21.0400   -8.1039 N   0  0  0  0  0  0  0  0  0  0  0  0
   25.8992  -20.3580   -8.7857 C   0  0  0  0  0  0  0  0  0  0  0  0
   26.2374  -20.9348  -10.1136 C   0  0  0  0  0  0  0  0  0  0  0  0
   25.1402  -21.0423  -11.1017 C   0  0  0  0  0  0  0  0  0  0  0  0
   25.5348  -21.4943  -12.4754 C   0  0  2  0  0  0  0  0  0  0  0  0
   26.9667  -21.4535  -12.6858 N   0  0  0  0  0  0  0  0  0  0  0  0
   24.8685  -20.7442  -13.5481 C   0  0  0  0  0  0  0  0  0  0  0  0
   25.3958  -19.6855  -14.0402 O   0  0  0  0  0  0  0  0  0  0  0  0
   22.9664  -22.0112   -6.6951 C   0  0  0  0  0  0  0  0  0  0  0  0
   23.8418  -21.8678  -16.9958 C   0  0  2  0  0  0  0  0  0  0  0  0
   22.5969  -21.4204  -16.2820 C   0  0  0  0  0  0  0  0  0  0  0  0
   21.7526  -22.5866  -15.8157 C   0  0  2  0  0  0  0  0  0  0  0  0
   22.9190  -20.4840  -15.1205 N   0  0  0  0  0  0  0  0  0  0  0  0
   23.6200  -21.1814  -14.0639 C   0  0  0  0  0  0  0  0  0  0  0  0
   21.6145  -20.0189  -14.5987 O   0  0  0  0  0  0  0  0  0  0  0  0
   21.0149  -20.7185  -13.7519 C   0  0  0  0  0  0  0  0  0  0  0  0
   19.5202  -14.1428  -16.0160 S   0  0  0  0  0  0  0  0  0  0  0  0
   18.2567  -14.5071  -14.7831 C   0  0  0  0  0  0  0  0  0  0  0  0
   18.3180  -16.3047  -14.3702 C   0  0  0  0  0  0  0  0  0  0  0  0
   19.6355  -16.8675  -14.8295 C   0  0  1  0  0  0  0  0  0  0  0  0
   19.7321  -18.3287  -14.4918 N   0  0  0  0  0  0  0  0  0  0  0  0
   21.0182  -18.8028  -15.0269 C   0  0  0  0  0  0  0  0  0  0  0  0
   18.6092  -19.0632  -15.0947 O   0  0  0  0  0  0  0  0  0  0  0  0
   18.5641  -19.5693  -16.2290 O   0  0  0  0  0  0  0  0  0  0  0  0
  2  1  1  0
  3  2  2  0
  4  2  1  0
  5  6  1  0
  5  4  1  0
  6  7  1  0
  7  8  1  0
  8  9  1  6
  8 10  1  0
 10 11  2  0
 10 16  1  0
 13 12  1  6
 13 15  1  0
 13 14  1  0
 15 17  1  0
 15 16  1  6
 17 24  1  0
 17 18  2  0
 19 20  1  0
 20 21  1  0
 21 22  1  0
 23 22  1  1
 23 25  1  0
 24 23  1  0
 25 27  1  0
 26 25  2  0
M  END
$$$$
