RVM.pdb
     RDKit          3D

 27 26  0  0  1  0  0  0  0  0999 V2000
   17.6689  -17.1635  -14.6614 N   0  0  0  0  0  0  0  0  0  0  0  0
   16.4280  -17.1805  -15.3728 C   0  0  0  0  0  0  0  0  0  0  0  0
   15.7717  -18.2771  -15.4682 N   0  0  0  0  0  0  0  0  0  0  0  0
   15.9022  -16.0101  -15.9790 N   0  0  0  0  0  0  0  0  0  0  0  0
   16.5650  -14.7482  -16.0426 C   0  0  0  0  0  0  0  0  0  0  0  0
   17.1264  -14.4229  -17.3802 C   0  0  0  0  0  0  0  0  0  0  0  0
   17.8121  -13.1188  -17.5250 C   0  0  0  0  0  0  0  0  0  0  0  0
   16.9261  -11.9334  -17.7635 C   0  0  2  0  0  0  0  0  0  0  0  0
   16.0908  -12.0887  -18.9359 N   0  0  0  0  0  0  0  0  0  0  0  0
   17.6634  -10.6668  -17.8616 C   0  0  0  0  0  0  0  0  0  0  0  0
   18.2965  -10.3516  -18.9297 O   0  0  0  0  0  0  0  0  0  0  0  0
   14.9243  -18.3582  -16.0378 C   0  0  0  0  0  0  0  0  0  0  0  0
   16.2597   -7.1588  -17.3723 C   0  0  2  0  0  0  0  0  0  0  0  0
   17.3811   -7.3560  -16.3908 C   0  0  0  0  0  0  0  0  0  0  0  0
   16.8765   -7.6077  -14.9865 C   0  0  2  0  0  0  0  0  0  0  0  0
   18.3296   -8.4664  -16.8346 N   0  0  0  0  0  0  0  0  0  0  0  0
   17.6879   -9.7616  -16.7680 C   0  0  0  0  0  0  0  0  0  0  0  0
   19.4576   -8.4452  -15.8767 O   0  0  0  0  0  0  0  0  0  0  0  0
   19.3424   -9.0540  -14.7895 C   0  0  0  0  0  0  0  0  0  0  0  0
   26.7076  -10.0781  -14.6309 S   0  0  0  0  0  0  0  0  0  0  0  0
   25.3528   -9.7744  -15.7806 C   0  0  0  0  0  0  0  0  0  0  0  0
   24.0310   -8.8200  -14.9159 C   0  0  0  0  0  0  0  0  0  0  0  0
   22.8626   -8.6479  -15.8480 C   0  0  2  0  0  0  0  0  0  0  0  0
   21.8104   -7.7775  -15.2207 N   0  0  0  0  0  0  0  0  0  0  0  0
   20.6695   -7.7561  -16.1496 C   0  0  0  0  0  0  0  0  0  0  0  0
   22.3376   -6.4212  -15.0048 O   0  0  0  0  0  0  0  0  0  0  0  0
   22.3026   -5.4655  -15.7987 O   0  0  0  0  0  0  0  0  0  0  0  0
  2  1  1  0
  3  2  2  0
  4  2  1  0
  5  6  1  0
  5  4  1  0
  6  7  1  0
  7  8  1  0
  8  9  1  6
  8 10  1  0
 10 11  2  0
 10 16  1  0
 13 12  1  1
 13 15  1  0
 13 14  1  0
 15 17  1  0
 15 16  1  6
 17 24  1  0
 17 18  2  0
 19 20  1  0
 20 21  1  0
 21 22  1  0
 23 22  1  1
 23 25  1  0
 24 23  1  0
 25 27  1  0
 26 25  2  0
M  END
$$$$
