RVM.pdb
     RDKit          3D

 27 26  0  0  1  0  0  0  0  0999 V2000
   29.2641  -17.6242  -19.4636 N   0  0  0  0  0  0  0  0  0  0  0  0
   27.8338  -17.6044  -19.4466 C   0  0  0  0  0  0  0  0  0  0  0  0
   27.1879  -17.8341  -20.5294 N   0  0  0  0  0  0  0  0  0  0  0  0
   27.1078  -17.3355  -18.2574 N   0  0  0  0  0  0  0  0  0  0  0  0
   27.6803  -17.1979  -16.9578 C   0  0  0  0  0  0  0  0  0  0  0  0
   28.0710  -18.4856  -16.3258 C   0  0  0  0  0  0  0  0  0  0  0  0
   27.0110  -19.2390  -15.6184 C   0  0  0  0  0  0  0  0  0  0  0  0
   27.4717  -20.3987  -14.7877 C   0  0  2  0  0  0  0  0  0  0  0  0
   28.1704  -21.3994  -15.5665 N   0  0  0  0  0  0  0  0  0  0  0  0
   26.3864  -21.0436  -14.0369 C   0  0  0  0  0  0  0  0  0  0  0  0
   25.6584  -21.9501  -14.5748 O   0  0  0  0  0  0  0  0  0  0  0  0
   27.6591  -17.9549  -21.4308 C   0  0  0  0  0  0  0  0  0  0  0  0
   26.6342  -21.2183  -10.0055 C   0  0  2  0  0  0  0  0  0  0  0  0
   25.2135  -20.9760  -10.4324 C   0  0  0  0  0  0  0  0  0  0  0  0
   24.7266  -19.5955  -10.0484 C   0  0  2  0  0  0  0  0  0  0  0  0
   25.0242  -21.2227  -11.9268 N   0  0  0  0  0  0  0  0  0  0  0  0
   26.1224  -20.6729  -12.6920 C   0  0  0  0  0  0  0  0  0  0  0  0
   23.7810  -20.5129  -12.3023 O   0  0  0  0  0  0  0  0  0  0  0  0
   23.8060  -19.2677  -12.4241 C   0  0  0  0  0  0  0  0  0  0  0  0
   19.9950  -22.6228  -16.5302 S   0  0  0  0  0  0  0  0  0  0  0  0
   18.9131  -21.2420  -16.1152 C   0  0  0  0  0  0  0  0  0  0  0  0
   19.4889  -20.4783  -14.5369 C   0  0  0  0  0  0  0  0  0  0  0  0
   20.8007  -21.1006  -14.1425 C   0  0  1  0  0  0  0  0  0  0  0  0
   21.3132  -20.4897  -12.8687 N   0  0  0  0  0  0  0  0  0  0  0  0
   22.5576  -21.1980  -12.5301 C   0  0  0  0  0  0  0  0  0  0  0  0
   20.3155  -20.6392  -11.7980 O   0  0  0  0  0  0  0  0  0  0  0  0
   20.2907  -21.5075  -10.9091 O   0  0  0  0  0  0  0  0  0  0  0  0
  2  1  1  0
  3  2  2  0
  4  2  1  0
  5  6  1  0
  5  4  1  0
  6  7  1  0
  7  8  1  0
  8  9  1  6
  8 10  1  0
 10 11  2  0
 10 16  1  0
 13 12  1  1
 13 15  1  0
 13 14  1  0
 15 17  1  0
 15 16  1  6
 17 24  1  0
 17 18  2  0
 19 20  1  0
 20 21  1  0
 21 22  1  0
 23 22  1  6
 23 25  1  0
 24 23  1  0
 25 27  1  0
 26 25  2  0
M  END
$$$$
