LWS.pdb
     RDKit          3D

 29 30  0  0  1  0  0  0  0  0999 V2000
    8.1896  -14.2079   18.1296 C   0  0  0  0  0  0  0  0  0  0  0  0
    7.5930  -13.5693   19.3914 C   0  0  2  0  0  0  0  0  0  0  0  0
    7.2601  -12.1477   19.0388 C   0  0  0  0  0  0  0  0  0  0  0  0
    8.5980  -13.7093   20.4730 C   0  0  0  0  0  0  0  0  0  0  0  0
    8.9296  -15.1193   20.8579 C   0  0  2  0  0  0  0  0  0  0  0  0
    7.6845  -15.8683   20.8955 N   0  0  0  0  0  0  0  0  0  0  0  0
    9.6552  -15.2426   22.1443 C   0  0  0  0  0  0  0  0  0  0  0  0
   10.7499  -14.6648   22.3490 O   0  0  0  0  0  0  0  0  0  0  0  0
    9.1463  -16.0344   23.2344 N   0  0  0  0  0  0  0  0  0  0  0  0
    9.8370  -16.0774   24.4985 C   0  0  1  0  0  0  0  0  0  0  0  0
    8.9217  -16.3055   25.6457 C   0  0  0  0  0  0  0  0  0  0  0  0
    7.7723  -15.3914   25.7468 C   0  0  0  0  0  0  0  0  0  0  0  0
    6.4269  -15.7333   25.5011 C   0  0  0  0  0  0  0  0  0  0  0  0
    5.6671  -14.6544   25.7239 N   0  0  0  0  0  0  0  0  0  0  0  0
    6.4199  -13.6088   26.1036 C   0  0  0  0  0  0  0  0  0  0  0  0
    6.0802  -12.3139   26.4224 C   0  0  0  0  0  0  0  0  0  0  0  0
    7.0839  -11.4438   26.7666 C   0  0  0  0  0  0  0  0  0  0  0  0
    8.3873  -11.8668   26.7882 C   0  0  0  0  0  0  0  0  0  0  0  0
    8.7065  -13.1645   26.4668 C   0  0  0  0  0  0  0  0  0  0  0  0
    7.7396  -14.0697   26.1177 C   0  0  0  0  0  0  0  0  0  0  0  0
   10.8327  -17.2108   24.4707 C   0  0  0  0  0  0  0  0  0  0  0  0
   10.4525  -18.3585   24.1138 O   0  0  0  0  0  0  0  0  0  0  0  0
   15.0039  -16.5826   24.6761 O   0  0  0  0  0  0  0  0  0  0  0  0
   14.4553  -17.7207   24.0975 C   0  0  0  0  0  0  0  0  0  0  0  0
   13.1655  -18.1045   24.7257 C   0  0  2  0  0  0  0  0  0  0  0  0
   12.1883  -17.0648   24.8256 N   0  0  0  0  0  0  0  0  0  0  0  0
   13.4852  -18.5576   26.1279 C   0  0  0  0  0  0  0  0  0  0  0  0
   12.9534  -17.9432   27.0660 O   0  0  0  0  0  0  0  0  0  0  0  0
   14.3324  -19.6109   26.3885 O   0  0  0  0  0  0  0  0  0  0  0  0
  2  1  1  6
  2  3  1  0
  4  2  1  0
  5  4  1  0
  5  6  1  1
  7  8  2  0
  7  5  1  0
  9  7  1  0
 10  9  1  0
 10 11  1  1
 11 12  1  0
 12 20  1  0
 12 13  2  0
 13 14  1  0
 15 14  1  0
 15 16  2  0
 17 16  1  0
 18 17  2  0
 19 20  2  0
 19 18  1  0
 20 15  1  0
 21 22  2  0
 21 10  1  0
 24 23  1  0
 25 24  1  1
 25 26  1  0
 26 21  1  0
 27 25  1  0
 28 27  2  0
 29 27  1  0
M  END
$$$$
