LWS.pdb
     RDKit          3D

 29 30  0  0  1  0  0  0  0  0999 V2000
    8.6877  -18.9905   17.7728 C   0  0  0  0  0  0  0  0  0  0  0  0
    7.8840  -17.8346   18.3846 C   0  0  2  0  0  0  0  0  0  0  0  0
    7.5651  -16.8896   17.2616 C   0  0  0  0  0  0  0  0  0  0  0  0
    8.7141  -17.2430   19.4617 C   0  0  0  0  0  0  0  0  0  0  0  0
    7.9800  -16.3512   20.4168 C   0  0  2  0  0  0  0  0  0  0  0  0
    7.4725  -15.2197   19.6586 N   0  0  0  0  0  0  0  0  0  0  0  0
    8.7955  -15.8900   21.5652 C   0  0  0  0  0  0  0  0  0  0  0  0
    9.4779  -14.8384   21.5173 O   0  0  0  0  0  0  0  0  0  0  0  0
    8.8531  -16.6236   22.8033 N   0  0  0  0  0  0  0  0  0  0  0  0
    9.6381  -16.1388   23.9105 C   0  0  1  0  0  0  0  0  0  0  0  0
    8.9447  -16.2889   25.2154 C   0  0  0  0  0  0  0  0  0  0  0  0
    7.7506  -15.4510   25.4125 C   0  0  0  0  0  0  0  0  0  0  0  0
    6.4143  -15.8867   25.3028 C   0  0  0  0  0  0  0  0  0  0  0  0
    5.6074  -14.8560   25.5811 N   0  0  0  0  0  0  0  0  0  0  0  0
    6.3200  -13.7547   25.8704 C   0  0  0  0  0  0  0  0  0  0  0  0
    5.9247  -12.4785   26.2005 C   0  0  0  0  0  0  0  0  0  0  0  0
    6.8949  -11.5365   26.4330 C   0  0  0  0  0  0  0  0  0  0  0  0
    8.2202  -11.8715   26.3356 C   0  0  0  0  0  0  0  0  0  0  0  0
    8.5951  -13.1519   26.0049 C   0  0  0  0  0  0  0  0  0  0  0  0
    7.6633  -14.1267   25.7645 C   0  0  0  0  0  0  0  0  0  0  0  0
   10.9231  -16.9268   23.9781 C   0  0  0  0  0  0  0  0  0  0  0  0
   10.8748  -18.1861   24.0081 O   0  0  0  0  0  0  0  0  0  0  0  0
   14.7394  -15.0707   23.8831 O   0  0  0  0  0  0  0  0  0  0  0  0
   14.5973  -16.3723   23.4179 C   0  0  0  0  0  0  0  0  0  0  0  0
   13.4302  -17.0617   24.0246 C   0  0  2  0  0  0  0  0  0  0  0  0
   12.1999  -16.3321   24.0101 N   0  0  0  0  0  0  0  0  0  0  0  0
   13.7827  -17.3203   25.4677 C   0  0  0  0  0  0  0  0  0  0  0  0
   13.0196  -16.8685   26.3360 O   0  0  0  0  0  0  0  0  0  0  0  0
   14.9036  -18.0283   25.8386 O   0  0  0  0  0  0  0  0  0  0  0  0
  2  1  1  6
  2  3  1  0
  4  2  1  0
  5  4  1  0
  5  6  1  6
  7  8  2  0
  7  5  1  0
  9  7  1  0
 10  9  1  0
 10 11  1  1
 11 12  1  0
 12 20  1  0
 12 13  2  0
 13 14  1  0
 15 14  1  0
 15 16  2  0
 17 16  1  0
 18 17  2  0
 19 20  2  0
 19 18  1  0
 20 15  1  0
 21 22  2  0
 21 10  1  0
 24 23  1  0
 25 24  1  1
 25 26  1  0
 26 21  1  0
 27 25  1  0
 28 27  2  0
 29 27  1  0
M  END
$$$$
