LWS.pdb
     RDKit          3D

 29 30  0  0  1  0  0  0  0  0999 V2000
    8.2740  -14.0372   18.2656 C   0  0  0  0  0  0  0  0  0  0  0  0
    7.5132  -13.4999   19.4857 C   0  0  2  0  0  0  0  0  0  0  0  0
    7.1606  -12.0723   19.1794 C   0  0  0  0  0  0  0  0  0  0  0  0
    8.3962  -13.6698   20.6650 C   0  0  0  0  0  0  0  0  0  0  0  0
    8.7904  -15.0835   20.9692 C   0  0  2  0  0  0  0  0  0  0  0  0
    7.5738  -15.8776   21.0167 N   0  0  0  0  0  0  0  0  0  0  0  0
    9.5688  -15.2405   22.2205 C   0  0  0  0  0  0  0  0  0  0  0  0
   10.6461  -14.6278   22.4155 O   0  0  0  0  0  0  0  0  0  0  0  0
    9.1343  -16.1072   23.2855 N   0  0  0  0  0  0  0  0  0  0  0  0
    9.8742  -16.1849   24.5199 C   0  0  1  0  0  0  0  0  0  0  0  0
    8.9964  -16.3537   25.7060 C   0  0  0  0  0  0  0  0  0  0  0  0
    7.8283  -15.4607   25.7776 C   0  0  0  0  0  0  0  0  0  0  0  0
    6.4919  -15.8350   25.5301 C   0  0  0  0  0  0  0  0  0  0  0  0
    5.7092  -14.7667   25.7225 N   0  0  0  0  0  0  0  0  0  0  0  0
    6.4382  -13.6978   26.0835 C   0  0  0  0  0  0  0  0  0  0  0  0
    6.0704  -12.4031   26.3699 C   0  0  0  0  0  0  0  0  0  0  0  0
    7.0539  -11.5054   26.7012 C   0  0  0  0  0  0  0  0  0  0  0  0
    8.3652  -11.9016   26.7420 C   0  0  0  0  0  0  0  0  0  0  0  0
    8.7126  -13.1997   26.4529 C   0  0  0  0  0  0  0  0  0  0  0  0
    7.7665  -14.1318   26.1178 C   0  0  0  0  0  0  0  0  0  0  0  0
   10.7998  -17.3748   24.4584 C   0  0  0  0  0  0  0  0  0  0  0  0
   10.3830  -18.5021   24.8388 O   0  0  0  0  0  0  0  0  0  0  0  0
   14.1547  -17.2639   22.0848 O   0  0  0  0  0  0  0  0  0  0  0  0
   13.6727  -18.5043   22.4850 C   0  0  0  0  0  0  0  0  0  0  0  0
   12.9747  -18.4402   23.7943 C   0  0  2  0  0  0  0  0  0  0  0  0
   12.1278  -17.3047   23.9930 N   0  0  0  0  0  0  0  0  0  0  0  0
   14.0463  -18.3929   24.8540 C   0  0  0  0  0  0  0  0  0  0  0  0
   14.0843  -17.3938   25.5893 O   0  0  0  0  0  0  0  0  0  0  0  0
   14.9630  -19.4061   25.0229 O   0  0  0  0  0  0  0  0  0  0  0  0
  2  1  1  6
  2  3  1  0
  4  2  1  0
  5  4  1  0
  5  6  1  1
  7  8  2  0
  7  5  1  0
  9  7  1  0
 10  9  1  0
 10 11  1  1
 11 12  1  0
 12 20  1  0
 12 13  2  0
 13 14  1  0
 15 14  1  0
 15 16  2  0
 17 16  1  0
 18 17  2  0
 19 20  2  0
 19 18  1  0
 20 15  1  0
 21 22  2  0
 21 10  1  0
 24 23  1  0
 25 24  1  6
 25 26  1  0
 26 21  1  0
 27 25  1  0
 28 27  2  0
 29 27  1  0
M  END
$$$$
