LWS.pdb
     RDKit          3D

 29 30  0  0  1  0  0  0  0  0999 V2000
    8.3155  -13.9163   18.2415 C   0  0  0  0  0  0  0  0  0  0  0  0
    7.4626  -13.4863   19.4430 C   0  0  2  0  0  0  0  0  0  0  0  0
    7.0584  -12.0608   19.1966 C   0  0  0  0  0  0  0  0  0  0  0  0
    8.2856  -13.6845   20.6606 C   0  0  0  0  0  0  0  0  0  0  0  0
    8.7165  -15.0968   20.9173 C   0  0  2  0  0  0  0  0  0  0  0  0
    7.5191  -15.9197   20.9613 N   0  0  0  0  0  0  0  0  0  0  0  0
    9.5191  -15.2718   22.1509 C   0  0  0  0  0  0  0  0  0  0  0  0
   10.6009  -14.6630   22.3330 O   0  0  0  0  0  0  0  0  0  0  0  0
    9.1044  -16.1524   23.2123 N   0  0  0  0  0  0  0  0  0  0  0  0
    9.8283  -16.1965   24.4577 C   0  0  1  0  0  0  0  0  0  0  0  0
    8.9397  -16.3888   25.6321 C   0  0  0  0  0  0  0  0  0  0  0  0
    7.7910  -15.4735   25.7298 C   0  0  0  0  0  0  0  0  0  0  0  0
    6.4408  -15.8256   25.5292 C   0  0  0  0  0  0  0  0  0  0  0  0
    5.6842  -14.7408   25.7333 N   0  0  0  0  0  0  0  0  0  0  0  0
    6.4437  -13.6816   26.0582 C   0  0  0  0  0  0  0  0  0  0  0  0
    6.1089  -12.3770   26.3404 C   0  0  0  0  0  0  0  0  0  0  0  0
    7.1187  -11.4941   26.6297 C   0  0  0  0  0  0  0  0  0  0  0  0
    8.4232  -11.9141   26.6338 C   0  0  0  0  0  0  0  0  0  0  0  0
    8.7374  -13.2217   26.3495 C   0  0  0  0  0  0  0  0  0  0  0  0
    7.7643  -14.1398   26.0557 C   0  0  0  0  0  0  0  0  0  0  0  0
   10.7960  -17.3535   24.4175 C   0  0  0  0  0  0  0  0  0  0  0  0
   10.3652  -18.5107   24.1631 O   0  0  0  0  0  0  0  0  0  0  0  0
   14.9703  -16.7707   24.4666 O   0  0  0  0  0  0  0  0  0  0  0  0
   14.4276  -17.9218   23.9085 C   0  0  0  0  0  0  0  0  0  0  0  0
   13.1257  -18.2847   24.5239 C   0  0  2  0  0  0  0  0  0  0  0  0
   12.1790  -17.2200   24.6508 N   0  0  0  0  0  0  0  0  0  0  0  0
   13.4287  -18.7851   25.9137 C   0  0  0  0  0  0  0  0  0  0  0  0
   12.8638  -18.2210   26.8639 O   0  0  0  0  0  0  0  0  0  0  0  0
   14.2962  -19.8276   26.1503 O   0  0  0  0  0  0  0  0  0  0  0  0
  2  1  1  6
  2  3  1  0
  4  2  1  0
  5  4  1  0
  5  6  1  1
  7  8  2  0
  7  5  1  0
  9  7  1  0
 10  9  1  0
 10 11  1  1
 11 12  1  0
 12 20  1  0
 12 13  2  0
 13 14  1  0
 15 14  1  0
 15 16  2  0
 17 16  1  0
 18 17  2  0
 19 20  2  0
 19 18  1  0
 20 15  1  0
 21 22  2  0
 21 10  1  0
 24 23  1  0
 25 24  1  1
 25 26  1  0
 26 21  1  0
 27 25  1  0
 28 27  2  0
 29 27  1  0
M  END
$$$$
