LWS.pdb
     RDKit          3D

 29 30  0  0  1  0  0  0  0  0999 V2000
    8.2686  -14.2506   17.9815 C   0  0  0  0  0  0  0  0  0  0  0  0
    7.5409  -13.6939   19.2130 C   0  0  2  0  0  0  0  0  0  0  0  0
    7.2216  -12.2574   18.9121 C   0  0  0  0  0  0  0  0  0  0  0  0
    8.4367  -13.8877   20.3788 C   0  0  0  0  0  0  0  0  0  0  0  0
    8.7478  -15.3148   20.7149 C   0  0  2  0  0  0  0  0  0  0  0  0
    7.4948  -16.0514   20.7028 N   0  0  0  0  0  0  0  0  0  0  0  0
    9.4498  -15.4946   22.0077 C   0  0  0  0  0  0  0  0  0  0  0  0
   10.5360  -14.9200   22.2608 O   0  0  0  0  0  0  0  0  0  0  0  0
    8.9263  -16.3410   23.0487 N   0  0  0  0  0  0  0  0  0  0  0  0
    9.5807  -16.4226   24.3301 C   0  0  1  0  0  0  0  0  0  0  0  0
    8.6251  -16.6035   25.4526 C   0  0  0  0  0  0  0  0  0  0  0  0
    7.5479  -15.6051   25.5513 C   0  0  0  0  0  0  0  0  0  0  0  0
    6.1786  -15.8486   25.3205 C   0  0  0  0  0  0  0  0  0  0  0  0
    5.5034  -14.7134   25.5358 N   0  0  0  0  0  0  0  0  0  0  0  0
    6.3353  -13.7225   25.8964 C   0  0  0  0  0  0  0  0  0  0  0  0
    6.0958  -12.4022   26.2017 C   0  0  0  0  0  0  0  0  0  0  0  0
    7.1644  -11.6053   26.5271 C   0  0  0  0  0  0  0  0  0  0  0  0
    8.4329  -12.1240   26.5437 C   0  0  0  0  0  0  0  0  0  0  0  0
    8.6517  -13.4457   26.2360 C   0  0  0  0  0  0  0  0  0  0  0  0
    7.6170  -14.2803   25.9059 C   0  0  0  0  0  0  0  0  0  0  0  0
   10.5152  -17.6072   24.3249 C   0  0  0  0  0  0  0  0  0  0  0  0
   10.4126  -18.4711   23.4125 O   0  0  0  0  0  0  0  0  0  0  0  0
   14.9228  -17.8181   23.8975 O   0  0  0  0  0  0  0  0  0  0  0  0
   13.6302  -17.3520   24.1045 C   0  0  0  0  0  0  0  0  0  0  0  0
   12.8490  -18.2412   25.0013 C   0  0  2  0  0  0  0  0  0  0  0  0
   11.5160  -17.8133   25.2949 N   0  0  0  0  0  0  0  0  0  0  0  0
   13.5990  -18.3048   26.3079 C   0  0  0  0  0  0  0  0  0  0  0  0
   13.0402  -17.8421   27.3148 O   0  0  0  0  0  0  0  0  0  0  0  0
   14.8588  -18.8503   26.4103 O   0  0  0  0  0  0  0  0  0  0  0  0
  2  1  1  6
  2  3  1  0
  4  2  1  0
  5  4  1  0
  5  6  1  1
  7  8  2  0
  7  5  1  0
  9  7  1  0
 10  9  1  0
 10 11  1  1
 11 12  1  0
 12 20  1  0
 12 13  2  0
 13 14  1  0
 15 14  1  0
 15 16  2  0
 17 16  1  0
 18 17  2  0
 19 20  2  0
 19 18  1  0
 20 15  1  0
 21 22  2  0
 21 10  1  0
 24 23  1  0
 25 24  1  6
 25 26  1  0
 26 21  1  0
 27 25  1  0
 28 27  2  0
 29 27  1  0
M  END
$$$$
