LWS.pdb
     RDKit          3D

 29 30  0  0  1  0  0  0  0  0999 V2000
    8.7143  -14.0234   18.3629 C   0  0  0  0  0  0  0  0  0  0  0  0
    7.5773  -13.8117   19.3721 C   0  0  2  0  0  0  0  0  0  0  0  0
    6.9327  -12.4999   19.0262 C   0  0  0  0  0  0  0  0  0  0  0  0
    8.1775  -13.8571   20.7274 C   0  0  0  0  0  0  0  0  0  0  0  0
    8.8555  -15.1456   21.0827 C   0  0  2  0  0  0  0  0  0  0  0  0
    7.8522  -16.1964   21.0372 N   0  0  0  0  0  0  0  0  0  0  0  0
    9.5389  -15.1292   22.3978 C   0  0  0  0  0  0  0  0  0  0  0  0
   10.4214  -14.2829   22.6788 O   0  0  0  0  0  0  0  0  0  0  0  0
    9.2303  -16.0853   23.4297 N   0  0  0  0  0  0  0  0  0  0  0  0
    9.8932  -16.0285   24.7081 C   0  0  1  0  0  0  0  0  0  0  0  0
    8.9602  -16.2187   25.8480 C   0  0  0  0  0  0  0  0  0  0  0  0
    7.7760  -15.3445   25.8662 C   0  0  0  0  0  0  0  0  0  0  0  0
    6.4514  -15.7502   25.6048 C   0  0  0  0  0  0  0  0  0  0  0  0
    5.6470  -14.6900   25.7456 N   0  0  0  0  0  0  0  0  0  0  0  0
    6.3502  -13.5971   26.0849 C   0  0  0  0  0  0  0  0  0  0  0  0
    5.9548  -12.3002   26.3203 C   0  0  0  0  0  0  0  0  0  0  0  0
    6.9160  -11.3749   26.6409 C   0  0  0  0  0  0  0  0  0  0  0  0
    8.2328  -11.7464   26.7211 C   0  0  0  0  0  0  0  0  0  0  0  0
    8.6079  -13.0471   26.4827 C   0  0  0  0  0  0  0  0  0  0  0  0
    7.6847  -14.0063   26.1603 C   0  0  0  0  0  0  0  0  0  0  0  0
   10.9262  -17.1265   24.7700 C   0  0  0  0  0  0  0  0  0  0  0  0
   10.5556  -18.3121   24.9854 O   0  0  0  0  0  0  0  0  0  0  0  0
   15.0771  -16.3549   24.7219 O   0  0  0  0  0  0  0  0  0  0  0  0
   14.6493  -17.5415   24.1390 C   0  0  0  0  0  0  0  0  0  0  0  0
   13.2962  -17.9400   24.6034 C   0  0  2  0  0  0  0  0  0  0  0  0
   12.3072  -16.9065   24.5984 N   0  0  0  0  0  0  0  0  0  0  0  0
   13.4487  -18.4096   26.0281 C   0  0  0  0  0  0  0  0  0  0  0  0
   12.7864  -17.8256   26.9002 O   0  0  0  0  0  0  0  0  0  0  0  0
   14.2848  -19.4457   26.3786 O   0  0  0  0  0  0  0  0  0  0  0  0
  2  1  1  6
  2  3  1  0
  4  2  1  0
  5  4  1  0
  5  6  1  1
  7  8  2  0
  7  5  1  0
  9  7  1  0
 10  9  1  0
 10 11  1  1
 11 12  1  0
 12 20  1  0
 12 13  2  0
 13 14  1  0
 15 14  1  0
 15 16  2  0
 17 16  1  0
 18 17  2  0
 19 20  2  0
 19 18  1  0
 20 15  1  0
 21 22  2  0
 21 10  1  0
 24 23  1  0
 25 24  1  1
 25 26  1  0
 26 21  1  0
 27 25  1  0
 28 27  2  0
 29 27  1  0
M  END
$$$$
