LWS.pdb
     RDKit          3D

 29 30  0  0  1  0  0  0  0  0999 V2000
    8.6270  -14.1244   18.3157 C   0  0  0  0  0  0  0  0  0  0  0  0
    7.7132  -13.6661   19.4606 C   0  0  2  0  0  0  0  0  0  0  0  0
    7.3225  -12.2476   19.1588 C   0  0  0  0  0  0  0  0  0  0  0  0
    8.4722  -13.8335   20.7236 C   0  0  0  0  0  0  0  0  0  0  0  0
    8.8018  -15.2495   21.0877 C   0  0  2  0  0  0  0  0  0  0  0  0
    7.5952  -16.0403   20.9101 N   0  0  0  0  0  0  0  0  0  0  0  0
    9.3399  -15.4139   22.4589 C   0  0  0  0  0  0  0  0  0  0  0  0
   10.1504  -14.5968   22.9582 O   0  0  0  0  0  0  0  0  0  0  0  0
    8.9645  -16.5228   23.2977 N   0  0  0  0  0  0  0  0  0  0  0  0
    9.4894  -16.6457   24.6343 C   0  0  1  0  0  0  0  0  0  0  0  0
    8.4231  -16.7170   25.6658 C   0  0  0  0  0  0  0  0  0  0  0  0
    7.4701  -15.5954   25.6884 C   0  0  0  0  0  0  0  0  0  0  0  0
    6.1169  -15.6593   25.2984 C   0  0  0  0  0  0  0  0  0  0  0  0
    5.5634  -14.4556   25.4869 N   0  0  0  0  0  0  0  0  0  0  0  0
    6.4620  -13.5871   25.9791 C   0  0  0  0  0  0  0  0  0  0  0  0
    6.3503  -12.2567   26.3127 C   0  0  0  0  0  0  0  0  0  0  0  0
    7.4630  -11.6092   26.7875 C   0  0  0  0  0  0  0  0  0  0  0  0
    8.6493  -12.2823   26.9210 C   0  0  0  0  0  0  0  0  0  0  0  0
    8.7408  -13.6114   26.5826 C   0  0  0  0  0  0  0  0  0  0  0  0
    7.6575  -14.3005   26.1052 C   0  0  0  0  0  0  0  0  0  0  0  0
   10.3023  -17.9137   24.7233 C   0  0  0  0  0  0  0  0  0  0  0  0
    9.7840  -19.0062   24.3668 O   0  0  0  0  0  0  0  0  0  0  0  0
   14.4178  -17.8728   24.8818 O   0  0  0  0  0  0  0  0  0  0  0  0
   13.7575  -19.0602   24.5904 C   0  0  0  0  0  0  0  0  0  0  0  0
   12.4291  -19.1409   25.2494 C   0  0  2  0  0  0  0  0  0  0  0  0
   11.6314  -17.9551   25.1888 N   0  0  0  0  0  0  0  0  0  0  0  0
   12.6858  -19.4364   26.7055 C   0  0  0  0  0  0  0  0  0  0  0  0
   12.2764  -18.6141   27.5401 O   0  0  0  0  0  0  0  0  0  0  0  0
   13.3477  -20.5688   27.1237 O   0  0  0  0  0  0  0  0  0  0  0  0
  2  1  1  6
  2  3  1  0
  4  2  1  0
  5  4  1  0
  5  6  1  1
  7  8  2  0
  7  5  1  0
  9  7  1  0
 10  9  1  0
 10 11  1  1
 11 12  1  0
 12 20  1  0
 12 13  2  0
 13 14  1  0
 15 14  1  0
 15 16  2  0
 17 16  1  0
 18 17  2  0
 19 20  2  0
 19 18  1  0
 20 15  1  0
 21 22  2  0
 21 10  1  0
 24 23  1  0
 25 24  1  6
 25 26  1  0
 26 21  1  0
 27 25  1  0
 28 27  2  0
 29 27  1  0
M  END
$$$$
