LWS.pdb
     RDKit          3D

 29 30  0  0  1  0  0  0  0  0999 V2000
    7.9491  -12.9167   17.0581 C   0  0  0  0  0  0  0  0  0  0  0  0
    7.7534  -14.0259   18.1008 C   0  0  2  0  0  0  0  0  0  0  0  0
    6.7301  -13.5228   19.0784 C   0  0  0  0  0  0  0  0  0  0  0  0
    9.0810  -14.3070   18.6990 C   0  0  0  0  0  0  0  0  0  0  0  0
    9.1591  -15.5578   19.5211 C   0  0  2  0  0  0  0  0  0  0  0  0
    7.9618  -16.3363   19.2502 N   0  0  0  0  0  0  0  0  0  0  0  0
    9.3119  -15.3192   20.9758 C   0  0  0  0  0  0  0  0  0  0  0  0
   10.2562  -14.6380   21.4430 O   0  0  0  0  0  0  0  0  0  0  0  0
    8.3855  -15.8570   21.9385 N   0  0  0  0  0  0  0  0  0  0  0  0
    8.5585  -15.6056   23.3470 C   0  0  1  0  0  0  0  0  0  0  0  0
    7.2778  -15.6404   24.0983 C   0  0  0  0  0  0  0  0  0  0  0  0
    7.3312  -15.1601   25.4887 C   0  0  0  0  0  0  0  0  0  0  0  0
    7.5384  -15.9641   26.6280 C   0  0  0  0  0  0  0  0  0  0  0  0
    7.5557  -15.1738   27.7079 N   0  0  0  0  0  0  0  0  0  0  0  0
    7.3723  -13.8885   27.3636 C   0  0  0  0  0  0  0  0  0  0  0  0
    7.3056  -12.7451   28.1265 C   0  0  0  0  0  0  0  0  0  0  0  0
    7.0901  -11.5493   27.4890 C   0  0  0  0  0  0  0  0  0  0  0  0
    6.9466  -11.5089   26.1267 C   0  0  0  0  0  0  0  0  0  0  0  0
    7.0167  -12.6621   25.3820 C   0  0  0  0  0  0  0  0  0  0  0  0
    7.2309  -13.8791   25.9730 C   0  0  0  0  0  0  0  0  0  0  0  0
    9.4603  -16.6688   23.9240 C   0  0  0  0  0  0  0  0  0  0  0  0
    9.1572  -17.8834   23.7754 O   0  0  0  0  0  0  0  0  0  0  0  0
   13.2672  -15.7101   25.2644 O   0  0  0  0  0  0  0  0  0  0  0  0
   13.0045  -17.0383   24.9517 C   0  0  0  0  0  0  0  0  0  0  0  0
   11.5655  -17.3757   25.0964 C   0  0  2  0  0  0  0  0  0  0  0  0
   10.6443  -16.3845   24.6327 N   0  0  0  0  0  0  0  0  0  0  0  0
   11.3129  -17.5702   26.5701 C   0  0  0  0  0  0  0  0  0  0  0  0
   10.3816  -16.9302   27.0833 O   0  0  0  0  0  0  0  0  0  0  0  0
   12.0714  -18.4198   27.3435 O   0  0  0  0  0  0  0  0  0  0  0  0
  2  1  1  6
  2  3  1  0
  4  2  1  0
  5  4  1  0
  5  6  1  1
  7  8  2  0
  7  5  1  0
  9  7  1  0
 10  9  1  0
 10 11  1  1
 11 12  1  0
 12 20  1  0
 12 13  2  0
 13 14  1  0
 15 14  1  0
 15 16  2  0
 17 16  1  0
 18 17  2  0
 19 20  2  0
 19 18  1  0
 20 15  1  0
 21 22  2  0
 21 10  1  0
 24 23  1  0
 25 24  1  1
 25 26  1  0
 26 21  1  0
 27 25  1  0
 28 27  2  0
 29 27  1  0
M  END
$$$$
