LWS.pdb
     RDKit          3D

 29 30  0  0  1  0  0  0  0  0999 V2000
    8.6430  -14.0415   18.1796 C   0  0  0  0  0  0  0  0  0  0  0  0
    7.7316  -13.5858   19.3275 C   0  0  2  0  0  0  0  0  0  0  0  0
    7.2674  -12.1990   18.9849 C   0  0  0  0  0  0  0  0  0  0  0  0
    8.5231  -13.6717   20.5787 C   0  0  0  0  0  0  0  0  0  0  0  0
    8.9815  -15.0492   20.9510 C   0  0  2  0  0  0  0  0  0  0  0  0
    7.8556  -15.9503   20.7696 N   0  0  0  0  0  0  0  0  0  0  0  0
    9.5239  -15.1572   22.3261 C   0  0  0  0  0  0  0  0  0  0  0  0
   10.4134  -14.3827   22.7535 O   0  0  0  0  0  0  0  0  0  0  0  0
    9.0619  -16.1592   23.2517 N   0  0  0  0  0  0  0  0  0  0  0  0
    9.6004  -16.2328   24.5865 C   0  0  1  0  0  0  0  0  0  0  0  0
    8.5585  -16.4920   25.6128 C   0  0  0  0  0  0  0  0  0  0  0  0
    7.5151  -15.4625   25.7484 C   0  0  0  0  0  0  0  0  0  0  0  0
    6.1350  -15.6590   25.5380 C   0  0  0  0  0  0  0  0  0  0  0  0
    5.4996  -14.5075   25.7854 N   0  0  0  0  0  0  0  0  0  0  0  0
    6.3684  -13.5496   26.1485 C   0  0  0  0  0  0  0  0  0  0  0  0
    6.1759  -12.2283   26.4813 C   0  0  0  0  0  0  0  0  0  0  0  0
    7.2746  -11.4712   26.8014 C   0  0  0  0  0  0  0  0  0  0  0  0
    8.5262  -12.0293   26.7860 C   0  0  0  0  0  0  0  0  0  0  0  0
    8.6980  -13.3513   26.4512 C   0  0  0  0  0  0  0  0  0  0  0  0
    7.6319  -14.1472   26.1251 C   0  0  0  0  0  0  0  0  0  0  0  0
   10.5983  -17.3629   24.6472 C   0  0  0  0  0  0  0  0  0  0  0  0
   10.1838  -18.5534   24.6542 O   0  0  0  0  0  0  0  0  0  0  0  0
   14.7602  -16.6576   24.6659 O   0  0  0  0  0  0  0  0  0  0  0  0
   14.2956  -17.8472   24.1183 C   0  0  0  0  0  0  0  0  0  0  0  0
   12.9578  -18.2225   24.6426 C   0  0  2  0  0  0  0  0  0  0  0  0
   11.9927  -17.1680   24.6973 N   0  0  0  0  0  0  0  0  0  0  0  0
   13.1678  -18.7135   26.0527 C   0  0  0  0  0  0  0  0  0  0  0  0
   12.5217  -18.1604   26.9565 O   0  0  0  0  0  0  0  0  0  0  0  0
   14.0381  -19.7360   26.3565 O   0  0  0  0  0  0  0  0  0  0  0  0
  2  1  1  6
  2  3  1  0
  4  2  1  0
  5  4  1  0
  5  6  1  1
  7  8  2  0
  7  5  1  0
  9  7  1  0
 10  9  1  0
 10 11  1  1
 11 12  1  0
 12 20  1  0
 12 13  2  0
 13 14  1  0
 15 14  1  0
 15 16  2  0
 17 16  1  0
 18 17  2  0
 19 20  2  0
 19 18  1  0
 20 15  1  0
 21 22  2  0
 21 10  1  0
 24 23  1  0
 25 24  1  1
 25 26  1  0
 26 21  1  0
 27 25  1  0
 28 27  2  0
 29 27  1  0
M  END
$$$$
