LWS.pdb
     RDKit          3D

 29 30  0  0  1  0  0  0  0  0999 V2000
    7.9730  -12.2556   19.1223 C   0  0  0  0  0  0  0  0  0  0  0  0
    7.9919  -13.7429   19.5014 C   0  0  2  0  0  0  0  0  0  0  0  0
    6.5775  -14.2350   19.3866 C   0  0  0  0  0  0  0  0  0  0  0  0
    8.5627  -13.8421   20.8665 C   0  0  0  0  0  0  0  0  0  0  0  0
    9.0449  -15.2057   21.2595 C   0  0  2  0  0  0  0  0  0  0  0  0
    7.9568  -16.1404   21.0245 N   0  0  0  0  0  0  0  0  0  0  0  0
    9.5245  -15.2998   22.6587 C   0  0  0  0  0  0  0  0  0  0  0  0
   10.3628  -14.4944   23.1305 O   0  0  0  0  0  0  0  0  0  0  0  0
    9.0570  -16.3228   23.5582 N   0  0  0  0  0  0  0  0  0  0  0  0
    9.5815  -16.4220   24.8969 C   0  0  1  0  0  0  0  0  0  0  0  0
    8.5159  -16.5560   25.9228 C   0  0  0  0  0  0  0  0  0  0  0  0
    7.5151  -15.4772   25.9594 C   0  0  0  0  0  0  0  0  0  0  0  0
    6.1713  -15.5892   25.5482 C   0  0  0  0  0  0  0  0  0  0  0  0
    5.5637  -14.4155   25.7585 N   0  0  0  0  0  0  0  0  0  0  0  0
    6.4173  -13.5220   26.2852 C   0  0  0  0  0  0  0  0  0  0  0  0
    6.2436  -12.2066   26.6501 C   0  0  0  0  0  0  0  0  0  0  0  0
    7.3208  -11.5243   27.1570 C   0  0  0  0  0  0  0  0  0  0  0  0
    8.5332  -12.1491   27.2910 C   0  0  0  0  0  0  0  0  0  0  0  0
    8.6866  -13.4640   26.9211 C   0  0  0  0  0  0  0  0  0  0  0  0
    7.6407  -14.1865   26.4110 C   0  0  0  0  0  0  0  0  0  0  0  0
   10.4625  -17.6437   24.9851 C   0  0  0  0  0  0  0  0  0  0  0  0
    9.9582  -18.7839   24.7984 O   0  0  0  0  0  0  0  0  0  0  0  0
   14.3573  -17.7523   24.0514 O   0  0  0  0  0  0  0  0  0  0  0  0
   14.1262  -18.5243   25.1835 C   0  0  0  0  0  0  0  0  0  0  0  0
   12.6778  -18.7391   25.4312 C   0  0  2  0  0  0  0  0  0  0  0  0
   11.8416  -17.5900   25.2686 N   0  0  0  0  0  0  0  0  0  0  0  0
   12.5463  -19.1921   26.8633 C   0  0  0  0  0  0  0  0  0  0  0  0
   11.8484  -18.5021   27.6230 O   0  0  0  0  0  0  0  0  0  0  0  0
   13.1665  -20.3253   27.3393 O   0  0  0  0  0  0  0  0  0  0  0  0
  2  1  1  1
  2  3  1  0
  4  2  1  0
  5  4  1  0
  5  6  1  1
  7  8  2  0
  7  5  1  0
  9  7  1  0
 10  9  1  0
 10 11  1  1
 11 12  1  0
 12 20  1  0
 12 13  2  0
 13 14  1  0
 15 14  1  0
 15 16  2  0
 17 16  1  0
 18 17  2  0
 19 20  2  0
 19 18  1  0
 20 15  1  0
 21 22  2  0
 21 10  1  0
 24 23  1  0
 25 24  1  1
 25 26  1  0
 26 21  1  0
 27 25  1  0
 28 27  2  0
 29 27  1  0
M  END
$$$$
