LWS.pdb
     RDKit          3D

 29 30  0  0  1  0  0  0  0  0999 V2000
    8.1661  -14.1263   18.3991 C   0  0  0  0  0  0  0  0  0  0  0  0
    7.6350  -13.5399   19.7144 C   0  0  2  0  0  0  0  0  0  0  0  0
    7.2753  -12.1088   19.4341 C   0  0  0  0  0  0  0  0  0  0  0  0
    8.6977  -13.7125   20.7342 C   0  0  0  0  0  0  0  0  0  0  0  0
    9.0161  -15.1331   21.0905 C   0  0  2  0  0  0  0  0  0  0  0  0
    7.7765  -15.8895   21.0278 N   0  0  0  0  0  0  0  0  0  0  0  0
    9.6642  -15.2963   22.4134 C   0  0  0  0  0  0  0  0  0  0  0  0
   10.6853  -14.6443   22.7393 O   0  0  0  0  0  0  0  0  0  0  0  0
    9.1598  -16.2144   23.4018 N   0  0  0  0  0  0  0  0  0  0  0  0
    9.7782  -16.3115   24.6999 C   0  0  1  0  0  0  0  0  0  0  0  0
    8.7887  -16.4564   25.7981 C   0  0  0  0  0  0  0  0  0  0  0  0
    7.7268  -15.4383   25.8493 C   0  0  0  0  0  0  0  0  0  0  0  0
    6.3618  -15.6608   25.5759 C   0  0  0  0  0  0  0  0  0  0  0  0
    5.7000  -14.5115   25.7555 N   0  0  0  0  0  0  0  0  0  0  0  0
    6.5370  -13.5308   26.1322 C   0  0  0  0  0  0  0  0  0  0  0  0
    6.3111  -12.2030   26.4140 C   0  0  0  0  0  0  0  0  0  0  0  0
    7.3824  -11.4209   26.7656 C   0  0  0  0  0  0  0  0  0  0  0  0
    8.6401  -11.9613   26.8304 C   0  0  0  0  0  0  0  0  0  0  0  0
    8.8455  -13.2902   26.5455 C   0  0  0  0  0  0  0  0  0  0  0  0
    7.8076  -14.1107   26.1908 C   0  0  0  0  0  0  0  0  0  0  0  0
   10.6734  -17.5259   24.7230 C   0  0  0  0  0  0  0  0  0  0  0  0
   10.1605  -18.6735   24.6265 O   0  0  0  0  0  0  0  0  0  0  0  0
   14.8945  -17.2360   24.5350 O   0  0  0  0  0  0  0  0  0  0  0  0
   14.2393  -18.3807   24.0974 C   0  0  0  0  0  0  0  0  0  0  0  0
   12.9465  -18.5905   24.7975 C   0  0  2  0  0  0  0  0  0  0  0  0
   12.0751  -17.4573   24.8478 N   0  0  0  0  0  0  0  0  0  0  0  0
   13.2804  -18.9646   26.2195 C   0  0  0  0  0  0  0  0  0  0  0  0
   14.0018  -19.9586   26.3984 O   0  0  0  0  0  0  0  0  0  0  0  0
   12.8160  -18.2488   27.2999 O   0  0  0  0  0  0  0  0  0  0  0  0
  2  1  1  6
  2  3  1  0
  4  2  1  0
  5  4  1  0
  5  6  1  1
  7  8  2  0
  7  5  1  0
  9  7  1  0
 10  9  1  0
 10 11  1  1
 11 12  1  0
 12 20  1  0
 12 13  2  0
 13 14  1  0
 15 14  1  0
 15 16  2  0
 17 16  1  0
 18 17  2  0
 19 20  2  0
 19 18  1  0
 20 15  1  0
 21 22  2  0
 21 10  1  0
 24 23  1  0
 25 24  1  6
 25 26  1  0
 26 21  1  0
 27 25  1  0
 28 27  2  0
 29 27  1  0
M  END
$$$$
