LWS.pdb
     RDKit          3D

 29 30  0  0  1  0  0  0  0  0999 V2000
    8.3527  -14.2910   18.2133 C   0  0  0  0  0  0  0  0  0  0  0  0
    7.5265  -13.7705   19.3976 C   0  0  2  0  0  0  0  0  0  0  0  0
    7.0960  -12.3759   19.0429 C   0  0  0  0  0  0  0  0  0  0  0  0
    8.3847  -13.8550   20.6040 C   0  0  0  0  0  0  0  0  0  0  0  0
    8.8162  -15.2387   20.9851 C   0  0  2  0  0  0  0  0  0  0  0  0
    7.6224  -16.0640   21.0657 N   0  0  0  0  0  0  0  0  0  0  0  0
    9.5879  -15.3074   22.2487 C   0  0  0  0  0  0  0  0  0  0  0  0
   10.6737  -14.6972   22.3994 O   0  0  0  0  0  0  0  0  0  0  0  0
    9.1366  -16.0801   23.3771 N   0  0  0  0  0  0  0  0  0  0  0  0
    9.9142  -16.1366   24.5892 C   0  0  1  0  0  0  0  0  0  0  0  0
    9.0730  -16.2749   25.8054 C   0  0  0  0  0  0  0  0  0  0  0  0
    7.9026  -15.3857   25.8859 C   0  0  0  0  0  0  0  0  0  0  0  0
    6.5595  -15.7783   25.7136 C   0  0  0  0  0  0  0  0  0  0  0  0
    5.7780  -14.7063   25.8899 N   0  0  0  0  0  0  0  0  0  0  0  0
    6.5139  -13.6180   26.1695 C   0  0  0  0  0  0  0  0  0  0  0  0
    6.1492  -12.3133   26.4115 C   0  0  0  0  0  0  0  0  0  0  0  0
    7.1394  -11.3960   26.6584 C   0  0  0  0  0  0  0  0  0  0  0  0
    8.4541  -11.7829   26.6611 C   0  0  0  0  0  0  0  0  0  0  0  0
    8.7983  -13.0911   26.4175 C   0  0  0  0  0  0  0  0  0  0  0  0
    7.8456  -14.0428   26.1667 C   0  0  0  0  0  0  0  0  0  0  0  0
   10.8307  -17.3334   24.5241 C   0  0  0  0  0  0  0  0  0  0  0  0
   10.4514  -18.4296   25.0178 O   0  0  0  0  0  0  0  0  0  0  0  0
   13.7082  -17.6398   21.6349 O   0  0  0  0  0  0  0  0  0  0  0  0
   13.2940  -18.7662   22.3354 C   0  0  0  0  0  0  0  0  0  0  0  0
   12.9381  -18.4534   23.7428 C   0  0  2  0  0  0  0  0  0  0  0  0
   12.1099  -17.3030   23.9343 N   0  0  0  0  0  0  0  0  0  0  0  0
   14.2342  -18.2006   24.4708 C   0  0  0  0  0  0  0  0  0  0  0  0
   15.0899  -19.0994   24.4506 O   0  0  0  0  0  0  0  0  0  0  0  0
   14.4871  -17.0256   25.1422 O   0  0  0  0  0  0  0  0  0  0  0  0
  2  1  1  6
  2  3  1  0
  4  2  1  0
  5  4  1  0
  5  6  1  1
  7  8  2  0
  7  5  1  0
  9  7  1  0
 10  9  1  0
 10 11  1  1
 11 12  1  0
 12 20  1  0
 12 13  2  0
 13 14  1  0
 15 14  1  0
 15 16  2  0
 17 16  1  0
 18 17  2  0
 19 20  2  0
 19 18  1  0
 20 15  1  0
 21 22  2  0
 21 10  1  0
 24 23  1  0
 25 24  1  6
 25 26  1  0
 26 21  1  0
 27 25  1  0
 28 27  2  0
 29 27  1  0
M  END
$$$$
