LWS.pdb
     RDKit          3D

 29 30  0  0  1  0  0  0  0  0999 V2000
    6.5358  -13.5233   19.5093 C   0  0  0  0  0  0  0  0  0  0  0  0
    7.7755  -13.1259   20.3225 C   0  0  2  0  0  0  0  0  0  0  0  0
    7.9921  -11.6581   20.0887 C   0  0  0  0  0  0  0  0  0  0  0  0
    8.8944  -13.9869   19.8685 C   0  0  0  0  0  0  0  0  0  0  0  0
    8.8826  -15.3857   20.4063 C   0  0  2  0  0  0  0  0  0  0  0  0
    7.5076  -15.8561   20.3754 N   0  0  0  0  0  0  0  0  0  0  0  0
    9.4516  -15.5170   21.7685 C   0  0  0  0  0  0  0  0  0  0  0  0
   10.6266  -15.1676   22.0356 O   0  0  0  0  0  0  0  0  0  0  0  0
    8.6887  -16.0550   22.8653 N   0  0  0  0  0  0  0  0  0  0  0  0
    9.2805  -16.2036   24.1709 C   0  0  1  0  0  0  0  0  0  0  0  0
    8.2806  -16.1293   25.2666 C   0  0  0  0  0  0  0  0  0  0  0  0
    8.8170  -16.1901   26.6360 C   0  0  0  0  0  0  0  0  0  0  0  0
    8.9282  -17.3540   27.4237 C   0  0  0  0  0  0  0  0  0  0  0  0
    9.4886  -17.0233   28.5931 N   0  0  0  0  0  0  0  0  0  0  0  0
    9.7600  -15.7086   28.6393 C   0  0  0  0  0  0  0  0  0  0  0  0
   10.3172  -14.9309   29.6284 C   0  0  0  0  0  0  0  0  0  0  0  0
   10.4616  -13.5864   29.3953 C   0  0  0  0  0  0  0  0  0  0  0  0
   10.0569  -13.0448   28.2032 C   0  0  0  0  0  0  0  0  0  0  0  0
    9.5028  -13.8384   27.2272 C   0  0  0  0  0  0  0  0  0  0  0  0
    9.3389  -15.1855   27.4132 C   0  0  0  0  0  0  0  0  0  0  0  0
    9.9520  -17.5524   24.2504 C   0  0  0  0  0  0  0  0  0  0  0  0
    9.3060  -18.5844   23.9233 O   0  0  0  0  0  0  0  0  0  0  0  0
   13.8471  -18.0799   23.5921 O   0  0  0  0  0  0  0  0  0  0  0  0
   13.0241  -19.1938   23.7055 C   0  0  0  0  0  0  0  0  0  0  0  0
   11.9513  -18.9996   24.7138 C   0  0  2  0  0  0  0  0  0  0  0  0
   11.2827  -17.7356   24.6754 N   0  0  0  0  0  0  0  0  0  0  0  0
   12.6029  -19.1228   26.0680 C   0  0  0  0  0  0  0  0  0  0  0  0
   12.5050  -18.1585   26.8432 O   0  0  0  0  0  0  0  0  0  0  0  0
   13.2881  -20.2514   26.4578 O   0  0  0  0  0  0  0  0  0  0  0  0
  2  1  1  6
  2  3  1  0
  4  2  1  0
  5  4  1  0
  5  6  1  1
  7  8  2  0
  7  5  1  0
  9  7  1  0
 10  9  1  0
 10 11  1  1
 11 12  1  0
 12 20  1  0
 12 13  2  0
 13 14  1  0
 15 14  1  0
 15 16  2  0
 17 16  1  0
 18 17  2  0
 19 20  2  0
 19 18  1  0
 20 15  1  0
 21 22  2  0
 21 10  1  0
 24 23  1  0
 25 24  1  6
 25 26  1  0
 26 21  1  0
 27 25  1  0
 28 27  2  0
 29 27  1  0
M  END
$$$$
