LWS.pdb
     RDKit          3D

 29 30  0  0  1  0  0  0  0  0999 V2000
    8.4492  -14.1354   18.2766 C   0  0  0  0  0  0  0  0  0  0  0  0
    7.4889  -13.6733   19.3813 C   0  0  2  0  0  0  0  0  0  0  0  0
    7.0819  -12.2687   19.0387 C   0  0  0  0  0  0  0  0  0  0  0  0
    8.2080  -13.8016   20.6719 C   0  0  0  0  0  0  0  0  0  0  0  0
    8.6478  -15.1908   21.0225 C   0  0  2  0  0  0  0  0  0  0  0  0
    7.4715  -16.0442   20.9922 N   0  0  0  0  0  0  0  0  0  0  0  0
    9.3396  -15.2968   22.3289 C   0  0  0  0  0  0  0  0  0  0  0  0
   10.3030  -14.5535   22.6342 O   0  0  0  0  0  0  0  0  0  0  0  0
    8.9466  -16.2609   23.3241 N   0  0  0  0  0  0  0  0  0  0  0  0
    9.6200  -16.3215   24.5969 C   0  0  1  0  0  0  0  0  0  0  0  0
    8.6805  -16.4737   25.7371 C   0  0  0  0  0  0  0  0  0  0  0  0
    7.5815  -15.4967   25.8035 C   0  0  0  0  0  0  0  0  0  0  0  0
    6.2398  -15.7444   25.4485 C   0  0  0  0  0  0  0  0  0  0  0  0
    5.5295  -14.6323   25.6714 N   0  0  0  0  0  0  0  0  0  0  0  0
    6.3120  -13.6529   26.1537 C   0  0  0  0  0  0  0  0  0  0  0  0
    6.0254  -12.3555   26.5120 C   0  0  0  0  0  0  0  0  0  0  0  0
    7.0502  -11.5648   26.9676 C   0  0  0  0  0  0  0  0  0  0  0  0
    8.3220  -12.0671   27.0585 C   0  0  0  0  0  0  0  0  0  0  0  0
    8.5882  -13.3660   26.6960 C   0  0  0  0  0  0  0  0  0  0  0  0
    7.5984  -14.1937   26.2363 C   0  0  0  0  0  0  0  0  0  0  0  0
   10.5466  -17.5123   24.6010 C   0  0  0  0  0  0  0  0  0  0  0  0
   10.1124  -18.6344   24.2247 O   0  0  0  0  0  0  0  0  0  0  0  0
   14.4635  -17.4079   23.8371 O   0  0  0  0  0  0  0  0  0  0  0  0
   14.2210  -18.2696   24.8999 C   0  0  0  0  0  0  0  0  0  0  0  0
   12.7761  -18.5735   25.0586 C   0  0  2  0  0  0  0  0  0  0  0  0
   11.8943  -17.4484   25.0068 N   0  0  0  0  0  0  0  0  0  0  0  0
   12.6144  -19.2096   26.4161 C   0  0  0  0  0  0  0  0  0  0  0  0
   11.8186  -18.6805   27.2080 O   0  0  0  0  0  0  0  0  0  0  0  0
   13.3108  -20.3363   26.7913 O   0  0  0  0  0  0  0  0  0  0  0  0
  2  1  1  6
  2  3  1  0
  4  2  1  0
  5  4  1  0
  5  6  1  1
  7  8  2  0
  7  5  1  0
  9  7  1  0
 10  9  1  0
 10 11  1  1
 11 12  1  0
 12 20  1  0
 12 13  2  0
 13 14  1  0
 15 14  1  0
 15 16  2  0
 17 16  1  0
 18 17  2  0
 19 20  2  0
 19 18  1  0
 20 15  1  0
 21 22  2  0
 21 10  1  0
 24 23  1  0
 25 24  1  1
 25 26  1  0
 26 21  1  0
 27 25  1  0
 28 27  2  0
 29 27  1  0
M  END
$$$$
