LWS.pdb
     RDKit          3D

 29 30  0  0  1  0  0  0  0  0999 V2000
    8.3872  -14.0362   18.2734 C   0  0  0  0  0  0  0  0  0  0  0  0
    7.5698  -13.5567   19.4809 C   0  0  2  0  0  0  0  0  0  0  0  0
    7.1707  -12.1372   19.1949 C   0  0  0  0  0  0  0  0  0  0  0  0
    8.4231  -13.7194   20.6828 C   0  0  0  0  0  0  0  0  0  0  0  0
    8.8342  -15.1279   20.9882 C   0  0  2  0  0  0  0  0  0  0  0  0
    7.6381  -15.9528   20.9469 N   0  0  0  0  0  0  0  0  0  0  0  0
    9.5373  -15.2876   22.2831 C   0  0  0  0  0  0  0  0  0  0  0  0
   10.5444  -14.6021   22.5826 O   0  0  0  0  0  0  0  0  0  0  0  0
    9.1058  -16.2406   23.2730 N   0  0  0  0  0  0  0  0  0  0  0  0
    9.7473  -16.3050   24.5619 C   0  0  1  0  0  0  0  0  0  0  0  0
    8.7796  -16.4595   25.6780 C   0  0  0  0  0  0  0  0  0  0  0  0
    7.6852  -15.4762   25.7248 C   0  0  0  0  0  0  0  0  0  0  0  0
    6.3230  -15.7515   25.4879 C   0  0  0  0  0  0  0  0  0  0  0  0
    5.6267  -14.6203   25.6505 N   0  0  0  0  0  0  0  0  0  0  0  0
    6.4378  -13.6021   25.9817 C   0  0  0  0  0  0  0  0  0  0  0  0
    6.1730  -12.2751   26.2321 C   0  0  0  0  0  0  0  0  0  0  0  0
    7.2245  -11.4483   26.5383 C   0  0  0  0  0  0  0  0  0  0  0  0
    8.5009  -11.9446   26.5901 C   0  0  0  0  0  0  0  0  0  0  0  0
    8.7450  -13.2734   26.3371 C   0  0  0  0  0  0  0  0  0  0  0  0
    7.7282  -14.1376   26.0280 C   0  0  0  0  0  0  0  0  0  0  0  0
   10.6727  -17.4964   24.5861 C   0  0  0  0  0  0  0  0  0  0  0  0
   10.1999  -18.6414   24.8201 O   0  0  0  0  0  0  0  0  0  0  0  0
   14.7315  -17.1889   23.4692 O   0  0  0  0  0  0  0  0  0  0  0  0
   14.0796  -18.4101   23.3489 C   0  0  0  0  0  0  0  0  0  0  0  0
   12.9405  -18.5346   24.2935 C   0  0  2  0  0  0  0  0  0  0  0  0
   12.0604  -17.4089   24.3587 N   0  0  0  0  0  0  0  0  0  0  0  0
   13.5354  -18.7206   25.6665 C   0  0  0  0  0  0  0  0  0  0  0  0
   14.3281  -19.6620   25.8270 O   0  0  0  0  0  0  0  0  0  0  0  0
   13.2289  -17.8923   26.7225 O   0  0  0  0  0  0  0  0  0  0  0  0
  2  1  1  6
  2  3  1  0
  4  2  1  0
  5  4  1  0
  5  6  1  1
  7  8  2  0
  7  5  1  0
  9  7  1  0
 10  9  1  0
 10 11  1  1
 11 12  1  0
 12 20  1  0
 12 13  2  0
 13 14  1  0
 15 14  1  0
 15 16  2  0
 17 16  1  0
 18 17  2  0
 19 20  2  0
 19 18  1  0
 20 15  1  0
 21 22  2  0
 21 10  1  0
 24 23  1  0
 25 24  1  6
 25 26  1  0
 26 21  1  0
 27 25  1  0
 28 27  2  0
 29 27  1  0
M  END
$$$$
