LWS.pdb
     RDKit          3D

 29 30  0  0  1  0  0  0  0  0999 V2000
    8.1943  -14.1478   18.1883 C   0  0  0  0  0  0  0  0  0  0  0  0
    7.3856  -13.6649   19.4003 C   0  0  2  0  0  0  0  0  0  0  0  0
    6.9437  -12.2628   19.0927 C   0  0  0  0  0  0  0  0  0  0  0  0
    8.2640  -13.7798   20.5897 C   0  0  0  0  0  0  0  0  0  0  0  0
    8.6884  -15.1744   20.9378 C   0  0  2  0  0  0  0  0  0  0  0  0
    7.4920  -15.9987   20.9832 N   0  0  0  0  0  0  0  0  0  0  0  0
    9.4462  -15.2791   22.2072 C   0  0  0  0  0  0  0  0  0  0  0  0
   10.5186  -14.6558   22.3955 O   0  0  0  0  0  0  0  0  0  0  0  0
    8.9960  -16.1040   23.2986 N   0  0  0  0  0  0  0  0  0  0  0  0
    9.7360  -16.1589   24.5340 C   0  0  1  0  0  0  0  0  0  0  0  0
    8.8627  -16.3611   25.7182 C   0  0  0  0  0  0  0  0  0  0  0  0
    7.6977  -15.4673   25.8219 C   0  0  0  0  0  0  0  0  0  0  0  0
    6.3593  -15.8293   25.5666 C   0  0  0  0  0  0  0  0  0  0  0  0
    5.5806  -14.7653   25.7955 N   0  0  0  0  0  0  0  0  0  0  0  0
    6.3141  -13.7108   26.1883 C   0  0  0  0  0  0  0  0  0  0  0  0
    5.9513  -12.4247   26.5172 C   0  0  0  0  0  0  0  0  0  0  0  0
    6.9386  -11.5412   26.8741 C   0  0  0  0  0  0  0  0  0  0  0  0
    8.2488  -11.9426   26.8982 C   0  0  0  0  0  0  0  0  0  0  0  0
    8.5911  -13.2318   26.5666 C   0  0  0  0  0  0  0  0  0  0  0  0
    7.6411  -14.1498   26.2047 C   0  0  0  0  0  0  0  0  0  0  0  0
   10.7028  -17.3156   24.4713 C   0  0  0  0  0  0  0  0  0  0  0  0
   10.2815  -18.4554   24.1355 O   0  0  0  0  0  0  0  0  0  0  0  0
   14.8500  -16.7517   24.5943 O   0  0  0  0  0  0  0  0  0  0  0  0
   14.3300  -17.9334   24.0803 C   0  0  0  0  0  0  0  0  0  0  0  0
   13.0142  -18.2752   24.6780 C   0  0  2  0  0  0  0  0  0  0  0  0
   12.0747  -17.2005   24.7703 N   0  0  0  0  0  0  0  0  0  0  0  0
   13.2879  -18.7552   26.0809 C   0  0  0  0  0  0  0  0  0  0  0  0
   12.7110  -18.1707   27.0115 O   0  0  0  0  0  0  0  0  0  0  0  0
   14.1417  -19.8010   26.3502 O   0  0  0  0  0  0  0  0  0  0  0  0
  2  1  1  6
  2  3  1  0
  4  2  1  0
  5  4  1  0
  5  6  1  1
  7  8  2  0
  7  5  1  0
  9  7  1  0
 10  9  1  0
 10 11  1  1
 11 12  1  0
 12 20  1  0
 12 13  2  0
 13 14  1  0
 15 14  1  0
 15 16  2  0
 17 16  1  0
 18 17  2  0
 19 20  2  0
 19 18  1  0
 20 15  1  0
 21 22  2  0
 21 10  1  0
 24 23  1  0
 25 24  1  1
 25 26  1  0
 26 21  1  0
 27 25  1  0
 28 27  2  0
 29 27  1  0
M  END
$$$$
