PDQ.pdb
     RDKit          3D

 25 25  0  0  1  0  0  0  0  0999 V2000
   26.7023  -19.2627  -15.2341 N   0  0  0  0  0  0  0  0  0  0  0  0
   28.0843  -19.0216  -14.8839 C   0  0  0  0  0  0  0  0  0  0  0  0
   28.4668  -20.2682  -14.0731 C   0  0  0  0  0  0  0  0  0  0  0  0
   27.8299  -21.3443  -14.9226 C   0  0  0  0  0  0  0  0  0  0  0  0
   26.5122  -20.6735  -15.3086 C   0  0  1  0  0  0  0  0  0  0  0  0
   25.4995  -21.1946  -14.3364 C   0  0  0  0  0  0  0  0  0  0  0  0
   24.9937  -22.3292  -14.5186 O   0  0  0  0  0  0  0  0  0  0  0  0
   25.1456  -20.3882  -13.2420 N   0  0  0  0  0  0  0  0  0  0  0  0
   24.1019  -20.7803  -12.2910 C   0  0  1  0  0  0  0  0  0  0  0  0
   24.5216  -20.4197  -10.9098 C   0  0  0  0  0  0  0  0  0  0  0  0
   25.5042  -21.3151  -10.2773 C   0  0  0  0  0  0  0  0  0  0  0  0
   25.7145  -22.4709  -10.7695 O   0  0  0  0  0  0  0  0  0  0  0  0
   22.8385  -20.1924  -12.7534 C   0  0  0  0  0  0  0  0  0  0  0  0
   22.7729  -18.9344  -12.9166 O   0  0  0  0  0  0  0  0  0  0  0  0
   26.2400  -20.9813   -9.1518 O   0  0  0  0  0  0  0  0  0  0  0  0
   20.1625  -20.7699  -17.7497 N   0  0  0  0  0  0  0  0  0  0  0  0
   19.1214  -20.0755  -17.0943 C   0  0  0  0  0  0  0  0  0  0  0  0
   18.1494  -19.6727  -17.7811 O   0  0  0  0  0  0  0  0  0  0  0  0
   19.1682  -19.8212  -15.6129 C   0  0  0  0  0  0  0  0  0  0  0  0
   20.4107  -20.4271  -15.0126 C   0  0  0  0  0  0  0  0  0  0  0  0
   20.4471  -20.2930  -13.5100 C   0  0  2  0  0  0  0  0  0  0  0  0
   21.6787  -20.9415  -13.0340 N   0  0  0  0  0  0  0  0  0  0  0  0
   19.2423  -20.8580  -12.8686 C   0  0  0  0  0  0  0  0  0  0  0  0
   19.1538  -22.0767  -12.5873 O   0  0  0  0  0  0  0  0  0  0  0  0
   18.1672  -20.0393  -12.5597 O   0  0  0  0  0  0  0  0  0  0  0  0
  1  5  1  0
  2  1  1  0
  3  4  1  0
  3  2  1  0
  4  5  1  0
  6  7  2  0
  5  6  1  1
  8  6  1  0
  9  8  1  0
  9 13  1  0
  9 10  1  1
 11 10  1  0
 11 15  1  0
 12 11  2  0
 13 14  2  0
 13 22  1  0
 16 17  1  0
 17 19  1  0
 18 17  2  0
 19 20  1  0
 21 20  1  6
 21 23  1  0
 22 21  1  0
 23 24  2  0
 23 25  1  0
M  END
$$$$
