PDQ.pdb
     RDKit          3D

 25 25  0  0  1  0  0  0  0  0999 V2000
   26.8836  -21.2419  -15.3351 N   0  0  0  0  0  0  0  0  0  0  0  0
   27.9540  -20.4485  -15.8968 C   0  0  0  0  0  0  0  0  0  0  0  0
   27.8181  -19.1040  -15.1678 C   0  0  0  0  0  0  0  0  0  0  0  0
   27.5756  -19.5892  -13.7567 C   0  0  0  0  0  0  0  0  0  0  0  0
   26.6462  -20.7759  -14.0091 C   0  0  1  0  0  0  0  0  0  0  0  0
   25.2605  -20.2494  -13.7971 C   0  0  0  0  0  0  0  0  0  0  0  0
   24.9628  -19.7151  -12.7006 O   0  0  0  0  0  0  0  0  0  0  0  0
   24.3306  -20.3725  -14.8427 N   0  0  0  0  0  0  0  0  0  0  0  0
   22.9645  -19.8531  -14.7352 C   0  0  1  0  0  0  0  0  0  0  0  0
   22.6792  -18.9523  -15.8845 C   0  0  0  0  0  0  0  0  0  0  0  0
   21.3324  -18.3590  -15.9232 C   0  0  0  0  0  0  0  0  0  0  0  0
   20.8184  -17.8885  -14.8570 O   0  0  0  0  0  0  0  0  0  0  0  0
   22.0649  -21.0029  -14.5805 C   0  0  0  0  0  0  0  0  0  0  0  0
   22.2811  -22.0461  -15.2722 O   0  0  0  0  0  0  0  0  0  0  0  0
   20.5603  -18.2717  -17.0702 O   0  0  0  0  0  0  0  0  0  0  0  0
   19.3159  -24.5507   -9.1308 N   0  0  0  0  0  0  0  0  0  0  0  0
   19.2156  -23.4548  -10.0165 C   0  0  0  0  0  0  0  0  0  0  0  0
   18.6910  -22.3940   -9.5945 O   0  0  0  0  0  0  0  0  0  0  0  0
   19.7217  -23.5478  -11.4294 C   0  0  0  0  0  0  0  0  0  0  0  0
   19.5907  -22.2174  -12.1253 C   0  0  0  0  0  0  0  0  0  0  0  0
   20.1546  -22.2430  -13.5248 C   0  0  2  0  0  0  0  0  0  0  0  0
   20.9636  -21.0272  -13.7020 N   0  0  0  0  0  0  0  0  0  0  0  0
   19.0985  -22.3578  -14.5513 C   0  0  0  0  0  0  0  0  0  0  0  0
   18.5356  -23.4502  -14.8004 O   0  0  0  0  0  0  0  0  0  0  0  0
   18.7018  -21.2423  -15.2722 O   0  0  0  0  0  0  0  0  0  0  0  0
  1  5  1  0
  2  1  1  0
  3  4  1  0
  3  2  1  0
  4  5  1  0
  6  7  2  0
  5  6  1  6
  8  6  1  0
  9  8  1  0
  9 13  1  0
  9 10  1  6
 11 10  1  0
 11 15  1  0
 12 11  2  0
 13 14  2  0
 13 22  1  0
 16 17  1  0
 17 19  1  0
 18 17  2  0
 19 20  1  0
 21 20  1  1
 21 23  1  0
 22 21  1  0
 23 24  2  0
 23 25  1  0
M  END
$$$$
