PDQ.pdb
     RDKit          3D

 25 25  0  0  1  0  0  0  0  0999 V2000
   26.1415  -13.4647  -16.0161 N   0  0  0  0  0  0  0  0  0  0  0  0
   26.5032  -14.5783  -15.1675 C   0  0  0  0  0  0  0  0  0  0  0  0
   25.3595  -15.5784  -15.3893 C   0  0  0  0  0  0  0  0  0  0  0  0
   25.2075  -15.4809  -16.8902 C   0  0  0  0  0  0  0  0  0  0  0  0
   25.3807  -13.9780  -17.1067 C   0  0  1  0  0  0  0  0  0  0  0  0
   23.9918  -13.4234  -17.1831 C   0  0  0  0  0  0  0  0  0  0  0  0
   23.2476  -13.7485  -18.1407 O   0  0  0  0  0  0  0  0  0  0  0  0
   23.5638  -12.5489  -16.1705 N   0  0  0  0  0  0  0  0  0  0  0  0
   22.2368  -11.9273  -16.1879 C   0  0  1  0  0  0  0  0  0  0  0  0
   21.3670  -12.5749  -15.1692 C   0  0  0  0  0  0  0  0  0  0  0  0
   20.7659  -13.8622  -15.5551 C   0  0  0  0  0  0  0  0  0  0  0  0
   20.1213  -13.9555  -16.6498 O   0  0  0  0  0  0  0  0  0  0  0  0
   22.4251  -10.4782  -16.0453 C   0  0  0  0  0  0  0  0  0  0  0  0
   23.2761  -10.0519  -15.2043 O   0  0  0  0  0  0  0  0  0  0  0  0
   20.8539  -15.0147  -14.7915 O   0  0  0  0  0  0  0  0  0  0  0  0
   20.2594   -5.9151  -19.8756 N   0  0  0  0  0  0  0  0  0  0  0  0
   20.8549   -5.1704  -18.8333 C   0  0  0  0  0  0  0  0  0  0  0  0
   20.8938   -3.9192  -18.9421 O   0  0  0  0  0  0  0  0  0  0  0  0
   21.4296   -5.8505  -17.6215 C   0  0  0  0  0  0  0  0  0  0  0  0
   21.3094   -7.3473  -17.7500 C   0  0  0  0  0  0  0  0  0  0  0  0
   21.9387   -8.0761  -16.5880 C   0  0  2  0  0  0  0  0  0  0  0  0
   21.7162   -9.5159  -16.7914 N   0  0  0  0  0  0  0  0  0  0  0  0
   21.4127   -7.6145  -15.2872 C   0  0  0  0  0  0  0  0  0  0  0  0
   20.4586   -8.1950  -14.7170 O   0  0  0  0  0  0  0  0  0  0  0  0
   21.9717   -6.5122  -14.6598 O   0  0  0  0  0  0  0  0  0  0  0  0
  1  5  1  0
  2  1  1  0
  3  4  1  0
  3  2  1  0
  4  5  1  0
  6  7  2  0
  5  6  1  1
  8  6  1  0
  9  8  1  0
  9 13  1  0
  9 10  1  1
 11 10  1  0
 11 15  1  0
 12 11  2  0
 13 14  2  0
 13 22  1  0
 16 17  1  0
 17 19  1  0
 18 17  2  0
 19 20  1  0
 21 20  1  6
 21 23  1  0
 22 21  1  0
 23 24  2  0
 23 25  1  0
M  END
$$$$
