PDQ.pdb
     RDKit          3D

 25 25  0  0  1  0  0  0  0  0999 V2000
   27.6353  -21.2475  -15.5089 N   0  0  0  0  0  0  0  0  0  0  0  0
   28.5749  -21.2900  -16.6072 C   0  0  0  0  0  0  0  0  0  0  0  0
   28.2127  -20.0461  -17.4313 C   0  0  0  0  0  0  0  0  0  0  0  0
   28.0258  -19.0365  -16.3217 C   0  0  0  0  0  0  0  0  0  0  0  0
   27.3028  -19.8815  -15.2735 C   0  0  1  0  0  0  0  0  0  0  0  0
   25.8472  -19.5788  -15.4519 C   0  0  0  0  0  0  0  0  0  0  0  0
   25.4375  -18.4013  -15.3037 O   0  0  0  0  0  0  0  0  0  0  0  0
   24.9799  -20.6334  -15.7821 N   0  0  0  0  0  0  0  0  0  0  0  0
   23.5610  -20.4124  -16.0743 C   0  0  1  0  0  0  0  0  0  0  0  0
   23.2294  -20.9833  -17.4076 C   0  0  0  0  0  0  0  0  0  0  0  0
   23.6649  -20.1984  -18.5745 C   0  0  0  0  0  0  0  0  0  0  0  0
   24.0046  -18.9798  -18.4251 O   0  0  0  0  0  0  0  0  0  0  0  0
   22.7890  -20.9358  -14.9405 C   0  0  0  0  0  0  0  0  0  0  0  0
   23.2050  -21.9788  -14.3468 O   0  0  0  0  0  0  0  0  0  0  0  0
   23.7352  -20.7043  -19.8623 O   0  0  0  0  0  0  0  0  0  0  0  0
   17.3037  -18.7080  -12.6853 N   0  0  0  0  0  0  0  0  0  0  0  0
   17.6374  -19.6839  -11.7200 C   0  0  0  0  0  0  0  0  0  0  0  0
   16.8427  -19.8736  -10.7653 O   0  0  0  0  0  0  0  0  0  0  0  0
   18.9090  -20.4794  -11.8255 C   0  0  0  0  0  0  0  0  0  0  0  0
   19.7570  -19.9703  -12.9626 C   0  0  0  0  0  0  0  0  0  0  0  0
   20.8815  -20.9152  -13.3088 C   0  0  2  0  0  0  0  0  0  0  0  0
   21.6021  -20.3485  -14.4592 N   0  0  0  0  0  0  0  0  0  0  0  0
   20.3979  -22.2844  -13.5803 C   0  0  0  0  0  0  0  0  0  0  0  0
   20.5354  -23.2108  -12.7466 O   0  0  0  0  0  0  0  0  0  0  0  0
   19.7722  -22.5781  -14.7818 O   0  0  0  0  0  0  0  0  0  0  0  0
  1  5  1  0
  2  1  1  0
  3  4  1  0
  3  2  1  0
  4  5  1  0
  6  7  2  0
  5  6  1  6
  8  6  1  0
  9  8  1  0
  9 13  1  0
  9 10  1  6
 11 10  1  0
 11 15  1  0
 12 11  2  0
 13 14  2  0
 13 22  1  0
 16 17  1  0
 17 19  1  0
 18 17  2  0
 19 20  1  0
 21 20  1  6
 21 23  1  0
 22 21  1  0
 23 24  2  0
 23 25  1  0
M  END
$$$$
