PDQ.pdb
     RDKit          3D

 25 25  0  0  1  0  0  0  0  0999 V2000
   24.7580  -32.0822    3.9799 N   0  0  0  0  0  0  0  0  0  0  0  0
   24.7353  -30.7074    3.5324 C   0  0  0  0  0  0  0  0  0  0  0  0
   25.6208  -29.9863    4.5587 C   0  0  0  0  0  0  0  0  0  0  0  0
   26.7579  -30.9760    4.6716 C   0  0  0  0  0  0  0  0  0  0  0  0
   25.9979  -32.3017    4.6481 C   0  0  1  0  0  0  0  0  0  0  0  0
   25.8437  -32.6986    6.0837 C   0  0  0  0  0  0  0  0  0  0  0  0
   24.8547  -33.3893    6.4318 O   0  0  0  0  0  0  0  0  0  0  0  0
   26.8207  -32.2803    7.0023 N   0  0  0  0  0  0  0  0  0  0  0  0
   27.2679  -33.1340    8.1063 C   0  0  1  0  0  0  0  0  0  0  0  0
   27.7987  -34.4146    7.5660 C   0  0  0  0  0  0  0  0  0  0  0  0
   27.1185  -35.6394    8.0181 C   0  0  0  0  0  0  0  0  0  0  0  0
   27.8056  -36.6673    8.3243 O   0  0  0  0  0  0  0  0  0  0  0  0
   28.1980  -32.3469    8.9255 C   0  0  0  0  0  0  0  0  0  0  0  0
   29.3952  -32.2048    8.5258 O   0  0  0  0  0  0  0  0  0  0  0  0
   25.7435  -35.7587    8.1393 O   0  0  0  0  0  0  0  0  0  0  0  0
   29.7987  -34.9680   11.2762 N   0  0  0  0  0  0  0  0  0  0  0  0
   29.0361  -34.3187   12.2724 C   0  0  0  0  0  0  0  0  0  0  0  0
   28.1265  -34.9696   12.8450 O   0  0  0  0  0  0  0  0  0  0  0  0
   29.3003  -32.8857   12.6436 C   0  0  0  0  0  0  0  0  0  0  0  0
   29.8221  -32.1204   11.4548 C   0  0  0  0  0  0  0  0  0  0  0  0
   28.8538  -31.0642   10.9812 C   0  0  2  0  0  0  0  0  0  0  0  0
   27.8451  -31.7283   10.1413 N   0  0  0  0  0  0  0  0  0  0  0  0
   29.5318  -29.9647   10.2647 C   0  0  0  0  0  0  0  0  0  0  0  0
   29.2589  -29.6857    9.0730 O   0  0  0  0  0  0  0  0  0  0  0  0
   30.4995  -29.2065   10.9050 O   0  0  0  0  0  0  0  0  0  0  0  0
  1  5  1  0
  2  1  1  0
  3  4  1  0
  3  2  1  0
  4  5  1  0
  6  7  2  0
  5  6  1  1
  8  6  1  0
  9  8  1  0
  9 13  1  0
  9 10  1  6
 11 10  1  0
 11 15  1  0
 12 11  2  0
 13 14  2  0
 13 22  1  0
 16 17  1  0
 17 19  1  0
 18 17  2  0
 19 20  1  0
 21 20  1  6
 21 23  1  0
 22 21  1  0
 23 24  2  0
 23 25  1  0
M  END
$$$$
