PDQ.pdb
     RDKit          3D

 25 25  0  0  1  0  0  0  0  0999 V2000
   26.5302  -20.1160  -13.6992 N   0  0  0  0  0  0  0  0  0  0  0  0
   27.0715  -21.4339  -13.4522 C   0  0  0  0  0  0  0  0  0  0  0  0
   26.6620  -22.2250  -14.7028 C   0  0  0  0  0  0  0  0  0  0  0  0
   26.9745  -21.2072  -15.7760 C   0  0  0  0  0  0  0  0  0  0  0  0
   26.4909  -19.9194  -15.1104 C   0  0  1  0  0  0  0  0  0  0  0  0
   25.1118  -19.6873  -15.6457 C   0  0  0  0  0  0  0  0  0  0  0  0
   24.9374  -19.5921  -16.8855 O   0  0  0  0  0  0  0  0  0  0  0  0
   24.0487  -19.5824  -14.7335 N   0  0  0  0  0  0  0  0  0  0  0  0
   22.6564  -19.4526  -15.1719 C   0  0  1  0  0  0  0  0  0  0  0  0
   21.7439  -19.7286  -14.0296 C   0  0  0  0  0  0  0  0  0  0  0  0
   21.4977  -21.1480  -13.7260 C   0  0  0  0  0  0  0  0  0  0  0  0
   20.8191  -21.4652  -12.6958 O   0  0  0  0  0  0  0  0  0  0  0  0
   22.5131  -18.1362  -15.8060 C   0  0  0  0  0  0  0  0  0  0  0  0
   22.6658  -17.0949  -15.0948 O   0  0  0  0  0  0  0  0  0  0  0  0
   21.9640  -22.1956  -14.5035 O   0  0  0  0  0  0  0  0  0  0  0  0
   25.4246  -16.1468  -20.4883 N   0  0  0  0  0  0  0  0  0  0  0  0
   24.5669  -15.0404  -20.2992 C   0  0  0  0  0  0  0  0  0  0  0  0
   24.7938  -13.9921  -20.9536 O   0  0  0  0  0  0  0  0  0  0  0  0
   23.4098  -15.1080  -19.3412 C   0  0  0  0  0  0  0  0  0  0  0  0
   23.3704  -16.4494  -18.6553 C   0  0  0  0  0  0  0  0  0  0  0  0
   22.1633  -16.6033  -17.7628 C   0  0  2  0  0  0  0  0  0  0  0  0
   22.2154  -17.9487  -17.1703 N   0  0  0  0  0  0  0  0  0  0  0  0
   20.8980  -16.3678  -18.4878 C   0  0  0  0  0  0  0  0  0  0  0  0
   20.2724  -17.3010  -19.0445 O   0  0  0  0  0  0  0  0  0  0  0  0
   20.3677  -15.0897  -18.5691 O   0  0  0  0  0  0  0  0  0  0  0  0
  1  5  1  0
  2  1  1  0
  3  4  1  0
  3  2  1  0
  4  5  1  0
  6  7  2  0
  5  6  1  6
  8  6  1  0
  9  8  1  0
  9 13  1  0
  9 10  1  1
 11 10  1  0
 11 15  1  0
 12 11  2  0
 13 14  2  0
 13 22  1  0
 16 17  1  0
 17 19  1  0
 18 17  2  0
 19 20  1  0
 21 20  1  6
 21 23  1  0
 22 21  1  0
 23 24  2  0
 23 25  1  0
M  END
$$$$
