PDQ.pdb
     RDKit          3D

 25 25  0  0  1  0  0  0  0  0999 V2000
   25.0725  -13.0222  -15.7205 N   0  0  0  0  0  0  0  0  0  0  0  0
   24.9329  -14.4612  -15.6948 C   0  0  0  0  0  0  0  0  0  0  0  0
   23.8948  -14.7359  -16.7923 C   0  0  0  0  0  0  0  0  0  0  0  0
   24.3967  -13.8051  -17.8727 C   0  0  0  0  0  0  0  0  0  0  0  0
   24.7924  -12.5816  -17.0469 C   0  0  1  0  0  0  0  0  0  0  0  0
   23.6259  -11.6467  -17.1348 C   0  0  0  0  0  0  0  0  0  0  0  0
   23.2862  -11.1848  -18.2518 O   0  0  0  0  0  0  0  0  0  0  0  0
   22.9441  -11.3144  -15.9525 N   0  0  0  0  0  0  0  0  0  0  0  0
   21.7562  -10.4562  -15.9536 C   0  0  1  0  0  0  0  0  0  0  0  0
   20.6253  -11.1654  -15.2966 C   0  0  0  0  0  0  0  0  0  0  0  0
   19.8640  -12.0963  -16.1458 C   0  0  0  0  0  0  0  0  0  0  0  0
   19.6274  -11.7940  -17.3604 O   0  0  0  0  0  0  0  0  0  0  0  0
   22.1398   -9.1691  -15.3604 C   0  0  0  0  0  0  0  0  0  0  0  0
   22.7546   -9.1669  -14.2489 O   0  0  0  0  0  0  0  0  0  0  0  0
   19.3721  -13.3148  -15.7070 O   0  0  0  0  0  0  0  0  0  0  0  0
   23.5200   -3.8684  -18.2827 N   0  0  0  0  0  0  0  0  0  0  0  0
   23.4463   -3.4161  -16.9464 C   0  0  0  0  0  0  0  0  0  0  0  0
   23.7070   -2.2098  -16.7106 O   0  0  0  0  0  0  0  0  0  0  0  0
   23.0661   -4.3484  -15.8296 C   0  0  0  0  0  0  0  0  0  0  0  0
   22.7396   -5.7160  -16.3721 C   0  0  0  0  0  0  0  0  0  0  0  0
   22.2658   -6.6628  -15.2967 C   0  0  2  0  0  0  0  0  0  0  0  0
   21.8693   -7.9190  -15.9514 N   0  0  0  0  0  0  0  0  0  0  0  0
   21.1682   -6.0898  -14.4910 C   0  0  0  0  0  0  0  0  0  0  0  0
   19.9667   -6.2174  -14.8261 O   0  0  0  0  0  0  0  0  0  0  0  0
   21.4484   -5.3878  -13.3291 O   0  0  0  0  0  0  0  0  0  0  0  0
  1  5  1  0
  2  1  1  0
  3  4  1  0
  3  2  1  0
  4  5  1  0
  6  7  2  0
  5  6  1  1
  8  6  1  0
  9  8  1  0
  9 13  1  0
  9 10  1  1
 11 10  1  0
 11 15  1  0
 12 11  2  0
 13 14  2  0
 13 22  1  0
 16 17  1  0
 17 19  1  0
 18 17  2  0
 19 20  1  0
 21 20  1  6
 21 23  1  0
 22 21  1  0
 23 24  2  0
 23 25  1  0
M  END
$$$$
