PDQ.pdb
     RDKit          3D

 25 25  0  0  1  0  0  0  0  0999 V2000
   27.8678  -17.6242  -17.8648 N   0  0  0  0  0  0  0  0  0  0  0  0
   29.0832  -17.7407  -18.6395 C   0  0  0  0  0  0  0  0  0  0  0  0
   28.8680  -19.0306  -19.4440 C   0  0  0  0  0  0  0  0  0  0  0  0
   27.4307  -18.8409  -19.8723 C   0  0  0  0  0  0  0  0  0  0  0  0
   26.8204  -18.2498  -18.6020 C   0  0  1  0  0  0  0  0  0  0  0  0
   26.1906  -19.4051  -17.8872 C   0  0  0  0  0  0  0  0  0  0  0  0
   25.1823  -19.9646  -18.3838 O   0  0  0  0  0  0  0  0  0  0  0  0
   26.7548  -19.8284  -16.6723 N   0  0  0  0  0  0  0  0  0  0  0  0
   26.2059  -20.9521  -15.9085 C   0  0  1  0  0  0  0  0  0  0  0  0
   27.3088  -21.6772  -15.2217 C   0  0  0  0  0  0  0  0  0  0  0  0
   28.2376  -22.4170  -16.0920 C   0  0  0  0  0  0  0  0  0  0  0  0
   27.9743  -22.5468  -17.3314 O   0  0  0  0  0  0  0  0  0  0  0  0
   25.1466  -20.4220  -15.0410 C   0  0  0  0  0  0  0  0  0  0  0  0
   25.4745  -19.8456  -13.9577 O   0  0  0  0  0  0  0  0  0  0  0  0
   29.4135  -22.9992  -15.6474 O   0  0  0  0  0  0  0  0  0  0  0  0
   19.4853  -19.3053  -15.8563 N   0  0  0  0  0  0  0  0  0  0  0  0
   19.6224  -18.6094  -14.6347 C   0  0  0  0  0  0  0  0  0  0  0  0
   18.5799  -18.2240  -14.0485 O   0  0  0  0  0  0  0  0  0  0  0  0
   20.9776  -18.3332  -14.0446 C   0  0  0  0  0  0  0  0  0  0  0  0
   22.0633  -18.8608  -14.9469 C   0  0  0  0  0  0  0  0  0  0  0  0
   22.7538  -20.0714  -14.3681 C   0  0  2  0  0  0  0  0  0  0  0  0
   23.7716  -20.5095  -15.3356 N   0  0  0  0  0  0  0  0  0  0  0  0
   21.8034  -21.1532  -14.0386 C   0  0  0  0  0  0  0  0  0  0  0  0
   21.4623  -22.0131  -14.8850 O   0  0  0  0  0  0  0  0  0  0  0  0
   21.2600  -21.2413  -12.7665 O   0  0  0  0  0  0  0  0  0  0  0  0
  1  5  1  0
  2  1  1  0
  3  4  1  0
  3  2  1  0
  4  5  1  0
  6  7  2  0
  5  6  1  1
  8  6  1  0
  9  8  1  0
  9 13  1  0
  9 10  1  1
 11 10  1  0
 11 15  1  0
 12 11  2  0
 13 14  2  0
 13 22  1  0
 16 17  1  0
 17 19  1  0
 18 17  2  0
 19 20  1  0
 21 20  1  6
 21 23  1  0
 22 21  1  0
 23 24  2  0
 23 25  1  0
M  END
$$$$
