PDQ.pdb
     RDKit          3D

 25 25  0  0  1  0  0  0  0  0999 V2000
   21.2006  -13.8323  -17.0215 N   0  0  0  0  0  0  0  0  0  0  0  0
   20.7519  -15.1618  -17.3708 C   0  0  0  0  0  0  0  0  0  0  0  0
   19.9797  -14.9425  -18.6796 C   0  0  0  0  0  0  0  0  0  0  0  0
   20.9192  -13.9926  -19.3872 C   0  0  0  0  0  0  0  0  0  0  0  0
   21.3552  -13.0937  -18.2308 C   0  0  1  0  0  0  0  0  0  0  0  0
   20.4756  -11.8845  -18.3120 C   0  0  0  0  0  0  0  0  0  0  0  0
   20.5503  -11.1314  -19.3139 O   0  0  0  0  0  0  0  0  0  0  0  0
   19.5876  -11.6306  -17.2536 N   0  0  0  0  0  0  0  0  0  0  0  0
   18.6842  -10.4767  -17.2548 C   0  0  1  0  0  0  0  0  0  0  0  0
   17.2727  -10.9457  -17.2182 C   0  0  0  0  0  0  0  0  0  0  0  0
   16.7668  -11.5732  -18.4501 C   0  0  0  0  0  0  0  0  0  0  0  0
   16.9287  -10.9879  -19.5698 O   0  0  0  0  0  0  0  0  0  0  0  0
   19.0963   -9.5910  -16.1588 C   0  0  0  0  0  0  0  0  0  0  0  0
   19.0406  -10.0263  -14.9668 O   0  0  0  0  0  0  0  0  0  0  0  0
   16.1083  -12.7917  -18.4813 O   0  0  0  0  0  0  0  0  0  0  0  0
   23.4152   -5.1650  -16.1164 N   0  0  0  0  0  0  0  0  0  0  0  0
   22.7439   -4.8730  -14.9082 C   0  0  0  0  0  0  0  0  0  0  0  0
   23.2000   -3.9563  -14.1798 O   0  0  0  0  0  0  0  0  0  0  0  0
   21.5144   -5.6352  -14.4976 C   0  0  0  0  0  0  0  0  0  0  0  0
   21.1418   -6.6438  -15.5537 C   0  0  0  0  0  0  0  0  0  0  0  0
   19.8927   -7.4126  -15.1988 C   0  0  2  0  0  0  0  0  0  0  0  0
   19.5579   -8.2728  -16.3442 N   0  0  0  0  0  0  0  0  0  0  0  0
   18.7731   -6.5218  -14.8315 C   0  0  0  0  0  0  0  0  0  0  0  0
   18.0486   -5.9793  -15.6993 O   0  0  0  0  0  0  0  0  0  0  0  0
   18.4958   -6.2627  -13.4983 O   0  0  0  0  0  0  0  0  0  0  0  0
  1  5  1  0
  2  1  1  0
  3  4  1  0
  3  2  1  0
  4  5  1  0
  6  7  2  0
  5  6  1  1
  8  6  1  0
  9  8  1  0
  9 13  1  0
  9 10  1  1
 11 10  1  0
 11 15  1  0
 12 11  2  0
 13 14  2  0
 13 22  1  0
 16 17  1  0
 17 19  1  0
 18 17  2  0
 19 20  1  0
 21 20  1  6
 21 23  1  0
 22 21  1  0
 23 24  2  0
 23 25  1  0
M  END
$$$$
