PDQ.pdb
     RDKit          3D

 25 25  0  0  1  0  0  0  0  0999 V2000
   27.3182  -20.0258  -16.1709 N   0  0  0  0  0  0  0  0  0  0  0  0
   28.6242  -19.7812  -16.7413 C   0  0  0  0  0  0  0  0  0  0  0  0
   28.8118  -18.2681  -16.5604 C   0  0  0  0  0  0  0  0  0  0  0  0
   28.2970  -18.1027  -15.1486 C   0  0  0  0  0  0  0  0  0  0  0  0
   27.0934  -19.0444  -15.1619 C   0  0  1  0  0  0  0  0  0  0  0  0
   25.9065  -18.1710  -15.4281 C   0  0  0  0  0  0  0  0  0  0  0  0
   25.6571  -17.2137  -14.6549 O   0  0  0  0  0  0  0  0  0  0  0  0
   25.1036  -18.4552  -16.5452 N   0  0  0  0  0  0  0  0  0  0  0  0
   23.9185  -17.6589  -16.8752 C   0  0  1  0  0  0  0  0  0  0  0  0
   24.0240  -17.1591  -18.2726 C   0  0  0  0  0  0  0  0  0  0  0  0
   24.7839  -15.9120  -18.4585 C   0  0  0  0  0  0  0  0  0  0  0  0
   24.7400  -15.0061  -17.5641 O   0  0  0  0  0  0  0  0  0  0  0  0
   22.7375  -18.4768  -16.5721 C   0  0  0  0  0  0  0  0  0  0  0  0
   22.8506  -19.7419  -16.5826 O   0  0  0  0  0  0  0  0  0  0  0  0
   25.5679  -15.6443  -19.5689 O   0  0  0  0  0  0  0  0  0  0  0  0
   21.8352  -21.6831  -13.6610 N   0  0  0  0  0  0  0  0  0  0  0  0
   20.6085  -21.2496  -13.1106 C   0  0  0  0  0  0  0  0  0  0  0  0
   19.9200  -22.0780  -12.4637 O   0  0  0  0  0  0  0  0  0  0  0  0
   20.1323  -19.8346  -13.2900 C   0  0  0  0  0  0  0  0  0  0  0  0
   21.0829  -19.0658  -14.1712 C   0  0  0  0  0  0  0  0  0  0  0  0
   20.4764  -18.7243  -15.5102 C   0  0  2  0  0  0  0  0  0  0  0  0
   21.4700  -17.9441  -16.2639 N   0  0  0  0  0  0  0  0  0  0  0  0
   19.1944  -18.0028  -15.3759 C   0  0  0  0  0  0  0  0  0  0  0  0
   19.1284  -16.7531  -15.4550 O   0  0  0  0  0  0  0  0  0  0  0  0
   18.0189  -18.7036  -15.1559 O   0  0  0  0  0  0  0  0  0  0  0  0
  1  5  1  0
  2  1  1  0
  3  4  1  0
  3  2  1  0
  4  5  1  0
  6  7  2  0
  5  6  1  6
  8  6  1  0
  9  8  1  0
  9 13  1  0
  9 10  1  6
 11 10  1  0
 11 15  1  0
 12 11  2  0
 13 14  2  0
 13 22  1  0
 16 17  1  0
 17 19  1  0
 18 17  2  0
 19 20  1  0
 21 20  1  1
 21 23  1  0
 22 21  1  0
 23 24  2  0
 23 25  1  0
M  END
$$$$
