PDQ.pdb
     RDKit          3D

 25 25  0  0  1  0  0  0  0  0999 V2000
   20.3493  -13.2879  -18.1650 N   0  0  0  0  0  0  0  0  0  0  0  0
   21.0545  -13.6601  -19.3713 C   0  0  0  0  0  0  0  0  0  0  0  0
   21.9030  -12.4189  -19.6826 C   0  0  0  0  0  0  0  0  0  0  0  0
   22.4094  -12.0879  -18.2972 C   0  0  0  0  0  0  0  0  0  0  0  0
   21.1621  -12.3561  -17.4559 C   0  0  1  0  0  0  0  0  0  0  0  0
   20.5150  -11.0193  -17.2646 C   0  0  0  0  0  0  0  0  0  0  0  0
   20.0733  -10.3975  -18.2619 O   0  0  0  0  0  0  0  0  0  0  0  0
   20.4232  -10.5004  -15.9624 N   0  0  0  0  0  0  0  0  0  0  0  0
   19.7351   -9.2393  -15.6734 C   0  0  1  0  0  0  0  0  0  0  0  0
   18.5905   -9.4918  -14.7570 C   0  0  0  0  0  0  0  0  0  0  0  0
   17.4341  -10.1898  -15.3426 C   0  0  0  0  0  0  0  0  0  0  0  0
   17.0297   -9.8743  -16.5085 O   0  0  0  0  0  0  0  0  0  0  0  0
   20.7431   -8.2847  -15.1955 C   0  0  0  0  0  0  0  0  0  0  0  0
   21.6867   -8.7093  -14.4589 O   0  0  0  0  0  0  0  0  0  0  0  0
   16.7329  -11.1963  -14.6985 O   0  0  0  0  0  0  0  0  0  0  0  0
   21.9821   -2.6381  -17.6945 N   0  0  0  0  0  0  0  0  0  0  0  0
   22.9833   -2.7512  -16.7044 C   0  0  0  0  0  0  0  0  0  0  0  0
   23.8705   -1.8631  -16.6503 O   0  0  0  0  0  0  0  0  0  0  0  0
   22.9936   -3.9018  -15.7364 C   0  0  0  0  0  0  0  0  0  0  0  0
   21.8874   -4.8730  -16.0596 C   0  0  0  0  0  0  0  0  0  0  0  0
   21.8324   -6.0258  -15.0873 C   0  0  2  0  0  0  0  0  0  0  0  0
   20.7342   -6.9104  -15.5060 N   0  0  0  0  0  0  0  0  0  0  0  0
   21.6740   -5.5722  -13.6904 C   0  0  0  0  0  0  0  0  0  0  0  0
   20.5449   -5.4578  -13.1572 O   0  0  0  0  0  0  0  0  0  0  0  0
   22.7883   -5.2584  -12.9280 O   0  0  0  0  0  0  0  0  0  0  0  0
  1  5  1  0
  2  1  1  0
  3  4  1  0
  3  2  1  0
  4  5  1  0
  6  7  2  0
  5  6  1  6
  8  6  1  0
  9  8  1  0
  9 13  1  0
  9 10  1  1
 11 10  1  0
 11 15  1  0
 12 11  2  0
 13 14  2  0
 13 22  1  0
 16 17  1  0
 17 19  1  0
 18 17  2  0
 19 20  1  0
 21 20  1  6
 21 23  1  0
 22 21  1  0
 23 24  2  0
 23 25  1  0
M  END
$$$$
