PDQ.pdb
     RDKit          3D

 25 25  0  0  1  0  0  0  0  0999 V2000
   15.7543  -12.1080  -16.0062 N   0  0  0  0  0  0  0  0  0  0  0  0
   16.3404  -13.1571  -16.8103 C   0  0  0  0  0  0  0  0  0  0  0  0
   17.6291  -13.5063  -16.0521 C   0  0  0  0  0  0  0  0  0  0  0  0
   17.1091  -13.5149  -14.6326 C   0  0  0  0  0  0  0  0  0  0  0  0
   16.1665  -12.3122  -14.6571 C   0  0  1  0  0  0  0  0  0  0  0  0
   16.9582  -11.1734  -14.0925 C   0  0  0  0  0  0  0  0  0  0  0  0
   17.5213  -11.3039  -12.9779 O   0  0  0  0  0  0  0  0  0  0  0  0
   17.0451   -9.9850  -14.8365 N   0  0  0  0  0  0  0  0  0  0  0  0
   17.7310   -8.7950  -14.3258 C   0  0  1  0  0  0  0  0  0  0  0  0
   18.5009   -8.1507  -15.4240 C   0  0  0  0  0  0  0  0  0  0  0  0
   19.7289   -8.8440  -15.8470 C   0  0  0  0  0  0  0  0  0  0  0  0
   20.4522   -9.4334  -14.9799 O   0  0  0  0  0  0  0  0  0  0  0  0
   16.7250   -7.9534  -13.6660 C   0  0  0  0  0  0  0  0  0  0  0  0
   15.5145   -8.0395  -14.0409 O   0  0  0  0  0  0  0  0  0  0  0  0
   20.1678   -8.9046  -17.1596 O   0  0  0  0  0  0  0  0  0  0  0  0
   15.3472   -6.9128   -7.9755 N   0  0  0  0  0  0  0  0  0  0  0  0
   14.5890   -5.8799   -8.5704 C   0  0  0  0  0  0  0  0  0  0  0  0
   13.7855   -5.2388   -7.8478 O   0  0  0  0  0  0  0  0  0  0  0  0
   14.7345   -5.5501  -10.0303 C   0  0  0  0  0  0  0  0  0  0  0  0
   15.6954   -6.5033  -10.6932 C   0  0  0  0  0  0  0  0  0  0  0  0
   15.9984   -6.1144  -12.1195 C   0  0  2  0  0  0  0  0  0  0  0  0
   17.0171   -7.0455  -12.6288 N   0  0  0  0  0  0  0  0  0  0  0  0
   16.4300   -4.7065  -12.2357 C   0  0  0  0  0  0  0  0  0  0  0  0
   15.6119   -3.7580  -12.1777 O   0  0  0  0  0  0  0  0  0  0  0  0
   17.7699   -4.3998  -12.4145 O   0  0  0  0  0  0  0  0  0  0  0  0
  1  5  1  0
  2  1  1  0
  3  4  1  0
  3  2  1  0
  4  5  1  0
  6  7  2  0
  5  6  1  6
  8  6  1  0
  9  8  1  0
  9 13  1  0
  9 10  1  6
 11 10  1  0
 11 15  1  0
 12 11  2  0
 13 14  2  0
 13 22  1  0
 16 17  1  0
 17 19  1  0
 18 17  2  0
 19 20  1  0
 21 20  1  1
 21 23  1  0
 22 21  1  0
 23 24  2  0
 23 25  1  0
M  END
$$$$
