PDQ.pdb
     RDKit          3D

 25 25  0  0  1  0  0  0  0  0999 V2000
   25.9011  -20.1278  -11.6723 N   0  0  0  0  0  0  0  0  0  0  0  0
   26.1030  -21.2715  -10.8110 C   0  0  0  0  0  0  0  0  0  0  0  0
   26.1670  -22.4487  -11.7947 C   0  0  0  0  0  0  0  0  0  0  0  0
   27.0420  -21.8486  -12.8717 C   0  0  0  0  0  0  0  0  0  0  0  0
   26.4967  -20.4223  -12.9334 C   0  0  1  0  0  0  0  0  0  0  0  0
   25.5245  -20.4159  -14.0723 C   0  0  0  0  0  0  0  0  0  0  0  0
   25.9028  -20.7871  -15.2106 O   0  0  0  0  0  0  0  0  0  0  0  0
   24.2086  -19.9903  -13.8266 N   0  0  0  0  0  0  0  0  0  0  0  0
   23.1659  -20.0503  -14.8546 C   0  0  1  0  0  0  0  0  0  0  0  0
   23.0161  -21.4504  -15.3351 C   0  0  0  0  0  0  0  0  0  0  0  0
   22.3443  -21.6208  -16.6339 C   0  0  0  0  0  0  0  0  0  0  0  0
   21.0903  -21.4181  -16.7279 O   0  0  0  0  0  0  0  0  0  0  0  0
   21.9583  -19.4291  -14.2966 C   0  0  0  0  0  0  0  0  0  0  0  0
   21.5698  -19.7787  -13.1389 O   0  0  0  0  0  0  0  0  0  0  0  0
   22.9969  -21.9960  -17.7970 O   0  0  0  0  0  0  0  0  0  0  0  0
   20.1044  -13.7968  -15.4330 N   0  0  0  0  0  0  0  0  0  0  0  0
   18.9704  -14.2211  -14.7053 C   0  0  0  0  0  0  0  0  0  0  0  0
   18.2000  -13.3449  -14.2387 O   0  0  0  0  0  0  0  0  0  0  0  0
   18.6857  -15.6819  -14.4905 C   0  0  0  0  0  0  0  0  0  0  0  0
   19.7624  -16.5273  -15.1209 C   0  0  0  0  0  0  0  0  0  0  0  0
   20.1010  -17.7404  -14.2896 C   0  0  2  0  0  0  0  0  0  0  0  0
   21.1923  -18.4559  -14.9685 N   0  0  0  0  0  0  0  0  0  0  0  0
   18.9277  -18.6090  -14.0639 C   0  0  0  0  0  0  0  0  0  0  0  0
   18.6061  -19.5088  -14.8758 O   0  0  0  0  0  0  0  0  0  0  0  0
   18.1451  -18.4447  -12.9316 O   0  0  0  0  0  0  0  0  0  0  0  0
  1  5  1  0
  2  1  1  0
  3  4  1  0
  3  2  1  0
  4  5  1  0
  6  7  2  0
  5  6  1  6
  8  6  1  0
  9  8  1  0
  9 13  1  0
  9 10  1  1
 11 10  1  0
 11 15  1  0
 12 11  2  0
 13 14  2  0
 13 22  1  0
 16 17  1  0
 17 19  1  0
 18 17  2  0
 19 20  1  0
 21 20  1  6
 21 23  1  0
 22 21  1  0
 23 24  2  0
 23 25  1  0
M  END
$$$$
