PDQ.pdb
     RDKit          3D

 25 25  0  0  1  0  0  0  0  0999 V2000
   18.7183   -9.3928  -16.5926 N   0  0  0  0  0  0  0  0  0  0  0  0
   19.6274   -9.6131  -17.6953 C   0  0  0  0  0  0  0  0  0  0  0  0
   20.9251  -10.0522  -17.0019 C   0  0  0  0  0  0  0  0  0  0  0  0
   20.3664  -11.0042  -15.9690 C   0  0  0  0  0  0  0  0  0  0  0  0
   19.1099  -10.2549  -15.5271 C   0  0  1  0  0  0  0  0  0  0  0  0
   19.4985   -9.5264  -14.2778 C   0  0  0  0  0  0  0  0  0  0  0  0
   19.9022  -10.1768  -13.2826 O   0  0  0  0  0  0  0  0  0  0  0  0
   19.3970   -8.1254  -14.2610 N   0  0  0  0  0  0  0  0  0  0  0  0
   19.7936   -7.3298  -13.0960 C   0  0  1  0  0  0  0  0  0  0  0  0
   20.8037   -6.3158  -13.5023 C   0  0  0  0  0  0  0  0  0  0  0  0
   21.2928   -5.4260  -12.4363 C   0  0  0  0  0  0  0  0  0  0  0  0
   21.3012   -5.8318  -11.2289 O   0  0  0  0  0  0  0  0  0  0  0  0
   18.5681   -6.8059  -12.4801 C   0  0  0  0  0  0  0  0  0  0  0  0
   17.7867   -6.0930  -13.1833 O   0  0  0  0  0  0  0  0  0  0  0  0
   21.7597   -4.1406  -12.6577 O   0  0  0  0  0  0  0  0  0  0  0  0
   14.1272   -9.4427   -9.6106 N   0  0  0  0  0  0  0  0  0  0  0  0
   13.8391   -8.1144   -9.2255 C   0  0  0  0  0  0  0  0  0  0  0  0
   12.7826   -7.8969   -8.5811 O   0  0  0  0  0  0  0  0  0  0  0  0
   14.7683   -6.9846   -9.5740 C   0  0  0  0  0  0  0  0  0  0  0  0
   16.0256   -7.5140  -10.2144 C   0  0  0  0  0  0  0  0  0  0  0  0
   17.0021   -6.4158  -10.5574 C   0  0  2  0  0  0  0  0  0  0  0  0
   18.1951   -7.0466  -11.1429 N   0  0  0  0  0  0  0  0  0  0  0  0
   17.3379   -5.5802   -9.3865 C   0  0  0  0  0  0  0  0  0  0  0  0
   18.4367   -5.6872   -8.7920 O   0  0  0  0  0  0  0  0  0  0  0  0
   16.4305   -4.6454   -8.9130 O   0  0  0  0  0  0  0  0  0  0  0  0
  1  5  1  0
  2  1  1  0
  3  4  1  0
  3  2  1  0
  4  5  1  0
  6  7  2  0
  5  6  1  1
  8  6  1  0
  9  8  1  0
  9 13  1  0
  9 10  1  6
 11 10  1  0
 11 15  1  0
 12 11  2  0
 13 14  2  0
 13 22  1  0
 16 17  1  0
 17 19  1  0
 18 17  2  0
 19 20  1  0
 21 20  1  1
 21 23  1  0
 22 21  1  0
 23 24  2  0
 23 25  1  0
M  END
$$$$
