HLL.pdb
     RDKit          3D

 27 27  0  0  1  0  0  0  0  0999 V2000
    7.6139  -16.7148   21.7030 N   0  0  0  0  0  0  0  0  0  0  0  0
    8.9791  -16.2843   21.7758 C   0  0  1  0  0  0  0  0  0  0  0  0
    9.2862  -15.2035   20.7346 C   0  0  0  0  0  0  0  0  0  0  0  0
    9.1260  -15.7785   19.3951 C   0  0  0  0  0  0  0  0  0  0  0  0
    9.7202  -16.8983   18.9031 C   0  0  0  0  0  0  0  0  0  0  0  0
    9.2706  -17.0307   17.6307 N   0  0  0  0  0  0  0  0  0  0  0  0
    8.4234  -16.0313   17.3296 C   0  0  0  0  0  0  0  0  0  0  0  0
    8.3307  -15.2518   18.4220 N   0  0  0  0  0  0  0  0  0  0  0  0
    9.2277  -15.6832   23.0962 C   0  0  0  0  0  0  0  0  0  0  0  0
   10.3861  -15.2605   23.3949 O   0  0  0  0  0  0  0  0  0  0  0  0
    5.9079  -12.4810   26.0403 C   0  0  0  0  0  0  0  0  0  0  0  0
    7.1287  -13.1535   25.4489 C   0  0  1  0  0  0  0  0  0  0  0  0
    8.3045  -12.2519   25.8072 C   0  0  0  0  0  0  0  0  0  0  0  0
    7.3995  -14.4880   26.0322 C   0  0  0  0  0  0  0  0  0  0  0  0
    8.5026  -15.2709   25.4087 C   0  0  2  0  0  0  0  0  0  0  0  0
    8.1593  -15.5842   24.0243 N   0  0  0  0  0  0  0  0  0  0  0  0
    8.6813  -16.5763   26.1231 C   0  0  0  0  0  0  0  0  0  0  0  0
    7.7657  -17.4323   26.1429 O   0  0  0  0  0  0  0  0  0  0  0  0
   13.2008  -18.5733   27.1064 C   0  0  0  0  0  0  0  0  0  0  0  0
   12.1224  -18.4551   25.9623 C   0  0  1  0  0  0  0  0  0  0  0  0
   12.7070  -19.3143   24.8450 C   0  0  0  0  0  0  0  0  0  0  0  0
   10.8728  -19.0527   26.4799 C   0  0  0  0  0  0  0  0  0  0  0  0
   10.0306  -18.2531   27.3821 C   0  0  2  0  0  0  0  0  0  0  0  0
    9.8834  -16.8854   26.7961 N   0  0  0  0  0  0  0  0  0  0  0  0
   10.4150  -18.0354   28.7714 C   0  0  0  0  0  0  0  0  0  0  0  0
   10.6092  -19.0401   29.5613 O   0  0  0  0  0  0  0  0  0  0  0  0
   10.6247  -16.8225   29.4090 O   0  0  0  0  0  0  0  0  0  0  0  0
  2  1  1  1
  2  9  1  0
  2  3  1  0
  3  4  1  0
  4  8  1  0
  4  5  2  0
  5  6  1  0
  7  6  1  0
  8  7  2  0
  9 10  2  0
 12 14  1  0
 12 11  1  1
 13 12  1  0
 15 14  1  1
 15 16  1  0
 16  9  1  0
 17 15  1  0
 18 17  2  0
 20 22  1  0
 20 19  1  1
 21 20  1  0
 23 22  1  6
 23 25  1  0
 23 24  1  0
 24 17  1  0
 25 27  1  0
 26 25  2  0
M  END
$$$$
