HLL.pdb
     RDKit          3D

 27 27  0  0  1  0  0  0  0  0999 V2000
    8.3289  -17.9182   21.4373 N   0  0  0  0  0  0  0  0  0  0  0  0
    9.5698  -17.2320   21.2282 C   0  0  1  0  0  0  0  0  0  0  0  0
    9.6692  -16.6659   19.8084 C   0  0  0  0  0  0  0  0  0  0  0  0
    9.6512  -17.7788   18.8535 C   0  0  0  0  0  0  0  0  0  0  0  0
   10.2956  -18.9709   18.9659 C   0  0  0  0  0  0  0  0  0  0  0  0
    9.9820  -19.6713   17.8479 N   0  0  0  0  0  0  0  0  0  0  0  0
    9.1693  -18.9483   17.0579 C   0  0  0  0  0  0  0  0  0  0  0  0
    8.9614  -17.7729   17.6783 N   0  0  0  0  0  0  0  0  0  0  0  0
    9.6503  -16.0856   22.1479 C   0  0  0  0  0  0  0  0  0  0  0  0
   10.6549  -15.3113   22.1129 O   0  0  0  0  0  0  0  0  0  0  0  0
    7.6400  -11.9497   24.8010 C   0  0  0  0  0  0  0  0  0  0  0  0
    7.3919  -13.2572   25.5230 C   0  0  1  0  0  0  0  0  0  0  0  0
    5.9761  -13.1538   26.0785 C   0  0  0  0  0  0  0  0  0  0  0  0
    7.4312  -14.4355   24.6259 C   0  0  0  0  0  0  0  0  0  0  0  0
    8.7473  -14.7490   24.0031 C   0  0  2  0  0  0  0  0  0  0  0  0
    8.5945  -15.8607   23.0684 N   0  0  0  0  0  0  0  0  0  0  0  0
    9.7264  -15.1868   25.0500 C   0  0  0  0  0  0  0  0  0  0  0  0
   10.8137  -14.5837   25.2097 O   0  0  0  0  0  0  0  0  0  0  0  0
    9.3072  -13.9557   29.5864 C   0  0  0  0  0  0  0  0  0  0  0  0
    9.9432  -14.4073   28.2163 C   0  0  1  0  0  0  0  0  0  0  0  0
   11.3666  -13.8636   28.2990 C   0  0  0  0  0  0  0  0  0  0  0  0
    9.9498  -15.8859   28.2069 C   0  0  0  0  0  0  0  0  0  0  0  0
   10.4181  -16.5805   26.9983 C   0  0  2  0  0  0  0  0  0  0  0  0
    9.4582  -16.2899   25.8894 N   0  0  0  0  0  0  0  0  0  0  0  0
   10.5928  -18.0278   26.9844 C   0  0  0  0  0  0  0  0  0  0  0  0
    9.8235  -18.7725   26.2599 O   0  0  0  0  0  0  0  0  0  0  0  0
   11.5355  -18.7709   27.6778 O   0  0  0  0  0  0  0  0  0  0  0  0
  2  1  1  6
  2  9  1  0
  2  3  1  0
  3  4  1  0
  4  8  1  0
  4  5  2  0
  5  6  1  0
  7  6  1  0
  8  7  2  0
  9 10  2  0
 12 14  1  0
 12 11  1  6
 13 12  1  0
 15 14  1  1
 15 16  1  0
 16  9  1  0
 17 15  1  0
 18 17  2  0
 20 22  1  0
 20 19  1  1
 21 20  1  0
 23 22  1  1
 23 25  1  0
 23 24  1  0
 24 17  1  0
 25 27  1  0
 26 25  2  0
M  END
$$$$
