HLL.pdb
     RDKit          3D

 27 27  0  0  1  0  0  0  0  0999 V2000
   10.0755  -20.0924   20.7017 N   0  0  0  0  0  0  0  0  0  0  0  0
    9.0767  -19.3725   21.4355 C   0  0  1  0  0  0  0  0  0  0  0  0
    8.9720  -19.8678   22.8811 C   0  0  0  0  0  0  0  0  0  0  0  0
    8.4130  -21.2236   22.8770 C   0  0  0  0  0  0  0  0  0  0  0  0
    8.0155  -21.9472   21.7965 C   0  0  0  0  0  0  0  0  0  0  0  0
    7.5720  -23.1323   22.2839 N   0  0  0  0  0  0  0  0  0  0  0  0
    7.6851  -23.1567   23.6232 C   0  0  0  0  0  0  0  0  0  0  0  0
    8.2067  -21.9740   23.9955 N   0  0  0  0  0  0  0  0  0  0  0  0
    9.4540  -17.9513   21.5009 C   0  0  0  0  0  0  0  0  0  0  0  0
   10.6454  -17.5970   21.2466 O   0  0  0  0  0  0  0  0  0  0  0  0
    8.6941  -12.9565   19.7897 C   0  0  0  0  0  0  0  0  0  0  0  0
    7.9062  -13.3492   21.0215 C   0  0  1  0  0  0  0  0  0  0  0  0
    6.5293  -12.7198   20.8424 C   0  0  0  0  0  0  0  0  0  0  0  0
    7.7117  -14.8124   21.1477 C   0  0  0  0  0  0  0  0  0  0  0  0
    8.8431  -15.5817   21.7363 C   0  0  2  0  0  0  0  0  0  0  0  0
    8.4715  -16.9893   21.8505 N   0  0  0  0  0  0  0  0  0  0  0  0
    9.1395  -15.0918   23.1214 C   0  0  0  0  0  0  0  0  0  0  0  0
    9.7574  -14.0172   23.3079 O   0  0  0  0  0  0  0  0  0  0  0  0
    5.9471  -12.9350   26.0779 C   0  0  0  0  0  0  0  0  0  0  0  0
    7.3564  -13.3042   25.4750 C   0  0  1  0  0  0  0  0  0  0  0  0
    8.2511  -12.1695   25.9654 C   0  0  0  0  0  0  0  0  0  0  0  0
    7.7651  -14.5894   26.0815 C   0  0  0  0  0  0  0  0  0  0  0  0
    9.0005  -15.2307   25.6071 C   0  0  2  0  0  0  0  0  0  0  0  0
    8.7339  -15.8219   24.2598 N   0  0  0  0  0  0  0  0  0  0  0  0
    9.6357  -16.2956   26.3739 C   0  0  0  0  0  0  0  0  0  0  0  0
    9.8950  -16.1318   27.6297 O   0  0  0  0  0  0  0  0  0  0  0  0
   10.0204  -17.5479   25.9209 O   0  0  0  0  0  0  0  0  0  0  0  0
  2  1  1  6
  2  9  1  0
  2  3  1  0
  3  4  1  0
  4  8  1  0
  4  5  2  0
  5  6  1  0
  7  6  1  0
  8  7  2  0
  9 10  2  0
 12 14  1  0
 12 11  1  6
 13 12  1  0
 15 14  1  1
 15 16  1  0
 16  9  1  0
 17 15  1  0
 18 17  2  0
 20 22  1  0
 20 19  1  1
 21 20  1  0
 23 22  1  1
 23 25  1  0
 23 24  1  0
 24 17  1  0
 25 27  1  0
 26 25  2  0
M  END
$$$$
