HLL.pdb
     RDKit          3D

 27 27  0  0  1  0  0  0  0  0999 V2000
    8.5928  -18.3631   20.8273 N   0  0  0  0  0  0  0  0  0  0  0  0
    9.9324  -17.9070   20.6002 C   0  0  1  0  0  0  0  0  0  0  0  0
   10.3132  -17.9898   19.1189 C   0  0  0  0  0  0  0  0  0  0  0  0
   10.5205  -19.3970   18.7620 C   0  0  0  0  0  0  0  0  0  0  0  0
   10.5147  -20.4684   19.5994 C   0  0  0  0  0  0  0  0  0  0  0  0
   10.7489  -21.5526   18.8194 N   0  0  0  0  0  0  0  0  0  0  0  0
   10.8974  -21.1800   17.5363 C   0  0  0  0  0  0  0  0  0  0  0  0
   10.7564  -19.8429   17.4962 N   0  0  0  0  0  0  0  0  0  0  0  0
   10.0333  -16.4898   20.9849 C   0  0  0  0  0  0  0  0  0  0  0  0
   11.1312  -15.8693   20.8452 O   0  0  0  0  0  0  0  0  0  0  0  0
    6.4605  -12.7293   19.6107 C   0  0  0  0  0  0  0  0  0  0  0  0
    7.7303  -13.4574   19.9978 C   0  0  1  0  0  0  0  0  0  0  0  0
    8.8720  -12.5545   19.5451 C   0  0  0  0  0  0  0  0  0  0  0  0
    7.8700  -13.6494   21.4600 C   0  0  0  0  0  0  0  0  0  0  0  0
    9.0497  -14.4373   21.9140 C   0  0  2  0  0  0  0  0  0  0  0  0
    8.8917  -15.8320   21.5111 N   0  0  0  0  0  0  0  0  0  0  0  0
    9.1416  -14.4199   23.4098 C   0  0  0  0  0  0  0  0  0  0  0  0
    9.3647  -13.3539   24.0307 O   0  0  0  0  0  0  0  0  0  0  0  0
    6.2681  -12.8029   26.3842 C   0  0  0  0  0  0  0  0  0  0  0  0
    7.6779  -13.2900   25.8733 C   0  0  1  0  0  0  0  0  0  0  0  0
    8.6477  -12.6238   26.8450 C   0  0  0  0  0  0  0  0  0  0  0  0
    7.7119  -14.7601   26.0288 C   0  0  0  0  0  0  0  0  0  0  0  0
    8.9399  -15.4792   25.6580 C   0  0  2  0  0  0  0  0  0  0  0  0
    8.9805  -15.5998   24.1682 N   0  0  0  0  0  0  0  0  0  0  0  0
    9.2031  -16.8229   26.1585 C   0  0  0  0  0  0  0  0  0  0  0  0
    9.1399  -17.0729   27.4253 O   0  0  0  0  0  0  0  0  0  0  0  0
    9.5253  -17.9508   25.4199 O   0  0  0  0  0  0  0  0  0  0  0  0
  2  1  1  6
  2  9  1  0
  2  3  1  0
  3  4  1  0
  4  8  1  0
  4  5  2  0
  5  6  1  0
  7  6  1  0
  8  7  2  0
  9 10  2  0
 12 14  1  0
 12 11  1  1
 13 12  1  0
 15 14  1  1
 15 16  1  0
 16  9  1  0
 17 15  1  0
 18 17  2  0
 20 22  1  0
 20 19  1  1
 21 20  1  0
 23 22  1  6
 23 25  1  0
 23 24  1  0
 24 17  1  0
 25 27  1  0
 26 25  2  0
M  END
$$$$
