HLL.pdb
     RDKit          3D

 27 27  0  0  1  0  0  0  0  0999 V2000
    8.9827  -18.3468   21.0240 N   0  0  0  0  0  0  0  0  0  0  0  0
   10.3185  -17.8339   20.9401 C   0  0  1  0  0  0  0  0  0  0  0  0
   10.8617  -17.9056   19.5097 C   0  0  0  0  0  0  0  0  0  0  0  0
   10.9639  -19.3137   19.1129 C   0  0  0  0  0  0  0  0  0  0  0  0
   11.5065  -20.3339   19.8296 C   0  0  0  0  0  0  0  0  0  0  0  0
   11.3736  -21.4424   19.0599 N   0  0  0  0  0  0  0  0  0  0  0  0
   10.7691  -21.1339   17.8994 C   0  0  0  0  0  0  0  0  0  0  0  0
   10.5131  -19.8137   17.9282 N   0  0  0  0  0  0  0  0  0  0  0  0
   10.3164  -16.4124   21.3217 C   0  0  0  0  0  0  0  0  0  0  0  0
   11.3877  -15.7353   21.2595 O   0  0  0  0  0  0  0  0  0  0  0  0
    6.4667  -13.2402   19.5545 C   0  0  0  0  0  0  0  0  0  0  0  0
    7.7768  -13.8203   20.0441 C   0  0  1  0  0  0  0  0  0  0  0  0
    8.8655  -12.9747   19.3935 C   0  0  0  0  0  0  0  0  0  0  0  0
    7.9499  -13.7133   21.5115 C   0  0  0  0  0  0  0  0  0  0  0  0
    9.1439  -14.3920   22.0879 C   0  0  2  0  0  0  0  0  0  0  0  0
    9.1061  -15.8140   21.7576 N   0  0  0  0  0  0  0  0  0  0  0  0
    9.1294  -14.2879   23.5830 C   0  0  0  0  0  0  0  0  0  0  0  0
    9.2578  -13.1795   24.1544 O   0  0  0  0  0  0  0  0  0  0  0  0
    8.4431  -12.2018   26.2323 C   0  0  0  0  0  0  0  0  0  0  0  0
    7.5912  -13.3009   26.9754 C   0  0  1  0  0  0  0  0  0  0  0  0
    6.2079  -12.6634   27.0675 C   0  0  0  0  0  0  0  0  0  0  0  0
    7.5592  -14.4915   26.0991 C   0  0  0  0  0  0  0  0  0  0  0  0
    8.8096  -15.2305   25.8691 C   0  0  2  0  0  0  0  0  0  0  0  0
    8.9710  -15.4311   24.3962 N   0  0  0  0  0  0  0  0  0  0  0  0
    9.0240  -16.5456   26.4607 C   0  0  0  0  0  0  0  0  0  0  0  0
    8.8703  -16.7237   27.7318 O   0  0  0  0  0  0  0  0  0  0  0  0
    9.3857  -17.7150   25.8101 O   0  0  0  0  0  0  0  0  0  0  0  0
  2  1  1  6
  2  9  1  0
  2  3  1  0
  3  4  1  0
  4  8  1  0
  4  5  2  0
  5  6  1  0
  7  6  1  0
  8  7  2  0
  9 10  2  0
 12 14  1  0
 12 11  1  1
 13 12  1  0
 15 14  1  6
 15 16  1  0
 16  9  1  0
 17 15  1  0
 18 17  2  0
 20 22  1  0
 20 19  1  6
 21 20  1  0
 23 22  1  6
 23 25  1  0
 23 24  1  0
 24 17  1  0
 25 27  1  0
 26 25  2  0
M  END
$$$$
