HLL.pdb
     RDKit          3D

 27 27  0  0  1  0  0  0  0  0999 V2000
   10.5938  -18.5088   20.1245 N   0  0  0  0  0  0  0  0  0  0  0  0
   11.7180  -17.7965   20.6565 C   0  0  1  0  0  0  0  0  0  0  0  0
   12.4855  -17.0526   19.5593 C   0  0  0  0  0  0  0  0  0  0  0  0
   13.2453  -18.0275   18.7700 C   0  0  0  0  0  0  0  0  0  0  0  0
   13.7517  -19.2157   19.1950 C   0  0  0  0  0  0  0  0  0  0  0  0
   14.3699  -19.7637   18.1196 N   0  0  0  0  0  0  0  0  0  0  0  0
   14.2582  -18.9514   17.0542 C   0  0  0  0  0  0  0  0  0  0  0  0
   13.5609  -17.8726   17.4534 N   0  0  0  0  0  0  0  0  0  0  0  0
   11.2408  -16.7772   21.6051 C   0  0  0  0  0  0  0  0  0  0  0  0
   12.0716  -16.0374   22.2154 O   0  0  0  0  0  0  0  0  0  0  0  0
    6.2231  -14.4382   20.8926 C   0  0  0  0  0  0  0  0  0  0  0  0
    7.7041  -14.5687   21.1790 C   0  0  1  0  0  0  0  0  0  0  0  0
    8.2276  -13.1404   21.2775 C   0  0  0  0  0  0  0  0  0  0  0  0
    7.9919  -15.2364   22.4697 C   0  0  0  0  0  0  0  0  0  0  0  0
    9.4176  -15.5761   22.7352 C   0  0  2  0  0  0  0  0  0  0  0  0
    9.8465  -16.6350   21.8255 N   0  0  0  0  0  0  0  0  0  0  0  0
    9.5750  -16.1040   24.1290 C   0  0  0  0  0  0  0  0  0  0  0  0
   10.0676  -17.2376   24.3384 O   0  0  0  0  0  0  0  0  0  0  0  0
    9.5341  -12.4220   28.0837 C   0  0  0  0  0  0  0  0  0  0  0  0
   10.2192  -13.6350   27.3455 C   0  0  1  0  0  0  0  0  0  0  0  0
   11.5569  -13.7691   28.0674 C   0  0  0  0  0  0  0  0  0  0  0  0
    9.3745  -14.8242   27.5880 C   0  0  0  0  0  0  0  0  0  0  0  0
    9.4063  -15.9220   26.6100 C   0  0  2  0  0  0  0  0  0  0  0  0
    9.1750  -15.3449   25.2503 N   0  0  0  0  0  0  0  0  0  0  0  0
    8.4823  -17.0450   26.7119 C   0  0  0  0  0  0  0  0  0  0  0  0
    7.4366  -17.1023   25.9540 O   0  0  0  0  0  0  0  0  0  0  0  0
    8.5745  -18.1399   27.5570 O   0  0  0  0  0  0  0  0  0  0  0  0
  2  1  1  6
  2  9  1  0
  2  3  1  0
  3  4  1  0
  4  8  1  0
  4  5  2  0
  5  6  1  0
  7  6  1  0
  8  7  2  0
  9 10  2  0
 12 14  1  0
 12 11  1  1
 13 12  1  0
 15 14  1  6
 15 16  1  0
 16  9  1  0
 17 15  1  0
 18 17  2  0
 20 22  1  0
 20 19  1  1
 21 20  1  0
 23 22  1  1
 23 25  1  0
 23 24  1  0
 24 17  1  0
 25 27  1  0
 26 25  2  0
M  END
$$$$
