HLL.pdb
     RDKit          3D

 27 27  0  0  1  0  0  0  0  0999 V2000
    8.8556  -18.6899   21.1482 N   0  0  0  0  0  0  0  0  0  0  0  0
   10.1261  -18.1805   20.7231 C   0  0  1  0  0  0  0  0  0  0  0  0
   10.3334  -18.3666   19.2169 C   0  0  0  0  0  0  0  0  0  0  0  0
   10.3533  -19.8019   18.9163 C   0  0  0  0  0  0  0  0  0  0  0  0
   10.3873  -20.8293   19.8064 C   0  0  0  0  0  0  0  0  0  0  0  0
   10.3940  -21.9648   19.0652 N   0  0  0  0  0  0  0  0  0  0  0  0
   10.3653  -21.6659   17.7548 C   0  0  0  0  0  0  0  0  0  0  0  0
   10.3399  -20.3244   17.6579 N   0  0  0  0  0  0  0  0  0  0  0  0
   10.1788  -16.7326   20.9822 C   0  0  0  0  0  0  0  0  0  0  0  0
   11.1991  -16.0614   20.6383 O   0  0  0  0  0  0  0  0  0  0  0  0
    6.3723  -13.3277   19.6281 C   0  0  0  0  0  0  0  0  0  0  0  0
    7.7262  -13.8995   19.9917 C   0  0  1  0  0  0  0  0  0  0  0  0
    8.7478  -12.9216   19.4228 C   0  0  0  0  0  0  0  0  0  0  0  0
    7.9531  -13.9771   21.4536 C   0  0  0  0  0  0  0  0  0  0  0  0
    9.1940  -14.6730   21.8944 C   0  0  2  0  0  0  0  0  0  0  0  0
    9.0784  -16.1024   21.6185 N   0  0  0  0  0  0  0  0  0  0  0  0
    9.3748  -14.5247   23.3748 C   0  0  0  0  0  0  0  0  0  0  0  0
    9.6501  -13.4125   23.8835 O   0  0  0  0  0  0  0  0  0  0  0  0
    8.0205  -12.4887   26.5285 C   0  0  0  0  0  0  0  0  0  0  0  0
    7.0681  -13.7419   26.6181 C   0  0  1  0  0  0  0  0  0  0  0  0
    5.6871  -13.1468   26.3585 C   0  0  0  0  0  0  0  0  0  0  0  0
    7.4540  -14.6597   25.5249 C   0  0  0  0  0  0  0  0  0  0  0  0
    8.7326  -15.3789   25.6275 C   0  0  2  0  0  0  0  0  0  0  0  0
    9.2417  -15.6292   24.2442 N   0  0  0  0  0  0  0  0  0  0  0  0
    8.8172  -16.6667   26.3058 C   0  0  0  0  0  0  0  0  0  0  0  0
    8.5487  -17.7596   25.6698 O   0  0  0  0  0  0  0  0  0  0  0  0
    9.1770  -16.9048   27.6231 O   0  0  0  0  0  0  0  0  0  0  0  0
  2  1  1  6
  2  9  1  0
  2  3  1  0
  3  4  1  0
  4  8  1  0
  4  5  2  0
  5  6  1  0
  7  6  1  0
  8  7  2  0
  9 10  2  0
 12 14  1  0
 12 11  1  1
 13 12  1  0
 15 14  1  1
 15 16  1  0
 16  9  1  0
 17 15  1  0
 18 17  2  0
 20 22  1  0
 20 19  1  6
 21 20  1  0
 23 22  1  6
 23 25  1  0
 23 24  1  0
 24 17  1  0
 25 27  1  0
 26 25  2  0
M  END
$$$$
