HLL.pdb
     RDKit          3D

 27 27  0  0  1  0  0  0  0  0999 V2000
   10.2174  -19.3825   20.0147 N   0  0  0  0  0  0  0  0  0  0  0  0
    9.1765  -18.8331   20.8327 C   0  0  1  0  0  0  0  0  0  0  0  0
    8.9863  -19.6394   22.1211 C   0  0  0  0  0  0  0  0  0  0  0  0
    8.3510  -20.9186   21.7886 C   0  0  0  0  0  0  0  0  0  0  0  0
    8.6721  -21.7566   20.7670 C   0  0  0  0  0  0  0  0  0  0  0  0
    7.8161  -22.8042   20.8609 N   0  0  0  0  0  0  0  0  0  0  0  0
    6.9846  -22.6343   21.9035 C   0  0  0  0  0  0  0  0  0  0  0  0
    7.3131  -21.4652   22.4821 N   0  0  0  0  0  0  0  0  0  0  0  0
    9.5488  -17.4680   21.2383 C   0  0  0  0  0  0  0  0  0  0  0  0
   10.7708  -17.1573   21.3800 O   0  0  0  0  0  0  0  0  0  0  0  0
    8.3587  -14.0778   18.7958 C   0  0  0  0  0  0  0  0  0  0  0  0
    8.1733  -13.3228   20.0951 C   0  0  1  0  0  0  0  0  0  0  0  0
    6.9669  -12.4180   19.8721 C   0  0  0  0  0  0  0  0  0  0  0  0
    7.8594  -14.2053   21.2428 C   0  0  0  0  0  0  0  0  0  0  0  0
    8.9428  -15.1275   21.6838 C   0  0  2  0  0  0  0  0  0  0  0  0
    8.5271  -16.5106   21.4672 N   0  0  0  0  0  0  0  0  0  0  0  0
    9.1938  -14.9692   23.1529 C   0  0  0  0  0  0  0  0  0  0  0  0
   10.1042  -14.2179   23.5751 O   0  0  0  0  0  0  0  0  0  0  0  0
    5.6943  -12.8493   26.0029 C   0  0  0  0  0  0  0  0  0  0  0  0
    7.1363  -13.2527   25.5091 C   0  0  1  0  0  0  0  0  0  0  0  0
    8.0366  -12.2301   26.1964 C   0  0  0  0  0  0  0  0  0  0  0  0
    7.4062  -14.6130   26.0222 C   0  0  0  0  0  0  0  0  0  0  0  0
    8.6080  -15.3177   25.5512 C   0  0  2  0  0  0  0  0  0  0  0  0
    8.4158  -15.6587   24.1082 N   0  0  0  0  0  0  0  0  0  0  0  0
    9.0476  -16.5562   26.1824 C   0  0  0  0  0  0  0  0  0  0  0  0
    9.1979  -16.6191   27.4648 O   0  0  0  0  0  0  0  0  0  0  0  0
    9.3397  -17.7616   25.5633 O   0  0  0  0  0  0  0  0  0  0  0  0
  2  1  1  6
  2  9  1  0
  2  3  1  0
  3  4  1  0
  4  8  1  0
  4  5  2  0
  5  6  1  0
  7  6  1  0
  8  7  2  0
  9 10  2  0
 12 14  1  0
 12 11  1  6
 13 12  1  0
 15 14  1  1
 15 16  1  0
 16  9  1  0
 17 15  1  0
 18 17  2  0
 20 22  1  0
 20 19  1  1
 21 20  1  0
 23 22  1  1
 23 25  1  0
 23 24  1  0
 24 17  1  0
 25 27  1  0
 26 25  2  0
M  END
$$$$
