HLL.pdb
     RDKit          3D

 27 27  0  0  1  0  0  0  0  0999 V2000
    9.5906  -19.1697   19.9216 N   0  0  0  0  0  0  0  0  0  0  0  0
    8.6511  -18.3868   20.6692 C   0  0  1  0  0  0  0  0  0  0  0  0
    8.1826  -19.1197   21.9300 C   0  0  0  0  0  0  0  0  0  0  0  0
    7.3200  -20.2376   21.5339 C   0  0  0  0  0  0  0  0  0  0  0  0
    6.9967  -20.6206   20.2698 C   0  0  0  0  0  0  0  0  0  0  0  0
    6.1802  -21.6951   20.4030 N   0  0  0  0  0  0  0  0  0  0  0  0
    5.9943  -21.9805   21.7035 C   0  0  0  0  0  0  0  0  0  0  0  0
    6.7000  -21.0783   22.4089 N   0  0  0  0  0  0  0  0  0  0  0  0
    9.3033  -17.1461   21.1181 C   0  0  0  0  0  0  0  0  0  0  0  0
   10.5664  -17.0941   21.2255 O   0  0  0  0  0  0  0  0  0  0  0  0
    6.7877  -12.5349   19.7978 C   0  0  0  0  0  0  0  0  0  0  0  0
    7.8610  -13.5790   20.0219 C   0  0  1  0  0  0  0  0  0  0  0  0
    9.0240  -13.1666   19.1268 C   0  0  0  0  0  0  0  0  0  0  0  0
    8.3632  -13.6095   21.4152 C   0  0  0  0  0  0  0  0  0  0  0  0
    9.1979  -14.7841   21.7919 C   0  0  2  0  0  0  0  0  0  0  0  0
    8.5033  -16.0159   21.4273 N   0  0  0  0  0  0  0  0  0  0  0  0
    9.4053  -14.8196   23.2759 C   0  0  0  0  0  0  0  0  0  0  0  0
   10.3271  -14.1630   23.8149 O   0  0  0  0  0  0  0  0  0  0  0  0
    5.7912  -12.9194   26.1274 C   0  0  0  0  0  0  0  0  0  0  0  0
    7.2187  -13.3289   25.5981 C   0  0  1  0  0  0  0  0  0  0  0  0
    8.1458  -12.3436   26.3041 C   0  0  0  0  0  0  0  0  0  0  0  0
    7.4745  -14.7094   26.0622 C   0  0  0  0  0  0  0  0  0  0  0  0
    8.6866  -15.3971   25.5925 C   0  0  2  0  0  0  0  0  0  0  0  0
    8.5720  -15.5915   24.1145 N   0  0  0  0  0  0  0  0  0  0  0  0
    9.0623  -16.7021   26.1227 C   0  0  0  0  0  0  0  0  0  0  0  0
    9.1141  -16.8991   27.3993 O   0  0  0  0  0  0  0  0  0  0  0  0
    9.3861  -17.8432   25.4054 O   0  0  0  0  0  0  0  0  0  0  0  0
  2  1  1  1
  2  9  1  0
  2  3  1  0
  3  4  1  0
  4  8  1  0
  4  5  2  0
  5  6  1  0
  7  6  1  0
  8  7  2  0
  9 10  2  0
 12 14  1  0
 12 11  1  1
 13 12  1  0
 15 14  1  1
 15 16  1  0
 16  9  1  0
 17 15  1  0
 18 17  2  0
 20 22  1  0
 20 19  1  1
 21 20  1  0
 23 22  1  1
 23 25  1  0
 23 24  1  0
 24 17  1  0
 25 27  1  0
 26 25  2  0
M  END
$$$$
