HLL.pdb
     RDKit          3D

 27 27  0  0  1  0  0  0  0  0999 V2000
    9.8982  -19.0336   19.8009 N   0  0  0  0  0  0  0  0  0  0  0  0
    8.9695  -18.3932   20.6850 C   0  0  1  0  0  0  0  0  0  0  0  0
    8.8152  -19.1666   21.9981 C   0  0  0  0  0  0  0  0  0  0  0  0
    8.0744  -20.4043   21.7334 C   0  0  0  0  0  0  0  0  0  0  0  0
    7.6597  -20.8738   20.5265 C   0  0  0  0  0  0  0  0  0  0  0  0
    7.0209  -22.0426   20.7805 N   0  0  0  0  0  0  0  0  0  0  0  0
    7.0314  -22.3022   22.0995 C   0  0  0  0  0  0  0  0  0  0  0  0
    7.6843  -21.2878   22.6947 N   0  0  0  0  0  0  0  0  0  0  0  0
    9.4783  -17.0577   21.0373 C   0  0  0  0  0  0  0  0  0  0  0  0
   10.7250  -16.8239   21.0088 O   0  0  0  0  0  0  0  0  0  0  0  0
    6.6763  -12.6861   19.3803 C   0  0  0  0  0  0  0  0  0  0  0  0
    7.8373  -13.5942   19.7262 C   0  0  1  0  0  0  0  0  0  0  0  0
    9.0633  -12.9484   19.0907 C   0  0  0  0  0  0  0  0  0  0  0  0
    8.0906  -13.6881   21.1828 C   0  0  0  0  0  0  0  0  0  0  0  0
    9.0948  -14.6993   21.6158 C   0  0  2  0  0  0  0  0  0  0  0  0
    8.5595  -16.0419   21.4070 N   0  0  0  0  0  0  0  0  0  0  0  0
    9.3730  -14.5604   23.0819 C   0  0  0  0  0  0  0  0  0  0  0  0
    9.9687  -13.5541   23.5337 O   0  0  0  0  0  0  0  0  0  0  0  0
    8.7020  -12.6135   27.3186 C   0  0  0  0  0  0  0  0  0  0  0  0
    7.5387  -13.5993   26.9178 C   0  0  1  0  0  0  0  0  0  0  0  0
    6.3147  -12.6894   26.8691 C   0  0  0  0  0  0  0  0  0  0  0  0
    7.8553  -14.1197   25.5704 C   0  0  0  0  0  0  0  0  0  0  0  0
    8.8684  -15.1781   25.4443 C   0  0  2  0  0  0  0  0  0  0  0  0
    8.9749  -15.5552   24.0013 N   0  0  0  0  0  0  0  0  0  0  0  0
    8.7287  -16.4401   26.1608 C   0  0  0  0  0  0  0  0  0  0  0  0
    9.1089  -16.5382   27.3924 O   0  0  0  0  0  0  0  0  0  0  0  0
    8.2030  -17.6295   25.6809 O   0  0  0  0  0  0  0  0  0  0  0  0
  2  1  1  6
  2  9  1  0
  2  3  1  0
  3  4  1  0
  4  8  1  0
  4  5  2  0
  5  6  1  0
  7  6  1  0
  8  7  2  0
  9 10  2  0
 12 14  1  0
 12 11  1  1
 13 12  1  0
 15 14  1  1
 15 16  1  0
 16  9  1  0
 17 15  1  0
 18 17  2  0
 20 22  1  0
 20 19  1  6
 21 20  1  0
 23 22  1  6
 23 25  1  0
 23 24  1  0
 24 17  1  0
 25 27  1  0
 26 25  2  0
M  END
$$$$
