HLL.pdb
     RDKit          3D

 27 27  0  0  1  0  0  0  0  0999 V2000
    9.3807  -17.9016   20.4103 N   0  0  0  0  0  0  0  0  0  0  0  0
    8.7075  -17.9955   21.6722 C   0  0  1  0  0  0  0  0  0  0  0  0
    9.2046  -19.1918   22.4894 C   0  0  0  0  0  0  0  0  0  0  0  0
    8.7754  -20.4278   21.8271 C   0  0  0  0  0  0  0  0  0  0  0  0
    7.5370  -20.9888   21.8533 C   0  0  0  0  0  0  0  0  0  0  0  0
    7.6214  -22.1142   21.1015 N   0  0  0  0  0  0  0  0  0  0  0  0
    8.8674  -22.2590   20.6179 C   0  0  0  0  0  0  0  0  0  0  0  0
    9.5869  -21.2144   21.0658 N   0  0  0  0  0  0  0  0  0  0  0  0
    8.9967  -16.7904   22.4664 C   0  0  0  0  0  0  0  0  0  0  0  0
   10.0757  -16.1494   22.2800 O   0  0  0  0  0  0  0  0  0  0  0  0
    7.3088  -12.1426   24.6063 C   0  0  0  0  0  0  0  0  0  0  0  0
    7.1944  -13.3363   25.5307 C   0  0  1  0  0  0  0  0  0  0  0  0
    5.8895  -13.1376   26.2933 C   0  0  0  0  0  0  0  0  0  0  0  0
    7.0937  -14.6258   24.8084 C   0  0  0  0  0  0  0  0  0  0  0  0
    8.3248  -15.0911   24.1110 C   0  0  2  0  0  0  0  0  0  0  0  0
    8.0567  -16.3589   23.4375 N   0  0  0  0  0  0  0  0  0  0  0  0
    9.4198  -15.3436   25.1027 C   0  0  0  0  0  0  0  0  0  0  0  0
   10.4767  -14.6698   25.0831 O   0  0  0  0  0  0  0  0  0  0  0  0
    8.4456  -14.1870   29.5807 C   0  0  0  0  0  0  0  0  0  0  0  0
    9.4060  -14.4090   28.3502 C   0  0  1  0  0  0  0  0  0  0  0  0
   10.5862  -13.4935   28.6622 C   0  0  0  0  0  0  0  0  0  0  0  0
    9.8249  -15.8268   28.3767 C   0  0  0  0  0  0  0  0  0  0  0  0
   10.3559  -16.4275   27.1438 C   0  0  2  0  0  0  0  0  0  0  0  0
    9.2985  -16.3457   26.0898 N   0  0  0  0  0  0  0  0  0  0  0  0
   10.8145  -17.8111   27.1200 C   0  0  0  0  0  0  0  0  0  0  0  0
   10.1775  -18.6994   26.4298 O   0  0  0  0  0  0  0  0  0  0  0  0
   11.9162  -18.3464   27.7690 O   0  0  0  0  0  0  0  0  0  0  0  0
  2  1  1  6
  2  9  1  0
  2  3  1  0
  3  4  1  0
  4  8  1  0
  4  5  2  0
  5  6  1  0
  7  6  1  0
  8  7  2  0
  9 10  2  0
 12 14  1  0
 12 11  1  6
 13 12  1  0
 15 14  1  1
 15 16  1  0
 16  9  1  0
 17 15  1  0
 18 17  2  0
 20 22  1  0
 20 19  1  1
 21 20  1  0
 23 22  1  1
 23 25  1  0
 23 24  1  0
 24 17  1  0
 25 27  1  0
 26 25  2  0
M  END
$$$$
