HLL.pdb
     RDKit          3D

 27 27  0  0  1  0  0  0  0  0999 V2000
    9.4975  -19.1399   19.8313 N   0  0  0  0  0  0  0  0  0  0  0  0
    8.6090  -18.4312   20.7046 C   0  0  1  0  0  0  0  0  0  0  0  0
    8.2962  -19.2389   21.9679 C   0  0  0  0  0  0  0  0  0  0  0  0
    7.5322  -20.4320   21.5891 C   0  0  0  0  0  0  0  0  0  0  0  0
    7.2301  -20.8514   20.3314 C   0  0  0  0  0  0  0  0  0  0  0  0
    6.5142  -21.9933   20.4809 N   0  0  0  0  0  0  0  0  0  0  0  0
    6.3692  -22.2847   21.7852 C   0  0  0  0  0  0  0  0  0  0  0  0
    6.9996  -21.3182   22.4766 N   0  0  0  0  0  0  0  0  0  0  0  0
    9.2564  -17.1858   21.1476 C   0  0  0  0  0  0  0  0  0  0  0  0
   10.5168  -17.1380   21.2852 O   0  0  0  0  0  0  0  0  0  0  0  0
    6.8139  -12.5036   19.7524 C   0  0  0  0  0  0  0  0  0  0  0  0
    7.8540  -13.5765   19.9967 C   0  0  1  0  0  0  0  0  0  0  0  0
    9.0571  -13.1782   19.1495 C   0  0  0  0  0  0  0  0  0  0  0  0
    8.3059  -13.6405   21.4060 C   0  0  0  0  0  0  0  0  0  0  0  0
    9.1468  -14.8122   21.7784 C   0  0  2  0  0  0  0  0  0  0  0  0
    8.4550  -16.0464   21.4167 N   0  0  0  0  0  0  0  0  0  0  0  0
    9.3614  -14.8473   23.2613 C   0  0  0  0  0  0  0  0  0  0  0  0
   10.2991  -14.2077   23.7934 O   0  0  0  0  0  0  0  0  0  0  0  0
    5.8965  -12.8196   26.3219 C   0  0  0  0  0  0  0  0  0  0  0  0
    7.2791  -13.2793   25.7196 C   0  0  1  0  0  0  0  0  0  0  0  0
    8.2886  -12.4172   26.4721 C   0  0  0  0  0  0  0  0  0  0  0  0
    7.4512  -14.7063   26.0667 C   0  0  0  0  0  0  0  0  0  0  0  0
    8.6493  -15.4091   25.5838 C   0  0  2  0  0  0  0  0  0  0  0  0
    8.5173  -15.5997   24.1067 N   0  0  0  0  0  0  0  0  0  0  0  0
    9.0132  -16.7198   26.1083 C   0  0  0  0  0  0  0  0  0  0  0  0
    8.9295  -17.7701   25.3593 O   0  0  0  0  0  0  0  0  0  0  0  0
    9.4758  -17.0214   27.3797 O   0  0  0  0  0  0  0  0  0  0  0  0
  2  1  1  6
  2  9  1  0
  2  3  1  0
  3  4  1  0
  4  8  1  0
  4  5  2  0
  5  6  1  0
  7  6  1  0
  8  7  2  0
  9 10  2  0
 12 14  1  0
 12 11  1  1
 13 12  1  0
 15 14  1  1
 15 16  1  0
 16  9  1  0
 17 15  1  0
 18 17  2  0
 20 22  1  0
 20 19  1  1
 21 20  1  0
 23 22  1  1
 23 25  1  0
 23 24  1  0
 24 17  1  0
 25 27  1  0
 26 25  2  0
M  END
$$$$
