HLL.pdb
     RDKit          3D

 27 27  0  0  1  0  0  0  0  0999 V2000
    9.4061  -19.1656   20.1154 N   0  0  0  0  0  0  0  0  0  0  0  0
    8.4895  -18.4220   20.9286 C   0  0  1  0  0  0  0  0  0  0  0  0
    8.1398  -19.1738   22.2166 C   0  0  0  0  0  0  0  0  0  0  0  0
    7.3675  -20.3713   21.8700 C   0  0  0  0  0  0  0  0  0  0  0  0
    7.0457  -20.8118   20.6245 C   0  0  0  0  0  0  0  0  0  0  0  0
    6.3294  -21.9491   20.8046 N   0  0  0  0  0  0  0  0  0  0  0  0
    6.2032  -22.2173   22.1158 C   0  0  0  0  0  0  0  0  0  0  0  0
    6.8460  -21.2406   22.7808 N   0  0  0  0  0  0  0  0  0  0  0  0
    9.1200  -17.1557   21.3352 C   0  0  0  0  0  0  0  0  0  0  0  0
   10.3834  -17.0708   21.4150 O   0  0  0  0  0  0  0  0  0  0  0  0
    6.8930  -12.4575   19.7448 C   0  0  0  0  0  0  0  0  0  0  0  0
    7.8782  -13.5504   20.1019 C   0  0  1  0  0  0  0  0  0  0  0  0
    9.1809  -13.1668   19.4094 C   0  0  0  0  0  0  0  0  0  0  0  0
    8.1562  -13.6332   21.5547 C   0  0  0  0  0  0  0  0  0  0  0  0
    8.9700  -14.7957   22.0072 C   0  0  2  0  0  0  0  0  0  0  0  0
    8.2990  -16.0381   21.6348 N   0  0  0  0  0  0  0  0  0  0  0  0
    9.0932  -14.7936   23.5009 C   0  0  0  0  0  0  0  0  0  0  0  0
    9.6984  -13.8721   24.0976 O   0  0  0  0  0  0  0  0  0  0  0  0
    5.7959  -12.8839   26.2686 C   0  0  0  0  0  0  0  0  0  0  0  0
    7.2203  -13.4097   25.8438 C   0  0  1  0  0  0  0  0  0  0  0  0
    8.1544  -12.7160   26.8311 C   0  0  0  0  0  0  0  0  0  0  0  0
    7.2258  -14.8723   26.0607 C   0  0  0  0  0  0  0  0  0  0  0  0
    8.4545  -15.6238   25.7635 C   0  0  2  0  0  0  0  0  0  0  0  0
    8.5336  -15.8263   24.2843 N   0  0  0  0  0  0  0  0  0  0  0  0
    8.6877  -16.9408   26.3436 C   0  0  0  0  0  0  0  0  0  0  0  0
    8.5088  -18.0079   25.6363 O   0  0  0  0  0  0  0  0  0  0  0  0
    9.1109  -17.2332   27.6309 O   0  0  0  0  0  0  0  0  0  0  0  0
  2  1  1  6
  2  9  1  0
  2  3  1  0
  3  4  1  0
  4  8  1  0
  4  5  2  0
  5  6  1  0
  7  6  1  0
  8  7  2  0
  9 10  2  0
 12 14  1  0
 12 11  1  1
 13 12  1  0
 15 14  1  1
 15 16  1  0
 16  9  1  0
 17 15  1  0
 18 17  2  0
 20 22  1  0
 20 19  1  1
 21 20  1  0
 23 22  1  6
 23 25  1  0
 23 24  1  0
 24 17  1  0
 25 27  1  0
 26 25  2  0
M  END
$$$$
