FNA.pdb
     RDKit          3D

 25 25  0  0  1  0  0  0  0  0999 V2000
    6.5773  -16.8737   23.5315 N   0  0  0  0  0  0  0  0  0  0  0  0
    7.4777  -16.0869   24.3013 C   0  0  1  0  0  0  0  0  0  0  0  0
    6.8276  -15.7767   25.6318 C   0  0  0  0  0  0  0  0  0  0  0  0
    6.7828  -14.3298   25.8855 C   0  0  0  0  0  0  0  0  0  0  0  0
    5.5887  -13.6485   25.7973 C   0  0  0  0  0  0  0  0  0  0  0  0
    5.5536  -12.2947   26.0358 C   0  0  0  0  0  0  0  0  0  0  0  0
    6.7274  -11.6577   26.3587 C   0  0  0  0  0  0  0  0  0  0  0  0
    7.9345  -12.3303   26.4508 C   0  0  0  0  0  0  0  0  0  0  0  0
    7.9667  -13.6883   26.2110 C   0  0  0  0  0  0  0  0  0  0  0  0
    8.8275  -16.6304   24.4350 C   0  0  0  0  0  0  0  0  0  0  0  0
    8.9593  -17.8391   24.7593 O   0  0  0  0  0  0  0  0  0  0  0  0
   11.3775  -17.2813   21.5692 N   0  0  0  0  0  0  0  0  0  0  0  0
   11.9294  -16.0489   21.9918 C   0  0  0  0  0  0  0  0  0  0  0  0
   12.0253  -15.1380   21.1328 O   0  0  0  0  0  0  0  0  0  0  0  0
   12.3501  -15.9161   23.3940 C   0  0  0  0  0  0  0  0  0  0  0  0
   11.3426  -16.3914   24.3845 C   0  0  2  0  0  0  0  0  0  0  0  0
   10.0261  -15.9112   24.2302 N   0  0  0  0  0  0  0  0  0  0  0  0
   11.8303  -16.1220   25.7552 C   0  0  0  0  0  0  0  0  0  0  0  0
   13.0296  -16.2458   26.1022 O   0  0  0  0  0  0  0  0  0  0  0  0
   10.6092  -14.1746   28.5510 C   0  0  0  0  0  0  0  0  0  0  0  0
   11.2334  -15.4962   28.1282 C   0  0  2  0  0  0  0  0  0  0  0  0
   10.9021  -15.7007   26.7379 N   0  0  0  0  0  0  0  0  0  0  0  0
   10.6310  -16.5905   28.9282 C   0  0  0  0  0  0  0  0  0  0  0  0
   10.8869  -16.7622   30.2798 O   0  0  0  0  0  0  0  0  0  0  0  0
    9.8433  -17.4278   28.3969 O   0  0  0  0  0  0  0  0  0  0  0  0
  2  1  1  1
  2 10  1  0
  3  2  1  0
  4  3  1  0
  5  4  2  0
  6  5  1  0
  7  6  2  0
  7  8  1  0
  8  9  2  0
  9  4  1  0
 10 11  2  0
 10 17  1  0
 13 12  1  0
 14 13  2  0
 15 13  1  0
 16 15  1  6
 17 16  1  0
 18 22  1  0
 18 16  1  0
 19 18  2  0
 21 20  1  1
 21 23  1  0
 21 22  1  0
 23 24  1  0
 25 23  2  0
M  END
$$$$
