FNA.pdb
     RDKit          3D

 25 25  0  0  1  0  0  0  0  0999 V2000
    6.2890  -16.3665   25.6398 N   0  0  0  0  0  0  0  0  0  0  0  0
    7.4079  -15.8557   24.9259 C   0  0  1  0  0  0  0  0  0  0  0  0
    8.1876  -14.9414   25.8452 C   0  0  0  0  0  0  0  0  0  0  0  0
    7.4402  -13.7115   26.1429 C   0  0  0  0  0  0  0  0  0  0  0  0
    6.3860  -13.3314   25.3417 C   0  0  0  0  0  0  0  0  0  0  0  0
    5.6908  -12.1795   25.6256 C   0  0  0  0  0  0  0  0  0  0  0  0
    6.0764  -11.4355   26.7146 C   0  0  0  0  0  0  0  0  0  0  0  0
    7.1340  -11.8060   27.5282 C   0  0  0  0  0  0  0  0  0  0  0  0
    7.8296  -12.9620   27.2409 C   0  0  0  0  0  0  0  0  0  0  0  0
    8.2439  -16.8592   24.2705 C   0  0  0  0  0  0  0  0  0  0  0  0
    8.2378  -18.0339   24.7214 O   0  0  0  0  0  0  0  0  0  0  0  0
   12.8589  -17.5338   20.1512 N   0  0  0  0  0  0  0  0  0  0  0  0
   11.8009  -18.0191   20.9556 C   0  0  0  0  0  0  0  0  0  0  0  0
   11.7994  -19.2459   21.2235 O   0  0  0  0  0  0  0  0  0  0  0  0
   10.7831  -17.0660   21.4206 C   0  0  0  0  0  0  0  0  0  0  0  0
   10.1749  -17.4114   22.7370 C   0  0  2  0  0  0  0  0  0  0  0  0
    9.0775  -16.6303   23.1531 N   0  0  0  0  0  0  0  0  0  0  0  0
   11.2241  -17.4203   23.7802 C   0  0  0  0  0  0  0  0  0  0  0  0
   12.0002  -16.4578   23.9925 O   0  0  0  0  0  0  0  0  0  0  0  0
   11.5855  -18.9824   26.9323 C   0  0  0  0  0  0  0  0  0  0  0  0
   12.3466  -18.7013   25.6453 C   0  0  2  0  0  0  0  0  0  0  0  0
   11.3699  -18.5729   24.5897 N   0  0  0  0  0  0  0  0  0  0  0  0
   13.2256  -19.8575   25.3438 C   0  0  0  0  0  0  0  0  0  0  0  0
   14.3547  -20.1580   26.0899 O   0  0  0  0  0  0  0  0  0  0  0  0
   12.9739  -20.6310   24.3732 O   0  0  0  0  0  0  0  0  0  0  0  0
  2  1  1  1
  2 10  1  0
  3  2  1  0
  4  3  1  0
  5  4  2  0
  6  5  1  0
  7  6  2  0
  7  8  1  0
  8  9  2  0
  9  4  1  0
 10 11  2  0
 10 17  1  0
 13 12  1  0
 14 13  2  0
 15 13  1  0
 16 15  1  6
 17 16  1  0
 18 22  1  0
 18 16  1  0
 19 18  2  0
 21 20  1  1
 21 23  1  0
 21 22  1  0
 23 24  1  0
 25 23  2  0
M  END
$$$$
