FNA.pdb
     RDKit          3D

 25 25  0  0  1  0  0  0  0  0999 V2000
    6.1902  -17.7024   24.1771 N   0  0  0  0  0  0  0  0  0  0  0  0
    6.9439  -16.5348   24.4790 C   0  0  1  0  0  0  0  0  0  0  0  0
    6.3116  -15.8497   25.6707 C   0  0  0  0  0  0  0  0  0  0  0  0
    6.8418  -14.4916   25.8556 C   0  0  0  0  0  0  0  0  0  0  0  0
    7.9437  -14.2819   26.6554 C   0  0  0  0  0  0  0  0  0  0  0  0
    8.4349  -13.0087   26.8243 C   0  0  0  0  0  0  0  0  0  0  0  0
    7.8012  -11.9734   26.1804 C   0  0  0  0  0  0  0  0  0  0  0  0
    6.6929  -12.1700   25.3737 C   0  0  0  0  0  0  0  0  0  0  0  0
    6.2024  -13.4484   25.2061 C   0  0  0  0  0  0  0  0  0  0  0  0
    8.3826  -16.7402   24.6320 C   0  0  0  0  0  0  0  0  0  0  0  0
    8.7824  -17.7824   25.2127 O   0  0  0  0  0  0  0  0  0  0  0  0
   13.8403  -14.7557   22.5759 N   0  0  0  0  0  0  0  0  0  0  0  0
   12.9101  -15.7902   22.8337 C   0  0  0  0  0  0  0  0  0  0  0  0
   13.3647  -16.9546   22.9530 O   0  0  0  0  0  0  0  0  0  0  0  0
   11.4871  -15.4386   22.9439 C   0  0  0  0  0  0  0  0  0  0  0  0
   10.7655  -16.1389   24.0445 C   0  0  2  0  0  0  0  0  0  0  0  0
    9.3902  -15.8596   24.1794 N   0  0  0  0  0  0  0  0  0  0  0  0
   11.4662  -15.9015   25.3258 C   0  0  0  0  0  0  0  0  0  0  0  0
   12.7110  -15.9791   25.4612 O   0  0  0  0  0  0  0  0  0  0  0  0
   10.5202  -14.1865   28.4088 C   0  0  0  0  0  0  0  0  0  0  0  0
   11.2591  -15.3607   27.7842 C   0  0  2  0  0  0  0  0  0  0  0  0
   10.7005  -15.5675   26.4690 N   0  0  0  0  0  0  0  0  0  0  0  0
   11.0144  -16.5734   28.6026 C   0  0  0  0  0  0  0  0  0  0  0  0
   11.4755  -16.7084   29.9030 O   0  0  0  0  0  0  0  0  0  0  0  0
   10.3613  -17.5529   28.1358 O   0  0  0  0  0  0  0  0  0  0  0  0
  2  1  1  1
  2 10  1  0
  3  2  1  0
  4  3  1  0
  5  4  2  0
  6  5  1  0
  7  6  2  0
  7  8  1  0
  8  9  2  0
  9  4  1  0
 10 11  2  0
 10 17  1  0
 13 12  1  0
 14 13  2  0
 15 13  1  0
 16 15  1  6
 17 16  1  0
 18 22  1  0
 18 16  1  0
 19 18  2  0
 21 20  1  1
 21 23  1  0
 21 22  1  0
 23 24  1  0
 25 23  2  0
M  END
$$$$
