FNA.pdb
     RDKit          3D

 25 25  0  0  1  0  0  0  0  0999 V2000
    8.4847  -15.3053   15.6662 N   0  0  0  0  0  0  0  0  0  0  0  0
    8.8150  -14.7294   16.9238 C   0  0  1  0  0  0  0  0  0  0  0  0
    7.5968  -14.0067   17.4558 C   0  0  0  0  0  0  0  0  0  0  0  0
    7.7714  -13.6200   18.8629 C   0  0  0  0  0  0  0  0  0  0  0  0
    7.3192  -14.4457   19.8687 C   0  0  0  0  0  0  0  0  0  0  0  0
    7.4856  -14.0780   21.1832 C   0  0  0  0  0  0  0  0  0  0  0  0
    8.1062  -12.8822   21.4534 C   0  0  0  0  0  0  0  0  0  0  0  0
    8.5654  -12.0428   20.4522 C   0  0  0  0  0  0  0  0  0  0  0  0
    8.3971  -12.4143   19.1345 C   0  0  0  0  0  0  0  0  0  0  0  0
    9.4088  -15.6451   17.8955 C   0  0  0  0  0  0  0  0  0  0  0  0
    8.9744  -16.8246   17.9531 O   0  0  0  0  0  0  0  0  0  0  0  0
   13.2436  -18.8265   19.6052 N   0  0  0  0  0  0  0  0  0  0  0  0
   13.3020  -17.4697   20.0025 C   0  0  0  0  0  0  0  0  0  0  0  0
   13.9555  -17.2032   21.0411 O   0  0  0  0  0  0  0  0  0  0  0  0
   12.6015  -16.4710   19.1824 C   0  0  0  0  0  0  0  0  0  0  0  0
   11.1902  -16.2212   19.5924 C   0  0  2  0  0  0  0  0  0  0  0  0
   10.4481  -15.3245   18.7970 N   0  0  0  0  0  0  0  0  0  0  0  0
   11.1535  -15.8014   21.0107 C   0  0  0  0  0  0  0  0  0  0  0  0
   11.6051  -14.7057   21.4224 O   0  0  0  0  0  0  0  0  0  0  0  0
    9.1775  -16.8810   23.8872 C   0  0  0  0  0  0  0  0  0  0  0  0
   10.5323  -16.4066   23.3829 C   0  0  2  0  0  0  0  0  0  0  0  0
   10.5795  -16.6758   21.9651 N   0  0  0  0  0  0  0  0  0  0  0  0
   11.5971  -17.1921   24.0532 C   0  0  0  0  0  0  0  0  0  0  0  0
   11.9903  -16.9612   25.3624 O   0  0  0  0  0  0  0  0  0  0  0  0
   12.2011  -18.1233   23.4435 O   0  0  0  0  0  0  0  0  0  0  0  0
  2  1  1  6
  2 10  1  0
  3  2  1  0
  4  3  1  0
  5  4  2  0
  6  5  1  0
  7  6  2  0
  7  8  1  0
  8  9  2  0
  9  4  1  0
 10 11  2  0
 10 17  1  0
 13 12  1  0
 14 13  2  0
 15 13  1  0
 16 15  1  6
 17 16  1  0
 18 22  1  0
 18 16  1  0
 19 18  2  0
 21 20  1  1
 21 23  1  0
 21 22  1  0
 23 24  1  0
 25 23  2  0
M  END
$$$$
