FNA.pdb
     RDKit          3D

 25 25  0  0  1  0  0  0  0  0999 V2000
    5.2467  -17.4877   24.3878 N   0  0  0  0  0  0  0  0  0  0  0  0
    6.1129  -16.3643   24.4882 C   0  0  1  0  0  0  0  0  0  0  0  0
    6.4386  -16.1380   25.9483 C   0  0  0  0  0  0  0  0  0  0  0  0
    6.9795  -14.7909   26.1773 C   0  0  0  0  0  0  0  0  0  0  0  0
    8.3418  -14.5907   26.2226 C   0  0  0  0  0  0  0  0  0  0  0  0
    8.8415  -13.3277   26.4372 C   0  0  0  0  0  0  0  0  0  0  0  0
    7.9527  -12.2929   26.6016 C   0  0  0  0  0  0  0  0  0  0  0  0
    6.5812  -12.4800   26.5585 C   0  0  0  0  0  0  0  0  0  0  0  0
    6.0828  -13.7481   26.3430 C   0  0  0  0  0  0  0  0  0  0  0  0
    7.2991  -16.4099   23.6361 C   0  0  0  0  0  0  0  0  0  0  0  0
    7.8763  -17.5154   23.4682 O   0  0  0  0  0  0  0  0  0  0  0  0
    7.2765  -13.0779   19.7868 N   0  0  0  0  0  0  0  0  0  0  0  0
    8.0044  -14.2610   20.0561 C   0  0  0  0  0  0  0  0  0  0  0  0
    7.7071  -15.2824   19.3889 O   0  0  0  0  0  0  0  0  0  0  0  0
    9.0500  -14.2181   21.0883 C   0  0  0  0  0  0  0  0  0  0  0  0
    8.9728  -15.3228   22.0862 C   0  0  2  0  0  0  0  0  0  0  0  0
    7.8726  -15.3054   22.9676 N   0  0  0  0  0  0  0  0  0  0  0  0
   10.2397  -15.3922   22.8473 C   0  0  0  0  0  0  0  0  0  0  0  0
   11.3715  -15.4427   22.3083 O   0  0  0  0  0  0  0  0  0  0  0  0
   10.9962  -15.0085   26.4729 C   0  0  0  0  0  0  0  0  0  0  0  0
   11.3322  -15.6055   25.1145 C   0  0  2  0  0  0  0  0  0  0  0  0
   10.1846  -15.4029   24.2621 N   0  0  0  0  0  0  0  0  0  0  0  0
   11.5580  -17.0631   25.2720 C   0  0  0  0  0  0  0  0  0  0  0  0
   10.7409  -18.0178   24.6866 O   0  0  0  0  0  0  0  0  0  0  0  0
   12.5257  -17.5012   25.9614 O   0  0  0  0  0  0  0  0  0  0  0  0
  2  1  1  1
  2 10  1  0
  3  2  1  0
  4  3  1  0
  5  4  2  0
  6  5  1  0
  7  6  2  0
  7  8  1  0
  8  9  2  0
  9  4  1  0
 10 11  2  0
 10 17  1  0
 13 12  1  0
 14 13  2  0
 15 13  1  0
 16 15  1  1
 17 16  1  0
 18 22  1  0
 18 16  1  0
 19 18  2  0
 21 20  1  1
 21 23  1  0
 21 22  1  0
 23 24  1  0
 25 23  2  0
M  END
$$$$
