FNA.pdb
     RDKit          3D

 25 25  0  0  1  0  0  0  0  0999 V2000
    6.0223  -15.6956   24.0887 N   0  0  0  0  0  0  0  0  0  0  0  0
    7.3812  -15.3773   24.3613 C   0  0  1  0  0  0  0  0  0  0  0  0
    7.4452  -14.6293   25.6749 C   0  0  0  0  0  0  0  0  0  0  0  0
    6.7208  -13.3526   25.6039 C   0  0  0  0  0  0  0  0  0  0  0  0
    5.4652  -13.2376   26.1590 C   0  0  0  0  0  0  0  0  0  0  0  0
    4.7927  -12.0402   26.0892 C   0  0  0  0  0  0  0  0  0  0  0  0
    5.4043  -10.9834   25.4590 C   0  0  0  0  0  0  0  0  0  0  0  0
    6.6658  -11.0852   24.8968 C   0  0  0  0  0  0  0  0  0  0  0  0
    7.3380  -12.2876   24.9684 C   0  0  0  0  0  0  0  0  0  0  0  0
    8.3132  -16.5009   24.2949 C   0  0  0  0  0  0  0  0  0  0  0  0
    8.1304  -17.3821   23.4154 O   0  0  0  0  0  0  0  0  0  0  0  0
   13.0153  -17.3352   22.4731 N   0  0  0  0  0  0  0  0  0  0  0  0
   12.6428  -16.2078   23.2426 C   0  0  0  0  0  0  0  0  0  0  0  0
   13.5577  -15.4195   23.5864 O   0  0  0  0  0  0  0  0  0  0  0  0
   11.2241  -16.0343   23.5861 C   0  0  0  0  0  0  0  0  0  0  0  0
   10.7742  -16.8371   24.7590 C   0  0  2  0  0  0  0  0  0  0  0  0
    9.4253  -16.6963   25.1439 N   0  0  0  0  0  0  0  0  0  0  0  0
   11.6668  -16.5758   25.9097 C   0  0  0  0  0  0  0  0  0  0  0  0
   12.9065  -16.7666   25.8841 O   0  0  0  0  0  0  0  0  0  0  0  0
   11.2569  -14.8361   29.1417 C   0  0  0  0  0  0  0  0  0  0  0  0
   11.8050  -16.0280   28.3714 C   0  0  2  0  0  0  0  0  0  0  0  0
   11.1025  -16.0831   27.1112 N   0  0  0  0  0  0  0  0  0  0  0  0
   11.5159  -17.2675   29.1332 C   0  0  0  0  0  0  0  0  0  0  0  0
   10.6834  -18.2672   28.6543 O   0  0  0  0  0  0  0  0  0  0  0  0
   12.0286  -17.4649   30.2742 O   0  0  0  0  0  0  0  0  0  0  0  0
  2  1  1  1
  2 10  1  0
  3  2  1  0
  4  3  1  0
  5  4  2  0
  6  5  1  0
  7  6  2  0
  7  8  1  0
  8  9  2  0
  9  4  1  0
 10 11  2  0
 10 17  1  0
 13 12  1  0
 14 13  2  0
 15 13  1  0
 16 15  1  6
 17 16  1  0
 18 22  1  0
 18 16  1  0
 19 18  2  0
 21 20  1  1
 21 23  1  0
 21 22  1  0
 23 24  1  0
 25 23  2  0
M  END
$$$$
