FNA.pdb
     RDKit          3D

 25 25  0  0  1  0  0  0  0  0999 V2000
    6.0747  -17.6454   24.0937 N   0  0  0  0  0  0  0  0  0  0  0  0
    6.8380  -16.5023   24.4582 C   0  0  1  0  0  0  0  0  0  0  0  0
    6.2096  -15.8759   25.6838 C   0  0  0  0  0  0  0  0  0  0  0  0
    6.5460  -14.4495   25.7926 C   0  0  0  0  0  0  0  0  0  0  0  0
    7.6306  -13.9405   25.1126 C   0  0  0  0  0  0  0  0  0  0  0  0
    7.9400  -12.6048   25.2187 C   0  0  0  0  0  0  0  0  0  0  0  0
    7.1457  -11.8113   26.0107 C   0  0  0  0  0  0  0  0  0  0  0  0
    6.0527  -12.3098   26.6996 C   0  0  0  0  0  0  0  0  0  0  0  0
    5.7447  -13.6501   26.5913 C   0  0  0  0  0  0  0  0  0  0  0  0
    8.2746  -16.7282   24.6018 C   0  0  0  0  0  0  0  0  0  0  0  0
    8.6629  -17.7173   25.2758 O   0  0  0  0  0  0  0  0  0  0  0  0
   13.2081  -17.0968   22.2737 N   0  0  0  0  0  0  0  0  0  0  0  0
   12.8788  -15.8653   22.8877 C   0  0  0  0  0  0  0  0  0  0  0  0
   13.8270  -15.1781   23.3409 O   0  0  0  0  0  0  0  0  0  0  0  0
   11.4634  -15.4746   22.9546 C   0  0  0  0  0  0  0  0  0  0  0  0
   10.6682  -16.2207   23.9711 C   0  0  2  0  0  0  0  0  0  0  0  0
    9.2921  -15.9231   24.0431 N   0  0  0  0  0  0  0  0  0  0  0  0
   11.2973  -16.0678   25.3016 C   0  0  0  0  0  0  0  0  0  0  0  0
   12.4285  -16.5263   25.5916 O   0  0  0  0  0  0  0  0  0  0  0  0
   10.4929  -13.8174   28.1248 C   0  0  0  0  0  0  0  0  0  0  0  0
   11.1144  -15.1165   27.6342 C   0  0  2  0  0  0  0  0  0  0  0  0
   10.5936  -15.3674   26.3111 N   0  0  0  0  0  0  0  0  0  0  0  0
   10.6921  -16.2205   28.5303 C   0  0  0  0  0  0  0  0  0  0  0  0
   11.0777  -16.2989   29.8596 O   0  0  0  0  0  0  0  0  0  0  0  0
    9.9477  -17.1537   28.1075 O   0  0  0  0  0  0  0  0  0  0  0  0
  2  1  1  1
  2 10  1  0
  3  2  1  0
  4  3  1  0
  5  4  2  0
  6  5  1  0
  7  6  2  0
  7  8  1  0
  8  9  2  0
  9  4  1  0
 10 11  2  0
 10 17  1  0
 13 12  1  0
 14 13  2  0
 15 13  1  0
 16 15  1  6
 17 16  1  0
 18 22  1  0
 18 16  1  0
 19 18  2  0
 21 20  1  1
 21 23  1  0
 21 22  1  0
 23 24  1  0
 25 23  2  0
M  END
$$$$
