FNA.pdb
     RDKit          3D

 25 25  0  0  1  0  0  0  0  0999 V2000
    5.6612  -17.3872   25.2363 N   0  0  0  0  0  0  0  0  0  0  0  0
    6.4580  -16.2259   25.0385 C   0  0  1  0  0  0  0  0  0  0  0  0
    6.9032  -15.7130   26.3905 C   0  0  0  0  0  0  0  0  0  0  0  0
    6.8973  -14.2442   26.4384 C   0  0  0  0  0  0  0  0  0  0  0  0
    5.7408  -13.5668   26.7569 C   0  0  0  0  0  0  0  0  0  0  0  0
    5.7420  -12.1924   26.7999 C   0  0  0  0  0  0  0  0  0  0  0  0
    6.9135  -11.5312   26.5197 C   0  0  0  0  0  0  0  0  0  0  0  0
    8.0830  -12.1995   26.1981 C   0  0  0  0  0  0  0  0  0  0  0  0
    8.0788  -13.5783   26.1558 C   0  0  0  0  0  0  0  0  0  0  0  0
    7.5599  -16.3763   24.0906 C   0  0  0  0  0  0  0  0  0  0  0  0
    8.2929  -17.3953   24.1780 O   0  0  0  0  0  0  0  0  0  0  0  0
    7.0088  -13.3723   20.0272 N   0  0  0  0  0  0  0  0  0  0  0  0
    7.6601  -14.6129   20.2240 C   0  0  0  0  0  0  0  0  0  0  0  0
    7.1139  -15.6322   19.7347 O   0  0  0  0  0  0  0  0  0  0  0  0
    8.9205  -14.6280   20.9803 C   0  0  0  0  0  0  0  0  0  0  0  0
    8.9366  -15.5806   22.1269 C   0  0  2  0  0  0  0  0  0  0  0  0
    7.8878  -15.4653   23.0619 N   0  0  0  0  0  0  0  0  0  0  0  0
   10.2461  -15.5086   22.8121 C   0  0  0  0  0  0  0  0  0  0  0  0
   10.7348  -14.4459   23.2657 O   0  0  0  0  0  0  0  0  0  0  0  0
   12.5083  -18.2155   24.0278 C   0  0  0  0  0  0  0  0  0  0  0  0
   12.2764  -16.7631   23.6385 C   0  0  2  0  0  0  0  0  0  0  0  0
   10.9981  -16.6978   22.9705 N   0  0  0  0  0  0  0  0  0  0  0  0
   13.3342  -16.3455   22.6862 C   0  0  0  0  0  0  0  0  0  0  0  0
   14.5931  -15.9327   23.0946 O   0  0  0  0  0  0  0  0  0  0  0  0
   13.1245  -16.3498   21.4373 O   0  0  0  0  0  0  0  0  0  0  0  0
  2  1  1  1
  2 10  1  0
  3  2  1  0
  4  3  1  0
  5  4  2  0
  6  5  1  0
  7  6  2  0
  7  8  1  0
  8  9  2  0
  9  4  1  0
 10 11  2  0
 10 17  1  0
 13 12  1  0
 14 13  2  0
 15 13  1  0
 16 15  1  6
 17 16  1  0
 18 22  1  0
 18 16  1  0
 19 18  2  0
 21 20  1  6
 21 23  1  0
 21 22  1  0
 23 24  1  0
 25 23  2  0
M  END
$$$$
