FNA.pdb
     RDKit          3D

 25 25  0  0  1  0  0  0  0  0999 V2000
    5.8166  -16.7953   24.3482 N   0  0  0  0  0  0  0  0  0  0  0  0
    6.9785  -16.0063   24.5709 C   0  0  1  0  0  0  0  0  0  0  0  0
    6.9353  -15.4767   25.9875 C   0  0  0  0  0  0  0  0  0  0  0  0
    6.8057  -14.0130   26.0120 C   0  0  0  0  0  0  0  0  0  0  0  0
    7.8164  -13.2205   25.5138 C   0  0  0  0  0  0  0  0  0  0  0  0
    7.6890  -11.8515   25.5397 C   0  0  0  0  0  0  0  0  0  0  0  0
    6.5415  -11.3123   26.0692 C   0  0  0  0  0  0  0  0  0  0  0  0
    5.5180  -12.0971   26.5734 C   0  0  0  0  0  0  0  0  0  0  0  0
    5.6486  -13.4701   26.5461 C   0  0  0  0  0  0  0  0  0  0  0  0
    8.2468  -16.6511   24.2379 C   0  0  0  0  0  0  0  0  0  0  0  0
    8.3626  -17.8882   24.4373 O   0  0  0  0  0  0  0  0  0  0  0  0
   10.2092  -17.5690   20.8392 N   0  0  0  0  0  0  0  0  0  0  0  0
   10.8020  -16.3066   21.0775 C   0  0  0  0  0  0  0  0  0  0  0  0
   10.7260  -15.4539   20.1589 O   0  0  0  0  0  0  0  0  0  0  0  0
   11.4613  -16.0774   22.3712 C   0  0  0  0  0  0  0  0  0  0  0  0
   10.6759  -16.5404   23.5506 C   0  0  2  0  0  0  0  0  0  0  0  0
    9.3814  -16.0028   23.7011 N   0  0  0  0  0  0  0  0  0  0  0  0
   11.4656  -16.3316   24.7843 C   0  0  0  0  0  0  0  0  0  0  0  0
   12.6181  -16.7958   24.9578 O   0  0  0  0  0  0  0  0  0  0  0  0
   10.8224  -14.1816   27.7767 C   0  0  0  0  0  0  0  0  0  0  0  0
   11.5425  -15.3425   27.1071 C   0  0  2  0  0  0  0  0  0  0  0  0
   10.9000  -15.5676   25.8338 N   0  0  0  0  0  0  0  0  0  0  0  0
   11.3806  -16.5563   27.9442 C   0  0  0  0  0  0  0  0  0  0  0  0
   10.5449  -17.6053   27.5934 O   0  0  0  0  0  0  0  0  0  0  0  0
   12.0124  -16.6844   29.0342 O   0  0  0  0  0  0  0  0  0  0  0  0
  2  1  1  1
  2 10  1  0
  3  2  1  0
  4  3  1  0
  5  4  2  0
  6  5  1  0
  7  6  2  0
  7  8  1  0
  8  9  2  0
  9  4  1  0
 10 11  2  0
 10 17  1  0
 13 12  1  0
 14 13  2  0
 15 13  1  0
 16 15  1  6
 17 16  1  0
 18 22  1  0
 18 16  1  0
 19 18  2  0
 21 20  1  1
 21 23  1  0
 21 22  1  0
 23 24  1  0
 25 23  2  0
M  END
$$$$
