FNA.pdb
     RDKit          3D

 25 25  0  0  1  0  0  0  0  0999 V2000
    5.8211  -17.1457   23.6023 N   0  0  0  0  0  0  0  0  0  0  0  0
    6.8055  -16.2161   24.0374 C   0  0  1  0  0  0  0  0  0  0  0  0
    6.4379  -15.7422   25.4265 C   0  0  0  0  0  0  0  0  0  0  0  0
    6.5208  -14.2791   25.5364 C   0  0  0  0  0  0  0  0  0  0  0  0
    7.6815  -13.6237   25.1885 C   0  0  0  0  0  0  0  0  0  0  0  0
    7.7526  -12.2545   25.2936 C   0  0  0  0  0  0  0  0  0  0  0  0
    6.6477  -11.5761   25.7486 C   0  0  0  0  0  0  0  0  0  0  0  0
    5.4748  -12.2223   26.1016 C   0  0  0  0  0  0  0  0  0  0  0  0
    5.4064  -13.5959   25.9951 C   0  0  0  0  0  0  0  0  0  0  0  0
    8.1890  -16.6751   23.9352 C   0  0  0  0  0  0  0  0  0  0  0  0
    8.5255  -17.3496   22.9276 O   0  0  0  0  0  0  0  0  0  0  0  0
   10.1763  -15.4322   21.1255 N   0  0  0  0  0  0  0  0  0  0  0  0
   10.7474  -16.2108   22.1597 C   0  0  0  0  0  0  0  0  0  0  0  0
   10.9829  -17.4179   21.9065 O   0  0  0  0  0  0  0  0  0  0  0  0
   11.0250  -15.5630   23.4497 C   0  0  0  0  0  0  0  0  0  0  0  0
   10.5946  -16.3532   24.6383 C   0  0  2  0  0  0  0  0  0  0  0  0
    9.2080  -16.4279   24.8818 N   0  0  0  0  0  0  0  0  0  0  0  0
   11.3020  -15.8626   25.8417 C   0  0  0  0  0  0  0  0  0  0  0  0
   12.5393  -15.6598   25.8853 O   0  0  0  0  0  0  0  0  0  0  0  0
   10.2773  -14.2171   28.9388 C   0  0  0  0  0  0  0  0  0  0  0  0
   11.1380  -15.2953   28.2974 C   0  0  2  0  0  0  0  0  0  0  0  0
   10.5520  -15.6041   27.0145 N   0  0  0  0  0  0  0  0  0  0  0  0
   11.0972  -16.5115   29.1457 C   0  0  0  0  0  0  0  0  0  0  0  0
   10.5536  -17.7113   28.7137 O   0  0  0  0  0  0  0  0  0  0  0  0
   11.5670  -16.5011   30.3216 O   0  0  0  0  0  0  0  0  0  0  0  0
  2  1  1  1
  2 10  1  0
  3  2  1  0
  4  3  1  0
  5  4  2  0
  6  5  1  0
  7  6  2  0
  7  8  1  0
  8  9  2  0
  9  4  1  0
 10 11  2  0
 10 17  1  0
 13 12  1  0
 14 13  2  0
 15 13  1  0
 16 15  1  6
 17 16  1  0
 18 22  1  0
 18 16  1  0
 19 18  2  0
 21 20  1  1
 21 23  1  0
 21 22  1  0
 23 24  1  0
 25 23  2  0
M  END
$$$$
