FNA.pdb
     RDKit          3D

 25 25  0  0  1  0  0  0  0  0999 V2000
    6.9033  -16.7273   22.3531 N   0  0  0  0  0  0  0  0  0  0  0  0
    8.2534  -16.4069   22.6646 C   0  0  1  0  0  0  0  0  0  0  0  0
    8.3393  -14.9258   22.9615 C   0  0  0  0  0  0  0  0  0  0  0  0
    7.9525  -14.1191   21.7956 C   0  0  0  0  0  0  0  0  0  0  0  0
    7.3237  -12.9060   21.9714 C   0  0  0  0  0  0  0  0  0  0  0  0
    6.9642  -12.1560   20.8764 C   0  0  0  0  0  0  0  0  0  0  0  0
    7.2483  -12.6487   19.6255 C   0  0  0  0  0  0  0  0  0  0  0  0
    7.8798  -13.8663   19.4345 C   0  0  0  0  0  0  0  0  0  0  0  0
    8.2392  -14.6165   20.5349 C   0  0  0  0  0  0  0  0  0  0  0  0
    8.8717  -17.2359   23.6970 C   0  0  0  0  0  0  0  0  0  0  0  0
    8.7681  -18.4866   23.6055 O   0  0  0  0  0  0  0  0  0  0  0  0
   11.4892  -18.9089   23.3148 N   0  0  0  0  0  0  0  0  0  0  0  0
   12.1228  -17.6888   22.9806 C   0  0  0  0  0  0  0  0  0  0  0  0
   12.9051  -17.6982   21.9984 O   0  0  0  0  0  0  0  0  0  0  0  0
   11.8274  -16.5020   23.7960 C   0  0  0  0  0  0  0  0  0  0  0  0
   10.9888  -16.7764   24.9976 C   0  0  2  0  0  0  0  0  0  0  0  0
    9.5912  -16.7554   24.8138 N   0  0  0  0  0  0  0  0  0  0  0  0
   11.3769  -15.8596   26.0922 C   0  0  0  0  0  0  0  0  0  0  0  0
   12.5334  -15.8057   26.5755 O   0  0  0  0  0  0  0  0  0  0  0  0
    9.4048  -13.2988   27.9935 C   0  0  0  0  0  0  0  0  0  0  0  0
   10.5181  -14.3326   27.9115 C   0  0  2  0  0  0  0  0  0  0  0  0
   10.3980  -14.9905   26.6319 N   0  0  0  0  0  0  0  0  0  0  0  0
   10.3216  -15.3374   28.9848 C   0  0  0  0  0  0  0  0  0  0  0  0
    9.8218  -16.6076   28.7430 O   0  0  0  0  0  0  0  0  0  0  0  0
   10.6087  -15.0687   30.1886 O   0  0  0  0  0  0  0  0  0  0  0  0
  2  1  1  1
  2 10  1  0
  3  2  1  0
  4  3  1  0
  5  4  2  0
  6  5  1  0
  7  6  2  0
  7  8  1  0
  8  9  2  0
  9  4  1  0
 10 11  2  0
 10 17  1  0
 13 12  1  0
 14 13  2  0
 15 13  1  0
 16 15  1  6
 17 16  1  0
 18 22  1  0
 18 16  1  0
 19 18  2  0
 21 20  1  6
 21 23  1  0
 21 22  1  0
 23 24  1  0
 25 23  2  0
M  END
$$$$
