FNA.pdb
     RDKit          3D

 25 25  0  0  1  0  0  0  0  0999 V2000
    6.1792  -16.8266   25.9493 N   0  0  0  0  0  0  0  0  0  0  0  0
    7.0150  -16.3002   24.9261 C   0  0  1  0  0  0  0  0  0  0  0  0
    7.9840  -15.3221   25.5533 C   0  0  0  0  0  0  0  0  0  0  0  0
    7.3225  -14.0572   25.9029 C   0  0  0  0  0  0  0  0  0  0  0  0
    5.9863  -13.8744   25.6219 C   0  0  0  0  0  0  0  0  0  0  0  0
    5.3732  -12.6885   25.9515 C   0  0  0  0  0  0  0  0  0  0  0  0
    6.1246  -11.7115   26.5588 C   0  0  0  0  0  0  0  0  0  0  0  0
    7.4684  -11.8819   26.8469 C   0  0  0  0  0  0  0  0  0  0  0  0
    8.0808  -13.0727   26.5151 C   0  0  0  0  0  0  0  0  0  0  0  0
    7.6708  -17.2946   24.0796 C   0  0  0  0  0  0  0  0  0  0  0  0
    7.7777  -18.4726   24.5088 O   0  0  0  0  0  0  0  0  0  0  0  0
    9.9639  -18.4364   18.5403 N   0  0  0  0  0  0  0  0  0  0  0  0
    9.1172  -18.8352   19.6014 C   0  0  0  0  0  0  0  0  0  0  0  0
    8.9119  -20.0661   19.7407 O   0  0  0  0  0  0  0  0  0  0  0  0
    8.5389  -17.7938   20.4627 C   0  0  0  0  0  0  0  0  0  0  0  0
    8.7756  -18.0013   21.9198 C   0  0  2  0  0  0  0  0  0  0  0  0
    8.2085  -17.0534   22.7958 N   0  0  0  0  0  0  0  0  0  0  0  0
   10.2279  -18.1299   22.1722 C   0  0  0  0  0  0  0  0  0  0  0  0
   10.9549  -18.9906   21.6203 O   0  0  0  0  0  0  0  0  0  0  0  0
   12.7378  -15.8325   23.4480 C   0  0  0  0  0  0  0  0  0  0  0  0
   12.2441  -17.2715   23.4280 C   0  0  2  0  0  0  0  0  0  0  0  0
   10.8421  -17.2383   23.0847 N   0  0  0  0  0  0  0  0  0  0  0  0
   12.3890  -17.8488   24.7867 C   0  0  0  0  0  0  0  0  0  0  0  0
   13.6215  -18.1149   25.3628 O   0  0  0  0  0  0  0  0  0  0  0  0
   11.3717  -18.1267   25.4878 O   0  0  0  0  0  0  0  0  0  0  0  0
  2  1  1  1
  2 10  1  0
  3  2  1  0
  4  3  1  0
  5  4  2  0
  6  5  1  0
  7  6  2  0
  7  8  1  0
  8  9  2  0
  9  4  1  0
 10 11  2  0
 10 17  1  0
 13 12  1  0
 14 13  2  0
 15 13  1  0
 16 15  1  6
 17 16  1  0
 18 22  1  0
 18 16  1  0
 19 18  2  0
 21 20  1  1
 21 23  1  0
 21 22  1  0
 23 24  1  0
 25 23  2  0
M  END
$$$$
