FNA.pdb
     RDKit          3D

 25 25  0  0  1  0  0  0  0  0999 V2000
    5.8850  -17.2568   23.9498 N   0  0  0  0  0  0  0  0  0  0  0  0
    6.8165  -16.2919   24.4227 C   0  0  1  0  0  0  0  0  0  0  0  0
    6.3573  -15.8059   25.7800 C   0  0  0  0  0  0  0  0  0  0  0  0
    6.5681  -14.3598   25.9343 C   0  0  0  0  0  0  0  0  0  0  0  0
    5.5048  -13.5323   26.2221 C   0  0  0  0  0  0  0  0  0  0  0  0
    5.7088  -12.1800   26.3652 C   0  0  0  0  0  0  0  0  0  0  0  0
    6.9844  -11.6923   26.2142 C   0  0  0  0  0  0  0  0  0  0  0  0
    8.0621  -12.5126   25.9249 C   0  0  0  0  0  0  0  0  0  0  0  0
    7.8544  -13.8688   25.7819 C   0  0  0  0  0  0  0  0  0  0  0  0
    8.2159  -16.7121   24.4070 C   0  0  0  0  0  0  0  0  0  0  0  0
    8.4879  -17.9068   24.6936 O   0  0  0  0  0  0  0  0  0  0  0  0
   13.1946  -17.2926   22.2981 N   0  0  0  0  0  0  0  0  0  0  0  0
   12.9016  -16.0666   22.9408 C   0  0  0  0  0  0  0  0  0  0  0  0
   13.8647  -15.4380   23.4448 O   0  0  0  0  0  0  0  0  0  0  0  0
   11.5038  -15.6132   22.9765 C   0  0  0  0  0  0  0  0  0  0  0  0
   10.6741  -16.2648   24.0297 C   0  0  2  0  0  0  0  0  0  0  0  0
    9.3178  -15.8855   24.0934 N   0  0  0  0  0  0  0  0  0  0  0  0
   11.3198  -16.0873   25.3491 C   0  0  0  0  0  0  0  0  0  0  0  0
   12.4647  -16.5194   25.6255 O   0  0  0  0  0  0  0  0  0  0  0  0
   10.4730  -13.8334   28.1657 C   0  0  0  0  0  0  0  0  0  0  0  0
   11.1633  -15.0937   27.6659 C   0  0  2  0  0  0  0  0  0  0  0  0
   10.6168  -15.3933   26.3635 N   0  0  0  0  0  0  0  0  0  0  0  0
   10.8455  -16.2133   28.5856 C   0  0  0  0  0  0  0  0  0  0  0  0
   11.3167  -16.2731   29.8879 O   0  0  0  0  0  0  0  0  0  0  0  0
   10.1163  -17.1780   28.2093 O   0  0  0  0  0  0  0  0  0  0  0  0
  2  1  1  1
  2 10  1  0
  3  2  1  0
  4  3  1  0
  5  4  2  0
  6  5  1  0
  7  6  2  0
  7  8  1  0
  8  9  2  0
  9  4  1  0
 10 11  2  0
 10 17  1  0
 13 12  1  0
 14 13  2  0
 15 13  1  0
 16 15  1  6
 17 16  1  0
 18 22  1  0
 18 16  1  0
 19 18  2  0
 21 20  1  1
 21 23  1  0
 21 22  1  0
 23 24  1  0
 25 23  2  0
M  END
$$$$
