IHI.pdb
     RDKit          3D

 27 27  0  0  1  0  0  0  0  0999 V2000
    7.2740  -11.7125   18.7828 C   0  0  0  0  0  0  0  0  0  0  0  0
    7.7394  -13.1484   18.5264 C   0  0  0  0  0  0  0  0  0  0  0  0
    7.9107  -13.8866   19.8220 C   0  0  2  0  0  0  0  0  0  0  0  0
    8.7687  -13.1052   20.7953 C   0  0  0  0  0  0  0  0  0  0  0  0
    8.3068  -15.3187   19.7150 C   0  0  2  0  0  0  0  0  0  0  0  0
    7.3470  -15.9803   18.8005 N   0  0  0  0  0  0  0  0  0  0  0  0
    8.2485  -16.0784   20.9967 C   0  0  0  0  0  0  0  0  0  0  0  0
    7.1043  -16.3019   21.4628 O   0  0  0  0  0  0  0  0  0  0  0  0
    9.3580  -16.5558   21.7083 N   0  0  0  0  0  0  0  0  0  0  0  0
    9.4836  -17.0384   23.0342 C   0  0  1  0  0  0  0  0  0  0  0  0
   10.4829  -18.1503   23.2620 C   0  0  0  0  0  0  0  0  0  0  0  0
   10.2104  -19.3825   22.5334 C   0  0  0  0  0  0  0  0  0  0  0  0
    9.0526  -19.6260   21.8381 C   0  0  0  0  0  0  0  0  0  0  0  0
    9.1256  -20.8548   21.2835 N   0  0  0  0  0  0  0  0  0  0  0  0
   10.3138  -21.3833   21.6227 C   0  0  0  0  0  0  0  0  0  0  0  0
   10.9715  -20.4727   22.3891 N   0  0  0  0  0  0  0  0  0  0  0  0
    9.6057  -16.0344   24.0902 C   0  0  0  0  0  0  0  0  0  0  0  0
   10.5337  -15.1515   23.9992 O   0  0  0  0  0  0  0  0  0  0  0  0
    6.7284  -11.9383   27.0882 C   0  0  0  0  0  0  0  0  0  0  0  0
    7.8588  -12.9266   27.1558 C   0  0  0  0  0  0  0  0  0  0  0  0
    7.6892  -14.0523   26.1598 C   0  0  2  0  0  0  0  0  0  0  0  0
    6.4401  -14.8505   26.4137 C   0  0  0  0  0  0  0  0  0  0  0  0
    8.9357  -14.9234   26.2385 C   0  0  2  0  0  0  0  0  0  0  0  0
    8.7746  -15.9511   25.2209 N   0  0  0  0  0  0  0  0  0  0  0  0
    9.1099  -15.5004   27.5750 C   0  0  0  0  0  0  0  0  0  0  0  0
    8.7756  -16.6958   27.7557 O   0  0  0  0  0  0  0  0  0  0  0  0
    9.6252  -14.7755   28.6289 O   0  0  0  0  0  0  0  0  0  0  0  0
  1  2  1  0
  2  3  1  0
  3  5  1  0
  3  4  1  1
  5  6  1  6
  7  5  1  0
  8  7  2  0
  9  7  1  0
 10 11  1  6
 10  9  1  0
 11 12  1  0
 12 16  1  0
 13 12  2  0
 13 14  1  0
 14 15  1  0
 16 15  2  0
 17 24  1  0
 17 10  1  0
 18 17  2  0
 20 19  1  0
 20 21  1  0
 21 22  1  1
 23 21  1  0
 23 24  1  6
 25 23  1  0
 25 27  1  0
 26 25  2  0
M  END
$$$$
