IHI.pdb
     RDKit          3D

 27 27  0  0  1  0  0  0  0  0999 V2000
    7.4357  -11.9307   18.8660 C   0  0  0  0  0  0  0  0  0  0  0  0
    7.8979  -13.3866   18.7616 C   0  0  0  0  0  0  0  0  0  0  0  0
    8.1026  -13.9742   20.1275 C   0  0  2  0  0  0  0  0  0  0  0  0
    9.0260  -13.1158   20.9669 C   0  0  0  0  0  0  0  0  0  0  0  0
    8.4491  -15.4223   20.1747 C   0  0  2  0  0  0  0  0  0  0  0  0
    7.4480  -16.1478   19.3583 N   0  0  0  0  0  0  0  0  0  0  0  0
    8.3947  -16.0317   21.5345 C   0  0  0  0  0  0  0  0  0  0  0  0
    7.2527  -16.1852   22.0332 O   0  0  0  0  0  0  0  0  0  0  0  0
    9.5054  -16.4410   22.2855 N   0  0  0  0  0  0  0  0  0  0  0  0
    9.6165  -16.8941   23.6230 C   0  0  1  0  0  0  0  0  0  0  0  0
   10.4577  -18.1290   23.8557 C   0  0  0  0  0  0  0  0  0  0  0  0
   10.0456  -19.3063   23.1023 C   0  0  0  0  0  0  0  0  0  0  0  0
    8.9102  -19.3703   22.3342 C   0  0  0  0  0  0  0  0  0  0  0  0
    8.8283  -20.5970   21.7761 N   0  0  0  0  0  0  0  0  0  0  0  0
    9.8974  -21.3012   22.1850 C   0  0  0  0  0  0  0  0  0  0  0  0
   10.6377  -20.5009   22.9977 N   0  0  0  0  0  0  0  0  0  0  0  0
    9.9225  -15.8845   24.6356 C   0  0  0  0  0  0  0  0  0  0  0  0
   10.9871  -15.1788   24.5028 O   0  0  0  0  0  0  0  0  0  0  0  0
    6.4424  -12.6042   26.2820 C   0  0  0  0  0  0  0  0  0  0  0  0
    7.7180  -13.3455   25.9944 C   0  0  0  0  0  0  0  0  0  0  0  0
    8.3280  -13.9336   27.2475 C   0  0  2  0  0  0  0  0  0  0  0  0
    8.6621  -12.8775   28.2648 C   0  0  0  0  0  0  0  0  0  0  0  0
    9.5639  -14.7183   26.8288 C   0  0  2  0  0  0  0  0  0  0  0  0
    9.1322  -15.6142   25.7664 N   0  0  0  0  0  0  0  0  0  0  0  0
   10.1489  -15.4500   27.9566 C   0  0  0  0  0  0  0  0  0  0  0  0
    9.7418  -16.6139   28.1867 O   0  0  0  0  0  0  0  0  0  0  0  0
   11.1237  -14.9025   28.7639 O   0  0  0  0  0  0  0  0  0  0  0  0
  1  2  1  0
  2  3  1  0
  3  5  1  0
  3  4  1  6
  5  6  1  6
  7  5  1  0
  8  7  2  0
  9  7  1  0
 10 11  1  6
 10  9  1  0
 11 12  1  0
 12 16  1  0
 13 12  2  0
 13 14  1  0
 14 15  1  0
 16 15  2  0
 17 24  1  0
 17 10  1  0
 18 17  2  0
 20 19  1  0
 20 21  1  0
 21 22  1  1
 23 21  1  0
 23 24  1  6
 25 23  1  0
 25 27  1  0
 26 25  2  0
M  END
$$$$
