IHI.pdb
     RDKit          3D

 27 27  0  0  1  0  0  0  0  0999 V2000
    7.7830  -12.0556   19.5937 C   0  0  0  0  0  0  0  0  0  0  0  0
    7.4962  -13.5584   19.5330 C   0  0  0  0  0  0  0  0  0  0  0  0
    8.7779  -14.3385   19.4912 C   0  0  2  0  0  0  0  0  0  0  0  0
    9.6816  -13.8595   18.3741 C   0  0  0  0  0  0  0  0  0  0  0  0
    8.6463  -15.8217   19.5394 C   0  0  2  0  0  0  0  0  0  0  0  0
    7.7913  -16.2313   18.4008 N   0  0  0  0  0  0  0  0  0  0  0  0
    7.9825  -16.3484   20.7663 C   0  0  0  0  0  0  0  0  0  0  0  0
    6.9792  -17.0821   20.5881 O   0  0  0  0  0  0  0  0  0  0  0  0
    8.3891  -16.0913   22.0830 N   0  0  0  0  0  0  0  0  0  0  0  0
    8.0022  -16.6758   23.3140 C   0  0  1  0  0  0  0  0  0  0  0  0
    7.9468  -18.1862   23.3628 C   0  0  0  0  0  0  0  0  0  0  0  0
    7.5975  -18.7484   24.6611 C   0  0  0  0  0  0  0  0  0  0  0  0
    6.5793  -18.2813   25.4536 C   0  0  0  0  0  0  0  0  0  0  0  0
    6.5273  -19.0225   26.5810 N   0  0  0  0  0  0  0  0  0  0  0  0
    7.4996  -19.9471   26.5040 C   0  0  0  0  0  0  0  0  0  0  0  0
    8.1501  -19.7707   25.3231 N   0  0  0  0  0  0  0  0  0  0  0  0
    8.6523  -16.1617   24.5187 C   0  0  0  0  0  0  0  0  0  0  0  0
    9.9214  -16.3100   24.6472 O   0  0  0  0  0  0  0  0  0  0  0  0
    5.7587  -12.3261   26.7471 C   0  0  0  0  0  0  0  0  0  0  0  0
    6.8823  -13.1522   26.1864 C   0  0  0  0  0  0  0  0  0  0  0  0
    7.6534  -13.8723   27.2704 C   0  0  2  0  0  0  0  0  0  0  0  0
    8.2797  -12.9181   28.2498 C   0  0  0  0  0  0  0  0  0  0  0  0
    8.7011  -14.7398   26.5862 C   0  0  2  0  0  0  0  0  0  0  0  0
    7.9918  -15.5036   25.5707 N   0  0  0  0  0  0  0  0  0  0  0  0
    9.3916  -15.6110   27.5421 C   0  0  0  0  0  0  0  0  0  0  0  0
    8.8067  -16.6504   27.9306 O   0  0  0  0  0  0  0  0  0  0  0  0
   10.6523  -15.3248   28.0221 O   0  0  0  0  0  0  0  0  0  0  0  0
  1  2  1  0
  2  3  1  0
  3  5  1  0
  3  4  1  6
  5  6  1  6
  7  5  1  0
  8  7  2  0
  9  7  1  0
 10 11  1  6
 10  9  1  0
 11 12  1  0
 12 16  1  0
 13 12  2  0
 13 14  1  0
 14 15  1  0
 16 15  2  0
 17 24  1  0
 17 10  1  0
 18 17  2  0
 20 19  1  0
 20 21  1  0
 21 22  1  1
 23 21  1  0
 23 24  1  6
 25 23  1  0
 25 27  1  0
 26 25  2  0
M  END
$$$$
