IHI.pdb
     RDKit          3D

 27 27  0  0  1  0  0  0  0  0999 V2000
    7.9205  -11.9281   18.1064 C   0  0  0  0  0  0  0  0  0  0  0  0
    8.3369  -13.4015   18.0960 C   0  0  0  0  0  0  0  0  0  0  0  0
    8.0690  -14.0346   19.4302 C   0  0  2  0  0  0  0  0  0  0  0  0
    8.5775  -13.1704   20.5654 C   0  0  0  0  0  0  0  0  0  0  0  0
    8.4573  -15.4662   19.5680 C   0  0  2  0  0  0  0  0  0  0  0  0
    7.7307  -16.2283   18.5257 N   0  0  0  0  0  0  0  0  0  0  0  0
    8.0865  -16.0895   20.8709 C   0  0  0  0  0  0  0  0  0  0  0  0
    6.8930  -16.4595   20.9941 O   0  0  0  0  0  0  0  0  0  0  0  0
    8.9570  -16.2915   21.9508 N   0  0  0  0  0  0  0  0  0  0  0  0
    8.7278  -16.7820   23.2599 C   0  0  1  0  0  0  0  0  0  0  0  0
    9.0377  -18.2418   23.5038 C   0  0  0  0  0  0  0  0  0  0  0  0
    8.3965  -19.1703   22.5817 C   0  0  0  0  0  0  0  0  0  0  0  0
    8.9491  -19.5816   21.3949 C   0  0  0  0  0  0  0  0  0  0  0  0
    8.0975  -20.4366   20.7889 N   0  0  0  0  0  0  0  0  0  0  0  0
    7.0196  -20.5654   21.5812 C   0  0  0  0  0  0  0  0  0  0  0  0
    7.2126  -19.7850   22.6779 N   0  0  0  0  0  0  0  0  0  0  0  0
    9.2407  -15.9723   24.3642 C   0  0  0  0  0  0  0  0  0  0  0  0
   10.5002  -15.7283   24.4187 O   0  0  0  0  0  0  0  0  0  0  0  0
    5.8179  -12.8297   27.5599 C   0  0  0  0  0  0  0  0  0  0  0  0
    6.7296  -13.9231   27.0775 C   0  0  0  0  0  0  0  0  0  0  0  0
    8.0300  -13.3778   26.5299 C   0  0  2  0  0  0  0  0  0  0  0  0
    7.8418  -12.6822   25.2098 C   0  0  0  0  0  0  0  0  0  0  0  0
    9.0016  -14.5444   26.4143 C   0  0  2  0  0  0  0  0  0  0  0  0
    8.4546  -15.4255   25.3935 N   0  0  0  0  0  0  0  0  0  0  0  0
    9.1746  -15.2346   27.6962 C   0  0  0  0  0  0  0  0  0  0  0  0
    9.7982  -14.6446   28.6107 O   0  0  0  0  0  0  0  0  0  0  0  0
    8.6771  -16.5004   27.9243 O   0  0  0  0  0  0  0  0  0  0  0  0
  1  2  1  0
  2  3  1  0
  3  5  1  0
  3  4  1  1
  5  6  1  6
  7  5  1  0
  8  7  2  0
  9  7  1  0
 10 11  1  6
 10  9  1  0
 11 12  1  0
 12 16  1  0
 13 12  2  0
 13 14  1  0
 14 15  1  0
 16 15  2  0
 17 24  1  0
 17 10  1  0
 18 17  2  0
 20 19  1  0
 20 21  1  0
 21 22  1  6
 23 21  1  0
 23 24  1  6
 25 23  1  0
 25 27  1  0
 26 25  2  0
M  END
$$$$
