IHI.pdb
     RDKit          3D

 27 27  0  0  1  0  0  0  0  0999 V2000
    8.2618  -12.0247   20.7477 C   0  0  0  0  0  0  0  0  0  0  0  0
    7.5343  -13.3718   20.7657 C   0  0  0  0  0  0  0  0  0  0  0  0
    8.0015  -14.2386   19.6329 C   0  0  2  0  0  0  0  0  0  0  0  0
    7.9267  -13.5072   18.3087 C   0  0  0  0  0  0  0  0  0  0  0  0
    7.4250  -15.6110   19.5745 C   0  0  2  0  0  0  0  0  0  0  0  0
    5.9509  -15.4739   19.5162 N   0  0  0  0  0  0  0  0  0  0  0  0
    7.7151  -16.4596   20.7657 C   0  0  0  0  0  0  0  0  0  0  0  0
    7.4819  -17.6877   20.6477 O   0  0  0  0  0  0  0  0  0  0  0  0
    8.2222  -15.9967   21.9879 N   0  0  0  0  0  0  0  0  0  0  0  0
    8.5867  -16.6841   23.1716 C   0  0  1  0  0  0  0  0  0  0  0  0
    9.4011  -17.9469   23.0022 C   0  0  0  0  0  0  0  0  0  0  0  0
    9.6886  -18.6652   24.2371 C   0  0  0  0  0  0  0  0  0  0  0  0
    9.2901  -18.2467   25.4818 C   0  0  0  0  0  0  0  0  0  0  0  0
    9.7189  -19.1380   26.4010 N   0  0  0  0  0  0  0  0  0  0  0  0
   10.3803  -20.1084   25.7476 C   0  0  0  0  0  0  0  0  0  0  0  0
   10.3561  -19.8093   24.4213 N   0  0  0  0  0  0  0  0  0  0  0  0
    9.1405  -15.8757   24.2570 C   0  0  0  0  0  0  0  0  0  0  0  0
   10.3442  -15.4410   24.1516 O   0  0  0  0  0  0  0  0  0  0  0  0
    6.0709  -12.2917   26.0544 C   0  0  0  0  0  0  0  0  0  0  0  0
    7.2369  -13.1718   25.7006 C   0  0  0  0  0  0  0  0  0  0  0  0
    7.8976  -13.7596   26.9278 C   0  0  2  0  0  0  0  0  0  0  0  0
    8.3974  -12.6964   27.8668 C   0  0  0  0  0  0  0  0  0  0  0  0
    9.0280  -14.6611   26.4503 C   0  0  2  0  0  0  0  0  0  0  0  0
    8.4517  -15.5255   25.4314 N   0  0  0  0  0  0  0  0  0  0  0  0
    9.6105  -15.4306   27.5540 C   0  0  0  0  0  0  0  0  0  0  0  0
    9.0518  -16.5011   27.8934 O   0  0  0  0  0  0  0  0  0  0  0  0
   10.7429  -15.0168   28.2234 O   0  0  0  0  0  0  0  0  0  0  0  0
  1  2  1  0
  2  3  1  0
  3  5  1  0
  3  4  1  6
  5  6  1  1
  7  5  1  0
  8  7  2  0
  9  7  1  0
 10 11  1  6
 10  9  1  0
 11 12  1  0
 12 16  1  0
 13 12  2  0
 13 14  1  0
 14 15  1  0
 16 15  2  0
 17 24  1  0
 17 10  1  0
 18 17  2  0
 20 19  1  0
 20 21  1  0
 21 22  1  1
 23 21  1  0
 23 24  1  6
 25 23  1  0
 25 27  1  0
 26 25  2  0
M  END
$$$$
