IHI.pdb
     RDKit          3D

 27 27  0  0  1  0  0  0  0  0999 V2000
    7.3478  -11.8182   18.7320 C   0  0  0  0  0  0  0  0  0  0  0  0
    8.0077  -13.1906   18.5732 C   0  0  0  0  0  0  0  0  0  0  0  0
    7.9902  -13.9379   19.8748 C   0  0  2  0  0  0  0  0  0  0  0  0
    8.4265  -13.0554   21.0260 C   0  0  0  0  0  0  0  0  0  0  0  0
    8.6562  -15.2704   19.8766 C   0  0  2  0  0  0  0  0  0  0  0  0
    8.0336  -16.0822   18.8049 N   0  0  0  0  0  0  0  0  0  0  0  0
    8.4878  -16.0492   21.1369 C   0  0  0  0  0  0  0  0  0  0  0  0
    7.3392  -16.5020   21.3653 O   0  0  0  0  0  0  0  0  0  0  0  0
    9.5002  -16.3111   22.0705 N   0  0  0  0  0  0  0  0  0  0  0  0
    9.4524  -16.8632   23.3742 C   0  0  1  0  0  0  0  0  0  0  0  0
   10.0942  -18.2193   23.5631 C   0  0  0  0  0  0  0  0  0  0  0  0
    9.6000  -19.2639   22.6754 C   0  0  0  0  0  0  0  0  0  0  0  0
   10.0442  -19.4571   21.3915 C   0  0  0  0  0  0  0  0  0  0  0  0
    9.3823  -20.5031   20.8522 N   0  0  0  0  0  0  0  0  0  0  0  0
    8.5298  -20.9667   21.7819 C   0  0  0  0  0  0  0  0  0  0  0  0
    8.6709  -20.2003   22.8962 N   0  0  0  0  0  0  0  0  0  0  0  0
    9.8244  -15.9777   24.4769 C   0  0  0  0  0  0  0  0  0  0  0  0
   10.9697  -15.3980   24.4445 O   0  0  0  0  0  0  0  0  0  0  0  0
    6.7448  -12.3179   25.9666 C   0  0  0  0  0  0  0  0  0  0  0  0
    7.9228  -13.2293   25.7644 C   0  0  0  0  0  0  0  0  0  0  0  0
    8.3121  -13.9455   27.0387 C   0  0  2  0  0  0  0  0  0  0  0  0
    8.6741  -12.9870   28.1397 C   0  0  0  0  0  0  0  0  0  0  0  0
    9.4696  -14.8764   26.7040 C   0  0  2  0  0  0  0  0  0  0  0  0
    9.0164  -15.7004   25.5934 N   0  0  0  0  0  0  0  0  0  0  0  0
    9.8648  -15.6869   27.8600 C   0  0  0  0  0  0  0  0  0  0  0  0
    9.3073  -16.7981   28.0267 O   0  0  0  0  0  0  0  0  0  0  0  0
   10.8216  -15.2684   28.7606 O   0  0  0  0  0  0  0  0  0  0  0  0
  1  2  1  0
  2  3  1  0
  3  5  1  0
  3  4  1  1
  5  6  1  6
  7  5  1  0
  8  7  2  0
  9  7  1  0
 10 11  1  6
 10  9  1  0
 11 12  1  0
 12 16  1  0
 13 12  2  0
 13 14  1  0
 14 15  1  0
 16 15  2  0
 17 24  1  0
 17 10  1  0
 18 17  2  0
 20 19  1  0
 20 21  1  0
 21 22  1  1
 23 21  1  0
 23 24  1  6
 25 23  1  0
 25 27  1  0
 26 25  2  0
M  END
$$$$
