IHI.pdb
     RDKit          3D

 27 27  0  0  1  0  0  0  0  0999 V2000
    5.7901  -10.8569   26.7242 C   0  0  0  0  0  0  0  0  0  0  0  0
    5.2771  -12.1688   26.1242 C   0  0  0  0  0  0  0  0  0  0  0  0
    6.4224  -13.0154   25.6505 C   0  0  2  0  0  0  0  0  0  0  0  0
    7.3619  -12.2283   24.7605 C   0  0  0  0  0  0  0  0  0  0  0  0
    6.0659  -14.3480   25.0880 C   0  0  2  0  0  0  0  0  0  0  0  0
    5.2186  -15.0417   26.0860 N   0  0  0  0  0  0  0  0  0  0  0  0
    7.2274  -15.2478   24.8340 C   0  0  0  0  0  0  0  0  0  0  0  0
    7.6843  -15.8651   25.8274 O   0  0  0  0  0  0  0  0  0  0  0  0
    7.8371  -15.4542   23.5887 N   0  0  0  0  0  0  0  0  0  0  0  0
    8.9488  -16.2460   23.2096 C   0  0  1  0  0  0  0  0  0  0  0  0
    9.3538  -16.1981   21.7534 C   0  0  0  0  0  0  0  0  0  0  0  0
   10.4631  -17.0717   21.3933 C   0  0  0  0  0  0  0  0  0  0  0  0
   11.1233  -17.8837   22.2810 C   0  0  0  0  0  0  0  0  0  0  0  0
   12.0919  -18.5553   21.6224 N   0  0  0  0  0  0  0  0  0  0  0  0
   12.0464  -18.1741   20.3346 C   0  0  0  0  0  0  0  0  0  0  0  0
   11.0444  -17.2642   20.2043 N   0  0  0  0  0  0  0  0  0  0  0  0
   10.1355  -16.1627   24.0600 C   0  0  0  0  0  0  0  0  0  0  0  0
   10.9917  -15.2322   23.8366 O   0  0  0  0  0  0  0  0  0  0  0  0
   10.7599  -13.8328   28.7904 C   0  0  0  0  0  0  0  0  0  0  0  0
   11.4352  -14.8928   27.9659 C   0  0  0  0  0  0  0  0  0  0  0  0
   10.5019  -15.4931   26.9380 C   0  0  2  0  0  0  0  0  0  0  0  0
    9.2084  -15.9572   27.5493 C   0  0  0  0  0  0  0  0  0  0  0  0
   11.2435  -16.6378   26.2612 C   0  0  2  0  0  0  0  0  0  0  0  0
   10.4245  -17.0334   25.1252 N   0  0  0  0  0  0  0  0  0  0  0  0
   11.4745  -17.7541   27.1832 C   0  0  0  0  0  0  0  0  0  0  0  0
   12.3955  -17.6476   28.0281 O   0  0  0  0  0  0  0  0  0  0  0  0
   10.7172  -18.9061   27.1497 O   0  0  0  0  0  0  0  0  0  0  0  0
  1  2  1  0
  2  3  1  0
  3  5  1  0
  3  4  1  6
  5  6  1  1
  7  5  1  0
  8  7  2  0
  9  7  1  0
 10 11  1  6
 10  9  1  0
 11 12  1  0
 12 16  1  0
 13 12  2  0
 13 14  1  0
 14 15  1  0
 16 15  2  0
 17 24  1  0
 17 10  1  0
 18 17  2  0
 20 19  1  0
 20 21  1  0
 21 22  1  1
 23 21  1  0
 23 24  1  6
 25 23  1  0
 25 27  1  0
 26 25  2  0
M  END
$$$$
