IHI.pdb
     RDKit          3D

 27 27  0  0  1  0  0  0  0  0999 V2000
    5.6993  -11.1342   26.4969 C   0  0  0  0  0  0  0  0  0  0  0  0
    5.3244  -12.3402   25.6313 C   0  0  0  0  0  0  0  0  0  0  0  0
    6.5299  -13.1941   25.3661 C   0  0  2  0  0  0  0  0  0  0  0  0
    7.6484  -12.3922   24.7335 C   0  0  0  0  0  0  0  0  0  0  0  0
    6.2784  -14.4897   24.6751 C   0  0  2  0  0  0  0  0  0  0  0  0
    5.1618  -15.1621   25.3797 N   0  0  0  0  0  0  0  0  0  0  0  0
    7.4229  -15.4449   24.7066 C   0  0  0  0  0  0  0  0  0  0  0  0
    7.5725  -16.1037   25.7649 O   0  0  0  0  0  0  0  0  0  0  0  0
    8.3293  -15.6602   23.6591 N   0  0  0  0  0  0  0  0  0  0  0  0
    9.5022  -16.4508   23.5828 C   0  0  1  0  0  0  0  0  0  0  0  0
   10.1893  -16.5213   22.2376 C   0  0  0  0  0  0  0  0  0  0  0  0
    9.3090  -16.7978   21.1097 C   0  0  0  0  0  0  0  0  0  0  0  0
    8.3165  -17.7454   21.1219 C   0  0  0  0  0  0  0  0  0  0  0  0
    7.6940  -17.7423   19.9237 N   0  0  0  0  0  0  0  0  0  0  0  0
    8.2841  -16.8053   19.1622 C   0  0  0  0  0  0  0  0  0  0  0  0
    9.2731  -16.2319   19.8985 N   0  0  0  0  0  0  0  0  0  0  0  0
   10.4942  -16.2587   24.6398 C   0  0  0  0  0  0  0  0  0  0  0  0
   11.6007  -15.6748   24.3501 O   0  0  0  0  0  0  0  0  0  0  0  0
   10.0080  -13.3444   28.5146 C   0  0  0  0  0  0  0  0  0  0  0  0
   10.5729  -14.2944   27.4958 C   0  0  0  0  0  0  0  0  0  0  0  0
   10.8270  -15.6669   28.0788 C   0  0  2  0  0  0  0  0  0  0  0  0
   11.7492  -15.6167   29.2658 C   0  0  0  0  0  0  0  0  0  0  0  0
   11.3941  -16.5378   26.9659 C   0  0  2  0  0  0  0  0  0  0  0  0
   10.3357  -16.6669   25.9756 N   0  0  0  0  0  0  0  0  0  0  0  0
   11.8333  -17.8427   27.4696 C   0  0  0  0  0  0  0  0  0  0  0  0
   11.0033  -18.7829   27.4906 O   0  0  0  0  0  0  0  0  0  0  0  0
   13.1188  -18.0652   27.9164 O   0  0  0  0  0  0  0  0  0  0  0  0
  1  2  1  0
  2  3  1  0
  3  5  1  0
  3  4  1  6
  5  6  1  1
  7  5  1  0
  8  7  2  0
  9  7  1  0
 10 11  1  6
 10  9  1  0
 11 12  1  0
 12 16  1  0
 13 12  2  0
 13 14  1  0
 14 15  1  0
 16 15  2  0
 17 24  1  0
 17 10  1  0
 18 17  2  0
 20 19  1  0
 20 21  1  0
 21 22  1  1
 23 21  1  0
 23 24  1  6
 25 23  1  0
 25 27  1  0
 26 25  2  0
M  END
$$$$
