IHI.pdb
     RDKit          3D

 27 27  0  0  1  0  0  0  0  0999 V2000
    7.4970  -11.9377   18.9308 C   0  0  0  0  0  0  0  0  0  0  0  0
    8.0572  -13.3599   18.8414 C   0  0  0  0  0  0  0  0  0  0  0  0
    8.1346  -13.9828   20.2048 C   0  0  2  0  0  0  0  0  0  0  0  0
    8.8461  -13.0767   21.1881 C   0  0  0  0  0  0  0  0  0  0  0  0
    8.6152  -15.3919   20.2572 C   0  0  2  0  0  0  0  0  0  0  0  0
    7.7769  -16.1844   19.3275 N   0  0  0  0  0  0  0  0  0  0  0  0
    8.4852  -16.0451   21.5912 C   0  0  0  0  0  0  0  0  0  0  0  0
    7.3167  -16.2328   22.0105 O   0  0  0  0  0  0  0  0  0  0  0  0
    9.5530  -16.4603   22.3990 N   0  0  0  0  0  0  0  0  0  0  0  0
    9.5920  -16.9120   23.7411 C   0  0  1  0  0  0  0  0  0  0  0  0
   10.3992  -18.1608   24.0159 C   0  0  0  0  0  0  0  0  0  0  0  0
   10.0613  -19.3084   23.1838 C   0  0  0  0  0  0  0  0  0  0  0  0
    8.9380  -19.3866   22.3993 C   0  0  0  0  0  0  0  0  0  0  0  0
    8.9310  -20.5774   21.7630 N   0  0  0  0  0  0  0  0  0  0  0  0
   10.0350  -21.2451   22.1390 C   0  0  0  0  0  0  0  0  0  0  0  0
   10.7214  -20.4585   23.0103 N   0  0  0  0  0  0  0  0  0  0  0  0
    9.8668  -15.9054   24.7656 C   0  0  0  0  0  0  0  0  0  0  0  0
   10.9680  -15.2475   24.7058 O   0  0  0  0  0  0  0  0  0  0  0  0
    6.2642  -12.6064   26.2468 C   0  0  0  0  0  0  0  0  0  0  0  0
    7.5618  -13.3257   26.0058 C   0  0  0  0  0  0  0  0  0  0  0  0
    8.1292  -13.9149   27.2783 C   0  0  2  0  0  0  0  0  0  0  0  0
    8.4089  -12.8618   28.3150 C   0  0  0  0  0  0  0  0  0  0  0  0
    9.3909  -14.6807   26.9039 C   0  0  2  0  0  0  0  0  0  0  0  0
    9.0087  -15.5891   25.8332 N   0  0  0  0  0  0  0  0  0  0  0  0
    9.9514  -15.3968   28.0539 C   0  0  0  0  0  0  0  0  0  0  0  0
    9.5820  -16.5781   28.2576 O   0  0  0  0  0  0  0  0  0  0  0  0
   10.8636  -14.8163   28.9099 O   0  0  0  0  0  0  0  0  0  0  0  0
  1  2  1  0
  2  3  1  0
  3  5  1  0
  3  4  1  1
  5  6  1  6
  7  5  1  0
  8  7  2  0
  9  7  1  0
 10 11  1  6
 10  9  1  0
 11 12  1  0
 12 16  1  0
 13 12  2  0
 13 14  1  0
 14 15  1  0
 16 15  2  0
 17 24  1  0
 17 10  1  0
 18 17  2  0
 20 19  1  0
 20 21  1  0
 21 22  1  1
 23 21  1  0
 23 24  1  6
 25 23  1  0
 25 27  1  0
 26 25  2  0
M  END
$$$$
