IHI.pdb
     RDKit          3D

 27 27  0  0  1  0  0  0  0  0999 V2000
    8.0055  -12.0010   19.7334 C   0  0  0  0  0  0  0  0  0  0  0  0
    7.6714  -13.4882   19.5893 C   0  0  0  0  0  0  0  0  0  0  0  0
    8.9268  -14.3004   19.4580 C   0  0  2  0  0  0  0  0  0  0  0  0
    9.7716  -13.8296   18.2923 C   0  0  0  0  0  0  0  0  0  0  0  0
    8.7592  -15.7802   19.4967 C   0  0  2  0  0  0  0  0  0  0  0  0
    7.8950  -16.1616   18.3553 N   0  0  0  0  0  0  0  0  0  0  0  0
    8.0824  -16.2985   20.7200 C   0  0  0  0  0  0  0  0  0  0  0  0
    7.1052  -17.0652   20.5361 O   0  0  0  0  0  0  0  0  0  0  0  0
    8.4504  -16.0000   22.0393 N   0  0  0  0  0  0  0  0  0  0  0  0
    8.0715  -16.5845   23.2728 C   0  0  1  0  0  0  0  0  0  0  0  0
    8.1482  -18.0919   23.3638 C   0  0  0  0  0  0  0  0  0  0  0  0
    7.7527  -18.6526   24.6494 C   0  0  0  0  0  0  0  0  0  0  0  0
    7.2346  -17.9152   25.6843 C   0  0  0  0  0  0  0  0  0  0  0  0
    6.9776  -18.7391   26.7227 N   0  0  0  0  0  0  0  0  0  0  0  0
    7.3281  -19.9821   26.3509 C   0  0  0  0  0  0  0  0  0  0  0  0
    7.8022  -19.9185   25.0781 N   0  0  0  0  0  0  0  0  0  0  0  0
    8.6284  -15.9830   24.4837 C   0  0  0  0  0  0  0  0  0  0  0  0
    8.9385  -16.7480   25.4673 O   0  0  0  0  0  0  0  0  0  0  0  0
    6.3014  -11.3638   27.2553 C   0  0  0  0  0  0  0  0  0  0  0  0
    7.4939  -12.2769   27.1971 C   0  0  0  0  0  0  0  0  0  0  0  0
    7.5224  -13.0934   25.9241 C   0  0  2  0  0  0  0  0  0  0  0  0
    6.2775  -13.9198   25.7527 C   0  0  0  0  0  0  0  0  0  0  0  0
    8.7707  -13.9643   25.9679 C   0  0  2  0  0  0  0  0  0  0  0  0
    8.8592  -14.6083   24.6661 N   0  0  0  0  0  0  0  0  0  0  0  0
    8.7110  -14.9424   27.0584 C   0  0  0  0  0  0  0  0  0  0  0  0
    8.0024  -15.9656   26.9025 O   0  0  0  0  0  0  0  0  0  0  0  0
    9.4036  -14.7728   28.2388 O   0  0  0  0  0  0  0  0  0  0  0  0
  1  2  1  0
  2  3  1  0
  3  5  1  0
  3  4  1  6
  5  6  1  6
  7  5  1  0
  8  7  2  0
  9  7  1  0
 10 11  1  6
 10  9  1  0
 11 12  1  0
 12 16  1  0
 13 12  2  0
 13 14  1  0
 14 15  1  0
 16 15  2  0
 17 24  1  0
 17 10  1  0
 18 17  2  0
 20 19  1  0
 20 21  1  0
 21 22  1  1
 23 21  1  0
 23 24  1  6
 25 23  1  0
 25 27  1  0
 26 25  2  0
M  END
$$$$
