IHI.pdb
     RDKit          3D

 27 27  0  0  1  0  0  0  0  0999 V2000
    8.2683  -12.0916   18.3420 C   0  0  0  0  0  0  0  0  0  0  0  0
    8.4256  -13.6146   18.3504 C   0  0  0  0  0  0  0  0  0  0  0  0
    8.1347  -14.1672   19.7153 C   0  0  2  0  0  0  0  0  0  0  0  0
    8.9457  -13.4623   20.7827 C   0  0  0  0  0  0  0  0  0  0  0  0
    8.1662  -15.6511   19.8438 C   0  0  2  0  0  0  0  0  0  0  0  0
    7.2866  -16.2093   18.7903 N   0  0  0  0  0  0  0  0  0  0  0  0
    7.6453  -16.1753   21.1388 C   0  0  0  0  0  0  0  0  0  0  0  0
    6.4237  -15.9933   21.3650 O   0  0  0  0  0  0  0  0  0  0  0  0
    8.4049  -16.8468   22.1069 N   0  0  0  0  0  0  0  0  0  0  0  0
    8.1435  -17.1343   23.4692 C   0  0  1  0  0  0  0  0  0  0  0  0
    8.2911  -18.5759   23.9012 C   0  0  0  0  0  0  0  0  0  0  0  0
    7.9124  -18.8473   25.2819 C   0  0  0  0  0  0  0  0  0  0  0  0
    7.3960  -17.9071   26.1377 C   0  0  0  0  0  0  0  0  0  0  0  0
    7.1560  -18.4881   27.3327 N   0  0  0  0  0  0  0  0  0  0  0  0
    7.5156  -19.7794   27.2356 C   0  0  0  0  0  0  0  0  0  0  0  0
    7.9780  -19.9897   25.9743 N   0  0  0  0  0  0  0  0  0  0  0  0
    8.7622  -16.2519   24.4575 C   0  0  0  0  0  0  0  0  0  0  0  0
   10.0388  -16.1132   24.4488 O   0  0  0  0  0  0  0  0  0  0  0  0
    5.6533  -12.4605   27.1956 C   0  0  0  0  0  0  0  0  0  0  0  0
    6.5245  -13.6642   26.9686 C   0  0  0  0  0  0  0  0  0  0  0  0
    7.8133  -13.3071   26.2617 C   0  0  2  0  0  0  0  0  0  0  0  0
    7.5752  -12.8308   24.8552 C   0  0  0  0  0  0  0  0  0  0  0  0
    8.7070  -14.5396   26.2915 C   0  0  2  0  0  0  0  0  0  0  0  0
    8.0628  -15.5258   25.4373 N   0  0  0  0  0  0  0  0  0  0  0  0
    8.8957  -15.0392   27.6569 C   0  0  0  0  0  0  0  0  0  0  0  0
    8.2928  -16.0853   27.9968 O   0  0  0  0  0  0  0  0  0  0  0  0
    9.7081  -14.3999   28.5696 O   0  0  0  0  0  0  0  0  0  0  0  0
  1  2  1  0
  2  3  1  0
  3  5  1  0
  3  4  1  1
  5  6  1  6
  7  5  1  0
  8  7  2  0
  9  7  1  0
 10 11  1  1
 10  9  1  0
 11 12  1  0
 12 16  1  0
 13 12  2  0
 13 14  1  0
 14 15  1  0
 16 15  2  0
 17 24  1  0
 17 10  1  0
 18 17  2  0
 20 19  1  0
 20 21  1  0
 21 22  1  6
 23 21  1  0
 23 24  1  6
 25 23  1  0
 25 27  1  0
 26 25  2  0
M  END
$$$$
