IHI.pdb
     RDKit          3D

 27 27  0  0  1  0  0  0  0  0999 V2000
    7.4529  -12.0502   18.2966 C   0  0  0  0  0  0  0  0  0  0  0  0
    8.1945  -13.3893   18.3287 C   0  0  0  0  0  0  0  0  0  0  0  0
    8.3136  -13.8924   19.7378 C   0  0  2  0  0  0  0  0  0  0  0  0
    8.9094  -12.8422   20.6523 C   0  0  0  0  0  0  0  0  0  0  0  0
    8.9385  -15.2343   19.9059 C   0  0  2  0  0  0  0  0  0  0  0  0
    8.2567  -16.1640   18.9753 N   0  0  0  0  0  0  0  0  0  0  0  0
    8.7877  -15.8256   21.2664 C   0  0  0  0  0  0  0  0  0  0  0  0
    7.6190  -16.1109   21.6257 O   0  0  0  0  0  0  0  0  0  0  0  0
    9.8366  -16.0841   22.1597 N   0  0  0  0  0  0  0  0  0  0  0  0
    9.8378  -16.5987   23.4795 C   0  0  1  0  0  0  0  0  0  0  0  0
   10.6945  -17.8186   23.7337 C   0  0  0  0  0  0  0  0  0  0  0  0
   10.4956  -18.9173   22.7973 C   0  0  0  0  0  0  0  0  0  0  0  0
    9.3266  -19.1462   22.1159 C   0  0  0  0  0  0  0  0  0  0  0  0
    9.4810  -20.2382   21.3369 N   0  0  0  0  0  0  0  0  0  0  0  0
   10.7311  -20.6954   21.5221 C   0  0  0  0  0  0  0  0  0  0  0  0
   11.3451  -19.8786   22.4193 N   0  0  0  0  0  0  0  0  0  0  0  0
   10.0142  -15.6315   24.5618 C   0  0  0  0  0  0  0  0  0  0  0  0
   11.0797  -14.9152   24.5830 O   0  0  0  0  0  0  0  0  0  0  0  0
    5.8501  -13.4611   27.5547 C   0  0  0  0  0  0  0  0  0  0  0  0
    7.0037  -14.3615   27.2113 C   0  0  0  0  0  0  0  0  0  0  0  0
    8.2504  -13.5791   26.8624 C   0  0  2  0  0  0  0  0  0  0  0  0
    8.0851  -12.7842   25.5965 C   0  0  0  0  0  0  0  0  0  0  0  0
    9.3980  -14.5739   26.7528 C   0  0  2  0  0  0  0  0  0  0  0  0
    9.0956  -15.4136   25.6036 N   0  0  0  0  0  0  0  0  0  0  0  0
    9.5514  -15.3615   27.9798 C   0  0  0  0  0  0  0  0  0  0  0  0
    9.2394  -16.5761   27.9506 O   0  0  0  0  0  0  0  0  0  0  0  0
   10.0237  -14.8126   29.1534 O   0  0  0  0  0  0  0  0  0  0  0  0
  1  2  1  0
  2  3  1  0
  3  5  1  0
  3  4  1  1
  5  6  1  6
  7  5  1  0
  8  7  2  0
  9  7  1  0
 10 11  1  6
 10  9  1  0
 11 12  1  0
 12 16  1  0
 13 12  2  0
 13 14  1  0
 14 15  1  0
 16 15  2  0
 17 24  1  0
 17 10  1  0
 18 17  2  0
 20 19  1  0
 20 21  1  0
 21 22  1  6
 23 21  1  0
 23 24  1  6
 25 23  1  0
 25 27  1  0
 26 25  2  0
M  END
$$$$
