TKH.pdb
     RDKit          3D

 27 27  0  0  1  0  0  0  0  0999 V2000
    8.4312  -12.0020   18.7796 C   0  0  0  0  0  0  0  0  0  0  0  0
    8.9382  -13.2792   19.3880 C   0  0  1  0  0  0  0  0  0  0  0  0
    8.5505  -13.4233   20.7106 O   0  0  0  0  0  0  0  0  0  0  0  0
    8.4588  -14.4790   18.5578 C   0  0  2  0  0  0  0  0  0  0  0  0
    7.0062  -14.5242   18.5938 N   0  0  0  0  0  0  0  0  0  0  0  0
    8.9470  -15.6865   19.2633 C   0  0  0  0  0  0  0  0  0  0  0  0
    8.1714  -16.2098   20.1080 O   0  0  0  0  0  0  0  0  0  0  0  0
   10.1956  -16.2778   19.0575 N   0  0  0  0  0  0  0  0  0  0  0  0
   10.6862  -17.4445   19.8093 C   0  0  1  0  0  0  0  0  0  0  0  0
   11.7558  -18.1242   19.0186 C   0  0  0  0  0  0  0  0  0  0  0  0
   11.3285  -18.8728   17.8251 C   0  0  0  0  0  0  0  0  0  0  0  0
   12.4645  -19.3688   16.9529 C   0  0  0  0  0  0  0  0  0  0  0  0
   11.8963  -20.0968   15.7259 C   0  0  0  0  0  0  0  0  0  0  0  0
   12.9534  -20.6331   14.9143 N   0  0  0  0  0  0  0  0  0  0  0  0
   11.1004  -16.9680   21.1465 C   0  0  0  0  0  0  0  0  0  0  0  0
   11.8926  -15.9671   21.1915 O   0  0  0  0  0  0  0  0  0  0  0  0
   10.7081  -17.5040   22.3712 N   0  0  0  0  0  0  0  0  0  0  0  0
   11.1505  -16.9776   23.6647 C   0  0  1  0  0  0  0  0  0  0  0  0
   10.0136  -16.7499   24.5857 C   0  0  0  0  0  0  0  0  0  0  0  0
    9.0995  -15.7229   24.0461 C   0  0  0  0  0  0  0  0  0  0  0  0
    9.3595  -14.5753   23.3127 C   0  0  0  0  0  0  0  0  0  0  0  0
    8.2222  -13.9101   23.0482 N   0  0  0  0  0  0  0  0  0  0  0  0
    7.2473  -14.6208   23.6041 C   0  0  0  0  0  0  0  0  0  0  0  0
    7.7431  -15.7101   24.2077 N   0  0  0  0  0  0  0  0  0  0  0  0
   12.1833  -17.8642   24.2153 C   0  0  0  0  0  0  0  0  0  0  0  0
   12.6211  -18.9968   23.5344 O   0  0  0  0  0  0  0  0  0  0  0  0
   12.6978  -17.6175   25.3213 O   0  0  0  0  0  0  0  0  0  0  0  0
  2  3  1  0
  2  1  1  6
  4  2  1  0
  4  5  1  1
  6  4  1  0
  6  7  2  0
  8  6  1  0
  9 10  1  6
  9  8  1  0
 11 10  1  0
 11 12  1  0
 13 12  1  0
 13 14  1  0
 15  9  1  0
 16 15  2  0
 17 15  1  0
 18 17  1  0
 18 19  1  1
 19 20  1  0
 20 21  2  0
 21 22  1  0
 23 22  1  0
 24 20  1  0
 24 23  2  0
 25 26  1  0
 25 18  1  0
 27 25  2  0
M  END
$$$$
