TKH.pdb
     RDKit          3D

 27 27  0  0  1  0  0  0  0  0999 V2000
    8.0613  -13.1319   17.3053 C   0  0  0  0  0  0  0  0  0  0  0  0
    8.6601  -14.2056   18.1695 C   0  0  1  0  0  0  0  0  0  0  0  0
    9.9716  -13.9289   18.5213 O   0  0  0  0  0  0  0  0  0  0  0  0
    7.8008  -14.4030   19.4270 C   0  0  2  0  0  0  0  0  0  0  0  0
    7.7974  -13.1667   20.1918 N   0  0  0  0  0  0  0  0  0  0  0  0
    8.5022  -15.4175   20.2473 C   0  0  0  0  0  0  0  0  0  0  0  0
    9.2559  -14.9924   21.1640 O   0  0  0  0  0  0  0  0  0  0  0  0
    8.3858  -16.7988   20.0751 N   0  0  0  0  0  0  0  0  0  0  0  0
    9.0051  -17.7931   20.9666 C   0  0  1  0  0  0  0  0  0  0  0  0
    8.3833  -19.1287   20.7202 C   0  0  0  0  0  0  0  0  0  0  0  0
    8.8864  -20.2563   21.5220 C   0  0  0  0  0  0  0  0  0  0  0  0
    8.2542  -21.5940   21.1933 C   0  0  0  0  0  0  0  0  0  0  0  0
    6.9041  -21.7205   21.9143 C   0  0  0  0  0  0  0  0  0  0  0  0
    5.8618  -22.0722   20.9903 N   0  0  0  0  0  0  0  0  0  0  0  0
   10.4669  -17.7315   20.7520 C   0  0  0  0  0  0  0  0  0  0  0  0
   10.8742  -17.3156   19.6150 O   0  0  0  0  0  0  0  0  0  0  0  0
   11.4514  -18.0819   21.6733 N   0  0  0  0  0  0  0  0  0  0  0  0
   12.6809  -17.3119   21.8770 C   0  0  1  0  0  0  0  0  0  0  0  0
   12.4221  -15.8540   21.8948 C   0  0  0  0  0  0  0  0  0  0  0  0
   12.8427  -15.2315   20.6232 C   0  0  0  0  0  0  0  0  0  0  0  0
   13.4641  -15.7773   19.5103 C   0  0  0  0  0  0  0  0  0  0  0  0
   13.6876  -14.8351   18.5785 N   0  0  0  0  0  0  0  0  0  0  0  0
   13.2165  -13.7018   19.0866 C   0  0  0  0  0  0  0  0  0  0  0  0
   12.7055  -13.9093   20.3084 N   0  0  0  0  0  0  0  0  0  0  0  0
   13.3595  -17.8022   23.0832 C   0  0  0  0  0  0  0  0  0  0  0  0
   14.7446  -17.7624   23.2168 O   0  0  0  0  0  0  0  0  0  0  0  0
   12.6991  -18.2719   24.0278 O   0  0  0  0  0  0  0  0  0  0  0  0
  2  3  1  0
  2  1  1  1
  4  2  1  0
  4  5  1  1
  6  4  1  0
  6  7  2  0
  8  6  1  0
  9 10  1  6
  9  8  1  0
 11 10  1  0
 11 12  1  0
 13 12  1  0
 13 14  1  0
 15  9  1  0
 16 15  2  0
 17 15  1  0
 18 17  1  0
 18 19  1  1
 19 20  1  0
 20 21  2  0
 21 22  1  0
 23 22  1  0
 24 20  1  0
 24 23  2  0
 25 26  1  0
 25 18  1  0
 27 25  2  0
M  END
$$$$
