TKH.pdb
     RDKit          3D

 27 27  0  0  1  0  0  0  0  0999 V2000
    6.5693  -18.1158   18.3835 C   0  0  0  0  0  0  0  0  0  0  0  0
    7.3467  -17.5706   19.5483 C   0  0  1  0  0  0  0  0  0  0  0  0
    8.6384  -18.0699   19.6000 O   0  0  0  0  0  0  0  0  0  0  0  0
    7.3700  -16.0362   19.4879 C   0  0  2  0  0  0  0  0  0  0  0  0
    8.2180  -15.6229   18.3817 N   0  0  0  0  0  0  0  0  0  0  0  0
    8.0340  -15.5873   20.7335 C   0  0  0  0  0  0  0  0  0  0  0  0
    9.2714  -15.3548   20.6719 O   0  0  0  0  0  0  0  0  0  0  0  0
    7.3879  -15.4061   21.9586 N   0  0  0  0  0  0  0  0  0  0  0  0
    8.0524  -14.9011   23.1712 C   0  0  1  0  0  0  0  0  0  0  0  0
    7.0184  -14.5774   24.1994 C   0  0  0  0  0  0  0  0  0  0  0  0
    7.0932  -13.2463   24.8240 C   0  0  0  0  0  0  0  0  0  0  0  0
    6.0383  -12.9865   25.8807 C   0  0  0  0  0  0  0  0  0  0  0  0
    6.2025  -11.5652   26.4389 C   0  0  0  0  0  0  0  0  0  0  0  0
    5.2350  -11.3050   27.4684 N   0  0  0  0  0  0  0  0  0  0  0  0
    9.0523  -15.9101   23.5818 C   0  0  0  0  0  0  0  0  0  0  0  0
    8.6857  -17.1337   23.5743 O   0  0  0  0  0  0  0  0  0  0  0  0
   10.3645  -15.6582   23.9765 N   0  0  0  0  0  0  0  0  0  0  0  0
   11.3435  -16.7122   24.2534 C   0  0  1  0  0  0  0  0  0  0  0  0
   12.6887  -16.3638   23.7415 C   0  0  0  0  0  0  0  0  0  0  0  0
   13.6604  -17.4317   24.0523 C   0  0  0  0  0  0  0  0  0  0  0  0
   13.4959  -18.6422   24.7082 C   0  0  0  0  0  0  0  0  0  0  0  0
   14.6638  -19.3017   24.7927 N   0  0  0  0  0  0  0  0  0  0  0  0
   15.5638  -18.5253   24.1998 C   0  0  0  0  0  0  0  0  0  0  0  0
   14.9917  -17.4005   23.7477 N   0  0  0  0  0  0  0  0  0  0  0  0
   11.3234  -17.0202   25.6888 C   0  0  0  0  0  0  0  0  0  0  0  0
   11.8827  -18.1883   26.1994 O   0  0  0  0  0  0  0  0  0  0  0  0
   10.7968  -16.2297   26.4931 O   0  0  0  0  0  0  0  0  0  0  0  0
  2  3  1  0
  2  1  1  6
  4  2  1  0
  4  5  1  6
  6  4  1  0
  6  7  2  0
  8  6  1  0
  9 10  1  1
  9  8  1  0
 11 10  1  0
 11 12  1  0
 13 12  1  0
 13 14  1  0
 15  9  1  0
 16 15  2  0
 17 15  1  0
 18 17  1  0
 18 19  1  1
 19 20  1  0
 20 21  2  0
 21 22  1  0
 23 22  1  0
 24 20  1  0
 24 23  2  0
 25 26  1  0
 25 18  1  0
 27 25  2  0
M  END
$$$$
