TKH.pdb
     RDKit          3D

 27 27  0  0  1  0  0  0  0  0999 V2000
   14.7181  -18.2449   16.1557 C   0  0  0  0  0  0  0  0  0  0  0  0
   15.5132  -17.5449   15.0898 C   0  0  1  0  0  0  0  0  0  0  0  0
   16.1936  -18.4323   14.2713 O   0  0  0  0  0  0  0  0  0  0  0  0
   14.5885  -16.6489   14.2527 C   0  0  2  0  0  0  0  0  0  0  0  0
   15.3916  -15.9207   13.2842 N   0  0  0  0  0  0  0  0  0  0  0  0
   14.0286  -15.6484   15.1905 C   0  0  0  0  0  0  0  0  0  0  0  0
   14.7960  -14.7209   15.5646 O   0  0  0  0  0  0  0  0  0  0  0  0
   12.7215  -15.6634   15.6827 N   0  0  0  0  0  0  0  0  0  0  0  0
   12.2380  -14.7813   16.7575 C   0  0  1  0  0  0  0  0  0  0  0  0
   10.7590  -14.6156   16.6291 C   0  0  0  0  0  0  0  0  0  0  0  0
   10.0572  -13.9922   17.7633 C   0  0  0  0  0  0  0  0  0  0  0  0
    8.5539  -13.8954   17.5969 C   0  0  0  0  0  0  0  0  0  0  0  0
    7.9506  -13.1190   18.7767 C   0  0  0  0  0  0  0  0  0  0  0  0
    6.5152  -13.1583   18.7345 N   0  0  0  0  0  0  0  0  0  0  0  0
   12.6968  -15.3541   18.0413 C   0  0  0  0  0  0  0  0  0  0  0  0
   12.5992  -16.6195   18.1854 O   0  0  0  0  0  0  0  0  0  0  0  0
   13.2310  -14.6468   19.1162 N   0  0  0  0  0  0  0  0  0  0  0  0
   12.9414  -14.9619   20.5172 C   0  0  1  0  0  0  0  0  0  0  0  0
   11.4957  -15.1887   20.7441 C   0  0  0  0  0  0  0  0  0  0  0  0
   11.2357  -15.5426   22.1542 C   0  0  0  0  0  0  0  0  0  0  0  0
   12.0987  -15.6509   23.2341 C   0  0  0  0  0  0  0  0  0  0  0  0
   11.4340  -16.0251   24.3404 N   0  0  0  0  0  0  0  0  0  0  0  0
   10.1635  -16.1550   23.9752 C   0  0  0  0  0  0  0  0  0  0  0  0
   10.0159  -15.8726   22.6732 N   0  0  0  0  0  0  0  0  0  0  0  0
   13.7853  -16.0866   20.9400 C   0  0  0  0  0  0  0  0  0  0  0  0
   14.8847  -16.5034   20.1946 O   0  0  0  0  0  0  0  0  0  0  0  0
   13.5311  -16.7014   21.9918 O   0  0  0  0  0  0  0  0  0  0  0  0
  2  3  1  0
  2  1  1  1
  4  2  1  0
  4  5  1  6
  6  4  1  0
  6  7  2  0
  8  6  1  0
  9 10  1  1
  9  8  1  0
 11 10  1  0
 11 12  1  0
 13 12  1  0
 13 14  1  0
 15  9  1  0
 16 15  2  0
 17 15  1  0
 18 17  1  0
 18 19  1  6
 19 20  1  0
 20 21  2  0
 21 22  1  0
 23 22  1  0
 24 20  1  0
 24 23  2  0
 25 26  1  0
 25 18  1  0
 27 25  2  0
M  END
$$$$
