TKH.pdb
     RDKit          3D

 27 27  0  0  1  0  0  0  0  0999 V2000
    9.6202  -13.4253   17.9119 C   0  0  0  0  0  0  0  0  0  0  0  0
    8.2584  -13.9863   17.6135 C   0  0  1  0  0  0  0  0  0  0  0  0
    8.2929  -15.3488   17.3626 O   0  0  0  0  0  0  0  0  0  0  0  0
    7.3024  -13.6822   18.7764 C   0  0  2  0  0  0  0  0  0  0  0  0
    7.3602  -12.2599   19.0717 N   0  0  0  0  0  0  0  0  0  0  0  0
    7.8521  -14.3915   19.9548 C   0  0  0  0  0  0  0  0  0  0  0  0
    8.8224  -13.8493   20.5493 O   0  0  0  0  0  0  0  0  0  0  0  0
    7.3725  -15.6079   20.4462 N   0  0  0  0  0  0  0  0  0  0  0  0
    7.9237  -16.2915   21.6277 C   0  0  1  0  0  0  0  0  0  0  0  0
    7.0743  -17.4772   21.9501 C   0  0  0  0  0  0  0  0  0  0  0  0
    7.5161  -18.3301   23.0658 C   0  0  0  0  0  0  0  0  0  0  0  0
    6.5866  -19.4846   23.3820 C   0  0  0  0  0  0  0  0  0  0  0  0
    7.0839  -20.2229   24.6335 C   0  0  0  0  0  0  0  0  0  0  0  0
    6.1411  -21.2259   25.0442 N   0  0  0  0  0  0  0  0  0  0  0  0
    9.3428  -16.5943   21.3429 C   0  0  0  0  0  0  0  0  0  0  0  0
    9.6054  -17.1845   20.2410 O   0  0  0  0  0  0  0  0  0  0  0  0
   10.4303  -16.2957   22.1610 N   0  0  0  0  0  0  0  0  0  0  0  0
   11.8171  -16.2759   21.6895 C   0  0  1  0  0  0  0  0  0  0  0  0
   12.1414  -15.0160   20.9822 C   0  0  0  0  0  0  0  0  0  0  0  0
   13.5226  -15.0486   20.4601 C   0  0  0  0  0  0  0  0  0  0  0  0
   14.5050  -16.0220   20.5596 C   0  0  0  0  0  0  0  0  0  0  0  0
   15.6350  -15.6233   19.9513 N   0  0  0  0  0  0  0  0  0  0  0  0
   15.3809  -14.4121   19.4691 C   0  0  0  0  0  0  0  0  0  0  0  0
   14.1251  -14.0432   19.7586 N   0  0  0  0  0  0  0  0  0  0  0  0
   12.7114  -16.5622   22.8183 C   0  0  0  0  0  0  0  0  0  0  0  0
   12.2332  -16.7130   24.1170 O   0  0  0  0  0  0  0  0  0  0  0  0
   13.9369  -16.6780   22.6345 O   0  0  0  0  0  0  0  0  0  0  0  0
  2  3  1  0
  2  1  1  1
  4  2  1  0
  4  5  1  1
  6  4  1  0
  6  7  2  0
  8  6  1  0
  9 10  1  6
  9  8  1  0
 11 10  1  0
 11 12  1  0
 13 12  1  0
 13 14  1  0
 15  9  1  0
 16 15  2  0
 17 15  1  0
 18 17  1  0
 18 19  1  1
 19 20  1  0
 20 21  2  0
 21 22  1  0
 23 22  1  0
 24 20  1  0
 24 23  2  0
 25 26  1  0
 25 18  1  0
 27 25  2  0
M  END
$$$$
