TKH.pdb
     RDKit          3D

 27 27  0  0  1  0  0  0  0  0999 V2000
    9.2922  -16.3542   17.0047 C   0  0  0  0  0  0  0  0  0  0  0  0
    9.1946  -14.8561   17.0720 C   0  0  1  0  0  0  0  0  0  0  0  0
    9.2349  -14.2684   15.8176 O   0  0  0  0  0  0  0  0  0  0  0  0
    7.9111  -14.4493   17.8106 C   0  0  2  0  0  0  0  0  0  0  0  0
    7.7809  -13.0022   17.7631 N   0  0  0  0  0  0  0  0  0  0  0  0
    8.1204  -14.8187   19.2296 C   0  0  0  0  0  0  0  0  0  0  0  0
    8.8311  -14.0437   19.9250 O   0  0  0  0  0  0  0  0  0  0  0  0
    7.5891  -15.9559   19.8424 N   0  0  0  0  0  0  0  0  0  0  0  0
    7.7426  -16.2659   21.2733 C   0  0  1  0  0  0  0  0  0  0  0  0
    6.8017  -17.3661   21.6413 C   0  0  0  0  0  0  0  0  0  0  0  0
    5.4054  -17.2259   21.1959 C   0  0  0  0  0  0  0  0  0  0  0  0
    4.5050  -18.3853   21.5728 C   0  0  0  0  0  0  0  0  0  0  0  0
    3.0711  -18.1028   21.1010 C   0  0  0  0  0  0  0  0  0  0  0  0
    2.1892  -19.1732   21.4753 N   0  0  0  0  0  0  0  0  0  0  0  0
    9.1727  -16.5558   21.5132 C   0  0  0  0  0  0  0  0  0  0  0  0
    9.7573  -17.3375   20.6894 O   0  0  0  0  0  0  0  0  0  0  0  0
    9.9524  -16.0561   22.5540 N   0  0  0  0  0  0  0  0  0  0  0  0
   11.3469  -16.4438   22.7795 C   0  0  1  0  0  0  0  0  0  0  0  0
   12.2773  -15.3147   22.5510 C   0  0  0  0  0  0  0  0  0  0  0  0
   12.4817  -15.0883   21.1059 C   0  0  0  0  0  0  0  0  0  0  0  0
   12.0232  -15.7958   20.0052 C   0  0  0  0  0  0  0  0  0  0  0  0
   12.4733  -15.2472   18.8640 N   0  0  0  0  0  0  0  0  0  0  0  0
   13.2098  -14.2033   19.2278 C   0  0  0  0  0  0  0  0  0  0  0  0
   13.2323  -14.0844   20.5628 N   0  0  0  0  0  0  0  0  0  0  0  0
   11.4681  -17.0431   24.1145 C   0  0  0  0  0  0  0  0  0  0  0  0
   12.6805  -17.5284   24.5968 O   0  0  0  0  0  0  0  0  0  0  0  0
   10.4721  -17.1313   24.8556 O   0  0  0  0  0  0  0  0  0  0  0  0
  2  3  1  0
  2  1  1  6
  4  2  1  0
  4  5  1  1
  6  4  1  0
  6  7  2  0
  8  6  1  0
  9 10  1  6
  9  8  1  0
 11 10  1  0
 11 12  1  0
 13 12  1  0
 13 14  1  0
 15  9  1  0
 16 15  2  0
 17 15  1  0
 18 17  1  0
 18 19  1  1
 19 20  1  0
 20 21  2  0
 21 22  1  0
 23 22  1  0
 24 20  1  0
 24 23  2  0
 25 26  1  0
 25 18  1  0
 27 25  2  0
M  END
$$$$
