TKH.pdb
     RDKit          3D

 27 27  0  0  1  0  0  0  0  0999 V2000
   14.1188  -16.5524   18.4545 C   0  0  0  0  0  0  0  0  0  0  0  0
   13.5403  -15.1697   18.3456 C   0  0  1  0  0  0  0  0  0  0  0  0
   14.0013  -14.4919   17.2282 O   0  0  0  0  0  0  0  0  0  0  0  0
   12.0065  -15.2455   18.3284 C   0  0  2  0  0  0  0  0  0  0  0  0
   11.4707  -13.8959   18.2584 N   0  0  0  0  0  0  0  0  0  0  0  0
   11.6090  -15.8013   19.6425 C   0  0  0  0  0  0  0  0  0  0  0  0
   11.6114  -15.0103   20.6240 O   0  0  0  0  0  0  0  0  0  0  0  0
   11.2358  -17.1289   19.8648 N   0  0  0  0  0  0  0  0  0  0  0  0
   10.9132  -17.6807   21.1909 C   0  0  1  0  0  0  0  0  0  0  0  0
   10.2223  -18.9942   21.0215 C   0  0  0  0  0  0  0  0  0  0  0  0
    9.9874  -19.7858   22.2405 C   0  0  0  0  0  0  0  0  0  0  0  0
    9.1802  -21.0502   22.0241 C   0  0  0  0  0  0  0  0  0  0  0  0
    8.9595  -21.7606   23.3677 C   0  0  0  0  0  0  0  0  0  0  0  0
    8.1698  -22.9482   23.1947 N   0  0  0  0  0  0  0  0  0  0  0  0
   12.1696  -17.7276   21.9692 C   0  0  0  0  0  0  0  0  0  0  0  0
   13.1693  -18.3136   21.4317 O   0  0  0  0  0  0  0  0  0  0  0  0
   12.3743  -17.1906   23.2384 N   0  0  0  0  0  0  0  0  0  0  0  0
   13.6099  -17.3709   24.0044 C   0  0  1  0  0  0  0  0  0  0  0  0
   14.3284  -16.0912   24.2016 C   0  0  0  0  0  0  0  0  0  0  0  0
   15.1041  -15.7346   22.9965 C   0  0  0  0  0  0  0  0  0  0  0  0
   15.2607  -16.4013   21.7909 C   0  0  0  0  0  0  0  0  0  0  0  0
   16.0831  -15.7221   20.9734 N   0  0  0  0  0  0  0  0  0  0  0  0
   16.4486  -14.6360   21.6451 C   0  0  0  0  0  0  0  0  0  0  0  0
   15.8782  -14.6176   22.8580 N   0  0  0  0  0  0  0  0  0  0  0  0
   13.2990  -18.0687   25.2584 C   0  0  0  0  0  0  0  0  0  0  0  0
   14.2976  -18.5444   26.1037 O   0  0  0  0  0  0  0  0  0  0  0  0
   12.1158  -18.2526   25.5976 O   0  0  0  0  0  0  0  0  0  0  0  0
  2  3  1  0
  2  1  1  6
  4  2  1  0
  4  5  1  1
  6  4  1  0
  6  7  2  0
  8  6  1  0
  9 10  1  6
  9  8  1  0
 11 10  1  0
 11 12  1  0
 13 12  1  0
 13 14  1  0
 15  9  1  0
 16 15  2  0
 17 15  1  0
 18 17  1  0
 18 19  1  1
 19 20  1  0
 20 21  2  0
 21 22  1  0
 23 22  1  0
 24 20  1  0
 24 23  2  0
 25 26  1  0
 25 18  1  0
 27 25  2  0
M  END
$$$$
