TKH.pdb
     RDKit          3D

 27 27  0  0  1  0  0  0  0  0999 V2000
   10.8881  -22.3297   19.2096 C   0  0  0  0  0  0  0  0  0  0  0  0
   10.1668  -22.2295   20.5241 C   0  0  1  0  0  0  0  0  0  0  0  0
   10.9349  -21.6171   21.5016 O   0  0  0  0  0  0  0  0  0  0  0  0
    8.8421  -21.4754   20.3364 C   0  0  2  0  0  0  0  0  0  0  0  0
    9.1319  -20.1200   19.8978 N   0  0  0  0  0  0  0  0  0  0  0  0
    8.2342  -21.3738   21.6833 C   0  0  0  0  0  0  0  0  0  0  0  0
    8.4136  -20.2970   22.3136 O   0  0  0  0  0  0  0  0  0  0  0  0
    7.4835  -22.3803   22.2952 N   0  0  0  0  0  0  0  0  0  0  0  0
    6.9267  -22.2791   23.6542 C   0  0  1  0  0  0  0  0  0  0  0  0
    5.7147  -23.1464   23.7544 C   0  0  0  0  0  0  0  0  0  0  0  0
    5.0716  -23.2432   25.0752 C   0  0  0  0  0  0  0  0  0  0  0  0
    3.8413  -24.1274   25.1131 C   0  0  0  0  0  0  0  0  0  0  0  0
    3.1867  -24.0458   26.5000 C   0  0  0  0  0  0  0  0  0  0  0  0
    2.0185  -24.8795   26.5641 N   0  0  0  0  0  0  0  0  0  0  0  0
    8.0125  -22.6049   24.6037 C   0  0  0  0  0  0  0  0  0  0  0  0
    8.9823  -23.3101   24.1636 O   0  0  0  0  0  0  0  0  0  0  0  0
    8.0852  -22.2147   25.9391 N   0  0  0  0  0  0  0  0  0  0  0  0
    9.3442  -21.9321   26.6328 C   0  0  1  0  0  0  0  0  0  0  0  0
   10.0533  -20.7754   26.0396 C   0  0  0  0  0  0  0  0  0  0  0  0
   11.1738  -21.2271   25.1900 C   0  0  0  0  0  0  0  0  0  0  0  0
   11.6677  -22.4991   24.9444 C   0  0  0  0  0  0  0  0  0  0  0  0
   12.7257  -22.4488   24.1173 N   0  0  0  0  0  0  0  0  0  0  0  0
   12.9074  -21.1632   23.8368 C   0  0  0  0  0  0  0  0  0  0  0  0
   11.9937  -20.4098   24.4648 N   0  0  0  0  0  0  0  0  0  0  0  0
    9.0773  -21.7832   28.0690 C   0  0  0  0  0  0  0  0  0  0  0  0
   10.0533  -22.0343   29.0294 O   0  0  0  0  0  0  0  0  0  0  0  0
    7.9535  -21.4233   28.4645 O   0  0  0  0  0  0  0  0  0  0  0  0
  2  3  1  0
  2  1  1  6
  4  2  1  0
  4  5  1  1
  6  4  1  0
  6  7  2  0
  8  6  1  0
  9 10  1  6
  9  8  1  0
 11 10  1  0
 11 12  1  0
 13 12  1  0
 13 14  1  0
 15  9  1  0
 16 15  2  0
 17 15  1  0
 18 17  1  0
 18 19  1  6
 19 20  1  0
 20 21  2  0
 21 22  1  0
 23 22  1  0
 24 20  1  0
 24 23  2  0
 25 26  1  0
 25 18  1  0
 27 25  2  0
M  END
$$$$
