TKH.pdb
     RDKit          3D

 27 27  0  0  1  0  0  0  0  0999 V2000
    8.5734  -11.9590   17.9339 C   0  0  0  0  0  0  0  0  0  0  0  0
    8.1721  -13.1047   18.8196 C   0  0  1  0  0  0  0  0  0  0  0  0
    7.7689  -14.2151   18.0950 O   0  0  0  0  0  0  0  0  0  0  0  0
    9.3326  -13.4717   19.7562 C   0  0  2  0  0  0  0  0  0  0  0  0
   10.3352  -14.2014   18.9975 N   0  0  0  0  0  0  0  0  0  0  0  0
    8.7728  -14.4142   20.7523 C   0  0  0  0  0  0  0  0  0  0  0  0
    7.8302  -13.9917   21.4749 O   0  0  0  0  0  0  0  0  0  0  0  0
    9.2145  -15.7256   20.9427 N   0  0  0  0  0  0  0  0  0  0  0  0
    8.6841  -16.6294   21.9766 C   0  0  1  0  0  0  0  0  0  0  0  0
    8.8185  -18.0420   21.5101 C   0  0  0  0  0  0  0  0  0  0  0  0
    7.9278  -18.4713   20.4192 C   0  0  0  0  0  0  0  0  0  0  0  0
    8.1711  -19.8839   19.9268 C   0  0  0  0  0  0  0  0  0  0  0  0
    7.2475  -20.1845   18.7372 C   0  0  0  0  0  0  0  0  0  0  0  0
    7.4186  -21.5376   18.2860 N   0  0  0  0  0  0  0  0  0  0  0  0
    9.3842  -16.3161   23.2408 C   0  0  0  0  0  0  0  0  0  0  0  0
   10.6336  -16.0605   23.1699 O   0  0  0  0  0  0  0  0  0  0  0  0
    8.8126  -16.2691   24.5106 N   0  0  0  0  0  0  0  0  0  0  0  0
    9.5644  -15.9460   25.7256 C   0  0  1  0  0  0  0  0  0  0  0  0
    8.7579  -15.1484   26.6776 C   0  0  0  0  0  0  0  0  0  0  0  0
    9.5013  -14.9228   27.9336 C   0  0  0  0  0  0  0  0  0  0  0  0
   10.8552  -14.7295   28.1618 C   0  0  0  0  0  0  0  0  0  0  0  0
   11.1020  -14.5854   29.4749 N   0  0  0  0  0  0  0  0  0  0  0  0
    9.9236  -14.6848   30.0797 C   0  0  0  0  0  0  0  0  0  0  0  0
    8.9485  -14.8868   29.1824 N   0  0  0  0  0  0  0  0  0  0  0  0
   10.0976  -17.1860   26.3035 C   0  0  0  0  0  0  0  0  0  0  0  0
    9.6142  -18.4382   25.9340 O   0  0  0  0  0  0  0  0  0  0  0  0
   11.0085  -17.1429   27.1504 O   0  0  0  0  0  0  0  0  0  0  0  0
  2  3  1  0
  2  1  1  6
  4  2  1  0
  4  5  1  6
  6  4  1  0
  6  7  2  0
  8  6  1  0
  9 10  1  6
  9  8  1  0
 11 10  1  0
 11 12  1  0
 13 12  1  0
 13 14  1  0
 15  9  1  0
 16 15  2  0
 17 15  1  0
 18 17  1  0
 18 19  1  1
 19 20  1  0
 20 21  2  0
 21 22  1  0
 23 22  1  0
 24 20  1  0
 24 23  2  0
 25 26  1  0
 25 18  1  0
 27 25  2  0
M  END
$$$$
