TKH.pdb
     RDKit          3D

 27 27  0  0  1  0  0  0  0  0999 V2000
    8.4355  -20.3753   19.2207 C   0  0  0  0  0  0  0  0  0  0  0  0
    9.3710  -19.2157   19.4162 C   0  0  1  0  0  0  0  0  0  0  0  0
   10.6769  -19.6235   19.6377 O   0  0  0  0  0  0  0  0  0  0  0  0
    9.3034  -18.2798   18.2005 C   0  0  2  0  0  0  0  0  0  0  0  0
    9.8982  -18.9522   17.0570 N   0  0  0  0  0  0  0  0  0  0  0  0
   10.1726  -17.1249   18.5237 C   0  0  0  0  0  0  0  0  0  0  0  0
   11.3893  -17.2166   18.2071 O   0  0  0  0  0  0  0  0  0  0  0  0
    9.7392  -15.9535   19.1491 N   0  0  0  0  0  0  0  0  0  0  0  0
   10.6197  -14.8170   19.4659 C   0  0  1  0  0  0  0  0  0  0  0  0
    9.7935  -13.5810   19.6107 C   0  0  0  0  0  0  0  0  0  0  0  0
    9.3868  -12.9019   18.3694 C   0  0  0  0  0  0  0  0  0  0  0  0
    8.2681  -13.5899   17.6129 C   0  0  0  0  0  0  0  0  0  0  0  0
    8.0245  -12.8690   16.2789 C   0  0  0  0  0  0  0  0  0  0  0  0
    7.0675  -13.5823   15.4794 N   0  0  0  0  0  0  0  0  0  0  0  0
   11.4101  -15.1877   20.6594 C   0  0  0  0  0  0  0  0  0  0  0  0
   10.8049  -15.8229   21.5877 O   0  0  0  0  0  0  0  0  0  0  0  0
   12.7592  -14.9136   20.8731 N   0  0  0  0  0  0  0  0  0  0  0  0
   13.5677  -15.5765   21.8992 C   0  0  1  0  0  0  0  0  0  0  0  0
   13.5158  -17.0512   21.7749 C   0  0  0  0  0  0  0  0  0  0  0  0
   12.5278  -17.6217   22.7129 C   0  0  0  0  0  0  0  0  0  0  0  0
   11.7392  -17.0133   23.6774 C   0  0  0  0  0  0  0  0  0  0  0  0
   10.9924  -17.9227   24.3264 N   0  0  0  0  0  0  0  0  0  0  0  0
   11.2978  -19.0970   23.7859 C   0  0  0  0  0  0  0  0  0  0  0  0
   12.2135  -18.9469   22.8185 N   0  0  0  0  0  0  0  0  0  0  0  0
   14.9307  -15.0320   21.8615 C   0  0  0  0  0  0  0  0  0  0  0  0
   15.3364  -14.1291   20.8826 O   0  0  0  0  0  0  0  0  0  0  0  0
   15.7664  -15.3722   22.7188 O   0  0  0  0  0  0  0  0  0  0  0  0
  2  3  1  0
  2  1  1  6
  4  2  1  0
  4  5  1  6
  6  4  1  0
  6  7  2  0
  8  6  1  0
  9 10  1  1
  9  8  1  0
 11 10  1  0
 11 12  1  0
 13 12  1  0
 13 14  1  0
 15  9  1  0
 16 15  2  0
 17 15  1  0
 18 17  1  0
 18 19  1  6
 19 20  1  0
 20 21  2  0
 21 22  1  0
 23 22  1  0
 24 20  1  0
 24 23  2  0
 25 26  1  0
 25 18  1  0
 27 25  2  0
M  END
$$$$
