TKH.pdb
     RDKit          3D

 27 27  0  0  1  0  0  0  0  0999 V2000
   11.7204  -17.2315   15.7986 C   0  0  0  0  0  0  0  0  0  0  0  0
   10.8945  -17.1163   17.0487 C   0  0  1  0  0  0  0  0  0  0  0  0
   10.9618  -15.8511   17.6103 O   0  0  0  0  0  0  0  0  0  0  0  0
    9.4355  -17.4887   16.7466 C   0  0  2  0  0  0  0  0  0  0  0  0
    8.9036  -16.5495   15.7727 N   0  0  0  0  0  0  0  0  0  0  0  0
    8.6884  -17.2744   18.0074 C   0  0  0  0  0  0  0  0  0  0  0  0
    7.4617  -17.0021   17.9078 O   0  0  0  0  0  0  0  0  0  0  0  0
    9.2460  -17.3530   19.2857 N   0  0  0  0  0  0  0  0  0  0  0  0
    8.5625  -17.9495   20.4451 C   0  0  1  0  0  0  0  0  0  0  0  0
    8.0709  -19.3115   20.0784 C   0  0  0  0  0  0  0  0  0  0  0  0
    7.4083  -20.0888   21.1387 C   0  0  0  0  0  0  0  0  0  0  0  0
    6.9811  -21.4825   20.7240 C   0  0  0  0  0  0  0  0  0  0  0  0
    6.1529  -22.1263   21.8458 C   0  0  0  0  0  0  0  0  0  0  0  0
    5.6494  -23.4086   21.4385 N   0  0  0  0  0  0  0  0  0  0  0  0
    9.5038  -17.9072   21.5848 C   0  0  0  0  0  0  0  0  0  0  0  0
   10.7459  -18.0494   21.3232 O   0  0  0  0  0  0  0  0  0  0  0  0
    9.1691  -17.7239   22.9247 N   0  0  0  0  0  0  0  0  0  0  0  0
    8.8736  -16.4157   23.5140 C   0  0  1  0  0  0  0  0  0  0  0  0
    7.4522  -16.2986   23.9125 C   0  0  0  0  0  0  0  0  0  0  0  0
    7.1918  -14.9907   24.5471 C   0  0  0  0  0  0  0  0  0  0  0  0
    8.0305  -13.9088   24.7678 C   0  0  0  0  0  0  0  0  0  0  0  0
    7.3787  -12.9222   25.4063 N   0  0  0  0  0  0  0  0  0  0  0  0
    6.1403  -13.3650   25.5923 C   0  0  0  0  0  0  0  0  0  0  0  0
    6.0002  -14.5993   25.0885 N   0  0  0  0  0  0  0  0  0  0  0  0
    9.8139  -16.1613   24.6126 C   0  0  0  0  0  0  0  0  0  0  0  0
   10.4370  -14.9274   24.7779 O   0  0  0  0  0  0  0  0  0  0  0  0
   10.0781  -17.0589   25.4332 O   0  0  0  0  0  0  0  0  0  0  0  0
  2  3  1  0
  2  1  1  6
  4  2  1  0
  4  5  1  6
  6  4  1  0
  6  7  2  0
  8  6  1  0
  9 10  1  6
  9  8  1  0
 11 10  1  0
 11 12  1  0
 13 12  1  0
 13 14  1  0
 15  9  1  0
 16 15  2  0
 17 15  1  0
 18 17  1  0
 18 19  1  1
 19 20  1  0
 20 21  2  0
 21 22  1  0
 23 22  1  0
 24 20  1  0
 24 23  2  0
 25 26  1  0
 25 18  1  0
 27 25  2  0
M  END
$$$$
