TKH.pdb
     RDKit          3D

 27 27  0  0  1  0  0  0  0  0999 V2000
   11.1660  -13.7814   18.2212 C   0  0  0  0  0  0  0  0  0  0  0  0
   10.3138  -14.3477   19.3218 C   0  0  1  0  0  0  0  0  0  0  0  0
   10.5684  -13.7504   20.5461 O   0  0  0  0  0  0  0  0  0  0  0  0
    8.8286  -14.2055   18.9576 C   0  0  2  0  0  0  0  0  0  0  0  0
    8.4806  -12.7940   18.9494 N   0  0  0  0  0  0  0  0  0  0  0  0
    8.0730  -14.8312   20.0672 C   0  0  0  0  0  0  0  0  0  0  0  0
    7.6144  -14.0617   20.9542 O   0  0  0  0  0  0  0  0  0  0  0  0
    7.8369  -16.2019   20.1954 N   0  0  0  0  0  0  0  0  0  0  0  0
    7.0747  -16.8046   21.3013 C   0  0  1  0  0  0  0  0  0  0  0  0
    6.6777  -18.1944   20.9242 C   0  0  0  0  0  0  0  0  0  0  0  0
    6.0365  -19.0108   21.9682 C   0  0  0  0  0  0  0  0  0  0  0  0
    5.6474  -20.4070   21.5251 C   0  0  0  0  0  0  0  0  0  0  0  0
    4.9279  -21.1331   22.6713 C   0  0  0  0  0  0  0  0  0  0  0  0
    4.5705  -22.4699   22.2854 N   0  0  0  0  0  0  0  0  0  0  0  0
    7.9033  -16.6971   22.5212 C   0  0  0  0  0  0  0  0  0  0  0  0
    9.1710  -16.7505   22.3740 O   0  0  0  0  0  0  0  0  0  0  0  0
    7.4364  -16.5397   23.8244 N   0  0  0  0  0  0  0  0  0  0  0  0
    8.3132  -16.3306   24.9792 C   0  0  1  0  0  0  0  0  0  0  0  0
    7.6019  -15.6751   26.1004 C   0  0  0  0  0  0  0  0  0  0  0  0
    7.2216  -14.2933   25.7435 C   0  0  0  0  0  0  0  0  0  0  0  0
    7.5447  -13.5228   24.6369 C   0  0  0  0  0  0  0  0  0  0  0  0
    6.9971  -12.2992   24.7311 N   0  0  0  0  0  0  0  0  0  0  0  0
    6.3327  -12.2854   25.8812 C   0  0  0  0  0  0  0  0  0  0  0  0
    6.4497  -13.4648   26.5076 N   0  0  0  0  0  0  0  0  0  0  0  0
    8.9357  -17.6087   25.3462 C   0  0  0  0  0  0  0  0  0  0  0  0
    9.9239  -17.6930   26.3231 O   0  0  0  0  0  0  0  0  0  0  0  0
    8.5868  -18.6617   24.7819 O   0  0  0  0  0  0  0  0  0  0  0  0
  2  3  1  0
  2  1  1  6
  4  2  1  0
  4  5  1  1
  6  4  1  0
  6  7  2  0
  8  6  1  0
  9 10  1  6
  9  8  1  0
 11 10  1  0
 11 12  1  0
 13 12  1  0
 13 14  1  0
 15  9  1  0
 16 15  2  0
 17 15  1  0
 18 17  1  0
 18 19  1  1
 19 20  1  0
 20 21  2  0
 21 22  1  0
 23 22  1  0
 24 20  1  0
 24 23  2  0
 25 26  1  0
 25 18  1  0
 27 25  2  0
M  END
$$$$
