TKH.pdb
     RDKit          3D

 27 27  0  0  1  0  0  0  0  0999 V2000
    9.8866  -18.2949   17.1092 C   0  0  0  0  0  0  0  0  0  0  0  0
    9.2256  -18.3314   18.4582 C   0  0  1  0  0  0  0  0  0  0  0  0
    9.3701  -17.1385   19.1486 O   0  0  0  0  0  0  0  0  0  0  0  0
    7.7382  -18.6800   18.3013 C   0  0  2  0  0  0  0  0  0  0  0  0
    7.1033  -17.6665   17.4747 N   0  0  0  0  0  0  0  0  0  0  0  0
    7.1462  -18.5681   19.6544 C   0  0  0  0  0  0  0  0  0  0  0  0
    6.5341  -17.5000   19.9259 O   0  0  0  0  0  0  0  0  0  0  0  0
    7.2199  -19.5559   20.6393 N   0  0  0  0  0  0  0  0  0  0  0  0
    6.6007  -19.4377   21.9696 C   0  0  1  0  0  0  0  0  0  0  0  0
    6.3922  -20.8035   22.5375 C   0  0  0  0  0  0  0  0  0  0  0  0
    5.7996  -20.8826   23.8829 C   0  0  0  0  0  0  0  0  0  0  0  0
    5.5048  -22.2909   24.3591 C   0  0  0  0  0  0  0  0  0  0  0  0
    4.8525  -22.2424   25.7486 C   0  0  0  0  0  0  0  0  0  0  0  0
    4.6731  -23.5666   26.2759 N   0  0  0  0  0  0  0  0  0  0  0  0
    7.4570  -18.5447   22.7794 C   0  0  0  0  0  0  0  0  0  0  0  0
    8.7116  -18.7845   22.7856 O   0  0  0  0  0  0  0  0  0  0  0  0
    7.0295  -17.4584   23.5399 N   0  0  0  0  0  0  0  0  0  0  0  0
    7.9378  -16.5865   24.2887 C   0  0  1  0  0  0  0  0  0  0  0  0
    7.4135  -15.2057   24.3959 C   0  0  0  0  0  0  0  0  0  0  0  0
    7.4240  -14.5374   23.0789 C   0  0  0  0  0  0  0  0  0  0  0  0
    7.9582  -14.9395   21.8642 C   0  0  0  0  0  0  0  0  0  0  0  0
    7.7586  -14.0027   20.9216 N   0  0  0  0  0  0  0  0  0  0  0  0
    7.1062  -13.0144   21.5232 C   0  0  0  0  0  0  0  0  0  0  0  0
    6.8927  -13.3072   22.8138 N   0  0  0  0  0  0  0  0  0  0  0  0
    8.2335  -17.2044   25.5874 C   0  0  0  0  0  0  0  0  0  0  0  0
    9.2724  -16.7545   26.3976 O   0  0  0  0  0  0  0  0  0  0  0  0
    7.5498  -18.1597   25.9982 O   0  0  0  0  0  0  0  0  0  0  0  0
  2  3  1  0
  2  1  1  6
  4  2  1  0
  4  5  1  6
  6  4  1  0
  6  7  2  0
  8  6  1  0
  9 10  1  1
  9  8  1  0
 11 10  1  0
 11 12  1  0
 13 12  1  0
 13 14  1  0
 15  9  1  0
 16 15  2  0
 17 15  1  0
 18 17  1  0
 18 19  1  1
 19 20  1  0
 20 21  2  0
 21 22  1  0
 23 22  1  0
 24 20  1  0
 24 23  2  0
 25 26  1  0
 25 18  1  0
 27 25  2  0
M  END
$$$$
