ESY.pdb
     RDKit          3D

 28 28  0  0  1  0  0  0  0  0999 V2000
   20.0446  -11.4775  -17.8578 N   0  0  0  0  0  0  0  0  0  0  0  0
   18.6790  -10.9456  -17.7076 C   0  0  1  0  0  0  0  0  0  0  0  0
   17.7857  -11.9969  -17.1564 C   0  0  0  0  0  0  0  0  0  0  0  0
   18.4440  -12.7983  -16.0772 C   0  0  0  0  0  0  0  0  0  0  0  0
   17.5440  -13.7685  -15.4556 C   0  0  0  0  0  0  0  0  0  0  0  0
   17.9039  -14.6198  -14.6185 O   0  0  0  0  0  0  0  0  0  0  0  0
   18.7861   -9.8122  -16.7446 C   0  0  0  0  0  0  0  0  0  0  0  0
   17.7467   -9.1664  -16.3824 O   0  0  0  0  0  0  0  0  0  0  0  0
   16.1997  -13.7261  -15.8340 O   0  0  0  0  0  0  0  0  0  0  0  0
   22.4000   -8.1345  -15.6268 O   0  0  0  0  0  0  0  0  0  0  0  0
   21.3956   -8.0566  -14.6819 C   0  0  0  0  0  0  0  0  0  0  0  0
   20.0571   -8.1975  -15.3709 C   0  0  2  0  0  0  0  0  0  0  0  0
   20.0114   -9.3861  -16.1819 N   0  0  0  0  0  0  0  0  0  0  0  0
   19.8045   -7.0294  -16.2440 C   0  0  0  0  0  0  0  0  0  0  0  0
   19.6799   -7.2223  -17.4861 O   0  0  0  0  0  0  0  0  0  0  0  0
   16.0340   -0.4806  -20.1446 O   0  0  0  0  0  0  0  0  0  0  0  0
   16.5315   -1.5702  -19.4371 C   0  0  0  0  0  0  0  0  0  0  0  0
   16.3684   -1.6226  -18.0656 C   0  0  0  0  0  0  0  0  0  0  0  0
   16.8512   -2.6861  -17.3561 C   0  0  0  0  0  0  0  0  0  0  0  0
   17.5154   -3.7402  -17.9813 C   0  0  0  0  0  0  0  0  0  0  0  0
   18.0337   -4.8776  -17.1987 C   0  0  0  0  0  0  0  0  0  0  0  0
   19.4188   -4.6361  -16.6289 C   0  0  2  0  0  0  0  0  0  0  0  0
   19.7025   -5.7183  -15.7107 N   0  0  0  0  0  0  0  0  0  0  0  0
   19.5271   -3.3618  -15.8937 C   0  0  0  0  0  0  0  0  0  0  0  0
   19.2723   -3.2538  -14.6634 O   0  0  0  0  0  0  0  0  0  0  0  0
   17.6636   -3.6662  -19.3303 C   0  0  0  0  0  0  0  0  0  0  0  0
   17.1802   -2.5952  -20.0646 C   0  0  0  0  0  0  0  0  0  0  0  0
   19.9228   -2.2229  -16.5589 O   0  0  0  0  0  0  0  0  0  0  0  0
  2  1  1  1
  2  7  1  0
  3  2  1  0
  4  3  1  0
  4  5  1  0
  5  6  2  0
  7  8  2  0
  9  5  1  0
 12 11  1  6
 11 10  1  0
 13  7  1  0
 13 12  1  0
 14 12  1  0
 14 15  2  0
 16 17  1  0
 17 27  2  0
 17 18  1  0
 18 19  2  0
 19 20  1  0
 20 21  1  0
 22 21  1  1
 22 24  1  0
 22 23  1  0
 23 14  1  0
 24 28  1  0
 25 24  2  0
 26 20  2  0
 27 26  1  0
M  END
$$$$
