ESY.pdb
     RDKit          3D

 28 28  0  0  1  0  0  0  0  0999 V2000
   29.5877  -22.2162  -19.8644 N   0  0  0  0  0  0  0  0  0  0  0  0
   28.1567  -22.1477  -20.2080 C   0  0  1  0  0  0  0  0  0  0  0  0
   27.6033  -23.5199  -20.3409 C   0  0  0  0  0  0  0  0  0  0  0  0
   26.9862  -23.7600  -21.6832 C   0  0  0  0  0  0  0  0  0  0  0  0
   26.3634  -25.0777  -21.7987 C   0  0  0  0  0  0  0  0  0  0  0  0
   25.7283  -25.4656  -22.7993 O   0  0  0  0  0  0  0  0  0  0  0  0
   27.4977  -21.4407  -19.0725 C   0  0  0  0  0  0  0  0  0  0  0  0
   28.1028  -21.2947  -17.9585 O   0  0  0  0  0  0  0  0  0  0  0  0
   26.4971  -25.9447  -20.7113 O   0  0  0  0  0  0  0  0  0  0  0  0
   26.5291  -18.0480  -18.7143 O   0  0  0  0  0  0  0  0  0  0  0  0
   25.3482  -18.7191  -18.4643 C   0  0  0  0  0  0  0  0  0  0  0  0
   25.6647  -20.1375  -18.0472 C   0  0  2  0  0  0  0  0  0  0  0  0
   26.1940  -20.8984  -19.1487 N   0  0  0  0  0  0  0  0  0  0  0  0
   24.4414  -20.8138  -17.5606 C   0  0  0  0  0  0  0  0  0  0  0  0
   23.6924  -21.3825  -18.4038 O   0  0  0  0  0  0  0  0  0  0  0  0
   18.2384  -24.2115  -12.3117 O   0  0  0  0  0  0  0  0  0  0  0  0
   19.3805  -23.5867  -12.8022 C   0  0  0  0  0  0  0  0  0  0  0  0
   20.3894  -24.3516  -13.3566 C   0  0  0  0  0  0  0  0  0  0  0  0
   21.5175  -23.7531  -13.8430 C   0  0  0  0  0  0  0  0  0  0  0  0
   21.6881  -22.3703  -13.7979 C   0  0  0  0  0  0  0  0  0  0  0  0
   22.9146  -21.7423  -14.3235 C   0  0  0  0  0  0  0  0  0  0  0  0
   22.8368  -21.4120  -15.8021 C   0  0  2  0  0  0  0  0  0  0  0  0
   24.1065  -20.8302  -16.1817 N   0  0  0  0  0  0  0  0  0  0  0  0
   21.7683  -20.4469  -16.1232 C   0  0  0  0  0  0  0  0  0  0  0  0
   21.9076  -19.1999  -15.9980 O   0  0  0  0  0  0  0  0  0  0  0  0
   20.6827  -21.6395  -13.2482 C   0  0  0  0  0  0  0  0  0  0  0  0
   19.5325  -22.2305  -12.7506 C   0  0  0  0  0  0  0  0  0  0  0  0
   20.5532  -20.9036  -16.5827 O   0  0  0  0  0  0  0  0  0  0  0  0
  2  1  1  1
  2  7  1  0
  3  2  1  0
  4  3  1  0
  4  5  1  0
  5  6  2  0
  7  8  2  0
  9  5  1  0
 12 11  1  6
 11 10  1  0
 13  7  1  0
 13 12  1  0
 14 12  1  0
 14 15  2  0
 16 17  1  0
 17 27  2  0
 17 18  1  0
 18 19  2  0
 19 20  1  0
 20 21  1  0
 22 21  1  1
 22 24  1  0
 22 23  1  0
 23 14  1  0
 24 28  1  0
 25 24  2  0
 26 20  2  0
 27 26  1  0
M  END
$$$$
