ESY.pdb
     RDKit          3D

 28 28  0  0  1  0  0  0  0  0999 V2000
   19.6768  -10.7585  -17.7294 N   0  0  0  0  0  0  0  0  0  0  0  0
   18.7959   -9.8215  -17.0109 C   0  0  1  0  0  0  0  0  0  0  0  0
   18.8576  -10.0894  -15.5510 C   0  0  0  0  0  0  0  0  0  0  0  0
   18.1665  -11.3622  -15.1736 C   0  0  0  0  0  0  0  0  0  0  0  0
   16.7414  -11.1803  -14.9020 C   0  0  0  0  0  0  0  0  0  0  0  0
   16.2289  -11.2677  -13.7686 O   0  0  0  0  0  0  0  0  0  0  0  0
   19.3265   -8.4585  -17.3012 C   0  0  0  0  0  0  0  0  0  0  0  0
   20.5026   -8.3053  -17.7722 O   0  0  0  0  0  0  0  0  0  0  0  0
   15.9157  -10.8909  -15.9913 O   0  0  0  0  0  0  0  0  0  0  0  0
   16.9125   -5.2752  -17.6489 O   0  0  0  0  0  0  0  0  0  0  0  0
   18.1627   -5.1662  -18.2256 C   0  0  0  0  0  0  0  0  0  0  0  0
   19.1466   -5.9968  -17.4329 C   0  0  2  0  0  0  0  0  0  0  0  0
   18.5848   -7.2748  -17.0814 N   0  0  0  0  0  0  0  0  0  0  0  0
   19.5215   -5.2949  -16.1850 C   0  0  0  0  0  0  0  0  0  0  0  0
   18.7412   -5.3702  -15.1946 O   0  0  0  0  0  0  0  0  0  0  0  0
   21.9854   -9.8961  -12.8963 O   0  0  0  0  0  0  0  0  0  0  0  0
   22.0514   -8.5455  -13.2231 C   0  0  0  0  0  0  0  0  0  0  0  0
   22.6202   -8.1631  -14.4233 C   0  0  0  0  0  0  0  0  0  0  0  0
   22.6927   -6.8404  -14.7591 C   0  0  0  0  0  0  0  0  0  0  0  0
   22.2027   -5.8448  -13.9154 C   0  0  0  0  0  0  0  0  0  0  0  0
   22.2938   -4.4220  -14.2924 C   0  0  0  0  0  0  0  0  0  0  0  0
   20.9982   -3.8612  -14.8476 C   0  0  2  0  0  0  0  0  0  0  0  0
   20.7265   -4.5515  -16.0904 N   0  0  0  0  0  0  0  0  0  0  0  0
   21.0668   -2.4139  -15.1247 C   0  0  0  0  0  0  0  0  0  0  0  0
   20.9333   -1.9279  -16.2807 O   0  0  0  0  0  0  0  0  0  0  0  0
   21.6483   -6.2453  -12.7410 C   0  0  0  0  0  0  0  0  0  0  0  0
   21.5669   -7.5820  -12.3853 C   0  0  0  0  0  0  0  0  0  0  0  0
   21.2858   -1.5317  -14.0903 O   0  0  0  0  0  0  0  0  0  0  0  0
  2  1  1  6
  2  7  1  0
  3  2  1  0
  4  3  1  0
  4  5  1  0
  5  6  2  0
  7  8  2  0
  9  5  1  0
 12 11  1  1
 11 10  1  0
 13  7  1  0
 13 12  1  0
 14 12  1  0
 14 15  2  0
 16 17  1  0
 17 27  2  0
 17 18  1  0
 18 19  2  0
 19 20  1  0
 20 21  1  0
 22 21  1  6
 22 24  1  0
 22 23  1  0
 23 14  1  0
 24 28  1  0
 25 24  2  0
 26 20  2  0
 27 26  1  0
M  END
$$$$
