ESY.pdb
     RDKit          3D

 28 28  0  0  1  0  0  0  0  0999 V2000
   19.2991  -12.8615  -17.7315 N   0  0  0  0  0  0  0  0  0  0  0  0
   18.5738  -11.6250  -18.0713 C   0  0  1  0  0  0  0  0  0  0  0  0
   17.3895  -11.4753  -17.1871 C   0  0  0  0  0  0  0  0  0  0  0  0
   17.7620  -11.4084  -15.7390 C   0  0  0  0  0  0  0  0  0  0  0  0
   16.6094  -11.2140  -14.8606 C   0  0  0  0  0  0  0  0  0  0  0  0
   16.2808  -10.1152  -14.3712 O   0  0  0  0  0  0  0  0  0  0  0  0
   19.5336  -10.5095  -17.8300 C   0  0  0  0  0  0  0  0  0  0  0  0
   20.6623  -10.7311  -17.2775 O   0  0  0  0  0  0  0  0  0  0  0  0
   15.8384  -12.3398  -14.5603 O   0  0  0  0  0  0  0  0  0  0  0  0
   18.6961   -6.4874  -18.4521 O   0  0  0  0  0  0  0  0  0  0  0  0
   19.9483   -6.9217  -18.8405 C   0  0  0  0  0  0  0  0  0  0  0  0
   20.3002   -8.1715  -18.0655 C   0  0  2  0  0  0  0  0  0  0  0  0
   19.2675   -9.1672  -18.1863 N   0  0  0  0  0  0  0  0  0  0  0  0
   20.4731   -7.8531  -16.6305 C   0  0  0  0  0  0  0  0  0  0  0  0
   19.5815   -8.2297  -15.8189 O   0  0  0  0  0  0  0  0  0  0  0  0
   27.1075   -9.9267  -16.1198 O   0  0  0  0  0  0  0  0  0  0  0  0
   25.8967   -9.4850  -15.5962 C   0  0  0  0  0  0  0  0  0  0  0  0
   25.3113   -8.3419  -16.1071 C   0  0  0  0  0  0  0  0  0  0  0  0
   24.1221   -7.8948  -15.6037 C   0  0  0  0  0  0  0  0  0  0  0  0
   23.4670   -8.5659  -14.5723 C   0  0  0  0  0  0  0  0  0  0  0  0
   22.1865   -8.0659  -14.0386 C   0  0  0  0  0  0  0  0  0  0  0  0
   21.6774   -6.8283  -14.7532 C   0  0  2  0  0  0  0  0  0  0  0  0
   21.6093   -7.1422  -16.1644 N   0  0  0  0  0  0  0  0  0  0  0  0
   22.5574   -5.6573  -14.5789 C   0  0  0  0  0  0  0  0  0  0  0  0
   23.1454   -5.0900  -15.5394 O   0  0  0  0  0  0  0  0  0  0  0  0
   24.0621   -9.6869  -14.0864 C   0  0  0  0  0  0  0  0  0  0  0  0
   25.2675  -10.1538  -14.5853 C   0  0  0  0  0  0  0  0  0  0  0  0
   22.7625   -5.1406  -13.3190 O   0  0  0  0  0  0  0  0  0  0  0  0
  2  1  1  1
  2  7  1  0
  3  2  1  0
  4  3  1  0
  4  5  1  0
  5  6  2  0
  7  8  2  0
  9  5  1  0
 12 11  1  6
 11 10  1  0
 13  7  1  0
 13 12  1  0
 14 12  1  0
 14 15  2  0
 16 17  1  0
 17 27  2  0
 17 18  1  0
 18 19  2  0
 19 20  1  0
 20 21  1  0
 22 21  1  1
 22 24  1  0
 22 23  1  0
 23 14  1  0
 24 28  1  0
 25 24  2  0
 26 20  2  0
 27 26  1  0
M  END
$$$$
