ESY.pdb
     RDKit          3D

 28 28  0  0  1  0  0  0  0  0999 V2000
   44.9895  -16.2914   -8.1064 N   0  0  0  0  0  0  0  0  0  0  0  0
   44.8701  -14.9512   -8.7064 C   0  0  1  0  0  0  0  0  0  0  0  0
   44.2563  -15.0549  -10.0553 C   0  0  0  0  0  0  0  0  0  0  0  0
   45.2325  -15.5113  -11.0940 C   0  0  0  0  0  0  0  0  0  0  0  0
   46.0966  -14.4359  -11.5784 C   0  0  0  0  0  0  0  0  0  0  0  0
   45.8888  -13.7893  -12.6242 O   0  0  0  0  0  0  0  0  0  0  0  0
   43.9766  -14.1758   -7.7988 C   0  0  0  0  0  0  0  0  0  0  0  0
   42.9663  -14.7307   -7.2512 O   0  0  0  0  0  0  0  0  0  0  0  0
   47.2214  -14.1256  -10.8100 O   0  0  0  0  0  0  0  0  0  0  0  0
   44.8677  -10.3559   -6.4352 O   0  0  0  0  0  0  0  0  0  0  0  0
   44.1743  -11.2382   -5.6302 C   0  0  0  0  0  0  0  0  0  0  0  0
   43.3571  -12.1648   -6.5019 C   0  0  2  0  0  0  0  0  0  0  0  0
   44.1805  -12.8109   -7.4903 N   0  0  0  0  0  0  0  0  0  0  0  0
   42.2975  -11.4064   -7.2038 C   0  0  0  0  0  0  0  0  0  0  0  0
   42.4907  -11.0762   -8.4076 O   0  0  0  0  0  0  0  0  0  0  0  0
   35.3984   -5.9382   -7.9068 O   0  0  0  0  0  0  0  0  0  0  0  0
   36.2533   -6.9749   -7.5468 C   0  0  0  0  0  0  0  0  0  0  0  0
   36.5096   -7.9897   -8.4495 C   0  0  0  0  0  0  0  0  0  0  0  0
   37.3471   -9.0152   -8.1113 C   0  0  0  0  0  0  0  0  0  0  0  0
   37.9636   -9.0731   -6.8623 C   0  0  0  0  0  0  0  0  0  0  0  0
   38.8610  -10.1901   -6.5133 C   0  0  0  0  0  0  0  0  0  0  0  0
   40.1962  -10.1380   -7.2314 C   0  0  2  0  0  0  0  0  0  0  0  0
   41.0882  -11.0524   -6.5510 N   0  0  0  0  0  0  0  0  0  0  0  0
   40.8075   -8.7955   -7.2181 C   0  0  0  0  0  0  0  0  0  0  0  0
   40.6745   -7.9700   -8.1621 O   0  0  0  0  0  0  0  0  0  0  0  0
   37.6962   -8.0642   -5.9919 C   0  0  0  0  0  0  0  0  0  0  0  0
   36.8496   -7.0172   -6.3189 C   0  0  0  0  0  0  0  0  0  0  0  0
   41.5629   -8.4014   -6.1363 O   0  0  0  0  0  0  0  0  0  0  0  0
  2  1  1  1
  2  7  1  0
  3  2  1  0
  4  3  1  0
  4  5  1  0
  5  6  2  0
  7  8  2  0
  9  5  1  0
 12 11  1  6
 11 10  1  0
 13  7  1  0
 13 12  1  0
 14 12  1  0
 14 15  2  0
 16 17  1  0
 17 27  2  0
 17 18  1  0
 18 19  2  0
 19 20  1  0
 20 21  1  0
 22 21  1  1
 22 24  1  0
 22 23  1  0
 23 14  1  0
 24 28  1  0
 25 24  2  0
 26 20  2  0
 27 26  1  0
M  END
$$$$
