ESY.pdb
     RDKit          3D

 28 28  0  0  1  0  0  0  0  0999 V2000
   20.3522  -10.9660  -16.7746 N   0  0  0  0  0  0  0  0  0  0  0  0
   19.2237  -10.0219  -16.8492 C   0  0  1  0  0  0  0  0  0  0  0  0
   17.9614  -10.7143  -16.4830 C   0  0  0  0  0  0  0  0  0  0  0  0
   17.5974  -11.7918  -17.4558 C   0  0  0  0  0  0  0  0  0  0  0  0
   16.1610  -11.8624  -17.7199 C   0  0  0  0  0  0  0  0  0  0  0  0
   15.3152  -12.2458  -16.8877 O   0  0  0  0  0  0  0  0  0  0  0  0
   19.5225   -8.9495  -15.8571 C   0  0  0  0  0  0  0  0  0  0  0  0
   18.7091   -7.9821  -15.6806 O   0  0  0  0  0  0  0  0  0  0  0  0
   15.7252  -11.4726  -18.9887 O   0  0  0  0  0  0  0  0  0  0  0  0
   22.9467   -8.9297  -13.6060 O   0  0  0  0  0  0  0  0  0  0  0  0
   21.8479   -8.3535  -12.9993 C   0  0  0  0  0  0  0  0  0  0  0  0
   20.8707   -7.9106  -14.0647 C   0  0  2  0  0  0  0  0  0  0  0  0
   20.6941   -8.9302  -15.0656 N   0  0  0  0  0  0  0  0  0  0  0  0
   21.3614   -6.6842  -14.7324 C   0  0  0  0  0  0  0  0  0  0  0  0
   22.1129   -6.8073  -15.7401 O   0  0  0  0  0  0  0  0  0  0  0  0
   18.4296   -5.6722  -20.3074 O   0  0  0  0  0  0  0  0  0  0  0  0
   18.9126   -5.1300  -19.1209 C   0  0  0  0  0  0  0  0  0  0  0  0
   20.0820   -4.3932  -19.1361 C   0  0  0  0  0  0  0  0  0  0  0  0
   20.5697   -3.8539  -17.9791 C   0  0  0  0  0  0  0  0  0  0  0  0
   19.9147   -4.0251  -16.7605 C   0  0  0  0  0  0  0  0  0  0  0  0
   20.4585   -3.4394  -15.5211 C   0  0  0  0  0  0  0  0  0  0  0  0
   21.5924   -4.2477  -14.9192 C   0  0  2  0  0  0  0  0  0  0  0  0
   21.0032   -5.3944  -14.2614 N   0  0  0  0  0  0  0  0  0  0  0  0
   22.3758   -3.4919  -13.9236 C   0  0  0  0  0  0  0  0  0  0  0  0
   22.4274   -3.8094  -12.7043 O   0  0  0  0  0  0  0  0  0  0  0  0
   18.7672   -4.7532  -16.7707 C   0  0  0  0  0  0  0  0  0  0  0  0
   18.2591   -5.3069  -17.9348 C   0  0  0  0  0  0  0  0  0  0  0  0
   23.0927   -2.3846  -14.3188 O   0  0  0  0  0  0  0  0  0  0  0  0
  2  1  1  1
  2  7  1  0
  3  2  1  0
  4  3  1  0
  4  5  1  0
  5  6  2  0
  7  8  2  0
  9  5  1  0
 12 11  1  1
 11 10  1  0
 13  7  1  0
 13 12  1  0
 14 12  1  0
 14 15  2  0
 16 17  1  0
 17 27  2  0
 17 18  1  0
 18 19  2  0
 19 20  1  0
 20 21  1  0
 22 21  1  1
 22 24  1  0
 22 23  1  0
 23 14  1  0
 24 28  1  0
 25 24  2  0
 26 20  2  0
 27 26  1  0
M  END
$$$$
