ESY.pdb
     RDKit          3D

 28 28  0  0  1  0  0  0  0  0999 V2000
   28.4789  -21.7170  -17.8621 N   0  0  0  0  0  0  0  0  0  0  0  0
   28.6816  -20.5666  -16.9644 C   0  0  1  0  0  0  0  0  0  0  0  0
   27.8300  -19.4301  -17.4004 C   0  0  0  0  0  0  0  0  0  0  0  0
   26.3742  -19.6819  -17.1613 C   0  0  0  0  0  0  0  0  0  0  0  0
   25.5151  -18.6321  -17.7070 C   0  0  0  0  0  0  0  0  0  0  0  0
   24.7187  -17.9561  -17.0260 O   0  0  0  0  0  0  0  0  0  0  0  0
   28.2616  -21.0271  -15.6097 C   0  0  0  0  0  0  0  0  0  0  0  0
   27.4263  -21.9828  -15.4779 O   0  0  0  0  0  0  0  0  0  0  0  0
   25.6042  -18.3830  -19.0788 O   0  0  0  0  0  0  0  0  0  0  0  0
   29.6532  -19.3833  -12.0238 O   0  0  0  0  0  0  0  0  0  0  0  0
   29.5062  -20.7534  -12.1168 C   0  0  0  0  0  0  0  0  0  0  0  0
   28.4431  -21.0677  -13.1450 C   0  0  2  0  0  0  0  0  0  0  0  0
   28.7457  -20.4534  -14.4113 N   0  0  0  0  0  0  0  0  0  0  0  0
   27.1262  -20.5691  -12.6896 C   0  0  0  0  0  0  0  0  0  0  0  0
   26.6355  -19.5559  -13.2623 O   0  0  0  0  0  0  0  0  0  0  0  0
   19.0366  -19.0314  -10.3721 O   0  0  0  0  0  0  0  0  0  0  0  0
   20.2676  -19.5647  -10.7403 C   0  0  0  0  0  0  0  0  0  0  0  0
   21.0229  -18.9282  -11.7071 C   0  0  0  0  0  0  0  0  0  0  0  0
   22.2342  -19.4393  -12.0798 C   0  0  0  0  0  0  0  0  0  0  0  0
   22.7435  -20.6034  -11.5065 C   0  0  0  0  0  0  0  0  0  0  0  0
   24.0508  -21.1428  -11.9248 C   0  0  0  0  0  0  0  0  0  0  0  0
   25.2180  -20.5667  -11.1456 C   0  0  2  0  0  0  0  0  0  0  0  0
   26.4210  -21.2054  -11.6352 N   0  0  0  0  0  0  0  0  0  0  0  0
   25.1200  -20.8098   -9.6939 C   0  0  0  0  0  0  0  0  0  0  0  0
   25.5262  -21.8702   -9.1453 O   0  0  0  0  0  0  0  0  0  0  0  0
   21.9828  -21.2113  -10.5585 C   0  0  0  0  0  0  0  0  0  0  0  0
   20.7526  -20.7064  -10.1690 C   0  0  0  0  0  0  0  0  0  0  0  0
   24.5632  -19.8501   -8.8784 O   0  0  0  0  0  0  0  0  0  0  0  0
  2  1  1  6
  2  7  1  0
  3  2  1  0
  4  3  1  0
  4  5  1  0
  5  6  2  0
  7  8  2  0
  9  5  1  0
 12 11  1  1
 11 10  1  0
 13  7  1  0
 13 12  1  0
 14 12  1  0
 14 15  2  0
 16 17  1  0
 17 27  2  0
 17 18  1  0
 18 19  2  0
 19 20  1  0
 20 21  1  0
 22 21  1  6
 22 24  1  0
 22 23  1  0
 23 14  1  0
 24 28  1  0
 25 24  2  0
 26 20  2  0
 27 26  1  0
M  END
$$$$
