ESY.pdb
     RDKit          3D

 28 28  0  0  1  0  0  0  0  0999 V2000
   17.8123  -10.2081  -14.3075 N   0  0  0  0  0  0  0  0  0  0  0  0
   16.7185   -9.3247  -13.8673 C   0  0  1  0  0  0  0  0  0  0  0  0
   15.7430  -10.0957  -13.0545 C   0  0  0  0  0  0  0  0  0  0  0  0
   14.9571  -11.0690  -13.8761 C   0  0  0  0  0  0  0  0  0  0  0  0
   15.5864  -12.3861  -13.9594 C   0  0  0  0  0  0  0  0  0  0  0  0
   16.3659  -12.8442  -13.1007 O   0  0  0  0  0  0  0  0  0  0  0  0
   17.3580   -8.2697  -13.0297 C   0  0  0  0  0  0  0  0  0  0  0  0
   18.6283   -8.1575  -12.9835 O   0  0  0  0  0  0  0  0  0  0  0  0
   15.2852  -13.1681  -15.0774 O   0  0  0  0  0  0  0  0  0  0  0  0
   17.1264   -4.7924  -13.3358 O   0  0  0  0  0  0  0  0  0  0  0  0
   18.0393   -5.3787  -12.4812 C   0  0  0  0  0  0  0  0  0  0  0  0
   17.3070   -6.3023  -11.5341 C   0  0  2  0  0  0  0  0  0  0  0  0
   16.6226   -7.3468  -12.2505 N   0  0  0  0  0  0  0  0  0  0  0  0
   16.3066   -5.5443  -10.7499 C   0  0  0  0  0  0  0  0  0  0  0  0
   15.2667   -5.1338  -11.3377 O   0  0  0  0  0  0  0  0  0  0  0  0
   11.4224   -9.6025   -8.6860 O   0  0  0  0  0  0  0  0  0  0  0  0
   12.3364   -8.5983   -8.3832 C   0  0  0  0  0  0  0  0  0  0  0  0
   11.8895   -7.3023   -8.2069 C   0  0  0  0  0  0  0  0  0  0  0  0
   12.7745   -6.3046   -7.9090 C   0  0  0  0  0  0  0  0  0  0  0  0
   14.1392   -6.5549   -7.7743 C   0  0  0  0  0  0  0  0  0  0  0  0
   15.0801   -5.4646   -7.4571 C   0  0  0  0  0  0  0  0  0  0  0  0
   15.4343   -4.6057   -8.6563 C   0  0  2  0  0  0  0  0  0  0  0  0
   16.4993   -5.2782   -9.3694 N   0  0  0  0  0  0  0  0  0  0  0  0
   15.9030   -3.2576   -8.2834 C   0  0  0  0  0  0  0  0  0  0  0  0
   15.1625   -2.4016   -7.7273 O   0  0  0  0  0  0  0  0  0  0  0  0
   14.5546   -7.8366   -7.9523 C   0  0  0  0  0  0  0  0  0  0  0  0
   13.6706   -8.8599   -8.2546 C   0  0  0  0  0  0  0  0  0  0  0  0
   17.2049   -2.8925   -8.5439 O   0  0  0  0  0  0  0  0  0  0  0  0
  2  1  1  1
  2  7  1  0
  3  2  1  0
  4  3  1  0
  4  5  1  0
  5  6  2  0
  7  8  2  0
  9  5  1  0
 12 11  1  6
 11 10  1  0
 13  7  1  0
 13 12  1  0
 14 12  1  0
 14 15  2  0
 16 17  1  0
 17 27  2  0
 17 18  1  0
 18 19  2  0
 19 20  1  0
 20 21  1  0
 22 21  1  1
 22 24  1  0
 22 23  1  0
 23 14  1  0
 24 28  1  0
 25 24  2  0
 26 20  2  0
 27 26  1  0
M  END
$$$$
