ESY.pdb
     RDKit          3D

 28 28  0  0  1  0  0  0  0  0999 V2000
   19.7155  -11.5844  -15.3014 N   0  0  0  0  0  0  0  0  0  0  0  0
   19.8584  -10.6087  -16.3960 C   0  0  1  0  0  0  0  0  0  0  0  0
   18.8850  -10.9151  -17.4755 C   0  0  0  0  0  0  0  0  0  0  0  0
   18.3419  -12.3064  -17.3777 C   0  0  0  0  0  0  0  0  0  0  0  0
   18.8190  -13.1829  -18.4463 C   0  0  0  0  0  0  0  0  0  0  0  0
   18.1242  -13.5446  -19.4165 O   0  0  0  0  0  0  0  0  0  0  0  0
   19.5533   -9.2771  -15.7982 C   0  0  0  0  0  0  0  0  0  0  0  0
   19.6866   -8.2101  -16.4853 O   0  0  0  0  0  0  0  0  0  0  0  0
   20.1383  -13.6348  -18.3603 O   0  0  0  0  0  0  0  0  0  0  0  0
   18.6224   -8.8028  -11.8370 O   0  0  0  0  0  0  0  0  0  0  0  0
   18.0717   -7.8421  -12.6624 C   0  0  0  0  0  0  0  0  0  0  0  0
   18.8600   -7.7875  -13.9515 C   0  0  2  0  0  0  0  0  0  0  0  0
   19.1079   -9.1088  -14.4667 N   0  0  0  0  0  0  0  0  0  0  0  0
   20.1639   -7.1241  -13.7274 C   0  0  0  0  0  0  0  0  0  0  0  0
   21.1430   -7.8310  -13.3572 O   0  0  0  0  0  0  0  0  0  0  0  0
   20.9770   -3.2512  -19.8574 O   0  0  0  0  0  0  0  0  0  0  0  0
   21.3381   -3.8607  -18.6601 C   0  0  0  0  0  0  0  0  0  0  0  0
   21.8596   -3.0928  -17.6361 C   0  0  0  0  0  0  0  0  0  0  0  0
   22.2191   -3.6764  -16.4539 C   0  0  0  0  0  0  0  0  0  0  0  0
   22.0747   -5.0466  -16.2420 C   0  0  0  0  0  0  0  0  0  0  0  0
   22.4725   -5.6596  -14.9611 C   0  0  0  0  0  0  0  0  0  0  0  0
   21.6535   -5.1739  -13.7800 C   0  0  2  0  0  0  0  0  0  0  0  0
   20.3235   -5.7273  -13.9203 N   0  0  0  0  0  0  0  0  0  0  0  0
   21.5419   -3.7042  -13.7195 C   0  0  0  0  0  0  0  0  0  0  0  0
   22.5334   -2.9462  -13.5386 O   0  0  0  0  0  0  0  0  0  0  0  0
   21.5599   -5.7806  -17.2633 C   0  0  0  0  0  0  0  0  0  0  0  0
   21.1903   -5.2048  -18.4682 C   0  0  0  0  0  0  0  0  0  0  0  0
   20.3092   -3.1079  -13.8645 O   0  0  0  0  0  0  0  0  0  0  0  0
  2  1  1  1
  2  7  1  0
  3  2  1  0
  4  3  1  0
  4  5  1  0
  5  6  2  0
  7  8  2  0
  9  5  1  0
 12 11  1  1
 11 10  1  0
 13  7  1  0
 13 12  1  0
 14 12  1  0
 14 15  2  0
 16 17  1  0
 17 27  2  0
 17 18  1  0
 18 19  2  0
 19 20  1  0
 20 21  1  0
 22 21  1  6
 22 24  1  0
 22 23  1  0
 23 14  1  0
 24 28  1  0
 25 24  2  0
 26 20  2  0
 27 26  1  0
M  END
$$$$
