ESY.pdb
     RDKit          3D

 28 28  0  0  1  0  0  0  0  0999 V2000
   20.4829  -13.5388  -17.2986 N   0  0  0  0  0  0  0  0  0  0  0  0
   20.1719  -12.1521  -17.6871 C   0  0  1  0  0  0  0  0  0  0  0  0
   18.7613  -12.0603  -18.1438 C   0  0  0  0  0  0  0  0  0  0  0  0
   18.5284  -12.7884  -19.4306 C   0  0  0  0  0  0  0  0  0  0  0  0
   18.5545  -14.2422  -19.2778 C   0  0  0  0  0  0  0  0  0  0  0  0
   19.5013  -14.9668  -19.6433 O   0  0  0  0  0  0  0  0  0  0  0  0
   20.3633  -11.3310  -16.4572 C   0  0  0  0  0  0  0  0  0  0  0  0
   19.9012  -11.7241  -15.3346 O   0  0  0  0  0  0  0  0  0  0  0  0
   17.4414  -14.8419  -18.6833 O   0  0  0  0  0  0  0  0  0  0  0  0
   22.5607   -9.4119  -13.2196 O   0  0  0  0  0  0  0  0  0  0  0  0
   22.3452  -10.1191  -14.3862 C   0  0  0  0  0  0  0  0  0  0  0  0
   21.2894   -9.4115  -15.2051 C   0  0  2  0  0  0  0  0  0  0  0  0
   21.0505  -10.0952  -16.4494 N   0  0  0  0  0  0  0  0  0  0  0  0
   21.7188   -8.0283  -15.5100 C   0  0  0  0  0  0  0  0  0  0  0  0
   22.6657   -7.8588  -16.3285 O   0  0  0  0  0  0  0  0  0  0  0  0
   21.6913    0.6679  -16.6505 O   0  0  0  0  0  0  0  0  0  0  0  0
   21.3764   -0.6627  -16.3944 C   0  0  0  0  0  0  0  0  0  0  0  0
   20.6351   -0.9824  -15.2725 C   0  0  0  0  0  0  0  0  0  0  0  0
   20.3173   -2.2846  -15.0067 C   0  0  0  0  0  0  0  0  0  0  0  0
   20.7236   -3.3214  -15.8454 C   0  0  0  0  0  0  0  0  0  0  0  0
   20.3752   -4.7215  -15.5400 C   0  0  0  0  0  0  0  0  0  0  0  0
   21.5815   -5.5921  -15.2434 C   0  0  2  0  0  0  0  0  0  0  0  0
   21.0895   -6.9102  -14.9037 N   0  0  0  0  0  0  0  0  0  0  0  0
   22.3913   -5.0930  -14.1160 C   0  0  0  0  0  0  0  0  0  0  0  0
   22.2098   -5.4602  -12.9233 O   0  0  0  0  0  0  0  0  0  0  0  0
   21.4513   -2.9823  -16.9420 C   0  0  0  0  0  0  0  0  0  0  0  0
   21.7821   -1.6671  -17.2260 C   0  0  0  0  0  0  0  0  0  0  0  0
   23.3981   -4.1833  -14.3504 O   0  0  0  0  0  0  0  0  0  0  0  0
  2  1  1  1
  2  7  1  0
  3  2  1  0
  4  3  1  0
  4  5  1  0
  5  6  2  0
  7  8  2  0
  9  5  1  0
 12 11  1  6
 11 10  1  0
 13  7  1  0
 13 12  1  0
 14 12  1  0
 14 15  2  0
 16 17  1  0
 17 27  2  0
 17 18  1  0
 18 19  2  0
 19 20  1  0
 20 21  1  0
 22 21  1  1
 22 24  1  0
 22 23  1  0
 23 14  1  0
 24 28  1  0
 25 24  2  0
 26 20  2  0
 27 26  1  0
M  END
$$$$
