TFD.pdb
     RDKit          3D

 27 27  0  0  1  0  0  0  0  0999 V2000
   20.1263  -10.8420  -19.4352 C   0  0  0  0  0  0  0  0  0  0  0  0
   19.7638   -9.9083  -18.3187 C   0  0  1  0  0  0  0  0  0  0  0  0
   18.4093   -9.5603  -18.3350 O   0  0  0  0  0  0  0  0  0  0  0  0
   20.2037  -10.3776  -16.9652 C   0  0  2  0  0  0  0  0  0  0  0  0
   19.6583  -11.6333  -16.5602 N   0  0  0  0  0  0  0  0  0  0  0  0
   19.9737   -9.2906  -15.9899 C   0  0  0  0  0  0  0  0  0  0  0  0
   19.0010   -9.4231  -15.2030 O   0  0  0  0  0  0  0  0  0  0  0  0
   20.7828   -8.1216  -15.8973 N   0  0  0  0  0  0  0  0  0  0  0  0
   20.6348   -7.1273  -14.8783 C   0  0  1  0  0  0  0  0  0  0  0  0
   21.8666   -6.9700  -14.0162 C   0  0  0  0  0  0  0  0  0  0  0  0
   23.0948   -6.7286  -14.8172 C   0  0  0  0  0  0  0  0  0  0  0  0
   23.8525   -7.7902  -15.2745 C   0  0  0  0  0  0  0  0  0  0  0  0
   24.9992   -7.5908  -16.0210 C   0  0  0  0  0  0  0  0  0  0  0  0
   25.4249   -6.3081  -16.3345 C   0  0  0  0  0  0  0  0  0  0  0  0
   24.6774   -5.2392  -15.8839 C   0  0  0  0  0  0  0  0  0  0  0  0
   23.5369   -5.4654  -15.1407 C   0  0  0  0  0  0  0  0  0  0  0  0
   20.2718   -5.7991  -15.4229 C   0  0  0  0  0  0  0  0  0  0  0  0
   20.6535   -5.4664  -16.5692 O   0  0  0  0  0  0  0  0  0  0  0  0
   19.4946   -4.8727  -14.6838 N   0  0  0  0  0  0  0  0  0  0  0  0
   19.0918   -3.5814  -15.2643 C   0  0  1  0  0  0  0  0  0  0  0  0
   17.6905   -3.3285  -14.8098 C   0  0  0  0  0  0  0  0  0  0  0  0
   17.1384   -2.0524  -15.2795 C   0  0  0  0  0  0  0  0  0  0  0  0
   17.1653   -0.9984  -14.6132 O   0  0  0  0  0  0  0  0  0  0  0  0
   20.0182   -2.5300  -14.7898 C   0  0  0  0  0  0  0  0  0  0  0  0
   20.3201   -1.4017  -15.5348 O   0  0  0  0  0  0  0  0  0  0  0  0
   16.5474   -2.0045  -16.5420 O   0  0  0  0  0  0  0  0  0  0  0  0
   20.5744   -2.6513  -13.6440 O   0  0  0  0  0  0  0  0  0  0  0  0
  2  1  1  6
  2  4  1  0
  3  2  1  0
  4  5  1  1
  4  6  1  0
  6  7  2  0
  8  6  1  0
  8  9  1  0
  9 10  1  6
 11 10  1  0
 12 11  2  0
 13 12  1  0
 14 15  1  0
 14 13  2  0
 15 16  2  0
 16 11  1  0
 17 19  1  0
 17  9  1  0
 18 17  2  0
 20 19  1  0
 20 21  1  1
 22 26  1  0
 22 21  1  0
 23 22  2  0
 24 25  1  0
 24 20  1  0
 27 24  2  0
M  END
$$$$
