TFD.pdb
     RDKit          3D

 27 27  0  0  1  0  0  0  0  0999 V2000
   22.5903  -10.7825  -21.8633 C   0  0  0  0  0  0  0  0  0  0  0  0
   22.1983  -10.1992  -20.5382 C   0  0  1  0  0  0  0  0  0  0  0  0
   20.8292  -10.3292  -20.2839 O   0  0  0  0  0  0  0  0  0  0  0  0
   23.0284  -10.6854  -19.3891 C   0  0  2  0  0  0  0  0  0  0  0  0
   22.8934  -12.0768  -19.0991 N   0  0  0  0  0  0  0  0  0  0  0  0
   22.7802   -9.8112  -18.2230 C   0  0  0  0  0  0  0  0  0  0  0  0
   22.0617  -10.2763  -17.3009 O   0  0  0  0  0  0  0  0  0  0  0  0
   23.3037   -8.4926  -18.0925 N   0  0  0  0  0  0  0  0  0  0  0  0
   23.0981   -7.6624  -16.9448 C   0  0  1  0  0  0  0  0  0  0  0  0
   24.3867   -7.1586  -16.3355 C   0  0  0  0  0  0  0  0  0  0  0  0
   25.2729   -8.2630  -15.8847 C   0  0  0  0  0  0  0  0  0  0  0  0
   26.4358   -8.5531  -16.5729 C   0  0  0  0  0  0  0  0  0  0  0  0
   27.2759   -9.5759  -16.1731 C   0  0  0  0  0  0  0  0  0  0  0  0
   26.9721  -10.3465  -15.0601 C   0  0  0  0  0  0  0  0  0  0  0  0
   25.8137  -10.0673  -14.3639 C   0  0  0  0  0  0  0  0  0  0  0  0
   24.9924   -9.0410  -14.7838 C   0  0  0  0  0  0  0  0  0  0  0  0
   22.2282   -6.4983  -17.2288 C   0  0  0  0  0  0  0  0  0  0  0  0
   22.4071   -5.8212  -18.2679 O   0  0  0  0  0  0  0  0  0  0  0  0
   21.1812   -6.1137  -16.3544 N   0  0  0  0  0  0  0  0  0  0  0  0
   20.2792   -4.9996  -16.6889 C   0  0  1  0  0  0  0  0  0  0  0  0
   18.9580   -5.3198  -16.0675 C   0  0  0  0  0  0  0  0  0  0  0  0
   17.9380   -4.2869  -16.2834 C   0  0  0  0  0  0  0  0  0  0  0  0
   17.6704   -3.7998  -17.3999 O   0  0  0  0  0  0  0  0  0  0  0  0
   20.8458   -3.7432  -16.1510 C   0  0  0  0  0  0  0  0  0  0  0  0
   20.3891   -2.4906  -16.5277 O   0  0  0  0  0  0  0  0  0  0  0  0
   17.2209   -3.8160  -15.1836 O   0  0  0  0  0  0  0  0  0  0  0  0
   21.7998   -3.7962  -15.3002 O   0  0  0  0  0  0  0  0  0  0  0  0
  2  1  1  6
  2  4  1  0
  3  2  1  0
  4  5  1  1
  4  6  1  0
  6  7  2  0
  8  6  1  0
  8  9  1  0
  9 10  1  6
 11 10  1  0
 12 11  2  0
 13 12  1  0
 14 15  1  0
 14 13  2  0
 15 16  2  0
 16 11  1  0
 17 19  1  0
 17  9  1  0
 18 17  2  0
 20 19  1  0
 20 21  1  1
 22 26  1  0
 22 21  1  0
 23 22  2  0
 24 25  1  0
 24 20  1  0
 27 24  2  0
M  END
$$$$
