TFD.pdb
     RDKit          3D

 27 27  0  0  1  0  0  0  0  0999 V2000
   24.2568   -8.4156  -22.5216 C   0  0  0  0  0  0  0  0  0  0  0  0
   23.3800   -8.3250  -21.3079 C   0  0  1  0  0  0  0  0  0  0  0  0
   22.0423   -8.6146  -21.5953 O   0  0  0  0  0  0  0  0  0  0  0  0
   23.8818   -9.1099  -20.1341 C   0  0  2  0  0  0  0  0  0  0  0  0
   23.8705  -10.5264  -20.3118 N   0  0  0  0  0  0  0  0  0  0  0  0
   23.1641   -8.6599  -18.9224 C   0  0  0  0  0  0  0  0  0  0  0  0
   22.2151   -9.3801  -18.5180 O   0  0  0  0  0  0  0  0  0  0  0  0
   23.4863   -7.4735  -18.2025 N   0  0  0  0  0  0  0  0  0  0  0  0
   22.8997   -7.1183  -16.9461 C   0  0  1  0  0  0  0  0  0  0  0  0
   23.9225   -6.8473  -15.8664 C   0  0  0  0  0  0  0  0  0  0  0  0
   24.6424   -8.0764  -15.4431 C   0  0  0  0  0  0  0  0  0  0  0  0
   25.8859   -8.3752  -15.9669 C   0  0  0  0  0  0  0  0  0  0  0  0
   26.5747   -9.5131  -15.5887 C   0  0  0  0  0  0  0  0  0  0  0  0
   26.0317  -10.3943  -14.6651 C   0  0  0  0  0  0  0  0  0  0  0  0
   24.7905  -10.1078  -14.1344 C   0  0  0  0  0  0  0  0  0  0  0  0
   24.1239   -8.9655  -14.5284 C   0  0  0  0  0  0  0  0  0  0  0  0
   22.0014   -5.9453  -17.0450 C   0  0  0  0  0  0  0  0  0  0  0  0
   22.3842   -4.9116  -17.6410 O   0  0  0  0  0  0  0  0  0  0  0  0
   20.7012   -5.9471  -16.4813 N   0  0  0  0  0  0  0  0  0  0  0  0
   19.8089   -4.7844  -16.6192 C   0  0  1  0  0  0  0  0  0  0  0  0
   18.8047   -5.1401  -17.6676 C   0  0  0  0  0  0  0  0  0  0  0  0
   17.7864   -4.1058  -17.8850 C   0  0  0  0  0  0  0  0  0  0  0  0
   17.7793   -3.0058  -17.2974 O   0  0  0  0  0  0  0  0  0  0  0  0
   19.1648   -4.5142  -15.3149 C   0  0  0  0  0  0  0  0  0  0  0  0
   18.8596   -5.5139  -14.4057 O   0  0  0  0  0  0  0  0  0  0  0  0
   16.7633   -4.3574  -18.7991 O   0  0  0  0  0  0  0  0  0  0  0  0
   18.8693   -3.3110  -14.9960 O   0  0  0  0  0  0  0  0  0  0  0  0
  2  1  1  6
  2  4  1  0
  3  2  1  0
  4  5  1  6
  4  6  1  0
  6  7  2  0
  8  6  1  0
  8  9  1  0
  9 10  1  1
 11 10  1  0
 12 11  2  0
 13 12  1  0
 14 15  1  0
 14 13  2  0
 15 16  2  0
 16 11  1  0
 17 19  1  0
 17  9  1  0
 18 17  2  0
 20 19  1  0
 20 21  1  6
 22 26  1  0
 22 21  1  0
 23 22  2  0
 24 25  1  0
 24 20  1  0
 27 24  2  0
M  END
$$$$
