TFD.pdb
     RDKit          3D

 27 27  0  0  1  0  0  0  0  0999 V2000
   28.9127  -17.9304  -14.9127 C   0  0  0  0  0  0  0  0  0  0  0  0
   27.7805  -18.7568  -14.3787 C   0  0  1  0  0  0  0  0  0  0  0  0
   26.7308  -18.8762  -15.2951 O   0  0  0  0  0  0  0  0  0  0  0  0
   28.2019  -20.0884  -13.8354 C   0  0  2  0  0  0  0  0  0  0  0  0
   28.8069  -20.9606  -14.7901 N   0  0  0  0  0  0  0  0  0  0  0  0
   27.0555  -20.6934  -13.1244 C   0  0  0  0  0  0  0  0  0  0  0  0
   26.5529  -21.7316  -13.6268 O   0  0  0  0  0  0  0  0  0  0  0  0
   26.5007  -20.1700  -11.9211 N   0  0  0  0  0  0  0  0  0  0  0  0
   25.3453  -20.7124  -11.2731 C   0  0  1  0  0  0  0  0  0  0  0  0
   25.2900  -20.4008   -9.7949 C   0  0  0  0  0  0  0  0  0  0  0  0
   26.6073  -20.5698   -9.1281 C   0  0  0  0  0  0  0  0  0  0  0  0
   26.9467  -19.7884   -8.0398 C   0  0  0  0  0  0  0  0  0  0  0  0
   28.1664  -19.9269   -7.4033 C   0  0  0  0  0  0  0  0  0  0  0  0
   29.0917  -20.8622   -7.8434 C   0  0  0  0  0  0  0  0  0  0  0  0
   28.7653  -21.6488   -8.9293 C   0  0  0  0  0  0  0  0  0  0  0  0
   27.5413  -21.4908   -9.5467 C   0  0  0  0  0  0  0  0  0  0  0  0
   24.0778  -20.2642  -11.8936 C   0  0  0  0  0  0  0  0  0  0  0  0
   24.0313  -19.1707  -12.5038 O   0  0  0  0  0  0  0  0  0  0  0  0
   22.8933  -21.0391  -11.8228 N   0  0  0  0  0  0  0  0  0  0  0  0
   21.8298  -20.9000  -12.8310 C   0  0  1  0  0  0  0  0  0  0  0  0
   22.2066  -21.7877  -13.9730 C   0  0  0  0  0  0  0  0  0  0  0  0
   21.1630  -21.9066  -14.9980 C   0  0  0  0  0  0  0  0  0  0  0  0
   20.8418  -22.9837  -15.5385 O   0  0  0  0  0  0  0  0  0  0  0  0
   20.5397  -21.3022  -12.2289 C   0  0  0  0  0  0  0  0  0  0  0  0
   20.4460  -22.2190  -11.1946 O   0  0  0  0  0  0  0  0  0  0  0  0
   20.4854  -20.7549  -15.3980 O   0  0  0  0  0  0  0  0  0  0  0  0
   19.4526  -20.7917  -12.6701 O   0  0  0  0  0  0  0  0  0  0  0  0
  2  1  1  6
  2  4  1  0
  3  2  1  0
  4  5  1  6
  4  6  1  0
  6  7  2  0
  8  6  1  0
  8  9  1  0
  9 10  1  1
 11 10  1  0
 12 11  2  0
 13 12  1  0
 14 15  1  0
 14 13  2  0
 15 16  2  0
 16 11  1  0
 17 19  1  0
 17  9  1  0
 18 17  2  0
 20 19  1  0
 20 21  1  6
 22 26  1  0
 22 21  1  0
 23 22  2  0
 24 25  1  0
 24 20  1  0
 27 24  2  0
M  END
$$$$
