TFD.pdb
     RDKit          3D

 27 27  0  0  1  0  0  0  0  0999 V2000
   21.9399  -13.8683  -20.4085 C   0  0  0  0  0  0  0  0  0  0  0  0
   22.0695  -12.9108  -19.2612 C   0  0  1  0  0  0  0  0  0  0  0  0
   20.8322  -12.5911  -18.6929 O   0  0  0  0  0  0  0  0  0  0  0  0
   23.0675  -13.3325  -18.2258 C   0  0  2  0  0  0  0  0  0  0  0  0
   22.7920  -14.5880  -17.6046 N   0  0  0  0  0  0  0  0  0  0  0  0
   23.2489  -12.2239  -17.2646 C   0  0  0  0  0  0  0  0  0  0  0  0
   22.8080  -12.3981  -16.0992 O   0  0  0  0  0  0  0  0  0  0  0  0
   23.8859  -10.9905  -17.5850 N   0  0  0  0  0  0  0  0  0  0  0  0
   24.1032   -9.9360  -16.6417 C   0  0  1  0  0  0  0  0  0  0  0  0
   25.5391   -9.4655  -16.5945 C   0  0  0  0  0  0  0  0  0  0  0  0
   26.4851  -10.5588  -16.2513 C   0  0  0  0  0  0  0  0  0  0  0  0
   26.6172  -10.9859  -14.9435 C   0  0  0  0  0  0  0  0  0  0  0  0
   27.4910  -12.0009  -14.5997 C   0  0  0  0  0  0  0  0  0  0  0  0
   28.2665  -12.6242  -15.5664 C   0  0  0  0  0  0  0  0  0  0  0  0
   28.1444  -12.2072  -16.8763 C   0  0  0  0  0  0  0  0  0  0  0  0
   27.2649  -11.1922  -17.1930 C   0  0  0  0  0  0  0  0  0  0  0  0
   23.2338   -8.7623  -16.8848 C   0  0  0  0  0  0  0  0  0  0  0  0
   23.0025   -8.3862  -18.0575 O   0  0  0  0  0  0  0  0  0  0  0  0
   22.6420   -8.0348  -15.8223 N   0  0  0  0  0  0  0  0  0  0  0  0
   21.7056   -6.9295  -16.0838 C   0  0  1  0  0  0  0  0  0  0  0  0
   20.9428   -6.7087  -14.8175 C   0  0  0  0  0  0  0  0  0  0  0  0
   19.9674   -5.6152  -14.8987 C   0  0  0  0  0  0  0  0  0  0  0  0
   20.0795   -4.5390  -14.2783 O   0  0  0  0  0  0  0  0  0  0  0  0
   22.4757   -5.7281  -16.4743 C   0  0  0  0  0  0  0  0  0  0  0  0
   21.9293   -4.6929  -17.2153 O   0  0  0  0  0  0  0  0  0  0  0  0
   18.8471   -5.7784  -15.7133 O   0  0  0  0  0  0  0  0  0  0  0  0
   23.7010   -5.6235  -16.1214 O   0  0  0  0  0  0  0  0  0  0  0  0
  2  1  1  6
  2  4  1  0
  3  2  1  0
  4  5  1  1
  4  6  1  0
  6  7  2  0
  8  6  1  0
  8  9  1  0
  9 10  1  6
 11 10  1  0
 12 11  2  0
 13 12  1  0
 14 15  1  0
 14 13  2  0
 15 16  2  0
 16 11  1  0
 17 19  1  0
 17  9  1  0
 18 17  2  0
 20 19  1  0
 20 21  1  1
 22 26  1  0
 22 21  1  0
 23 22  2  0
 24 25  1  0
 24 20  1  0
 27 24  2  0
M  END
$$$$
