TFD.pdb
     RDKit          3D

 27 27  0  0  1  0  0  0  0  0999 V2000
   22.9266  -11.4557  -20.8493 C   0  0  0  0  0  0  0  0  0  0  0  0
   22.9773  -10.7517  -19.5258 C   0  0  1  0  0  0  0  0  0  0  0  0
   24.1763  -10.9852  -18.8448 O   0  0  0  0  0  0  0  0  0  0  0  0
   22.6526   -9.2906  -19.6002 C   0  0  2  0  0  0  0  0  0  0  0  0
   23.6411   -8.4896  -20.2479 N   0  0  0  0  0  0  0  0  0  0  0  0
   22.3000   -8.8147  -18.2456 C   0  0  0  0  0  0  0  0  0  0  0  0
   21.3867   -9.4334  -17.6407 O   0  0  0  0  0  0  0  0  0  0  0  0
   22.9302   -7.7110  -17.6020 N   0  0  0  0  0  0  0  0  0  0  0  0
   22.6444   -7.2998  -16.2610 C   0  0  1  0  0  0  0  0  0  0  0  0
   23.8868   -7.0322  -15.4424 C   0  0  0  0  0  0  0  0  0  0  0  0
   24.8233   -8.1859  -15.4357 C   0  0  0  0  0  0  0  0  0  0  0  0
   25.9433   -8.1835  -16.2455 C   0  0  0  0  0  0  0  0  0  0  0  0
   26.8288   -9.2455  -16.2570 C   0  0  0  0  0  0  0  0  0  0  0  0
   26.6157  -10.3528  -15.4489 C   0  0  0  0  0  0  0  0  0  0  0  0
   25.5009  -10.3680  -14.6355 C   0  0  0  0  0  0  0  0  0  0  0  0
   24.6328   -9.2954  -14.6427 C   0  0  0  0  0  0  0  0  0  0  0  0
   21.7779   -6.1005  -16.2025 C   0  0  0  0  0  0  0  0  0  0  0  0
   21.6842   -5.4467  -15.1376 O   0  0  0  0  0  0  0  0  0  0  0  0
   21.0370   -5.6554  -17.3256 N   0  0  0  0  0  0  0  0  0  0  0  0
   20.1858   -4.4568  -17.2509 C   0  0  1  0  0  0  0  0  0  0  0  0
   21.0978   -3.3023  -16.9870 C   0  0  0  0  0  0  0  0  0  0  0  0
   20.4488   -1.9933  -17.1254 C   0  0  0  0  0  0  0  0  0  0  0  0
   19.3332   -1.7181  -16.6406 O   0  0  0  0  0  0  0  0  0  0  0  0
   19.4619   -4.2995  -18.5316 C   0  0  0  0  0  0  0  0  0  0  0  0
   19.9144   -4.8434  -19.7227 O   0  0  0  0  0  0  0  0  0  0  0  0
   21.1090   -0.9925  -17.8382 O   0  0  0  0  0  0  0  0  0  0  0  0
   18.3688   -3.6352  -18.5595 O   0  0  0  0  0  0  0  0  0  0  0  0
  2  1  1  6
  2  4  1  0
  3  2  1  0
  4  5  1  1
  4  6  1  0
  6  7  2  0
  8  6  1  0
  8  9  1  0
  9 10  1  6
 11 10  1  0
 12 11  2  0
 13 12  1  0
 14 15  1  0
 14 13  2  0
 15 16  2  0
 16 11  1  0
 17 19  1  0
 17  9  1  0
 18 17  2  0
 20 19  1  0
 20 21  1  6
 22 26  1  0
 22 21  1  0
 23 22  2  0
 24 25  1  0
 24 20  1  0
 27 24  2  0
M  END
$$$$
