TFD.pdb
     RDKit          3D

 27 27  0  0  1  0  0  0  0  0999 V2000
   20.8253  -10.9407  -22.0339 C   0  0  0  0  0  0  0  0  0  0  0  0
   20.4714  -10.3485  -20.7020 C   0  0  1  0  0  0  0  0  0  0  0  0
   19.1516   -9.8882  -20.6583 O   0  0  0  0  0  0  0  0  0  0  0  0
   20.7928  -11.2346  -19.5369 C   0  0  2  0  0  0  0  0  0  0  0  0
   20.1175  -12.4924  -19.5368 N   0  0  0  0  0  0  0  0  0  0  0  0
   20.6059  -10.4626  -18.2899 C   0  0  0  0  0  0  0  0  0  0  0  0
   19.5146  -10.6117  -17.6819 O   0  0  0  0  0  0  0  0  0  0  0  0
   21.5810   -9.5744  -17.7514 N   0  0  0  0  0  0  0  0  0  0  0  0
   21.3697   -8.7679  -16.5879 C   0  0  1  0  0  0  0  0  0  0  0  0
   22.6017   -8.6375  -15.7216 C   0  0  0  0  0  0  0  0  0  0  0  0
   22.3570   -7.8233  -14.5029 C   0  0  0  0  0  0  0  0  0  0  0  0
   21.8792   -8.4157  -13.3492 C   0  0  0  0  0  0  0  0  0  0  0  0
   21.6433   -7.6789  -12.2031 C   0  0  0  0  0  0  0  0  0  0  0  0
   21.8815   -6.3124  -12.1793 C   0  0  0  0  0  0  0  0  0  0  0  0
   22.3586   -5.7084  -13.3247 C   0  0  0  0  0  0  0  0  0  0  0  0
   22.5858   -6.4664  -14.4552 C   0  0  0  0  0  0  0  0  0  0  0  0
   20.8811   -7.4088  -16.9144 C   0  0  0  0  0  0  0  0  0  0  0  0
   21.4481   -6.7370  -17.8074 O   0  0  0  0  0  0  0  0  0  0  0  0
   19.7761   -6.8280  -16.2434 N   0  0  0  0  0  0  0  0  0  0  0  0
   19.2953   -5.4809  -16.5911 C   0  0  1  0  0  0  0  0  0  0  0  0
   17.8230   -5.4743  -16.3334 C   0  0  0  0  0  0  0  0  0  0  0  0
   17.1898   -4.1697  -16.5590 C   0  0  0  0  0  0  0  0  0  0  0  0
   17.8116   -3.1506  -16.9200 O   0  0  0  0  0  0  0  0  0  0  0  0
   20.0011   -4.4865  -15.7532 C   0  0  0  0  0  0  0  0  0  0  0  0
   20.1159   -4.6081  -14.3780 O   0  0  0  0  0  0  0  0  0  0  0  0
   15.8141   -4.0517  -16.3610 O   0  0  0  0  0  0  0  0  0  0  0  0
   20.5345   -3.4631  -16.3054 O   0  0  0  0  0  0  0  0  0  0  0  0
  2  1  1  6
  2  4  1  0
  3  2  1  0
  4  5  1  1
  4  6  1  0
  6  7  2  0
  8  6  1  0
  8  9  1  0
  9 10  1  6
 11 10  1  0
 12 11  2  0
 13 12  1  0
 14 15  1  0
 14 13  2  0
 15 16  2  0
 16 11  1  0
 17 19  1  0
 17  9  1  0
 18 17  2  0
 20 19  1  0
 20 21  1  1
 22 26  1  0
 22 21  1  0
 23 22  2  0
 24 25  1  0
 24 20  1  0
 27 24  2  0
M  END
$$$$
