TFD.pdb
     RDKit          3D

 27 27  0  0  1  0  0  0  0  0999 V2000
   24.9433   -8.9304  -23.1295 C   0  0  0  0  0  0  0  0  0  0  0  0
   24.4684   -8.9142  -21.7069 C   0  0  1  0  0  0  0  0  0  0  0  0
   23.0918   -9.1382  -21.6031 O   0  0  0  0  0  0  0  0  0  0  0  0
   25.2504   -9.8088  -20.7936 C   0  0  2  0  0  0  0  0  0  0  0  0
   25.2014  -11.1960  -21.1276 N   0  0  0  0  0  0  0  0  0  0  0  0
   24.8552   -9.5220  -19.3981 C   0  0  0  0  0  0  0  0  0  0  0  0
   24.2344  -10.4258  -18.7812 O   0  0  0  0  0  0  0  0  0  0  0  0
   25.1363   -8.2964  -18.7285 N   0  0  0  0  0  0  0  0  0  0  0  0
   24.7781   -8.0297  -17.3685 C   0  0  1  0  0  0  0  0  0  0  0  0
   25.9743   -7.8474  -16.4622 C   0  0  0  0  0  0  0  0  0  0  0  0
   26.7386   -9.1069  -16.2685 C   0  0  0  0  0  0  0  0  0  0  0  0
   26.3120  -10.0514  -15.3541 C   0  0  0  0  0  0  0  0  0  0  0  0
   27.0066  -11.2305  -15.1560 C   0  0  0  0  0  0  0  0  0  0  0  0
   28.1614  -11.5006  -15.8758 C   0  0  0  0  0  0  0  0  0  0  0  0
   28.5984  -10.5657  -16.7920 C   0  0  0  0  0  0  0  0  0  0  0  0
   27.8869   -9.3970  -16.9709 C   0  0  0  0  0  0  0  0  0  0  0  0
   23.9006   -6.8452  -17.2294 C   0  0  0  0  0  0  0  0  0  0  0  0
   24.1801   -5.7840  -17.8344 O   0  0  0  0  0  0  0  0  0  0  0  0
   22.7350   -6.8661  -16.4235 N   0  0  0  0  0  0  0  0  0  0  0  0
   21.8589   -5.6878  -16.3194 C   0  0  1  0  0  0  0  0  0  0  0  0
   20.4564   -6.2025  -16.2721 C   0  0  0  0  0  0  0  0  0  0  0  0
   19.4436   -5.1470  -16.1544 C   0  0  0  0  0  0  0  0  0  0  0  0
   19.7013   -3.9285  -16.2215 O   0  0  0  0  0  0  0  0  0  0  0  0
   22.2066   -4.9359  -15.0936 C   0  0  0  0  0  0  0  0  0  0  0  0
   22.0184   -3.5689  -14.9712 O   0  0  0  0  0  0  0  0  0  0  0  0
   18.1134   -5.5167  -15.9558 O   0  0  0  0  0  0  0  0  0  0  0  0
   22.7042   -5.5587  -14.0928 O   0  0  0  0  0  0  0  0  0  0  0  0
  2  1  1  6
  2  4  1  0
  3  2  1  0
  4  5  1  6
  4  6  1  0
  6  7  2  0
  8  6  1  0
  8  9  1  0
  9 10  1  1
 11 10  1  0
 12 11  2  0
 13 12  1  0
 14 15  1  0
 14 13  2  0
 15 16  2  0
 16 11  1  0
 17 19  1  0
 17  9  1  0
 18 17  2  0
 20 19  1  0
 20 21  1  1
 22 26  1  0
 22 21  1  0
 23 22  2  0
 24 25  1  0
 24 20  1  0
 27 24  2  0
M  END
$$$$
