TFD.pdb
     RDKit          3D

 27 27  0  0  1  0  0  0  0  0999 V2000
   17.0584  -11.8005  -13.3450 C   0  0  0  0  0  0  0  0  0  0  0  0
   16.3729  -10.5782  -12.8102 C   0  0  1  0  0  0  0  0  0  0  0  0
   15.7749   -9.8187  -13.8209 O   0  0  0  0  0  0  0  0  0  0  0  0
   15.4238  -10.8558  -11.6842 C   0  0  2  0  0  0  0  0  0  0  0  0
   14.3171  -11.6905  -12.0256 N   0  0  0  0  0  0  0  0  0  0  0  0
   15.0280   -9.5699  -11.0714 C   0  0  0  0  0  0  0  0  0  0  0  0
   13.9114   -9.0958  -11.4052 O   0  0  0  0  0  0  0  0  0  0  0  0
   15.8320   -8.8529  -10.1391 N   0  0  0  0  0  0  0  0  0  0  0  0
   15.5184   -7.5421   -9.6571 C   0  0  1  0  0  0  0  0  0  0  0  0
   15.5915   -7.4277   -8.1515 C   0  0  0  0  0  0  0  0  0  0  0  0
   14.2521   -7.2737   -7.5267 C   0  0  0  0  0  0  0  0  0  0  0  0
   13.3991   -8.3563   -7.4231 C   0  0  0  0  0  0  0  0  0  0  0  0
   12.1480   -8.2376   -6.8464 C   0  0  0  0  0  0  0  0  0  0  0  0
   11.7101   -7.0178   -6.3515 C   0  0  0  0  0  0  0  0  0  0  0  0
   12.5521   -5.9287   -6.4488 C   0  0  0  0  0  0  0  0  0  0  0  0
   13.7958   -6.0738   -7.0287 C   0  0  0  0  0  0  0  0  0  0  0  0
   16.3801   -6.4933  -10.2487 C   0  0  0  0  0  0  0  0  0  0  0  0
   17.6197   -6.6644  -10.3144 O   0  0  0  0  0  0  0  0  0  0  0  0
   15.8466   -5.2811  -10.7533 N   0  0  0  0  0  0  0  0  0  0  0  0
   16.6844   -4.3358  -11.5091 C   0  0  1  0  0  0  0  0  0  0  0  0
   17.1770   -5.0717  -12.7132 C   0  0  0  0  0  0  0  0  0  0  0  0
   17.8947   -4.2229  -13.6715 C   0  0  0  0  0  0  0  0  0  0  0  0
   18.6393   -3.2791  -13.3393 O   0  0  0  0  0  0  0  0  0  0  0  0
   15.8670   -3.1607  -11.8834 C   0  0  0  0  0  0  0  0  0  0  0  0
   16.4206   -1.9674  -12.3178 O   0  0  0  0  0  0  0  0  0  0  0  0
   17.7423   -4.4775  -15.0343 O   0  0  0  0  0  0  0  0  0  0  0  0
   14.5917   -3.2313  -11.8086 O   0  0  0  0  0  0  0  0  0  0  0  0
  2  1  1  6
  2  4  1  0
  3  2  1  0
  4  5  1  6
  4  6  1  0
  6  7  2  0
  8  6  1  0
  8  9  1  0
  9 10  1  1
 11 10  1  0
 12 11  2  0
 13 12  1  0
 14 15  1  0
 14 13  2  0
 15 16  2  0
 16 11  1  0
 17 19  1  0
 17  9  1  0
 18 17  2  0
 20 19  1  0
 20 21  1  6
 22 26  1  0
 22 21  1  0
 23 22  2  0
 24 25  1  0
 24 20  1  0
 27 24  2  0
M  END
$$$$
