TFD.pdb
     RDKit          3D

 27 27  0  0  1  0  0  0  0  0999 V2000
   19.6952  -11.7050  -21.5262 C   0  0  0  0  0  0  0  0  0  0  0  0
   19.4532  -10.7717  -20.3772 C   0  0  1  0  0  0  0  0  0  0  0  0
   18.4935   -9.7990  -20.6750 O   0  0  0  0  0  0  0  0  0  0  0  0
   19.1625  -11.4646  -19.0806 C   0  0  2  0  0  0  0  0  0  0  0  0
   17.9959  -12.2874  -19.0896 N   0  0  0  0  0  0  0  0  0  0  0  0
   19.1700  -10.4604  -17.9956 C   0  0  0  0  0  0  0  0  0  0  0  0
   18.0598  -10.1595  -17.4858 O   0  0  0  0  0  0  0  0  0  0  0  0
   20.3489   -9.8272  -17.5068 N   0  0  0  0  0  0  0  0  0  0  0  0
   20.3608   -8.8867  -16.4278 C   0  0  1  0  0  0  0  0  0  0  0  0
   21.6304   -8.9360  -15.6086 C   0  0  0  0  0  0  0  0  0  0  0  0
   21.5826   -8.0320  -14.4301 C   0  0  0  0  0  0  0  0  0  0  0  0
   22.0620   -6.7389  -14.5195 C   0  0  0  0  0  0  0  0  0  0  0  0
   22.0287   -5.8795  -13.4367 C   0  0  0  0  0  0  0  0  0  0  0  0
   21.5086   -6.2952  -12.2196 C   0  0  0  0  0  0  0  0  0  0  0  0
   21.0267   -7.5843  -12.1168 C   0  0  0  0  0  0  0  0  0  0  0  0
   21.0714   -8.4219  -13.2125 C   0  0  0  0  0  0  0  0  0  0  0  0
   20.1498   -7.4930  -16.8809 C   0  0  0  0  0  0  0  0  0  0  0  0
   20.8334   -7.0305  -17.8238 O   0  0  0  0  0  0  0  0  0  0  0  0
   19.1863   -6.6463  -16.2781 N   0  0  0  0  0  0  0  0  0  0  0  0
   18.9358   -5.2897  -16.7915 C   0  0  1  0  0  0  0  0  0  0  0  0
   17.4515   -5.1277  -16.8607 C   0  0  0  0  0  0  0  0  0  0  0  0
   17.0226   -3.7901  -17.2860 C   0  0  0  0  0  0  0  0  0  0  0  0
   16.6637   -2.8937  -16.4967 O   0  0  0  0  0  0  0  0  0  0  0  0
   19.5506   -4.3060  -15.8733 C   0  0  0  0  0  0  0  0  0  0  0  0
   19.9690   -4.6315  -14.5933 O   0  0  0  0  0  0  0  0  0  0  0  0
   17.0119   -3.4941  -18.6490 O   0  0  0  0  0  0  0  0  0  0  0  0
   19.7107   -3.0973  -16.2610 O   0  0  0  0  0  0  0  0  0  0  0  0
  2  1  1  6
  2  4  1  0
  3  2  1  0
  4  5  1  6
  4  6  1  0
  6  7  2  0
  8  6  1  0
  8  9  1  0
  9 10  1  6
 11 10  1  0
 12 11  2  0
 13 12  1  0
 14 15  1  0
 14 13  2  0
 15 16  2  0
 16 11  1  0
 17 19  1  0
 17  9  1  0
 18 17  2  0
 20 19  1  0
 20 21  1  1
 22 26  1  0
 22 21  1  0
 23 22  2  0
 24 25  1  0
 24 20  1  0
 27 24  2  0
M  END
$$$$
