WCS.pdb
     RDKit          3D

 27 28  0  0  1  0  0  0  0  0999 V2000
    7.1623  -18.1252   24.8992 N   0  0  0  0  0  0  0  0  0  0  0  0
    7.5496  -16.9048   24.1735 C   0  0  1  0  0  0  0  0  0  0  0  0
    8.3048  -16.0377   25.1820 C   0  0  0  0  0  0  0  0  0  0  0  0
    7.2491  -15.1980   25.8476 C   0  0  0  0  0  0  0  0  0  0  0  0
    6.0584  -15.5571   26.4108 C   0  0  0  0  0  0  0  0  0  0  0  0
    5.4540  -14.4223   26.8689 N   0  0  0  0  0  0  0  0  0  0  0  0
    6.2327  -13.3691   26.6088 C   0  0  0  0  0  0  0  0  0  0  0  0
    6.1538  -11.9933   26.8441 C   0  0  0  0  0  0  0  0  0  0  0  0
    7.1424  -11.1326   26.4637 C   0  0  0  0  0  0  0  0  0  0  0  0
    8.2793  -11.5998   25.8211 C   0  0  0  0  0  0  0  0  0  0  0  0
    8.3591  -12.9589   25.5872 C   0  0  0  0  0  0  0  0  0  0  0  0
    7.3610  -13.8171   25.9716 C   0  0  0  0  0  0  0  0  0  0  0  0
    8.3360  -17.1858   22.9754 C   0  0  0  0  0  0  0  0  0  0  0  0
    9.1020  -18.2066   22.9030 O   0  0  0  0  0  0  0  0  0  0  0  0
    8.3311  -16.3754   21.7933 N   0  0  0  0  0  0  0  0  0  0  0  0
    9.2009  -16.6624   20.6830 C   0  0  1  0  0  0  0  0  0  0  0  0
    8.9054  -15.7122   19.5154 C   0  0  0  0  0  0  0  0  0  0  0  0
    7.2020  -16.0450   18.9999 S   0  0  0  0  0  0  0  0  0  0  0  0
   10.6403  -16.5550   20.9978 C   0  0  0  0  0  0  0  0  0  0  0  0
   11.1442  -15.4981   21.4457 O   0  0  0  0  0  0  0  0  0  0  0  0
   12.5754  -18.9411   23.1260 O   0  0  0  0  0  0  0  0  0  0  0  0
   13.3933  -18.7382   22.0339 C   0  0  0  0  0  0  0  0  0  0  0  0
   12.9399  -17.6371   21.1359 C   0  0  2  0  0  0  0  0  0  0  0  0
   11.5500  -17.6290   20.8155 N   0  0  0  0  0  0  0  0  0  0  0  0
   13.7805  -17.6627   19.9171 C   0  0  0  0  0  0  0  0  0  0  0  0
   13.3208  -17.7651   18.7596 O   0  0  0  0  0  0  0  0  0  0  0  0
   15.1590  -17.5709   20.0483 O   0  0  0  0  0  0  0  0  0  0  0  0
  2  1  1  1
  3  2  1  0
  4  3  1  0
  5  4  2  0
  6  5  1  0
  7 12  2  0
  7  6  1  0
  8  7  1  0
  9  8  2  0
  9 10  1  0
 10 11  2  0
 11 12  1  0
 12  4  1  0
 13  2  1  0
 14 13  2  0
 15 13  1  0
 16 15  1  0
 16 17  1  6
 17 18  1  0
 19 16  1  0
 20 19  2  0
 22 21  1  0
 23 22  1  1
 23 24  1  0
 24 19  1  0
 25 27  1  0
 25 23  1  0
 26 25  2  0
M  END
$$$$
