WCS.pdb
     RDKit          3D

 27 28  0  0  1  0  0  0  0  0999 V2000
    6.7233  -17.3785   25.1804 N   0  0  0  0  0  0  0  0  0  0  0  0
    7.0382  -16.1820   24.3833 C   0  0  1  0  0  0  0  0  0  0  0  0
    8.3568  -15.6418   24.9388 C   0  0  0  0  0  0  0  0  0  0  0  0
    7.9832  -14.9131   26.2006 C   0  0  0  0  0  0  0  0  0  0  0  0
    7.8386  -15.3733   27.4778 C   0  0  0  0  0  0  0  0  0  0  0  0
    7.4735  -14.3182   28.2629 N   0  0  0  0  0  0  0  0  0  0  0  0
    7.3878  -13.2163   27.5135 C   0  0  0  0  0  0  0  0  0  0  0  0
    7.0797  -11.8739   27.7528 C   0  0  0  0  0  0  0  0  0  0  0  0
    7.0855  -10.9382   26.7592 C   0  0  0  0  0  0  0  0  0  0  0  0
    7.4038  -11.2911   25.4561 C   0  0  0  0  0  0  0  0  0  0  0  0
    7.7083  -12.6172   25.2174 C   0  0  0  0  0  0  0  0  0  0  0  0
    7.6992  -13.5517   26.2210 C   0  0  0  0  0  0  0  0  0  0  0  0
    7.1045  -16.4592   22.9509 C   0  0  0  0  0  0  0  0  0  0  0  0
    7.6311  -17.5340   22.5018 O   0  0  0  0  0  0  0  0  0  0  0  0
    6.6017  -15.5862   21.9316 N   0  0  0  0  0  0  0  0  0  0  0  0
    7.3353  -15.3511   20.7157 C   0  0  1  0  0  0  0  0  0  0  0  0
    7.2714  -13.8667   20.3337 C   0  0  0  0  0  0  0  0  0  0  0  0
    8.0753  -13.7163   18.7183 S   0  0  0  0  0  0  0  0  0  0  0  0
    8.7595  -15.7379   20.7834 C   0  0  0  0  0  0  0  0  0  0  0  0
    9.5420  -15.2420   21.6280 O   0  0  0  0  0  0  0  0  0  0  0  0
   10.1784  -19.4187   19.5778 O   0  0  0  0  0  0  0  0  0  0  0  0
   10.9835  -18.5073   20.2290 C   0  0  0  0  0  0  0  0  0  0  0  0
   10.7098  -17.0881   19.8607 C   0  0  2  0  0  0  0  0  0  0  0  0
    9.3414  -16.6878   19.9040 N   0  0  0  0  0  0  0  0  0  0  0  0
   11.3106  -16.8346   18.5312 C   0  0  0  0  0  0  0  0  0  0  0  0
   10.6655  -16.4118   17.5479 O   0  0  0  0  0  0  0  0  0  0  0  0
   12.6647  -17.0761   18.3475 O   0  0  0  0  0  0  0  0  0  0  0  0
  2  1  1  1
  3  2  1  0
  4  3  1  0
  5  4  2  0
  6  5  1  0
  7 12  2  0
  7  6  1  0
  8  7  1  0
  9  8  2  0
  9 10  1  0
 10 11  2  0
 11 12  1  0
 12  4  1  0
 13  2  1  0
 14 13  2  0
 15 13  1  0
 16 15  1  0
 16 17  1  1
 17 18  1  0
 19 16  1  0
 20 19  2  0
 22 21  1  0
 23 22  1  6
 23 24  1  0
 24 19  1  0
 25 27  1  0
 25 23  1  0
 26 25  2  0
M  END
$$$$
