WCS.pdb
     RDKit          3D

 27 28  0  0  1  0  0  0  0  0999 V2000
    6.5339  -17.7965   24.7464 N   0  0  0  0  0  0  0  0  0  0  0  0
    7.1330  -16.6191   24.0976 C   0  0  1  0  0  0  0  0  0  0  0  0
    8.1381  -16.0520   25.1011 C   0  0  0  0  0  0  0  0  0  0  0  0
    7.3210  -15.2139   26.0459 C   0  0  0  0  0  0  0  0  0  0  0  0
    6.4413  -15.5846   27.0219 C   0  0  0  0  0  0  0  0  0  0  0  0
    5.9465  -14.4474   27.5920 N   0  0  0  0  0  0  0  0  0  0  0  0
    6.4922  -13.3814   27.0012 C   0  0  0  0  0  0  0  0  0  0  0  0
    6.3881  -11.9963   27.1591 C   0  0  0  0  0  0  0  0  0  0  0  0
    7.1026  -11.1213   26.3933 C   0  0  0  0  0  0  0  0  0  0  0  0
    7.9726  -11.5823   25.4165 C   0  0  0  0  0  0  0  0  0  0  0  0
    8.0769  -12.9508   25.2585 C   0  0  0  0  0  0  0  0  0  0  0  0
    7.3546  -13.8234   26.0312 C   0  0  0  0  0  0  0  0  0  0  0  0
    7.7437  -16.9342   22.8090 C   0  0  0  0  0  0  0  0  0  0  0  0
    8.5013  -17.9530   22.6597 O   0  0  0  0  0  0  0  0  0  0  0  0
    7.5632  -16.1620   21.6152 N   0  0  0  0  0  0  0  0  0  0  0  0
    8.5678  -16.1268   20.5850 C   0  0  1  0  0  0  0  0  0  0  0  0
    8.2044  -15.0817   19.5222 C   0  0  0  0  0  0  0  0  0  0  0  0
    6.4434  -14.7202   19.7373 S   0  0  0  0  0  0  0  0  0  0  0  0
    9.9269  -15.8173   21.0746 C   0  0  0  0  0  0  0  0  0  0  0  0
   10.1199  -15.1628   22.1262 O   0  0  0  0  0  0  0  0  0  0  0  0
   11.6897  -18.4458   22.8052 O   0  0  0  0  0  0  0  0  0  0  0  0
   11.7928  -18.3678   21.4318 C   0  0  0  0  0  0  0  0  0  0  0  0
   12.1683  -17.0143   20.9302 C   0  0  2  0  0  0  0  0  0  0  0  0
   11.1022  -16.2319   20.3957 N   0  0  0  0  0  0  0  0  0  0  0  0
   13.2694  -17.1757   19.9532 C   0  0  0  0  0  0  0  0  0  0  0  0
   13.1634  -17.8229   18.8894 O   0  0  0  0  0  0  0  0  0  0  0  0
   14.4962  -16.5835   20.2179 O   0  0  0  0  0  0  0  0  0  0  0  0
  2  1  1  1
  3  2  1  0
  4  3  1  0
  5  4  2  0
  6  5  1  0
  7 12  2  0
  7  6  1  0
  8  7  1  0
  9  8  2  0
  9 10  1  0
 10 11  2  0
 11 12  1  0
 12  4  1  0
 13  2  1  0
 14 13  2  0
 15 13  1  0
 16 15  1  0
 16 17  1  6
 17 18  1  0
 19 16  1  0
 20 19  2  0
 22 21  1  0
 23 22  1  6
 23 24  1  0
 24 19  1  0
 25 27  1  0
 25 23  1  0
 26 25  2  0
M  END
$$$$
