WCS.pdb
     RDKit          3D

 27 28  0  0  1  0  0  0  0  0999 V2000
    6.7954  -18.2522   25.0143 N   0  0  0  0  0  0  0  0  0  0  0  0
    6.9750  -16.8874   24.4935 C   0  0  1  0  0  0  0  0  0  0  0  0
    7.8420  -16.1566   25.5198 C   0  0  0  0  0  0  0  0  0  0  0  0
    6.9378  -15.1237   26.1348 C   0  0  0  0  0  0  0  0  0  0  0  0
    5.6623  -15.2347   26.6088 C   0  0  0  0  0  0  0  0  0  0  0  0
    5.2738  -14.0043   27.0540 N   0  0  0  0  0  0  0  0  0  0  0  0
    6.2687  -13.1323   26.8724 C   0  0  0  0  0  0  0  0  0  0  0  0
    6.4583  -11.7726   27.1363 C   0  0  0  0  0  0  0  0  0  0  0  0
    7.6269  -11.1311   26.8437 C   0  0  0  0  0  0  0  0  0  0  0  0
    8.6855  -11.8165   26.2664 C   0  0  0  0  0  0  0  0  0  0  0  0
    8.5002  -13.1602   26.0045 C   0  0  0  0  0  0  0  0  0  0  0  0
    7.3225  -13.7973   26.3003 C   0  0  0  0  0  0  0  0  0  0  0  0
    7.5543  -16.8663   23.1531 C   0  0  0  0  0  0  0  0  0  0  0  0
    8.4637  -17.6945   22.8048 O   0  0  0  0  0  0  0  0  0  0  0  0
    7.1763  -15.9472   22.1204 N   0  0  0  0  0  0  0  0  0  0  0  0
    7.9564  -15.8056   20.9191 C   0  0  1  0  0  0  0  0  0  0  0  0
    7.6557  -14.4613   20.2440 C   0  0  0  0  0  0  0  0  0  0  0  0
    8.5339  -14.4729   18.6607 S   0  0  0  0  0  0  0  0  0  0  0  0
    9.4162  -15.8860   21.1320 C   0  0  0  0  0  0  0  0  0  0  0  0
   10.0374  -15.0255   21.7993 O   0  0  0  0  0  0  0  0  0  0  0  0
   11.5595  -19.4360   20.2335 O   0  0  0  0  0  0  0  0  0  0  0  0
   12.1069  -18.4607   21.0411 C   0  0  0  0  0  0  0  0  0  0  0  0
   11.6270  -17.0824   20.7336 C   0  0  2  0  0  0  0  0  0  0  0  0
   10.2150  -16.9314   20.5998 N   0  0  0  0  0  0  0  0  0  0  0  0
   12.3433  -16.6048   19.5288 C   0  0  0  0  0  0  0  0  0  0  0  0
   11.7690  -16.2125   18.4905 O   0  0  0  0  0  0  0  0  0  0  0  0
   13.7309  -16.5865   19.5338 O   0  0  0  0  0  0  0  0  0  0  0  0
  2  1  1  1
  3  2  1  0
  4  3  1  0
  5  4  2  0
  6  5  1  0
  7 12  2  0
  7  6  1  0
  8  7  1  0
  9  8  2  0
  9 10  1  0
 10 11  2  0
 11 12  1  0
 12  4  1  0
 13  2  1  0
 14 13  2  0
 15 13  1  0
 16 15  1  0
 16 17  1  1
 17 18  1  0
 19 16  1  0
 20 19  2  0
 22 21  1  0
 23 22  1  6
 23 24  1  0
 24 19  1  0
 25 27  1  0
 25 23  1  0
 26 25  2  0
M  END
$$$$
