WCS.pdb
     RDKit          3D

 27 28  0  0  1  0  0  0  0  0999 V2000
    6.1926  -17.6781   24.4843 N   0  0  0  0  0  0  0  0  0  0  0  0
    7.0260  -16.5913   23.9454 C   0  0  1  0  0  0  0  0  0  0  0  0
    7.9132  -16.1287   25.1021 C   0  0  0  0  0  0  0  0  0  0  0  0
    7.0808  -15.1331   25.8628 C   0  0  0  0  0  0  0  0  0  0  0  0
    5.9353  -15.3065   26.5850 C   0  0  0  0  0  0  0  0  0  0  0  0
    5.5601  -14.0878   27.0719 N   0  0  0  0  0  0  0  0  0  0  0  0
    6.4375  -13.1625   26.6755 C   0  0  0  0  0  0  0  0  0  0  0  0
    6.5828  -11.7852   26.8660 C   0  0  0  0  0  0  0  0  0  0  0  0
    7.6237  -11.0830   26.3312 C   0  0  0  0  0  0  0  0  0  0  0  0
    8.5908  -11.7210   25.5687 C   0  0  0  0  0  0  0  0  0  0  0  0
    8.4491  -13.0820   25.3789 C   0  0  0  0  0  0  0  0  0  0  0  0
    7.3996  -13.7804   25.9187 C   0  0  0  0  0  0  0  0  0  0  0  0
    7.7980  -16.9993   22.7747 C   0  0  0  0  0  0  0  0  0  0  0  0
    8.3463  -18.1518   22.7041 O   0  0  0  0  0  0  0  0  0  0  0  0
    8.0138  -16.1792   21.6193 N   0  0  0  0  0  0  0  0  0  0  0  0
    8.9964  -16.5253   20.6261 C   0  0  1  0  0  0  0  0  0  0  0  0
    8.7987  -15.6773   19.3631 C   0  0  0  0  0  0  0  0  0  0  0  0
    8.6203  -13.9629   19.9173 S   0  0  0  0  0  0  0  0  0  0  0  0
   10.3945  -16.3515   21.0710 C   0  0  0  0  0  0  0  0  0  0  0  0
   10.8441  -15.2360   21.4245 O   0  0  0  0  0  0  0  0  0  0  0  0
   12.7503  -19.7514   21.8789 O   0  0  0  0  0  0  0  0  0  0  0  0
   13.1384  -18.5300   22.3893 C   0  0  0  0  0  0  0  0  0  0  0  0
   12.6725  -17.3636   21.5850 C   0  0  2  0  0  0  0  0  0  0  0  0
   11.3228  -17.4236   21.1276 N   0  0  0  0  0  0  0  0  0  0  0  0
   13.6203  -17.1709   20.4637 C   0  0  0  0  0  0  0  0  0  0  0  0
   13.2809  -17.1701   19.2610 O   0  0  0  0  0  0  0  0  0  0  0  0
   14.9659  -16.9808   20.7450 O   0  0  0  0  0  0  0  0  0  0  0  0
  2  1  1  1
  3  2  1  0
  4  3  1  0
  5  4  2  0
  6  5  1  0
  7 12  2  0
  7  6  1  0
  8  7  1  0
  9  8  2  0
  9 10  1  0
 10 11  2  0
 11 12  1  0
 12  4  1  0
 13  2  1  0
 14 13  2  0
 15 13  1  0
 16 15  1  0
 16 17  1  6
 17 18  1  0
 19 16  1  0
 20 19  2  0
 22 21  1  0
 23 22  1  6
 23 24  1  0
 24 19  1  0
 25 27  1  0
 25 23  1  0
 26 25  2  0
M  END
$$$$
