WCS.pdb
     RDKit          3D

 27 28  0  0  1  0  0  0  0  0999 V2000
    6.4929  -18.1678   24.4597 N   0  0  0  0  0  0  0  0  0  0  0  0
    6.9965  -16.8956   23.9173 C   0  0  1  0  0  0  0  0  0  0  0  0
    7.8734  -16.2889   25.0136 C   0  0  0  0  0  0  0  0  0  0  0  0
    6.9961  -15.2838   25.7083 C   0  0  0  0  0  0  0  0  0  0  0  0
    5.7710  -15.4332   26.2921 C   0  0  0  0  0  0  0  0  0  0  0  0
    5.3863  -14.2151   26.7731 N   0  0  0  0  0  0  0  0  0  0  0  0
    6.3348  -13.3135   26.5072 C   0  0  0  0  0  0  0  0  0  0  0  0
    6.5060  -11.9487   26.7571 C   0  0  0  0  0  0  0  0  0  0  0  0
    7.6246  -11.2723   26.3649 C   0  0  0  0  0  0  0  0  0  0  0  0
    8.6485  -11.9255   25.6951 C   0  0  0  0  0  0  0  0  0  0  0  0
    8.4813  -13.2741   25.4468 C   0  0  0  0  0  0  0  0  0  0  0  0
    7.3538  -13.9464   25.8431 C   0  0  0  0  0  0  0  0  0  0  0  0
    7.7120  -17.0637   22.6553 C   0  0  0  0  0  0  0  0  0  0  0  0
    8.4436  -18.0882   22.4331 O   0  0  0  0  0  0  0  0  0  0  0  0
    7.6700  -16.1305   21.5684 N   0  0  0  0  0  0  0  0  0  0  0  0
    8.5137  -16.2858   20.4127 C   0  0  1  0  0  0  0  0  0  0  0  0
    8.0451  -15.3599   19.2828 C   0  0  0  0  0  0  0  0  0  0  0  0
    7.6287  -13.7761   20.0549 S   0  0  0  0  0  0  0  0  0  0  0  0
    9.9420  -16.0032   20.6633 C   0  0  0  0  0  0  0  0  0  0  0  0
   10.5762  -15.1513   19.9974 O   0  0  0  0  0  0  0  0  0  0  0  0
   11.9213  -17.9608   23.8610 O   0  0  0  0  0  0  0  0  0  0  0  0
   12.4725  -16.7921   23.3780 C   0  0  0  0  0  0  0  0  0  0  0  0
   12.0708  -16.4679   21.9787 C   0  0  2  0  0  0  0  0  0  0  0  0
   10.6943  -16.6709   21.6646 N   0  0  0  0  0  0  0  0  0  0  0  0
   12.9564  -17.2199   21.0607 C   0  0  0  0  0  0  0  0  0  0  0  0
   14.2043  -17.1690   21.1042 O   0  0  0  0  0  0  0  0  0  0  0  0
   12.3864  -18.0307   20.0893 O   0  0  0  0  0  0  0  0  0  0  0  0
  2  1  1  1
  3  2  1  0
  4  3  1  0
  5  4  2  0
  6  5  1  0
  7 12  2  0
  7  6  1  0
  8  7  1  0
  9  8  2  0
  9 10  1  0
 10 11  2  0
 11 12  1  0
 12  4  1  0
 13  2  1  0
 14 13  2  0
 15 13  1  0
 16 15  1  0
 16 17  1  6
 17 18  1  0
 19 16  1  0
 20 19  2  0
 22 21  1  0
 23 22  1  1
 23 24  1  0
 24 19  1  0
 25 27  1  0
 25 23  1  0
 26 25  2  0
M  END
$$$$
