WCS.pdb
     RDKit          3D

 27 28  0  0  1  0  0  0  0  0999 V2000
    6.4297  -17.8092   24.0726 N   0  0  0  0  0  0  0  0  0  0  0  0
    7.0232  -16.5208   23.6805 C   0  0  1  0  0  0  0  0  0  0  0  0
    7.8913  -16.0813   24.8604 C   0  0  0  0  0  0  0  0  0  0  0  0
    7.0170  -15.1657   25.6728 C   0  0  0  0  0  0  0  0  0  0  0  0
    5.7960  -15.3847   26.2430 C   0  0  0  0  0  0  0  0  0  0  0  0
    5.4127  -14.2316   26.8647 N   0  0  0  0  0  0  0  0  0  0  0  0
    6.3580  -13.3031   26.6994 C   0  0  0  0  0  0  0  0  0  0  0  0
    6.5288  -11.9762   27.1051 C   0  0  0  0  0  0  0  0  0  0  0  0
    7.6438  -11.2563   26.7870 C   0  0  0  0  0  0  0  0  0  0  0  0
    8.6642  -11.8248   26.0393 C   0  0  0  0  0  0  0  0  0  0  0  0
    8.4975  -13.1359   25.6371 C   0  0  0  0  0  0  0  0  0  0  0  0
    7.3736  -13.8522   25.9598 C   0  0  0  0  0  0  0  0  0  0  0  0
    7.7748  -16.6024   22.4309 C   0  0  0  0  0  0  0  0  0  0  0  0
    8.4439  -17.6464   22.1203 O   0  0  0  0  0  0  0  0  0  0  0  0
    7.8381  -15.5569   21.4526 N   0  0  0  0  0  0  0  0  0  0  0  0
    8.6304  -15.6931   20.2587 C   0  0  1  0  0  0  0  0  0  0  0  0
    8.5018  -14.4367   19.3879 C   0  0  0  0  0  0  0  0  0  0  0  0
    6.7577  -14.3132   18.9175 S   0  0  0  0  0  0  0  0  0  0  0  0
   10.0683  -15.9224   20.5089 C   0  0  0  0  0  0  0  0  0  0  0  0
   10.7682  -15.1047   21.1517 O   0  0  0  0  0  0  0  0  0  0  0  0
   11.7001  -19.7674   20.0408 O   0  0  0  0  0  0  0  0  0  0  0  0
   12.3717  -18.8011   20.7605 C   0  0  0  0  0  0  0  0  0  0  0  0
   12.1212  -17.4100   20.2845 C   0  0  2  0  0  0  0  0  0  0  0  0
   10.7566  -17.0724   20.0423 N   0  0  0  0  0  0  0  0  0  0  0  0
   12.9617  -17.1756   19.0881 C   0  0  0  0  0  0  0  0  0  0  0  0
   12.5125  -16.7763   17.9924 O   0  0  0  0  0  0  0  0  0  0  0  0
   14.3273  -17.4089   19.1688 O   0  0  0  0  0  0  0  0  0  0  0  0
  2  1  1  1
  3  2  1  0
  4  3  1  0
  5  4  2  0
  6  5  1  0
  7 12  2  0
  7  6  1  0
  8  7  1  0
  9  8  2  0
  9 10  1  0
 10 11  2  0
 11 12  1  0
 12  4  1  0
 13  2  1  0
 14 13  2  0
 15 13  1  0
 16 15  1  0
 16 17  1  6
 17 18  1  0
 19 16  1  0
 20 19  2  0
 22 21  1  0
 23 22  1  6
 23 24  1  0
 24 19  1  0
 25 27  1  0
 25 23  1  0
 26 25  2  0
M  END
$$$$
