WCS.pdb
     RDKit          3D

 27 28  0  0  1  0  0  0  0  0999 V2000
    8.4397  -16.0337   21.5539 N   0  0  0  0  0  0  0  0  0  0  0  0
    8.8420  -15.8972   22.9631 C   0  0  1  0  0  0  0  0  0  0  0  0
    7.5425  -15.8283   23.7665 C   0  0  0  0  0  0  0  0  0  0  0  0
    7.0790  -14.4025   23.6439 C   0  0  0  0  0  0  0  0  0  0  0  0
    6.6537  -13.7016   22.5522 C   0  0  0  0  0  0  0  0  0  0  0  0
    6.3563  -12.4335   22.9601 N   0  0  0  0  0  0  0  0  0  0  0  0
    6.5826  -12.3248   24.2717 C   0  0  0  0  0  0  0  0  0  0  0  0
    6.4529  -11.3068   25.2210 C   0  0  0  0  0  0  0  0  0  0  0  0
    6.7577  -11.4971   26.5376 C   0  0  0  0  0  0  0  0  0  0  0  0
    7.2129  -12.7273   26.9883 C   0  0  0  0  0  0  0  0  0  0  0  0
    7.3421  -13.7347   26.0518 C   0  0  0  0  0  0  0  0  0  0  0  0
    7.0348  -13.5352   24.7304 C   0  0  0  0  0  0  0  0  0  0  0  0
    9.7193  -16.9772   23.4069 C   0  0  0  0  0  0  0  0  0  0  0  0
    9.5086  -18.1915   23.0678 O   0  0  0  0  0  0  0  0  0  0  0  0
   10.8714  -16.7959   24.2399 N   0  0  0  0  0  0  0  0  0  0  0  0
   11.5556  -17.9169   24.8288 C   0  0  1  0  0  0  0  0  0  0  0  0
   13.0493  -17.8715   24.4818 C   0  0  0  0  0  0  0  0  0  0  0  0
   13.5330  -16.1271   24.5185 S   0  0  0  0  0  0  0  0  0  0  0  0
   11.4371  -17.9943   26.2994 C   0  0  0  0  0  0  0  0  0  0  0  0
   11.5635  -16.9828   27.0290 O   0  0  0  0  0  0  0  0  0  0  0  0
   10.0266  -21.5519   28.1414 O   0  0  0  0  0  0  0  0  0  0  0  0
    9.9877  -20.3553   28.8267 C   0  0  0  0  0  0  0  0  0  0  0  0
   11.0292  -19.3784   28.3960 C   0  0  2  0  0  0  0  0  0  0  0  0
   11.1767  -19.2079   26.9875 N   0  0  0  0  0  0  0  0  0  0  0  0
   12.3090  -19.7592   29.0363 C   0  0  0  0  0  0  0  0  0  0  0  0
   13.3497  -20.0294   28.3995 O   0  0  0  0  0  0  0  0  0  0  0  0
   12.3748  -19.8271   30.4208 O   0  0  0  0  0  0  0  0  0  0  0  0
  2  1  1  6
  3  2  1  0
  4  3  1  0
  5  4  2  0
  6  5  1  0
  7 12  2  0
  7  6  1  0
  8  7  1  0
  9  8  2  0
  9 10  1  0
 10 11  2  0
 11 12  1  0
 12  4  1  0
 13  2  1  0
 14 13  2  0
 15 13  1  0
 16 15  1  0
 16 17  1  1
 17 18  1  0
 19 16  1  0
 20 19  2  0
 22 21  1  0
 23 22  1  6
 23 24  1  0
 24 19  1  0
 25 27  1  0
 25 23  1  0
 26 25  2  0
M  END
$$$$
