WCS.pdb
     RDKit          3D

 27 28  0  0  1  0  0  0  0  0999 V2000
    6.4957  -18.5547   25.0884 N   0  0  0  0  0  0  0  0  0  0  0  0
    6.8799  -17.1698   24.7714 C   0  0  1  0  0  0  0  0  0  0  0  0
    7.5335  -16.6145   26.0377 C   0  0  0  0  0  0  0  0  0  0  0  0
    6.7953  -15.3378   26.3343 C   0  0  0  0  0  0  0  0  0  0  0  0
    5.4643  -15.1129   26.5388 C   0  0  0  0  0  0  0  0  0  0  0  0
    5.2955  -13.7763   26.7576 N   0  0  0  0  0  0  0  0  0  0  0  0
    6.4805  -13.1636   26.6964 C   0  0  0  0  0  0  0  0  0  0  0  0
    6.9271  -11.8474   26.8466 C   0  0  0  0  0  0  0  0  0  0  0  0
    8.2451  -11.5100   26.7389 C   0  0  0  0  0  0  0  0  0  0  0  0
    9.2041  -12.4764   26.4740 C   0  0  0  0  0  0  0  0  0  0  0  0
    8.7649  -13.7777   26.3249 C   0  0  0  0  0  0  0  0  0  0  0  0
    7.4386  -14.1085   26.4334 C   0  0  0  0  0  0  0  0  0  0  0  0
    7.7524  -17.0791   23.6037 C   0  0  0  0  0  0  0  0  0  0  0  0
    8.6926  -17.9220   23.4048 O   0  0  0  0  0  0  0  0  0  0  0  0
    7.6493  -16.0707   22.5905 N   0  0  0  0  0  0  0  0  0  0  0  0
    8.6069  -15.9822   21.5196 C   0  0  1  0  0  0  0  0  0  0  0  0
    8.2302  -14.8454   20.5608 C   0  0  0  0  0  0  0  0  0  0  0  0
    6.5397  -15.1800   20.0052 S   0  0  0  0  0  0  0  0  0  0  0  0
    9.9961  -15.7523   21.9668 C   0  0  0  0  0  0  0  0  0  0  0  0
   10.3858  -14.6315   22.3711 O   0  0  0  0  0  0  0  0  0  0  0  0
   12.5630  -18.9982   22.8814 O   0  0  0  0  0  0  0  0  0  0  0  0
   12.8271  -17.7165   23.3178 C   0  0  0  0  0  0  0  0  0  0  0  0
   12.3383  -16.6515   22.3952 C   0  0  2  0  0  0  0  0  0  0  0  0
   10.9825  -16.7728   21.9690 N   0  0  0  0  0  0  0  0  0  0  0  0
   13.2674  -16.5788   21.2444 C   0  0  0  0  0  0  0  0  0  0  0  0
   14.4981  -16.3937   21.3573 O   0  0  0  0  0  0  0  0  0  0  0  0
   12.7606  -16.7203   19.9603 O   0  0  0  0  0  0  0  0  0  0  0  0
  2  1  1  1
  3  2  1  0
  4  3  1  0
  5  4  2  0
  6  5  1  0
  7 12  2  0
  7  6  1  0
  8  7  1  0
  9  8  2  0
  9 10  1  0
 10 11  2  0
 11 12  1  0
 12  4  1  0
 13  2  1  0
 14 13  2  0
 15 13  1  0
 16 15  1  0
 16 17  1  6
 17 18  1  0
 19 16  1  0
 20 19  2  0
 22 21  1  0
 23 22  1  1
 23 24  1  0
 24 19  1  0
 25 27  1  0
 25 23  1  0
 26 25  2  0
M  END
$$$$
