WCS.pdb
     RDKit          3D

 27 28  0  0  1  0  0  0  0  0999 V2000
    6.4006  -17.4596   23.9075 N   0  0  0  0  0  0  0  0  0  0  0  0
    7.0294  -16.1819   23.5359 C   0  0  1  0  0  0  0  0  0  0  0  0
    7.8858  -15.7706   24.7345 C   0  0  0  0  0  0  0  0  0  0  0  0
    6.9652  -14.9797   25.6232 C   0  0  0  0  0  0  0  0  0  0  0  0
    5.8051  -15.3450   26.2434 C   0  0  0  0  0  0  0  0  0  0  0  0
    5.3376  -14.2601   26.9270 N   0  0  0  0  0  0  0  0  0  0  0  0
    6.1716  -13.2321   26.7516 C   0  0  0  0  0  0  0  0  0  0  0  0
    6.2250  -11.9088   27.1992 C   0  0  0  0  0  0  0  0  0  0  0  0
    7.2411  -11.0651   26.8551 C   0  0  0  0  0  0  0  0  0  0  0  0
    8.2743  -11.4978   26.0371 C   0  0  0  0  0  0  0  0  0  0  0  0
    8.2234  -12.8050   25.5934 C   0  0  0  0  0  0  0  0  0  0  0  0
    7.1983  -13.6462   25.9427 C   0  0  0  0  0  0  0  0  0  0  0  0
    7.8011  -16.2710   22.2993 C   0  0  0  0  0  0  0  0  0  0  0  0
    8.4476  -17.3294   21.9896 O   0  0  0  0  0  0  0  0  0  0  0  0
    7.9104  -15.2176   21.3336 N   0  0  0  0  0  0  0  0  0  0  0  0
    8.7389  -15.3540   20.1646 C   0  0  1  0  0  0  0  0  0  0  0  0
    8.5911  -14.1236   19.2603 C   0  0  0  0  0  0  0  0  0  0  0  0
    6.8452  -14.0392   18.7879 S   0  0  0  0  0  0  0  0  0  0  0  0
   10.1765  -15.5271   20.4580 C   0  0  0  0  0  0  0  0  0  0  0  0
   10.7207  -14.9869   21.4496 O   0  0  0  0  0  0  0  0  0  0  0  0
   11.4908  -18.8926   20.9742 O   0  0  0  0  0  0  0  0  0  0  0  0
   12.3052  -17.7950   21.1611 C   0  0  0  0  0  0  0  0  0  0  0  0
   12.3090  -16.8432   20.0127 C   0  0  2  0  0  0  0  0  0  0  0  0
   11.0390  -16.3079   19.6451 N   0  0  0  0  0  0  0  0  0  0  0  0
   12.9731  -17.5074   18.8679 C   0  0  0  0  0  0  0  0  0  0  0  0
   12.4075  -17.7407   17.7782 O   0  0  0  0  0  0  0  0  0  0  0  0
   14.2975  -17.9019   18.9945 O   0  0  0  0  0  0  0  0  0  0  0  0
  2  1  1  1
  3  2  1  0
  4  3  1  0
  5  4  2  0
  6  5  1  0
  7 12  2  0
  7  6  1  0
  8  7  1  0
  9  8  2  0
  9 10  1  0
 10 11  2  0
 11 12  1  0
 12  4  1  0
 13  2  1  0
 14 13  2  0
 15 13  1  0
 16 15  1  0
 16 17  1  6
 17 18  1  0
 19 16  1  0
 20 19  2  0
 22 21  1  0
 23 22  1  1
 23 24  1  0
 24 19  1  0
 25 27  1  0
 25 23  1  0
 26 25  2  0
M  END
$$$$
