WCS.pdb
     RDKit          3D

 27 28  0  0  1  0  0  0  0  0999 V2000
    7.3043  -17.2431   25.9686 N   0  0  0  0  0  0  0  0  0  0  0  0
    7.5960  -16.1569   25.0193 C   0  0  1  0  0  0  0  0  0  0  0  0
    8.8506  -15.4610   25.5493 C   0  0  0  0  0  0  0  0  0  0  0  0
    8.3925  -14.6896   26.7567 C   0  0  0  0  0  0  0  0  0  0  0  0
    8.6061  -14.9182   28.0856 C   0  0  0  0  0  0  0  0  0  0  0  0
    7.9668  -13.9366   28.7862 N   0  0  0  0  0  0  0  0  0  0  0  0
    7.3634  -13.1044   27.9339 C   0  0  0  0  0  0  0  0  0  0  0  0
    6.5933  -11.9440   28.0559 C   0  0  0  0  0  0  0  0  0  0  0  0
    6.1058  -11.2772   26.9694 C   0  0  0  0  0  0  0  0  0  0  0  0
    6.3625  -11.7333   25.6849 C   0  0  0  0  0  0  0  0  0  0  0  0
    7.1231  -12.8799   25.5620 C   0  0  0  0  0  0  0  0  0  0  0  0
    7.6082  -13.5449   26.6587 C   0  0  0  0  0  0  0  0  0  0  0  0
    7.7557  -16.6332   23.6480 C   0  0  0  0  0  0  0  0  0  0  0  0
    8.0771  -17.8441   23.3943 O   0  0  0  0  0  0  0  0  0  0  0  0
    7.5734  -15.8216   22.4810 N   0  0  0  0  0  0  0  0  0  0  0  0
    8.1014  -16.2170   21.2017 C   0  0  1  0  0  0  0  0  0  0  0  0
    7.7762  -15.1578   20.1407 C   0  0  0  0  0  0  0  0  0  0  0  0
    5.9706  -15.0649   20.0432 S   0  0  0  0  0  0  0  0  0  0  0  0
    9.5630  -16.4320   21.1901 C   0  0  0  0  0  0  0  0  0  0  0  0
   10.3710  -15.5103   21.4531 O   0  0  0  0  0  0  0  0  0  0  0  0
   11.1235  -20.3697   20.7878 O   0  0  0  0  0  0  0  0  0  0  0  0
   11.8919  -19.3769   21.3596 C   0  0  0  0  0  0  0  0  0  0  0  0
   11.5445  -18.0022   20.8968 C   0  0  2  0  0  0  0  0  0  0  0  0
   10.1540  -17.6847   20.8808 N   0  0  0  0  0  0  0  0  0  0  0  0
   12.1669  -17.7935   19.5694 C   0  0  0  0  0  0  0  0  0  0  0  0
   11.5239  -17.4889   18.5420 O   0  0  0  0  0  0  0  0  0  0  0  0
   13.5406  -17.9420   19.4394 O   0  0  0  0  0  0  0  0  0  0  0  0
  2  1  1  1
  3  2  1  0
  4  3  1  0
  5  4  2  0
  6  5  1  0
  7 12  2  0
  7  6  1  0
  8  7  1  0
  9  8  2  0
  9 10  1  0
 10 11  2  0
 11 12  1  0
 12  4  1  0
 13  2  1  0
 14 13  2  0
 15 13  1  0
 16 15  1  0
 16 17  1  6
 17 18  1  0
 19 16  1  0
 20 19  2  0
 22 21  1  0
 23 22  1  6
 23 24  1  0
 24 19  1  0
 25 27  1  0
 25 23  1  0
 26 25  2  0
M  END
$$$$
