WCS.pdb
     RDKit          3D

 27 28  0  0  1  0  0  0  0  0999 V2000
    6.7819  -17.4986   23.6386 N   0  0  0  0  0  0  0  0  0  0  0  0
    7.3414  -16.1786   23.3056 C   0  0  1  0  0  0  0  0  0  0  0  0
    8.2976  -15.8273   24.4464 C   0  0  0  0  0  0  0  0  0  0  0  0
    7.4268  -15.2394   25.5229 C   0  0  0  0  0  0  0  0  0  0  0  0
    6.6059  -15.8490   26.4275 C   0  0  0  0  0  0  0  0  0  0  0  0
    6.0206  -14.8746   27.1831 N   0  0  0  0  0  0  0  0  0  0  0  0
    6.4532  -13.6783   26.7769 C   0  0  0  0  0  0  0  0  0  0  0  0
    6.2252  -12.3550   27.1658 C   0  0  0  0  0  0  0  0  0  0  0  0
    6.8397  -11.3011   26.5540 C   0  0  0  0  0  0  0  0  0  0  0  0
    7.7277  -11.5086   25.5090 C   0  0  0  0  0  0  0  0  0  0  0  0
    7.9543  -12.8155   25.1228 C   0  0  0  0  0  0  0  0  0  0  0  0
    7.3319  -13.8690   25.7418 C   0  0  0  0  0  0  0  0  0  0  0  0
    7.9940  -16.1553   21.9993 C   0  0  0  0  0  0  0  0  0  0  0  0
    8.5276  -17.2041   21.4999 O   0  0  0  0  0  0  0  0  0  0  0  0
    8.1003  -14.9939   21.1663 N   0  0  0  0  0  0  0  0  0  0  0  0
    8.7359  -15.0512   19.8762 C   0  0  1  0  0  0  0  0  0  0  0  0
    8.7381  -13.6639   19.2213 C   0  0  0  0  0  0  0  0  0  0  0  0
    7.0106  -13.2661   18.8532 S   0  0  0  0  0  0  0  0  0  0  0  0
   10.1312  -15.5357   19.9095 C   0  0  0  0  0  0  0  0  0  0  0  0
   11.0013  -15.0020   20.6372 O   0  0  0  0  0  0  0  0  0  0  0  0
   11.0295  -19.4377   19.2938 O   0  0  0  0  0  0  0  0  0  0  0  0
   12.0078  -18.5620   19.7170 C   0  0  0  0  0  0  0  0  0  0  0  0
   11.8932  -17.1971   19.1267 C   0  0  2  0  0  0  0  0  0  0  0  0
   10.5852  -16.6284   19.1257 N   0  0  0  0  0  0  0  0  0  0  0  0
   12.4723  -17.2358   17.7644 C   0  0  0  0  0  0  0  0  0  0  0  0
   11.8442  -16.9098   16.7343 O   0  0  0  0  0  0  0  0  0  0  0  0
   13.7846  -17.6569   17.6025 O   0  0  0  0  0  0  0  0  0  0  0  0
  2  1  1  1
  3  2  1  0
  4  3  1  0
  5  4  2  0
  6  5  1  0
  7 12  2  0
  7  6  1  0
  8  7  1  0
  9  8  2  0
  9 10  1  0
 10 11  2  0
 11 12  1  0
 12  4  1  0
 13  2  1  0
 14 13  2  0
 15 13  1  0
 16 15  1  0
 16 17  1  1
 17 18  1  0
 19 16  1  0
 20 19  2  0
 22 21  1  0
 23 22  1  6
 23 24  1  0
 24 19  1  0
 25 27  1  0
 25 23  1  0
 26 25  2  0
M  END
$$$$
