QEL.pdb
     RDKit          3D

 27 26  0  0  1  0  0  0  0  0999 V2000
    7.6170  -12.0169   19.6740 N   0  0  0  0  0  0  0  0  0  0  0  0
    8.0350  -12.7634   18.5462 C   0  0  0  0  0  0  0  0  0  0  0  0
    8.1999  -12.1825   17.4496 O   0  0  0  0  0  0  0  0  0  0  0  0
    8.2824  -14.2218   18.6348 C   0  0  0  0  0  0  0  0  0  0  0  0
    8.0716  -14.6964   20.0302 C   0  0  0  0  0  0  0  0  0  0  0  0
    8.2668  -16.1823   20.2308 C   0  0  2  0  0  0  0  0  0  0  0  0
    7.0834  -16.8209   19.6984 N   0  0  0  0  0  0  0  0  0  0  0  0
    8.4788  -16.5477   21.6494 C   0  0  0  0  0  0  0  0  0  0  0  0
    7.4992  -16.8538   22.3857 O   0  0  0  0  0  0  0  0  0  0  0  0
    9.7607  -16.5820   22.2763 N   0  0  0  0  0  0  0  0  0  0  0  0
    9.8970  -16.9434   23.6343 C   0  0  1  0  0  0  0  0  0  0  0  0
   11.0019  -17.9312   23.8876 C   0  0  0  0  0  0  0  0  0  0  0  0
   10.9473  -19.1665   23.0589 C   0  0  0  0  0  0  0  0  0  0  0  0
   11.9951  -20.1627   23.2886 C   0  0  0  0  0  0  0  0  0  0  0  0
   12.1849  -20.7749   24.3780 O   0  0  0  0  0  0  0  0  0  0  0  0
   10.1029  -15.7945   24.5497 C   0  0  0  0  0  0  0  0  0  0  0  0
   11.0207  -14.9514   24.3996 O   0  0  0  0  0  0  0  0  0  0  0  0
   12.9044  -20.5257   22.2697 O   0  0  0  0  0  0  0  0  0  0  0  0
    5.8970  -13.1066   26.5977 C   0  0  0  0  0  0  0  0  0  0  0  0
    7.2994  -13.3306   25.9442 C   0  0  1  0  0  0  0  0  0  0  0  0
    7.7706  -11.9662   25.5973 C   0  0  0  0  0  0  0  0  0  0  0  0
    8.0459  -14.1169   26.9300 C   0  0  0  0  0  0  0  0  0  0  0  0
    9.4107  -14.6093   26.6689 C   0  0  2  0  0  0  0  0  0  0  0  0
    9.2075  -15.6686   25.6325 N   0  0  0  0  0  0  0  0  0  0  0  0
   10.0015  -15.3317   27.7906 C   0  0  0  0  0  0  0  0  0  0  0  0
   10.4805  -14.7162   28.7719 O   0  0  0  0  0  0  0  0  0  0  0  0
   10.0562  -16.7008   27.8278 O   0  0  0  0  0  0  0  0  0  0  0  0
  2  3  2  0
  2  1  1  0
  4  2  1  0
  5  4  1  0
  6  8  1  0
  6  5  1  0
  6  7  1  1
  8  9  2  0
 10 11  1  0
 10  8  1  0
 11 12  1  6
 12 13  1  0
 13 14  1  0
 14 18  1  0
 15 14  2  0
 16 11  1  0
 17 16  2  0
 20 19  1  1
 20 22  1  0
 21 20  1  0
 23 22  1  1
 23 24  1  0
 24 16  1  0
 25 23  1  0
 25 27  1  0
 26 25  2  0
M  END
$$$$
