QEL.pdb
     RDKit          3D

 27 26  0  0  1  0  0  0  0  0999 V2000
   13.2232  -13.1000   18.5942 N   0  0  0  0  0  0  0  0  0  0  0  0
   13.4030  -14.2876   17.8451 C   0  0  0  0  0  0  0  0  0  0  0  0
   14.2686  -14.3207   16.9412 O   0  0  0  0  0  0  0  0  0  0  0  0
   12.5871  -15.4964   18.1076 C   0  0  0  0  0  0  0  0  0  0  0  0
   11.6969  -15.2726   19.2799 C   0  0  0  0  0  0  0  0  0  0  0  0
   12.0488  -16.0830   20.5070 C   0  0  2  0  0  0  0  0  0  0  0  0
   12.3719  -17.4114   20.0352 N   0  0  0  0  0  0  0  0  0  0  0  0
   10.9549  -16.1213   21.5035 C   0  0  0  0  0  0  0  0  0  0  0  0
   10.3580  -15.0606   21.8410 O   0  0  0  0  0  0  0  0  0  0  0  0
   10.5036  -17.3166   22.1400 N   0  0  0  0  0  0  0  0  0  0  0  0
    9.4542  -17.2865   23.0839 C   0  0  1  0  0  0  0  0  0  0  0  0
    8.9827  -18.6506   23.5055 C   0  0  0  0  0  0  0  0  0  0  0  0
    8.5953  -19.5577   22.3907 C   0  0  0  0  0  0  0  0  0  0  0  0
    8.1942  -20.9177   22.7548 C   0  0  0  0  0  0  0  0  0  0  0  0
    8.2154  -21.3886   23.9276 O   0  0  0  0  0  0  0  0  0  0  0  0
    9.7672  -16.5193   24.3143 C   0  0  0  0  0  0  0  0  0  0  0  0
   10.9210  -16.4439   24.8030 O   0  0  0  0  0  0  0  0  0  0  0  0
    7.7363  -21.8368   21.7842 O   0  0  0  0  0  0  0  0  0  0  0  0
    6.3172  -12.2754   25.7883 C   0  0  0  0  0  0  0  0  0  0  0  0
    7.7289  -12.8746   25.4850 C   0  0  1  0  0  0  0  0  0  0  0  0
    8.6787  -11.7953   25.8550 C   0  0  0  0  0  0  0  0  0  0  0  0
    7.7602  -14.1402   26.2232 C   0  0  0  0  0  0  0  0  0  0  0  0
    8.9247  -15.0432   26.1815 C   0  0  2  0  0  0  0  0  0  0  0  0
    8.6959  -15.8513   24.9436 N   0  0  0  0  0  0  0  0  0  0  0  0
    8.9367  -16.0395   27.2475 C   0  0  0  0  0  0  0  0  0  0  0  0
    8.2782  -17.1010   27.1437 O   0  0  0  0  0  0  0  0  0  0  0  0
    9.6632  -15.8677   28.3971 O   0  0  0  0  0  0  0  0  0  0  0  0
  2  3  2  0
  2  1  1  0
  4  2  1  0
  5  4  1  0
  6  8  1  0
  6  5  1  0
  6  7  1  6
  8  9  2  0
 10 11  1  0
 10  8  1  0
 11 12  1  1
 12 13  1  0
 13 14  1  0
 14 18  1  0
 15 14  2  0
 16 11  1  0
 17 16  2  0
 20 19  1  1
 20 22  1  0
 21 20  1  0
 23 22  1  1
 23 24  1  0
 24 16  1  0
 25 23  1  0
 25 27  1  0
 26 25  2  0
M  END
$$$$
