QEL.pdb
     RDKit          3D

 27 26  0  0  1  0  0  0  0  0999 V2000
    7.8649  -12.4398   17.2024 N   0  0  0  0  0  0  0  0  0  0  0  0
    7.8093  -13.7121   16.5845 C   0  0  0  0  0  0  0  0  0  0  0  0
    7.7922  -13.7900   15.3351 O   0  0  0  0  0  0  0  0  0  0  0  0
    7.7707  -14.9580   17.3858 C   0  0  0  0  0  0  0  0  0  0  0  0
    7.5023  -14.6427   18.8160 C   0  0  0  0  0  0  0  0  0  0  0  0
    8.7376  -14.4116   19.6568 C   0  0  2  0  0  0  0  0  0  0  0  0
    9.8644  -14.7874   18.8317 N   0  0  0  0  0  0  0  0  0  0  0  0
    8.7229  -15.1788   20.9226 C   0  0  0  0  0  0  0  0  0  0  0  0
    7.7386  -15.0974   21.7100 O   0  0  0  0  0  0  0  0  0  0  0  0
    9.7815  -16.0405   21.3399 N   0  0  0  0  0  0  0  0  0  0  0  0
    9.7973  -16.5981   22.6368 C   0  0  1  0  0  0  0  0  0  0  0  0
   10.9186  -17.5748   22.8599 C   0  0  0  0  0  0  0  0  0  0  0  0
   10.9645  -18.7135   21.9023 C   0  0  0  0  0  0  0  0  0  0  0  0
   12.0631  -19.6677   22.0631 C   0  0  0  0  0  0  0  0  0  0  0  0
   11.9495  -20.9233   21.9736 O   0  0  0  0  0  0  0  0  0  0  0  0
    9.8521  -15.5945   23.7278 C   0  0  0  0  0  0  0  0  0  0  0  0
   10.2563  -14.4179   23.5603 O   0  0  0  0  0  0  0  0  0  0  0  0
   13.3800  -19.2370   22.3400 O   0  0  0  0  0  0  0  0  0  0  0  0
    8.1827  -12.1975   26.7368 C   0  0  0  0  0  0  0  0  0  0  0  0
    7.1987  -13.3793   26.4558 C   0  0  1  0  0  0  0  0  0  0  0  0
    5.9781  -12.7275   25.9180 C   0  0  0  0  0  0  0  0  0  0  0  0
    7.9567  -14.2966   25.6004 C   0  0  0  0  0  0  0  0  0  0  0  0
    9.1540  -15.0088   26.0825 C   0  0  2  0  0  0  0  0  0  0  0  0
    9.4216  -16.0112   25.0049 N   0  0  0  0  0  0  0  0  0  0  0  0
    8.9158  -15.8286   27.2659 C   0  0  0  0  0  0  0  0  0  0  0  0
    9.2627  -15.4326   28.4035 O   0  0  0  0  0  0  0  0  0  0  0  0
    8.3044  -17.0533   27.1929 O   0  0  0  0  0  0  0  0  0  0  0  0
  2  3  2  0
  2  1  1  0
  4  2  1  0
  5  4  1  0
  6  8  1  0
  6  5  1  0
  6  7  1  6
  8  9  2  0
 10 11  1  0
 10  8  1  0
 11 12  1  6
 12 13  1  0
 13 14  1  0
 14 18  1  0
 15 14  2  0
 16 11  1  0
 17 16  2  0
 20 19  1  6
 20 22  1  0
 21 20  1  0
 23 22  1  6
 23 24  1  0
 24 16  1  0
 25 23  1  0
 25 27  1  0
 26 25  2  0
M  END
$$$$
