QEL.pdb
     RDKit          3D

 27 26  0  0  1  0  0  0  0  0999 V2000
    7.5165  -12.9557   18.6393 N   0  0  0  0  0  0  0  0  0  0  0  0
    8.1257  -12.9707   19.9170 C   0  0  0  0  0  0  0  0  0  0  0  0
    8.7423  -11.9574   20.3174 O   0  0  0  0  0  0  0  0  0  0  0  0
    8.0497  -14.1627   20.7941 C   0  0  0  0  0  0  0  0  0  0  0  0
    7.2474  -15.2331   20.1405 C   0  0  0  0  0  0  0  0  0  0  0  0
    7.0572  -16.4808   20.9731 C   0  0  2  0  0  0  0  0  0  0  0  0
    5.7210  -16.4016   21.5207 N   0  0  0  0  0  0  0  0  0  0  0  0
    8.0676  -16.6149   22.0465 C   0  0  0  0  0  0  0  0  0  0  0  0
    7.7375  -17.0452   23.1872 O   0  0  0  0  0  0  0  0  0  0  0  0
    9.4458  -16.2806   21.8844 N   0  0  0  0  0  0  0  0  0  0  0  0
   10.4116  -16.7003   22.8247 C   0  0  1  0  0  0  0  0  0  0  0  0
   11.8247  -16.3826   22.4207 C   0  0  0  0  0  0  0  0  0  0  0  0
   12.8744  -16.8736   23.3550 C   0  0  0  0  0  0  0  0  0  0  0  0
   14.2622  -16.5535   23.0161 C   0  0  0  0  0  0  0  0  0  0  0  0
   15.0241  -15.8181   23.7061 O   0  0  0  0  0  0  0  0  0  0  0  0
   10.2028  -16.1607   24.1905 C   0  0  0  0  0  0  0  0  0  0  0  0
   10.9307  -16.4619   25.1679 O   0  0  0  0  0  0  0  0  0  0  0  0
   14.8732  -17.0635   21.8486 O   0  0  0  0  0  0  0  0  0  0  0  0
    7.8958  -11.9155   26.8909 C   0  0  0  0  0  0  0  0  0  0  0  0
    6.9731  -13.1363   26.5712 C   0  0  1  0  0  0  0  0  0  0  0  0
    5.6363  -12.5386   26.3266 C   0  0  0  0  0  0  0  0  0  0  0  0
    7.6537  -13.8391   25.4802 C   0  0  0  0  0  0  0  0  0  0  0  0
    8.8736  -14.6364   25.7022 C   0  0  2  0  0  0  0  0  0  0  0  0
    9.1263  -15.2667   24.3693 N   0  0  0  0  0  0  0  0  0  0  0  0
    8.6792  -15.7761   26.5923 C   0  0  0  0  0  0  0  0  0  0  0  0
    9.3004  -15.8580   27.6780 O   0  0  0  0  0  0  0  0  0  0  0  0
    7.8152  -16.7968   26.2912 O   0  0  0  0  0  0  0  0  0  0  0  0
  2  3  2  0
  2  1  1  0
  4  2  1  0
  5  4  1  0
  6  8  1  0
  6  5  1  0
  6  7  1  1
  8  9  2  0
 10 11  1  0
 10  8  1  0
 11 12  1  6
 12 13  1  0
 13 14  1  0
 14 18  1  0
 15 14  2  0
 16 11  1  0
 17 16  2  0
 20 19  1  6
 20 22  1  0
 21 20  1  0
 23 22  1  6
 23 24  1  0
 24 16  1  0
 25 23  1  0
 25 27  1  0
 26 25  2  0
M  END
$$$$
