QEL.pdb
     RDKit          3D

 27 26  0  0  1  0  0  0  0  0999 V2000
    5.6218  -22.3793   22.8793 N   0  0  0  0  0  0  0  0  0  0  0  0
    4.5027  -21.7174   22.3195 C   0  0  0  0  0  0  0  0  0  0  0  0
    3.7482  -22.3378   21.5365 O   0  0  0  0  0  0  0  0  0  0  0  0
    4.2034  -20.3021   22.6405 C   0  0  0  0  0  0  0  0  0  0  0  0
    5.2654  -19.7368   23.5176 C   0  0  0  0  0  0  0  0  0  0  0  0
    5.6271  -18.2975   23.2284 C   0  0  2  0  0  0  0  0  0  0  0  0
    5.5985  -18.1548   21.7895 N   0  0  0  0  0  0  0  0  0  0  0  0
    6.9477  -17.9154   23.7771 C   0  0  0  0  0  0  0  0  0  0  0  0
    7.1691  -17.9809   25.0189 O   0  0  0  0  0  0  0  0  0  0  0  0
    8.0372  -17.4586   22.9759 N   0  0  0  0  0  0  0  0  0  0  0  0
    9.2504  -17.0431   23.5665 C   0  0  1  0  0  0  0  0  0  0  0  0
   10.3651  -16.8425   22.5774 C   0  0  0  0  0  0  0  0  0  0  0  0
   11.6664  -16.4261   23.1681 C   0  0  0  0  0  0  0  0  0  0  0  0
   12.7772  -16.2172   22.2377 C   0  0  0  0  0  0  0  0  0  0  0  0
   12.7103  -16.3713   20.9850 O   0  0  0  0  0  0  0  0  0  0  0  0
    9.1384  -15.8042   24.3744 C   0  0  0  0  0  0  0  0  0  0  0  0
    8.9005  -14.6770   23.8758 O   0  0  0  0  0  0  0  0  0  0  0  0
   14.0529  -15.8123   22.6906 O   0  0  0  0  0  0  0  0  0  0  0  0
    5.6116  -13.5543   26.4401 C   0  0  0  0  0  0  0  0  0  0  0  0
    7.0850  -13.5380   25.9179 C   0  0  1  0  0  0  0  0  0  0  0  0
    7.4691  -12.1041   25.9321 C   0  0  0  0  0  0  0  0  0  0  0  0
    7.7964  -14.4785   26.7879 C   0  0  0  0  0  0  0  0  0  0  0  0
    9.2434  -14.7273   26.6558 C   0  0  2  0  0  0  0  0  0  0  0  0
    9.3116  -15.9299   25.7688 N   0  0  0  0  0  0  0  0  0  0  0  0
    9.8804  -15.1721   27.8909 C   0  0  0  0  0  0  0  0  0  0  0  0
   10.3202  -14.3438   28.7226 O   0  0  0  0  0  0  0  0  0  0  0  0
   10.0222  -16.4999   28.2004 O   0  0  0  0  0  0  0  0  0  0  0  0
  2  3  2  0
  2  1  1  0
  4  2  1  0
  5  4  1  0
  6  8  1  0
  6  5  1  0
  6  7  1  6
  8  9  2  0
 10 11  1  0
 10  8  1  0
 11 12  1  6
 12 13  1  0
 13 14  1  0
 14 18  1  0
 15 14  2  0
 16 11  1  0
 17 16  2  0
 20 19  1  1
 20 22  1  0
 21 20  1  0
 23 22  1  1
 23 24  1  0
 24 16  1  0
 25 23  1  0
 25 27  1  0
 26 25  2  0
M  END
$$$$
