QEL.pdb
     RDKit          3D

 27 26  0  0  1  0  0  0  0  0999 V2000
    8.1880  -12.0066   19.0157 N   0  0  0  0  0  0  0  0  0  0  0  0
    7.9875  -13.0863   18.1223 C   0  0  0  0  0  0  0  0  0  0  0  0
    7.2440  -12.9322   17.1269 O   0  0  0  0  0  0  0  0  0  0  0  0
    8.6399  -14.3989   18.3396 C   0  0  0  0  0  0  0  0  0  0  0  0
    8.2546  -14.9524   19.6670 C   0  0  0  0  0  0  0  0  0  0  0  0
    8.8987  -16.2758   20.0133 C   0  0  2  0  0  0  0  0  0  0  0  0
    8.1901  -17.2814   19.2528 N   0  0  0  0  0  0  0  0  0  0  0  0
    8.8566  -16.5737   21.4625 C   0  0  0  0  0  0  0  0  0  0  0  0
    7.7771  -16.9314   22.0123 O   0  0  0  0  0  0  0  0  0  0  0  0
    9.9912  -16.4835   22.3239 N   0  0  0  0  0  0  0  0  0  0  0  0
    9.9035  -16.8527   23.6837 C   0  0  1  0  0  0  0  0  0  0  0  0
   10.8925  -17.9113   24.0864 C   0  0  0  0  0  0  0  0  0  0  0  0
   10.7788  -18.3792   25.4949 C   0  0  0  0  0  0  0  0  0  0  0  0
   11.7245  -19.4098   25.9268 C   0  0  0  0  0  0  0  0  0  0  0  0
   12.1318  -20.3654   25.2068 O   0  0  0  0  0  0  0  0  0  0  0  0
   10.0479  -15.7197   24.6302 C   0  0  0  0  0  0  0  0  0  0  0  0
   11.0077  -14.9115   24.5942 O   0  0  0  0  0  0  0  0  0  0  0  0
   12.2714  -19.4101   27.2297 O   0  0  0  0  0  0  0  0  0  0  0  0
    5.9872  -12.4568   25.9852 C   0  0  0  0  0  0  0  0  0  0  0  0
    7.4517  -12.8646   25.6206 C   0  0  1  0  0  0  0  0  0  0  0  0
    8.1937  -11.5798   25.5679 C   0  0  0  0  0  0  0  0  0  0  0  0
    7.8197  -13.8632   26.6280 C   0  0  0  0  0  0  0  0  0  0  0  0
    9.1485  -14.5011   26.6504 C   0  0  2  0  0  0  0  0  0  0  0  0
    9.0416  -15.5677   25.6071 N   0  0  0  0  0  0  0  0  0  0  0  0
    9.4259  -15.2428   27.8760 C   0  0  0  0  0  0  0  0  0  0  0  0
    9.1887  -16.4713   27.9524 O   0  0  0  0  0  0  0  0  0  0  0  0
    9.9573  -14.6413   28.9872 O   0  0  0  0  0  0  0  0  0  0  0  0
  2  3  2  0
  2  1  1  0
  4  2  1  0
  5  4  1  0
  6  8  1  0
  6  5  1  0
  6  7  1  6
  8  9  2  0
 10 11  1  0
 10  8  1  0
 11 12  1  1
 12 13  1  0
 13 14  1  0
 14 18  1  0
 15 14  2  0
 16 11  1  0
 17 16  2  0
 20 19  1  1
 20 22  1  0
 21 20  1  0
 23 22  1  1
 23 24  1  0
 24 16  1  0
 25 23  1  0
 25 27  1  0
 26 25  2  0
M  END
$$$$
