QEL.pdb
     RDKit          3D

 27 26  0  0  1  0  0  0  0  0999 V2000
    8.2430  -12.3553   18.1098 N   0  0  0  0  0  0  0  0  0  0  0  0
    7.9601  -13.2646   17.0623 C   0  0  0  0  0  0  0  0  0  0  0  0
    8.3412  -13.0021   15.8991 O   0  0  0  0  0  0  0  0  0  0  0  0
    7.2206  -14.5240   17.3126 C   0  0  0  0  0  0  0  0  0  0  0  0
    7.1547  -14.8012   18.7740 C   0  0  0  0  0  0  0  0  0  0  0  0
    8.4797  -14.7107   19.4969 C   0  0  2  0  0  0  0  0  0  0  0  0
    9.4593  -15.3172   18.6227 N   0  0  0  0  0  0  0  0  0  0  0  0
    8.4594  -15.3754   20.8193 C   0  0  0  0  0  0  0  0  0  0  0  0
    7.5053  -15.1754   21.6225 O   0  0  0  0  0  0  0  0  0  0  0  0
    9.4794  -16.2631   21.2763 N   0  0  0  0  0  0  0  0  0  0  0  0
    9.4566  -16.7837   22.5884 C   0  0  1  0  0  0  0  0  0  0  0  0
   10.4374  -17.9014   22.8111 C   0  0  0  0  0  0  0  0  0  0  0  0
   10.3375  -19.0311   21.8470 C   0  0  0  0  0  0  0  0  0  0  0  0
   11.2904  -20.1296   22.0158 C   0  0  0  0  0  0  0  0  0  0  0  0
   11.3588  -21.1487   21.2713 O   0  0  0  0  0  0  0  0  0  0  0  0
    9.6831  -15.7697   23.6471 C   0  0  0  0  0  0  0  0  0  0  0  0
   10.6506  -14.9699   23.6377 O   0  0  0  0  0  0  0  0  0  0  0  0
   12.2388  -20.1294   23.0632 O   0  0  0  0  0  0  0  0  0  0  0  0
    8.2116  -11.6299   26.0931 C   0  0  0  0  0  0  0  0  0  0  0  0
    7.3061  -12.8128   26.5673 C   0  0  1  0  0  0  0  0  0  0  0  0
    5.9315  -12.2519   26.5687 C   0  0  0  0  0  0  0  0  0  0  0  0
    7.6291  -13.9144   25.6565 C   0  0  0  0  0  0  0  0  0  0  0  0
    8.8707  -14.6987   25.7844 C   0  0  2  0  0  0  0  0  0  0  0  0
    8.7486  -15.7249   24.7029 N   0  0  0  0  0  0  0  0  0  0  0  0
    8.9437  -15.4919   27.0070 C   0  0  0  0  0  0  0  0  0  0  0  0
    8.3075  -16.5664   27.1159 O   0  0  0  0  0  0  0  0  0  0  0  0
    9.7058  -15.1084   28.0799 O   0  0  0  0  0  0  0  0  0  0  0  0
  2  3  2  0
  2  1  1  0
  4  2  1  0
  5  4  1  0
  6  8  1  0
  6  5  1  0
  6  7  1  6
  8  9  2  0
 10 11  1  0
 10  8  1  0
 11 12  1  6
 12 13  1  0
 13 14  1  0
 14 18  1  0
 15 14  2  0
 16 11  1  0
 17 16  2  0
 20 19  1  6
 20 22  1  0
 21 20  1  0
 23 22  1  1
 23 24  1  0
 24 16  1  0
 25 23  1  0
 25 27  1  0
 26 25  2  0
M  END
$$$$
