QEL.pdb
     RDKit          3D

 27 26  0  0  1  0  0  0  0  0999 V2000
    9.6122  -12.1706   19.0006 N   0  0  0  0  0  0  0  0  0  0  0  0
    8.4331  -12.4647   19.7267 C   0  0  0  0  0  0  0  0  0  0  0  0
    7.7177  -11.5268   20.1459 O   0  0  0  0  0  0  0  0  0  0  0  0
    8.0255  -13.8624   20.0026 C   0  0  0  0  0  0  0  0  0  0  0  0
    9.0382  -14.8108   19.4625 C   0  0  0  0  0  0  0  0  0  0  0  0
    8.8044  -16.2607   19.8223 C   0  0  2  0  0  0  0  0  0  0  0  0
    7.6326  -16.6766   19.0838 N   0  0  0  0  0  0  0  0  0  0  0  0
    8.6218  -16.4697   21.2762 C   0  0  0  0  0  0  0  0  0  0  0  0
    7.4629  -16.5641   21.7696 O   0  0  0  0  0  0  0  0  0  0  0  0
    9.7015  -16.5771   22.2037 N   0  0  0  0  0  0  0  0  0  0  0  0
    9.4679  -16.9014   23.5577 C   0  0  1  0  0  0  0  0  0  0  0  0
   10.2187  -18.1175   24.0249 C   0  0  0  0  0  0  0  0  0  0  0  0
   11.6959  -18.0524   23.8537 C   0  0  0  0  0  0  0  0  0  0  0  0
   12.4539  -19.2579   24.1934 C   0  0  0  0  0  0  0  0  0  0  0  0
   13.7132  -19.3565   24.1509 O   0  0  0  0  0  0  0  0  0  0  0  0
    9.7643  -15.7991   24.5051 C   0  0  0  0  0  0  0  0  0  0  0  0
   10.7148  -14.9942   24.3482 O   0  0  0  0  0  0  0  0  0  0  0  0
   11.8072  -20.4433   24.6096 O   0  0  0  0  0  0  0  0  0  0  0  0
    5.6274  -13.1166   26.7077 C   0  0  0  0  0  0  0  0  0  0  0  0
    7.0038  -13.3321   25.9984 C   0  0  1  0  0  0  0  0  0  0  0  0
    7.4549  -11.9644   25.6378 C   0  0  0  0  0  0  0  0  0  0  0  0
    7.7922  -14.1181   26.9513 C   0  0  0  0  0  0  0  0  0  0  0  0
    9.1515  -14.5953   26.6383 C   0  0  2  0  0  0  0  0  0  0  0  0
    8.9191  -15.6733   25.6275 N   0  0  0  0  0  0  0  0  0  0  0  0
    9.8009  -15.2920   27.7437 C   0  0  0  0  0  0  0  0  0  0  0  0
    9.7739  -16.5429   27.8206 O   0  0  0  0  0  0  0  0  0  0  0  0
   10.4680  -14.6218   28.7360 O   0  0  0  0  0  0  0  0  0  0  0  0
  2  3  2  0
  2  1  1  0
  4  2  1  0
  5  4  1  0
  6  8  1  0
  6  5  1  0
  6  7  1  6
  8  9  2  0
 10 11  1  0
 10  8  1  0
 11 12  1  1
 12 13  1  0
 13 14  1  0
 14 18  1  0
 15 14  2  0
 16 11  1  0
 17 16  2  0
 20 19  1  1
 20 22  1  0
 21 20  1  0
 23 22  1  1
 23 24  1  0
 24 16  1  0
 25 23  1  0
 25 27  1  0
 26 25  2  0
M  END
$$$$
