QEL.pdb
     RDKit          3D

 27 26  0  0  1  0  0  0  0  0999 V2000
    7.4212  -12.2994   18.8832 N   0  0  0  0  0  0  0  0  0  0  0  0
    8.6587  -12.9072   19.2041 C   0  0  0  0  0  0  0  0  0  0  0  0
    9.7176  -12.2508   19.0811 O   0  0  0  0  0  0  0  0  0  0  0  0
    8.7291  -14.3074   19.6839 C   0  0  0  0  0  0  0  0  0  0  0  0
    7.3584  -14.8625   19.8567 C   0  0  0  0  0  0  0  0  0  0  0  0
    7.3107  -16.3091   20.2941 C   0  0  2  0  0  0  0  0  0  0  0  0
    5.9337  -16.7286   20.1539 N   0  0  0  0  0  0  0  0  0  0  0  0
    7.7910  -16.5065   21.6801 C   0  0  0  0  0  0  0  0  0  0  0  0
    7.0373  -16.2536   22.6617 O   0  0  0  0  0  0  0  0  0  0  0  0
    9.0970  -16.9810   22.0068 N   0  0  0  0  0  0  0  0  0  0  0  0
    9.4942  -17.1508   23.3509 C   0  0  1  0  0  0  0  0  0  0  0  0
   10.6702  -18.0723   23.5205 C   0  0  0  0  0  0  0  0  0  0  0  0
   11.1116  -18.2811   24.9267 C   0  0  0  0  0  0  0  0  0  0  0  0
   12.2292  -19.2027   25.1381 C   0  0  0  0  0  0  0  0  0  0  0  0
   13.3202  -18.8999   25.6998 O   0  0  0  0  0  0  0  0  0  0  0  0
    9.8114  -15.8838   24.0541 C   0  0  0  0  0  0  0  0  0  0  0  0
   10.4899  -14.9621   23.5385 O   0  0  0  0  0  0  0  0  0  0  0  0
   12.1661  -20.5489   24.7134 O   0  0  0  0  0  0  0  0  0  0  0  0
    7.1842  -12.8005   27.7064 C   0  0  0  0  0  0  0  0  0  0  0  0
    7.2418  -13.7771   26.4871 C   0  0  1  0  0  0  0  0  0  0  0  0
    6.0579  -13.4181   25.6664 C   0  0  0  0  0  0  0  0  0  0  0  0
    8.5835  -13.5920   25.9277 C   0  0  0  0  0  0  0  0  0  0  0  0
    9.6796  -14.5425   26.1892 C   0  0  2  0  0  0  0  0  0  0  0  0
    9.3118  -15.7354   25.3650 N   0  0  0  0  0  0  0  0  0  0  0  0
    9.6998  -15.0581   27.5541 C   0  0  0  0  0  0  0  0  0  0  0  0
    9.2922  -16.2154   27.8108 O   0  0  0  0  0  0  0  0  0  0  0  0
   10.1643  -14.3140   28.6074 O   0  0  0  0  0  0  0  0  0  0  0  0
  2  3  2  0
  2  1  1  0
  4  2  1  0
  5  4  1  0
  6  8  1  0
  6  5  1  0
  6  7  1  1
  8  9  2  0
 10 11  1  0
 10  8  1  0
 11 12  1  6
 12 13  1  0
 13 14  1  0
 14 18  1  0
 15 14  2  0
 16 11  1  0
 17 16  2  0
 20 19  1  1
 20 22  1  0
 21 20  1  0
 23 22  1  1
 23 24  1  0
 24 16  1  0
 25 23  1  0
 25 27  1  0
 26 25  2  0
M  END
$$$$
