QEL.pdb
     RDKit          3D

 27 26  0  0  1  0  0  0  0  0999 V2000
    7.9229  -11.9789   19.2917 N   0  0  0  0  0  0  0  0  0  0  0  0
    7.9563  -13.0444   18.3603 C   0  0  0  0  0  0  0  0  0  0  0  0
    7.2857  -12.9626   17.3063 O   0  0  0  0  0  0  0  0  0  0  0  0
    8.7699  -14.2584   18.6057 C   0  0  0  0  0  0  0  0  0  0  0  0
    8.3639  -14.9007   19.8860 C   0  0  0  0  0  0  0  0  0  0  0  0
    9.0610  -16.2079   20.1886 C   0  0  2  0  0  0  0  0  0  0  0  0
    8.4177  -17.2089   19.3666 N   0  0  0  0  0  0  0  0  0  0  0  0
    9.0000  -16.5735   21.6216 C   0  0  0  0  0  0  0  0  0  0  0  0
    7.9696  -17.1269   22.0986 O   0  0  0  0  0  0  0  0  0  0  0  0
   10.0620  -16.3382   22.5459 N   0  0  0  0  0  0  0  0  0  0  0  0
    9.9285  -16.6790   23.9094 C   0  0  1  0  0  0  0  0  0  0  0  0
   10.8993  -17.7328   24.3656 C   0  0  0  0  0  0  0  0  0  0  0  0
   10.8755  -18.9965   23.5795 C   0  0  0  0  0  0  0  0  0  0  0  0
   12.0306  -19.8845   23.7216 C   0  0  0  0  0  0  0  0  0  0  0  0
   12.8767  -20.1219   22.8131 O   0  0  0  0  0  0  0  0  0  0  0  0
   10.0473  -15.5273   24.8367 C   0  0  0  0  0  0  0  0  0  0  0  0
   11.0330  -14.7501   24.8455 O   0  0  0  0  0  0  0  0  0  0  0  0
   12.2932  -20.5660   24.9312 O   0  0  0  0  0  0  0  0  0  0  0  0
    5.8603  -12.3768   25.9915 C   0  0  0  0  0  0  0  0  0  0  0  0
    7.3005  -12.8481   25.6074 C   0  0  1  0  0  0  0  0  0  0  0  0
    8.0149  -11.5999   25.2393 C   0  0  0  0  0  0  0  0  0  0  0  0
    7.7585  -13.6203   26.7655 C   0  0  0  0  0  0  0  0  0  0  0  0
    9.0818  -14.2690   26.8014 C   0  0  2  0  0  0  0  0  0  0  0  0
    8.9847  -15.3196   25.7410 N   0  0  0  0  0  0  0  0  0  0  0  0
    9.3324  -15.0305   28.0206 C   0  0  0  0  0  0  0  0  0  0  0  0
    9.1326  -16.2674   28.0593 O   0  0  0  0  0  0  0  0  0  0  0  0
    9.7974  -14.4391   29.1664 O   0  0  0  0  0  0  0  0  0  0  0  0
  2  3  2  0
  2  1  1  0
  4  2  1  0
  5  4  1  0
  6  8  1  0
  6  5  1  0
  6  7  1  6
  8  9  2  0
 10 11  1  0
 10  8  1  0
 11 12  1  1
 12 13  1  0
 13 14  1  0
 14 18  1  0
 15 14  2  0
 16 11  1  0
 17 16  2  0
 20 19  1  1
 20 22  1  0
 21 20  1  0
 23 22  1  1
 23 24  1  0
 24 16  1  0
 25 23  1  0
 25 27  1  0
 26 25  2  0
M  END
$$$$
