QEL.pdb
     RDKit          3D

 27 26  0  0  1  0  0  0  0  0999 V2000
    9.6976  -13.3134   18.5951 N   0  0  0  0  0  0  0  0  0  0  0  0
    8.3744  -13.0115   18.1928 C   0  0  0  0  0  0  0  0  0  0  0  0
    8.1655  -12.5805   17.0361 O   0  0  0  0  0  0  0  0  0  0  0  0
    7.2275  -13.1947   19.1129 C   0  0  0  0  0  0  0  0  0  0  0  0
    7.6853  -13.8029   20.3924 C   0  0  0  0  0  0  0  0  0  0  0  0
    7.9798  -15.2842   20.3207 C   0  0  2  0  0  0  0  0  0  0  0  0
    6.7653  -15.9157   19.8540 N   0  0  0  0  0  0  0  0  0  0  0  0
    8.4101  -15.8482   21.6197 C   0  0  0  0  0  0  0  0  0  0  0  0
    7.5578  -16.2903   22.4405 O   0  0  0  0  0  0  0  0  0  0  0  0
    9.7733  -15.9343   22.0343 N   0  0  0  0  0  0  0  0  0  0  0  0
   10.1384  -16.6618   23.1878 C   0  0  1  0  0  0  0  0  0  0  0  0
   11.4344  -17.4106   23.0437 C   0  0  0  0  0  0  0  0  0  0  0  0
   11.8498  -18.1908   24.2413 C   0  0  0  0  0  0  0  0  0  0  0  0
   13.0930  -18.9560   24.1324 C   0  0  0  0  0  0  0  0  0  0  0  0
   13.1602  -20.2082   23.9739 O   0  0  0  0  0  0  0  0  0  0  0  0
   10.2289  -15.8402   24.4195 C   0  0  0  0  0  0  0  0  0  0  0  0
   11.1130  -14.9677   24.6008 O   0  0  0  0  0  0  0  0  0  0  0  0
   14.3558  -18.3256   24.1986 O   0  0  0  0  0  0  0  0  0  0  0  0
    5.9409  -13.5041   26.5968 C   0  0  0  0  0  0  0  0  0  0  0  0
    7.4624  -13.5824   26.2463 C   0  0  1  0  0  0  0  0  0  0  0  0
    8.0196  -12.2889   26.7159 C   0  0  0  0  0  0  0  0  0  0  0  0
    7.9218  -14.8276   26.8675 C   0  0  0  0  0  0  0  0  0  0  0  0
    9.3026  -15.3193   26.7098 C   0  0  2  0  0  0  0  0  0  0  0  0
    9.2599  -16.0723   25.4180 N   0  0  0  0  0  0  0  0  0  0  0  0
    9.6830  -16.3326   27.6883 C   0  0  0  0  0  0  0  0  0  0  0  0
   10.0086  -16.0103   28.8551 O   0  0  0  0  0  0  0  0  0  0  0  0
    9.6976  -17.6693   27.3849 O   0  0  0  0  0  0  0  0  0  0  0  0
  2  3  2  0
  2  1  1  0
  4  2  1  0
  5  4  1  0
  6  8  1  0
  6  5  1  0
  6  7  1  1
  8  9  2  0
 10 11  1  0
 10  8  1  0
 11 12  1  6
 12 13  1  0
 13 14  1  0
 14 18  1  0
 15 14  2  0
 16 11  1  0
 17 16  2  0
 20 19  1  1
 20 22  1  0
 21 20  1  0
 23 22  1  1
 23 24  1  0
 24 16  1  0
 25 23  1  0
 25 27  1  0
 26 25  2  0
M  END
$$$$
