AYT.pdb
     RDKit          3D

 25 25  0  0  1  0  0  0  0  0999 V2000
   13.8594   -9.8049  -13.3263 C   0  0  0  0  0  0  0  0  0  0  0  0
   14.4815  -10.2853  -14.6138 C   0  0  2  0  0  0  0  0  0  0  0  0
   14.2306  -11.6810  -14.8334 N   0  0  0  0  0  0  0  0  0  0  0  0
   15.9107   -9.9380  -14.7276 C   0  0  0  0  0  0  0  0  0  0  0  0
   16.7308  -10.6873  -14.1148 O   0  0  0  0  0  0  0  0  0  0  0  0
   23.9344   -7.4902  -16.5929 O   0  0  0  0  0  0  0  0  0  0  0  0
   22.5550   -7.6929  -16.6557 C   0  0  0  0  0  0  0  0  0  0  0  0
   21.6910   -6.6630  -16.9987 C   0  0  0  0  0  0  0  0  0  0  0  0
   20.3314   -6.8633  -17.0605 C   0  0  0  0  0  0  0  0  0  0  0  0
   19.8457   -8.1160  -16.7724 C   0  0  0  0  0  0  0  0  0  0  0  0
   18.3837   -8.3324  -16.8384 C   0  0  0  0  0  0  0  0  0  0  0  0
   17.8089   -8.5174  -15.4555 C   0  0  2  0  0  0  0  0  0  0  0  0
   16.4165   -8.8424  -15.4631 N   0  0  0  0  0  0  0  0  0  0  0  0
   18.0763   -7.3334  -14.5980 C   0  0  0  0  0  0  0  0  0  0  0  0
   17.3343   -6.3173  -14.5975 O   0  0  0  0  0  0  0  0  0  0  0  0
   20.6901   -9.1651  -16.4259 C   0  0  0  0  0  0  0  0  0  0  0  0
   22.0557   -8.9483  -16.3680 C   0  0  0  0  0  0  0  0  0  0  0  0
   20.0514   -5.5151  -10.5969 C   0  0  0  0  0  0  0  0  0  0  0  0
   19.6019   -6.6918  -11.4283 C   0  0  1  0  0  0  0  0  0  0  0  0
   18.3963   -7.2132  -10.9791 O   0  0  0  0  0  0  0  0  0  0  0  0
   19.4642   -6.2333  -12.8702 C   0  0  2  0  0  0  0  0  0  0  0  0
   19.2175   -7.3548  -13.7458 N   0  0  0  0  0  0  0  0  0  0  0  0
   20.6689   -5.5285  -13.3398 C   0  0  0  0  0  0  0  0  0  0  0  0
   21.8571   -6.1917  -13.5656 O   0  0  0  0  0  0  0  0  0  0  0  0
   20.6722   -4.2786  -13.5592 O   0  0  0  0  0  0  0  0  0  0  0  0
  2  1  1  1
  3  2  1  0
  4  5  2  0
  4  2  1  0
  6  7  1  0
  7  8  2  0
  8  9  1  0
 10  9  2  0
 10 11  1  0
 12 11  1  6
 12 13  1  0
 13  4  1  0
 14 22  1  0
 14 12  1  0
 15 14  2  0
 16 10  1  0
 17  7  1  0
 17 16  2  0
 19 21  1  0
 19 18  1  1
 20 19  1  0
 21 22  1  6
 21 23  1  0
 23 24  1  0
 25 23  2  0
M  END
$$$$
