AYT.pdb
     RDKit          3D

 25 25  0  0  1  0  0  0  0  0999 V2000
   17.0739   -1.9048  -14.6476 C   0  0  0  0  0  0  0  0  0  0  0  0
   18.1283   -1.1325  -15.4007 C   0  0  2  0  0  0  0  0  0  0  0  0
   18.9868   -2.0038  -16.1510 N   0  0  0  0  0  0  0  0  0  0  0  0
   18.8769   -0.1939  -14.5436 C   0  0  0  0  0  0  0  0  0  0  0  0
   18.1979    0.6848  -13.9300 O   0  0  0  0  0  0  0  0  0  0  0  0
   17.8376   -1.8362   -8.5725 O   0  0  0  0  0  0  0  0  0  0  0  0
   18.7750   -1.3764   -9.4984 C   0  0  0  0  0  0  0  0  0  0  0  0
   19.3156   -0.1022   -9.4033 C   0  0  0  0  0  0  0  0  0  0  0  0
   20.2396    0.3507  -10.3162 C   0  0  0  0  0  0  0  0  0  0  0  0
   20.6174   -0.4945  -11.3318 C   0  0  0  0  0  0  0  0  0  0  0  0
   21.6109   -0.0084  -12.3142 C   0  0  0  0  0  0  0  0  0  0  0  0
   20.9270    0.6904  -13.4634 C   0  0  2  0  0  0  0  0  0  0  0  0
   20.2787   -0.2104  -14.3649 N   0  0  0  0  0  0  0  0  0  0  0  0
   21.8677    1.5850  -14.1868 C   0  0  0  0  0  0  0  0  0  0  0  0
   22.3738    1.2786  -15.2971 O   0  0  0  0  0  0  0  0  0  0  0  0
   20.0907   -1.7761  -11.4497 C   0  0  0  0  0  0  0  0  0  0  0  0
   19.1620   -2.2175  -10.5236 C   0  0  0  0  0  0  0  0  0  0  0  0
   23.7764    6.0798  -14.6192 C   0  0  0  0  0  0  0  0  0  0  0  0
   22.8623    5.1759  -13.8285 C   0  0  1  0  0  0  0  0  0  0  0  0
   21.5306    5.5466  -13.9554 O   0  0  0  0  0  0  0  0  0  0  0  0
   23.0541    3.7520  -14.3226 C   0  0  2  0  0  0  0  0  0  0  0  0
   22.2061    2.8364  -13.5962 N   0  0  0  0  0  0  0  0  0  0  0  0
   24.4510    3.3064  -14.1847 C   0  0  0  0  0  0  0  0  0  0  0  0
   25.3221    3.3047  -15.2543 O   0  0  0  0  0  0  0  0  0  0  0  0
   24.9201    2.9030  -13.0767 O   0  0  0  0  0  0  0  0  0  0  0  0
  2  1  1  1
  3  2  1  0
  4  5  2  0
  4  2  1  0
  6  7  1  0
  7  8  2  0
  8  9  1  0
 10  9  2  0
 10 11  1  0
 12 11  1  1
 12 13  1  0
 13  4  1  0
 14 22  1  0
 14 12  1  0
 15 14  2  0
 16 10  1  0
 17  7  1  0
 17 16  2  0
 19 21  1  0
 19 18  1  6
 20 19  1  0
 21 22  1  1
 21 23  1  0
 23 24  1  0
 25 23  2  0
M  END
$$$$
