AYT.pdb
     RDKit          3D

 25 25  0  0  1  0  0  0  0  0999 V2000
   29.3576  -19.7157  -12.9089 C   0  0  0  0  0  0  0  0  0  0  0  0
   29.4333  -20.5906  -11.6825 C   0  0  2  0  0  0  0  0  0  0  0  0
   30.2115  -21.7720  -11.9233 N   0  0  0  0  0  0  0  0  0  0  0  0
   28.1090  -20.8881  -11.1047 C   0  0  0  0  0  0  0  0  0  0  0  0
   27.6082  -22.0212  -11.3783 O   0  0  0  0  0  0  0  0  0  0  0  0
   28.8840  -20.4178   -4.2641 O   0  0  0  0  0  0  0  0  0  0  0  0
   28.0584  -20.1928   -5.3665 C   0  0  0  0  0  0  0  0  0  0  0  0
   27.2969  -21.2142   -5.9159 C   0  0  0  0  0  0  0  0  0  0  0  0
   26.4832  -20.9920   -7.0026 C   0  0  0  0  0  0  0  0  0  0  0  0
   26.4419  -19.7258   -7.5350 C   0  0  0  0  0  0  0  0  0  0  0  0
   25.5672  -19.4859   -8.7037 C   0  0  0  0  0  0  0  0  0  0  0  0
   26.0291  -20.2948   -9.8907 C   0  0  2  0  0  0  0  0  0  0  0  0
   27.3745  -20.0066  -10.2797 N   0  0  0  0  0  0  0  0  0  0  0  0
   25.0977  -20.1466  -11.0392 C   0  0  0  0  0  0  0  0  0  0  0  0
   25.1494  -19.1695  -11.8302 O   0  0  0  0  0  0  0  0  0  0  0  0
   27.1951  -18.6848   -7.0033 C   0  0  0  0  0  0  0  0  0  0  0  0
   28.0090  -18.9238   -5.9099 C   0  0  0  0  0  0  0  0  0  0  0  0
   23.2602  -23.5014  -12.5624 C   0  0  0  0  0  0  0  0  0  0  0  0
   23.4453  -22.2209  -13.3394 C   0  0  1  0  0  0  0  0  0  0  0  0
   22.5630  -22.1308  -14.4074 O   0  0  0  0  0  0  0  0  0  0  0  0
   23.2343  -21.0522  -12.3917 C   0  0  2  0  0  0  0  0  0  0  0  0
   24.1104  -21.1519  -11.2482 N   0  0  0  0  0  0  0  0  0  0  0  0
   21.8440  -20.9786  -11.9117 C   0  0  0  0  0  0  0  0  0  0  0  0
   21.5275  -21.1233  -10.5769 O   0  0  0  0  0  0  0  0  0  0  0  0
   20.8713  -20.7787  -12.7018 O   0  0  0  0  0  0  0  0  0  0  0  0
  2  1  1  6
  3  2  1  0
  4  5  2  0
  4  2  1  0
  6  7  1  0
  7  8  2  0
  8  9  1  0
 10  9  2  0
 10 11  1  0
 12 11  1  1
 12 13  1  0
 13  4  1  0
 14 22  1  0
 14 12  1  0
 15 14  2  0
 16 10  1  0
 17  7  1  0
 17 16  2  0
 19 21  1  0
 19 18  1  1
 20 19  1  0
 21 22  1  1
 21 23  1  0
 23 24  1  0
 25 23  2  0
M  END
$$$$
