AYT.pdb
     RDKit          3D

 25 25  0  0  1  0  0  0  0  0999 V2000
   18.0939  -11.4042  -18.8202 C   0  0  0  0  0  0  0  0  0  0  0  0
   18.5422  -10.0263  -18.4007 C   0  0  2  0  0  0  0  0  0  0  0  0
   19.3418   -9.3994  -19.4141 N   0  0  0  0  0  0  0  0  0  0  0  0
   19.1872  -10.0096  -17.0741 C   0  0  0  0  0  0  0  0  0  0  0  0
   18.5027  -10.4499  -16.1009 O   0  0  0  0  0  0  0  0  0  0  0  0
   21.4077  -15.6137  -17.2824 O   0  0  0  0  0  0  0  0  0  0  0  0
   21.6355  -14.3156  -16.8237 C   0  0  0  0  0  0  0  0  0  0  0  0
   22.1897  -13.3474  -17.6486 C   0  0  0  0  0  0  0  0  0  0  0  0
   22.4141  -12.0680  -17.1960 C   0  0  0  0  0  0  0  0  0  0  0  0
   22.0741  -11.7690  -15.8985 C   0  0  0  0  0  0  0  0  0  0  0  0
   22.3151  -10.3933  -15.4107 C   0  0  0  0  0  0  0  0  0  0  0  0
   21.0573   -9.5653  -15.5067 C   0  0  2  0  0  0  0  0  0  0  0  0
   20.4970   -9.5424  -16.8220 N   0  0  0  0  0  0  0  0  0  0  0  0
   21.2792   -8.1871  -14.9967 C   0  0  0  0  0  0  0  0  0  0  0  0
   21.8439   -7.9560  -13.8964 O   0  0  0  0  0  0  0  0  0  0  0  0
   21.5173  -12.7209  -15.0513 C   0  0  0  0  0  0  0  0  0  0  0  0
   21.2975  -14.0038  -15.5210 C   0  0  0  0  0  0  0  0  0  0  0  0
   22.8952   -5.3106  -16.8011 C   0  0  0  0  0  0  0  0  0  0  0  0
   21.5282   -4.8264  -16.3833 C   0  0  1  0  0  0  0  0  0  0  0  0
   20.6378   -4.8063  -17.4481 O   0  0  0  0  0  0  0  0  0  0  0  0
   21.0095   -5.7452  -15.2900 C   0  0  2  0  0  0  0  0  0  0  0  0
   20.8337   -7.0894  -15.7876 N   0  0  0  0  0  0  0  0  0  0  0  0
   19.7252   -5.2767  -14.7425 C   0  0  0  0  0  0  0  0  0  0  0  0
   18.5628   -6.0043  -14.8919 O   0  0  0  0  0  0  0  0  0  0  0  0
   19.6259   -4.1824  -14.1076 O   0  0  0  0  0  0  0  0  0  0  0  0
  2  1  1  6
  3  2  1  0
  4  5  2  0
  4  2  1  0
  6  7  1  0
  7  8  2  0
  8  9  1  0
 10  9  2  0
 10 11  1  0
 12 11  1  6
 12 13  1  0
 13  4  1  0
 14 22  1  0
 14 12  1  0
 15 14  2  0
 16 10  1  0
 17  7  1  0
 17 16  2  0
 19 21  1  0
 19 18  1  6
 20 19  1  0
 21 22  1  6
 21 23  1  0
 23 24  1  0
 25 23  2  0
M  END
$$$$
