AYT.pdb
     RDKit          3D

 25 25  0  0  1  0  0  0  0  0999 V2000
   18.7359  -12.0827  -15.8362 C   0  0  0  0  0  0  0  0  0  0  0  0
   17.6890  -11.1442  -16.3827 C   0  0  2  0  0  0  0  0  0  0  0  0
   17.2268  -11.5630  -17.6750 N   0  0  0  0  0  0  0  0  0  0  0  0
   18.1131   -9.7316  -16.3590 C   0  0  0  0  0  0  0  0  0  0  0  0
   19.2504   -9.4685  -16.8560 O   0  0  0  0  0  0  0  0  0  0  0  0
   18.6401   -1.0740  -16.3669 O   0  0  0  0  0  0  0  0  0  0  0  0
   18.1469   -2.3765  -16.2782 C   0  0  0  0  0  0  0  0  0  0  0  0
   17.5823   -2.8540  -15.1042 C   0  0  0  0  0  0  0  0  0  0  0  0
   17.0963   -4.1380  -15.0172 C   0  0  0  0  0  0  0  0  0  0  0  0
   17.1835   -4.9422  -16.1281 C   0  0  0  0  0  0  0  0  0  0  0  0
   16.6612   -6.3231  -16.0356 C   0  0  0  0  0  0  0  0  0  0  0  0
   17.7922   -7.3138  -15.9084 C   0  0  2  0  0  0  0  0  0  0  0  0
   17.3467   -8.6701  -15.8271 N   0  0  0  0  0  0  0  0  0  0  0  0
   18.6804   -6.9740  -14.7663 C   0  0  0  0  0  0  0  0  0  0  0  0
   18.3375   -7.1471  -13.5682 O   0  0  0  0  0  0  0  0  0  0  0  0
   17.7447   -4.4879  -17.3166 C   0  0  0  0  0  0  0  0  0  0  0  0
   18.2294   -3.1937  -17.3888 C   0  0  0  0  0  0  0  0  0  0  0  0
   22.4431   -7.7838  -15.1198 C   0  0  0  0  0  0  0  0  0  0  0  0
   21.7789   -7.4914  -13.7965 C   0  0  1  0  0  0  0  0  0  0  0  0
   22.7072   -7.2847  -12.7853 O   0  0  0  0  0  0  0  0  0  0  0  0
   20.9076   -6.2577  -13.9615 C   0  0  2  0  0  0  0  0  0  0  0  0
   19.9680   -6.4319  -15.0441 N   0  0  0  0  0  0  0  0  0  0  0  0
   21.7090   -5.0509  -14.2265 C   0  0  0  0  0  0  0  0  0  0  0  0
   22.6944   -4.6280  -13.3588 O   0  0  0  0  0  0  0  0  0  0  0  0
   21.5320   -4.3427  -15.2645 O   0  0  0  0  0  0  0  0  0  0  0  0
  2  1  1  6
  3  2  1  0
  4  5  2  0
  4  2  1  0
  6  7  1  0
  7  8  2  0
  8  9  1  0
 10  9  2  0
 10 11  1  0
 12 11  1  1
 12 13  1  0
 13  4  1  0
 14 22  1  0
 14 12  1  0
 15 14  2  0
 16 10  1  0
 17  7  1  0
 17 16  2  0
 19 21  1  0
 19 18  1  6
 20 19  1  0
 21 22  1  6
 21 23  1  0
 23 24  1  0
 25 23  2  0
M  END
$$$$
