AYT.pdb
     RDKit          3D

 25 25  0  0  1  0  0  0  0  0999 V2000
   18.0911  -12.1259  -14.3753 C   0  0  0  0  0  0  0  0  0  0  0  0
   18.8087  -11.0224  -15.1120 C   0  0  2  0  0  0  0  0  0  0  0  0
   20.1499  -11.4007  -15.4544 N   0  0  0  0  0  0  0  0  0  0  0  0
   18.7432   -9.7254  -14.4121 C   0  0  0  0  0  0  0  0  0  0  0  0
   19.6853   -9.4650  -13.6032 O   0  0  0  0  0  0  0  0  0  0  0  0
   22.8515   -6.1111  -17.2336 O   0  0  0  0  0  0  0  0  0  0  0  0
   21.6039   -6.1603  -16.6103 C   0  0  0  0  0  0  0  0  0  0  0  0
   21.3879   -5.5507  -15.3828 C   0  0  0  0  0  0  0  0  0  0  0  0
   20.1579   -5.5995  -14.7688 C   0  0  0  0  0  0  0  0  0  0  0  0
   19.1410   -6.2709  -15.4039 C   0  0  0  0  0  0  0  0  0  0  0  0
   17.8179   -6.3240  -14.7443 C   0  0  0  0  0  0  0  0  0  0  0  0
   17.7134   -7.5389  -13.8555 C   0  0  2  0  0  0  0  0  0  0  0  0
   17.7156   -8.7703  -14.5820 N   0  0  0  0  0  0  0  0  0  0  0  0
   16.5320   -7.4501  -12.9583 C   0  0  0  0  0  0  0  0  0  0  0  0
   15.4178   -7.9535  -13.2553 O   0  0  0  0  0  0  0  0  0  0  0  0
   19.3313   -6.8903  -16.6344 C   0  0  0  0  0  0  0  0  0  0  0  0
   20.5743   -6.8326  -17.2398 C   0  0  0  0  0  0  0  0  0  0  0  0
   16.4031   -8.3100   -9.1861 C   0  0  0  0  0  0  0  0  0  0  0  0
   15.9783   -6.8745   -9.3776 C   0  0  1  0  0  0  0  0  0  0  0  0
   17.0028   -5.9868   -9.0786 O   0  0  0  0  0  0  0  0  0  0  0  0
   15.5402   -6.6945  -10.8212 C   0  0  2  0  0  0  0  0  0  0  0  0
   16.6715   -6.7679  -11.7156 N   0  0  0  0  0  0  0  0  0  0  0  0
   14.8594   -5.4056  -11.0318 C   0  0  0  0  0  0  0  0  0  0  0  0
   13.6357   -5.1282  -10.4589 O   0  0  0  0  0  0  0  0  0  0  0  0
   15.3652   -4.4893  -11.7494 O   0  0  0  0  0  0  0  0  0  0  0  0
  2  1  1  1
  3  2  1  0
  4  5  2  0
  4  2  1  0
  6  7  1  0
  7  8  2  0
  8  9  1  0
 10  9  2  0
 10 11  1  0
 12 11  1  6
 12 13  1  0
 13  4  1  0
 14 22  1  0
 14 12  1  0
 15 14  2  0
 16 10  1  0
 17  7  1  0
 17 16  2  0
 19 21  1  0
 19 18  1  6
 20 19  1  0
 21 22  1  6
 21 23  1  0
 23 24  1  0
 25 23  2  0
M  END
$$$$
