AYT.pdb
     RDKit          3D

 25 25  0  0  1  0  0  0  0  0999 V2000
   21.1274  -11.2078  -20.2245 C   0  0  0  0  0  0  0  0  0  0  0  0
   22.0102  -10.1721  -19.5739 C   0  0  2  0  0  0  0  0  0  0  0  0
   23.2770  -10.7246  -19.1878 N   0  0  0  0  0  0  0  0  0  0  0  0
   21.3410   -9.4554  -18.4718 C   0  0  0  0  0  0  0  0  0  0  0  0
   20.2457   -8.8778  -18.7482 O   0  0  0  0  0  0  0  0  0  0  0  0
   17.1196  -13.7113  -16.3108 O   0  0  0  0  0  0  0  0  0  0  0  0
   18.0453  -12.7235  -15.9720 C   0  0  0  0  0  0  0  0  0  0  0  0
   19.4080  -12.9279  -16.1339 C   0  0  0  0  0  0  0  0  0  0  0  0
   20.3201  -11.9539  -15.7998 C   0  0  0  0  0  0  0  0  0  0  0  0
   19.8468  -10.7653  -15.2983 C   0  0  0  0  0  0  0  0  0  0  0  0
   20.8269   -9.7173  -14.9386 C   0  0  0  0  0  0  0  0  0  0  0  0
   21.0603   -8.7837  -16.1008 C   0  0  2  0  0  0  0  0  0  0  0  0
   21.8334   -9.3723  -17.1497 N   0  0  0  0  0  0  0  0  0  0  0  0
   21.6609   -7.5013  -15.6497 C   0  0  0  0  0  0  0  0  0  0  0  0
   22.9041   -7.3332  -15.5546 O   0  0  0  0  0  0  0  0  0  0  0  0
   18.4862  -10.5352  -15.1262 C   0  0  0  0  0  0  0  0  0  0  0  0
   17.5807  -11.5246  -15.4669 C   0  0  0  0  0  0  0  0  0  0  0  0
   20.9351   -2.7651  -14.5273 C   0  0  0  0  0  0  0  0  0  0  0  0
   20.2949   -4.0601  -14.9642 C   0  0  1  0  0  0  0  0  0  0  0  0
   19.7278   -3.9574  -16.2272 O   0  0  0  0  0  0  0  0  0  0  0  0
   21.3589   -5.1446  -14.9596 C   0  0  2  0  0  0  0  0  0  0  0  0
   20.7913   -6.4243  -15.3133 N   0  0  0  0  0  0  0  0  0  0  0  0
   22.0109   -5.2686  -13.6449 C   0  0  0  0  0  0  0  0  0  0  0  0
   23.1757   -4.5934  -13.3449 O   0  0  0  0  0  0  0  0  0  0  0  0
   21.5331   -6.0016  -12.7257 O   0  0  0  0  0  0  0  0  0  0  0  0
  2  1  1  1
  3  2  1  0
  4  5  2  0
  4  2  1  0
  6  7  1  0
  7  8  2  0
  8  9  1  0
 10  9  2  0
 10 11  1  0
 12 11  1  1
 12 13  1  0
 13  4  1  0
 14 22  1  0
 14 12  1  0
 15 14  2  0
 16 10  1  0
 17  7  1  0
 17 16  2  0
 19 21  1  0
 19 18  1  6
 20 19  1  0
 21 22  1  1
 21 23  1  0
 23 24  1  0
 25 23  2  0
M  END
$$$$
