AYT.pdb
     RDKit          3D

 25 25  0  0  1  0  0  0  0  0999 V2000
   20.9101  -13.1402  -18.6555 C   0  0  0  0  0  0  0  0  0  0  0  0
   21.8719  -12.2097  -17.9595 C   0  0  2  0  0  0  0  0  0  0  0  0
   22.6323  -12.8925  -16.9522 N   0  0  0  0  0  0  0  0  0  0  0  0
   21.2237  -10.9853  -17.4526 C   0  0  0  0  0  0  0  0  0  0  0  0
   20.5921  -10.2816  -18.2984 O   0  0  0  0  0  0  0  0  0  0  0  0
   14.9405  -12.1396  -16.6263 O   0  0  0  0  0  0  0  0  0  0  0  0
   16.0842  -11.5228  -16.1173 C   0  0  0  0  0  0  0  0  0  0  0  0
   16.1904  -10.1408  -16.0567 C   0  0  0  0  0  0  0  0  0  0  0  0
   17.3180   -9.5333  -15.5549 C   0  0  0  0  0  0  0  0  0  0  0  0
   18.3440  -10.3329  -15.1118 C   0  0  0  0  0  0  0  0  0  0  0  0
   19.5571   -9.6805  -14.5721 C   0  0  0  0  0  0  0  0  0  0  0  0
   20.5444   -9.3931  -15.6764 C   0  0  2  0  0  0  0  0  0  0  0  0
   21.2607  -10.5530  -16.1076 N   0  0  0  0  0  0  0  0  0  0  0  0
   21.4770   -8.3008  -15.2947 C   0  0  0  0  0  0  0  0  0  0  0  0
   22.4898   -8.4970  -14.5745 O   0  0  0  0  0  0  0  0  0  0  0  0
   18.2627  -11.7202  -15.1615 C   0  0  0  0  0  0  0  0  0  0  0  0
   17.1219  -12.3169  -15.6691 C   0  0  0  0  0  0  0  0  0  0  0  0
   22.8349   -3.6082  -15.7829 C   0  0  0  0  0  0  0  0  0  0  0  0
   21.9501   -4.7184  -16.2952 C   0  0  1  0  0  0  0  0  0  0  0  0
   22.3011   -5.1096  -17.5800 O   0  0  0  0  0  0  0  0  0  0  0  0
   22.0643   -5.8978  -15.3441 C   0  0  2  0  0  0  0  0  0  0  0  0
   21.2095   -6.9830  -15.7648 N   0  0  0  0  0  0  0  0  0  0  0  0
   21.7064   -5.5273  -13.9645 C   0  0  0  0  0  0  0  0  0  0  0  0
   22.6650   -5.2016  -13.0277 O   0  0  0  0  0  0  0  0  0  0  0  0
   20.5003   -5.4898  -13.5714 O   0  0  0  0  0  0  0  0  0  0  0  0
  2  1  1  1
  3  2  1  0
  4  5  2  0
  4  2  1  0
  6  7  1  0
  7  8  2  0
  8  9  1  0
 10  9  2  0
 10 11  1  0
 12 11  1  1
 12 13  1  0
 13  4  1  0
 14 22  1  0
 14 12  1  0
 15 14  2  0
 16 10  1  0
 17  7  1  0
 17 16  2  0
 19 21  1  0
 19 18  1  1
 20 19  1  0
 21 22  1  6
 21 23  1  0
 23 24  1  0
 25 23  2  0
M  END
$$$$
