AYT.pdb
     RDKit          3D

 25 25  0  0  1  0  0  0  0  0999 V2000
   28.1044  -20.8650  -18.6032 C   0  0  0  0  0  0  0  0  0  0  0  0
   28.6259  -21.8282  -17.5661 C   0  0  2  0  0  0  0  0  0  0  0  0
   28.7997  -23.1454  -18.1083 N   0  0  0  0  0  0  0  0  0  0  0  0
   27.8303  -21.8233  -16.3239 C   0  0  0  0  0  0  0  0  0  0  0  0
   26.9158  -22.6974  -16.2282 O   0  0  0  0  0  0  0  0  0  0  0  0
   24.2651  -20.5242   -8.5132 O   0  0  0  0  0  0  0  0  0  0  0  0
   25.1286  -20.4464   -9.6068 C   0  0  0  0  0  0  0  0  0  0  0  0
   25.1384  -19.3361  -10.4387 C   0  0  0  0  0  0  0  0  0  0  0  0
   25.9896  -19.2598  -11.5165 C   0  0  0  0  0  0  0  0  0  0  0  0
   26.8360  -20.3165  -11.7518 C   0  0  0  0  0  0  0  0  0  0  0  0
   27.7518  -20.2355  -12.9108 C   0  0  0  0  0  0  0  0  0  0  0  0
   27.1557  -20.9289  -14.1111 C   0  0  2  0  0  0  0  0  0  0  0  0
   28.0183  -20.9224  -15.2514 N   0  0  0  0  0  0  0  0  0  0  0  0
   25.8206  -20.3700  -14.4483 C   0  0  0  0  0  0  0  0  0  0  0  0
   25.6763  -19.3623  -15.1877 O   0  0  0  0  0  0  0  0  0  0  0  0
   26.8460  -21.4407  -10.9334 C   0  0  0  0  0  0  0  0  0  0  0  0
   25.9838  -21.5029   -9.8527 C   0  0  0  0  0  0  0  0  0  0  0  0
   22.9657  -22.4124  -15.7676 C   0  0  0  0  0  0  0  0  0  0  0  0
   22.9971  -20.9054  -15.6926 C   0  0  1  0  0  0  0  0  0  0  0  0
   21.7793  -20.3433  -16.0502 O   0  0  0  0  0  0  0  0  0  0  0  0
   23.3563  -20.5051  -14.2716 C   0  0  2  0  0  0  0  0  0  0  0  0
   24.6630  -21.0031  -13.9112 N   0  0  0  0  0  0  0  0  0  0  0  0
   22.3768  -21.0099  -13.2947 C   0  0  0  0  0  0  0  0  0  0  0  0
   22.7461  -21.8441  -12.2601 O   0  0  0  0  0  0  0  0  0  0  0  0
   21.1473  -20.7022  -13.3574 O   0  0  0  0  0  0  0  0  0  0  0  0
  2  1  1  6
  3  2  1  0
  4  5  2  0
  4  2  1  0
  6  7  1  0
  7  8  2  0
  8  9  1  0
 10  9  2  0
 10 11  1  0
 12 11  1  1
 12 13  1  0
 13  4  1  0
 14 22  1  0
 14 12  1  0
 15 14  2  0
 16 10  1  0
 17  7  1  0
 17 16  2  0
 19 21  1  0
 19 18  1  1
 20 19  1  0
 21 22  1  1
 21 23  1  0
 23 24  1  0
 25 23  2  0
M  END
$$$$
