AYT.pdb
     RDKit          3D

 25 25  0  0  1  0  0  0  0  0999 V2000
   16.4358  -12.9148  -17.6421 C   0  0  0  0  0  0  0  0  0  0  0  0
   17.9244  -12.9230  -17.3983 C   0  0  2  0  0  0  0  0  0  0  0  0
   18.3697  -14.1892  -16.8908 N   0  0  0  0  0  0  0  0  0  0  0  0
   18.3793  -11.7867  -16.5749 C   0  0  0  0  0  0  0  0  0  0  0  0
   17.7548  -11.5817  -15.4898 O   0  0  0  0  0  0  0  0  0  0  0  0
   22.4771   -4.9099  -13.1482 O   0  0  0  0  0  0  0  0  0  0  0  0
   22.1752   -6.1072  -13.7986 C   0  0  0  0  0  0  0  0  0  0  0  0
   21.7578   -7.2253  -13.0911 C   0  0  0  0  0  0  0  0  0  0  0  0
   21.4604   -8.4053  -13.7327 C   0  0  0  0  0  0  0  0  0  0  0  0
   21.5873   -8.4510  -15.1002 C   0  0  0  0  0  0  0  0  0  0  0  0
   21.2678   -9.7195  -15.7911 C   0  0  0  0  0  0  0  0  0  0  0  0
   19.7917   -9.8059  -16.0919 C   0  0  2  0  0  0  0  0  0  0  0  0
   19.4485  -10.9261  -16.9116 N   0  0  0  0  0  0  0  0  0  0  0  0
   19.2867   -8.5384  -16.6810 C   0  0  0  0  0  0  0  0  0  0  0  0
   19.4887   -8.2232  -17.8821 O   0  0  0  0  0  0  0  0  0  0  0  0
   22.0037   -7.3446  -15.8326 C   0  0  0  0  0  0  0  0  0  0  0  0
   22.2993   -6.1645  -15.1732 C   0  0  0  0  0  0  0  0  0  0  0  0
   15.9540   -7.4520  -17.2948 C   0  0  0  0  0  0  0  0  0  0  0  0
   16.4930   -6.4214  -16.3329 C   0  0  1  0  0  0  0  0  0  0  0  0
   16.0889   -6.6692  -15.0281 O   0  0  0  0  0  0  0  0  0  0  0  0
   18.0099   -6.4355  -16.4180 C   0  0  2  0  0  0  0  0  0  0  0  0
   18.5462   -7.6498  -15.8496 N   0  0  0  0  0  0  0  0  0  0  0  0
   18.6098   -5.2863  -15.7193 C   0  0  0  0  0  0  0  0  0  0  0  0
   18.5573   -4.0105  -16.2410 O   0  0  0  0  0  0  0  0  0  0  0  0
   19.2032   -5.4142  -14.6048 O   0  0  0  0  0  0  0  0  0  0  0  0
  2  1  1  1
  3  2  1  0
  4  5  2  0
  4  2  1  0
  6  7  1  0
  7  8  2  0
  8  9  1  0
 10  9  2  0
 10 11  1  0
 12 11  1  6
 12 13  1  0
 13  4  1  0
 14 22  1  0
 14 12  1  0
 15 14  2  0
 16 10  1  0
 17  7  1  0
 17 16  2  0
 19 21  1  0
 19 18  1  6
 20 19  1  0
 21 22  1  1
 21 23  1  0
 23 24  1  0
 25 23  2  0
M  END
$$$$
