IEW.pdb
     RDKit          3D

 32 33  0  0  1  0  0  0  0  0999 V2000
   31.4538  -21.5607  -19.2882 C   0  0  0  0  0  0  0  0  0  0  0  0
   30.3296  -20.5743  -19.5209 C   0  0  0  0  0  0  0  0  0  0  0  0
   29.6993  -20.2483  -18.1898 C   0  0  2  0  0  0  0  0  0  0  0  0
   29.1036  -21.5320  -17.6508 C   0  0  0  0  0  0  0  0  0  0  0  0
   28.6048  -19.2502  -18.3306 C   0  0  2  0  0  0  0  0  0  0  0  0
   29.0635  -18.0039  -18.8465 N   0  0  0  0  0  0  0  0  0  0  0  0
   27.8584  -19.0103  -17.0707 C   0  0  0  0  0  0  0  0  0  0  0  0
   28.3006  -18.2439  -16.1694 O   0  0  0  0  0  0  0  0  0  0  0  0
   26.6120  -19.6437  -16.8418 N   0  0  0  0  0  0  0  0  0  0  0  0
   25.7708  -19.4241  -15.6891 C   0  0  1  0  0  0  0  0  0  0  0  0
   24.4521  -18.8095  -15.9755 C   0  0  0  0  0  0  0  0  0  0  0  0
   23.5271  -18.6386  -14.8254 C   0  0  0  0  0  0  0  0  0  0  0  0
   22.2621  -18.0287  -15.3728 C   0  0  0  0  0  0  0  0  0  0  0  0
   21.1560  -18.2469  -14.8156 O   0  0  0  0  0  0  0  0  0  0  0  0
   25.7308  -20.5985  -14.7814 C   0  0  0  0  0  0  0  0  0  0  0  0
   25.6581  -21.7402  -15.2758 O   0  0  0  0  0  0  0  0  0  0  0  0
   22.2593  -17.2134  -16.4962 O   0  0  0  0  0  0  0  0  0  0  0  0
   25.7722  -20.4578  -13.3867 N   0  0  0  0  0  0  0  0  0  0  0  0
   25.6505  -21.5996  -12.4674 C   0  0  1  0  0  0  0  0  0  0  0  0
   26.8271  -21.5270  -11.5470 C   0  0  0  0  0  0  0  0  0  0  0  0
   26.5378  -20.8718  -10.2530 C   0  0  0  0  0  0  0  0  0  0  0  0
   25.3526  -20.2977   -9.8542 C   0  0  0  0  0  0  0  0  0  0  0  0
   25.5257  -19.8221   -8.6094 N   0  0  0  0  0  0  0  0  0  0  0  0
   26.7687  -20.0633   -8.1872 C   0  0  0  0  0  0  0  0  0  0  0  0
   27.4457  -19.7802   -6.9936 C   0  0  0  0  0  0  0  0  0  0  0  0
   28.7603  -20.1480   -6.8113 C   0  0  0  0  0  0  0  0  0  0  0  0
   29.3848  -20.8041   -7.8450 C   0  0  0  0  0  0  0  0  0  0  0  0
   28.7453  -21.0917   -9.0192 C   0  0  0  0  0  0  0  0  0  0  0  0
   27.4146  -20.7206   -9.2066 C   0  0  0  0  0  0  0  0  0  0  0  0
   24.3575  -21.5554  -11.7466 C   0  0  0  0  0  0  0  0  0  0  0  0
   23.6498  -20.5293  -11.6228 O   0  0  0  0  0  0  0  0  0  0  0  0
   23.8975  -22.7280  -11.1688 O   0  0  0  0  0  0  0  0  0  0  0  0
  1  2  1  0
  3  2  1  0
  3  5  1  0
  3  4  1  6
  5  6  1  1
  7  5  1  0
  7  8  2  0
  9  7  1  0
 10  9  1  0
 10 15  1  0
 10 11  1  6
 12 11  1  0
 13 12  1  0
 13 14  2  0
 15 16  2  0
 15 18  1  0
 17 13  1  0
 18 19  1  0
 19 30  1  0
 19 20  1  1
 21 29  1  0
 21 20  1  0
 22 21  2  0
 23 22  1  0
 23 24  1  0
 24 25  1  0
 24 29  2  0
 25 26  2  0
 26 27  1  0
 28 27  2  0
 29 28  1  0
 30 31  2  0
 30 32  1  0
M  END
$$$$
