IEW.pdb
     RDKit          3D

 32 33  0  0  1  0  0  0  0  0999 V2000
   32.6267  -27.8363  -26.4258 C   0  0  0  0  0  0  0  0  0  0  0  0
   33.6613  -27.4869  -25.3779 C   0  0  0  0  0  0  0  0  0  0  0  0
   33.2674  -28.1486  -24.0808 C   0  0  2  0  0  0  0  0  0  0  0  0
   32.0070  -27.4644  -23.5947 C   0  0  0  0  0  0  0  0  0  0  0  0
   34.3177  -27.9843  -23.0397 C   0  0  2  0  0  0  0  0  0  0  0  0
   35.5734  -28.5264  -23.4386 N   0  0  0  0  0  0  0  0  0  0  0  0
   33.9382  -28.5532  -21.7228 C   0  0  0  0  0  0  0  0  0  0  0  0
   33.9769  -29.7952  -21.4970 O   0  0  0  0  0  0  0  0  0  0  0  0
   33.5161  -27.7062  -20.6685 N   0  0  0  0  0  0  0  0  0  0  0  0
   33.0994  -28.1558  -19.3613 C   0  0  1  0  0  0  0  0  0  0  0  0
   34.1952  -28.3635  -18.3842 C   0  0  0  0  0  0  0  0  0  0  0  0
   35.1431  -29.4729  -18.6642 C   0  0  0  0  0  0  0  0  0  0  0  0
   35.2099  -30.3125  -17.4144 C   0  0  0  0  0  0  0  0  0  0  0  0
   34.9392  -29.8103  -16.2935 O   0  0  0  0  0  0  0  0  0  0  0  0
   31.9332  -27.3966  -18.8431 C   0  0  0  0  0  0  0  0  0  0  0  0
   31.7028  -26.2600  -19.2996 O   0  0  0  0  0  0  0  0  0  0  0  0
   35.5665  -31.6537  -17.4417 O   0  0  0  0  0  0  0  0  0  0  0  0
   31.0868  -27.9225  -17.8563 N   0  0  0  0  0  0  0  0  0  0  0  0
   29.8779  -27.2260  -17.3906 C   0  0  1  0  0  0  0  0  0  0  0  0
   29.0175  -27.0225  -18.5970 C   0  0  0  0  0  0  0  0  0  0  0  0
   28.1299  -28.1657  -18.9014 C   0  0  0  0  0  0  0  0  0  0  0  0
   27.1989  -28.7445  -18.0700 C   0  0  0  0  0  0  0  0  0  0  0  0
   26.6154  -29.7497  -18.7444 N   0  0  0  0  0  0  0  0  0  0  0  0
   27.1280  -29.8455  -19.9730 C   0  0  0  0  0  0  0  0  0  0  0  0
   26.8753  -30.7043  -21.0509 C   0  0  0  0  0  0  0  0  0  0  0  0
   27.5634  -30.5854  -22.2380 C   0  0  0  0  0  0  0  0  0  0  0  0
   28.5087  -29.5917  -22.3266 C   0  0  0  0  0  0  0  0  0  0  0  0
   28.7732  -28.7413  -21.2886 C   0  0  0  0  0  0  0  0  0  0  0  0
   28.0782  -28.8593  -20.0858 C   0  0  0  0  0  0  0  0  0  0  0  0
   29.2000  -28.0067  -16.3304 C   0  0  0  0  0  0  0  0  0  0  0  0
   29.4918  -29.1850  -16.0214 O   0  0  0  0  0  0  0  0  0  0  0  0
   28.1723  -27.3938  -15.6312 O   0  0  0  0  0  0  0  0  0  0  0  0
  1  2  1  0
  3  2  1  0
  3  5  1  0
  3  4  1  1
  5  6  1  6
  7  5  1  0
  7  8  2  0
  9  7  1  0
 10  9  1  0
 10 15  1  0
 10 11  1  1
 12 11  1  0
 13 12  1  0
 13 14  2  0
 15 16  2  0
 15 18  1  0
 17 13  1  0
 18 19  1  0
 19 30  1  0
 19 20  1  6
 21 29  1  0
 21 20  1  0
 22 21  2  0
 23 22  1  0
 23 24  1  0
 24 25  1  0
 24 29  2  0
 25 26  2  0
 26 27  1  0
 28 27  2  0
 29 28  1  0
 30 31  2  0
 30 32  1  0
M  END
$$$$
