IEW.pdb
     RDKit          3D

 32 33  0  0  1  0  0  0  0  0999 V2000
   28.1275  -12.2117  -15.2719 C   0  0  0  0  0  0  0  0  0  0  0  0
   26.7345  -12.8019  -15.3150 C   0  0  0  0  0  0  0  0  0  0  0  0
   25.7715  -11.7190  -15.7336 C   0  0  2  0  0  0  0  0  0  0  0  0
   25.7972  -10.6564  -14.6549 C   0  0  0  0  0  0  0  0  0  0  0  0
   24.3804  -12.2350  -15.8459 C   0  0  2  0  0  0  0  0  0  0  0  0
   24.2881  -13.3818  -16.6861 N   0  0  0  0  0  0  0  0  0  0  0  0
   23.4071  -11.2142  -16.3071 C   0  0  0  0  0  0  0  0  0  0  0  0
   23.3335  -10.8622  -17.5178 O   0  0  0  0  0  0  0  0  0  0  0  0
   22.5218  -10.5982  -15.3885 N   0  0  0  0  0  0  0  0  0  0  0  0
   21.6288   -9.5082  -15.7028 C   0  0  1  0  0  0  0  0  0  0  0  0
   20.2300   -9.6828  -15.2426 C   0  0  0  0  0  0  0  0  0  0  0  0
   19.2609   -8.6227  -15.6228 C   0  0  0  0  0  0  0  0  0  0  0  0
   17.9253   -9.0327  -15.0575 C   0  0  0  0  0  0  0  0  0  0  0  0
   17.7196   -8.9970  -13.8173 O   0  0  0  0  0  0  0  0  0  0  0  0
   22.2246   -8.1806  -15.4071 C   0  0  0  0  0  0  0  0  0  0  0  0
   22.9837   -8.0659  -14.4254 O   0  0  0  0  0  0  0  0  0  0  0  0
   16.8799   -9.4608  -15.8641 O   0  0  0  0  0  0  0  0  0  0  0  0
   21.9564   -7.0556  -16.2003 N   0  0  0  0  0  0  0  0  0  0  0  0
   22.7215   -5.8042  -16.0916 C   0  0  1  0  0  0  0  0  0  0  0  0
   24.1577   -6.1691  -16.2943 C   0  0  0  0  0  0  0  0  0  0  0  0
   25.0640   -5.0051  -16.3999 C   0  0  0  0  0  0  0  0  0  0  0  0
   25.0935   -3.8935  -15.5895 C   0  0  0  0  0  0  0  0  0  0  0  0
   26.0688   -3.0850  -16.0377 N   0  0  0  0  0  0  0  0  0  0  0  0
   26.6697   -3.6247  -17.1003 C   0  0  0  0  0  0  0  0  0  0  0  0
   27.7212   -3.2000  -17.9232 C   0  0  0  0  0  0  0  0  0  0  0  0
   28.1578   -3.9670  -18.9805 C   0  0  0  0  0  0  0  0  0  0  0  0
   27.5232   -5.1664  -19.1990 C   0  0  0  0  0  0  0  0  0  0  0  0
   26.4948   -5.6024  -18.4098 C   0  0  0  0  0  0  0  0  0  0  0  0
   26.0507   -4.8281  -17.3389 C   0  0  0  0  0  0  0  0  0  0  0  0
   22.2401   -4.8093  -17.0774 C   0  0  0  0  0  0  0  0  0  0  0  0
   21.7675   -5.0966  -18.2013 O   0  0  0  0  0  0  0  0  0  0  0  0
   22.3170   -3.4685  -16.7352 O   0  0  0  0  0  0  0  0  0  0  0  0
  1  2  1  0
  3  2  1  0
  3  5  1  0
  3  4  1  1
  5  6  1  6
  7  5  1  0
  7  8  2  0
  9  7  1  0
 10  9  1  0
 10 15  1  0
 10 11  1  1
 12 11  1  0
 13 12  1  0
 13 14  2  0
 15 16  2  0
 15 18  1  0
 17 13  1  0
 18 19  1  0
 19 30  1  0
 19 20  1  6
 21 29  1  0
 21 20  1  0
 22 21  2  0
 23 22  1  0
 23 24  1  0
 24 25  1  0
 24 29  2  0
 25 26  2  0
 26 27  1  0
 28 27  2  0
 29 28  1  0
 30 31  2  0
 30 32  1  0
M  END
$$$$
