IEW.pdb
     RDKit          3D

 32 33  0  0  1  0  0  0  0  0999 V2000
   28.8741  -16.9403  -17.0402 C   0  0  0  0  0  0  0  0  0  0  0  0
   27.7133  -17.9100  -17.0950 C   0  0  0  0  0  0  0  0  0  0  0  0
   27.1146  -18.0142  -15.7143 C   0  0  2  0  0  0  0  0  0  0  0  0
   28.1769  -18.6027  -14.8097 C   0  0  0  0  0  0  0  0  0  0  0  0
   25.9334  -18.9188  -15.6952 C   0  0  2  0  0  0  0  0  0  0  0  0
   24.9970  -18.6182  -16.7260 N   0  0  0  0  0  0  0  0  0  0  0  0
   25.2288  -18.9429  -14.3895 C   0  0  0  0  0  0  0  0  0  0  0  0
   24.6289  -17.9278  -13.9368 O   0  0  0  0  0  0  0  0  0  0  0  0
   25.2100  -20.1220  -13.6044 N   0  0  0  0  0  0  0  0  0  0  0  0
   24.5801  -20.2459  -12.3112 C   0  0  1  0  0  0  0  0  0  0  0  0
   23.2584  -20.9180  -12.3126 C   0  0  0  0  0  0  0  0  0  0  0  0
   22.0752  -20.0731  -12.0061 C   0  0  0  0  0  0  0  0  0  0  0  0
   20.8744  -20.9838  -12.0270 C   0  0  0  0  0  0  0  0  0  0  0  0
   21.0023  -22.2011  -12.3161 O   0  0  0  0  0  0  0  0  0  0  0  0
   25.5206  -20.7152  -11.2623 C   0  0  0  0  0  0  0  0  0  0  0  0
   26.6452  -21.1304  -11.6032 O   0  0  0  0  0  0  0  0  0  0  0  0
   19.5959  -20.5299  -11.7338 O   0  0  0  0  0  0  0  0  0  0  0  0
   25.1782  -20.7042   -9.9024 N   0  0  0  0  0  0  0  0  0  0  0  0
   26.1072  -21.1288   -8.8441 C   0  0  1  0  0  0  0  0  0  0  0  0
   27.3320  -20.2838   -8.9943 C   0  0  0  0  0  0  0  0  0  0  0  0
   28.3770  -20.5559   -7.9836 C   0  0  0  0  0  0  0  0  0  0  0  0
   29.3545  -21.5229   -8.0327 C   0  0  0  0  0  0  0  0  0  0  0  0
   30.0900  -21.4197   -6.9128 N   0  0  0  0  0  0  0  0  0  0  0  0
   29.6312  -20.4301   -6.1436 C   0  0  0  0  0  0  0  0  0  0  0  0
   30.0306  -19.9198   -4.9014 C   0  0  0  0  0  0  0  0  0  0  0  0
   29.3672  -18.8660   -4.3131 C   0  0  0  0  0  0  0  0  0  0  0  0
   28.2970  -18.3324   -4.9905 C   0  0  0  0  0  0  0  0  0  0  0  0
   27.8882  -18.8130   -6.2039 C   0  0  0  0  0  0  0  0  0  0  0  0
   28.5578  -19.8796   -6.8019 C   0  0  0  0  0  0  0  0  0  0  0  0
   25.4785  -20.9919   -7.5102 C   0  0  0  0  0  0  0  0  0  0  0  0
   24.5657  -20.1789   -7.2370 O   0  0  0  0  0  0  0  0  0  0  0  0
   25.9296  -21.8186   -6.4935 O   0  0  0  0  0  0  0  0  0  0  0  0
  1  2  1  0
  3  2  1  0
  3  5  1  0
  3  4  1  1
  5  6  1  6
  7  5  1  0
  7  8  2  0
  9  7  1  0
 10  9  1  0
 10 15  1  0
 10 11  1  6
 12 11  1  0
 13 12  1  0
 13 14  2  0
 15 16  2  0
 15 18  1  0
 17 13  1  0
 18 19  1  0
 19 30  1  0
 19 20  1  1
 21 29  1  0
 21 20  1  0
 22 21  2  0
 23 22  1  0
 23 24  1  0
 24 25  1  0
 24 29  2  0
 25 26  2  0
 26 27  1  0
 28 27  2  0
 29 28  1  0
 30 31  2  0
 30 32  1  0
M  END
$$$$
