IEW.pdb
     RDKit          3D

 32 33  0  0  1  0  0  0  0  0999 V2000
   33.1124  -22.5553  -10.2778 C   0  0  0  0  0  0  0  0  0  0  0  0
   32.4595  -22.3987  -11.6342 C   0  0  0  0  0  0  0  0  0  0  0  0
   31.1776  -21.6233  -11.4588 C   0  0  2  0  0  0  0  0  0  0  0  0
   30.2898  -22.4304  -10.5349 C   0  0  0  0  0  0  0  0  0  0  0  0
   30.4633  -21.4438  -12.7517 C   0  0  2  0  0  0  0  0  0  0  0  0
   31.2787  -20.8323  -13.7472 N   0  0  0  0  0  0  0  0  0  0  0  0
   29.1959  -20.6825  -12.6257 C   0  0  0  0  0  0  0  0  0  0  0  0
   29.1819  -19.4244  -12.5156 O   0  0  0  0  0  0  0  0  0  0  0  0
   27.9496  -21.3562  -12.6254 N   0  0  0  0  0  0  0  0  0  0  0  0
   26.6961  -20.7787  -12.2015 C   0  0  1  0  0  0  0  0  0  0  0  0
   25.6633  -20.6615  -13.2589 C   0  0  0  0  0  0  0  0  0  0  0  0
   24.3564  -20.0784  -12.8592 C   0  0  0  0  0  0  0  0  0  0  0  0
   23.4811  -20.0934  -14.0861 C   0  0  0  0  0  0  0  0  0  0  0  0
   23.5479  -21.0451  -14.9056 O   0  0  0  0  0  0  0  0  0  0  0  0
   26.2149  -21.3438  -10.9154 C   0  0  0  0  0  0  0  0  0  0  0  0
   26.6772  -22.4334  -10.5253 O   0  0  0  0  0  0  0  0  0  0  0  0
   22.5776  -19.0768  -14.3634 O   0  0  0  0  0  0  0  0  0  0  0  0
   25.2565  -20.6864  -10.1305 N   0  0  0  0  0  0  0  0  0  0  0  0
   25.1591  -20.8688   -8.6742 C   0  0  1  0  0  0  0  0  0  0  0  0
   26.4940  -20.4955   -8.1124 C   0  0  0  0  0  0  0  0  0  0  0  0
   26.5713  -20.5848   -6.6381 C   0  0  0  0  0  0  0  0  0  0  0  0
   25.7277  -21.2744   -5.7979 C   0  0  0  0  0  0  0  0  0  0  0  0
   26.1602  -21.0884   -4.5393 N   0  0  0  0  0  0  0  0  0  0  0  0
   27.2444  -20.3100   -4.5296 C   0  0  0  0  0  0  0  0  0  0  0  0
   28.0632  -19.8226   -3.5024 C   0  0  0  0  0  0  0  0  0  0  0  0
   29.1467  -19.0162   -3.7718 C   0  0  0  0  0  0  0  0  0  0  0  0
   29.3957  -18.7067   -5.0875 C   0  0  0  0  0  0  0  0  0  0  0  0
   28.6113  -19.1703   -6.1074 C   0  0  0  0  0  0  0  0  0  0  0  0
   27.5138  -19.9867   -5.8377 C   0  0  0  0  0  0  0  0  0  0  0  0
   24.0562  -20.0524   -8.1173 C   0  0  0  0  0  0  0  0  0  0  0  0
   23.5640  -20.2100   -6.9763 O   0  0  0  0  0  0  0  0  0  0  0  0
   23.5311  -19.0449   -8.9110 O   0  0  0  0  0  0  0  0  0  0  0  0
  1  2  1  0
  3  2  1  0
  3  5  1  0
  3  4  1  1
  5  6  1  6
  7  5  1  0
  7  8  2  0
  9  7  1  0
 10  9  1  0
 10 15  1  0
 10 11  1  6
 12 11  1  0
 13 12  1  0
 13 14  2  0
 15 16  2  0
 15 18  1  0
 17 13  1  0
 18 19  1  0
 19 30  1  0
 19 20  1  1
 21 29  1  0
 21 20  1  0
 22 21  2  0
 23 22  1  0
 23 24  1  0
 24 25  1  0
 24 29  2  0
 25 26  2  0
 26 27  1  0
 28 27  2  0
 29 28  1  0
 30 31  2  0
 30 32  1  0
M  END
$$$$
