IEW.pdb
     RDKit          3D

 32 33  0  0  1  0  0  0  0  0999 V2000
   30.0357  -16.2598  -19.5195 C   0  0  0  0  0  0  0  0  0  0  0  0
   29.6892  -17.3588  -18.5381 C   0  0  0  0  0  0  0  0  0  0  0  0
   28.2335  -17.7126  -18.7141 C   0  0  2  0  0  0  0  0  0  0  0  0
   27.4232  -16.5855  -18.1088 C   0  0  0  0  0  0  0  0  0  0  0  0
   27.8847  -18.9716  -18.0020 C   0  0  2  0  0  0  0  0  0  0  0  0
   28.8067  -20.0246  -18.2683 N   0  0  0  0  0  0  0  0  0  0  0  0
   26.5077  -19.4476  -18.2836 C   0  0  0  0  0  0  0  0  0  0  0  0
   26.2138  -20.0388  -19.3603 O   0  0  0  0  0  0  0  0  0  0  0  0
   25.4710  -19.2486  -17.3388 N   0  0  0  0  0  0  0  0  0  0  0  0
   24.0973  -19.6550  -17.5187 C   0  0  1  0  0  0  0  0  0  0  0  0
   23.9044  -21.0592  -17.9542 C   0  0  0  0  0  0  0  0  0  0  0  0
   22.5033  -21.5416  -18.0637 C   0  0  0  0  0  0  0  0  0  0  0  0
   22.5740  -22.9910  -18.4712 C   0  0  0  0  0  0  0  0  0  0  0  0
   23.6865  -23.5615  -18.6076 O   0  0  0  0  0  0  0  0  0  0  0  0
   23.2237  -19.2204  -16.3995 C   0  0  0  0  0  0  0  0  0  0  0  0
   23.5314  -19.5411  -15.2351 O   0  0  0  0  0  0  0  0  0  0  0  0
   21.4361  -23.7491  -18.7104 O   0  0  0  0  0  0  0  0  0  0  0  0
   22.0648  -18.4612  -16.6168 N   0  0  0  0  0  0  0  0  0  0  0  0
   21.2418  -17.9325  -15.5184 C   0  0  1  0  0  0  0  0  0  0  0  0
   21.2640  -16.4432  -15.6540 C   0  0  0  0  0  0  0  0  0  0  0  0
   20.7300  -15.9493  -16.9418 C   0  0  0  0  0  0  0  0  0  0  0  0
   19.4087  -15.8123  -17.3003 C   0  0  0  0  0  0  0  0  0  0  0  0
   19.3719  -15.3300  -18.5541 N   0  0  0  0  0  0  0  0  0  0  0  0
   20.6095  -15.1498  -19.0203 C   0  0  0  0  0  0  0  0  0  0  0  0
   21.1133  -14.6806  -20.2406 C   0  0  0  0  0  0  0  0  0  0  0  0
   22.4686  -14.5924  -20.4695 C   0  0  0  0  0  0  0  0  0  0  0  0
   23.3100  -14.9822  -19.4551 C   0  0  0  0  0  0  0  0  0  0  0  0
   22.8424  -15.4432  -18.2555 C   0  0  0  0  0  0  0  0  0  0  0  0
   21.4710  -15.5336  -18.0210 C   0  0  0  0  0  0  0  0  0  0  0  0
   19.8714  -18.4911  -15.5758 C   0  0  0  0  0  0  0  0  0  0  0  0
   19.4183  -19.1602  -16.5328 O   0  0  0  0  0  0  0  0  0  0  0  0
   19.0313  -18.2586  -14.4983 O   0  0  0  0  0  0  0  0  0  0  0  0
  1  2  1  0
  3  2  1  0
  3  5  1  0
  3  4  1  1
  5  6  1  6
  7  5  1  0
  7  8  2  0
  9  7  1  0
 10  9  1  0
 10 15  1  0
 10 11  1  1
 12 11  1  0
 13 12  1  0
 13 14  2  0
 15 16  2  0
 15 18  1  0
 17 13  1  0
 18 19  1  0
 19 30  1  0
 19 20  1  6
 21 29  1  0
 21 20  1  0
 22 21  2  0
 23 22  1  0
 23 24  1  0
 24 25  1  0
 24 29  2  0
 25 26  2  0
 26 27  1  0
 28 27  2  0
 29 28  1  0
 30 31  2  0
 30 32  1  0
M  END
$$$$
