IEW.pdb
     RDKit          3D

 32 33  0  0  1  0  0  0  0  0999 V2000
   31.2012  -21.2724  -18.2202 C   0  0  0  0  0  0  0  0  0  0  0  0
   30.0088  -20.4341  -18.6279 C   0  0  0  0  0  0  0  0  0  0  0  0
   29.1763  -20.1615  -17.3999 C   0  0  2  0  0  0  0  0  0  0  0  0
   28.6339  -21.4925  -16.9229 C   0  0  0  0  0  0  0  0  0  0  0  0
   28.0238  -19.2711  -17.7047 C   0  0  2  0  0  0  0  0  0  0  0  0
   28.4286  -18.0201  -18.2531 N   0  0  0  0  0  0  0  0  0  0  0  0
   27.1404  -19.0278  -16.5375 C   0  0  0  0  0  0  0  0  0  0  0  0
   27.4192  -18.1645  -15.6588 O   0  0  0  0  0  0  0  0  0  0  0  0
   25.9436  -19.7683  -16.3750 N   0  0  0  0  0  0  0  0  0  0  0  0
   25.0128  -19.6087  -15.2829 C   0  0  1  0  0  0  0  0  0  0  0  0
   23.6540  -19.1585  -15.6698 C   0  0  0  0  0  0  0  0  0  0  0  0
   23.5575  -17.8714  -16.4059 C   0  0  0  0  0  0  0  0  0  0  0  0
   22.0972  -17.6527  -16.7079 C   0  0  0  0  0  0  0  0  0  0  0  0
   21.4692  -16.7059  -16.1684 O   0  0  0  0  0  0  0  0  0  0  0  0
   25.0482  -20.7498  -14.3333 C   0  0  0  0  0  0  0  0  0  0  0  0
   25.7654  -21.7335  -14.5998 O   0  0  0  0  0  0  0  0  0  0  0  0
   21.3908  -18.4705  -17.5790 O   0  0  0  0  0  0  0  0  0  0  0  0
   24.2980  -20.7503  -13.1485 N   0  0  0  0  0  0  0  0  0  0  0  0
   24.3660  -21.8406  -12.1636 C   0  0  1  0  0  0  0  0  0  0  0  0
   25.7604  -21.8336  -11.6226 C   0  0  0  0  0  0  0  0  0  0  0  0
   25.9550  -20.9201  -10.4758 C   0  0  0  0  0  0  0  0  0  0  0  0
   25.0398  -20.0414   -9.9435 C   0  0  0  0  0  0  0  0  0  0  0  0
   25.6284  -19.4100   -8.9136 N   0  0  0  0  0  0  0  0  0  0  0  0
   26.8817  -19.8416   -8.7575 C   0  0  0  0  0  0  0  0  0  0  0  0
   27.9009  -19.5141   -7.8536 C   0  0  0  0  0  0  0  0  0  0  0  0
   29.1343  -20.1239   -7.9133 C   0  0  0  0  0  0  0  0  0  0  0  0
   29.3291  -21.0671   -8.8938 C   0  0  0  0  0  0  0  0  0  0  0  0
   28.3500  -21.4038   -9.7874 C   0  0  0  0  0  0  0  0  0  0  0  0
   27.1005  -20.7882   -9.7294 C   0  0  0  0  0  0  0  0  0  0  0  0
   23.3429  -21.6574  -11.1087 C   0  0  0  0  0  0  0  0  0  0  0  0
   23.0685  -22.5089  -10.2320 O   0  0  0  0  0  0  0  0  0  0  0  0
   22.6397  -20.4633  -11.0885 O   0  0  0  0  0  0  0  0  0  0  0  0
  1  2  1  0
  3  2  1  0
  3  5  1  0
  3  4  1  6
  5  6  1  1
  7  5  1  0
  7  8  2  0
  9  7  1  0
 10  9  1  0
 10 15  1  0
 10 11  1  6
 12 11  1  0
 13 12  1  0
 13 14  2  0
 15 16  2  0
 15 18  1  0
 17 13  1  0
 18 19  1  0
 19 30  1  0
 19 20  1  1
 21 29  1  0
 21 20  1  0
 22 21  2  0
 23 22  1  0
 23 24  1  0
 24 25  1  0
 24 29  2  0
 25 26  2  0
 26 27  1  0
 28 27  2  0
 29 28  1  0
 30 31  2  0
 30 32  1  0
M  END
$$$$
