IEW.pdb
     RDKit          3D

 32 33  0  0  1  0  0  0  0  0999 V2000
   28.5785  -16.0285  -18.7857 C   0  0  0  0  0  0  0  0  0  0  0  0
   28.9950  -16.9862  -17.6902 C   0  0  0  0  0  0  0  0  0  0  0  0
   27.7712  -17.3539  -16.8887 C   0  0  2  0  0  0  0  0  0  0  0  0
   27.2144  -16.0706  -16.3088 C   0  0  0  0  0  0  0  0  0  0  0  0
   28.1066  -18.2668  -15.7626 C   0  0  2  0  0  0  0  0  0  0  0  0
   28.9764  -19.3245  -16.1558 N   0  0  0  0  0  0  0  0  0  0  0  0
   26.9137  -18.8413  -15.0925 C   0  0  0  0  0  0  0  0  0  0  0  0
   26.0213  -18.1105  -14.5780 O   0  0  0  0  0  0  0  0  0  0  0  0
   26.7415  -20.2451  -15.0107 N   0  0  0  0  0  0  0  0  0  0  0  0
   25.6011  -20.9067  -14.4222 C   0  0  1  0  0  0  0  0  0  0  0  0
   24.9935  -21.9768  -15.2495 C   0  0  0  0  0  0  0  0  0  0  0  0
   23.8531  -22.7201  -14.6538 C   0  0  0  0  0  0  0  0  0  0  0  0
   24.3744  -24.0820  -14.2728 C   0  0  0  0  0  0  0  0  0  0  0  0
   23.8229  -24.7421  -13.3553 O   0  0  0  0  0  0  0  0  0  0  0  0
   25.8228  -21.2651  -12.9984 C   0  0  0  0  0  0  0  0  0  0  0  0
   26.9057  -21.7873  -12.6700 O   0  0  0  0  0  0  0  0  0  0  0  0
   25.4667  -24.6599  -14.9047 O   0  0  0  0  0  0  0  0  0  0  0  0
   24.8491  -21.0327  -12.0163 N   0  0  0  0  0  0  0  0  0  0  0  0
   25.1036  -21.2286  -10.5809 C   0  0  1  0  0  0  0  0  0  0  0  0
   26.3238  -20.4271  -10.2558 C   0  0  0  0  0  0  0  0  0  0  0  0
   26.4902  -20.1447   -8.8136 C   0  0  0  0  0  0  0  0  0  0  0  0
   25.4978  -19.9376   -7.8833 C   0  0  0  0  0  0  0  0  0  0  0  0
   26.0879  -19.7168   -6.6964 N   0  0  0  0  0  0  0  0  0  0  0  0
   27.4158  -19.7722   -6.8189 C   0  0  0  0  0  0  0  0  0  0  0  0
   28.4681  -19.6160   -5.9072 C   0  0  0  0  0  0  0  0  0  0  0  0
   29.7823  -19.7247   -6.3047 C   0  0  0  0  0  0  0  0  0  0  0  0
   30.0239  -19.9925   -7.6310 C   0  0  0  0  0  0  0  0  0  0  0  0
   29.0138  -20.1492   -8.5397 C   0  0  0  0  0  0  0  0  0  0  0  0
   27.6826  -20.0396   -8.1401 C   0  0  0  0  0  0  0  0  0  0  0  0
   23.9247  -20.8247   -9.7807 C   0  0  0  0  0  0  0  0  0  0  0  0
   23.1357  -19.9043  -10.0959 O   0  0  0  0  0  0  0  0  0  0  0  0
   23.6757  -21.5104   -8.6024 O   0  0  0  0  0  0  0  0  0  0  0  0
  1  2  1  0
  3  2  1  0
  3  5  1  0
  3  4  1  1
  5  6  1  6
  7  5  1  0
  7  8  2  0
  9  7  1  0
 10  9  1  0
 10 15  1  0
 10 11  1  6
 12 11  1  0
 13 12  1  0
 13 14  2  0
 15 16  2  0
 15 18  1  0
 17 13  1  0
 18 19  1  0
 19 30  1  0
 19 20  1  1
 21 29  1  0
 21 20  1  0
 22 21  2  0
 23 22  1  0
 23 24  1  0
 24 25  1  0
 24 29  2  0
 25 26  2  0
 26 27  1  0
 28 27  2  0
 29 28  1  0
 30 31  2  0
 30 32  1  0
M  END
$$$$
