IEW.pdb
     RDKit          3D

 32 33  0  0  1  0  0  0  0  0999 V2000
   25.5253  -19.0786  -20.2874 C   0  0  0  0  0  0  0  0  0  0  0  0
   24.2154  -19.5128  -19.6659 C   0  0  0  0  0  0  0  0  0  0  0  0
   24.2100  -19.0852  -18.2194 C   0  0  2  0  0  0  0  0  0  0  0  0
   25.3793  -19.7723  -17.5457 C   0  0  0  0  0  0  0  0  0  0  0  0
   22.9615  -19.5051  -17.5275 C   0  0  2  0  0  0  0  0  0  0  0  0
   21.7923  -18.9507  -18.1237 N   0  0  0  0  0  0  0  0  0  0  0  0
   22.9592  -19.1993  -16.0755 C   0  0  0  0  0  0  0  0  0  0  0  0
   23.1719  -18.0332  -15.6394 O   0  0  0  0  0  0  0  0  0  0  0  0
   22.7151  -20.2218  -15.1258 N   0  0  0  0  0  0  0  0  0  0  0  0
   22.7427  -20.0452  -13.6931 C   0  0  1  0  0  0  0  0  0  0  0  0
   21.4507  -20.2731  -13.0021 C   0  0  0  0  0  0  0  0  0  0  0  0
   20.3248  -19.3764  -13.3710 C   0  0  0  0  0  0  0  0  0  0  0  0
   19.1376  -20.2624  -13.6490 C   0  0  0  0  0  0  0  0  0  0  0  0
   18.4539  -20.7284  -12.7018 O   0  0  0  0  0  0  0  0  0  0  0  0
   23.9155  -20.7009  -13.0611 C   0  0  0  0  0  0  0  0  0  0  0  0
   24.2430  -21.8429  -13.4377 O   0  0  0  0  0  0  0  0  0  0  0  0
   18.7509  -20.5988  -14.9389 O   0  0  0  0  0  0  0  0  0  0  0  0
   24.6621  -20.0716  -12.0545 N   0  0  0  0  0  0  0  0  0  0  0  0
   25.7200  -20.7602  -11.2995 C   0  0  1  0  0  0  0  0  0  0  0  0
   26.7622  -19.7303  -10.9993 C   0  0  0  0  0  0  0  0  0  0  0  0
   27.8519  -20.2158  -10.1251 C   0  0  0  0  0  0  0  0  0  0  0  0
   28.7752  -21.1960  -10.4076 C   0  0  0  0  0  0  0  0  0  0  0  0
   29.5818  -21.3197   -9.3400 N   0  0  0  0  0  0  0  0  0  0  0  0
   29.2206  -20.4637   -8.3817 C   0  0  0  0  0  0  0  0  0  0  0  0
   29.7200  -20.1955   -7.1003 C   0  0  0  0  0  0  0  0  0  0  0  0
   29.1470  -19.2368   -6.2945 C   0  0  0  0  0  0  0  0  0  0  0  0
   28.0655  -18.5517   -6.7943 C   0  0  0  0  0  0  0  0  0  0  0  0
   27.5600  -18.7953   -8.0415 C   0  0  0  0  0  0  0  0  0  0  0  0
   28.1379  -19.7652   -8.8594 C   0  0  0  0  0  0  0  0  0  0  0  0
   25.1670  -21.3868  -10.0769 C   0  0  0  0  0  0  0  0  0  0  0  0
   24.1738  -20.9560   -9.4468 O   0  0  0  0  0  0  0  0  0  0  0  0
   25.7893  -22.5277   -9.5954 O   0  0  0  0  0  0  0  0  0  0  0  0
  1  2  1  0
  3  2  1  0
  3  5  1  0
  3  4  1  1
  5  6  1  6
  7  5  1  0
  7  8  2  0
  9  7  1  0
 10  9  1  0
 10 15  1  0
 10 11  1  1
 12 11  1  0
 13 12  1  0
 13 14  2  0
 15 16  2  0
 15 18  1  0
 17 13  1  0
 18 19  1  0
 19 30  1  0
 19 20  1  1
 21 29  1  0
 21 20  1  0
 22 21  2  0
 23 22  1  0
 23 24  1  0
 24 25  1  0
 24 29  2  0
 25 26  2  0
 26 27  1  0
 28 27  2  0
 29 28  1  0
 30 31  2  0
 30 32  1  0
M  END
$$$$
