IEW.pdb
     RDKit          3D

 32 33  0  0  1  0  0  0  0  0999 V2000
   20.8450  -13.9847  -15.6119 C   0  0  0  0  0  0  0  0  0  0  0  0
   20.1276  -13.3153  -16.7643 C   0  0  0  0  0  0  0  0  0  0  0  0
   20.5579  -11.8706  -16.8181 C   0  0  2  0  0  0  0  0  0  0  0  0
   20.0515  -11.2059  -15.5552 C   0  0  0  0  0  0  0  0  0  0  0  0
   19.9650  -11.1644  -17.9859 C   0  0  2  0  0  0  0  0  0  0  0  0
   20.2081  -11.8410  -19.2159 N   0  0  0  0  0  0  0  0  0  0  0  0
   20.4082   -9.7538  -18.1106 C   0  0  0  0  0  0  0  0  0  0  0  0
   21.4938   -9.4435  -18.6766 O   0  0  0  0  0  0  0  0  0  0  0  0
   19.6141   -8.7021  -17.5905 N   0  0  0  0  0  0  0  0  0  0  0  0
   19.9071   -7.2954  -17.7315 C   0  0  1  0  0  0  0  0  0  0  0  0
   19.0581   -6.5663  -18.7043 C   0  0  0  0  0  0  0  0  0  0  0  0
   19.3893   -5.1382  -18.9462 C   0  0  0  0  0  0  0  0  0  0  0  0
   18.3927   -4.6263  -19.9543 C   0  0  0  0  0  0  0  0  0  0  0  0
   17.2328   -4.2989  -19.5948 O   0  0  0  0  0  0  0  0  0  0  0  0
   20.0847   -6.6168  -16.4228 C   0  0  0  0  0  0  0  0  0  0  0  0
   19.2213   -6.7774  -15.5385 O   0  0  0  0  0  0  0  0  0  0  0  0
   18.7027   -4.4950  -21.3009 O   0  0  0  0  0  0  0  0  0  0  0  0
   21.1946   -5.8021  -16.1560 N   0  0  0  0  0  0  0  0  0  0  0  0
   21.3949   -5.1277  -14.8643 C   0  0  1  0  0  0  0  0  0  0  0  0
   22.7425   -5.5509  -14.3724 C   0  0  0  0  0  0  0  0  0  0  0  0
   22.8525   -6.9992  -14.0936 C   0  0  0  0  0  0  0  0  0  0  0  0
   22.0108   -7.7674  -13.3225 C   0  0  0  0  0  0  0  0  0  0  0  0
   22.4767   -9.0278  -13.3378 N   0  0  0  0  0  0  0  0  0  0  0  0
   23.5807   -9.1073  -14.0838 C   0  0  0  0  0  0  0  0  0  0  0  0
   24.4358  -10.1658  -14.4174 C   0  0  0  0  0  0  0  0  0  0  0  0
   25.5342   -9.9718  -15.2254 C   0  0  0  0  0  0  0  0  0  0  0  0
   25.7609   -8.6995  -15.6931 C   0  0  0  0  0  0  0  0  0  0  0  0
   24.9408   -7.6504  -15.3816 C   0  0  0  0  0  0  0  0  0  0  0  0
   23.8283   -7.8437  -14.5639 C   0  0  0  0  0  0  0  0  0  0  0  0
   21.2775   -3.6593  -15.0170 C   0  0  0  0  0  0  0  0  0  0  0  0
   21.0051   -3.0781  -16.0926 O   0  0  0  0  0  0  0  0  0  0  0  0
   21.4829   -2.8727  -13.8946 O   0  0  0  0  0  0  0  0  0  0  0  0
  1  2  1  0
  3  2  1  0
  3  5  1  0
  3  4  1  1
  5  6  1  6
  7  5  1  0
  7  8  2  0
  9  7  1  0
 10  9  1  0
 10 15  1  0
 10 11  1  1
 12 11  1  0
 13 12  1  0
 13 14  2  0
 15 16  2  0
 15 18  1  0
 17 13  1  0
 18 19  1  0
 19 30  1  0
 19 20  1  6
 21 29  1  0
 21 20  1  0
 22 21  2  0
 23 22  1  0
 23 24  1  0
 24 25  1  0
 24 29  2  0
 25 26  2  0
 26 27  1  0
 28 27  2  0
 29 28  1  0
 30 31  2  0
 30 32  1  0
M  END
$$$$
