IEW.pdb
     RDKit          3D

 32 33  0  0  1  0  0  0  0  0999 V2000
   35.9092  -24.3504  -14.1057 C   0  0  0  0  0  0  0  0  0  0  0  0
   34.5024  -24.9068  -14.0597 C   0  0  0  0  0  0  0  0  0  0  0  0
   33.5348  -23.7507  -14.0065 C   0  0  2  0  0  0  0  0  0  0  0  0
   33.7698  -23.0311  -12.6950 C   0  0  0  0  0  0  0  0  0  0  0  0
   32.1218  -24.2159  -14.0358 C   0  0  2  0  0  0  0  0  0  0  0  0
   31.8733  -25.1459  -15.0861 N   0  0  0  0  0  0  0  0  0  0  0  0
   31.1372  -23.1092  -14.1227 C   0  0  0  0  0  0  0  0  0  0  0  0
   31.0399  -22.2309  -13.2203 O   0  0  0  0  0  0  0  0  0  0  0  0
   30.2674  -23.0066  -15.2363 N   0  0  0  0  0  0  0  0  0  0  0  0
   29.2579  -21.9887  -15.4077 C   0  0  1  0  0  0  0  0  0  0  0  0
   29.0517  -21.5301  -16.8027 C   0  0  0  0  0  0  0  0  0  0  0  0
   28.0446  -20.4585  -17.0151 C   0  0  0  0  0  0  0  0  0  0  0  0
   27.6474  -20.5180  -18.4678 C   0  0  0  0  0  0  0  0  0  0  0  0
   28.4846  -20.8530  -19.3446 O   0  0  0  0  0  0  0  0  0  0  0  0
   28.0129  -22.2891  -14.6564 C   0  0  0  0  0  0  0  0  0  0  0  0
   27.7762  -23.4682  -14.3291 O   0  0  0  0  0  0  0  0  0  0  0  0
   26.3636  -20.2117  -18.8974 O   0  0  0  0  0  0  0  0  0  0  0  0
   27.0988  -21.2848  -14.3065 N   0  0  0  0  0  0  0  0  0  0  0  0
   26.3951  -21.2636  -13.0151 C   0  0  1  0  0  0  0  0  0  0  0  0
   27.4514  -21.1628  -11.9610 C   0  0  0  0  0  0  0  0  0  0  0  0
   26.9216  -20.9243  -10.6009 C   0  0  0  0  0  0  0  0  0  0  0  0
   25.6358  -21.1318  -10.1572 C   0  0  0  0  0  0  0  0  0  0  0  0
   25.5893  -20.7879   -8.8591 N   0  0  0  0  0  0  0  0  0  0  0  0
   26.7868  -20.3679   -8.4453 C   0  0  0  0  0  0  0  0  0  0  0  0
   27.2653  -19.9066   -7.2118 C   0  0  0  0  0  0  0  0  0  0  0  0
   28.5789  -19.5254   -7.0504 C   0  0  0  0  0  0  0  0  0  0  0  0
   29.4044  -19.6143   -8.1456 C   0  0  0  0  0  0  0  0  0  0  0  0
   28.9609  -20.0614   -9.3596 C   0  0  0  0  0  0  0  0  0  0  0  0
   27.6318  -20.4479   -9.5260 C   0  0  0  0  0  0  0  0  0  0  0  0
   25.4284  -20.1428  -12.9644 C   0  0  0  0  0  0  0  0  0  0  0  0
   24.3597  -20.1577  -12.3112 O   0  0  0  0  0  0  0  0  0  0  0  0
   25.7243  -18.9987  -13.6884 O   0  0  0  0  0  0  0  0  0  0  0  0
  1  2  1  0
  3  2  1  0
  3  5  1  0
  3  4  1  1
  5  6  1  6
  7  5  1  0
  7  8  2  0
  9  7  1  0
 10  9  1  0
 10 15  1  0
 10 11  1  6
 12 11  1  0
 13 12  1  0
 13 14  2  0
 15 16  2  0
 15 18  1  0
 17 13  1  0
 18 19  1  0
 19 30  1  0
 19 20  1  1
 21 29  1  0
 21 20  1  0
 22 21  2  0
 23 22  1  0
 23 24  1  0
 24 25  1  0
 24 29  2  0
 25 26  2  0
 26 27  1  0
 28 27  2  0
 29 28  1  0
 30 31  2  0
 30 32  1  0
M  END
$$$$
