IEW.pdb
     RDKit          3D

 32 33  0  0  1  0  0  0  0  0999 V2000
   27.6765  -14.6141  -16.2116 C   0  0  0  0  0  0  0  0  0  0  0  0
   27.1285  -15.7739  -17.0150 C   0  0  0  0  0  0  0  0  0  0  0  0
   26.3715  -16.6846  -16.0806 C   0  0  2  0  0  0  0  0  0  0  0  0
   27.3911  -17.3449  -15.1765 C   0  0  0  0  0  0  0  0  0  0  0  0
   25.6463  -17.7516  -16.8221 C   0  0  2  0  0  0  0  0  0  0  0  0
   24.7554  -17.2279  -17.8028 N   0  0  0  0  0  0  0  0  0  0  0  0
   24.9039  -18.6845  -15.9388 C   0  0  0  0  0  0  0  0  0  0  0  0
   23.7844  -18.3810  -15.4390 O   0  0  0  0  0  0  0  0  0  0  0  0
   25.4387  -19.9590  -15.6278 N   0  0  0  0  0  0  0  0  0  0  0  0
   24.7891  -20.9514  -14.8045 C   0  0  1  0  0  0  0  0  0  0  0  0
   24.4496  -22.2206  -15.4919 C   0  0  0  0  0  0  0  0  0  0  0  0
   23.8045  -23.2773  -14.6703 C   0  0  0  0  0  0  0  0  0  0  0  0
   24.9102  -24.1648  -14.1589 C   0  0  0  0  0  0  0  0  0  0  0  0
   25.9020  -24.4306  -14.8851 O   0  0  0  0  0  0  0  0  0  0  0  0
   25.4442  -21.1111  -13.4815 C   0  0  0  0  0  0  0  0  0  0  0  0
   26.6812  -21.2560  -13.4351 O   0  0  0  0  0  0  0  0  0  0  0  0
   24.8857  -24.7195  -12.8868 O   0  0  0  0  0  0  0  0  0  0  0  0
   24.7104  -21.1037  -12.2865 N   0  0  0  0  0  0  0  0  0  0  0  0
   25.3440  -21.2017  -10.9627 C   0  0  1  0  0  0  0  0  0  0  0  0
   26.3515  -20.0983  -10.8948 C   0  0  0  0  0  0  0  0  0  0  0  0
   27.5626  -20.4380  -10.1167 C   0  0  0  0  0  0  0  0  0  0  0  0
   28.6288  -21.2061  -10.5244 C   0  0  0  0  0  0  0  0  0  0  0  0
   29.5084  -21.2583   -9.5099 N   0  0  0  0  0  0  0  0  0  0  0  0
   29.0579  -20.5586   -8.4663 C   0  0  0  0  0  0  0  0  0  0  0  0
   29.5781  -20.2998   -7.1914 C   0  0  0  0  0  0  0  0  0  0  0  0
   28.8917  -19.5273   -6.2810 C   0  0  0  0  0  0  0  0  0  0  0  0
   27.6755  -19.0187   -6.6698 C   0  0  0  0  0  0  0  0  0  0  0  0
   27.1469  -19.2571   -7.9084 C   0  0  0  0  0  0  0  0  0  0  0  0
   27.8395  -20.0388   -8.8320 C   0  0  0  0  0  0  0  0  0  0  0  0
   24.3280  -21.1147   -9.8887 C   0  0  0  0  0  0  0  0  0  0  0  0
   23.2057  -20.5733  -10.0169 O   0  0  0  0  0  0  0  0  0  0  0  0
   24.6381  -21.6692   -8.6570 O   0  0  0  0  0  0  0  0  0  0  0  0
  1  2  1  0
  3  2  1  0
  3  5  1  0
  3  4  1  1
  5  6  1  6
  7  5  1  0
  7  8  2  0
  9  7  1  0
 10  9  1  0
 10 15  1  0
 10 11  1  6
 12 11  1  0
 13 12  1  0
 13 14  2  0
 15 16  2  0
 15 18  1  0
 17 13  1  0
 18 19  1  0
 19 30  1  0
 19 20  1  1
 21 29  1  0
 21 20  1  0
 22 21  2  0
 23 22  1  0
 23 24  1  0
 24 25  1  0
 24 29  2  0
 25 26  2  0
 26 27  1  0
 28 27  2  0
 29 28  1  0
 30 31  2  0
 30 32  1  0
M  END
$$$$
