IEW.pdb
     RDKit          3D

 32 33  0  0  1  0  0  0  0  0999 V2000
   26.4364  -12.8494  -16.6343 C   0  0  0  0  0  0  0  0  0  0  0  0
   27.1683  -14.0566  -17.1800 C   0  0  0  0  0  0  0  0  0  0  0  0
   26.2109  -15.2220  -17.2061 C   0  0  2  0  0  0  0  0  0  0  0  0
   25.8717  -15.5542  -15.7681 C   0  0  0  0  0  0  0  0  0  0  0  0
   26.8270  -16.4247  -17.8290 C   0  0  2  0  0  0  0  0  0  0  0  0
   27.3193  -16.1699  -19.1415 N   0  0  0  0  0  0  0  0  0  0  0  0
   25.9210  -17.5992  -17.8686 C   0  0  0  0  0  0  0  0  0  0  0  0
   24.8927  -17.6236  -18.6016 O   0  0  0  0  0  0  0  0  0  0  0  0
   26.1889  -18.7409  -17.0738 N   0  0  0  0  0  0  0  0  0  0  0  0
   25.3519  -19.9152  -17.0022 C   0  0  1  0  0  0  0  0  0  0  0  0
   26.0767  -21.2023  -16.8729 C   0  0  0  0  0  0  0  0  0  0  0  0
   25.2507  -22.4367  -16.8328 C   0  0  0  0  0  0  0  0  0  0  0  0
   26.2078  -23.5959  -16.7234 C   0  0  0  0  0  0  0  0  0  0  0  0
   25.7760  -24.7752  -16.6555 O   0  0  0  0  0  0  0  0  0  0  0  0
   24.2085  -19.7435  -16.0706 C   0  0  0  0  0  0  0  0  0  0  0  0
   24.4275  -19.3191  -14.9194 O   0  0  0  0  0  0  0  0  0  0  0  0
   27.5842  -23.4191  -16.6931 O   0  0  0  0  0  0  0  0  0  0  0  0
   22.8927  -20.0455  -16.4500 N   0  0  0  0  0  0  0  0  0  0  0  0
   21.7435  -19.8664  -15.5497 C   0  0  1  0  0  0  0  0  0  0  0  0
   21.4073  -18.4093  -15.5798 C   0  0  0  0  0  0  0  0  0  0  0  0
   20.6672  -17.9887  -16.7893 C   0  0  0  0  0  0  0  0  0  0  0  0
   19.3988  -18.3665  -17.1656 C   0  0  0  0  0  0  0  0  0  0  0  0
   19.1153  -17.7518  -18.3265 N   0  0  0  0  0  0  0  0  0  0  0  0
   20.1432  -16.9948  -18.7159 C   0  0  0  0  0  0  0  0  0  0  0  0
   20.3564  -16.1692  -19.8277 C   0  0  0  0  0  0  0  0  0  0  0  0
   21.5386  -15.4824  -19.9936 C   0  0  0  0  0  0  0  0  0  0  0  0
   22.5032  -15.6369  -19.0269 C   0  0  0  0  0  0  0  0  0  0  0  0
   22.3187  -16.4368  -17.9330 C   0  0  0  0  0  0  0  0  0  0  0  0
   21.1230  -17.1332  -17.7624 C   0  0  0  0  0  0  0  0  0  0  0  0
   20.6109  -20.7229  -15.9702 C   0  0  0  0  0  0  0  0  0  0  0  0
   20.5704  -21.3681  -17.0432 O   0  0  0  0  0  0  0  0  0  0  0  0
   19.5203  -20.8185  -15.1204 O   0  0  0  0  0  0  0  0  0  0  0  0
  1  2  1  0
  3  2  1  0
  3  5  1  0
  3  4  1  1
  5  6  1  6
  7  5  1  0
  7  8  2  0
  9  7  1  0
 10  9  1  0
 10 15  1  0
 10 11  1  1
 12 11  1  0
 13 12  1  0
 13 14  2  0
 15 16  2  0
 15 18  1  0
 17 13  1  0
 18 19  1  0
 19 30  1  0
 19 20  1  6
 21 29  1  0
 21 20  1  0
 22 21  2  0
 23 22  1  0
 23 24  1  0
 24 25  1  0
 24 29  2  0
 25 26  2  0
 26 27  1  0
 28 27  2  0
 29 28  1  0
 30 31  2  0
 30 32  1  0
M  END
$$$$
