IEW.pdb
     RDKit          3D

 32 33  0  0  1  0  0  0  0  0999 V2000
   28.1937  -19.1614  -18.9970 C   0  0  0  0  0  0  0  0  0  0  0  0
   28.4042  -20.2985  -18.0206 C   0  0  0  0  0  0  0  0  0  0  0  0
   27.2279  -20.3398  -17.0772 C   0  0  2  0  0  0  0  0  0  0  0  0
   27.1955  -19.0146  -16.3449 C   0  0  0  0  0  0  0  0  0  0  0  0
   27.3703  -21.4253  -16.0695 C   0  0  2  0  0  0  0  0  0  0  0  0
   27.4911  -22.7135  -16.6661 N   0  0  0  0  0  0  0  0  0  0  0  0
   26.2727  -21.4524  -15.0713 C   0  0  0  0  0  0  0  0  0  0  0  0
   25.1866  -22.0584  -15.2908 O   0  0  0  0  0  0  0  0  0  0  0  0
   26.4157  -20.7894  -13.8275 N   0  0  0  0  0  0  0  0  0  0  0  0
   25.4104  -20.7452  -12.7921 C   0  0  1  0  0  0  0  0  0  0  0  0
   25.9304  -20.6089  -11.4102 C   0  0  0  0  0  0  0  0  0  0  0  0
   24.9268  -20.4197  -10.3310 C   0  0  0  0  0  0  0  0  0  0  0  0
   24.9783  -21.6551   -9.4691 C   0  0  0  0  0  0  0  0  0  0  0  0
   25.9204  -22.4792   -9.5915 O   0  0  0  0  0  0  0  0  0  0  0  0
   24.2843  -19.8383  -13.1303 C   0  0  0  0  0  0  0  0  0  0  0  0
   24.5170  -18.6256  -13.2991 O   0  0  0  0  0  0  0  0  0  0  0  0
   24.0068  -21.9353   -8.5181 O   0  0  0  0  0  0  0  0  0  0  0  0
   22.9698  -20.3084  -13.2639 N   0  0  0  0  0  0  0  0  0  0  0  0
   21.8297  -19.4187  -13.5323 C   0  0  1  0  0  0  0  0  0  0  0  0
   22.0892  -18.7912  -14.8650 C   0  0  0  0  0  0  0  0  0  0  0  0
   21.9822  -19.7308  -16.0022 C   0  0  0  0  0  0  0  0  0  0  0  0
   20.9708  -20.6302  -16.2500 C   0  0  0  0  0  0  0  0  0  0  0  0
   21.2706  -21.2815  -17.3866 N   0  0  0  0  0  0  0  0  0  0  0  0
   22.4293  -20.8430  -17.8830 C   0  0  0  0  0  0  0  0  0  0  0  0
   23.1731  -21.1836  -19.0205 C   0  0  0  0  0  0  0  0  0  0  0  0
   24.3680  -20.5619  -19.3076 C   0  0  0  0  0  0  0  0  0  0  0  0
   24.8048  -19.5934  -18.4358 C   0  0  0  0  0  0  0  0  0  0  0  0
   24.0968  -19.2434  -17.3193 C   0  0  0  0  0  0  0  0  0  0  0  0
   22.8870  -19.8710  -17.0261 C   0  0  0  0  0  0  0  0  0  0  0  0
   20.5565  -20.1741  -13.4946 C   0  0  0  0  0  0  0  0  0  0  0  0
   20.4658  -21.3985  -13.2462 O   0  0  0  0  0  0  0  0  0  0  0  0
   19.3841  -19.4812  -13.7516 O   0  0  0  0  0  0  0  0  0  0  0  0
  1  2  1  0
  3  2  1  0
  3  5  1  0
  3  4  1  1
  5  6  1  6
  7  5  1  0
  7  8  2  0
  9  7  1  0
 10  9  1  0
 10 15  1  0
 10 11  1  1
 12 11  1  0
 13 12  1  0
 13 14  2  0
 15 16  2  0
 15 18  1  0
 17 13  1  0
 18 19  1  0
 19 30  1  0
 19 20  1  6
 21 29  1  0
 21 20  1  0
 22 21  2  0
 23 22  1  0
 23 24  1  0
 24 25  1  0
 24 29  2  0
 25 26  2  0
 26 27  1  0
 28 27  2  0
 29 28  1  0
 30 31  2  0
 30 32  1  0
M  END
$$$$
