ETY.pdb
     RDKit          3D

 29 29  0  0  1  0  0  0  0  0999 V2000
   16.0538  -11.6106  -16.8936 N   0  0  0  0  0  0  0  0  0  0  0  0
   17.2493  -11.3388  -16.1585 C   0  0  1  0  0  0  0  0  0  0  0  0
   18.2234  -12.4474  -16.0229 C   0  0  0  0  0  0  0  0  0  0  0  0
   17.7134  -13.7866  -15.6604 C   0  0  0  0  0  0  0  0  0  0  0  0
   18.6789  -14.8703  -15.5004 C   0  0  0  0  0  0  0  0  0  0  0  0
   19.8933  -14.7105  -15.6783 O   0  0  0  0  0  0  0  0  0  0  0  0
   17.9041  -10.0711  -16.6317 C   0  0  0  0  0  0  0  0  0  0  0  0
   17.9836   -9.8008  -17.8763 O   0  0  0  0  0  0  0  0  0  0  0  0
   18.2142  -16.1238  -15.1356 O   0  0  0  0  0  0  0  0  0  0  0  0
   17.4725   -7.5136  -18.1268 C   0  0  0  0  0  0  0  0  0  0  0  0
   18.0360   -6.9924  -16.8290 C   0  0  1  0  0  0  0  0  0  0  0  0
   17.0149   -6.8170  -15.9181 O   0  0  0  0  0  0  0  0  0  0  0  0
   19.0697   -7.9030  -16.2336 C   0  0  2  0  0  0  0  0  0  0  0  0
   18.4528   -9.1372  -15.7165 N   0  0  0  0  0  0  0  0  0  0  0  0
   19.6362   -7.1965  -15.0395 C   0  0  0  0  0  0  0  0  0  0  0  0
   19.5268   -7.6883  -13.8714 O   0  0  0  0  0  0  0  0  0  0  0  0
   25.7654   -6.7558  -17.7167 O   0  0  0  0  0  0  0  0  0  0  0  0
   24.8659   -6.6232  -16.6864 C   0  0  0  0  0  0  0  0  0  0  0  0
   24.0862   -7.7021  -16.3085 C   0  0  0  0  0  0  0  0  0  0  0  0
   23.1737   -7.5834  -15.2701 C   0  0  0  0  0  0  0  0  0  0  0  0
   23.0506   -6.3888  -14.6211 C   0  0  0  0  0  0  0  0  0  0  0  0
   22.0785   -6.2406  -13.5296 C   0  0  0  0  0  0  0  0  0  0  0  0
   20.9474   -5.3504  -13.9688 C   0  0  2  0  0  0  0  0  0  0  0  0
   20.3110   -5.9694  -15.1372 N   0  0  0  0  0  0  0  0  0  0  0  0
   21.3632   -3.9797  -14.3162 C   0  0  0  0  0  0  0  0  0  0  0  0
   21.1737   -3.5202  -15.6060 O   0  0  0  0  0  0  0  0  0  0  0  0
   23.8224   -5.3204  -14.9951 C   0  0  0  0  0  0  0  0  0  0  0  0
   24.7443   -5.4084  -16.0305 C   0  0  0  0  0  0  0  0  0  0  0  0
   21.8891   -3.1871  -13.4993 O   0  0  0  0  0  0  0  0  0  0  0  0
  2  1  1  6
  3  2  1  0
  3  4  1  0
  4  5  1  0
  5  9  1  0
  5  6  2  0
  7  8  2  0
  7  2  1  0
 11 10  1  6
 11 13  1  0
 11 12  1  0
 13 14  1  1
 14  7  1  0
 15 13  1  0
 16 15  2  0
 18 17  1  0
 19 18  2  0
 20 19  1  0
 21 27  1  0
 21 20  2  0
 22 21  1  0
 23 22  1  6
 23 24  1  0
 24 15  1  0
 25 23  1  0
 26 25  1  0
 27 28  2  0
 28 18  1  0
 29 25  2  0
M  END
$$$$
