ETY.pdb
     RDKit          3D

 29 29  0  0  1  0  0  0  0  0999 V2000
   20.9932  -13.2447  -17.8503 N   0  0  0  0  0  0  0  0  0  0  0  0
   20.3482  -11.9696  -17.8152 C   0  0  1  0  0  0  0  0  0  0  0  0
   19.0004  -11.9131  -17.2015 C   0  0  0  0  0  0  0  0  0  0  0  0
   18.0516  -13.0080  -17.4947 C   0  0  0  0  0  0  0  0  0  0  0  0
   16.6692  -12.8582  -17.0488 C   0  0  0  0  0  0  0  0  0  0  0  0
   15.8689  -12.0976  -17.6082 O   0  0  0  0  0  0  0  0  0  0  0  0
   21.2615  -10.9116  -17.2619 C   0  0  0  0  0  0  0  0  0  0  0  0
   22.2435  -11.2233  -16.5090 O   0  0  0  0  0  0  0  0  0  0  0  0
   16.2408  -13.5974  -15.9578 O   0  0  0  0  0  0  0  0  0  0  0  0
   23.4777   -8.5163  -19.0610 C   0  0  0  0  0  0  0  0  0  0  0  0
   22.6031   -7.7172  -18.1284 C   0  0  1  0  0  0  0  0  0  0  0  0
   21.5785   -7.1314  -18.8427 O   0  0  0  0  0  0  0  0  0  0  0  0
   22.0158   -8.5467  -17.0242 C   0  0  2  0  0  0  0  0  0  0  0  0
   21.0645   -9.5384  -17.5561 N   0  0  0  0  0  0  0  0  0  0  0  0
   21.2066   -7.6208  -16.1675 C   0  0  0  0  0  0  0  0  0  0  0  0
   19.9397   -7.7189  -16.1081 O   0  0  0  0  0  0  0  0  0  0  0  0
   17.5040   -4.5474   -9.3174 O   0  0  0  0  0  0  0  0  0  0  0  0
   18.2636   -5.1365  -10.2994 C   0  0  0  0  0  0  0  0  0  0  0  0
   18.0268   -4.8341  -11.6287 C   0  0  0  0  0  0  0  0  0  0  0  0
   18.7854   -5.4208  -12.6314 C   0  0  0  0  0  0  0  0  0  0  0  0
   19.7717   -6.3025  -12.2948 C   0  0  0  0  0  0  0  0  0  0  0  0
   20.5745   -6.9451  -13.3440 C   0  0  0  0  0  0  0  0  0  0  0  0
   21.0321   -5.9154  -14.3414 C   0  0  2  0  0  0  0  0  0  0  0  0
   21.7893   -6.6065  -15.3914 N   0  0  0  0  0  0  0  0  0  0  0  0
   21.8721   -4.8516  -13.7625 C   0  0  0  0  0  0  0  0  0  0  0  0
   21.3198   -3.6075  -13.5215 O   0  0  0  0  0  0  0  0  0  0  0  0
   20.0062   -6.6021  -10.9786 C   0  0  0  0  0  0  0  0  0  0  0  0
   19.2636   -6.0310   -9.9528 C   0  0  0  0  0  0  0  0  0  0  0  0
   23.0811   -5.0061  -13.4685 O   0  0  0  0  0  0  0  0  0  0  0  0
  2  1  1  1
  3  2  1  0
  3  4  1  0
  4  5  1  0
  5  9  1  0
  5  6  2  0
  7  8  2  0
  7  2  1  0
 11 10  1  6
 11 13  1  0
 11 12  1  0
 13 14  1  6
 14  7  1  0
 15 13  1  0
 16 15  2  0
 18 17  1  0
 19 18  2  0
 20 19  1  0
 21 27  1  0
 21 20  2  0
 22 21  1  0
 23 22  1  1
 23 24  1  0
 24 15  1  0
 25 23  1  0
 26 25  1  0
 27 28  2  0
 28 18  1  0
 29 25  2  0
M  END
$$$$
