ETY.pdb
     RDKit          3D

 29 29  0  0  1  0  0  0  0  0999 V2000
   15.7309  -13.2448  -15.7259 N   0  0  0  0  0  0  0  0  0  0  0  0
   15.9257  -11.8293  -15.6830 C   0  0  1  0  0  0  0  0  0  0  0  0
   14.9506  -11.0386  -14.8954 C   0  0  0  0  0  0  0  0  0  0  0  0
   13.7969  -10.4447  -15.6034 C   0  0  0  0  0  0  0  0  0  0  0  0
   13.9795   -9.1480  -16.2495 C   0  0  0  0  0  0  0  0  0  0  0  0
   13.5545   -8.0945  -15.7580 O   0  0  0  0  0  0  0  0  0  0  0  0
   17.3451  -11.4848  -15.3275 C   0  0  0  0  0  0  0  0  0  0  0  0
   17.8823  -11.9410  -14.2636 O   0  0  0  0  0  0  0  0  0  0  0  0
   14.6548   -9.0989  -17.4586 O   0  0  0  0  0  0  0  0  0  0  0  0
   20.3818  -12.5808  -16.8719 C   0  0  0  0  0  0  0  0  0  0  0  0
   20.4340  -11.0740  -16.8830 C   0  0  1  0  0  0  0  0  0  0  0  0
   20.0532  -10.6066  -18.1239 O   0  0  0  0  0  0  0  0  0  0  0  0
   19.5565  -10.4513  -15.8369 C   0  0  2  0  0  0  0  0  0  0  0  0
   18.1315  -10.6459  -16.1574 N   0  0  0  0  0  0  0  0  0  0  0  0
   19.7917   -8.9724  -15.8954 C   0  0  0  0  0  0  0  0  0  0  0  0
   18.8418   -8.1652  -16.1496 O   0  0  0  0  0  0  0  0  0  0  0  0
   21.0073   -0.7624  -14.6055 O   0  0  0  0  0  0  0  0  0  0  0  0
   20.8529   -2.1277  -14.6230 C   0  0  0  0  0  0  0  0  0  0  0  0
   19.8970   -2.7032  -15.4414 C   0  0  0  0  0  0  0  0  0  0  0  0
   19.7295   -4.0802  -15.4698 C   0  0  0  0  0  0  0  0  0  0  0  0
   20.5185   -4.8665  -14.6808 C   0  0  0  0  0  0  0  0  0  0  0  0
   20.3445   -6.3253  -14.6864 C   0  0  0  0  0  0  0  0  0  0  0  0
   21.2514   -6.9451  -15.7151 C   0  0  2  0  0  0  0  0  0  0  0  0
   21.0540   -8.3986  -15.6764 N   0  0  0  0  0  0  0  0  0  0  0  0
   22.6805   -6.6472  -15.5119 C   0  0  0  0  0  0  0  0  0  0  0  0
   23.2273   -5.5190  -16.0941 O   0  0  0  0  0  0  0  0  0  0  0  0
   21.4650   -4.2969  -13.8703 C   0  0  0  0  0  0  0  0  0  0  0  0
   21.6562   -2.9219  -13.8201 C   0  0  0  0  0  0  0  0  0  0  0  0
   23.4482   -7.3671  -14.8304 O   0  0  0  0  0  0  0  0  0  0  0  0
  2  1  1  1
  3  2  1  0
  3  4  1  0
  4  5  1  0
  5  9  1  0
  5  6  2  0
  7  8  2  0
  7  2  1  0
 11 10  1  6
 11 13  1  0
 11 12  1  0
 13 14  1  6
 14  7  1  0
 15 13  1  0
 16 15  2  0
 18 17  1  0
 19 18  2  0
 20 19  1  0
 21 27  1  0
 21 20  2  0
 22 21  1  0
 23 22  1  1
 23 24  1  0
 24 15  1  0
 25 23  1  0
 26 25  1  0
 27 28  2  0
 28 18  1  0
 29 25  2  0
M  END
$$$$
