ETY.pdb
     RDKit          3D

 29 29  0  0  1  0  0  0  0  0999 V2000
   18.8774  -12.6162  -15.9155 N   0  0  0  0  0  0  0  0  0  0  0  0
   19.1397  -11.6417  -16.9279 C   0  0  1  0  0  0  0  0  0  0  0  0
   18.1242  -11.4904  -17.9966 C   0  0  0  0  0  0  0  0  0  0  0  0
   17.6685  -12.7047  -18.7057 C   0  0  0  0  0  0  0  0  0  0  0  0
   18.3068  -13.0402  -19.9755 C   0  0  0  0  0  0  0  0  0  0  0  0
   19.1253  -12.2926  -20.5261 O   0  0  0  0  0  0  0  0  0  0  0  0
   19.5215  -10.3186  -16.3252 C   0  0  0  0  0  0  0  0  0  0  0  0
   18.7878   -9.7673  -15.4386 O   0  0  0  0  0  0  0  0  0  0  0  0
   17.9814  -14.2419  -20.5839 O   0  0  0  0  0  0  0  0  0  0  0  0
   21.8217   -9.4031  -13.8923 C   0  0  0  0  0  0  0  0  0  0  0  0
   22.2032   -8.5790  -15.0959 C   0  0  1  0  0  0  0  0  0  0  0  0
   23.2453   -9.1889  -15.7632 O   0  0  0  0  0  0  0  0  0  0  0  0
   21.0633   -8.3780  -16.0512 C   0  0  2  0  0  0  0  0  0  0  0  0
   20.7036   -9.6414  -16.7190 N   0  0  0  0  0  0  0  0  0  0  0  0
   21.5585   -7.4683  -17.1343 C   0  0  0  0  0  0  0  0  0  0  0  0
   21.8811   -7.9226  -18.2780 O   0  0  0  0  0  0  0  0  0  0  0  0
   16.4017   -2.7180  -18.5102 O   0  0  0  0  0  0  0  0  0  0  0  0
   17.5889   -3.3886  -18.6804 C   0  0  0  0  0  0  0  0  0  0  0  0
   18.7325   -2.6896  -19.0244 C   0  0  0  0  0  0  0  0  0  0  0  0
   19.9385   -3.3529  -19.1996 C   0  0  0  0  0  0  0  0  0  0  0  0
   19.9885   -4.7063  -19.0292 C   0  0  0  0  0  0  0  0  0  0  0  0
   21.2534   -5.4272  -19.2259 C   0  0  0  0  0  0  0  0  0  0  0  0
   22.1554   -5.2111  -18.0409 C   0  0  2  0  0  0  0  0  0  0  0  0
   21.6933   -6.0827  -16.9546 N   0  0  0  0  0  0  0  0  0  0  0  0
   22.1900   -3.8183  -17.5597 C   0  0  0  0  0  0  0  0  0  0  0  0
   22.7241   -2.8342  -18.3703 O   0  0  0  0  0  0  0  0  0  0  0  0
   18.8562   -5.3986  -18.6887 C   0  0  0  0  0  0  0  0  0  0  0  0
   17.6347   -4.7627  -18.5064 C   0  0  0  0  0  0  0  0  0  0  0  0
   21.7568   -3.4616  -16.4385 O   0  0  0  0  0  0  0  0  0  0  0  0
  2  1  1  1
  3  2  1  0
  3  4  1  0
  4  5  1  0
  5  9  1  0
  5  6  2  0
  7  8  2  0
  7  2  1  0
 11 10  1  1
 11 13  1  0
 11 12  1  0
 13 14  1  6
 14  7  1  0
 15 13  1  0
 16 15  2  0
 18 17  1  0
 19 18  2  0
 20 19  1  0
 21 27  1  0
 21 20  2  0
 22 21  1  0
 23 22  1  6
 23 24  1  0
 24 15  1  0
 25 23  1  0
 26 25  1  0
 27 28  2  0
 28 18  1  0
 29 25  2  0
M  END
$$$$
