ETY.pdb
     RDKit          3D

 29 29  0  0  1  0  0  0  0  0999 V2000
   27.1620  -21.7313  -18.9420 N   0  0  0  0  0  0  0  0  0  0  0  0
   28.4290  -21.8390  -18.2889 C   0  0  1  0  0  0  0  0  0  0  0  0
   29.6164  -21.3687  -19.0405 C   0  0  0  0  0  0  0  0  0  0  0  0
   29.9895  -22.0848  -20.2787 C   0  0  0  0  0  0  0  0  0  0  0  0
   30.8398  -21.3933  -21.2437 C   0  0  0  0  0  0  0  0  0  0  0  0
   31.0966  -21.8628  -22.3599 O   0  0  0  0  0  0  0  0  0  0  0  0
   28.3781  -21.2619  -16.9018 C   0  0  0  0  0  0  0  0  0  0  0  0
   29.4500  -21.0368  -16.2470 O   0  0  0  0  0  0  0  0  0  0  0  0
   31.3778  -20.1654  -20.8931 O   0  0  0  0  0  0  0  0  0  0  0  0
   27.8554  -18.0290  -15.6623 C   0  0  0  0  0  0  0  0  0  0  0  0
   26.7827  -18.8738  -15.0228 C   0  0  1  0  0  0  0  0  0  0  0  0
   25.6087  -18.7499  -15.7367 O   0  0  0  0  0  0  0  0  0  0  0  0
   27.1534  -20.3257  -14.9417 C   0  0  2  0  0  0  0  0  0  0  0  0
   27.1442  -20.9495  -16.2767 N   0  0  0  0  0  0  0  0  0  0  0  0
   26.0706  -21.0086  -14.1627 C   0  0  0  0  0  0  0  0  0  0  0  0
   25.2377  -21.7823  -14.7337 O   0  0  0  0  0  0  0  0  0  0  0  0
   27.7134  -18.4074   -7.3894 O   0  0  0  0  0  0  0  0  0  0  0  0
   27.1716  -19.3379   -8.2431 C   0  0  0  0  0  0  0  0  0  0  0  0
   25.8015  -19.5290   -8.2750 C   0  0  0  0  0  0  0  0  0  0  0  0
   25.2398  -20.4648   -9.1317 C   0  0  0  0  0  0  0  0  0  0  0  0
   26.0527  -21.1987   -9.9464 C   0  0  0  0  0  0  0  0  0  0  0  0
   25.4767  -22.2050  -10.8485 C   0  0  0  0  0  0  0  0  0  0  0  0
   24.8506  -21.5280  -12.0377 C   0  0  2  0  0  0  0  0  0  0  0  0
   25.9133  -20.8383  -12.7782 N   0  0  0  0  0  0  0  0  0  0  0  0
   23.7978  -20.5570  -11.6893 C   0  0  0  0  0  0  0  0  0  0  0  0
   24.0156  -19.2108  -11.9153 O   0  0  0  0  0  0  0  0  0  0  0  0
   27.4094  -21.0098   -9.9147 C   0  0  0  0  0  0  0  0  0  0  0  0
   28.0010  -20.0808   -9.0682 C   0  0  0  0  0  0  0  0  0  0  0  0
   22.6940  -20.8809  -11.1905 O   0  0  0  0  0  0  0  0  0  0  0  0
  2  1  1  6
  3  2  1  0
  3  4  1  0
  4  5  1  0
  5  9  1  0
  5  6  2  0
  7  8  2  0
  7  2  1  0
 11 10  1  6
 11 13  1  0
 11 12  1  0
 13 14  1  6
 14  7  1  0
 15 13  1  0
 16 15  2  0
 18 17  1  0
 19 18  2  0
 20 19  1  0
 21 27  1  0
 21 20  2  0
 22 21  1  0
 23 22  1  1
 23 24  1  0
 24 15  1  0
 25 23  1  0
 26 25  1  0
 27 28  2  0
 28 18  1  0
 29 25  2  0
M  END
$$$$
