ETY.pdb
     RDKit          3D

 29 29  0  0  1  0  0  0  0  0999 V2000
   16.8682  -12.3687  -15.9415 N   0  0  0  0  0  0  0  0  0  0  0  0
   17.0858  -10.9751  -16.1735 C   0  0  1  0  0  0  0  0  0  0  0  0
   15.9206  -10.0745  -16.0075 C   0  0  0  0  0  0  0  0  0  0  0  0
   14.6334  -10.4770  -16.6126 C   0  0  0  0  0  0  0  0  0  0  0  0
   13.5501  -10.8804  -15.7204 C   0  0  0  0  0  0  0  0  0  0  0  0
   12.9956  -11.9838  -15.8043 O   0  0  0  0  0  0  0  0  0  0  0  0
   18.2899  -10.4789  -15.4227 C   0  0  0  0  0  0  0  0  0  0  0  0
   18.4593  -10.7699  -14.1919 O   0  0  0  0  0  0  0  0  0  0  0  0
   13.1295   -9.9915  -14.7440 O   0  0  0  0  0  0  0  0  0  0  0  0
   21.9146  -11.2086  -15.6485 C   0  0  0  0  0  0  0  0  0  0  0  0
   21.7174   -9.7294  -15.8634 C   0  0  1  0  0  0  0  0  0  0  0  0
   21.7285   -9.4522  -17.2148 O   0  0  0  0  0  0  0  0  0  0  0  0
   20.4364   -9.2188  -15.2713 C   0  0  2  0  0  0  0  0  0  0  0  0
   19.2735   -9.6750  -16.0530 N   0  0  0  0  0  0  0  0  0  0  0  0
   20.4598   -7.7263  -15.4044 C   0  0  0  0  0  0  0  0  0  0  0  0
   19.6071   -7.1171  -16.1257 O   0  0  0  0  0  0  0  0  0  0  0  0
   20.0791    0.6406  -15.2158 O   0  0  0  0  0  0  0  0  0  0  0  0
   20.0787   -0.7239  -15.0537 C   0  0  0  0  0  0  0  0  0  0  0  0
   20.3386   -1.2705  -13.8094 C   0  0  0  0  0  0  0  0  0  0  0  0
   20.3416   -2.6464  -13.6302 C   0  0  0  0  0  0  0  0  0  0  0  0
   20.0849   -3.4602  -14.6956 C   0  0  0  0  0  0  0  0  0  0  0  0
   20.0993   -4.9197  -14.5278 C   0  0  0  0  0  0  0  0  0  0  0  0
   21.4392   -5.4689  -14.9372 C   0  0  2  0  0  0  0  0  0  0  0  0
   21.4086   -6.9241  -14.7510 N   0  0  0  0  0  0  0  0  0  0  0  0
   22.5732   -4.9099  -14.1796 C   0  0  0  0  0  0  0  0  0  0  0  0
   23.3915   -3.9706  -14.7788 O   0  0  0  0  0  0  0  0  0  0  0  0
   19.8275   -2.9191  -15.9277 C   0  0  0  0  0  0  0  0  0  0  0  0
   19.8176   -1.5461  -16.1383 C   0  0  0  0  0  0  0  0  0  0  0  0
   22.8490   -5.2389  -13.0016 O   0  0  0  0  0  0  0  0  0  0  0  0
  2  1  1  1
  3  2  1  0
  3  4  1  0
  4  5  1  0
  5  9  1  0
  5  6  2  0
  7  8  2  0
  7  2  1  0
 11 10  1  6
 11 13  1  0
 11 12  1  0
 13 14  1  6
 14  7  1  0
 15 13  1  0
 16 15  2  0
 18 17  1  0
 19 18  2  0
 20 19  1  0
 21 27  1  0
 21 20  2  0
 22 21  1  0
 23 22  1  1
 23 24  1  0
 24 15  1  0
 25 23  1  0
 26 25  1  0
 27 28  2  0
 28 18  1  0
 29 25  2  0
M  END
$$$$
