ETY.pdb
     RDKit          3D

 29 29  0  0  1  0  0  0  0  0999 V2000
   21.1580  -12.6549  -20.1363 N   0  0  0  0  0  0  0  0  0  0  0  0
   21.2574  -11.3196  -20.6368 C   0  0  1  0  0  0  0  0  0  0  0  0
   19.9876  -10.6105  -20.9213 C   0  0  0  0  0  0  0  0  0  0  0  0
   18.8326  -10.8602  -20.0334 C   0  0  0  0  0  0  0  0  0  0  0  0
   18.8173  -10.2112  -18.7254 C   0  0  0  0  0  0  0  0  0  0  0  0
   19.1036  -10.8120  -17.6818 O   0  0  0  0  0  0  0  0  0  0  0  0
   22.1871  -10.4900  -19.7959 C   0  0  0  0  0  0  0  0  0  0  0  0
   22.9582  -11.0371  -18.9388 O   0  0  0  0  0  0  0  0  0  0  0  0
   18.4688   -8.8720  -18.6538 O   0  0  0  0  0  0  0  0  0  0  0  0
   25.2509   -8.9286  -20.4812 C   0  0  0  0  0  0  0  0  0  0  0  0
   24.3440   -7.8236  -20.0020 C   0  0  1  0  0  0  0  0  0  0  0  0
   23.8093   -7.1602  -21.0870 O   0  0  0  0  0  0  0  0  0  0  0  0
   23.2249   -8.3212  -19.1346 C   0  0  2  0  0  0  0  0  0  0  0  0
   22.2392   -9.0788  -19.9255 N   0  0  0  0  0  0  0  0  0  0  0  0
   22.4998   -7.1131  -18.6241 C   0  0  0  0  0  0  0  0  0  0  0  0
   21.5840   -6.5573  -19.3103 O   0  0  0  0  0  0  0  0  0  0  0  0
   19.5873   -8.4362  -12.0104 O   0  0  0  0  0  0  0  0  0  0  0  0
   19.8298   -7.7732  -13.1893 C   0  0  0  0  0  0  0  0  0  0  0  0
   21.0227   -7.0947  -13.3659 C   0  0  0  0  0  0  0  0  0  0  0  0
   21.2819   -6.4207  -14.5507 C   0  0  0  0  0  0  0  0  0  0  0  0
   20.3469   -6.4324  -15.5452 C   0  0  0  0  0  0  0  0  0  0  0  0
   20.5978   -5.7112  -16.8004 C   0  0  0  0  0  0  0  0  0  0  0  0
   22.0553   -5.3505  -16.9010 C   0  0  2  0  0  0  0  0  0  0  0  0
   22.7829   -6.5322  -17.3779 N   0  0  0  0  0  0  0  0  0  0  0  0
   22.6503   -4.8985  -15.6305 C   0  0  0  0  0  0  0  0  0  0  0  0
   22.1752   -3.7468  -15.0314 O   0  0  0  0  0  0  0  0  0  0  0  0
   19.1657   -7.1041  -15.3704 C   0  0  0  0  0  0  0  0  0  0  0  0
   18.8775   -7.7878  -14.1960 C   0  0  0  0  0  0  0  0  0  0  0  0
   23.5794   -5.5045  -15.0461 O   0  0  0  0  0  0  0  0  0  0  0  0
  2  1  1  1
  3  2  1  0
  3  4  1  0
  4  5  1  0
  5  9  1  0
  5  6  2  0
  7  8  2  0
  7  2  1  0
 11 10  1  6
 11 13  1  0
 11 12  1  0
 13 14  1  6
 14  7  1  0
 15 13  1  0
 16 15  2  0
 18 17  1  0
 19 18  2  0
 20 19  1  0
 21 27  1  0
 21 20  2  0
 22 21  1  0
 23 22  1  1
 23 24  1  0
 24 15  1  0
 25 23  1  0
 26 25  1  0
 27 28  2  0
 28 18  1  0
 29 25  2  0
M  END
$$$$
