ETY.pdb
     RDKit          3D

 29 29  0  0  1  0  0  0  0  0999 V2000
   19.0976  -12.4186  -15.5072 N   0  0  0  0  0  0  0  0  0  0  0  0
   18.4736  -11.9988  -16.7228 C   0  0  1  0  0  0  0  0  0  0  0  0
   17.2681  -12.7452  -17.1539 C   0  0  0  0  0  0  0  0  0  0  0  0
   16.8548  -13.9237  -16.3631 C   0  0  0  0  0  0  0  0  0  0  0  0
   15.7518  -13.7664  -15.4192 C   0  0  0  0  0  0  0  0  0  0  0  0
   14.7021  -13.1809  -15.7148 O   0  0  0  0  0  0  0  0  0  0  0  0
   18.2476  -10.5127  -16.7347 C   0  0  0  0  0  0  0  0  0  0  0  0
   17.7353   -9.9368  -17.7518 O   0  0  0  0  0  0  0  0  0  0  0  0
   15.8891  -14.2940  -14.1452 O   0  0  0  0  0  0  0  0  0  0  0  0
   16.1197   -8.1957  -14.5769 C   0  0  0  0  0  0  0  0  0  0  0  0
   17.5657   -7.7732  -14.5152 C   0  0  1  0  0  0  0  0  0  0  0  0
   18.1404   -8.2568  -13.3580 O   0  0  0  0  0  0  0  0  0  0  0  0
   18.3645   -8.2502  -15.6927 C   0  0  2  0  0  0  0  0  0  0  0  0
   18.5938   -9.7042  -15.6224 N   0  0  0  0  0  0  0  0  0  0  0  0
   19.7181   -7.6161  -15.5862 C   0  0  0  0  0  0  0  0  0  0  0  0
   20.7791   -8.3025  -15.7329 O   0  0  0  0  0  0  0  0  0  0  0  0
   26.4790   -2.8315  -17.3194 O   0  0  0  0  0  0  0  0  0  0  0  0
   25.3328   -3.5762  -17.1788 C   0  0  0  0  0  0  0  0  0  0  0  0
   24.1370   -3.1045  -17.6908 C   0  0  0  0  0  0  0  0  0  0  0  0
   22.9714   -3.8452  -17.5567 C   0  0  0  0  0  0  0  0  0  0  0  0
   23.0136   -5.0481  -16.9129 C   0  0  0  0  0  0  0  0  0  0  0  0
   21.7863   -5.8386  -16.7479 C   0  0  0  0  0  0  0  0  0  0  0  0
   21.2201   -5.6234  -15.3704 C   0  0  2  0  0  0  0  0  0  0  0  0
   19.8932   -6.2484  -15.3230 N   0  0  0  0  0  0  0  0  0  0  0  0
   21.0988   -4.2054  -14.9867 C   0  0  0  0  0  0  0  0  0  0  0  0
   22.1024   -3.6170  -14.2401 O   0  0  0  0  0  0  0  0  0  0  0  0
   24.1976   -5.5153  -16.4058 C   0  0  0  0  0  0  0  0  0  0  0  0
   25.3806   -4.7969  -16.5244 C   0  0  0  0  0  0  0  0  0  0  0  0
   20.1230   -3.4836  -15.3009 O   0  0  0  0  0  0  0  0  0  0  0  0
  2  1  1  1
  3  2  1  0
  3  4  1  0
  4  5  1  0
  5  9  1  0
  5  6  2  0
  7  8  2  0
  7  2  1  0
 11 10  1  6
 11 13  1  0
 11 12  1  0
 13 14  1  1
 14  7  1  0
 15 13  1  0
 16 15  2  0
 18 17  1  0
 19 18  2  0
 20 19  1  0
 21 27  1  0
 21 20  2  0
 22 21  1  0
 23 22  1  6
 23 24  1  0
 24 15  1  0
 25 23  1  0
 26 25  1  0
 27 28  2  0
 28 18  1  0
 29 25  2  0
M  END
$$$$
