ETY.pdb
     RDKit          3D

 29 29  0  0  1  0  0  0  0  0999 V2000
   19.2716  -12.3440  -18.3072 N   0  0  0  0  0  0  0  0  0  0  0  0
   18.4773  -11.1992  -17.9880 C   0  0  1  0  0  0  0  0  0  0  0  0
   17.4861  -11.3500  -16.8967 C   0  0  0  0  0  0  0  0  0  0  0  0
   17.8720  -12.1338  -15.7044 C   0  0  0  0  0  0  0  0  0  0  0  0
   17.7270  -11.5080  -14.3931 C   0  0  0  0  0  0  0  0  0  0  0  0
   18.0142  -12.0939  -13.3412 O   0  0  0  0  0  0  0  0  0  0  0  0
   19.3321   -9.9763  -17.8047 C   0  0  0  0  0  0  0  0  0  0  0  0
   20.5958  -10.0772  -17.6586 O   0  0  0  0  0  0  0  0  0  0  0  0
   17.2495  -10.2088  -14.3277 O   0  0  0  0  0  0  0  0  0  0  0  0
   19.0126   -6.6746  -20.0984 C   0  0  0  0  0  0  0  0  0  0  0  0
   19.0524   -6.3869  -18.6189 C   0  0  1  0  0  0  0  0  0  0  0  0
   17.7734   -6.1520  -18.1583 O   0  0  0  0  0  0  0  0  0  0  0  0
   19.6601   -7.5044  -17.8227 C   0  0  2  0  0  0  0  0  0  0  0  0
   18.7668   -8.6759  -17.7880 N   0  0  0  0  0  0  0  0  0  0  0  0
   19.7620   -7.0246  -16.4066 C   0  0  0  0  0  0  0  0  0  0  0  0
   19.1992   -7.6560  -15.4564 O   0  0  0  0  0  0  0  0  0  0  0  0
   26.2075   -7.0866  -16.9901 O   0  0  0  0  0  0  0  0  0  0  0  0
   25.0631   -6.9291  -16.2461 C   0  0  0  0  0  0  0  0  0  0  0  0
   24.2223   -8.0081  -16.0374 C   0  0  0  0  0  0  0  0  0  0  0  0
   23.0633   -7.8645  -15.2883 C   0  0  0  0  0  0  0  0  0  0  0  0
   22.7574   -6.6452  -14.7563 C   0  0  0  0  0  0  0  0  0  0  0  0
   21.5264   -6.4710  -13.9736 C   0  0  0  0  0  0  0  0  0  0  0  0
   20.6294   -5.4676  -14.6468 C   0  0  2  0  0  0  0  0  0  0  0  0
   20.4737   -5.8684  -16.0498 N   0  0  0  0  0  0  0  0  0  0  0  0
   21.1324   -4.0832  -14.5941 C   0  0  0  0  0  0  0  0  0  0  0  0
   21.4276   -3.4239  -15.7726 O   0  0  0  0  0  0  0  0  0  0  0  0
   23.5898   -5.5766  -14.9629 C   0  0  0  0  0  0  0  0  0  0  0  0
   24.7567   -5.6892  -15.7080 C   0  0  0  0  0  0  0  0  0  0  0  0
   21.3137   -3.4520  -13.5260 O   0  0  0  0  0  0  0  0  0  0  0  0
  2  1  1  1
  3  2  1  0
  3  4  1  0
  4  5  1  0
  5  9  1  0
  5  6  2  0
  7  8  2  0
  7  2  1  0
 11 10  1  6
 11 13  1  0
 11 12  1  0
 13 14  1  1
 14  7  1  0
 15 13  1  0
 16 15  2  0
 18 17  1  0
 19 18  2  0
 20 19  1  0
 21 27  1  0
 21 20  2  0
 22 21  1  0
 23 22  1  6
 23 24  1  0
 24 15  1  0
 25 23  1  0
 26 25  1  0
 27 28  2  0
 28 18  1  0
 29 25  2  0
M  END
$$$$
