ETY.pdb
     RDKit          3D

 29 29  0  0  1  0  0  0  0  0999 V2000
   21.5242  -14.0075  -18.5677 N   0  0  0  0  0  0  0  0  0  0  0  0
   21.5767  -12.5894  -18.7402 C   0  0  1  0  0  0  0  0  0  0  0  0
   20.4527  -11.9575  -19.4707 C   0  0  0  0  0  0  0  0  0  0  0  0
   19.9856  -12.5928  -20.7209 C   0  0  0  0  0  0  0  0  0  0  0  0
   18.9961  -11.8819  -21.5258 C   0  0  0  0  0  0  0  0  0  0  0  0
   19.1911  -11.5883  -22.7123 O   0  0  0  0  0  0  0  0  0  0  0  0
   21.8634  -11.8922  -17.4396 C   0  0  0  0  0  0  0  0  0  0  0  0
   21.2543  -12.2271  -16.3695 O   0  0  0  0  0  0  0  0  0  0  0  0
   17.7946  -11.5241  -20.9356 O   0  0  0  0  0  0  0  0  0  0  0  0
   24.8436  -11.9089  -15.3754 C   0  0  0  0  0  0  0  0  0  0  0  0
   24.5310  -10.4596  -15.6489 C   0  0  1  0  0  0  0  0  0  0  0  0
   25.3542   -9.9895  -16.6512 O   0  0  0  0  0  0  0  0  0  0  0  0
   23.1014  -10.2353  -16.0467 C   0  0  2  0  0  0  0  0  0  0  0  0
   22.8152  -10.8442  -17.3577 N   0  0  0  0  0  0  0  0  0  0  0  0
   22.9281   -8.7586  -16.2339 C   0  0  0  0  0  0  0  0  0  0  0  0
   22.9189   -8.2398  -17.3955 O   0  0  0  0  0  0  0  0  0  0  0  0
   20.2178   -0.8638  -17.1166 O   0  0  0  0  0  0  0  0  0  0  0  0
   20.4753   -2.1923  -16.8781 C   0  0  0  0  0  0  0  0  0  0  0  0
   21.4712   -2.8398  -17.5879 C   0  0  0  0  0  0  0  0  0  0  0  0
   21.7428   -4.1809  -17.3581 C   0  0  0  0  0  0  0  0  0  0  0  0
   21.0170   -4.8596  -16.4222 C   0  0  0  0  0  0  0  0  0  0  0  0
   21.2804   -6.2840  -16.1768 C   0  0  0  0  0  0  0  0  0  0  0  0
   22.5410   -6.4398  -15.3697 C   0  0  2  0  0  0  0  0  0  0  0  0
   22.7679   -7.8738  -15.1560 N   0  0  0  0  0  0  0  0  0  0  0  0
   22.5049   -5.7577  -14.0636 C   0  0  0  0  0  0  0  0  0  0  0  0
   22.9541   -4.4539  -13.9672 O   0  0  0  0  0  0  0  0  0  0  0  0
   20.0309   -4.2186  -15.7194 C   0  0  0  0  0  0  0  0  0  0  0  0
   19.7358   -2.8772  -15.9270 C   0  0  0  0  0  0  0  0  0  0  0  0
   22.0842   -6.2958  -13.0122 O   0  0  0  0  0  0  0  0  0  0  0  0
  2  1  1  1
  3  2  1  0
  3  4  1  0
  4  5  1  0
  5  9  1  0
  5  6  2  0
  7  8  2  0
  7  2  1  0
 11 10  1  6
 11 13  1  0
 11 12  1  0
 13 14  1  6
 14  7  1  0
 15 13  1  0
 16 15  2  0
 18 17  1  0
 19 18  2  0
 20 19  1  0
 21 27  1  0
 21 20  2  0
 22 21  1  0
 23 22  1  1
 23 24  1  0
 24 15  1  0
 25 23  1  0
 26 25  1  0
 27 28  2  0
 28 18  1  0
 29 25  2  0
M  END
$$$$
