ETY.pdb
     RDKit          3D

 29 29  0  0  1  0  0  0  0  0999 V2000
   29.9251  -24.3530  -17.7680 N   0  0  0  0  0  0  0  0  0  0  0  0
   28.5270  -24.3193  -17.4720 C   0  0  1  0  0  0  0  0  0  0  0  0
   27.8898  -25.5995  -17.0831 C   0  0  0  0  0  0  0  0  0  0  0  0
   28.1685  -26.7974  -17.9030 C   0  0  0  0  0  0  0  0  0  0  0  0
   28.7557  -27.9607  -17.2442 C   0  0  0  0  0  0  0  0  0  0  0  0
   28.9621  -29.0272  -17.8376 O   0  0  0  0  0  0  0  0  0  0  0  0
   28.2005  -23.2140  -16.5069 C   0  0  0  0  0  0  0  0  0  0  0  0
   28.8485  -23.0859  -15.4151 O   0  0  0  0  0  0  0  0  0  0  0  0
   29.0935  -27.8633  -15.9038 O   0  0  0  0  0  0  0  0  0  0  0  0
   28.6022  -19.5687  -16.8233 C   0  0  0  0  0  0  0  0  0  0  0  0
   27.1535  -19.8435  -16.5088 C   0  0  1  0  0  0  0  0  0  0  0  0
   26.4126  -19.8090  -17.6720 O   0  0  0  0  0  0  0  0  0  0  0  0
   26.9429  -21.1681  -15.8355 C   0  0  2  0  0  0  0  0  0  0  0  0
   27.1670  -22.2808  -16.7752 N   0  0  0  0  0  0  0  0  0  0  0  0
   25.4951  -21.2378  -15.4553 C   0  0  0  0  0  0  0  0  0  0  0  0
   24.6672  -21.9178  -16.1412 O   0  0  0  0  0  0  0  0  0  0  0  0
   18.0596  -20.6182  -10.9323 O   0  0  0  0  0  0  0  0  0  0  0  0
   19.3766  -20.6630  -11.3216 C   0  0  0  0  0  0  0  0  0  0  0  0
   19.9120  -21.8424  -11.8086 C   0  0  0  0  0  0  0  0  0  0  0  0
   21.2401  -21.9030  -12.2056 C   0  0  0  0  0  0  0  0  0  0  0  0
   22.0180  -20.7852  -12.1118 C   0  0  0  0  0  0  0  0  0  0  0  0
   23.4304  -20.8351  -12.5129 C   0  0  0  0  0  0  0  0  0  0  0  0
   23.5477  -20.6354  -13.9998 C   0  0  2  0  0  0  0  0  0  0  0  0
   24.9743  -20.5679  -14.3369 N   0  0  0  0  0  0  0  0  0  0  0  0
   22.8771  -19.4204  -14.4964 C   0  0  0  0  0  0  0  0  0  0  0  0
   21.5371  -19.4745  -14.8312 O   0  0  0  0  0  0  0  0  0  0  0  0
   21.4881  -19.6174  -11.6295 C   0  0  0  0  0  0  0  0  0  0  0  0
   20.1625  -19.5257  -11.2244 C   0  0  0  0  0  0  0  0  0  0  0  0
   23.4568  -18.3177  -14.6377 O   0  0  0  0  0  0  0  0  0  0  0  0
  2  1  1  1
  3  2  1  0
  3  4  1  0
  4  5  1  0
  5  9  1  0
  5  6  2  0
  7  8  2  0
  7  2  1  0
 11 10  1  6
 11 13  1  0
 11 12  1  0
 13 14  1  6
 14  7  1  0
 15 13  1  0
 16 15  2  0
 18 17  1  0
 19 18  2  0
 20 19  1  0
 21 27  1  0
 21 20  2  0
 22 21  1  0
 23 22  1  1
 23 24  1  0
 24 15  1  0
 25 23  1  0
 26 25  1  0
 27 28  2  0
 28 18  1  0
 29 25  2  0
M  END
$$$$
