ETY.pdb
     RDKit          3D

 29 29  0  0  1  0  0  0  0  0999 V2000
   20.7730  -14.0167  -18.4170 N   0  0  0  0  0  0  0  0  0  0  0  0
   21.8459  -13.0745  -18.3478 C   0  0  1  0  0  0  0  0  0  0  0  0
   22.8673  -13.1368  -19.4197 C   0  0  0  0  0  0  0  0  0  0  0  0
   22.5569  -13.9148  -20.6376 C   0  0  0  0  0  0  0  0  0  0  0  0
   23.5958  -14.0422  -21.6559 C   0  0  0  0  0  0  0  0  0  0  0  0
   24.5791  -14.7804  -21.5138 O   0  0  0  0  0  0  0  0  0  0  0  0
   21.3316  -11.6769  -18.1431 C   0  0  0  0  0  0  0  0  0  0  0  0
   20.5288  -11.1457  -18.9808 O   0  0  0  0  0  0  0  0  0  0  0  0
   23.4726  -13.3074  -22.8242 O   0  0  0  0  0  0  0  0  0  0  0  0
   18.8648  -10.3502  -16.0460 C   0  0  0  0  0  0  0  0  0  0  0  0
   20.1215   -9.5924  -15.7001 C   0  0  1  0  0  0  0  0  0  0  0  0
   20.7093  -10.1546  -14.5858 O   0  0  0  0  0  0  0  0  0  0  0  0
   21.1193   -9.5734  -16.8208 C   0  0  2  0  0  0  0  0  0  0  0  0
   21.7187  -10.9050  -17.0183 N   0  0  0  0  0  0  0  0  0  0  0  0
   22.2414   -8.6786  -16.3894 C   0  0  0  0  0  0  0  0  0  0  0  0
   23.4535   -9.0549  -16.4775 O   0  0  0  0  0  0  0  0  0  0  0  0
   27.6676   -2.2041  -16.5304 O   0  0  0  0  0  0  0  0  0  0  0  0
   26.7245   -3.1980  -16.6340 C   0  0  0  0  0  0  0  0  0  0  0  0
   26.8857   -4.2069  -17.5672 C   0  0  0  0  0  0  0  0  0  0  0  0
   25.9421   -5.2174  -17.6835 C   0  0  0  0  0  0  0  0  0  0  0  0
   24.8485   -5.2086  -16.8666 C   0  0  0  0  0  0  0  0  0  0  0  0
   23.8313   -6.2618  -16.9864 C   0  0  0  0  0  0  0  0  0  0  0  0
   23.1344   -6.4530  -15.6663 C   0  0  2  0  0  0  0  0  0  0  0  0
   22.0255   -7.3920  -15.8710 N   0  0  0  0  0  0  0  0  0  0  0  0
   22.6089   -5.2071  -15.0798 C   0  0  0  0  0  0  0  0  0  0  0  0
   23.3920   -4.4925  -14.1927 O   0  0  0  0  0  0  0  0  0  0  0  0
   24.6886   -4.2097  -15.9426 C   0  0  0  0  0  0  0  0  0  0  0  0
   25.6159   -3.1849  -15.8025 C   0  0  0  0  0  0  0  0  0  0  0  0
   21.4729   -4.7444  -15.3393 O   0  0  0  0  0  0  0  0  0  0  0  0
  2  1  1  6
  3  2  1  0
  3  4  1  0
  4  5  1  0
  5  9  1  0
  5  6  2  0
  7  8  2  0
  7  2  1  0
 11 10  1  6
 11 13  1  0
 11 12  1  0
 13 14  1  1
 14  7  1  0
 15 13  1  0
 16 15  2  0
 18 17  1  0
 19 18  2  0
 20 19  1  0
 21 27  1  0
 21 20  2  0
 22 21  1  0
 23 22  1  6
 23 24  1  0
 24 15  1  0
 25 23  1  0
 26 25  1  0
 27 28  2  0
 28 18  1  0
 29 25  2  0
M  END
$$$$
