ETY.pdb
     RDKit          3D

 29 29  0  0  1  0  0  0  0  0999 V2000
   21.1107  -22.4532  -17.1382 N   0  0  0  0  0  0  0  0  0  0  0  0
   21.1306  -22.2379  -15.7251 C   0  0  1  0  0  0  0  0  0  0  0  0
   20.0239  -22.8307  -14.9378 C   0  0  0  0  0  0  0  0  0  0  0  0
   18.6720  -22.2514  -15.0848 C   0  0  0  0  0  0  0  0  0  0  0  0
   18.4594  -20.8782  -14.6358 C   0  0  0  0  0  0  0  0  0  0  0  0
   17.8715  -20.0362  -15.3268 O   0  0  0  0  0  0  0  0  0  0  0  0
   22.4754  -22.5709  -15.1417 C   0  0  0  0  0  0  0  0  0  0  0  0
   22.9267  -23.7640  -15.1769 O   0  0  0  0  0  0  0  0  0  0  0  0
   18.9351  -20.5075  -13.3882 O   0  0  0  0  0  0  0  0  0  0  0  0
   25.7918  -21.8080  -16.2272 C   0  0  0  0  0  0  0  0  0  0  0  0
   25.7037  -21.2918  -14.8133 C   0  0  1  0  0  0  0  0  0  0  0  0
   25.4881  -19.9293  -14.8305 O   0  0  0  0  0  0  0  0  0  0  0  0
   24.6130  -21.9483  -14.0187 C   0  0  2  0  0  0  0  0  0  0  0  0
   23.2843  -21.5762  -14.5358 N   0  0  0  0  0  0  0  0  0  0  0  0
   24.6856  -21.3852  -12.6318 C   0  0  0  0  0  0  0  0  0  0  0  0
   23.8363  -20.5303  -12.2241 O   0  0  0  0  0  0  0  0  0  0  0  0
   28.1181  -18.7859   -5.0585 O   0  0  0  0  0  0  0  0  0  0  0  0
   27.8277  -19.5163   -6.1857 C   0  0  0  0  0  0  0  0  0  0  0  0
   28.6513  -19.4300   -7.2942 C   0  0  0  0  0  0  0  0  0  0  0  0
   28.3712  -20.1615   -8.4395 C   0  0  0  0  0  0  0  0  0  0  0  0
   27.2719  -20.9704   -8.4643 C   0  0  0  0  0  0  0  0  0  0  0  0
   26.9512  -21.7401   -9.6739 C   0  0  0  0  0  0  0  0  0  0  0  0
   25.8510  -21.0559  -10.4393 C   0  0  2  0  0  0  0  0  0  0  0  0
   25.6790  -21.7618  -11.7143 N   0  0  0  0  0  0  0  0  0  0  0  0
   26.1056  -19.6293  -10.7089 C   0  0  0  0  0  0  0  0  0  0  0  0
   26.9852  -19.2761  -11.7150 O   0  0  0  0  0  0  0  0  0  0  0  0
   26.4563  -21.0558   -7.3668 C   0  0  0  0  0  0  0  0  0  0  0  0
   26.7106  -20.3361   -6.2062 C   0  0  0  0  0  0  0  0  0  0  0  0
   25.5640  -18.6961  -10.0704 O   0  0  0  0  0  0  0  0  0  0  0  0
  2  1  1  6
  3  2  1  0
  3  4  1  0
  4  5  1  0
  5  9  1  0
  5  6  2  0
  7  8  2  0
  7  2  1  0
 11 10  1  6
 11 13  1  0
 11 12  1  0
 13 14  1  6
 14  7  1  0
 15 13  1  0
 16 15  2  0
 18 17  1  0
 19 18  2  0
 20 19  1  0
 21 27  1  0
 21 20  2  0
 22 21  1  0
 23 22  1  6
 23 24  1  0
 24 15  1  0
 25 23  1  0
 26 25  1  0
 27 28  2  0
 28 18  1  0
 29 25  2  0
M  END
$$$$
