ETY.pdb
     RDKit          3D

 29 29  0  0  1  0  0  0  0  0999 V2000
   18.5804  -12.9022  -18.4309 N   0  0  0  0  0  0  0  0  0  0  0  0
   18.0541  -11.8823  -17.5787 C   0  0  1  0  0  0  0  0  0  0  0  0
   17.7354  -12.2681  -16.1838 C   0  0  0  0  0  0  0  0  0  0  0  0
   16.9327  -13.4893  -15.9616 C   0  0  0  0  0  0  0  0  0  0  0  0
   16.6844  -13.9083  -14.5850 C   0  0  0  0  0  0  0  0  0  0  0  0
   15.5432  -14.0868  -14.1399 O   0  0  0  0  0  0  0  0  0  0  0  0
   18.8919  -10.6356  -17.6387 C   0  0  0  0  0  0  0  0  0  0  0  0
   20.1210  -10.6889  -17.9774 O   0  0  0  0  0  0  0  0  0  0  0  0
   17.7698  -14.1130  -13.7482 O   0  0  0  0  0  0  0  0  0  0  0  0
   18.4885   -7.5529  -19.7924 C   0  0  0  0  0  0  0  0  0  0  0  0
   18.5340   -7.1425  -18.3423 C   0  0  1  0  0  0  0  0  0  0  0  0
   17.2521   -6.9191  -17.8840 O   0  0  0  0  0  0  0  0  0  0  0  0
   19.1939   -8.1664  -17.4658 C   0  0  2  0  0  0  0  0  0  0  0  0
   18.3481   -9.3646  -17.3229 N   0  0  0  0  0  0  0  0  0  0  0  0
   19.2920   -7.5680  -16.0954 C   0  0  0  0  0  0  0  0  0  0  0  0
   18.5971   -8.0189  -15.1298 O   0  0  0  0  0  0  0  0  0  0  0  0
   25.9278   -6.2527  -17.2915 O   0  0  0  0  0  0  0  0  0  0  0  0
   24.8530   -6.3856  -16.4458 C   0  0  0  0  0  0  0  0  0  0  0  0
   24.1613   -7.5828  -16.3926 C   0  0  0  0  0  0  0  0  0  0  0  0
   23.0741   -7.7321  -15.5436 C   0  0  0  0  0  0  0  0  0  0  0  0
   22.6903   -6.6841  -14.7576 C   0  0  0  0  0  0  0  0  0  0  0  0
   21.5319   -6.8190  -13.8642 C   0  0  0  0  0  0  0  0  0  0  0  0
   20.3650   -6.0476  -14.4189 C   0  0  2  0  0  0  0  0  0  0  0  0
   20.1433   -6.4917  -15.7999 N   0  0  0  0  0  0  0  0  0  0  0  0
   20.5525   -4.5857  -14.4071 C   0  0  0  0  0  0  0  0  0  0  0  0
   20.6995   -3.9309  -13.1986 O   0  0  0  0  0  0  0  0  0  0  0  0
   23.3751   -5.4985  -14.8102 C   0  0  0  0  0  0  0  0  0  0  0  0
   24.4671   -5.3188  -15.6498 C   0  0  0  0  0  0  0  0  0  0  0  0
   20.5879   -3.8832  -15.4450 O   0  0  0  0  0  0  0  0  0  0  0  0
  2  1  1  1
  3  2  1  0
  3  4  1  0
  4  5  1  0
  5  9  1  0
  5  6  2  0
  7  8  2  0
  7  2  1  0
 11 10  1  6
 11 13  1  0
 11 12  1  0
 13 14  1  1
 14  7  1  0
 15 13  1  0
 16 15  2  0
 18 17  1  0
 19 18  2  0
 20 19  1  0
 21 27  1  0
 21 20  2  0
 22 21  1  0
 23 22  1  6
 23 24  1  0
 24 15  1  0
 25 23  1  0
 26 25  1  0
 27 28  2  0
 28 18  1  0
 29 25  2  0
M  END
$$$$
