ETY.pdb
     RDKit          3D

 29 29  0  0  1  0  0  0  0  0999 V2000
   18.4392  -11.2886  -17.1685 N   0  0  0  0  0  0  0  0  0  0  0  0
   18.2333  -11.4437  -15.7624 C   0  0  1  0  0  0  0  0  0  0  0  0
   18.0604  -12.8255  -15.2553 C   0  0  0  0  0  0  0  0  0  0  0  0
   17.1092  -13.7140  -15.9558 C   0  0  0  0  0  0  0  0  0  0  0  0
   16.9518  -15.0792  -15.4621 C   0  0  0  0  0  0  0  0  0  0  0  0
   16.2387  -15.3563  -14.4890 O   0  0  0  0  0  0  0  0  0  0  0  0
   19.2606  -10.6809  -14.9736 C   0  0  0  0  0  0  0  0  0  0  0  0
   19.3889  -10.8634  -13.7171 O   0  0  0  0  0  0  0  0  0  0  0  0
   17.6279  -16.1006  -16.1100 O   0  0  0  0  0  0  0  0  0  0  0  0
   22.9322  -10.8646  -15.1919 C   0  0  0  0  0  0  0  0  0  0  0  0
   22.5389   -9.4204  -15.3726 C   0  0  1  0  0  0  0  0  0  0  0  0
   22.5421   -9.1042  -16.7155 O   0  0  0  0  0  0  0  0  0  0  0  0
   21.1872   -9.1071  -14.8009 C   0  0  2  0  0  0  0  0  0  0  0  0
   20.1178   -9.7375  -15.5950 N   0  0  0  0  0  0  0  0  0  0  0  0
   20.9863   -7.6289  -14.9433 C   0  0  0  0  0  0  0  0  0  0  0  0
   20.3191   -7.1464  -15.9131 O   0  0  0  0  0  0  0  0  0  0  0  0
   17.5243   -5.4605   -9.2636 O   0  0  0  0  0  0  0  0  0  0  0  0
   18.0988   -5.3310  -10.5051 C   0  0  0  0  0  0  0  0  0  0  0  0
   18.2588   -6.4449  -11.3104 C   0  0  0  0  0  0  0  0  0  0  0  0
   18.8371   -6.3298  -12.5664 C   0  0  0  0  0  0  0  0  0  0  0  0
   19.2487   -5.1039  -13.0035 C   0  0  0  0  0  0  0  0  0  0  0  0
   19.8772   -4.9659  -14.3242 C   0  0  0  0  0  0  0  0  0  0  0  0
   21.3501   -5.2577  -14.2232 C   0  0  2  0  0  0  0  0  0  0  0  0
   21.5136   -6.7030  -14.0293 N   0  0  0  0  0  0  0  0  0  0  0  0
   22.0288   -4.5445  -13.1262 C   0  0  0  0  0  0  0  0  0  0  0  0
   22.0860   -3.1636  -13.1486 O   0  0  0  0  0  0  0  0  0  0  0  0
   19.0903   -4.0010  -12.2063 C   0  0  0  0  0  0  0  0  0  0  0  0
   18.5151   -4.0844  -10.9446 C   0  0  0  0  0  0  0  0  0  0  0  0
   22.5691   -5.1226  -12.1537 O   0  0  0  0  0  0  0  0  0  0  0  0
  2  1  1  6
  3  2  1  0
  3  4  1  0
  4  5  1  0
  5  9  1  0
  5  6  2  0
  7  8  2  0
  7  2  1  0
 11 10  1  6
 11 13  1  0
 11 12  1  0
 13 14  1  6
 14  7  1  0
 15 13  1  0
 16 15  2  0
 18 17  1  0
 19 18  2  0
 20 19  1  0
 21 27  1  0
 21 20  2  0
 22 21  1  0
 23 22  1  1
 23 24  1  0
 24 15  1  0
 25 23  1  0
 26 25  1  0
 27 28  2  0
 28 18  1  0
 29 25  2  0
M  END
$$$$
