ICI.pdb
     RDKit          3D

 23 22  0  0  1  0  0  0  0  0999 V2000
    7.9293  -12.0584   18.4293 C   0  0  0  0  0  0  0  0  0  0  0  0
    8.1904  -13.5785   18.3876 C   0  0  0  0  0  0  0  0  0  0  0  0
    7.8910  -14.1245   19.7714 C   0  0  2  0  0  0  0  0  0  0  0  0
    8.7365  -13.3146   20.7756 C   0  0  0  0  0  0  0  0  0  0  0  0
    8.0503  -15.5806   19.9438 C   0  0  2  0  0  0  0  0  0  0  0  0
    7.1757  -16.2242   18.9527 N   0  0  0  0  0  0  0  0  0  0  0  0
    7.8421  -16.1411   21.2800 C   0  0  0  0  0  0  0  0  0  0  0  0
    6.6336  -16.2939   21.6786 O   0  0  0  0  0  0  0  0  0  0  0  0
    8.8544  -16.5293   22.1605 N   0  0  0  0  0  0  0  0  0  0  0  0
    8.7053  -17.0450   23.5202 C   0  0  1  0  0  0  0  0  0  0  0  0
    9.4189  -18.3597   23.7162 C   0  0  0  0  0  0  0  0  0  0  0  0
    9.5088  -18.8309   25.4670 S   0  0  0  0  0  0  0  0  0  0  0  0
    9.1056  -16.0315   24.4915 C   0  0  0  0  0  0  0  0  0  0  0  0
   10.2639  -15.4699   24.3566 O   0  0  0  0  0  0  0  0  0  0  0  0
    5.7115  -12.4266   26.6281 C   0  0  0  0  0  0  0  0  0  0  0  0
    6.8629  -13.1572   25.9650 C   0  0  0  0  0  0  0  0  0  0  0  0
    7.7491  -13.7095   27.0360 C   0  0  2  0  0  0  0  0  0  0  0  0
    8.2574  -12.5418   27.8673 C   0  0  0  0  0  0  0  0  0  0  0  0
    8.8953  -14.5291   26.4949 C   0  0  2  0  0  0  0  0  0  0  0  0
    8.3664  -15.5702   25.5882 N   0  0  0  0  0  0  0  0  0  0  0  0
    9.6743  -15.2360   27.5163 C   0  0  0  0  0  0  0  0  0  0  0  0
    9.3589  -16.3826   27.9575 O   0  0  0  0  0  0  0  0  0  0  0  0
   10.8068  -14.6635   28.0412 O   0  0  0  0  0  0  0  0  0  0  0  0
  1  2  1  0
  2  3  1  0
  3  5  1  0
  3  4  1  1
  5  7  1  0
  5  6  1  6
  7  9  1  0
  8  7  2  0
  9 10  1  0
 10 13  1  0
 10 11  1  6
 11 12  1  0
 13 20  1  0
 14 13  2  0
 15 16  1  0
 17 19  1  0
 17 16  1  0
 17 18  1  6
 19 21  1  0
 19 20  1  6
 21 22  2  0
 21 23  1  0
M  END
$$$$
