ICI.pdb
     RDKit          3D

 23 22  0  0  1  0  0  0  0  0999 V2000
    7.9221  -12.0314   18.0823 C   0  0  0  0  0  0  0  0  0  0  0  0
    8.5237  -13.4521   18.0800 C   0  0  0  0  0  0  0  0  0  0  0  0
    8.0363  -14.1492   19.3367 C   0  0  2  0  0  0  0  0  0  0  0  0
    8.4725  -13.2852   20.5375 C   0  0  0  0  0  0  0  0  0  0  0  0
    8.4253  -15.5639   19.4874 C   0  0  2  0  0  0  0  0  0  0  0  0
    7.8533  -16.2864   18.3420 N   0  0  0  0  0  0  0  0  0  0  0  0
    8.1079  -16.2328   20.7501 C   0  0  0  0  0  0  0  0  0  0  0  0
    6.9854  -16.8460   20.8321 O   0  0  0  0  0  0  0  0  0  0  0  0
    8.9310  -16.2631   21.8781 N   0  0  0  0  0  0  0  0  0  0  0  0
    8.6378  -16.8569   23.1813 C   0  0  1  0  0  0  0  0  0  0  0  0
    9.2273  -18.2379   23.3280 C   0  0  0  0  0  0  0  0  0  0  0  0
    9.2297  -18.7971   25.0550 S   0  0  0  0  0  0  0  0  0  0  0  0
    9.0419  -15.9505   24.2518 C   0  0  0  0  0  0  0  0  0  0  0  0
   10.2751  -15.5605   24.2984 O   0  0  0  0  0  0  0  0  0  0  0  0
    5.7105  -12.4382   27.2420 C   0  0  0  0  0  0  0  0  0  0  0  0
    6.4617  -13.6994   26.8619 C   0  0  0  0  0  0  0  0  0  0  0  0
    7.8344  -13.3119   26.4116 C   0  0  2  0  0  0  0  0  0  0  0  0
    7.6985  -12.5693   25.0914 C   0  0  0  0  0  0  0  0  0  0  0  0
    8.7702  -14.4886   26.2777 C   0  0  2  0  0  0  0  0  0  0  0  0
    8.2338  -15.4273   25.2693 N   0  0  0  0  0  0  0  0  0  0  0  0
    8.9479  -15.2686   27.5064 C   0  0  0  0  0  0  0  0  0  0  0  0
    8.5237  -16.4565   27.6402 O   0  0  0  0  0  0  0  0  0  0  0  0
    9.6026  -14.7228   28.5832 O   0  0  0  0  0  0  0  0  0  0  0  0
  1  2  1  0
  2  3  1  0
  3  5  1  0
  3  4  1  1
  5  7  1  0
  5  6  1  6
  7  9  1  0
  8  7  2  0
  9 10  1  0
 10 13  1  0
 10 11  1  1
 11 12  1  0
 13 20  1  0
 14 13  2  0
 15 16  1  0
 17 19  1  0
 17 16  1  0
 17 18  1  6
 19 21  1  0
 19 20  1  6
 21 22  2  0
 21 23  1  0
M  END
$$$$
