ICI.pdb
     RDKit          3D

 23 22  0  0  1  0  0  0  0  0999 V2000
    7.6521  -12.2511   19.5776 C   0  0  0  0  0  0  0  0  0  0  0  0
    7.6706  -13.7919   19.4983 C   0  0  0  0  0  0  0  0  0  0  0  0
    7.2893  -14.3176   20.8698 C   0  0  2  0  0  0  0  0  0  0  0  0
    8.3504  -13.8080   21.8664 C   0  0  0  0  0  0  0  0  0  0  0  0
    7.0723  -15.7730   20.9705 C   0  0  2  0  0  0  0  0  0  0  0  0
    6.0284  -16.1158   19.9937 N   0  0  0  0  0  0  0  0  0  0  0  0
    6.7710  -16.3330   22.2889 C   0  0  0  0  0  0  0  0  0  0  0  0
    5.5749  -16.7411   22.5021 O   0  0  0  0  0  0  0  0  0  0  0  0
    7.6828  -16.4648   23.3388 N   0  0  0  0  0  0  0  0  0  0  0  0
    7.4700  -17.1183   24.6290 C   0  0  1  0  0  0  0  0  0  0  0  0
    6.9144  -18.5131   24.4806 C   0  0  0  0  0  0  0  0  0  0  0  0
    6.7916  -19.3701   26.0761 S   0  0  0  0  0  0  0  0  0  0  0  0
    8.6934  -17.0762   25.4243 C   0  0  0  0  0  0  0  0  0  0  0  0
    9.7928  -17.5005   24.8894 O   0  0  0  0  0  0  0  0  0  0  0  0
    9.3776  -13.2153   29.4338 C   0  0  0  0  0  0  0  0  0  0  0  0
    9.2486  -14.6568   28.9814 C   0  0  0  0  0  0  0  0  0  0  0  0
   10.1516  -14.8643   27.8071 C   0  0  2  0  0  0  0  0  0  0  0  0
    9.7175  -13.9034   26.7111 C   0  0  0  0  0  0  0  0  0  0  0  0
   10.1591  -16.2885   27.3075 C   0  0  2  0  0  0  0  0  0  0  0  0
    8.8337  -16.6141   26.7391 N   0  0  0  0  0  0  0  0  0  0  0  0
   10.4174  -17.2955   28.3414 C   0  0  0  0  0  0  0  0  0  0  0  0
   11.4963  -17.3441   29.0067 O   0  0  0  0  0  0  0  0  0  0  0  0
    9.4693  -18.2449   28.6342 O   0  0  0  0  0  0  0  0  0  0  0  0
  1  2  1  0
  2  3  1  0
  3  5  1  0
  3  4  1  1
  5  7  1  0
  5  6  1  6
  7  9  1  0
  8  7  2  0
  9 10  1  0
 10 13  1  0
 10 11  1  6
 11 12  1  0
 13 20  1  0
 14 13  2  0
 15 16  1  0
 17 19  1  0
 17 16  1  0
 17 18  1  6
 19 21  1  0
 19 20  1  1
 21 22  2  0
 21 23  1  0
M  END
$$$$
