ICI.pdb
     RDKit          3D

 23 22  0  0  1  0  0  0  0  0999 V2000
    7.7873  -12.5870   18.1794 C   0  0  0  0  0  0  0  0  0  0  0  0
    8.0410  -14.0924   18.4022 C   0  0  0  0  0  0  0  0  0  0  0  0
    7.4437  -14.4549   19.7492 C   0  0  2  0  0  0  0  0  0  0  0  0
    8.2091  -13.6513   20.8202 C   0  0  0  0  0  0  0  0  0  0  0  0
    7.3761  -15.8943   20.0638 C   0  0  2  0  0  0  0  0  0  0  0  0
    6.5930  -16.5273   18.9925 N   0  0  0  0  0  0  0  0  0  0  0  0
    6.8831  -16.2863   21.3852 C   0  0  0  0  0  0  0  0  0  0  0  0
    5.6160  -16.2655   21.5770 O   0  0  0  0  0  0  0  0  0  0  0  0
    7.6807  -16.6872   22.4594 N   0  0  0  0  0  0  0  0  0  0  0  0
    7.2781  -16.8614   23.8538 C   0  0  1  0  0  0  0  0  0  0  0  0
    7.2620  -18.3116   24.2691 C   0  0  0  0  0  0  0  0  0  0  0  0
    8.8314  -19.1440   23.8959 S   0  0  0  0  0  0  0  0  0  0  0  0
    8.1033  -16.0304   24.7253 C   0  0  0  0  0  0  0  0  0  0  0  0
    9.3434  -15.8421   24.4063 O   0  0  0  0  0  0  0  0  0  0  0  0
    6.2422  -11.7534   27.7368 C   0  0  0  0  0  0  0  0  0  0  0  0
    6.6858  -13.1827   27.4928 C   0  0  0  0  0  0  0  0  0  0  0  0
    8.0261  -13.1527   26.8294 C   0  0  2  0  0  0  0  0  0  0  0  0
    7.8642  -12.4604   25.4850 C   0  0  0  0  0  0  0  0  0  0  0  0
    8.6378  -14.5226   26.6633 C   0  0  2  0  0  0  0  0  0  0  0  0
    7.7075  -15.3844   25.9034 N   0  0  0  0  0  0  0  0  0  0  0  0
    8.9087  -15.2254   27.9213 C   0  0  0  0  0  0  0  0  0  0  0  0
    8.3443  -16.3154   28.2411 O   0  0  0  0  0  0  0  0  0  0  0  0
    9.8123  -14.7124   28.8191 O   0  0  0  0  0  0  0  0  0  0  0  0
  1  2  1  0
  2  3  1  0
  3  5  1  0
  3  4  1  1
  5  7  1  0
  5  6  1  6
  7  9  1  0
  8  7  2  0
  9 10  1  0
 10 13  1  0
 10 11  1  1
 11 12  1  0
 13 20  1  0
 14 13  2  0
 15 16  1  0
 17 19  1  0
 17 16  1  0
 17 18  1  6
 19 21  1  0
 19 20  1  6
 21 22  2  0
 21 23  1  0
M  END
$$$$
