ICI.pdb
     RDKit          3D

 23 22  0  0  1  0  0  0  0  0999 V2000
    7.2552  -11.9129   19.6012 C   0  0  0  0  0  0  0  0  0  0  0  0
    8.0993  -13.1268   19.1603 C   0  0  0  0  0  0  0  0  0  0  0  0
    8.1714  -14.0774   20.3409 C   0  0  2  0  0  0  0  0  0  0  0  0
    8.8115  -13.3044   21.5121 C   0  0  0  0  0  0  0  0  0  0  0  0
    8.8300  -15.3735   20.0922 C   0  0  2  0  0  0  0  0  0  0  0  0
    8.1696  -15.9681   18.9210 N   0  0  0  0  0  0  0  0  0  0  0  0
    8.9087  -16.3277   21.1995 C   0  0  0  0  0  0  0  0  0  0  0  0
    7.9017  -17.0960   21.3946 O   0  0  0  0  0  0  0  0  0  0  0  0
    9.9960  -16.4753   22.0636 N   0  0  0  0  0  0  0  0  0  0  0  0
   10.1168  -17.3893   23.1981 C   0  0  1  0  0  0  0  0  0  0  0  0
   10.9273  -18.6165   22.8620 C   0  0  0  0  0  0  0  0  0  0  0  0
   11.6178  -18.5380   21.1850 S   0  0  0  0  0  0  0  0  0  0  0  0
   10.6226  -16.6779   24.3682 C   0  0  0  0  0  0  0  0  0  0  0  0
   11.6398  -15.8913   24.2210 O   0  0  0  0  0  0  0  0  0  0  0  0
    9.5419  -12.8084   28.4829 C   0  0  0  0  0  0  0  0  0  0  0  0
   10.1514  -14.1968   28.4766 C   0  0  0  0  0  0  0  0  0  0  0  0
    9.7456  -14.8831   27.2110 C   0  0  2  0  0  0  0  0  0  0  0  0
    8.3614  -15.4753   27.4262 C   0  0  0  0  0  0  0  0  0  0  0  0
   10.7256  -15.9427   26.7690 C   0  0  2  0  0  0  0  0  0  0  0  0
   10.1259  -16.7378   25.6765 N   0  0  0  0  0  0  0  0  0  0  0  0
   11.0983  -16.9017   27.8136 C   0  0  0  0  0  0  0  0  0  0  0  0
   11.8563  -16.6060   28.7867 O   0  0  0  0  0  0  0  0  0  0  0  0
   10.6211  -18.1887   27.7727 O   0  0  0  0  0  0  0  0  0  0  0  0
  1  2  1  0
  2  3  1  0
  3  5  1  0
  3  4  1  1
  5  7  1  0
  5  6  1  6
  7  9  1  0
  8  7  2  0
  9 10  1  0
 10 13  1  0
 10 11  1  6
 11 12  1  0
 13 20  1  0
 14 13  2  0
 15 16  1  0
 17 19  1  0
 17 16  1  0
 17 18  1  1
 19 21  1  0
 19 20  1  6
 21 22  2  0
 21 23  1  0
M  END
$$$$
