ICI.pdb
     RDKit          3D

 23 22  0  0  1  0  0  0  0  0999 V2000
    7.7187  -12.2364   18.1445 C   0  0  0  0  0  0  0  0  0  0  0  0
    8.1683  -13.7101   18.2258 C   0  0  0  0  0  0  0  0  0  0  0  0
    7.7991  -14.2177   19.6073 C   0  0  2  0  0  0  0  0  0  0  0  0
    8.4739  -13.2842   20.6331 C   0  0  0  0  0  0  0  0  0  0  0  0
    8.0762  -15.6420   19.8717 C   0  0  2  0  0  0  0  0  0  0  0  0
    7.3504  -16.4127   18.8516 N   0  0  0  0  0  0  0  0  0  0  0  0
    7.8089  -16.1558   21.2161 C   0  0  0  0  0  0  0  0  0  0  0  0
    6.6026  -16.4847   21.4977 O   0  0  0  0  0  0  0  0  0  0  0  0
    8.7633  -16.3228   22.2222 N   0  0  0  0  0  0  0  0  0  0  0  0
    8.5426  -16.7700   23.5963 C   0  0  1  0  0  0  0  0  0  0  0  0
    9.1293  -18.1354   23.8562 C   0  0  0  0  0  0  0  0  0  0  0  0
   10.8954  -18.2073   23.4429 S   0  0  0  0  0  0  0  0  0  0  0  0
    9.0158  -15.7601   24.5382 C   0  0  0  0  0  0  0  0  0  0  0  0
   10.1389  -15.1653   24.2936 O   0  0  0  0  0  0  0  0  0  0  0  0
    5.8451  -12.2086   27.2260 C   0  0  0  0  0  0  0  0  0  0  0  0
    6.6357  -13.4815   26.9938 C   0  0  0  0  0  0  0  0  0  0  0  0
    8.0384  -13.1056   26.6354 C   0  0  2  0  0  0  0  0  0  0  0  0
    7.9977  -12.3731   25.3032 C   0  0  0  0  0  0  0  0  0  0  0  0
    8.9737  -14.2887   26.5750 C   0  0  2  0  0  0  0  0  0  0  0  0
    8.3833  -15.3350   25.7134 N   0  0  0  0  0  0  0  0  0  0  0  0
    9.2343  -14.9261   27.8694 C   0  0  0  0  0  0  0  0  0  0  0  0
    9.7817  -14.3219   28.8412 O   0  0  0  0  0  0  0  0  0  0  0  0
    8.8800  -16.2362   28.0788 O   0  0  0  0  0  0  0  0  0  0  0  0
  1  2  1  0
  2  3  1  0
  3  5  1  0
  3  4  1  1
  5  7  1  0
  5  6  1  6
  7  9  1  0
  8  7  2  0
  9 10  1  0
 10 13  1  0
 10 11  1  1
 11 12  1  0
 13 20  1  0
 14 13  2  0
 15 16  1  0
 17 19  1  0
 17 16  1  0
 17 18  1  6
 19 21  1  0
 19 20  1  6
 21 22  2  0
 21 23  1  0
M  END
$$$$
