ICI.pdb
     RDKit          3D

 23 22  0  0  1  0  0  0  0  0999 V2000
    7.0693  -12.1461   18.5465 C   0  0  0  0  0  0  0  0  0  0  0  0
    8.2216  -13.1569   18.7229 C   0  0  0  0  0  0  0  0  0  0  0  0
    8.0662  -13.7810   20.0973 C   0  0  2  0  0  0  0  0  0  0  0  0
    8.9444  -12.9685   21.0706 C   0  0  0  0  0  0  0  0  0  0  0  0
    8.3191  -15.2315   20.1845 C   0  0  2  0  0  0  0  0  0  0  0  0
    7.4182  -15.8789   19.2197 N   0  0  0  0  0  0  0  0  0  0  0  0
    8.2326  -15.8659   21.5009 C   0  0  0  0  0  0  0  0  0  0  0  0
    7.0654  -16.1445   21.9509 O   0  0  0  0  0  0  0  0  0  0  0  0
    9.3208  -16.1990   22.3106 N   0  0  0  0  0  0  0  0  0  0  0  0
    9.2926  -16.8383   23.6250 C   0  0  1  0  0  0  0  0  0  0  0  0
   10.1581  -18.0727   23.6809 C   0  0  0  0  0  0  0  0  0  0  0  0
   10.3008  -18.7281   25.3677 S   0  0  0  0  0  0  0  0  0  0  0  0
    9.6196  -15.8681   24.6656 C   0  0  0  0  0  0  0  0  0  0  0  0
   10.6590  -15.1143   24.5029 O   0  0  0  0  0  0  0  0  0  0  0  0
    6.2403  -12.4645   26.6117 C   0  0  0  0  0  0  0  0  0  0  0  0
    7.5320  -13.0808   26.1109 C   0  0  0  0  0  0  0  0  0  0  0  0
    8.1953  -13.7787   27.2555 C   0  0  2  0  0  0  0  0  0  0  0  0
    8.6143  -12.7214   28.2652 C   0  0  0  0  0  0  0  0  0  0  0  0
    9.3735  -14.6231   26.8346 C   0  0  2  0  0  0  0  0  0  0  0  0
    8.9232  -15.6387   25.8591 N   0  0  0  0  0  0  0  0  0  0  0  0
   10.0139  -15.3629   27.9265 C   0  0  0  0  0  0  0  0  0  0  0  0
    9.7813  -16.5872   28.1634 O   0  0  0  0  0  0  0  0  0  0  0  0
   10.9162  -14.7361   28.7504 O   0  0  0  0  0  0  0  0  0  0  0  0
  1  2  1  0
  2  3  1  0
  3  5  1  0
  3  4  1  1
  5  7  1  0
  5  6  1  6
  7  9  1  0
  8  7  2  0
  9 10  1  0
 10 13  1  0
 10 11  1  6
 11 12  1  0
 13 20  1  0
 14 13  2  0
 15 16  1  0
 17 19  1  0
 17 16  1  0
 17 18  1  1
 19 21  1  0
 19 20  1  6
 21 22  2  0
 21 23  1  0
M  END
$$$$
