ICI.pdb
     RDKit          3D

 23 22  0  0  1  0  0  0  0  0999 V2000
    7.7451  -12.0695   18.3335 C   0  0  0  0  0  0  0  0  0  0  0  0
    8.1949  -13.5453   18.3497 C   0  0  0  0  0  0  0  0  0  0  0  0
    7.7511  -14.1364   19.6750 C   0  0  2  0  0  0  0  0  0  0  0  0
    8.4058  -13.2982   20.7920 C   0  0  0  0  0  0  0  0  0  0  0  0
    7.9762  -15.5837   19.8488 C   0  0  2  0  0  0  0  0  0  0  0  0
    7.2534  -16.2599   18.7617 N   0  0  0  0  0  0  0  0  0  0  0  0
    7.6579  -16.1772   21.1485 C   0  0  0  0  0  0  0  0  0  0  0  0
    6.4207  -16.3450   21.4382 O   0  0  0  0  0  0  0  0  0  0  0  0
    8.5935  -16.5821   22.1032 N   0  0  0  0  0  0  0  0  0  0  0  0
    8.3360  -17.0381   23.4680 C   0  0  1  0  0  0  0  0  0  0  0  0
    8.8397  -18.4396   23.7090 C   0  0  0  0  0  0  0  0  0  0  0  0
    8.7848  -18.8898   25.4667 S   0  0  0  0  0  0  0  0  0  0  0  0
    8.8598  -16.0733   24.4301 C   0  0  0  0  0  0  0  0  0  0  0  0
   10.1084  -15.7412   24.3546 O   0  0  0  0  0  0  0  0  0  0  0  0
    6.0887  -11.9880   27.1762 C   0  0  0  0  0  0  0  0  0  0  0  0
    6.6637  -13.3697   26.9326 C   0  0  0  0  0  0  0  0  0  0  0  0
    8.0754  -13.2158   26.4627 C   0  0  2  0  0  0  0  0  0  0  0  0
    8.0409  -12.5470   25.0972 C   0  0  0  0  0  0  0  0  0  0  0  0
    8.8291  -14.5224   26.4072 C   0  0  2  0  0  0  0  0  0  0  0  0
    8.1556  -15.4353   25.4592 N   0  0  0  0  0  0  0  0  0  0  0  0
    8.8989  -15.2401   27.6839 C   0  0  0  0  0  0  0  0  0  0  0  0
    8.3202  -16.3504   27.8868 O   0  0  0  0  0  0  0  0  0  0  0  0
    9.6181  -14.7192   28.7314 O   0  0  0  0  0  0  0  0  0  0  0  0
  1  2  1  0
  2  3  1  0
  3  5  1  0
  3  4  1  1
  5  7  1  0
  5  6  1  6
  7  9  1  0
  8  7  2  0
  9 10  1  0
 10 13  1  0
 10 11  1  1
 11 12  1  0
 13 20  1  0
 14 13  2  0
 15 16  1  0
 17 19  1  0
 17 16  1  0
 17 18  1  6
 19 21  1  0
 19 20  1  6
 21 22  2  0
 21 23  1  0
M  END
$$$$
