ICI.pdb
     RDKit          3D

 23 22  0  0  1  0  0  0  0  0999 V2000
    7.8265  -12.1055   18.3703 C   0  0  0  0  0  0  0  0  0  0  0  0
    8.1937  -13.6041   18.3720 C   0  0  0  0  0  0  0  0  0  0  0  0
    7.7288  -14.1797   19.6969 C   0  0  2  0  0  0  0  0  0  0  0  0
    8.4170  -13.3694   20.8144 C   0  0  0  0  0  0  0  0  0  0  0  0
    7.8978  -15.6349   19.8681 C   0  0  2  0  0  0  0  0  0  0  0  0
    7.1379  -16.2811   18.7882 N   0  0  0  0  0  0  0  0  0  0  0  0
    7.5691  -16.2161   21.1708 C   0  0  0  0  0  0  0  0  0  0  0  0
    6.3301  -16.3920   21.4475 O   0  0  0  0  0  0  0  0  0  0  0  0
    8.4966  -16.6011   22.1414 N   0  0  0  0  0  0  0  0  0  0  0  0
    8.2247  -17.0821   23.4948 C   0  0  1  0  0  0  0  0  0  0  0  0
    8.7971  -18.4561   23.7409 C   0  0  0  0  0  0  0  0  0  0  0  0
    8.7077  -18.9271   25.4918 S   0  0  0  0  0  0  0  0  0  0  0  0
    8.6665  -16.0984   24.4787 C   0  0  0  0  0  0  0  0  0  0  0  0
    9.8583  -15.6060   24.3678 O   0  0  0  0  0  0  0  0  0  0  0  0
    6.2233  -11.6191   26.2493 C   0  0  0  0  0  0  0  0  0  0  0  0
    6.7756  -12.9443   25.7614 C   0  0  0  0  0  0  0  0  0  0  0  0
    7.4345  -13.6328   26.9143 C   0  0  2  0  0  0  0  0  0  0  0  0
    7.9948  -12.5616   27.8372 C   0  0  0  0  0  0  0  0  0  0  0  0
    8.5120  -14.6014   26.4912 C   0  0  2  0  0  0  0  0  0  0  0  0
    7.9360  -15.5989   25.5644 N   0  0  0  0  0  0  0  0  0  0  0  0
    9.1109  -15.3647   27.5905 C   0  0  0  0  0  0  0  0  0  0  0  0
    8.6403  -16.4674   28.0048 O   0  0  0  0  0  0  0  0  0  0  0  0
   10.2367  -14.8981   28.2233 O   0  0  0  0  0  0  0  0  0  0  0  0
  1  2  1  0
  2  3  1  0
  3  5  1  0
  3  4  1  1
  5  7  1  0
  5  6  1  6
  7  9  1  0
  8  7  2  0
  9 10  1  0
 10 13  1  0
 10 11  1  1
 11 12  1  0
 13 20  1  0
 14 13  2  0
 15 16  1  0
 17 19  1  0
 17 16  1  0
 17 18  1  1
 19 21  1  0
 19 20  1  6
 21 22  2  0
 21 23  1  0
M  END
$$$$
