LLN.pdb
     RDKit          3D

 25 24  0  0  1  0  0  0  0  0999 V2000
    8.7483  -14.5767   18.7761 C   0  0  0  0  0  0  0  0  0  0  0  0
    7.7622  -13.7157   19.5290 C   0  0  2  0  0  0  0  0  0  0  0  0
    7.5231  -12.4509   18.7266 C   0  0  0  0  0  0  0  0  0  0  0  0
    8.2574  -13.4120   20.9161 C   0  0  0  0  0  0  0  0  0  0  0  0
    8.3681  -14.7438   21.6556 C   0  0  2  0  0  0  0  0  0  0  0  0
    7.1349  -15.4466   21.5272 N   0  0  0  0  0  0  0  0  0  0  0  0
    8.7749  -14.5096   23.0777 C   0  0  0  0  0  0  0  0  0  0  0  0
    9.9401  -14.0772   23.2607 O   0  0  0  0  0  0  0  0  0  0  0  0
    7.8107  -11.5883   26.0793 C   0  0  0  0  0  0  0  0  0  0  0  0
    6.6656  -12.5629   25.7529 C   0  0  2  0  0  0  0  0  0  0  0  0
    5.4206  -12.0244   26.3436 C   0  0  0  0  0  0  0  0  0  0  0  0
    7.0539  -13.9194   26.1669 C   0  0  0  0  0  0  0  0  0  0  0  0
    8.2116  -14.5742   25.5377 C   0  0  2  0  0  0  0  0  0  0  0  0
    7.8580  -14.7774   24.1192 N   0  0  0  0  0  0  0  0  0  0  0  0
    8.5970  -15.9057   26.0557 C   0  0  0  0  0  0  0  0  0  0  0  0
    8.7033  -16.1452   27.3195 O   0  0  0  0  0  0  0  0  0  0  0  0
    6.5430  -18.5421   26.1324 N   0  0  0  0  0  0  0  0  0  0  0  0
    7.1964  -19.5105   25.3081 C   0  0  0  0  0  0  0  0  0  0  0  0
    6.4703  -20.4049   24.7691 O   0  0  0  0  0  0  0  0  0  0  0  0
    8.6550  -19.4772   25.0851 C   0  0  0  0  0  0  0  0  0  0  0  0
    9.3066  -18.3111   25.8394 C   0  0  2  0  0  0  0  0  0  0  0  0
    8.8860  -17.0458   25.2526 N   0  0  0  0  0  0  0  0  0  0  0  0
   10.7653  -18.4627   25.8119 C   0  0  0  0  0  0  0  0  0  0  0  0
   11.4530  -19.4526   26.5398 O   0  0  0  0  0  0  0  0  0  0  0  0
   11.4569  -17.6872   25.1151 O   0  0  0  0  0  0  0  0  0  0  0  0
  2  1  1  6
  2  3  1  0
  4  2  1  0
  4  5  1  0
  5  7  1  0
  5  6  1  1
  7  8  2  0
 10  9  1  1
 10 12  1  0
 11 10  1  0
 13 12  1  1
 14 13  1  0
 14  7  1  0
 15 16  2  0
 15 13  1  0
 17 18  1  0
 18 19  2  0
 18 20  1  0
 21 20  1  6
 21 23  1  0
 21 22  1  0
 22 15  1  0
 23 24  1  0
 25 23  2  0
M  END
$$$$
