LLN.pdb
     RDKit          3D

 25 24  0  0  1  0  0  0  0  0999 V2000
    6.3087  -12.5800   26.1163 C   0  0  0  0  0  0  0  0  0  0  0  0
    7.3387  -13.4019   26.8539 C   0  0  2  0  0  0  0  0  0  0  0  0
    8.2328  -12.4577   27.6348 C   0  0  0  0  0  0  0  0  0  0  0  0
    8.1273  -14.2606   25.9041 C   0  0  0  0  0  0  0  0  0  0  0  0
    7.1261  -15.1335   25.1500 C   0  0  2  0  0  0  0  0  0  0  0  0
    6.5972  -16.1077   26.0457 N   0  0  0  0  0  0  0  0  0  0  0  0
    7.7738  -15.7283   23.9378 C   0  0  0  0  0  0  0  0  0  0  0  0
    7.8010  -16.9828   23.8787 O   0  0  0  0  0  0  0  0  0  0  0  0
    6.3696  -13.7888   20.2900 C   0  0  0  0  0  0  0  0  0  0  0  0
    7.6985  -13.2446   20.8426 C   0  0  2  0  0  0  0  0  0  0  0  0
    7.9684  -11.9430   20.1927 C   0  0  0  0  0  0  0  0  0  0  0  0
    8.7378  -14.2752   20.7018 C   0  0  0  0  0  0  0  0  0  0  0  0
    8.7871  -15.4000   21.6490 C   0  0  2  0  0  0  0  0  0  0  0  0
    8.3095  -14.8780   22.9444 N   0  0  0  0  0  0  0  0  0  0  0  0
   10.1136  -15.9990   21.9160 C   0  0  0  0  0  0  0  0  0  0  0  0
   10.7200  -16.7368   21.0477 O   0  0  0  0  0  0  0  0  0  0  0  0
   13.3084  -16.0860   20.8360 N   0  0  0  0  0  0  0  0  0  0  0  0
   13.8435  -15.3599   21.9453 C   0  0  0  0  0  0  0  0  0  0  0  0
   14.8315  -14.5915   21.7194 O   0  0  0  0  0  0  0  0  0  0  0  0
   13.2743  -15.4901   23.3008 C   0  0  0  0  0  0  0  0  0  0  0  0
   12.1323  -16.5141   23.3287 C   0  0  2  0  0  0  0  0  0  0  0  0
   10.8581  -15.8396   23.1196 N   0  0  0  0  0  0  0  0  0  0  0  0
   12.1573  -17.2426   24.6016 C   0  0  0  0  0  0  0  0  0  0  0  0
   13.2088  -18.0986   24.9813 O   0  0  0  0  0  0  0  0  0  0  0  0
   11.2097  -17.1149   25.4084 O   0  0  0  0  0  0  0  0  0  0  0  0
  2  1  1  6
  2  3  1  0
  4  2  1  0
  4  5  1  0
  5  7  1  0
  5  6  1  1
  7  8  2  0
 10  9  1  6
 10 12  1  0
 11 10  1  0
 13 12  1  6
 14 13  1  0
 14  7  1  0
 15 16  2  0
 15 13  1  0
 17 18  1  0
 18 19  2  0
 18 20  1  0
 21 20  1  1
 21 23  1  0
 21 22  1  0
 22 15  1  0
 23 24  1  0
 25 23  2  0
M  END
$$$$
