LLN.pdb
     RDKit          3D

 25 24  0  0  1  0  0  0  0  0999 V2000
    8.5303  -14.4109   18.5082 C   0  0  0  0  0  0  0  0  0  0  0  0
    7.7731  -13.5283   19.4717 C   0  0  2  0  0  0  0  0  0  0  0  0
    7.4905  -12.2054   18.7857 C   0  0  0  0  0  0  0  0  0  0  0  0
    8.5400  -13.3414   20.7516 C   0  0  0  0  0  0  0  0  0  0  0  0
    8.6403  -14.7111   21.4199 C   0  0  2  0  0  0  0  0  0  0  0  0
    7.3640  -15.3432   21.3699 N   0  0  0  0  0  0  0  0  0  0  0  0
    9.1794  -14.5666   22.8095 C   0  0  0  0  0  0  0  0  0  0  0  0
   10.3437  -14.1061   22.9112 O   0  0  0  0  0  0  0  0  0  0  0  0
    8.1513  -12.0261   26.2216 C   0  0  0  0  0  0  0  0  0  0  0  0
    7.1102  -13.1182   25.9199 C   0  0  2  0  0  0  0  0  0  0  0  0
    5.8949  -12.8267   26.7119 C   0  0  0  0  0  0  0  0  0  0  0  0
    7.7236  -14.4389   26.1233 C   0  0  0  0  0  0  0  0  0  0  0  0
    8.8720  -14.8480   25.2994 C   0  0  2  0  0  0  0  0  0  0  0  0
    8.3789  -14.9434   23.9115 N   0  0  0  0  0  0  0  0  0  0  0  0
    9.4872  -16.1590   25.6036 C   0  0  0  0  0  0  0  0  0  0  0  0
    9.7216  -16.5421   26.8137 O   0  0  0  0  0  0  0  0  0  0  0  0
    8.4269  -19.3261   22.2693 N   0  0  0  0  0  0  0  0  0  0  0  0
    8.9220  -19.5784   23.5866 C   0  0  0  0  0  0  0  0  0  0  0  0
    8.0817  -19.9503   24.4659 O   0  0  0  0  0  0  0  0  0  0  0  0
   10.3512  -19.4184   23.9185 C   0  0  0  0  0  0  0  0  0  0  0  0
   10.5536  -18.3607   25.0110 C   0  0  2  0  0  0  0  0  0  0  0  0
    9.8805  -17.1250   24.6339 N   0  0  0  0  0  0  0  0  0  0  0  0
   11.9886  -18.1506   25.2308 C   0  0  0  0  0  0  0  0  0  0  0  0
   12.8594  -19.1656   25.6714 O   0  0  0  0  0  0  0  0  0  0  0  0
   12.4897  -17.0231   25.0240 O   0  0  0  0  0  0  0  0  0  0  0  0
  2  1  1  6
  2  3  1  0
  4  2  1  0
  4  5  1  0
  5  7  1  0
  5  6  1  1
  7  8  2  0
 10  9  1  1
 10 12  1  0
 11 10  1  0
 13 12  1  1
 14 13  1  0
 14  7  1  0
 15 16  2  0
 15 13  1  0
 17 18  1  0
 18 19  2  0
 18 20  1  0
 21 20  1  6
 21 23  1  0
 21 22  1  0
 22 15  1  0
 23 24  1  0
 25 23  2  0
M  END
$$$$
