LLN.pdb
     RDKit          3D

 25 24  0  0  1  0  0  0  0  0999 V2000
    7.1837  -14.4845   18.6221 C   0  0  0  0  0  0  0  0  0  0  0  0
    7.7144  -13.6783   19.7836 C   0  0  2  0  0  0  0  0  0  0  0  0
    7.7595  -12.2194   19.3709 C   0  0  0  0  0  0  0  0  0  0  0  0
    9.0647  -14.1782   20.2173 C   0  0  0  0  0  0  0  0  0  0  0  0
    8.8262  -15.3389   21.1811 C   0  0  2  0  0  0  0  0  0  0  0  0
    7.5175  -15.8590   20.9618 N   0  0  0  0  0  0  0  0  0  0  0  0
    9.0610  -14.8925   22.5912 C   0  0  0  0  0  0  0  0  0  0  0  0
   10.2030  -14.4373   22.8494 O   0  0  0  0  0  0  0  0  0  0  0  0
    5.3269  -12.6424   26.7169 C   0  0  0  0  0  0  0  0  0  0  0  0
    6.7933  -13.0599   26.5098 C   0  0  2  0  0  0  0  0  0  0  0  0
    7.6374  -11.8507   26.6299 C   0  0  0  0  0  0  0  0  0  0  0  0
    6.9069  -13.8160   25.2538 C   0  0  0  0  0  0  0  0  0  0  0  0
    8.1686  -14.4951   24.9190 C   0  0  2  0  0  0  0  0  0  0  0  0
    8.0193  -14.9999   23.5401 N   0  0  0  0  0  0  0  0  0  0  0  0
    8.5433  -15.6660   25.7425 C   0  0  0  0  0  0  0  0  0  0  0  0
    8.5464  -15.6241   27.0326 O   0  0  0  0  0  0  0  0  0  0  0  0
    6.0419  -18.8131   24.8719 N   0  0  0  0  0  0  0  0  0  0  0  0
    6.9386  -18.9249   25.9798 C   0  0  0  0  0  0  0  0  0  0  0  0
    6.4590  -18.7328   27.1420 O   0  0  0  0  0  0  0  0  0  0  0  0
    8.3649  -19.2532   25.7892 C   0  0  0  0  0  0  0  0  0  0  0  0
    9.2606  -18.0503   26.1121 C   0  0  2  0  0  0  0  0  0  0  0  0
    8.9309  -16.9376   25.2316 N   0  0  0  0  0  0  0  0  0  0  0  0
   10.6693  -18.4402   25.9885 C   0  0  0  0  0  0  0  0  0  0  0  0
   11.2011  -19.0618   24.8424 O   0  0  0  0  0  0  0  0  0  0  0  0
   11.4592  -18.2208   26.9335 O   0  0  0  0  0  0  0  0  0  0  0  0
  2  1  1  6
  2  3  1  0
  4  2  1  0
  4  5  1  0
  5  7  1  0
  5  6  1  1
  7  8  2  0
 10  9  1  6
 10 12  1  0
 11 10  1  0
 13 12  1  1
 14 13  1  0
 14  7  1  0
 15 16  2  0
 15 13  1  0
 17 18  1  0
 18 19  2  0
 18 20  1  0
 21 20  1  6
 21 23  1  0
 21 22  1  0
 22 15  1  0
 23 24  1  0
 25 23  2  0
M  END
$$$$
