LLN.pdb
     RDKit          3D

 25 24  0  0  1  0  0  0  0  0999 V2000
    8.6021  -14.8219   18.7635 C   0  0  0  0  0  0  0  0  0  0  0  0
    7.7311  -13.9083   19.5924 C   0  0  2  0  0  0  0  0  0  0  0  0
    7.4533  -12.6534   18.7869 C   0  0  0  0  0  0  0  0  0  0  0  0
    8.3793  -13.5929   20.9122 C   0  0  0  0  0  0  0  0  0  0  0  0
    8.4699  -14.9026   21.6929 C   0  0  2  0  0  0  0  0  0  0  0  0
    7.2259  -15.5898   21.5867 N   0  0  0  0  0  0  0  0  0  0  0  0
    8.8812  -14.6304   23.1069 C   0  0  0  0  0  0  0  0  0  0  0  0
   10.0097  -14.1027   23.2679 O   0  0  0  0  0  0  0  0  0  0  0  0
    8.0758  -11.7835   26.3182 C   0  0  0  0  0  0  0  0  0  0  0  0
    6.9042  -12.6768   25.8745 C   0  0  2  0  0  0  0  0  0  0  0  0
    5.6596  -12.1242   26.4529 C   0  0  0  0  0  0  0  0  0  0  0  0
    7.2138  -14.0765   26.2020 C   0  0  0  0  0  0  0  0  0  0  0  0
    8.3709  -14.7364   25.5770 C   0  0  2  0  0  0  0  0  0  0  0  0
    8.0083  -14.9691   24.1653 N   0  0  0  0  0  0  0  0  0  0  0  0
    8.7681  -16.0553   26.1177 C   0  0  0  0  0  0  0  0  0  0  0  0
    8.9961  -16.2405   27.3746 O   0  0  0  0  0  0  0  0  0  0  0  0
    6.2478  -19.1807   24.3106 N   0  0  0  0  0  0  0  0  0  0  0  0
    7.0687  -19.4173   25.4570 C   0  0  0  0  0  0  0  0  0  0  0  0
    6.4984  -19.4210   26.5938 O   0  0  0  0  0  0  0  0  0  0  0  0
    8.5205  -19.6518   25.3324 C   0  0  0  0  0  0  0  0  0  0  0  0
    9.3249  -18.5049   25.9576 C   0  0  2  0  0  0  0  0  0  0  0  0
    8.9400  -17.2400   25.3461 N   0  0  0  0  0  0  0  0  0  0  0  0
   10.7593  -18.7685   25.7998 C   0  0  0  0  0  0  0  0  0  0  0  0
   11.4042  -19.8906   26.3546 O   0  0  0  0  0  0  0  0  0  0  0  0
   11.4682  -17.9728   25.1444 O   0  0  0  0  0  0  0  0  0  0  0  0
  2  1  1  6
  2  3  1  0
  4  2  1  0
  4  5  1  0
  5  7  1  0
  5  6  1  1
  7  8  2  0
 10  9  1  1
 10 12  1  0
 11 10  1  0
 13 12  1  1
 14 13  1  0
 14  7  1  0
 15 16  2  0
 15 13  1  0
 17 18  1  0
 18 19  2  0
 18 20  1  0
 21 20  1  6
 21 23  1  0
 21 22  1  0
 22 15  1  0
 23 24  1  0
 25 23  2  0
M  END
$$$$
