LLN.pdb
     RDKit          3D

 25 24  0  0  1  0  0  0  0  0999 V2000
    8.2725  -20.3019   15.9233 C   0  0  0  0  0  0  0  0  0  0  0  0
    7.7587  -18.8883   15.7873 C   0  0  2  0  0  0  0  0  0  0  0  0
    7.7043  -18.5402   14.3120 C   0  0  0  0  0  0  0  0  0  0  0  0
    8.6176  -17.9238   16.5575 C   0  0  0  0  0  0  0  0  0  0  0  0
    8.5841  -18.3613   18.0205 C   0  0  2  0  0  0  0  0  0  0  0  0
    7.2280  -18.5576   18.4123 N   0  0  0  0  0  0  0  0  0  0  0  0
    9.3117  -17.3664   18.8711 C   0  0  0  0  0  0  0  0  0  0  0  0
   10.5326  -17.2068   18.6223 O   0  0  0  0  0  0  0  0  0  0  0  0
    8.6121  -12.8840   19.7628 C   0  0  0  0  0  0  0  0  0  0  0  0
    7.5891  -13.8909   20.3169 C   0  0  2  0  0  0  0  0  0  0  0  0
    6.4306  -13.1311   20.8364 C   0  0  0  0  0  0  0  0  0  0  0  0
    8.2622  -14.7896   21.2663 C   0  0  0  0  0  0  0  0  0  0  0  0
    9.2944  -15.7220   20.7865 C   0  0  2  0  0  0  0  0  0  0  0  0
    8.6140  -16.6724   19.8853 N   0  0  0  0  0  0  0  0  0  0  0  0
    9.9827  -16.5474   21.8036 C   0  0  0  0  0  0  0  0  0  0  0  0
    9.4019  -17.5413   22.3875 O   0  0  0  0  0  0  0  0  0  0  0  0
   14.3842  -17.4137   20.6796 N   0  0  0  0  0  0  0  0  0  0  0  0
   13.6209  -18.0403   21.7135 C   0  0  0  0  0  0  0  0  0  0  0  0
   13.1350  -19.1895   21.4668 O   0  0  0  0  0  0  0  0  0  0  0  0
   13.4043  -17.3859   23.0185 C   0  0  0  0  0  0  0  0  0  0  0  0
   11.9099  -17.1775   23.2952 C   0  0  2  0  0  0  0  0  0  0  0  0
   11.3226  -16.3548   22.2462 N   0  0  0  0  0  0  0  0  0  0  0  0
   11.7358  -16.5720   24.6199 C   0  0  0  0  0  0  0  0  0  0  0  0
   12.1245  -17.2053   25.8160 O   0  0  0  0  0  0  0  0  0  0  0  0
   11.2191  -15.4371   24.7205 O   0  0  0  0  0  0  0  0  0  0  0  0
  2  1  1  6
  2  3  1  0
  4  2  1  0
  4  5  1  0
  5  7  1  0
  5  6  1  1
  7  8  2  0
 10  9  1  1
 10 12  1  0
 11 10  1  0
 13 12  1  1
 14 13  1  0
 14  7  1  0
 15 16  2  0
 15 13  1  0
 17 18  1  0
 18 19  2  0
 18 20  1  0
 21 20  1  6
 21 23  1  0
 21 22  1  0
 22 15  1  0
 23 24  1  0
 25 23  2  0
M  END
$$$$
