LLN.pdb
     RDKit          3D

 25 24  0  0  1  0  0  0  0  0999 V2000
    6.9797  -19.0783   20.5402 C   0  0  0  0  0  0  0  0  0  0  0  0
    8.4528  -19.0979   20.8722 C   0  0  2  0  0  0  0  0  0  0  0  0
    8.8535  -20.5280   21.1804 C   0  0  0  0  0  0  0  0  0  0  0  0
    8.7622  -18.1721   22.0161 C   0  0  0  0  0  0  0  0  0  0  0  0
    8.5295  -16.7474   21.5171 C   0  0  2  0  0  0  0  0  0  0  0  0
    9.1951  -16.5818   20.2678 N   0  0  0  0  0  0  0  0  0  0  0  0
    8.9623  -15.7613   22.5578 C   0  0  0  0  0  0  0  0  0  0  0  0
   10.1458  -15.3482   22.4769 O   0  0  0  0  0  0  0  0  0  0  0  0
    5.8292  -12.7414   26.8764 C   0  0  0  0  0  0  0  0  0  0  0  0
    7.2569  -12.9719   26.3509 C   0  0  2  0  0  0  0  0  0  0  0  0
    7.8864  -11.6506   26.1343 C   0  0  0  0  0  0  0  0  0  0  0  0
    7.2038  -13.8708   25.1884 C   0  0  0  0  0  0  0  0  0  0  0  0
    8.4463  -14.4469   24.6504 C   0  0  2  0  0  0  0  0  0  0  0  0
    8.0480  -15.3519   23.5545 N   0  0  0  0  0  0  0  0  0  0  0  0
    9.2666  -15.2621   25.5735 C   0  0  0  0  0  0  0  0  0  0  0  0
    9.8331  -14.7553   26.6167 O   0  0  0  0  0  0  0  0  0  0  0  0
   11.6656  -19.0103   28.2307 N   0  0  0  0  0  0  0  0  0  0  0  0
   10.3480  -19.4111   27.8468 C   0  0  0  0  0  0  0  0  0  0  0  0
    9.8819  -20.4702   28.3747 O   0  0  0  0  0  0  0  0  0  0  0  0
    9.5539  -18.6294   26.8790 C   0  0  0  0  0  0  0  0  0  0  0  0
   10.3236  -17.3926   26.3981 C   0  0  2  0  0  0  0  0  0  0  0  0
    9.5213  -16.6560   25.4306 N   0  0  0  0  0  0  0  0  0  0  0  0
   11.6117  -17.8059   25.8311 C   0  0  0  0  0  0  0  0  0  0  0  0
   11.7411  -18.4057   24.5637 O   0  0  0  0  0  0  0  0  0  0  0  0
   12.6634  -17.6280   26.4850 O   0  0  0  0  0  0  0  0  0  0  0  0
  2  1  1  1
  2  3  1  0
  4  2  1  0
  4  5  1  0
  5  7  1  0
  5  6  1  6
  7  8  2  0
 10  9  1  6
 10 12  1  0
 11 10  1  0
 13 12  1  1
 14 13  1  0
 14  7  1  0
 15 16  2  0
 15 13  1  0
 17 18  1  0
 18 19  2  0
 18 20  1  0
 21 20  1  6
 21 23  1  0
 21 22  1  0
 22 15  1  0
 23 24  1  0
 25 23  2  0
M  END
$$$$
