LLN.pdb
     RDKit          3D

 25 24  0  0  1  0  0  0  0  0999 V2000
    6.4312  -17.7215   20.4390 C   0  0  0  0  0  0  0  0  0  0  0  0
    7.9392  -17.7986   20.4143 C   0  0  2  0  0  0  0  0  0  0  0  0
    8.3402  -19.2525   20.2530 C   0  0  0  0  0  0  0  0  0  0  0  0
    8.5328  -17.1896   21.6545 C   0  0  0  0  0  0  0  0  0  0  0  0
    8.0073  -15.7585   21.7485 C   0  0  2  0  0  0  0  0  0  0  0  0
    8.3258  -15.0700   20.5420 N   0  0  0  0  0  0  0  0  0  0  0  0
    8.5486  -15.0919   22.9753 C   0  0  0  0  0  0  0  0  0  0  0  0
    9.7489  -14.7243   22.9269 O   0  0  0  0  0  0  0  0  0  0  0  0
    7.2633  -11.5038   25.6112 C   0  0  0  0  0  0  0  0  0  0  0  0
    6.3040  -12.7053   25.6706 C   0  0  2  0  0  0  0  0  0  0  0  0
    5.1277  -12.3154   26.4789 C   0  0  0  0  0  0  0  0  0  0  0  0
    7.0450  -13.8924   26.1224 C   0  0  0  0  0  0  0  0  0  0  0  0
    8.2205  -14.3536   25.3671 C   0  0  2  0  0  0  0  0  0  0  0  0
    7.7110  -14.9114   24.0991 N   0  0  0  0  0  0  0  0  0  0  0  0
    9.0400  -15.4217   25.9812 C   0  0  0  0  0  0  0  0  0  0  0  0
    8.5588  -16.5906   26.2423 O   0  0  0  0  0  0  0  0  0  0  0  0
   13.5766  -15.2579   24.5286 N   0  0  0  0  0  0  0  0  0  0  0  0
   12.8323  -16.2921   25.1771 C   0  0  0  0  0  0  0  0  0  0  0  0
   12.3536  -17.2152   24.4448 O   0  0  0  0  0  0  0  0  0  0  0  0
   12.6267  -16.2957   26.6387 C   0  0  0  0  0  0  0  0  0  0  0  0
   11.1361  -16.3828   26.9906 C   0  0  2  0  0  0  0  0  0  0  0  0
   10.4112  -15.2964   26.3451 N   0  0  0  0  0  0  0  0  0  0  0  0
   10.9733  -16.3519   28.4481 C   0  0  0  0  0  0  0  0  0  0  0  0
   11.5261  -17.3203   29.3078 O   0  0  0  0  0  0  0  0  0  0  0  0
   10.3153  -15.4302   28.9797 O   0  0  0  0  0  0  0  0  0  0  0  0
  2  1  1  1
  2  3  1  0
  4  2  1  0
  4  5  1  0
  5  7  1  0
  5  6  1  6
  7  8  2  0
 10  9  1  1
 10 12  1  0
 11 10  1  0
 13 12  1  1
 14 13  1  0
 14  7  1  0
 15 16  2  0
 15 13  1  0
 17 18  1  0
 18 19  2  0
 18 20  1  0
 21 20  1  1
 21 23  1  0
 21 22  1  0
 22 15  1  0
 23 24  1  0
 25 23  2  0
M  END
$$$$
