LLN.pdb
     RDKit          3D

 25 24  0  0  1  0  0  0  0  0999 V2000
    8.3670  -14.5092   18.6267 C   0  0  0  0  0  0  0  0  0  0  0  0
    7.5910  -13.6642   19.6087 C   0  0  2  0  0  0  0  0  0  0  0  0
    7.1818  -12.3796   18.9138 C   0  0  0  0  0  0  0  0  0  0  0  0
    8.3986  -13.3959   20.8485 C   0  0  0  0  0  0  0  0  0  0  0  0
    8.5659  -14.7298   21.5735 C   0  0  2  0  0  0  0  0  0  0  0  0
    7.3382  -15.4502   21.5032 N   0  0  0  0  0  0  0  0  0  0  0  0
    9.0404  -14.4971   22.9747 C   0  0  0  0  0  0  0  0  0  0  0  0
   10.1932  -14.0140   23.1004 O   0  0  0  0  0  0  0  0  0  0  0  0
    7.8314  -11.8169   26.1850 C   0  0  0  0  0  0  0  0  0  0  0  0
    6.8267  -12.9524   25.9227 C   0  0  2  0  0  0  0  0  0  0  0  0
    5.5801  -12.6424   26.6569 C   0  0  0  0  0  0  0  0  0  0  0  0
    7.4644  -14.2413   26.2295 C   0  0  0  0  0  0  0  0  0  0  0  0
    8.6405  -14.6781   25.4608 C   0  0  2  0  0  0  0  0  0  0  0  0
    8.1961  -14.8213   24.0606 N   0  0  0  0  0  0  0  0  0  0  0  0
    9.2435  -15.9777   25.8312 C   0  0  0  0  0  0  0  0  0  0  0  0
    9.4904  -16.2941   27.0579 O   0  0  0  0  0  0  0  0  0  0  0  0
    9.8074  -21.5963   25.4405 N   0  0  0  0  0  0  0  0  0  0  0  0
   10.5492  -20.6329   24.6883 C   0  0  0  0  0  0  0  0  0  0  0  0
   11.7455  -20.9305   24.3755 O   0  0  0  0  0  0  0  0  0  0  0  0
    9.9547  -19.3436   24.2850 C   0  0  0  0  0  0  0  0  0  0  0  0
   10.1660  -18.2723   25.3624 C   0  0  2  0  0  0  0  0  0  0  0  0
    9.6108  -17.0027   24.9131 N   0  0  0  0  0  0  0  0  0  0  0  0
   11.5961  -18.1600   25.6690 C   0  0  0  0  0  0  0  0  0  0  0  0
   12.2217  -18.8740   26.7089 O   0  0  0  0  0  0  0  0  0  0  0  0
   12.3189  -17.3991   24.9880 O   0  0  0  0  0  0  0  0  0  0  0  0
  2  1  1  6
  2  3  1  0
  4  2  1  0
  4  5  1  0
  5  7  1  0
  5  6  1  1
  7  8  2  0
 10  9  1  1
 10 12  1  0
 11 10  1  0
 13 12  1  1
 14 13  1  0
 14  7  1  0
 15 16  2  0
 15 13  1  0
 17 18  1  0
 18 19  2  0
 18 20  1  0
 21 20  1  6
 21 23  1  0
 21 22  1  0
 22 15  1  0
 23 24  1  0
 25 23  2  0
M  END
$$$$
