LLN.pdb
     RDKit          3D

 25 24  0  0  1  0  0  0  0  0999 V2000
    7.6118  -12.4303   27.6042 C   0  0  0  0  0  0  0  0  0  0  0  0
    6.8780  -12.5523   26.2900 C   0  0  2  0  0  0  0  0  0  0  0  0
    5.7391  -11.5505   26.2845 C   0  0  0  0  0  0  0  0  0  0  0  0
    6.3874  -13.9570   26.0723 C   0  0  0  0  0  0  0  0  0  0  0  0
    7.6204  -14.8444   25.9136 C   0  0  2  0  0  0  0  0  0  0  0  0
    8.7792  -14.0895   26.2576 N   0  0  0  0  0  0  0  0  0  0  0  0
    7.6694  -15.4131   24.5291 C   0  0  0  0  0  0  0  0  0  0  0  0
    6.7362  -16.1923   24.2127 O   0  0  0  0  0  0  0  0  0  0  0  0
    6.5239  -14.2210   20.9054 C   0  0  0  0  0  0  0  0  0  0  0  0
    7.8341  -13.5652   21.3753 C   0  0  2  0  0  0  0  0  0  0  0  0
    8.0583  -12.3503   20.5611 C   0  0  0  0  0  0  0  0  0  0  0  0
    8.9080  -14.5695   21.3629 C   0  0  0  0  0  0  0  0  0  0  0  0
    8.8885  -15.6748   22.3340 C   0  0  2  0  0  0  0  0  0  0  0  0
    8.7310  -15.0590   23.6662 N   0  0  0  0  0  0  0  0  0  0  0  0
   10.1000  -16.5204   22.4175 C   0  0  0  0  0  0  0  0  0  0  0  0
   10.5220  -17.2143   21.4143 O   0  0  0  0  0  0  0  0  0  0  0  0
   13.7297  -15.8355   21.8141 N   0  0  0  0  0  0  0  0  0  0  0  0
   13.6270  -15.7038   23.2340 C   0  0  0  0  0  0  0  0  0  0  0  0
   13.8224  -14.5490   23.7298 O   0  0  0  0  0  0  0  0  0  0  0  0
   13.3041  -16.8578   24.0956 C   0  0  0  0  0  0  0  0  0  0  0  0
   12.0485  -17.5874   23.6009 C   0  0  2  0  0  0  0  0  0  0  0  0
   10.9203  -16.6663   23.5725 N   0  0  0  0  0  0  0  0  0  0  0  0
   11.7818  -18.7443   24.4623 C   0  0  0  0  0  0  0  0  0  0  0  0
   12.6692  -19.8294   24.5954 O   0  0  0  0  0  0  0  0  0  0  0  0
   10.7204  -18.7948   25.1227 O   0  0  0  0  0  0  0  0  0  0  0  0
  2  1  1  1
  2  3  1  0
  4  2  1  0
  4  5  1  0
  5  7  1  0
  5  6  1  6
  7  8  2  0
 10  9  1  6
 10 12  1  0
 11 10  1  0
 13 12  1  6
 14 13  1  0
 14  7  1  0
 15 16  2  0
 15 13  1  0
 17 18  1  0
 18 19  2  0
 18 20  1  0
 21 20  1  1
 21 23  1  0
 21 22  1  0
 22 15  1  0
 23 24  1  0
 25 23  2  0
M  END
$$$$
