LLN.pdb
     RDKit          3D

 25 24  0  0  1  0  0  0  0  0999 V2000
    8.0736  -14.3968   18.5842 C   0  0  0  0  0  0  0  0  0  0  0  0
    7.6379  -13.6202   19.8039 C   0  0  2  0  0  0  0  0  0  0  0  0
    7.2148  -12.2328   19.3603 C   0  0  0  0  0  0  0  0  0  0  0  0
    8.7339  -13.5679   20.8322 C   0  0  0  0  0  0  0  0  0  0  0  0
    8.6724  -14.8740   21.6217 C   0  0  2  0  0  0  0  0  0  0  0  0
    7.3694  -15.4348   21.4847 N   0  0  0  0  0  0  0  0  0  0  0  0
    9.0704  -14.6331   23.0452 C   0  0  0  0  0  0  0  0  0  0  0  0
   10.2002  -14.1156   23.2286 O   0  0  0  0  0  0  0  0  0  0  0  0
    8.0217  -12.0239   26.4430 C   0  0  0  0  0  0  0  0  0  0  0  0
    6.8959  -12.9871   26.0279 C   0  0  2  0  0  0  0  0  0  0  0  0
    5.6667  -12.5983   26.7538 C   0  0  0  0  0  0  0  0  0  0  0  0
    7.3542  -14.3723   26.2105 C   0  0  0  0  0  0  0  0  0  0  0  0
    8.5579  -14.8444   25.5081 C   0  0  2  0  0  0  0  0  0  0  0  0
    8.1844  -14.9879   24.0874 N   0  0  0  0  0  0  0  0  0  0  0  0
    9.1076  -16.1555   25.9187 C   0  0  0  0  0  0  0  0  0  0  0  0
    9.3678  -16.4339   27.1519 O   0  0  0  0  0  0  0  0  0  0  0  0
   11.8175  -19.4967   22.9297 N   0  0  0  0  0  0  0  0  0  0  0  0
   10.4491  -19.1720   23.1873 C   0  0  0  0  0  0  0  0  0  0  0  0
    9.8242  -18.5202   22.2917 O   0  0  0  0  0  0  0  0  0  0  0  0
    9.7817  -19.5771   24.4399 C   0  0  0  0  0  0  0  0  0  0  0  0
    9.9309  -18.5010   25.5229 C   0  0  2  0  0  0  0  0  0  0  0  0
    9.4049  -17.2328   25.0359 N   0  0  0  0  0  0  0  0  0  0  0  0
   11.3406  -18.3890   25.9125 C   0  0  0  0  0  0  0  0  0  0  0  0
   12.1287  -17.2535   25.6434 O   0  0  0  0  0  0  0  0  0  0  0  0
   11.8950  -19.3348   26.5152 O   0  0  0  0  0  0  0  0  0  0  0  0
  2  1  1  6
  2  3  1  0
  4  2  1  0
  4  5  1  0
  5  7  1  0
  5  6  1  1
  7  8  2  0
 10  9  1  1
 10 12  1  0
 11 10  1  0
 13 12  1  1
 14 13  1  0
 14  7  1  0
 15 16  2  0
 15 13  1  0
 17 18  1  0
 18 19  2  0
 18 20  1  0
 21 20  1  6
 21 23  1  0
 21 22  1  0
 22 15  1  0
 23 24  1  0
 25 23  2  0
M  END
$$$$
