LLN.pdb
     RDKit          3D

 25 24  0  0  1  0  0  0  0  0999 V2000
    8.1289  -12.7992   18.5195 C   0  0  0  0  0  0  0  0  0  0  0  0
    7.8325  -13.9270   19.4791 C   0  0  2  0  0  0  0  0  0  0  0  0
    6.4036  -13.7769   19.9652 C   0  0  0  0  0  0  0  0  0  0  0  0
    8.8123  -13.9387   20.6198 C   0  0  0  0  0  0  0  0  0  0  0  0
    8.5308  -15.1952   21.4414 C   0  0  2  0  0  0  0  0  0  0  0  0
    7.1389  -15.4921   21.3678 N   0  0  0  0  0  0  0  0  0  0  0  0
    9.0281  -15.0150   22.8424 C   0  0  0  0  0  0  0  0  0  0  0  0
   10.2658  -14.8480   22.9780 O   0  0  0  0  0  0  0  0  0  0  0  0
    7.9681  -11.9126   26.0266 C   0  0  0  0  0  0  0  0  0  0  0  0
    6.8847  -12.9559   25.7022 C   0  0  2  0  0  0  0  0  0  0  0  0
    5.6300  -12.5379   26.3659 C   0  0  0  0  0  0  0  0  0  0  0  0
    7.3888  -14.2956   26.0386 C   0  0  0  0  0  0  0  0  0  0  0  0
    8.5454  -14.8463   25.3146 C   0  0  2  0  0  0  0  0  0  0  0  0
    8.1111  -15.0403   23.9173 N   0  0  0  0  0  0  0  0  0  0  0  0
    9.0615  -16.1576   25.7660 C   0  0  0  0  0  0  0  0  0  0  0  0
    8.3553  -17.2353   25.6900 O   0  0  0  0  0  0  0  0  0  0  0  0
   11.7821  -20.3665   25.7751 N   0  0  0  0  0  0  0  0  0  0  0  0
   12.3723  -19.1047   25.4530 C   0  0  0  0  0  0  0  0  0  0  0  0
   13.0131  -19.0216   24.3576 O   0  0  0  0  0  0  0  0  0  0  0  0
   12.2439  -17.9402   26.3507 C   0  0  0  0  0  0  0  0  0  0  0  0
   10.7823  -17.7067   26.7535 C   0  0  2  0  0  0  0  0  0  0  0  0
   10.3546  -16.3839   26.3183 N   0  0  0  0  0  0  0  0  0  0  0  0
   10.6405  -17.8719   28.2041 C   0  0  0  0  0  0  0  0  0  0  0  0
   10.5972  -19.1285   28.8380 O   0  0  0  0  0  0  0  0  0  0  0  0
   10.5518  -16.8626   28.9379 O   0  0  0  0  0  0  0  0  0  0  0  0
  2  1  1  6
  2  3  1  0
  4  2  1  0
  4  5  1  0
  5  7  1  0
  5  6  1  1
  7  8  2  0
 10  9  1  1
 10 12  1  0
 11 10  1  0
 13 12  1  1
 14 13  1  0
 14  7  1  0
 15 16  2  0
 15 13  1  0
 17 18  1  0
 18 19  2  0
 18 20  1  0
 21 20  1  1
 21 23  1  0
 21 22  1  0
 22 15  1  0
 23 24  1  0
 25 23  2  0
M  END
$$$$
