LLN.pdb
     RDKit          3D

 25 24  0  0  1  0  0  0  0  0999 V2000
    6.9208  -12.6000   19.8541 C   0  0  0  0  0  0  0  0  0  0  0  0
    8.2074  -13.2806   19.4517 C   0  0  2  0  0  0  0  0  0  0  0  0
    7.8644  -14.6218   18.8320 C   0  0  0  0  0  0  0  0  0  0  0  0
    9.1323  -13.4289   20.6282 C   0  0  0  0  0  0  0  0  0  0  0  0
    8.7537  -14.7280   21.3367 C   0  0  2  0  0  0  0  0  0  0  0  0
    7.3602  -14.9639   21.1538 N   0  0  0  0  0  0  0  0  0  0  0  0
    9.1635  -14.6667   22.7758 C   0  0  0  0  0  0  0  0  0  0  0  0
   10.3574  -14.3487   23.0028 O   0  0  0  0  0  0  0  0  0  0  0  0
    8.1467  -12.1270   26.2641 C   0  0  0  0  0  0  0  0  0  0  0  0
    7.0117  -13.0429   25.7739 C   0  0  2  0  0  0  0  0  0  0  0  0
    5.7624  -12.6299   26.4507 C   0  0  0  0  0  0  0  0  0  0  0  0
    7.4162  -14.4462   25.9448 C   0  0  0  0  0  0  0  0  0  0  0  0
    8.5827  -14.9665   25.2142 C   0  0  2  0  0  0  0  0  0  0  0  0
    8.2179  -14.9604   23.7840 N   0  0  0  0  0  0  0  0  0  0  0  0
    9.0073  -16.3507   25.5198 C   0  0  0  0  0  0  0  0  0  0  0  0
    8.4616  -17.0427   26.4629 O   0  0  0  0  0  0  0  0  0  0  0  0
    9.0831  -19.2161   22.7818 N   0  0  0  0  0  0  0  0  0  0  0  0
   10.4937  -18.9930   22.8485 C   0  0  0  0  0  0  0  0  0  0  0  0
   11.0937  -18.7148   21.7621 O   0  0  0  0  0  0  0  0  0  0  0  0
   11.2298  -19.0778   24.1250 C   0  0  0  0  0  0  0  0  0  0  0  0
   10.4577  -18.3913   25.2590 C   0  0  2  0  0  0  0  0  0  0  0  0
   10.0319  -17.0643   24.8349 N   0  0  0  0  0  0  0  0  0  0  0  0
   11.2984  -18.3326   26.4596 C   0  0  0  0  0  0  0  0  0  0  0  0
   11.7970  -17.1297   26.9956 O   0  0  0  0  0  0  0  0  0  0  0  0
   11.6024  -19.3891   27.0567 O   0  0  0  0  0  0  0  0  0  0  0  0
  2  1  1  1
  2  3  1  0
  4  2  1  0
  4  5  1  0
  5  7  1  0
  5  6  1  1
  7  8  2  0
 10  9  1  1
 10 12  1  0
 11 10  1  0
 13 12  1  1
 14 13  1  0
 14  7  1  0
 15 16  2  0
 15 13  1  0
 17 18  1  0
 18 19  2  0
 18 20  1  0
 21 20  1  6
 21 23  1  0
 21 22  1  0
 22 15  1  0
 23 24  1  0
 25 23  2  0
M  END
$$$$
