SVE.pdb
     RDKit          3D

 23 22  0  0  1  0  0  0  0  0999 V2000
    6.2298  -16.6257   20.3047 O   0  0  0  0  0  0  0  0  0  0  0  0
    6.9000  -16.3469   21.4915 C   0  0  0  0  0  0  0  0  0  0  0  0
    7.1502  -14.8578   21.5453 C   0  0  2  0  0  0  0  0  0  0  0  0
    7.9211  -14.4936   20.3745 N   0  0  0  0  0  0  0  0  0  0  0  0
    7.9307  -14.4635   22.7393 C   0  0  0  0  0  0  0  0  0  0  0  0
    9.1722  -14.6376   22.7700 O   0  0  0  0  0  0  0  0  0  0  0  0
    6.9889  -11.5982   25.4018 C   0  0  0  0  0  0  0  0  0  0  0  0
    7.0442  -12.9632   26.0716 C   0  0  2  0  0  0  0  0  0  0  0  0
    7.6599  -12.7834   27.4263 C   0  0  0  0  0  0  0  0  0  0  0  0
    7.9406  -13.8305   25.1854 C   0  0  2  0  0  0  0  0  0  0  0  0
    7.3380  -13.8796   23.8930 N   0  0  0  0  0  0  0  0  0  0  0  0
    8.0817  -15.1933   25.7944 C   0  0  0  0  0  0  0  0  0  0  0  0
    7.1192  -16.0002   25.7833 O   0  0  0  0  0  0  0  0  0  0  0  0
    9.2888  -15.6332   26.4038 N   0  0  0  0  0  0  0  0  0  0  0  0
    9.4507  -16.9896   26.9307 C   0  0  1  0  0  0  0  0  0  0  0  0
   10.1215  -17.7961   25.8633 C   0  0  0  0  0  0  0  0  0  0  0  0
   11.4625  -17.2612   25.4597 C   0  0  0  0  0  0  0  0  0  0  0  0
   12.1188  -18.1083   24.4415 C   0  0  0  0  0  0  0  0  0  0  0  0
   12.2002  -17.8513   23.2202 O   0  0  0  0  0  0  0  0  0  0  0  0
   10.3446  -16.9597   28.1369 C   0  0  0  0  0  0  0  0  0  0  0  0
   10.9303  -15.7785   28.5432 O   0  0  0  0  0  0  0  0  0  0  0  0
   12.7091  -19.3132   24.8662 O   0  0  0  0  0  0  0  0  0  0  0  0
   10.5753  -18.0005   28.7948 O   0  0  0  0  0  0  0  0  0  0  0  0
  2  1  1  0
  3  2  1  0
  3  4  1  6
  5  6  2  0
  5  3  1  0
  8  7  1  6
  8 10  1  0
  9  8  1  0
 10 12  1  0
 10 11  1  6
 11  5  1  0
 12 14  1  0
 13 12  2  0
 14 15  1  0
 15 20  1  0
 15 16  1  6
 16 17  1  0
 18 22  1  0
 18 17  1  0
 19 18  2  0
 20 23  2  0
 20 21  1  0
M  END
$$$$
