SVE.pdb
     RDKit          3D

 23 22  0  0  1  0  0  0  0  0999 V2000
    7.8249  -19.5717   17.1701 O   0  0  0  0  0  0  0  0  0  0  0  0
    7.4498  -18.5427   18.0279 C   0  0  0  0  0  0  0  0  0  0  0  0
    8.0780  -17.2645   17.5233 C   0  0  2  0  0  0  0  0  0  0  0  0
    9.1342  -17.6226   16.5993 N   0  0  0  0  0  0  0  0  0  0  0  0
    8.6842  -16.4693   18.6144 C   0  0  0  0  0  0  0  0  0  0  0  0
    9.9006  -16.5975   18.8907 O   0  0  0  0  0  0  0  0  0  0  0  0
    7.3972  -12.8004   19.9241 C   0  0  0  0  0  0  0  0  0  0  0  0
    7.3745  -13.8745   21.0015 C   0  0  2  0  0  0  0  0  0  0  0  0
    7.7599  -13.2296   22.2984 C   0  0  0  0  0  0  0  0  0  0  0  0
    8.4211  -14.9101   20.5850 C   0  0  2  0  0  0  0  0  0  0  0  0
    7.9456  -15.5373   19.3950 N   0  0  0  0  0  0  0  0  0  0  0  0
    8.6255  -15.8934   21.6983 C   0  0  0  0  0  0  0  0  0  0  0  0
    7.6511  -16.5200   22.1834 O   0  0  0  0  0  0  0  0  0  0  0  0
    9.9080  -16.1614   22.2509 N   0  0  0  0  0  0  0  0  0  0  0  0
   10.0945  -17.0424   23.4053 C   0  0  1  0  0  0  0  0  0  0  0  0
   10.8222  -18.2553   22.9165 C   0  0  0  0  0  0  0  0  0  0  0  0
   12.1389  -17.9461   22.2700 C   0  0  0  0  0  0  0  0  0  0  0  0
   12.8476  -19.1674   21.8327 C   0  0  0  0  0  0  0  0  0  0  0  0
   13.1211  -20.1511   22.5550 O   0  0  0  0  0  0  0  0  0  0  0  0
   10.9493  -16.3562   24.4316 C   0  0  0  0  0  0  0  0  0  0  0  0
   11.5164  -15.1281   24.1603 O   0  0  0  0  0  0  0  0  0  0  0  0
   13.2577  -19.2470   20.4888 O   0  0  0  0  0  0  0  0  0  0  0  0
   11.1635  -16.8818   25.5484 O   0  0  0  0  0  0  0  0  0  0  0  0
  2  1  1  0
  3  2  1  0
  3  4  1  6
  5  6  2  0
  5  3  1  0
  8  7  1  6
  8 10  1  0
  9  8  1  0
 10 12  1  0
 10 11  1  6
 11  5  1  0
 12 14  1  0
 13 12  2  0
 14 15  1  0
 15 20  1  0
 15 16  1  6
 16 17  1  0
 18 22  1  0
 18 17  1  0
 19 18  2  0
 20 23  2  0
 20 21  1  0
M  END
$$$$
