SVE.pdb
     RDKit          3D

 23 22  0  0  1  0  0  0  0  0999 V2000
    6.7785  -18.9820   17.0772 O   0  0  0  0  0  0  0  0  0  0  0  0
    7.5397  -18.4290   18.1019 C   0  0  0  0  0  0  0  0  0  0  0  0
    8.0531  -17.0891   17.6286 C   0  0  2  0  0  0  0  0  0  0  0  0
    8.9369  -17.3230   16.5052 N   0  0  0  0  0  0  0  0  0  0  0  0
    8.8294  -16.3854   18.6738 C   0  0  0  0  0  0  0  0  0  0  0  0
   10.0538  -16.6158   18.8159 O   0  0  0  0  0  0  0  0  0  0  0  0
    6.7131  -14.2410   21.5180 C   0  0  0  0  0  0  0  0  0  0  0  0
    8.0652  -13.6577   21.1349 C   0  0  2  0  0  0  0  0  0  0  0  0
    7.8451  -12.6947   20.0077 C   0  0  0  0  0  0  0  0  0  0  0  0
    8.9175  -14.8410   20.6715 C   0  0  2  0  0  0  0  0  0  0  0  0
    8.2512  -15.4317   19.5567 N   0  0  0  0  0  0  0  0  0  0  0  0
    9.0908  -15.8090   21.8033 C   0  0  0  0  0  0  0  0  0  0  0  0
    8.2536  -16.7259   21.9928 O   0  0  0  0  0  0  0  0  0  0  0  0
   10.1904  -15.7398   22.7022 N   0  0  0  0  0  0  0  0  0  0  0  0
   10.5065  -16.8212   23.6372 C   0  0  1  0  0  0  0  0  0  0  0  0
   10.9310  -17.9985   22.8166 C   0  0  0  0  0  0  0  0  0  0  0  0
   12.3286  -17.8880   22.2855 C   0  0  0  0  0  0  0  0  0  0  0  0
   12.7209  -19.0726   21.4932 C   0  0  0  0  0  0  0  0  0  0  0  0
   13.1903  -20.1364   21.9539 O   0  0  0  0  0  0  0  0  0  0  0  0
   11.6558  -16.4123   24.5127 C   0  0  0  0  0  0  0  0  0  0  0  0
   11.9983  -17.1685   25.6146 O   0  0  0  0  0  0  0  0  0  0  0  0
   12.5586  -19.0156   20.0964 O   0  0  0  0  0  0  0  0  0  0  0  0
   12.3232  -15.3821   24.2618 O   0  0  0  0  0  0  0  0  0  0  0  0
  2  1  1  0
  3  2  1  0
  3  4  1  6
  5  6  2  0
  5  3  1  0
  8  7  1  6
  8 10  1  0
  9  8  1  0
 10 12  1  0
 10 11  1  6
 11  5  1  0
 12 14  1  0
 13 12  2  0
 14 15  1  0
 15 20  1  0
 15 16  1  6
 16 17  1  0
 18 22  1  0
 18 17  1  0
 19 18  2  0
 20 23  2  0
 20 21  1  0
M  END
$$$$
