SVE.pdb
     RDKit          3D

 23 22  0  0  1  0  0  0  0  0999 V2000
    7.1397  -16.6283   21.4348 O   0  0  0  0  0  0  0  0  0  0  0  0
    6.0681  -15.7420   21.3995 C   0  0  0  0  0  0  0  0  0  0  0  0
    6.6233  -14.3383   21.4661 C   0  0  2  0  0  0  0  0  0  0  0  0
    7.4257  -14.1206   20.2802 N   0  0  0  0  0  0  0  0  0  0  0  0
    7.4960  -14.1363   22.6442 C   0  0  0  0  0  0  0  0  0  0  0  0
    8.7363  -14.2934   22.5476 O   0  0  0  0  0  0  0  0  0  0  0  0
    6.4217  -11.6729   25.6549 C   0  0  0  0  0  0  0  0  0  0  0  0
    6.8866  -13.0218   26.1833 C   0  0  2  0  0  0  0  0  0  0  0  0
    7.6654  -12.7770   27.4403 C   0  0  0  0  0  0  0  0  0  0  0  0
    7.7905  -13.6099   25.0978 C   0  0  2  0  0  0  0  0  0  0  0  0
    6.9962  -13.7621   23.9223 N   0  0  0  0  0  0  0  0  0  0  0  0
    8.3574  -14.9155   25.5690 C   0  0  0  0  0  0  0  0  0  0  0  0
    7.6039  -15.8959   25.7898 O   0  0  0  0  0  0  0  0  0  0  0  0
    9.7497  -15.1067   25.7856 N   0  0  0  0  0  0  0  0  0  0  0  0
   10.3122  -16.4045   26.1638 C   0  0  1  0  0  0  0  0  0  0  0  0
   11.7091  -16.4481   25.6286 C   0  0  0  0  0  0  0  0  0  0  0  0
   12.4496  -17.7022   25.9840 C   0  0  0  0  0  0  0  0  0  0  0  0
   13.8394  -17.6925   25.4805 C   0  0  0  0  0  0  0  0  0  0  0  0
   14.6586  -18.6323   25.5800 O   0  0  0  0  0  0  0  0  0  0  0  0
   10.3724  -16.5121   27.6603 C   0  0  0  0  0  0  0  0  0  0  0  0
   10.4360  -17.7481   28.2698 O   0  0  0  0  0  0  0  0  0  0  0  0
   14.2974  -16.5320   24.8293 O   0  0  0  0  0  0  0  0  0  0  0  0
   10.3663  -15.4878   28.3815 O   0  0  0  0  0  0  0  0  0  0  0  0
  2  1  1  0
  3  2  1  0
  3  4  1  6
  5  6  2  0
  5  3  1  0
  8  7  1  6
  8 10  1  0
  9  8  1  0
 10 12  1  0
 10 11  1  6
 11  5  1  0
 12 14  1  0
 13 12  2  0
 14 15  1  0
 15 20  1  0
 15 16  1  6
 16 17  1  0
 18 22  1  0
 18 17  1  0
 19 18  2  0
 20 23  2  0
 20 21  1  0
M  END
$$$$
