SVE.pdb
     RDKit          3D

 23 22  0  0  1  0  0  0  0  0999 V2000
    7.7825  -17.1094   22.3148 O   0  0  0  0  0  0  0  0  0  0  0  0
    6.6462  -16.4668   21.8341 C   0  0  0  0  0  0  0  0  0  0  0  0
    6.9543  -14.9910   21.7333 C   0  0  2  0  0  0  0  0  0  0  0  0
    7.7801  -14.7880   20.5610 N   0  0  0  0  0  0  0  0  0  0  0  0
    7.7074  -14.4945   22.9066 C   0  0  0  0  0  0  0  0  0  0  0  0
    8.9604  -14.4510   22.8824 O   0  0  0  0  0  0  0  0  0  0  0  0
    6.1055  -11.8142   25.3657 C   0  0  0  0  0  0  0  0  0  0  0  0
    6.7194  -12.9436   26.1797 C   0  0  2  0  0  0  0  0  0  0  0  0
    7.3806  -12.3356   27.3796 C   0  0  0  0  0  0  0  0  0  0  0  0
    7.7589  -13.6011   25.2694 C   0  0  2  0  0  0  0  0  0  0  0  0
    7.0748  -14.0487   24.1001 N   0  0  0  0  0  0  0  0  0  0  0  0
    8.4250  -14.7283   25.9999 C   0  0  0  0  0  0  0  0  0  0  0  0
    7.7786  -15.7607   26.3065 O   0  0  0  0  0  0  0  0  0  0  0  0
    9.7959  -14.6869   26.3755 N   0  0  0  0  0  0  0  0  0  0  0  0
   10.4761  -15.8323   26.9830 C   0  0  1  0  0  0  0  0  0  0  0  0
   11.9120  -15.7585   26.5679 C   0  0  0  0  0  0  0  0  0  0  0  0
   12.3998  -16.9922   25.8698 C   0  0  0  0  0  0  0  0  0  0  0  0
   13.8090  -16.8714   25.4402 C   0  0  0  0  0  0  0  0  0  0  0  0
   14.5569  -15.8926   25.6566 O   0  0  0  0  0  0  0  0  0  0  0  0
   10.4073  -15.7254   28.4792 C   0  0  0  0  0  0  0  0  0  0  0  0
   10.7351  -16.8053   29.2726 O   0  0  0  0  0  0  0  0  0  0  0  0
   14.3746  -17.9424   24.7237 O   0  0  0  0  0  0  0  0  0  0  0  0
   10.0530  -14.6595   29.0341 O   0  0  0  0  0  0  0  0  0  0  0  0
  2  1  1  0
  3  2  1  0
  3  4  1  6
  5  6  2  0
  5  3  1  0
  8  7  1  6
  8 10  1  0
  9  8  1  0
 10 12  1  0
 10 11  1  6
 11  5  1  0
 12 14  1  0
 13 12  2  0
 14 15  1  0
 15 20  1  0
 15 16  1  1
 16 17  1  0
 18 22  1  0
 18 17  1  0
 19 18  2  0
 20 23  2  0
 20 21  1  0
M  END
$$$$
