SVE.pdb
     RDKit          3D

 23 22  0  0  1  0  0  0  0  0999 V2000
    8.4541  -18.9619   17.9279 O   0  0  0  0  0  0  0  0  0  0  0  0
    7.5417  -18.1716   17.2364 C   0  0  0  0  0  0  0  0  0  0  0  0
    8.1946  -16.8362   16.9657 C   0  0  2  0  0  0  0  0  0  0  0  0
    9.3077  -17.0595   16.0664 N   0  0  0  0  0  0  0  0  0  0  0  0
    8.7285  -16.2136   18.1977 C   0  0  0  0  0  0  0  0  0  0  0  0
    9.8965  -16.4645   18.5789 O   0  0  0  0  0  0  0  0  0  0  0  0
    7.2387  -12.7054   19.7068 C   0  0  0  0  0  0  0  0  0  0  0  0
    7.3073  -13.8247   20.7351 C   0  0  2  0  0  0  0  0  0  0  0  0
    7.6854  -13.2145   22.0508 C   0  0  0  0  0  0  0  0  0  0  0  0
    8.4034  -14.7754   20.2494 C   0  0  2  0  0  0  0  0  0  0  0  0
    7.9715  -15.3177   19.0025 N   0  0  0  0  0  0  0  0  0  0  0  0
    8.6362  -15.8411   21.2781 C   0  0  0  0  0  0  0  0  0  0  0  0
    7.7943  -16.7574   21.4496 O   0  0  0  0  0  0  0  0  0  0  0  0
    9.7991  -15.8683   22.0959 N   0  0  0  0  0  0  0  0  0  0  0  0
   10.0065  -16.8857   23.1283 C   0  0  1  0  0  0  0  0  0  0  0  0
   11.2217  -17.6658   22.7352 C   0  0  0  0  0  0  0  0  0  0  0  0
   12.4707  -16.8395   22.6692 C   0  0  0  0  0  0  0  0  0  0  0  0
   13.6581  -17.6478   22.3202 C   0  0  0  0  0  0  0  0  0  0  0  0
   14.2133  -18.4878   23.0621 O   0  0  0  0  0  0  0  0  0  0  0  0
   10.2747  -16.2197   24.4471 C   0  0  0  0  0  0  0  0  0  0  0  0
   10.3805  -14.8465   24.5276 O   0  0  0  0  0  0  0  0  0  0  0  0
   14.2264  -17.4693   21.0452 O   0  0  0  0  0  0  0  0  0  0  0  0
   10.4071  -16.8935   25.4949 O   0  0  0  0  0  0  0  0  0  0  0  0
  2  1  1  0
  3  2  1  0
  3  4  1  6
  5  6  2  0
  5  3  1  0
  8  7  1  6
  8 10  1  0
  9  8  1  0
 10 12  1  0
 10 11  1  6
 11  5  1  0
 12 14  1  0
 13 12  2  0
 14 15  1  0
 15 20  1  0
 15 16  1  6
 16 17  1  0
 18 22  1  0
 18 17  1  0
 19 18  2  0
 20 23  2  0
 20 21  1  0
M  END
$$$$
