SVE.pdb
     RDKit          3D

 23 22  0  0  1  0  0  0  0  0999 V2000
    5.8691  -17.0097   22.5804 O   0  0  0  0  0  0  0  0  0  0  0  0
    6.8572  -16.5976   21.6921 C   0  0  0  0  0  0  0  0  0  0  0  0
    6.8962  -15.0873   21.7080 C   0  0  2  0  0  0  0  0  0  0  0  0
    7.4443  -14.6431   20.4431 N   0  0  0  0  0  0  0  0  0  0  0  0
    7.7638  -14.5605   22.7850 C   0  0  0  0  0  0  0  0  0  0  0  0
    9.0119  -14.6089   22.6732 O   0  0  0  0  0  0  0  0  0  0  0  0
    8.0995  -12.0015   26.9696 C   0  0  0  0  0  0  0  0  0  0  0  0
    7.1852  -12.5660   25.8924 C   0  0  2  0  0  0  0  0  0  0  0  0
    6.0710  -13.2990   26.5762 C   0  0  0  0  0  0  0  0  0  0  0  0
    8.0442  -13.5347   25.0770 C   0  0  2  0  0  0  0  0  0  0  0  0
    7.2505  -13.9834   23.9795 N   0  0  0  0  0  0  0  0  0  0  0  0
    8.4907  -14.6681   25.9512 C   0  0  0  0  0  0  0  0  0  0  0  0
    7.6633  -15.5150   26.3705 O   0  0  0  0  0  0  0  0  0  0  0  0
    9.8471  -14.8387   26.3424 N   0  0  0  0  0  0  0  0  0  0  0  0
   10.2952  -15.9861   27.1338 C   0  0  1  0  0  0  0  0  0  0  0  0
   11.7244  -16.2378   26.7682 C   0  0  0  0  0  0  0  0  0  0  0  0
   11.9358  -16.4833   25.3046 C   0  0  0  0  0  0  0  0  0  0  0  0
   13.3645  -16.6573   24.9675 C   0  0  0  0  0  0  0  0  0  0  0  0
   14.3186  -16.5871   25.7731 O   0  0  0  0  0  0  0  0  0  0  0  0
   10.2305  -15.6478   28.5954 C   0  0  0  0  0  0  0  0  0  0  0  0
   10.4390  -16.6235   29.5482 O   0  0  0  0  0  0  0  0  0  0  0  0
   13.6983  -16.9260   23.6270 O   0  0  0  0  0  0  0  0  0  0  0  0
    9.9874  -14.4796   28.9770 O   0  0  0  0  0  0  0  0  0  0  0  0
  2  1  1  0
  3  2  1  0
  3  4  1  6
  5  6  2  0
  5  3  1  0
  8  7  1  1
  8 10  1  0
  9  8  1  0
 10 12  1  0
 10 11  1  6
 11  5  1  0
 12 14  1  0
 13 12  2  0
 14 15  1  0
 15 20  1  0
 15 16  1  6
 16 17  1  0
 18 22  1  0
 18 17  1  0
 19 18  2  0
 20 23  2  0
 20 21  1  0
M  END
$$$$
