SVE.pdb
     RDKit          3D

 23 22  0  0  1  0  0  0  0  0999 V2000
    7.6911  -19.2441   18.6878 O   0  0  0  0  0  0  0  0  0  0  0  0
    6.7598  -18.4514   18.0247 C   0  0  0  0  0  0  0  0  0  0  0  0
    7.4727  -17.2169   17.5238 C   0  0  2  0  0  0  0  0  0  0  0  0
    8.4375  -17.6340   16.5274 N   0  0  0  0  0  0  0  0  0  0  0  0
    8.2102  -16.5198   18.6011 C   0  0  0  0  0  0  0  0  0  0  0  0
    9.4423  -16.7027   18.7457 O   0  0  0  0  0  0  0  0  0  0  0  0
    7.0565  -12.9039   19.9823 C   0  0  0  0  0  0  0  0  0  0  0  0
    7.2805  -13.8916   21.1178 C   0  0  2  0  0  0  0  0  0  0  0  0
    7.9005  -13.1436   22.2591 C   0  0  0  0  0  0  0  0  0  0  0  0
    8.2505  -14.9432   20.5751 C   0  0  2  0  0  0  0  0  0  0  0  0
    7.5849  -15.6250   19.5131 N   0  0  0  0  0  0  0  0  0  0  0  0
    8.6515  -15.8744   21.6798 C   0  0  0  0  0  0  0  0  0  0  0  0
    7.7999  -16.6151   22.2309 O   0  0  0  0  0  0  0  0  0  0  0  0
    9.9902  -15.9645   22.1506 N   0  0  0  0  0  0  0  0  0  0  0  0
   10.3782  -16.8630   23.2395 C   0  0  1  0  0  0  0  0  0  0  0  0
   11.7887  -17.2875   22.9745 C   0  0  0  0  0  0  0  0  0  0  0  0
   11.9458  -18.1049   21.7277 C   0  0  0  0  0  0  0  0  0  0  0  0
   13.3603  -18.4289   21.4462 C   0  0  0  0  0  0  0  0  0  0  0  0
   14.3263  -18.2053   22.2085 O   0  0  0  0  0  0  0  0  0  0  0  0
   10.3421  -16.1206   24.5442 C   0  0  0  0  0  0  0  0  0  0  0  0
   10.4886  -16.7973   25.7375 O   0  0  0  0  0  0  0  0  0  0  0  0
   13.6647  -19.0431   20.2171 O   0  0  0  0  0  0  0  0  0  0  0  0
   10.1790  -14.8788   24.5755 O   0  0  0  0  0  0  0  0  0  0  0  0
  2  1  1  0
  3  2  1  0
  3  4  1  6
  5  6  2  0
  5  3  1  0
  8  7  1  6
  8 10  1  0
  9  8  1  0
 10 12  1  0
 10 11  1  6
 11  5  1  0
 12 14  1  0
 13 12  2  0
 14 15  1  0
 15 20  1  0
 15 16  1  6
 16 17  1  0
 18 22  1  0
 18 17  1  0
 19 18  2  0
 20 23  2  0
 20 21  1  0
M  END
$$$$
