SVE.pdb
     RDKit          3D

 23 22  0  0  1  0  0  0  0  0999 V2000
    5.9636  -16.5078   20.2878 O   0  0  0  0  0  0  0  0  0  0  0  0
    6.8642  -16.2089   21.3051 C   0  0  0  0  0  0  0  0  0  0  0  0
    6.8944  -14.7077   21.4732 C   0  0  2  0  0  0  0  0  0  0  0  0
    7.4694  -14.1372   20.2725 N   0  0  0  0  0  0  0  0  0  0  0  0
    7.7337  -14.2887   22.6178 C   0  0  0  0  0  0  0  0  0  0  0  0
    8.9814  -14.2375   22.5027 O   0  0  0  0  0  0  0  0  0  0  0  0
    6.7233  -11.7029   25.4594 C   0  0  0  0  0  0  0  0  0  0  0  0
    7.0605  -13.0455   26.0910 C   0  0  2  0  0  0  0  0  0  0  0  0
    7.8128  -12.7782   27.3595 C   0  0  0  0  0  0  0  0  0  0  0  0
    7.9510  -13.7732   25.0818 C   0  0  2  0  0  0  0  0  0  0  0  0
    7.1927  -13.9288   23.8832 N   0  0  0  0  0  0  0  0  0  0  0  0
    8.3829  -15.0911   25.6515 C   0  0  0  0  0  0  0  0  0  0  0  0
    7.5360  -15.9797   25.9177 O   0  0  0  0  0  0  0  0  0  0  0  0
    9.7466  -15.3962   25.9144 N   0  0  0  0  0  0  0  0  0  0  0  0
   10.1725  -16.7005   26.4254 C   0  0  1  0  0  0  0  0  0  0  0  0
   11.5494  -16.9495   25.8945 C   0  0  0  0  0  0  0  0  0  0  0  0
   11.6608  -18.2012   25.0770 C   0  0  0  0  0  0  0  0  0  0  0  0
   12.9688  -18.3104   24.3971 C   0  0  0  0  0  0  0  0  0  0  0  0
   14.0864  -18.1420   24.9327 O   0  0  0  0  0  0  0  0  0  0  0  0
   10.2413  -16.6578   27.9247 C   0  0  0  0  0  0  0  0  0  0  0  0
   10.2719  -17.8270   28.6564 O   0  0  0  0  0  0  0  0  0  0  0  0
   12.9757  -18.6311   23.0269 O   0  0  0  0  0  0  0  0  0  0  0  0
   10.2722  -15.5659   28.5382 O   0  0  0  0  0  0  0  0  0  0  0  0
  2  1  1  0
  3  2  1  0
  3  4  1  6
  5  6  2  0
  5  3  1  0
  8  7  1  6
  8 10  1  0
  9  8  1  0
 10 12  1  0
 10 11  1  6
 11  5  1  0
 12 14  1  0
 13 12  2  0
 14 15  1  0
 15 20  1  0
 15 16  1  6
 16 17  1  0
 18 22  1  0
 18 17  1  0
 19 18  2  0
 20 23  2  0
 20 21  1  0
M  END
$$$$
