SVE.pdb
     RDKit          3D

 23 22  0  0  1  0  0  0  0  0999 V2000
    6.8548  -16.3954   21.2884 O   0  0  0  0  0  0  0  0  0  0  0  0
    5.8676  -15.4195   21.1970 C   0  0  0  0  0  0  0  0  0  0  0  0
    6.5367  -14.0695   21.3100 C   0  0  2  0  0  0  0  0  0  0  0  0
    7.3374  -13.8688   20.1200 N   0  0  0  0  0  0  0  0  0  0  0  0
    7.4396  -13.9878   22.4798 C   0  0  0  0  0  0  0  0  0  0  0  0
    8.6741  -14.1572   22.3397 O   0  0  0  0  0  0  0  0  0  0  0  0
    6.6309  -11.6375   25.6155 C   0  0  0  0  0  0  0  0  0  0  0  0
    6.9703  -13.0455   26.0819 C   0  0  2  0  0  0  0  0  0  0  0  0
    7.7825  -12.9285   27.3362 C   0  0  0  0  0  0  0  0  0  0  0  0
    7.8020  -13.6710   24.9602 C   0  0  2  0  0  0  0  0  0  0  0  0
    6.9762  -13.7198   23.7977 N   0  0  0  0  0  0  0  0  0  0  0  0
    8.2672  -15.0333   25.3796 C   0  0  0  0  0  0  0  0  0  0  0  0
    7.4369  -15.9345   25.6551 O   0  0  0  0  0  0  0  0  0  0  0  0
    9.6453  -15.3678   25.4846 N   0  0  0  0  0  0  0  0  0  0  0  0
   10.1004  -16.7274   25.7816 C   0  0  1  0  0  0  0  0  0  0  0  0
   11.3434  -16.9570   24.9804 C   0  0  0  0  0  0  0  0  0  0  0  0
   12.6066  -16.7908   25.7703 C   0  0  0  0  0  0  0  0  0  0  0  0
   13.8124  -16.8640   24.9185 C   0  0  0  0  0  0  0  0  0  0  0  0
   14.1110  -16.0633   24.0053 O   0  0  0  0  0  0  0  0  0  0  0  0
   10.4465  -16.8372   27.2386 C   0  0  0  0  0  0  0  0  0  0  0  0
   10.6150  -18.0745   27.8253 O   0  0  0  0  0  0  0  0  0  0  0  0
   14.7145  -17.9211   25.1410 O   0  0  0  0  0  0  0  0  0  0  0  0
   10.5884  -15.8137   27.9469 O   0  0  0  0  0  0  0  0  0  0  0  0
  2  1  1  0
  3  2  1  0
  3  4  1  6
  5  6  2  0
  5  3  1  0
  8  7  1  6
  8 10  1  0
  9  8  1  0
 10 12  1  0
 10 11  1  6
 11  5  1  0
 12 14  1  0
 13 12  2  0
 14 15  1  0
 15 20  1  0
 15 16  1  6
 16 17  1  0
 18 22  1  0
 18 17  1  0
 19 18  2  0
 20 23  2  0
 20 21  1  0
M  END
$$$$
