THC.pdb
     RDKit          3D

 24 24  0  0  1  0  0  0  0  0999 V2000
   19.1398  -14.1278  -15.3146 C   0  0  0  0  0  0  0  0  0  0  0  0
   18.7218  -14.8776  -16.5408 C   0  0  1  0  0  0  0  0  0  0  0  0
   18.0232  -16.0171  -16.2085 O   0  0  0  0  0  0  0  0  0  0  0  0
   17.8480  -13.9642  -17.3846 C   0  0  2  0  0  0  0  0  0  0  0  0
   17.4068  -14.6441  -18.5741 N   0  0  0  0  0  0  0  0  0  0  0  0
   18.6291  -12.7552  -17.7350 C   0  0  0  0  0  0  0  0  0  0  0  0
   19.6254  -12.8536  -18.5063 O   0  0  0  0  0  0  0  0  0  0  0  0
   18.2342  -11.5099  -17.1908 N   0  0  0  0  0  0  0  0  0  0  0  0
   18.9232  -10.2824  -17.5140 C   0  0  1  0  0  0  0  0  0  0  0  0
   17.9052   -9.3621  -18.1403 C   0  0  0  0  0  0  0  0  0  0  0  0
   17.6404   -9.7061  -19.5591 C   0  0  0  0  0  0  0  0  0  0  0  0
   18.3737   -9.3348  -20.6635 C   0  0  0  0  0  0  0  0  0  0  0  0
   17.8058   -9.8457  -21.7666 N   0  0  0  0  0  0  0  0  0  0  0  0
   16.7168  -10.5420  -21.3970 C   0  0  0  0  0  0  0  0  0  0  0  0
   16.6226  -10.4534  -20.0590 N   0  0  0  0  0  0  0  0  0  0  0  0
   19.5315   -9.7322  -16.3023 C   0  0  0  0  0  0  0  0  0  0  0  0
   18.8441   -9.5838  -15.2494 O   0  0  0  0  0  0  0  0  0  0  0  0
   20.8834   -9.3581  -16.2783 N   0  0  0  0  0  0  0  0  0  0  0  0
   21.5027   -8.7174  -15.1320 C   0  0  1  0  0  0  0  0  0  0  0  0
   22.9952   -9.0426  -15.2250 C   0  0  0  0  0  0  0  0  0  0  0  0
   23.2490  -10.7684  -14.7389 S   0  0  0  0  0  0  0  0  0  0  0  0
   21.3606   -7.2643  -15.1572 C   0  0  0  0  0  0  0  0  0  0  0  0
   21.1403   -6.6420  -16.2224 O   0  0  0  0  0  0  0  0  0  0  0  0
   21.4692   -6.5422  -13.9833 O   0  0  0  0  0  0  0  0  0  0  0  0
  2  1  1  1
  3  2  1  0
  4  5  1  6
  4  6  1  0
  4  2  1  0
  6  7  2  0
  8  9  1  0
  8  6  1  0
  9 10  1  1
 10 11  1  0
 11 15  1  0
 11 12  2  0
 12 13  1  0
 14 13  1  0
 15 14  2  0
 16 17  2  0
 16  9  1  0
 18 16  1  0
 19 22  1  0
 19 18  1  0
 19 20  1  6
 21 20  1  0
 22 24  1  0
 23 22  2  0
M  END
$$$$
