THC.pdb
     RDKit          3D

 24 24  0  0  1  0  0  0  0  0999 V2000
   21.9455   -8.2004  -20.1608 C   0  0  0  0  0  0  0  0  0  0  0  0
   21.6490   -9.6019  -19.7268 C   0  0  1  0  0  0  0  0  0  0  0  0
   22.4436  -10.5050  -20.3975 O   0  0  0  0  0  0  0  0  0  0  0  0
   21.9019   -9.7025  -18.2316 C   0  0  2  0  0  0  0  0  0  0  0  0
   21.7931  -11.0686  -17.7914 N   0  0  0  0  0  0  0  0  0  0  0  0
   20.9173   -8.8484  -17.5276 C   0  0  0  0  0  0  0  0  0  0  0  0
   19.6827   -9.0974  -17.6321 O   0  0  0  0  0  0  0  0  0  0  0  0
   21.3911   -7.7656  -16.7493 N   0  0  0  0  0  0  0  0  0  0  0  0
   20.4915   -6.8523  -16.0839 C   0  0  1  0  0  0  0  0  0  0  0  0
   20.9966   -6.6930  -14.6715 C   0  0  0  0  0  0  0  0  0  0  0  0
   20.3474   -7.6444  -13.7363 C   0  0  0  0  0  0  0  0  0  0  0  0
   19.3403   -8.5405  -14.0158 C   0  0  0  0  0  0  0  0  0  0  0  0
   19.0266   -9.2187  -12.9013 N   0  0  0  0  0  0  0  0  0  0  0  0
   19.8127   -8.7781  -11.9037 C   0  0  0  0  0  0  0  0  0  0  0  0
   20.6100   -7.8249  -12.4161 N   0  0  0  0  0  0  0  0  0  0  0  0
   20.4415   -5.5918  -16.8255 C   0  0  0  0  0  0  0  0  0  0  0  0
   21.5081   -4.9723  -17.1110 O   0  0  0  0  0  0  0  0  0  0  0  0
   19.2173   -5.0428  -17.2355 N   0  0  0  0  0  0  0  0  0  0  0  0
   19.1240   -3.8219  -18.0157 C   0  0  1  0  0  0  0  0  0  0  0  0
   17.8146   -3.9248  -18.8011 C   0  0  0  0  0  0  0  0  0  0  0  0
   17.9037   -5.3603  -19.9013 S   0  0  0  0  0  0  0  0  0  0  0  0
   19.0502   -2.6267  -17.1802 C   0  0  0  0  0  0  0  0  0  0  0  0
   18.9544   -2.6994  -15.9328 O   0  0  0  0  0  0  0  0  0  0  0  0
   19.0856   -1.3748  -17.7658 O   0  0  0  0  0  0  0  0  0  0  0  0
  2  1  1  6
  3  2  1  0
  4  5  1  1
  4  6  1  0
  4  2  1  0
  6  7  2  0
  8  9  1  0
  8  6  1  0
  9 10  1  1
 10 11  1  0
 11 15  1  0
 11 12  2  0
 12 13  1  0
 14 13  1  0
 15 14  2  0
 16 17  2  0
 16  9  1  0
 18 16  1  0
 19 22  1  0
 19 18  1  0
 19 20  1  1
 21 20  1  0
 22 24  1  0
 23 22  2  0
M  END
$$$$
