THC.pdb
     RDKit          3D

 24 24  0  0  1  0  0  0  0  0999 V2000
   22.3775  -10.5443  -14.1320 C   0  0  0  0  0  0  0  0  0  0  0  0
   22.7725   -9.9587  -15.4517 C   0  0  1  0  0  0  0  0  0  0  0  0
   23.7351  -10.7291  -16.0654 O   0  0  0  0  0  0  0  0  0  0  0  0
   21.5347   -9.8828  -16.3303 C   0  0  2  0  0  0  0  0  0  0  0  0
   21.8747   -9.3960  -17.6416 N   0  0  0  0  0  0  0  0  0  0  0  0
   20.5493   -8.9870  -15.6814 C   0  0  0  0  0  0  0  0  0  0  0  0
   20.6179   -7.7389  -15.8679 O   0  0  0  0  0  0  0  0  0  0  0  0
   19.5476   -9.5593  -14.8617 N   0  0  0  0  0  0  0  0  0  0  0  0
   18.4914   -8.7647  -14.2794 C   0  0  1  0  0  0  0  0  0  0  0  0
   17.2003   -9.5034  -14.5300 C   0  0  0  0  0  0  0  0  0  0  0  0
   16.6955   -9.2923  -15.9091 C   0  0  0  0  0  0  0  0  0  0  0  0
   16.2175   -8.1238  -16.4581 C   0  0  0  0  0  0  0  0  0  0  0  0
   15.8556   -8.3460  -17.7309 N   0  0  0  0  0  0  0  0  0  0  0  0
   16.0905   -9.6383  -18.0172 C   0  0  0  0  0  0  0  0  0  0  0  0
   16.5991  -10.2055  -16.9097 N   0  0  0  0  0  0  0  0  0  0  0  0
   18.7693   -8.5521  -12.8585 C   0  0  0  0  0  0  0  0  0  0  0  0
   18.8950   -9.5383  -12.0745 O   0  0  0  0  0  0  0  0  0  0  0  0
   18.9022   -7.2578  -12.3340 N   0  0  0  0  0  0  0  0  0  0  0  0
   19.1922   -7.0014  -10.9347 C   0  0  1  0  0  0  0  0  0  0  0  0
   20.5302   -6.2588  -10.9126 C   0  0  0  0  0  0  0  0  0  0  0  0
   20.9033   -5.7767   -9.2075 S   0  0  0  0  0  0  0  0  0  0  0  0
   18.1946   -6.1419  -10.3036 C   0  0  0  0  0  0  0  0  0  0  0  0
   17.5062   -5.3331  -10.9686 O   0  0  0  0  0  0  0  0  0  0  0  0
   17.9928   -6.2107   -8.9376 O   0  0  0  0  0  0  0  0  0  0  0  0
  2  1  1  1
  3  2  1  0
  4  5  1  6
  4  6  1  0
  4  2  1  0
  6  7  2  0
  8  9  1  0
  8  6  1  0
  9 10  1  1
 10 11  1  0
 11 15  1  0
 11 12  2  0
 12 13  1  0
 14 13  1  0
 15 14  2  0
 16 17  2  0
 16  9  1  0
 18 16  1  0
 19 22  1  0
 19 18  1  0
 19 20  1  6
 21 20  1  0
 22 24  1  0
 23 22  2  0
M  END
$$$$
