THC.pdb
     RDKit          3D

 24 24  0  0  1  0  0  0  0  0999 V2000
   24.9196  -27.0237  -18.0743 C   0  0  0  0  0  0  0  0  0  0  0  0
   24.5707  -26.2054  -16.8705 C   0  0  1  0  0  0  0  0  0  0  0  0
   25.2193  -26.6746  -15.7497 O   0  0  0  0  0  0  0  0  0  0  0  0
   24.9772  -24.7656  -17.1373 C   0  0  2  0  0  0  0  0  0  0  0  0
   26.4089  -24.6263  -17.0832 N   0  0  0  0  0  0  0  0  0  0  0  0
   24.3308  -23.8973  -16.1260 C   0  0  0  0  0  0  0  0  0  0  0  0
   24.0182  -24.3736  -14.9979 O   0  0  0  0  0  0  0  0  0  0  0  0
   24.0782  -22.5441  -16.4542 N   0  0  0  0  0  0  0  0  0  0  0  0
   23.4425  -21.6389  -15.5254 C   0  0  1  0  0  0  0  0  0  0  0  0
   23.9789  -20.2606  -15.8222 C   0  0  0  0  0  0  0  0  0  0  0  0
   25.4175  -20.1366  -15.4810 C   0  0  0  0  0  0  0  0  0  0  0  0
   26.2479  -21.1128  -14.9784 C   0  0  0  0  0  0  0  0  0  0  0  0
   27.4767  -20.6037  -14.8019 N   0  0  0  0  0  0  0  0  0  0  0  0
   27.4579  -19.3141  -15.1813 C   0  0  0  0  0  0  0  0  0  0  0  0
   26.2080  -19.0378  -15.5914 N   0  0  0  0  0  0  0  0  0  0  0  0
   21.9895  -21.7367  -15.6680 C   0  0  0  0  0  0  0  0  0  0  0  0
   21.4644  -21.8710  -16.8122 O   0  0  0  0  0  0  0  0  0  0  0  0
   21.1482  -21.6842  -14.5465 N   0  0  0  0  0  0  0  0  0  0  0  0
   19.7035  -21.7938  -14.6404 C   0  0  1  0  0  0  0  0  0  0  0  0
   19.2359  -22.3442  -13.2911 C   0  0  0  0  0  0  0  0  0  0  0  0
   17.4270  -22.4272  -13.2886 S   0  0  0  0  0  0  0  0  0  0  0  0
   19.0552  -20.5014  -14.8437 C   0  0  0  0  0  0  0  0  0  0  0  0
   19.5055  -19.4502  -14.3314 O   0  0  0  0  0  0  0  0  0  0  0  0
   17.9136  -20.4191  -15.6193 O   0  0  0  0  0  0  0  0  0  0  0  0
  2  1  1  6
  3  2  1  0
  4  5  1  1
  4  6  1  0
  4  2  1  0
  6  7  2  0
  8  9  1  0
  8  6  1  0
  9 10  1  6
 10 11  1  0
 11 15  1  0
 11 12  2  0
 12 13  1  0
 14 13  1  0
 15 14  2  0
 16 17  2  0
 16  9  1  0
 18 16  1  0
 19 22  1  0
 19 18  1  0
 19 20  1  1
 21 20  1  0
 22 24  1  0
 23 22  2  0
M  END
$$$$
