THC.pdb
     RDKit          3D

 24 24  0  0  1  0  0  0  0  0999 V2000
   24.9526  -10.4565  -15.3276 C   0  0  0  0  0  0  0  0  0  0  0  0
   24.5945  -11.4309  -16.4059 C   0  0  1  0  0  0  0  0  0  0  0  0
   25.3840  -12.5573  -16.3356 O   0  0  0  0  0  0  0  0  0  0  0  0
   23.1333  -11.8136  -16.2380 C   0  0  2  0  0  0  0  0  0  0  0  0
   22.7589  -12.8145  -17.2024 N   0  0  0  0  0  0  0  0  0  0  0  0
   22.3047  -10.5965  -16.4020 C   0  0  0  0  0  0  0  0  0  0  0  0
   22.0985  -10.1289  -17.5578 O   0  0  0  0  0  0  0  0  0  0  0  0
   21.7611   -9.9843  -15.2476 N   0  0  0  0  0  0  0  0  0  0  0  0
   20.9766   -8.7739  -15.3229 C   0  0  1  0  0  0  0  0  0  0  0  0
   19.6751   -9.0522  -14.6130 C   0  0  0  0  0  0  0  0  0  0  0  0
   18.7471   -9.8574  -15.4447 C   0  0  0  0  0  0  0  0  0  0  0  0
   17.9601   -9.4206  -16.4864 C   0  0  0  0  0  0  0  0  0  0  0  0
   17.2617  -10.4545  -16.9800 N   0  0  0  0  0  0  0  0  0  0  0  0
   17.5820  -11.5545  -16.2766 C   0  0  0  0  0  0  0  0  0  0  0  0
   18.4819  -11.1859  -15.3486 N   0  0  0  0  0  0  0  0  0  0  0  0
   21.7314   -7.6674  -14.7336 C   0  0  0  0  0  0  0  0  0  0  0  0
   22.2369   -7.7788  -13.5782 O   0  0  0  0  0  0  0  0  0  0  0  0
   21.9117   -6.4635  -15.4309 N   0  0  0  0  0  0  0  0  0  0  0  0
   22.6235   -5.3286  -14.8711 C   0  0  1  0  0  0  0  0  0  0  0  0
   22.8388   -4.3544  -16.0316 C   0  0  0  0  0  0  0  0  0  0  0  0
   23.6912   -2.8829  -15.4093 S   0  0  0  0  0  0  0  0  0  0  0  0
   21.8526   -4.6346  -13.8434 C   0  0  0  0  0  0  0  0  0  0  0  0
   20.6227   -4.4292  -13.9682 O   0  0  0  0  0  0  0  0  0  0  0  0
   22.4818   -4.1864  -12.6968 O   0  0  0  0  0  0  0  0  0  0  0  0
  2  1  1  1
  3  2  1  0
  4  5  1  6
  4  6  1  0
  4  2  1  0
  6  7  2  0
  8  9  1  0
  8  6  1  0
  9 10  1  1
 10 11  1  0
 11 15  1  0
 11 12  2  0
 12 13  1  0
 14 13  1  0
 15 14  2  0
 16 17  2  0
 16  9  1  0
 18 16  1  0
 19 22  1  0
 19 18  1  0
 19 20  1  6
 21 20  1  0
 22 24  1  0
 23 22  2  0
M  END
$$$$
