THC.pdb
     RDKit          3D

 24 24  0  0  1  0  0  0  0  0999 V2000
   26.5253  -10.9976  -15.2573 C   0  0  0  0  0  0  0  0  0  0  0  0
   26.5282  -11.7439  -16.5548 C   0  0  1  0  0  0  0  0  0  0  0  0
   27.5613  -12.6537  -16.5987 O   0  0  0  0  0  0  0  0  0  0  0  0
   25.1982  -12.4662  -16.6934 C   0  0  2  0  0  0  0  0  0  0  0  0
   25.2161  -13.3438  -17.8342 N   0  0  0  0  0  0  0  0  0  0  0  0
   24.1241  -11.4552  -16.8308 C   0  0  0  0  0  0  0  0  0  0  0  0
   23.8796  -10.9494  -17.9628 O   0  0  0  0  0  0  0  0  0  0  0  0
   23.3934  -11.0796  -15.6785 N   0  0  0  0  0  0  0  0  0  0  0  0
   22.2938  -10.1453  -15.7426 C   0  0  1  0  0  0  0  0  0  0  0  0
   21.1387  -10.7792  -15.0082 C   0  0  0  0  0  0  0  0  0  0  0  0
   20.3383  -11.6667  -15.8875 C   0  0  0  0  0  0  0  0  0  0  0  0
   20.5491  -11.9390  -17.2204 C   0  0  0  0  0  0  0  0  0  0  0  0
   19.6053  -12.7877  -17.6555 N   0  0  0  0  0  0  0  0  0  0  0  0
   18.7859  -13.0707  -16.6280 C   0  0  0  0  0  0  0  0  0  0  0  0
   19.2355  -12.3886  -15.5605 N   0  0  0  0  0  0  0  0  0  0  0  0
   22.7096   -8.8644  -15.1701 C   0  0  0  0  0  0  0  0  0  0  0  0
   23.2266   -8.8150  -14.0154 O   0  0  0  0  0  0  0  0  0  0  0  0
   22.5462   -7.6673  -15.8830 N   0  0  0  0  0  0  0  0  0  0  0  0
   22.9742   -6.3793  -15.3674 C   0  0  1  0  0  0  0  0  0  0  0  0
   22.9825   -5.4288  -16.5668 C   0  0  0  0  0  0  0  0  0  0  0  0
   23.4207   -3.7679  -15.9938 S   0  0  0  0  0  0  0  0  0  0  0  0
   22.0500   -5.8373  -14.3753 C   0  0  0  0  0  0  0  0  0  0  0  0
   20.8082   -5.9507  -14.5000 O   0  0  0  0  0  0  0  0  0  0  0  0
   22.5426   -5.1790  -13.2638 O   0  0  0  0  0  0  0  0  0  0  0  0
  2  1  1  1
  3  2  1  0
  4  5  1  6
  4  6  1  0
  4  2  1  0
  6  7  2  0
  8  9  1  0
  8  6  1  0
  9 10  1  1
 10 11  1  0
 11 15  1  0
 11 12  2  0
 12 13  1  0
 14 13  1  0
 15 14  2  0
 16 17  2  0
 16  9  1  0
 18 16  1  0
 19 22  1  0
 19 18  1  0
 19 20  1  6
 21 20  1  0
 22 24  1  0
 23 22  2  0
M  END
$$$$
