THC.pdb
     RDKit          3D

 24 24  0  0  1  0  0  0  0  0999 V2000
   25.6442  -23.4565  -16.7630 C   0  0  0  0  0  0  0  0  0  0  0  0
   24.4844  -22.9854  -15.9423 C   0  0  1  0  0  0  0  0  0  0  0  0
   23.7374  -24.0491  -15.4868 O   0  0  0  0  0  0  0  0  0  0  0  0
   25.0241  -22.1915  -14.7641 C   0  0  2  0  0  0  0  0  0  0  0  0
   25.7241  -23.0559  -13.8504 N   0  0  0  0  0  0  0  0  0  0  0  0
   23.8890  -21.5248  -14.0845 C   0  0  0  0  0  0  0  0  0  0  0  0
   23.5027  -21.9398  -12.9550 O   0  0  0  0  0  0  0  0  0  0  0  0
   23.2618  -20.4300  -14.7253 N   0  0  0  0  0  0  0  0  0  0  0  0
   22.0714  -19.8116  -14.1899 C   0  0  1  0  0  0  0  0  0  0  0  0
   21.9259  -18.4766  -14.8770 C   0  0  0  0  0  0  0  0  0  0  0  0
   20.7127  -17.7486  -14.4303 C   0  0  0  0  0  0  0  0  0  0  0  0
   20.5531  -17.0106  -13.2792 C   0  0  0  0  0  0  0  0  0  0  0  0
   19.3079  -16.5126  -13.2393 N   0  0  0  0  0  0  0  0  0  0  0  0
   18.6568  -16.9147  -14.3447 C   0  0  0  0  0  0  0  0  0  0  0  0
   19.5132  -17.6628  -15.0614 N   0  0  0  0  0  0  0  0  0  0  0  0
   20.9261  -20.6977  -14.4002 C   0  0  0  0  0  0  0  0  0  0  0  0
   20.8138  -21.3574  -15.4750 O   0  0  0  0  0  0  0  0  0  0  0  0
   19.9307  -20.8367  -13.4214 N   0  0  0  0  0  0  0  0  0  0  0  0
   18.7489  -21.6583  -13.6116 C   0  0  1  0  0  0  0  0  0  0  0  0
   18.5204  -22.3792  -12.2811 C   0  0  0  0  0  0  0  0  0  0  0  0
   18.8300  -24.1481  -12.5136 S   0  0  0  0  0  0  0  0  0  0  0  0
   17.5563  -20.8669  -13.9006 C   0  0  0  0  0  0  0  0  0  0  0  0
   16.7795  -21.1638  -14.8380 O   0  0  0  0  0  0  0  0  0  0  0  0
   17.2630  -19.7581  -13.1287 O   0  0  0  0  0  0  0  0  0  0  0  0
  2  1  1  1
  3  2  1  0
  4  5  1  1
  4  6  1  0
  4  2  1  0
  6  7  2  0
  8  9  1  0
  8  6  1  0
  9 10  1  6
 10 11  1  0
 11 15  1  0
 11 12  2  0
 12 13  1  0
 14 13  1  0
 15 14  2  0
 16 17  2  0
 16  9  1  0
 18 16  1  0
 19 22  1  0
 19 18  1  0
 19 20  1  1
 21 20  1  0
 22 24  1  0
 23 22  2  0
M  END
$$$$
