THC.pdb
     RDKit          3D

 24 24  0  0  1  0  0  0  0  0999 V2000
   15.2122   -7.4184  -11.9172 C   0  0  0  0  0  0  0  0  0  0  0  0
   15.1980   -8.6974  -11.1395 C   0  0  1  0  0  0  0  0  0  0  0  0
   13.9789   -8.8900  -10.5282 O   0  0  0  0  0  0  0  0  0  0  0  0
   15.4815   -9.8423  -12.0979 C   0  0  2  0  0  0  0  0  0  0  0  0
   15.3894  -11.1067  -11.4161 N   0  0  0  0  0  0  0  0  0  0  0  0
   16.8357   -9.6557  -12.6689 C   0  0  0  0  0  0  0  0  0  0  0  0
   17.8448  -10.0928  -12.0462 O   0  0  0  0  0  0  0  0  0  0  0  0
   16.9636   -8.9862  -13.9091 N   0  0  0  0  0  0  0  0  0  0  0  0
   18.2451   -8.8048  -14.5502 C   0  0  1  0  0  0  0  0  0  0  0  0
   18.0220   -8.9856  -16.0311 C   0  0  0  0  0  0  0  0  0  0  0  0
   18.0933  -10.4112  -16.4360 C   0  0  0  0  0  0  0  0  0  0  0  0
   18.4301  -11.4907  -15.6508 C   0  0  0  0  0  0  0  0  0  0  0  0
   18.3799  -12.6101  -16.3887 N   0  0  0  0  0  0  0  0  0  0  0  0
   18.0164  -12.2757  -17.6390 C   0  0  0  0  0  0  0  0  0  0  0  0
   17.8445  -10.9427  -17.6607 N   0  0  0  0  0  0  0  0  0  0  0  0
   18.7809   -7.4881  -14.2029 C   0  0  0  0  0  0  0  0  0  0  0  0
   18.0217   -6.4756  -14.1659 O   0  0  0  0  0  0  0  0  0  0  0  0
   20.1410   -7.3173  -13.9044 N   0  0  0  0  0  0  0  0  0  0  0  0
   20.7207   -6.0249  -13.5857 C   0  0  1  0  0  0  0  0  0  0  0  0
   22.0473   -6.3219  -12.8828 C   0  0  0  0  0  0  0  0  0  0  0  0
   22.8968   -4.7574  -12.5519 S   0  0  0  0  0  0  0  0  0  0  0  0
   21.0146   -5.2331  -14.7768 C   0  0  0  0  0  0  0  0  0  0  0  0
   21.4746   -5.7558  -15.8188 O   0  0  0  0  0  0  0  0  0  0  0  0
   20.7848   -3.8698  -14.7705 O   0  0  0  0  0  0  0  0  0  0  0  0
  2  1  1  6
  3  2  1  0
  4  5  1  1
  4  6  1  0
  4  2  1  0
  6  7  2  0
  8  9  1  0
  8  6  1  0
  9 10  1  6
 10 11  1  0
 11 15  1  0
 11 12  2  0
 12 13  1  0
 14 13  1  0
 15 14  2  0
 16 17  2  0
 16  9  1  0
 18 16  1  0
 19 22  1  0
 19 18  1  0
 19 20  1  6
 21 20  1  0
 22 24  1  0
 23 22  2  0
M  END
$$$$
