THC.pdb
     RDKit          3D

 24 24  0  0  1  0  0  0  0  0999 V2000
   16.7244  -11.7658  -16.7828 C   0  0  0  0  0  0  0  0  0  0  0  0
   17.1450  -13.0647  -16.1693 C   0  0  1  0  0  0  0  0  0  0  0  0
   16.4184  -14.1137  -16.6875 O   0  0  0  0  0  0  0  0  0  0  0  0
   18.6236  -13.2707  -16.4539 C   0  0  2  0  0  0  0  0  0  0  0  0
   19.0582  -14.5537  -15.9669 N   0  0  0  0  0  0  0  0  0  0  0  0
   19.3862  -12.1806  -15.8020 C   0  0  0  0  0  0  0  0  0  0  0  0
   19.5254  -12.1765  -14.5459 O   0  0  0  0  0  0  0  0  0  0  0  0
   19.9438  -11.1630  -16.6121 N   0  0  0  0  0  0  0  0  0  0  0  0
   20.6642  -10.0460  -16.0471 C   0  0  1  0  0  0  0  0  0  0  0  0
   22.0490  -10.0721  -16.6447 C   0  0  0  0  0  0  0  0  0  0  0  0
   22.8913  -11.1412  -16.0540 C   0  0  0  0  0  0  0  0  0  0  0  0
   23.6064  -11.0931  -14.8786 C   0  0  0  0  0  0  0  0  0  0  0  0
   24.2403  -12.2614  -14.6956 N   0  0  0  0  0  0  0  0  0  0  0  0
   23.9489  -13.0667  -15.7319 C   0  0  0  0  0  0  0  0  0  0  0  0
   23.1317  -12.3822  -16.5507 N   0  0  0  0  0  0  0  0  0  0  0  0
   19.9375   -8.8070  -16.3262 C   0  0  0  0  0  0  0  0  0  0  0  0
   19.6024   -8.5124  -17.5111 O   0  0  0  0  0  0  0  0  0  0  0  0
   19.5967   -7.9209  -15.2933 N   0  0  0  0  0  0  0  0  0  0  0  0
   18.8762   -6.6818  -15.5249 C   0  0  1  0  0  0  0  0  0  0  0  0
   18.0147   -6.4584  -14.2799 C   0  0  0  0  0  0  0  0  0  0  0  0
   17.2767   -4.8072  -14.3681 S   0  0  0  0  0  0  0  0  0  0  0  0
   19.7667   -5.5328  -15.6631 C   0  0  0  0  0  0  0  0  0  0  0  0
   20.8202   -5.4309  -14.9921 O   0  0  0  0  0  0  0  0  0  0  0  0
   19.4529   -4.5227  -16.5534 O   0  0  0  0  0  0  0  0  0  0  0  0
  2  1  1  6
  3  2  1  0
  4  5  1  1
  4  6  1  0
  4  2  1  0
  6  7  2  0
  8  9  1  0
  8  6  1  0
  9 10  1  6
 10 11  1  0
 11 15  1  0
 11 12  2  0
 12 13  1  0
 14 13  1  0
 15 14  2  0
 16 17  2  0
 16  9  1  0
 18 16  1  0
 19 22  1  0
 19 18  1  0
 19 20  1  1
 21 20  1  0
 22 24  1  0
 23 22  2  0
M  END
$$$$
