THC.pdb
     RDKit          3D

 24 24  0  0  1  0  0  0  0  0999 V2000
   18.9858  -10.5489  -17.7779 C   0  0  0  0  0  0  0  0  0  0  0  0
   18.9942  -11.8831  -17.0995 C   0  0  1  0  0  0  0  0  0  0  0  0
   18.1152  -12.7517  -17.7076 O   0  0  0  0  0  0  0  0  0  0  0  0
   20.4048  -12.4447  -17.1674 C   0  0  2  0  0  0  0  0  0  0  0  0
   20.4417  -13.7837  -16.6405 N   0  0  0  0  0  0  0  0  0  0  0  0
   21.3044  -11.5561  -16.3955 C   0  0  0  0  0  0  0  0  0  0  0  0
   21.1171  -11.3975  -15.1558 O   0  0  0  0  0  0  0  0  0  0  0  0
   22.3600  -10.9023  -17.0745 N   0  0  0  0  0  0  0  0  0  0  0  0
   23.2333   -9.9657  -16.4065 C   0  0  1  0  0  0  0  0  0  0  0  0
   24.5974  -10.1179  -17.0322 C   0  0  0  0  0  0  0  0  0  0  0  0
   25.3114  -11.3170  -16.5286 C   0  0  0  0  0  0  0  0  0  0  0  0
   24.9118  -12.1726  -15.5269 C   0  0  0  0  0  0  0  0  0  0  0  0
   25.8349  -13.1332  -15.3680 N   0  0  0  0  0  0  0  0  0  0  0  0
   26.8266  -12.9157  -16.2492 C   0  0  0  0  0  0  0  0  0  0  0  0
   26.5032  -11.8144  -16.9489 N   0  0  0  0  0  0  0  0  0  0  0  0
   22.6863   -8.6145  -16.5340 C   0  0  0  0  0  0  0  0  0  0  0  0
   22.1762   -8.2289  -17.6267 O   0  0  0  0  0  0  0  0  0  0  0  0
   22.7140   -7.7190  -15.4544 N   0  0  0  0  0  0  0  0  0  0  0  0
   22.0566   -6.4249  -15.4881 C   0  0  1  0  0  0  0  0  0  0  0  0
   20.5545   -6.7176  -15.5014 C   0  0  0  0  0  0  0  0  0  0  0  0
   19.6538   -5.1631  -15.2749 S   0  0  0  0  0  0  0  0  0  0  0  0
   22.3434   -5.6193  -14.3045 C   0  0  0  0  0  0  0  0  0  0  0  0
   22.3790   -4.3676  -14.3520 O   0  0  0  0  0  0  0  0  0  0  0  0
   22.5842   -6.2392  -13.0924 O   0  0  0  0  0  0  0  0  0  0  0  0
  2  1  1  6
  3  2  1  0
  4  5  1  1
  4  6  1  0
  4  2  1  0
  6  7  2  0
  8  9  1  0
  8  6  1  0
  9 10  1  6
 10 11  1  0
 11 15  1  0
 11 12  2  0
 12 13  1  0
 14 13  1  0
 15 14  2  0
 16 17  2  0
 16  9  1  0
 18 16  1  0
 19 22  1  0
 19 18  1  0
 19 20  1  1
 21 20  1  0
 22 24  1  0
 23 22  2  0
M  END
$$$$
