THC.pdb
     RDKit          3D

 24 24  0  0  1  0  0  0  0  0999 V2000
   10.6426  -11.5608  -12.9401 C   0  0  0  0  0  0  0  0  0  0  0  0
   10.5842  -12.7611  -12.0477 C   0  0  1  0  0  0  0  0  0  0  0  0
    9.2802  -13.1246  -11.7939 O   0  0  0  0  0  0  0  0  0  0  0  0
   11.3140  -13.9033  -12.7349 C   0  0  2  0  0  0  0  0  0  0  0  0
   11.1824  -15.1179  -11.9736 N   0  0  0  0  0  0  0  0  0  0  0  0
   12.7407  -13.5320  -12.8808 C   0  0  0  0  0  0  0  0  0  0  0  0
   13.5556  -13.7945  -11.9513 O   0  0  0  0  0  0  0  0  0  0  0  0
   13.1565  -12.8867  -14.0697 N   0  0  0  0  0  0  0  0  0  0  0  0
   14.5184  -12.4466  -14.2635 C   0  0  1  0  0  0  0  0  0  0  0  0
   15.1453  -13.3911  -15.2587 C   0  0  0  0  0  0  0  0  0  0  0  0
   16.6015  -13.1528  -15.4131 C   0  0  0  0  0  0  0  0  0  0  0  0
   17.6317  -13.9963  -15.0630 C   0  0  0  0  0  0  0  0  0  0  0  0
   18.8035  -13.4148  -15.3614 N   0  0  0  0  0  0  0  0  0  0  0  0
   18.5515  -12.2087  -15.8990 C   0  0  0  0  0  0  0  0  0  0  0  0
   17.2162  -12.0564  -15.9274 N   0  0  0  0  0  0  0  0  0  0  0  0
   14.5206  -11.0527  -14.7090 C   0  0  0  0  0  0  0  0  0  0  0  0
   13.7666  -10.6801  -15.6553 O   0  0  0  0  0  0  0  0  0  0  0  0
   15.3538  -10.1014  -14.1016 N   0  0  0  0  0  0  0  0  0  0  0  0
   15.4534   -8.7300  -14.5679 C   0  0  1  0  0  0  0  0  0  0  0  0
   14.7865   -7.8711  -13.4911 C   0  0  0  0  0  0  0  0  0  0  0  0
   15.0740   -6.1249  -13.8747 S   0  0  0  0  0  0  0  0  0  0  0  0
   16.8368   -8.2824  -14.7020 C   0  0  0  0  0  0  0  0  0  0  0  0
   17.7543   -8.7553  -13.9914 O   0  0  0  0  0  0  0  0  0  0  0  0
   17.1586   -7.3122  -15.6328 O   0  0  0  0  0  0  0  0  0  0  0  0
  2  1  1  6
  3  2  1  0
  4  5  1  1
  4  6  1  0
  4  2  1  0
  6  7  2  0
  8  9  1  0
  8  6  1  0
  9 10  1  6
 10 11  1  0
 11 15  1  0
 11 12  2  0
 12 13  1  0
 14 13  1  0
 15 14  2  0
 16 17  2  0
 16  9  1  0
 18 16  1  0
 19 22  1  0
 19 18  1  0
 19 20  1  1
 21 20  1  0
 22 24  1  0
 23 22  2  0
M  END
$$$$
