SNW.pdb
     RDKit          3D

 29 30  0  0  1  0  0  0  0  0999 V2000
   27.0089  -15.6093  -14.2550 O   0  0  0  0  0  0  0  0  0  0  0  0
   26.1813  -16.5807  -14.8186 C   0  0  0  0  0  0  0  0  0  0  0  0
   26.9038  -17.1091  -16.0387 C   0  0  2  0  0  0  0  0  0  0  0  0
   26.3036  -16.4048  -17.1765 N   0  0  0  0  0  0  0  0  0  0  0  0
   26.7316  -18.6006  -16.1829 C   0  0  0  0  0  0  0  0  0  0  0  0
   25.7009  -18.9870  -16.7354 O   0  0  0  0  0  0  0  0  0  0  0  0
   27.8159  -23.5729  -16.3341 N   0  0  0  0  0  0  0  0  0  0  0  0
   29.0567  -22.9741  -15.9137 C   0  0  0  0  0  0  0  0  0  0  0  0
   30.0364  -23.7593  -15.8376 O   0  0  0  0  0  0  0  0  0  0  0  0
   29.1361  -21.5326  -15.5977 C   0  0  0  0  0  0  0  0  0  0  0  0
   27.7880  -20.8995  -15.7001 C   0  0  2  0  0  0  0  0  0  0  0  0
   27.7152  -19.4677  -15.7018 N   0  0  0  0  0  0  0  0  0  0  0  0
   26.7334  -21.5368  -14.9299 C   0  0  0  0  0  0  0  0  0  0  0  0
   26.5990  -22.7955  -14.9972 O   0  0  0  0  0  0  0  0  0  0  0  0
   25.8140  -20.8762  -14.0887 N   0  0  0  0  0  0  0  0  0  0  0  0
   25.2455  -21.4764  -12.9075 C   0  0  1  0  0  0  0  0  0  0  0  0
   26.2593  -22.0980  -11.9882 C   0  0  0  0  0  0  0  0  0  0  0  0
   26.2653  -21.3240  -10.7113 C   0  0  0  0  0  0  0  0  0  0  0  0
   25.2029  -20.6556  -10.1463 C   0  0  0  0  0  0  0  0  0  0  0  0
   25.6117  -20.0732   -8.9812 N   0  0  0  0  0  0  0  0  0  0  0  0
   26.9114  -20.3424   -8.7690 C   0  0  0  0  0  0  0  0  0  0  0  0
   27.7827  -19.9913   -7.7493 C   0  0  0  0  0  0  0  0  0  0  0  0
   29.0977  -20.4218   -7.7936 C   0  0  0  0  0  0  0  0  0  0  0  0
   29.5162  -21.1939   -8.8548 C   0  0  0  0  0  0  0  0  0  0  0  0
   28.6244  -21.5383   -9.8732 C   0  0  0  0  0  0  0  0  0  0  0  0
   27.3222  -21.1212   -9.8448 C   0  0  0  0  0  0  0  0  0  0  0  0
   24.3458  -20.5182  -12.2543 C   0  0  0  0  0  0  0  0  0  0  0  0
   24.5012  -19.1293  -12.3433 O   0  0  0  0  0  0  0  0  0  0  0  0
   23.3814  -20.9378  -11.5754 O   0  0  0  0  0  0  0  0  0  0  0  0
  2  3  1  0
  2  1  1  0
  3  4  1  6
  5  3  1  0
  5  6  2  0
  7  8  1  0
  8  9  2  0
 10  8  1  0
 11 10  1  1
 11 12  1  0
 12  5  1  0
 13 11  1  0
 14 13  2  0
 15 13  1  0
 16 17  1  1
 16 15  1  0
 18 17  1  0
 19 18  2  0
 20 21  1  0
 20 19  1  0
 21 26  2  0
 22 21  1  0
 22 23  2  0
 23 24  1  0
 24 25  2  0
 26 18  1  0
 26 25  1  0
 27 16  1  0
 28 27  1  0
 29 27  2  0
M  END
$$$$
