SNW.pdb
     RDKit          3D

 29 30  0  0  1  0  0  0  0  0999 V2000
   20.5564   -9.2608  -15.6570 O   0  0  0  0  0  0  0  0  0  0  0  0
   19.4166   -8.7729  -15.0174 C   0  0  0  0  0  0  0  0  0  0  0  0
   18.7196   -9.9683  -14.4052 C   0  0  2  0  0  0  0  0  0  0  0  0
   18.4195  -10.8577  -15.5320 N   0  0  0  0  0  0  0  0  0  0  0  0
   17.4535   -9.5664  -13.6906 C   0  0  0  0  0  0  0  0  0  0  0  0
   16.5220   -9.1747  -14.3946 O   0  0  0  0  0  0  0  0  0  0  0  0
   14.3767   -8.3586   -9.6956 N   0  0  0  0  0  0  0  0  0  0  0  0
   14.3143   -9.7384  -10.1046 C   0  0  0  0  0  0  0  0  0  0  0  0
   13.3305  -10.3875   -9.6652 O   0  0  0  0  0  0  0  0  0  0  0  0
   15.3546  -10.3197  -10.9785 C   0  0  0  0  0  0  0  0  0  0  0  0
   16.3389   -9.2743  -11.3870 C   0  0  2  0  0  0  0  0  0  0  0  0
   17.3801   -9.6495  -12.2983 N   0  0  0  0  0  0  0  0  0  0  0  0
   16.7817   -8.3799  -10.3308 C   0  0  0  0  0  0  0  0  0  0  0  0
   17.5289   -8.8355   -9.4137 O   0  0  0  0  0  0  0  0  0  0  0  0
   16.4535   -7.0129  -10.2180 N   0  0  0  0  0  0  0  0  0  0  0  0
   17.0834   -6.1202   -9.2774 C   0  0  1  0  0  0  0  0  0  0  0  0
   18.5820   -6.2300   -9.2384 C   0  0  0  0  0  0  0  0  0  0  0  0
   19.1310   -5.5284  -10.4368 C   0  0  0  0  0  0  0  0  0  0  0  0
   18.9484   -4.2068  -10.7750 C   0  0  0  0  0  0  0  0  0  0  0  0
   19.6107   -3.9498  -11.9409 N   0  0  0  0  0  0  0  0  0  0  0  0
   20.2210   -5.0664  -12.3737 C   0  0  0  0  0  0  0  0  0  0  0  0
   21.0066   -5.3293  -13.4854 C   0  0  0  0  0  0  0  0  0  0  0  0
   21.5137   -6.6028  -13.6800 C   0  0  0  0  0  0  0  0  0  0  0  0
   21.2261   -7.5877  -12.7608 C   0  0  0  0  0  0  0  0  0  0  0  0
   20.4331   -7.3047  -11.6464 C   0  0  0  0  0  0  0  0  0  0  0  0
   19.9243   -6.0522  -11.4395 C   0  0  0  0  0  0  0  0  0  0  0  0
   16.5835   -4.7558   -9.4847 C   0  0  0  0  0  0  0  0  0  0  0  0
   16.7194   -3.7320   -8.5389 O   0  0  0  0  0  0  0  0  0  0  0  0
   16.0007   -4.4655  -10.5538 O   0  0  0  0  0  0  0  0  0  0  0  0
  2  3  1  0
  2  1  1  0
  3  4  1  6
  5  3  1  0
  5  6  2  0
  7  8  1  0
  8  9  2  0
 10  8  1  0
 11 10  1  1
 11 12  1  0
 12  5  1  0
 13 11  1  0
 14 13  2  0
 15 13  1  0
 16 17  1  6
 16 15  1  0
 18 17  1  0
 19 18  2  0
 20 21  1  0
 20 19  1  0
 21 26  2  0
 22 21  1  0
 22 23  2  0
 23 24  1  0
 24 25  2  0
 26 18  1  0
 26 25  1  0
 27 16  1  0
 28 27  1  0
 29 27  2  0
M  END
$$$$
