SNW.pdb
     RDKit          3D

 29 30  0  0  1  0  0  0  0  0999 V2000
   26.3834  -24.0736  -15.4509 O   0  0  0  0  0  0  0  0  0  0  0  0
   27.0894  -23.4882  -16.5021 C   0  0  0  0  0  0  0  0  0  0  0  0
   26.5512  -22.0821  -16.6541 C   0  0  2  0  0  0  0  0  0  0  0  0
   27.2378  -21.5319  -17.8275 N   0  0  0  0  0  0  0  0  0  0  0  0
   26.8314  -21.2456  -15.4307 C   0  0  0  0  0  0  0  0  0  0  0  0
   27.8478  -20.5506  -15.4572 O   0  0  0  0  0  0  0  0  0  0  0  0
   22.6198  -19.2245  -12.1526 N   0  0  0  0  0  0  0  0  0  0  0  0
   23.4627  -19.7251  -13.2080 C   0  0  0  0  0  0  0  0  0  0  0  0
   22.9282  -20.5710  -13.9702 O   0  0  0  0  0  0  0  0  0  0  0  0
   24.8570  -19.2575  -13.3534 C   0  0  0  0  0  0  0  0  0  0  0  0
   25.8086  -20.4004  -13.2231 C   0  0  2  0  0  0  0  0  0  0  0  0
   25.9567  -21.2838  -14.3424 N   0  0  0  0  0  0  0  0  0  0  0  0
   25.8028  -21.0806  -11.9391 C   0  0  0  0  0  0  0  0  0  0  0  0
   25.2458  -22.2158  -11.8482 O   0  0  0  0  0  0  0  0  0  0  0  0
   26.3713  -20.5905  -10.7451 N   0  0  0  0  0  0  0  0  0  0  0  0
   26.3698  -21.3256   -9.5048 C   0  0  1  0  0  0  0  0  0  0  0  0
   27.6986  -21.3438   -8.8023 C   0  0  0  0  0  0  0  0  0  0  0  0
   27.6914  -20.2686   -7.7662 C   0  0  0  0  0  0  0  0  0  0  0  0
   27.0108  -19.0735   -7.8216 C   0  0  0  0  0  0  0  0  0  0  0  0
   27.2606  -18.3653   -6.6815 N   0  0  0  0  0  0  0  0  0  0  0  0
   28.0852  -19.0642   -5.8826 C   0  0  0  0  0  0  0  0  0  0  0  0
   28.6296  -18.7925   -4.6368 C   0  0  0  0  0  0  0  0  0  0  0  0
   29.4659  -19.7192   -4.0380 C   0  0  0  0  0  0  0  0  0  0  0  0
   29.7415  -20.8982   -4.6950 C   0  0  0  0  0  0  0  0  0  0  0  0
   29.1839  -21.1552   -5.9495 C   0  0  0  0  0  0  0  0  0  0  0  0
   28.3560  -20.2504   -6.5549 C   0  0  0  0  0  0  0  0  0  0  0  0
   25.2510  -20.8753   -8.6682 C   0  0  0  0  0  0  0  0  0  0  0  0
   24.7289  -21.6264   -7.6079 O   0  0  0  0  0  0  0  0  0  0  0  0
   24.7167  -19.7658   -8.8933 O   0  0  0  0  0  0  0  0  0  0  0  0
  2  3  1  0
  2  1  1  0
  3  4  1  6
  5  3  1  0
  5  6  2  0
  7  8  1  0
  8  9  2  0
 10  8  1  0
 11 10  1  6
 11 12  1  0
 12  5  1  0
 13 11  1  0
 14 13  2  0
 15 13  1  0
 16 17  1  1
 16 15  1  0
 18 17  1  0
 19 18  2  0
 20 21  1  0
 20 19  1  0
 21 26  2  0
 22 21  1  0
 22 23  2  0
 23 24  1  0
 24 25  2  0
 26 18  1  0
 26 25  1  0
 27 16  1  0
 28 27  1  0
 29 27  2  0
M  END
$$$$
