SNW.pdb
     RDKit          3D

 29 30  0  0  1  0  0  0  0  0999 V2000
   25.8289  -23.9935  -17.4566 O   0  0  0  0  0  0  0  0  0  0  0  0
   26.5413  -23.4763  -16.3744 C   0  0  0  0  0  0  0  0  0  0  0  0
   26.7317  -22.0003  -16.6480 C   0  0  2  0  0  0  0  0  0  0  0  0
   27.6271  -21.9361  -17.8077 N   0  0  0  0  0  0  0  0  0  0  0  0
   27.3398  -21.2905  -15.4641 C   0  0  0  0  0  0  0  0  0  0  0  0
   28.4235  -20.7355  -15.6493 O   0  0  0  0  0  0  0  0  0  0  0  0
   28.9784  -18.3371  -14.0449 N   0  0  0  0  0  0  0  0  0  0  0  0
   27.5801  -18.4615  -14.3681 C   0  0  0  0  0  0  0  0  0  0  0  0
   27.2673  -18.1401  -15.5432 O   0  0  0  0  0  0  0  0  0  0  0  0
   26.6067  -18.9341  -13.3617 C   0  0  0  0  0  0  0  0  0  0  0  0
   26.7775  -20.3966  -13.1149 C   0  0  2  0  0  0  0  0  0  0  0  0
   26.6752  -21.2848  -14.2356 N   0  0  0  0  0  0  0  0  0  0  0  0
   26.1540  -20.9076  -11.9060 C   0  0  0  0  0  0  0  0  0  0  0  0
   24.9810  -21.3836  -11.9743 O   0  0  0  0  0  0  0  0  0  0  0  0
   26.7393  -20.9280  -10.6230 N   0  0  0  0  0  0  0  0  0  0  0  0
   26.0905  -21.4867   -9.4630 C   0  0  1  0  0  0  0  0  0  0  0  0
   27.0188  -21.7534   -8.3113 C   0  0  0  0  0  0  0  0  0  0  0  0
   27.1865  -20.4825   -7.5455 C   0  0  0  0  0  0  0  0  0  0  0  0
   26.7685  -19.2279   -7.9268 C   0  0  0  0  0  0  0  0  0  0  0  0
   27.1077  -18.3308   -6.9552 N   0  0  0  0  0  0  0  0  0  0  0  0
   27.7355  -18.9643   -5.9495 C   0  0  0  0  0  0  0  0  0  0  0  0
   28.2687  -18.5141   -4.7515 C   0  0  0  0  0  0  0  0  0  0  0  0
   28.8700  -19.4141   -3.8884 C   0  0  0  0  0  0  0  0  0  0  0  0
   28.9268  -20.7451   -4.2388 C   0  0  0  0  0  0  0  0  0  0  0  0
   28.3841  -21.1809   -5.4498 C   0  0  0  0  0  0  0  0  0  0  0  0
   27.7868  -20.3049   -6.3137 C   0  0  0  0  0  0  0  0  0  0  0  0
   24.9178  -20.6745   -9.1174 C   0  0  0  0  0  0  0  0  0  0  0  0
   24.6614  -19.4141   -9.6714 O   0  0  0  0  0  0  0  0  0  0  0  0
   24.0879  -21.1071   -8.2861 O   0  0  0  0  0  0  0  0  0  0  0  0
  2  3  1  0
  2  1  1  0
  3  4  1  6
  5  3  1  0
  5  6  2  0
  7  8  1  0
  8  9  2  0
 10  8  1  0
 11 10  1  6
 11 12  1  0
 12  5  1  0
 13 11  1  0
 14 13  2  0
 15 13  1  0
 16 17  1  1
 16 15  1  0
 18 17  1  0
 19 18  2  0
 20 21  1  0
 20 19  1  0
 21 26  2  0
 22 21  1  0
 22 23  2  0
 23 24  1  0
 24 25  2  0
 26 18  1  0
 26 25  1  0
 27 16  1  0
 28 27  1  0
 29 27  2  0
M  END
$$$$
