SNW.pdb
     RDKit          3D

 29 30  0  0  1  0  0  0  0  0999 V2000
   29.8244  -22.4442  -17.1615 O   0  0  0  0  0  0  0  0  0  0  0  0
   29.4650  -21.5718  -16.1339 C   0  0  0  0  0  0  0  0  0  0  0  0
   28.2858  -20.7700  -16.6403 C   0  0  2  0  0  0  0  0  0  0  0  0
   28.8339  -19.8956  -17.6822 N   0  0  0  0  0  0  0  0  0  0  0  0
   27.6539  -19.9565  -15.5385 C   0  0  0  0  0  0  0  0  0  0  0  0
   27.6635  -18.7331  -15.6797 O   0  0  0  0  0  0  0  0  0  0  0  0
   24.2646  -20.8482  -15.2976 N   0  0  0  0  0  0  0  0  0  0  0  0
   24.0602  -19.9059  -14.2274 C   0  0  0  0  0  0  0  0  0  0  0  0
   22.8697  -19.7758  -13.8430 O   0  0  0  0  0  0  0  0  0  0  0  0
   25.1947  -19.1576  -13.6469 C   0  0  0  0  0  0  0  0  0  0  0  0
   26.3257  -20.0808  -13.3352 C   0  0  2  0  0  0  0  0  0  0  0  0
   27.0952  -20.5961  -14.4296 N   0  0  0  0  0  0  0  0  0  0  0  0
   26.0711  -21.0573  -12.2897 C   0  0  0  0  0  0  0  0  0  0  0  0
   26.5314  -22.2312  -12.4206 O   0  0  0  0  0  0  0  0  0  0  0  0
   25.3396  -20.8249  -11.1064 N   0  0  0  0  0  0  0  0  0  0  0  0
   25.7086  -21.3719   -9.8245 C   0  0  1  0  0  0  0  0  0  0  0  0
   27.1274  -21.0827   -9.4210 C   0  0  0  0  0  0  0  0  0  0  0  0
   27.1075  -20.4668   -8.0608 C   0  0  0  0  0  0  0  0  0  0  0  0
   26.0068  -19.9872   -7.3880 C   0  0  0  0  0  0  0  0  0  0  0  0
   26.4023  -19.5040   -6.1739 N   0  0  0  0  0  0  0  0  0  0  0  0
   27.7307  -19.6546   -6.0346 C   0  0  0  0  0  0  0  0  0  0  0  0
   28.6036  -19.3331   -5.0065 C   0  0  0  0  0  0  0  0  0  0  0  0
   29.9530  -19.6113   -5.1417 C   0  0  0  0  0  0  0  0  0  0  0  0
   30.4035  -20.2048   -6.3002 C   0  0  0  0  0  0  0  0  0  0  0  0
   29.5097  -20.5220   -7.3256 C   0  0  0  0  0  0  0  0  0  0  0  0
   28.1737  -20.2538   -7.2082 C   0  0  0  0  0  0  0  0  0  0  0  0
   24.7065  -20.9919   -8.8216 C   0  0  0  0  0  0  0  0  0  0  0  0
   24.3679  -21.7957   -7.7259 O   0  0  0  0  0  0  0  0  0  0  0  0
   24.1078  -19.8978   -8.9277 O   0  0  0  0  0  0  0  0  0  0  0  0
  2  3  1  0
  2  1  1  0
  3  4  1  6
  5  3  1  0
  5  6  2  0
  7  8  1  0
  8  9  2  0
 10  8  1  0
 11 10  1  6
 11 12  1  0
 12  5  1  0
 13 11  1  0
 14 13  2  0
 15 13  1  0
 16 17  1  1
 16 15  1  0
 18 17  1  0
 19 18  2  0
 20 21  1  0
 20 19  1  0
 21 26  2  0
 22 21  1  0
 22 23  2  0
 23 24  1  0
 24 25  2  0
 26 18  1  0
 26 25  1  0
 27 16  1  0
 28 27  1  0
 29 27  2  0
M  END
$$$$
