SNW.pdb
     RDKit          3D

 29 30  0  0  1  0  0  0  0  0999 V2000
   24.1870  -17.5884  -12.8058 O   0  0  0  0  0  0  0  0  0  0  0  0
   24.4202  -17.0528  -14.0727 C   0  0  0  0  0  0  0  0  0  0  0  0
   24.4864  -18.2223  -15.0308 C   0  0  2  0  0  0  0  0  0  0  0  0
   23.0922  -18.6241  -15.2445 N   0  0  0  0  0  0  0  0  0  0  0  0
   25.2892  -19.3637  -14.4583 C   0  0  0  0  0  0  0  0  0  0  0  0
   24.7115  -20.4460  -14.3498 O   0  0  0  0  0  0  0  0  0  0  0  0
   29.6195  -17.5999  -15.1748 N   0  0  0  0  0  0  0  0  0  0  0  0
   29.2767  -18.9979  -15.1205 C   0  0  0  0  0  0  0  0  0  0  0  0
   29.1759  -19.5725  -16.2349 O   0  0  0  0  0  0  0  0  0  0  0  0
   29.0615  -19.6778  -13.8261 C   0  0  0  0  0  0  0  0  0  0  0  0
   27.6348  -20.0940  -13.6845 C   0  0  2  0  0  0  0  0  0  0  0  0
   26.6194  -19.1635  -14.0826 N   0  0  0  0  0  0  0  0  0  0  0  0
   27.3110  -20.8287  -12.4733 C   0  0  0  0  0  0  0  0  0  0  0  0
   27.9646  -21.8799  -12.1997 O   0  0  0  0  0  0  0  0  0  0  0  0
   26.3110  -20.4806  -11.5417 N   0  0  0  0  0  0  0  0  0  0  0  0
   25.9555  -21.3048  -10.4135 C   0  0  1  0  0  0  0  0  0  0  0  0
   27.0754  -21.5175   -9.4337 C   0  0  0  0  0  0  0  0  0  0  0  0
   27.0025  -20.4395   -8.4031 C   0  0  0  0  0  0  0  0  0  0  0  0
   26.2666  -19.2785   -8.4737 C   0  0  0  0  0  0  0  0  0  0  0  0
   26.4664  -18.5543   -7.3338 N   0  0  0  0  0  0  0  0  0  0  0  0
   27.3121  -19.2096   -6.5202 C   0  0  0  0  0  0  0  0  0  0  0  0
   27.8255  -18.9069   -5.2684 C   0  0  0  0  0  0  0  0  0  0  0  0
   28.6966  -19.7900   -4.6536 C   0  0  0  0  0  0  0  0  0  0  0  0
   29.0372  -20.9573   -5.3009 C   0  0  0  0  0  0  0  0  0  0  0  0
   28.5100  -21.2461   -6.5617 C   0  0  0  0  0  0  0  0  0  0  0  0
   27.6485  -20.3844   -7.1829 C   0  0  0  0  0  0  0  0  0  0  0  0
   24.7139  -20.8043   -9.8115 C   0  0  0  0  0  0  0  0  0  0  0  0
   24.0478  -21.4529   -8.7642 O   0  0  0  0  0  0  0  0  0  0  0  0
   24.2018  -19.7448  -10.2383 O   0  0  0  0  0  0  0  0  0  0  0  0
  2  3  1  0
  2  1  1  0
  3  4  1  1
  5  3  1  0
  5  6  2  0
  7  8  1  0
  8  9  2  0
 10  8  1  0
 11 10  1  1
 11 12  1  0
 12  5  1  0
 13 11  1  0
 14 13  2  0
 15 13  1  0
 16 17  1  1
 16 15  1  0
 18 17  1  0
 19 18  2  0
 20 21  1  0
 20 19  1  0
 21 26  2  0
 22 21  1  0
 22 23  2  0
 23 24  1  0
 24 25  2  0
 26 18  1  0
 26 25  1  0
 27 16  1  0
 28 27  1  0
 29 27  2  0
M  END
$$$$
