SNW.pdb
     RDKit          3D

 29 30  0  0  1  0  0  0  0  0999 V2000
   29.3138  -19.0953  -17.6968 O   0  0  0  0  0  0  0  0  0  0  0  0
   28.1756  -19.4873  -16.9917 C   0  0  0  0  0  0  0  0  0  0  0  0
   27.3284  -20.2932  -17.9522 C   0  0  2  0  0  0  0  0  0  0  0  0
   26.7534  -19.3102  -18.8762 N   0  0  0  0  0  0  0  0  0  0  0  0
   26.2399  -21.0491  -17.2318 C   0  0  0  0  0  0  0  0  0  0  0  0
   25.1765  -20.4533  -17.0561 O   0  0  0  0  0  0  0  0  0  0  0  0
   23.9363  -26.3828  -16.0413 N   0  0  0  0  0  0  0  0  0  0  0  0
   24.8309  -25.4524  -15.4017 C   0  0  0  0  0  0  0  0  0  0  0  0
   24.6823  -25.3284  -14.1589 O   0  0  0  0  0  0  0  0  0  0  0  0
   25.8401  -24.7085  -16.1840 C   0  0  0  0  0  0  0  0  0  0  0  0
   25.6633  -23.2374  -16.0018 C   0  0  2  0  0  0  0  0  0  0  0  0
   26.4652  -22.3588  -16.8019 N   0  0  0  0  0  0  0  0  0  0  0  0
   25.4972  -22.7889  -14.6296 C   0  0  0  0  0  0  0  0  0  0  0  0
   26.3939  -23.0704  -13.7789 O   0  0  0  0  0  0  0  0  0  0  0  0
   24.4044  -22.0493  -14.1317 N   0  0  0  0  0  0  0  0  0  0  0  0
   24.5274  -21.0452  -13.1044 C   0  0  1  0  0  0  0  0  0  0  0  0
   25.9426  -20.6179  -12.8322 C   0  0  0  0  0  0  0  0  0  0  0  0
   26.1570  -20.6339  -11.3546 C   0  0  0  0  0  0  0  0  0  0  0  0
   25.1929  -20.5165  -10.3794 C   0  0  0  0  0  0  0  0  0  0  0  0
   25.7897  -20.5786   -9.1531 N   0  0  0  0  0  0  0  0  0  0  0  0
   27.1168  -20.7333   -9.2997 C   0  0  0  0  0  0  0  0  0  0  0  0
   28.1499  -20.8489   -8.3823 C   0  0  0  0  0  0  0  0  0  0  0  0
   29.4504  -21.0029   -8.8312 C   0  0  0  0  0  0  0  0  0  0  0  0
   29.6931  -21.0385  -10.1867 C   0  0  0  0  0  0  0  0  0  0  0  0
   28.6399  -20.9208  -11.0966 C   0  0  0  0  0  0  0  0  0  0  0  0
   27.3496  -20.7680  -10.6698 C   0  0  0  0  0  0  0  0  0  0  0  0
   23.6063  -19.9379  -13.3871 C   0  0  0  0  0  0  0  0  0  0  0  0
   22.9562  -19.7694  -14.6160 O   0  0  0  0  0  0  0  0  0  0  0  0
   23.3726  -19.0851  -12.5011 O   0  0  0  0  0  0  0  0  0  0  0  0
  2  3  1  0
  2  1  1  0
  3  4  1  6
  5  3  1  0
  5  6  2  0
  7  8  1  0
  8  9  2  0
 10  8  1  0
 11 10  1  1
 11 12  1  0
 12  5  1  0
 13 11  1  0
 14 13  2  0
 15 13  1  0
 16 17  1  6
 16 15  1  0
 18 17  1  0
 19 18  2  0
 20 21  1  0
 20 19  1  0
 21 26  2  0
 22 21  1  0
 22 23  2  0
 23 24  1  0
 24 25  2  0
 26 18  1  0
 26 25  1  0
 27 16  1  0
 28 27  1  0
 29 27  2  0
M  END
$$$$
