SNW.pdb
     RDKit          3D

 29 30  0  0  1  0  0  0  0  0999 V2000
   19.8524  -11.8168  -14.4513 O   0  0  0  0  0  0  0  0  0  0  0  0
   19.3201  -12.1579  -15.6949 C   0  0  0  0  0  0  0  0  0  0  0  0
   20.2432  -11.5655  -16.7374 C   0  0  2  0  0  0  0  0  0  0  0  0
   21.5665  -12.1242  -16.4418 N   0  0  0  0  0  0  0  0  0  0  0  0
   20.2707  -10.0593  -16.6623 C   0  0  0  0  0  0  0  0  0  0  0  0
   21.3799   -9.5248  -16.6884 O   0  0  0  0  0  0  0  0  0  0  0  0
   16.4230   -6.7518  -19.0710 N   0  0  0  0  0  0  0  0  0  0  0  0
   17.0960   -7.7383  -18.2654 C   0  0  0  0  0  0  0  0  0  0  0  0
   17.3548   -8.8237  -18.8458 O   0  0  0  0  0  0  0  0  0  0  0  0
   17.4402   -7.4613  -16.8552 C   0  0  0  0  0  0  0  0  0  0  0  0
   18.8247   -7.9306  -16.5526 C   0  0  2  0  0  0  0  0  0  0  0  0
   19.0758   -9.3420  -16.5698 N   0  0  0  0  0  0  0  0  0  0  0  0
   19.5059   -7.2295  -15.4775 C   0  0  0  0  0  0  0  0  0  0  0  0
   19.0981   -7.3858  -14.2874 O   0  0  0  0  0  0  0  0  0  0  0  0
   20.6094   -6.3643  -15.6281 N   0  0  0  0  0  0  0  0  0  0  0  0
   21.2719   -5.7221  -14.5202 C   0  0  1  0  0  0  0  0  0  0  0  0
   22.1851   -6.6292  -13.7439 C   0  0  0  0  0  0  0  0  0  0  0  0
   23.3142   -7.0268  -14.6365 C   0  0  0  0  0  0  0  0  0  0  0  0
   23.9195   -6.2495  -15.5977 C   0  0  0  0  0  0  0  0  0  0  0  0
   24.9097   -6.9732  -16.1973 N   0  0  0  0  0  0  0  0  0  0  0  0
   24.9684   -8.2016  -15.6548 C   0  0  0  0  0  0  0  0  0  0  0  0
   25.7842   -9.2943  -15.9052 C   0  0  0  0  0  0  0  0  0  0  0  0
   25.6146  -10.4575  -15.1738 C   0  0  0  0  0  0  0  0  0  0  0  0
   24.6340  -10.5061  -14.2075 C   0  0  0  0  0  0  0  0  0  0  0  0
   23.8214   -9.3954  -13.9687 C   0  0  0  0  0  0  0  0  0  0  0  0
   23.9758   -8.2389  -14.6822 C   0  0  0  0  0  0  0  0  0  0  0  0
   21.9032   -4.4790  -14.9790 C   0  0  0  0  0  0  0  0  0  0  0  0
   22.5584   -3.5847  -14.1234 O   0  0  0  0  0  0  0  0  0  0  0  0
   21.8680   -4.1781  -16.1935 O   0  0  0  0  0  0  0  0  0  0  0  0
  2  3  1  0
  2  1  1  0
  3  4  1  1
  5  3  1  0
  5  6  2  0
  7  8  1  0
  8  9  2  0
 10  8  1  0
 11 10  1  1
 11 12  1  0
 12  5  1  0
 13 11  1  0
 14 13  2  0
 15 13  1  0
 16 17  1  6
 16 15  1  0
 18 17  1  0
 19 18  2  0
 20 21  1  0
 20 19  1  0
 21 26  2  0
 22 21  1  0
 22 23  2  0
 23 24  1  0
 24 25  2  0
 26 18  1  0
 26 25  1  0
 27 16  1  0
 28 27  1  0
 29 27  2  0
M  END
$$$$
