SNW.pdb
     RDKit          3D

 29 30  0  0  1  0  0  0  0  0999 V2000
   27.6541  -23.1572  -18.2188 O   0  0  0  0  0  0  0  0  0  0  0  0
   28.7398  -22.3799  -18.6230 C   0  0  0  0  0  0  0  0  0  0  0  0
   29.7020  -22.3410  -17.4557 C   0  0  2  0  0  0  0  0  0  0  0  0
   30.0807  -23.7384  -17.2224 N   0  0  0  0  0  0  0  0  0  0  0  0
   29.0588  -21.7498  -16.2261 C   0  0  0  0  0  0  0  0  0  0  0  0
   29.2469  -22.3441  -15.1640 O   0  0  0  0  0  0  0  0  0  0  0  0
   27.0909  -17.0134  -13.5492 N   0  0  0  0  0  0  0  0  0  0  0  0
   26.4811  -17.7649  -14.6162 C   0  0  0  0  0  0  0  0  0  0  0  0
   25.2281  -17.8600  -14.5617 O   0  0  0  0  0  0  0  0  0  0  0  0
   27.3029  -18.3723  -15.6837 C   0  0  0  0  0  0  0  0  0  0  0  0
   27.6844  -19.7690  -15.3197 C   0  0  2  0  0  0  0  0  0  0  0  0
   28.2959  -20.5842  -16.3281 N   0  0  0  0  0  0  0  0  0  0  0  0
   26.7317  -20.4851  -14.4884 C   0  0  0  0  0  0  0  0  0  0  0  0
   25.8556  -21.2123  -15.0457 O   0  0  0  0  0  0  0  0  0  0  0  0
   26.6803  -20.4518  -13.0794 N   0  0  0  0  0  0  0  0  0  0  0  0
   25.8446  -21.3259  -12.2945 C   0  0  1  0  0  0  0  0  0  0  0  0
   26.5339  -21.9207  -11.0985 C   0  0  0  0  0  0  0  0  0  0  0  0
   26.3592  -20.9849   -9.9480 C   0  0  0  0  0  0  0  0  0  0  0  0
   25.2235  -20.2780   -9.6244 C   0  0  0  0  0  0  0  0  0  0  0  0
   25.4650  -19.5355   -8.5044 N   0  0  0  0  0  0  0  0  0  0  0  0
   26.7266  -19.7377   -8.0872 C   0  0  0  0  0  0  0  0  0  0  0  0
   27.4483  -19.2306   -7.0175 C   0  0  0  0  0  0  0  0  0  0  0  0
   28.7615  -19.6260   -6.8284 C   0  0  0  0  0  0  0  0  0  0  0  0
   29.3274  -20.5196   -7.7110 C   0  0  0  0  0  0  0  0  0  0  0  0
   28.5852  -21.0203   -8.7830 C   0  0  0  0  0  0  0  0  0  0  0  0
   27.2870  -20.6399   -8.9841 C   0  0  0  0  0  0  0  0  0  0  0  0
   24.5787  -20.6495  -11.9870 C   0  0  0  0  0  0  0  0  0  0  0  0
   23.4109  -21.3283  -11.6172 O   0  0  0  0  0  0  0  0  0  0  0  0
   24.5117  -19.4012  -12.0516 O   0  0  0  0  0  0  0  0  0  0  0  0
  2  3  1  0
  2  1  1  0
  3  4  1  1
  5  3  1  0
  5  6  2  0
  7  8  1  0
  8  9  2  0
 10  8  1  0
 11 10  1  6
 11 12  1  0
 12  5  1  0
 13 11  1  0
 14 13  2  0
 15 13  1  0
 16 17  1  1
 16 15  1  0
 18 17  1  0
 19 18  2  0
 20 21  1  0
 20 19  1  0
 21 26  2  0
 22 21  1  0
 22 23  2  0
 23 24  1  0
 24 25  2  0
 26 18  1  0
 26 25  1  0
 27 16  1  0
 28 27  1  0
 29 27  2  0
M  END
$$$$
