SNW.pdb
     RDKit          3D

 29 30  0  0  1  0  0  0  0  0999 V2000
   23.3649  -28.1048  -17.8681 O   0  0  0  0  0  0  0  0  0  0  0  0
   23.9489  -29.0903  -17.0719 C   0  0  0  0  0  0  0  0  0  0  0  0
   22.8641  -29.5975  -16.1468 C   0  0  2  0  0  0  0  0  0  0  0  0
   21.9552  -30.3654  -17.0041 N   0  0  0  0  0  0  0  0  0  0  0  0
   22.1326  -28.4624  -15.4747 C   0  0  0  0  0  0  0  0  0  0  0  0
   22.7986  -27.7361  -14.7361 O   0  0  0  0  0  0  0  0  0  0  0  0
   16.4800  -27.4899  -16.3413 N   0  0  0  0  0  0  0  0  0  0  0  0
   17.8805  -27.7127  -16.5941 C   0  0  0  0  0  0  0  0  0  0  0  0
   18.1630  -28.8131  -17.1340 O   0  0  0  0  0  0  0  0  0  0  0  0
   18.8897  -26.6974  -16.2275 C   0  0  0  0  0  0  0  0  0  0  0  0
   19.8662  -27.2598  -15.2482 C   0  0  2  0  0  0  0  0  0  0  0  0
   20.7675  -28.2768  -15.7050 N   0  0  0  0  0  0  0  0  0  0  0  0
   19.3509  -27.4945  -13.9100 C   0  0  0  0  0  0  0  0  0  0  0  0
   19.3058  -28.6822  -13.4690 O   0  0  0  0  0  0  0  0  0  0  0  0
   18.8798  -26.5038  -13.0236 N   0  0  0  0  0  0  0  0  0  0  0  0
   18.4674  -26.7806  -11.6701 C   0  0  1  0  0  0  0  0  0  0  0  0
   19.5850  -26.7273  -10.6665 C   0  0  0  0  0  0  0  0  0  0  0  0
   19.1596  -25.8396   -9.5436 C   0  0  0  0  0  0  0  0  0  0  0  0
   19.1464  -24.4633   -9.5391 C   0  0  0  0  0  0  0  0  0  0  0  0
   18.6916  -24.0262   -8.3283 N   0  0  0  0  0  0  0  0  0  0  0  0
   18.4070  -25.0783   -7.5417 C   0  0  0  0  0  0  0  0  0  0  0  0
   17.9235  -25.1707   -6.2456 C   0  0  0  0  0  0  0  0  0  0  0  0
   17.7213  -26.4168   -5.6773 C   0  0  0  0  0  0  0  0  0  0  0  0
   18.0058  -27.5451   -6.4145 C   0  0  0  0  0  0  0  0  0  0  0  0
   18.4920  -27.4331   -7.7191 C   0  0  0  0  0  0  0  0  0  0  0  0
   18.6975  -26.2099   -8.2952 C   0  0  0  0  0  0  0  0  0  0  0  0
   17.3095  -25.9455  -11.3290 C   0  0  0  0  0  0  0  0  0  0  0  0
   16.2717  -26.3705  -10.4903 O   0  0  0  0  0  0  0  0  0  0  0  0
   17.2199  -24.7890  -11.7995 O   0  0  0  0  0  0  0  0  0  0  0  0
  2  3  1  0
  2  1  1  0
  3  4  1  6
  5  3  1  0
  5  6  2  0
  7  8  1  0
  8  9  2  0
 10  8  1  0
 11 10  1  6
 11 12  1  0
 12  5  1  0
 13 11  1  0
 14 13  2  0
 15 13  1  0
 16 17  1  1
 16 15  1  0
 18 17  1  0
 19 18  2  0
 20 21  1  0
 20 19  1  0
 21 26  2  0
 22 21  1  0
 22 23  2  0
 23 24  1  0
 24 25  2  0
 26 18  1  0
 26 25  1  0
 27 16  1  0
 28 27  1  0
 29 27  2  0
M  END
$$$$
