SNW.pdb
     RDKit          3D

 29 30  0  0  1  0  0  0  0  0999 V2000
   22.2999  -22.2527  -16.7242 O   0  0  0  0  0  0  0  0  0  0  0  0
   22.0713  -21.5262  -15.5553 C   0  0  0  0  0  0  0  0  0  0  0  0
   23.3884  -20.8810  -15.1829 C   0  0  2  0  0  0  0  0  0  0  0  0
   24.3540  -21.9832  -15.1240 N   0  0  0  0  0  0  0  0  0  0  0  0
   23.3035  -20.1740  -13.8532 C   0  0  0  0  0  0  0  0  0  0  0  0
   23.4255  -18.9486  -13.8700 O   0  0  0  0  0  0  0  0  0  0  0  0
   21.5798  -19.2775   -9.1855 N   0  0  0  0  0  0  0  0  0  0  0  0
   21.3162  -20.6788   -9.3904 C   0  0  0  0  0  0  0  0  0  0  0  0
   20.5475  -21.2119   -8.5497 O   0  0  0  0  0  0  0  0  0  0  0  0
   21.9275  -21.4096  -10.5201 C   0  0  0  0  0  0  0  0  0  0  0  0
   22.7493  -20.4863  -11.3573 C   0  0  2  0  0  0  0  0  0  0  0  0
   23.0948  -20.9079  -12.6833 N   0  0  0  0  0  0  0  0  0  0  0  0
   23.8254  -19.7985  -10.6643 C   0  0  0  0  0  0  0  0  0  0  0  0
   23.6065  -19.3216   -9.5104 O   0  0  0  0  0  0  0  0  0  0  0  0
   25.1304  -19.6002  -11.1612 N   0  0  0  0  0  0  0  0  0  0  0  0
   26.2992  -20.2261  -10.5948 C   0  0  1  0  0  0  0  0  0  0  0  0
   26.1219  -20.6812   -9.1733 C   0  0  0  0  0  0  0  0  0  0  0  0
   27.3236  -20.2558   -8.3957 C   0  0  0  0  0  0  0  0  0  0  0  0
   28.5446  -19.8765   -8.9053 C   0  0  0  0  0  0  0  0  0  0  0  0
   29.3797  -19.5605   -7.8725 N   0  0  0  0  0  0  0  0  0  0  0  0
   28.7385  -19.7226   -6.7023 C   0  0  0  0  0  0  0  0  0  0  0  0
   29.1358  -19.5374   -5.3870 C   0  0  0  0  0  0  0  0  0  0  0  0
   28.2419  -19.7875   -4.3599 C   0  0  0  0  0  0  0  0  0  0  0  0
   26.9697  -20.2175   -4.6668 C   0  0  0  0  0  0  0  0  0  0  0  0
   26.5866  -20.3984   -5.9977 C   0  0  0  0  0  0  0  0  0  0  0  0
   27.4574  -20.1560   -7.0241 C   0  0  0  0  0  0  0  0  0  0  0  0
   26.7883  -21.2681  -11.5056 C   0  0  0  0  0  0  0  0  0  0  0  0
   28.1462  -21.4901  -11.7663 O   0  0  0  0  0  0  0  0  0  0  0  0
   25.9700  -22.0108  -12.0935 O   0  0  0  0  0  0  0  0  0  0  0  0
  2  3  1  0
  2  1  1  0
  3  4  1  1
  5  3  1  0
  5  6  2  0
  7  8  1  0
  8  9  2  0
 10  8  1  0
 11 10  1  1
 11 12  1  0
 12  5  1  0
 13 11  1  0
 14 13  2  0
 15 13  1  0
 16 17  1  1
 16 15  1  0
 18 17  1  0
 19 18  2  0
 20 21  1  0
 20 19  1  0
 21 26  2  0
 22 21  1  0
 22 23  2  0
 23 24  1  0
 24 25  2  0
 26 18  1  0
 26 25  1  0
 27 16  1  0
 28 27  1  0
 29 27  2  0
M  END
$$$$
