SNW.pdb
     RDKit          3D

 29 30  0  0  1  0  0  0  0  0999 V2000
   26.2402  -30.2488  -17.5199 O   0  0  0  0  0  0  0  0  0  0  0  0
   25.4030  -30.5519  -18.5939 C   0  0  0  0  0  0  0  0  0  0  0  0
   25.2530  -29.2787  -19.3977 C   0  0  2  0  0  0  0  0  0  0  0  0
   26.5438  -29.0926  -20.0686 N   0  0  0  0  0  0  0  0  0  0  0  0
   24.9358  -28.0985  -18.5136 C   0  0  0  0  0  0  0  0  0  0  0  0
   23.9030  -28.1694  -17.8465 O   0  0  0  0  0  0  0  0  0  0  0  0
   29.0139  -26.6935  -16.6054 N   0  0  0  0  0  0  0  0  0  0  0  0
   27.6493  -26.3186  -16.3365 C   0  0  0  0  0  0  0  0  0  0  0  0
   27.0879  -26.9547  -15.4079 O   0  0  0  0  0  0  0  0  0  0  0  0
   26.9844  -25.2570  -17.1206 C   0  0  0  0  0  0  0  0  0  0  0  0
   25.7279  -25.7730  -17.7400 C   0  0  2  0  0  0  0  0  0  0  0  0
   25.7964  -26.9989  -18.4800 N   0  0  0  0  0  0  0  0  0  0  0  0
   24.8687  -24.7712  -18.3479 C   0  0  0  0  0  0  0  0  0  0  0  0
   25.0817  -24.4271  -19.5493 O   0  0  0  0  0  0  0  0  0  0  0  0
   23.7877  -24.1212  -17.7171 N   0  0  0  0  0  0  0  0  0  0  0  0
   22.8753  -23.2448  -18.4085 C   0  0  1  0  0  0  0  0  0  0  0  0
   22.2145  -23.8698  -19.6052 C   0  0  0  0  0  0  0  0  0  0  0  0
   21.3917  -22.8231  -20.2814 C   0  0  0  0  0  0  0  0  0  0  0  0
   21.8556  -21.7539  -21.0135 C   0  0  0  0  0  0  0  0  0  0  0  0
   20.7913  -21.0289  -21.4667 N   0  0  0  0  0  0  0  0  0  0  0  0
   19.6449  -21.5945  -21.0514 C   0  0  0  0  0  0  0  0  0  0  0  0
   18.3143  -21.2536  -21.2399 C   0  0  0  0  0  0  0  0  0  0  0  0
   17.3204  -22.0396  -20.6822 C   0  0  0  0  0  0  0  0  0  0  0  0
   17.6750  -23.1498  -19.9479 C   0  0  0  0  0  0  0  0  0  0  0  0
   19.0207  -23.4782  -19.7685 C   0  0  0  0  0  0  0  0  0  0  0  0
   20.0147  -22.7125  -20.3125 C   0  0  0  0  0  0  0  0  0  0  0  0
   21.9411  -22.6496  -17.4455 C   0  0  0  0  0  0  0  0  0  0  0  0
   21.4706  -21.3338  -17.5387 O   0  0  0  0  0  0  0  0  0  0  0  0
   21.5281  -23.3316  -16.4805 O   0  0  0  0  0  0  0  0  0  0  0  0
  2  3  1  0
  2  1  1  0
  3  4  1  1
  5  3  1  0
  5  6  2  0
  7  8  1  0
  8  9  2  0
 10  8  1  0
 11 10  1  6
 11 12  1  0
 12  5  1  0
 13 11  1  0
 14 13  2  0
 15 13  1  0
 16 17  1  6
 16 15  1  0
 18 17  1  0
 19 18  2  0
 20 21  1  0
 20 19  1  0
 21 26  2  0
 22 21  1  0
 22 23  2  0
 23 24  1  0
 24 25  2  0
 26 18  1  0
 26 25  1  0
 27 16  1  0
 28 27  1  0
 29 27  2  0
M  END
$$$$
