SNW.pdb
     RDKit          3D

 29 30  0  0  1  0  0  0  0  0999 V2000
   19.8986  -30.5816  -13.2570 O   0  0  0  0  0  0  0  0  0  0  0  0
   18.9671  -29.5651  -13.0440 C   0  0  0  0  0  0  0  0  0  0  0  0
   17.8784  -30.1523  -12.1723 C   0  0  2  0  0  0  0  0  0  0  0  0
   17.1850  -31.1238  -13.0244 N   0  0  0  0  0  0  0  0  0  0  0  0
   16.9233  -29.0905  -11.6869 C   0  0  0  0  0  0  0  0  0  0  0  0
   16.8830  -28.0448  -12.3363 O   0  0  0  0  0  0  0  0  0  0  0  0
   16.8084  -31.8477   -7.7423 N   0  0  0  0  0  0  0  0  0  0  0  0
   16.5794  -30.4517   -7.4707 C   0  0  0  0  0  0  0  0  0  0  0  0
   15.8081  -30.2088   -6.5073 O   0  0  0  0  0  0  0  0  0  0  0  0
   17.2205  -29.4029   -8.2911 C   0  0  0  0  0  0  0  0  0  0  0  0
   16.2296  -28.7901   -9.2247 C   0  0  2  0  0  0  0  0  0  0  0  0
   16.1399  -29.3202  -10.5537 N   0  0  0  0  0  0  0  0  0  0  0  0
   16.1208  -27.3424   -9.1649 C   0  0  0  0  0  0  0  0  0  0  0  0
   15.0876  -26.8254   -8.6431 O   0  0  0  0  0  0  0  0  0  0  0  0
   17.0779  -26.4242   -9.6445 N   0  0  0  0  0  0  0  0  0  0  0  0
   16.9492  -24.9954   -9.5009 C   0  0  1  0  0  0  0  0  0  0  0  0
   18.2586  -24.2576   -9.5219 C   0  0  0  0  0  0  0  0  0  0  0  0
   18.9313  -24.5413  -10.8245 C   0  0  0  0  0  0  0  0  0  0  0  0
   18.7461  -23.8708  -12.0122 C   0  0  0  0  0  0  0  0  0  0  0  0
   19.5429  -24.4309  -12.9689 N   0  0  0  0  0  0  0  0  0  0  0  0
   20.2436  -25.4485  -12.4395 C   0  0  0  0  0  0  0  0  0  0  0  0
   21.1744  -26.3218  -12.9810 C   0  0  0  0  0  0  0  0  0  0  0  0
   21.7478  -27.2945  -12.1799 C   0  0  0  0  0  0  0  0  0  0  0  0
   21.3803  -27.3755  -10.8547 C   0  0  0  0  0  0  0  0  0  0  0  0
   20.4410  -26.4870  -10.3262 C   0  0  0  0  0  0  0  0  0  0  0  0
   19.8651  -25.5206  -11.1038 C   0  0  0  0  0  0  0  0  0  0  0  0
   15.9578  -24.4928  -10.4596 C   0  0  0  0  0  0  0  0  0  0  0  0
   15.4179  -23.2017  -10.4060 O   0  0  0  0  0  0  0  0  0  0  0  0
   15.5562  -25.2367  -11.3827 O   0  0  0  0  0  0  0  0  0  0  0  0
  2  3  1  0
  2  1  1  0
  3  4  1  6
  5  3  1  0
  5  6  2  0
  7  8  1  0
  8  9  2  0
 10  8  1  0
 11 10  1  6
 11 12  1  0
 12  5  1  0
 13 11  1  0
 14 13  2  0
 15 13  1  0
 16 17  1  6
 16 15  1  0
 18 17  1  0
 19 18  2  0
 20 21  1  0
 20 19  1  0
 21 26  2  0
 22 21  1  0
 22 23  2  0
 23 24  1  0
 24 25  2  0
 26 18  1  0
 26 25  1  0
 27 16  1  0
 28 27  1  0
 29 27  2  0
M  END
$$$$
