SNW.pdb
     RDKit          3D

 29 30  0  0  1  0  0  0  0  0999 V2000
   20.6066   -9.9035  -19.7294 O   0  0  0  0  0  0  0  0  0  0  0  0
   21.9265  -10.0815  -19.3141 C   0  0  0  0  0  0  0  0  0  0  0  0
   21.8671  -10.5719  -17.8838 C   0  0  2  0  0  0  0  0  0  0  0  0
   21.0652  -11.7989  -17.9305 N   0  0  0  0  0  0  0  0  0  0  0  0
   21.2297   -9.5519  -16.9736 C   0  0  0  0  0  0  0  0  0  0  0  0
   20.0680   -9.7694  -16.6274 O   0  0  0  0  0  0  0  0  0  0  0  0
   20.4705   -5.3911  -14.1306 N   0  0  0  0  0  0  0  0  0  0  0  0
   21.8700   -5.6954  -13.9757 C   0  0  0  0  0  0  0  0  0  0  0  0
   22.4795   -5.0090  -13.1158 O   0  0  0  0  0  0  0  0  0  0  0  0
   22.5138   -6.7464  -14.7911 C   0  0  0  0  0  0  0  0  0  0  0  0
   21.5585   -7.2792  -15.8071 C   0  0  2  0  0  0  0  0  0  0  0  0
   21.9544   -8.4300  -16.5649 N   0  0  0  0  0  0  0  0  0  0  0  0
   20.8504   -6.2803  -16.5895 C   0  0  0  0  0  0  0  0  0  0  0  0
   21.4510   -5.7157  -17.5526 O   0  0  0  0  0  0  0  0  0  0  0  0
   19.5204   -5.8607  -16.3793 N   0  0  0  0  0  0  0  0  0  0  0  0
   18.8613   -4.8718  -17.1956 C   0  0  1  0  0  0  0  0  0  0  0  0
   17.4514   -5.2307  -17.5733 C   0  0  0  0  0  0  0  0  0  0  0  0
   17.4827   -6.5337  -18.3021 C   0  0  0  0  0  0  0  0  0  0  0  0
   18.3019   -6.8707  -19.3555 C   0  0  0  0  0  0  0  0  0  0  0  0
   18.0256   -8.1502  -19.7432 N   0  0  0  0  0  0  0  0  0  0  0  0
   17.0488   -8.6588  -18.9724 C   0  0  0  0  0  0  0  0  0  0  0  0
   16.4192   -9.8939  -18.9579 C   0  0  0  0  0  0  0  0  0  0  0  0
   15.4239  -10.1443  -18.0288 C   0  0  0  0  0  0  0  0  0  0  0  0
   15.0774   -9.1567  -17.1332 C   0  0  0  0  0  0  0  0  0  0  0  0
   15.7227   -7.9182  -17.1623 C   0  0  0  0  0  0  0  0  0  0  0  0
   16.7077   -7.6546  -18.0736 C   0  0  0  0  0  0  0  0  0  0  0  0
   19.0017   -3.5494  -16.5744 C   0  0  0  0  0  0  0  0  0  0  0  0
   18.6326   -2.3561  -17.2077 O   0  0  0  0  0  0  0  0  0  0  0  0
   19.4739   -3.4548  -15.4190 O   0  0  0  0  0  0  0  0  0  0  0  0
  2  3  1  0
  2  1  1  0
  3  4  1  6
  5  3  1  0
  5  6  2  0
  7  8  1  0
  8  9  2  0
 10  8  1  0
 11 10  1  6
 11 12  1  0
 12  5  1  0
 13 11  1  0
 14 13  2  0
 15 13  1  0
 16 17  1  1
 16 15  1  0
 18 17  1  0
 19 18  2  0
 20 21  1  0
 20 19  1  0
 21 26  2  0
 22 21  1  0
 22 23  2  0
 23 24  1  0
 24 25  2  0
 26 18  1  0
 26 25  1  0
 27 16  1  0
 28 27  1  0
 29 27  2  0
M  END
$$$$
