SNW.pdb
     RDKit          3D

 29 30  0  0  1  0  0  0  0  0999 V2000
   34.4746  -29.4066  -20.6277 O   0  0  0  0  0  0  0  0  0  0  0  0
   33.3239  -29.1253  -19.8908 C   0  0  0  0  0  0  0  0  0  0  0  0
   33.6884  -29.3079  -18.4336 C   0  0  2  0  0  0  0  0  0  0  0  0
   33.7653  -30.7589  -18.2350 N   0  0  0  0  0  0  0  0  0  0  0  0
   32.6526  -28.6984  -17.5220 C   0  0  0  0  0  0  0  0  0  0  0  0
   31.9209  -29.4815  -16.9154 O   0  0  0  0  0  0  0  0  0  0  0  0
   33.1191  -25.5022  -13.9071 N   0  0  0  0  0  0  0  0  0  0  0  0
   33.2771  -25.2919  -15.3234 C   0  0  0  0  0  0  0  0  0  0  0  0
   34.4656  -25.2366  -15.7314 O   0  0  0  0  0  0  0  0  0  0  0  0
   32.1007  -25.1511  -16.2066 C   0  0  0  0  0  0  0  0  0  0  0  0
   31.6341  -26.4899  -16.6741 C   0  0  2  0  0  0  0  0  0  0  0  0
   32.5603  -27.3103  -17.3983 N   0  0  0  0  0  0  0  0  0  0  0  0
   30.2796  -26.5365  -17.1980 C   0  0  0  0  0  0  0  0  0  0  0  0
   30.1074  -26.5601  -18.4537 O   0  0  0  0  0  0  0  0  0  0  0  0
   29.0989  -26.5578  -16.4269 N   0  0  0  0  0  0  0  0  0  0  0  0
   27.7841  -26.7306  -16.9926 C   0  0  1  0  0  0  0  0  0  0  0  0
   27.0420  -27.9257  -16.4631 C   0  0  0  0  0  0  0  0  0  0  0  0
   25.6851  -27.9440  -17.0863 C   0  0  0  0  0  0  0  0  0  0  0  0
   24.9479  -26.8543  -17.4906 C   0  0  0  0  0  0  0  0  0  0  0  0
   23.7620  -27.2869  -18.0107 N   0  0  0  0  0  0  0  0  0  0  0  0
   23.7039  -28.6288  -17.9577 C   0  0  0  0  0  0  0  0  0  0  0  0
   22.7333  -29.5370  -18.3517 C   0  0  0  0  0  0  0  0  0  0  0  0
   22.9504  -30.8924  -18.1718 C   0  0  0  0  0  0  0  0  0  0  0  0
   24.1320  -31.3134  -17.6024 C   0  0  0  0  0  0  0  0  0  0  0  0
   25.0988  -30.3841  -17.2117 C   0  0  0  0  0  0  0  0  0  0  0  0
   24.9000  -29.0418  -17.3822 C   0  0  0  0  0  0  0  0  0  0  0  0
   27.0400  -25.4687  -16.9006 C   0  0  0  0  0  0  0  0  0  0  0  0
   26.1399  -25.0303  -17.8798 O   0  0  0  0  0  0  0  0  0  0  0  0
   27.2003  -24.7263  -15.9056 O   0  0  0  0  0  0  0  0  0  0  0  0
  2  3  1  0
  2  1  1  0
  3  4  1  1
  5  3  1  0
  5  6  2  0
  7  8  1  0
  8  9  2  0
 10  8  1  0
 11 10  1  6
 11 12  1  0
 12  5  1  0
 13 11  1  0
 14 13  2  0
 15 13  1  0
 16 17  1  1
 16 15  1  0
 18 17  1  0
 19 18  2  0
 20 21  1  0
 20 19  1  0
 21 26  2  0
 22 21  1  0
 22 23  2  0
 23 24  1  0
 24 25  2  0
 26 18  1  0
 26 25  1  0
 27 16  1  0
 28 27  1  0
 29 27  2  0
M  END
$$$$
