LRI.pdb
     RDKit          3D

 28 27  0  0  1  0  0  0  0  0999 V2000
   17.4221  -17.7190  -14.7742 C   0  0  0  0  0  0  0  0  0  0  0  0
   17.5804  -19.2210  -15.0265 C   0  0  1  0  0  0  0  0  0  0  0  0
   17.7759  -19.5333  -16.4735 C   0  0  0  0  0  0  0  0  0  0  0  0
   18.7029  -19.7558  -14.1611 C   0  0  0  0  0  0  0  0  0  0  0  0
   18.9080  -21.2097  -14.5235 C   0  0  2  0  0  0  0  0  0  0  0  0
   17.9512  -22.0044  -13.7749 N   0  0  0  0  0  0  0  0  0  0  0  0
   20.2627  -21.6857  -14.1841 C   0  0  0  0  0  0  0  0  0  0  0  0
   20.5059  -22.2456  -13.0849 O   0  0  0  0  0  0  0  0  0  0  0  0
   27.2803  -24.5394  -18.8004 N   0  0  0  0  0  0  0  0  0  0  0  0
   27.7609  -24.5650  -17.4510 C   0  0  0  0  0  0  0  0  0  0  0  0
   28.9530  -25.0012  -17.2073 N   0  0  0  0  0  0  0  0  0  0  0  0
   26.8928  -24.1035  -16.4281 N   0  0  0  0  0  0  0  0  0  0  0  0
   25.5458  -23.6837  -16.8480 C   0  0  0  0  0  0  0  0  0  0  0  0
   24.7975  -23.2082  -15.6468 C   0  0  0  0  0  0  0  0  0  0  0  0
   23.4246  -22.6917  -15.9235 C   0  0  0  0  0  0  0  0  0  0  0  0
   22.6663  -22.1116  -14.7939 C   0  0  2  0  0  0  0  0  0  0  0  0
   21.3904  -21.5488  -15.0677 N   0  0  0  0  0  0  0  0  0  0  0  0
   23.5222  -21.0893  -14.0728 C   0  0  0  0  0  0  0  0  0  0  0  0
   23.5086  -19.9148  -14.4997 O   0  0  0  0  0  0  0  0  0  0  0  0
   29.3161  -25.0075  -16.2415 C   0  0  0  0  0  0  0  0  0  0  0  0
   25.9051  -20.0555   -8.5770 C   0  0  0  0  0  0  0  0  0  0  0  0
   25.9112  -19.7976  -10.0338 C   0  0  2  0  0  0  0  0  0  0  0  0
   25.2783  -20.7539  -10.9505 C   0  0  0  0  0  0  0  0  0  0  0  0
   25.8674  -22.1610  -10.8099 C   0  0  2  0  0  0  0  0  0  0  0  0
   25.2230  -20.4414  -12.3921 N   0  0  0  0  0  0  0  0  0  0  0  0
   24.2892  -21.4438  -12.9829 C   0  0  0  0  0  0  0  0  0  0  0  0
   26.4818  -20.5062  -13.1409 O   0  0  0  0  0  0  0  0  0  0  0  0
   27.3271  -19.5282  -13.0913 O   0  0  0  0  0  0  0  0  0  0  0  0
  2  4  1  0
  2  1  1  6
  3  2  1  0
  5  4  1  0
  5  6  1  1
  7  5  1  0
  7  8  2  0
  9 10  1  0
 10 12  1  0
 10 11  2  0
 12 13  1  0
 13 14  1  0
 16 15  1  6
 15 14  1  0
 17 16  1  0
 17  7  1  0
 18 16  1  0
 19 18  2  0
 20 21  1  0
 21 22  1  0
 22 24  1  0
 22 23  1  6
 24 26  1  0
 24 25  1  6
 25 18  1  0
 26 28  1  0
 27 26  2  0
M  END
$$$$
