LRI.pdb
     RDKit          3D

 28 27  0  0  1  0  0  0  0  0999 V2000
   15.9386  -22.2020  -13.0446 C   0  0  0  0  0  0  0  0  0  0  0  0
   17.0520  -21.2429  -13.4743 C   0  0  1  0  0  0  0  0  0  0  0  0
   16.9034  -19.8916  -12.8567 C   0  0  0  0  0  0  0  0  0  0  0  0
   18.3963  -21.8733  -13.1732 C   0  0  0  0  0  0  0  0  0  0  0  0
   19.4627  -20.8438  -13.4729 C   0  0  2  0  0  0  0  0  0  0  0  0
   19.4160  -20.5403  -14.8918 N   0  0  0  0  0  0  0  0  0  0  0  0
   20.8180  -21.3323  -13.1541 C   0  0  0  0  0  0  0  0  0  0  0  0
   21.1615  -21.5917  -11.9728 O   0  0  0  0  0  0  0  0  0  0  0  0
   26.3155  -25.2776  -15.7183 N   0  0  0  0  0  0  0  0  0  0  0  0
   25.2414  -26.1117  -16.1687 C   0  0  0  0  0  0  0  0  0  0  0  0
   25.2128  -27.3567  -15.8221 N   0  0  0  0  0  0  0  0  0  0  0  0
   24.2427  -25.5241  -16.9875 N   0  0  0  0  0  0  0  0  0  0  0  0
   24.1960  -24.0531  -17.0148 C   0  0  0  0  0  0  0  0  0  0  0  0
   23.3094  -23.5827  -15.9095 C   0  0  0  0  0  0  0  0  0  0  0  0
   23.9297  -22.5898  -14.9835 C   0  0  0  0  0  0  0  0  0  0  0  0
   23.1108  -22.0943  -13.8559 C   0  0  2  0  0  0  0  0  0  0  0  0
   21.8335  -21.5458  -14.1512 N   0  0  0  0  0  0  0  0  0  0  0  0
   23.9100  -21.0967  -13.0413 C   0  0  0  0  0  0  0  0  0  0  0  0
   23.7747  -19.8841  -13.3118 O   0  0  0  0  0  0  0  0  0  0  0  0
   24.5078  -27.9921  -16.2267 C   0  0  0  0  0  0  0  0  0  0  0  0
   26.6881  -20.3809   -7.6884 C   0  0  0  0  0  0  0  0  0  0  0  0
   26.5951  -20.0400   -9.1250 C   0  0  2  0  0  0  0  0  0  0  0  0
   25.9099  -20.9498  -10.0516 C   0  0  0  0  0  0  0  0  0  0  0  0
   26.5335  -22.3490  -10.0497 C   0  0  2  0  0  0  0  0  0  0  0  0
   25.7367  -20.5464  -11.4609 N   0  0  0  0  0  0  0  0  0  0  0  0
   24.7570  -21.5136  -12.0359 C   0  0  0  0  0  0  0  0  0  0  0  0
   26.9299  -20.5577  -12.3130 O   0  0  0  0  0  0  0  0  0  0  0  0
   27.6790  -19.5074  -12.4087 O   0  0  0  0  0  0  0  0  0  0  0  0
  2  4  1  0
  2  1  1  1
  3  2  1  0
  5  4  1  0
  5  6  1  6
  7  5  1  0
  7  8  2  0
  9 10  1  0
 10 12  1  0
 10 11  2  0
 12 13  1  0
 13 14  1  0
 16 15  1  6
 15 14  1  0
 17 16  1  0
 17  7  1  0
 18 16  1  0
 19 18  2  0
 20 21  1  0
 21 22  1  0
 22 24  1  0
 22 23  1  1
 24 26  1  0
 24 25  1  6
 25 18  1  0
 26 28  1  0
 27 26  2  0
M  END
$$$$
