LRI.pdb
     RDKit          3D

 28 27  0  0  1  0  0  0  0  0999 V2000
   26.6197  -13.0949  -16.4761 C   0  0  0  0  0  0  0  0  0  0  0  0
   25.1130  -13.3375  -16.6012 C   0  0  1  0  0  0  0  0  0  0  0  0
   24.5840  -14.1891  -15.4946 C   0  0  0  0  0  0  0  0  0  0  0  0
   24.4002  -12.0043  -16.6982 C   0  0  0  0  0  0  0  0  0  0  0  0
   22.9272  -12.2853  -16.8935 C   0  0  2  0  0  0  0  0  0  0  0  0
   22.7568  -12.9519  -18.1719 N   0  0  0  0  0  0  0  0  0  0  0  0
   22.1190  -11.0510  -16.9101 C   0  0  0  0  0  0  0  0  0  0  0  0
   22.2348  -10.2025  -17.8306 O   0  0  0  0  0  0  0  0  0  0  0  0
   14.0359   -9.2438  -14.6479 N   0  0  0  0  0  0  0  0  0  0  0  0
   14.5867   -9.6116  -15.9182 C   0  0  0  0  0  0  0  0  0  0  0  0
   13.8391  -10.2065  -16.7889 N   0  0  0  0  0  0  0  0  0  0  0  0
   15.9488   -9.3012  -16.1664 N   0  0  0  0  0  0  0  0  0  0  0  0
   16.6843   -8.6468  -15.0721 C   0  0  0  0  0  0  0  0  0  0  0  0
   18.1000   -8.4454  -15.5016 C   0  0  0  0  0  0  0  0  0  0  0  0
   18.9127   -9.6937  -15.5979 C   0  0  0  0  0  0  0  0  0  0  0  0
   20.3478   -9.5575  -15.9289 C   0  0  2  0  0  0  0  0  0  0  0  0
   21.1533  -10.7277  -15.8932 N   0  0  0  0  0  0  0  0  0  0  0  0
   20.9759   -8.4882  -15.0573 C   0  0  0  0  0  0  0  0  0  0  0  0
   21.4213   -8.8348  -13.9422 O   0  0  0  0  0  0  0  0  0  0  0  0
   14.2196  -10.4581  -17.7143 C   0  0  0  0  0  0  0  0  0  0  0  0
   23.9894   -4.9190  -17.6364 C   0  0  0  0  0  0  0  0  0  0  0  0
   23.4465   -5.7937  -16.5739 C   0  0  2  0  0  0  0  0  0  0  0  0
   22.4428   -5.2731  -15.6373 C   0  0  0  0  0  0  0  0  0  0  0  0
   22.9600   -4.0618  -14.8551 C   0  0  2  0  0  0  0  0  0  0  0  0
   21.8199   -6.1924  -14.6647 N   0  0  0  0  0  0  0  0  0  0  0  0
   21.0531   -7.1781  -15.4809 C   0  0  0  0  0  0  0  0  0  0  0  0
   20.8982   -5.6084  -13.6854 O   0  0  0  0  0  0  0  0  0  0  0  0
   19.6711   -5.3553  -14.0075 O   0  0  0  0  0  0  0  0  0  0  0  0
  2  4  1  0
  2  1  1  1
  3  2  1  0
  5  4  1  0
  5  6  1  6
  7  5  1  0
  7  8  2  0
  9 10  1  0
 10 12  1  0
 10 11  2  0
 12 13  1  0
 13 14  1  0
 16 15  1  1
 15 14  1  0
 17 16  1  0
 17  7  1  0
 18 16  1  0
 19 18  2  0
 20 21  1  0
 21 22  1  0
 22 24  1  0
 22 23  1  6
 24 26  1  0
 24 25  1  1
 25 18  1  0
 26 28  1  0
 27 26  2  0
M  END
$$$$
