LRI.pdb
     RDKit          3D

 28 27  0  0  1  0  0  0  0  0999 V2000
   28.0020  -17.2764  -17.3845 C   0  0  0  0  0  0  0  0  0  0  0  0
   28.3997  -18.3118  -16.3289 C   0  0  1  0  0  0  0  0  0  0  0  0
   29.8766  -18.5251  -16.2750 C   0  0  0  0  0  0  0  0  0  0  0  0
   27.8236  -17.9032  -14.9887 C   0  0  0  0  0  0  0  0  0  0  0  0
   28.2337  -18.9486  -13.9757 C   0  0  2  0  0  0  0  0  0  0  0  0
   28.4015  -20.2129  -14.6692 N   0  0  0  0  0  0  0  0  0  0  0  0
   27.2180  -19.1362  -12.9221 C   0  0  0  0  0  0  0  0  0  0  0  0
   26.7424  -18.1607  -12.2872 O   0  0  0  0  0  0  0  0  0  0  0  0
   21.0194  -24.2647  -14.3838 N   0  0  0  0  0  0  0  0  0  0  0  0
   22.3859  -24.6319  -14.1596 C   0  0  0  0  0  0  0  0  0  0  0  0
   22.7578  -25.8542  -14.3558 N   0  0  0  0  0  0  0  0  0  0  0  0
   23.2823  -23.6213  -13.7258 N   0  0  0  0  0  0  0  0  0  0  0  0
   22.7405  -22.2556  -13.6358 C   0  0  0  0  0  0  0  0  0  0  0  0
   23.8620  -21.3153  -13.3406 C   0  0  0  0  0  0  0  0  0  0  0  0
   24.5385  -21.5338  -12.0281 C   0  0  0  0  0  0  0  0  0  0  0  0
   25.6166  -20.5968  -11.6444 C   0  0  2  0  0  0  0  0  0  0  0  0
   26.7021  -20.4258  -12.5455 N   0  0  0  0  0  0  0  0  0  0  0  0
   26.1530  -20.9651  -10.2754 C   0  0  0  0  0  0  0  0  0  0  0  0
   26.9304  -21.9407  -10.1988 O   0  0  0  0  0  0  0  0  0  0  0  0
   23.7323  -26.1366  -14.1685 C   0  0  0  0  0  0  0  0  0  0  0  0
   28.6403  -18.1886   -6.7129 C   0  0  0  0  0  0  0  0  0  0  0  0
   27.9914  -19.2962   -7.4484 C   0  0  2  0  0  0  0  0  0  0  0  0
   26.6844  -19.8012   -7.0097 C   0  0  0  0  0  0  0  0  0  0  0  0
   26.7119  -20.2792   -5.5546 C   0  0  2  0  0  0  0  0  0  0  0  0
   26.0128  -20.8479   -7.8048 N   0  0  0  0  0  0  0  0  0  0  0  0
   25.7953  -20.2477   -9.1533 C   0  0  0  0  0  0  0  0  0  0  0  0
   24.7183  -21.3335   -7.3167 O   0  0  0  0  0  0  0  0  0  0  0  0
   23.6195  -20.7588   -7.6853 O   0  0  0  0  0  0  0  0  0  0  0  0
  2  4  1  0
  2  1  1  6
  3  2  1  0
  5  4  1  0
  5  6  1  6
  7  5  1  0
  7  8  2  0
  9 10  1  0
 10 12  1  0
 10 11  2  0
 12 13  1  0
 13 14  1  0
 16 15  1  6
 15 14  1  0
 17 16  1  0
 17  7  1  0
 18 16  1  0
 19 18  2  0
 20 21  1  0
 21 22  1  0
 22 24  1  0
 22 23  1  6
 24 26  1  0
 24 25  1  6
 25 18  1  0
 26 28  1  0
 27 26  2  0
M  END
$$$$
