LRI.pdb
     RDKit          3D

 28 27  0  0  1  0  0  0  0  0999 V2000
   27.2941  -18.3950  -16.9092 C   0  0  0  0  0  0  0  0  0  0  0  0
   27.6397  -19.5228  -15.9330 C   0  0  1  0  0  0  0  0  0  0  0  0
   28.4492  -20.5995  -16.5773 C   0  0  0  0  0  0  0  0  0  0  0  0
   28.3215  -18.9353  -14.7143 C   0  0  0  0  0  0  0  0  0  0  0  0
   28.3660  -20.0102  -13.6514 C   0  0  2  0  0  0  0  0  0  0  0  0
   27.9553  -21.2647  -14.2556 N   0  0  0  0  0  0  0  0  0  0  0  0
   27.4543  -19.7240  -12.5272 C   0  0  0  0  0  0  0  0  0  0  0  0
   27.5105  -18.6379  -11.8962 O   0  0  0  0  0  0  0  0  0  0  0  0
   19.2396  -21.1830  -12.7014 N   0  0  0  0  0  0  0  0  0  0  0  0
   19.8673  -20.2791  -13.6187 C   0  0  0  0  0  0  0  0  0  0  0  0
   19.1608  -19.7169  -14.5437 N   0  0  0  0  0  0  0  0  0  0  0  0
   21.2575  -20.0388  -13.4675 N   0  0  0  0  0  0  0  0  0  0  0  0
   21.9113  -20.6663  -12.3076 C   0  0  0  0  0  0  0  0  0  0  0  0
   23.3342  -20.2164  -12.2600 C   0  0  0  0  0  0  0  0  0  0  0  0
   24.1449  -20.8066  -11.1543 C   0  0  0  0  0  0  0  0  0  0  0  0
   25.5473  -20.3582  -11.0134 C   0  0  2  0  0  0  0  0  0  0  0  0
   26.4486  -20.6479  -12.0733 N   0  0  0  0  0  0  0  0  0  0  0  0
   26.1222  -20.8746   -9.7095 C   0  0  0  0  0  0  0  0  0  0  0  0
   26.6488  -22.0080   -9.7147 O   0  0  0  0  0  0  0  0  0  0  0  0
   19.6185  -19.1496  -15.2738 C   0  0  0  0  0  0  0  0  0  0  0  0
   29.6580  -18.6186   -6.4534 C   0  0  0  0  0  0  0  0  0  0  0  0
   28.7838  -19.6746   -7.0095 C   0  0  2  0  0  0  0  0  0  0  0  0
   27.3685  -19.7336   -6.6234 C   0  0  0  0  0  0  0  0  0  0  0  0
   27.1914  -19.8730   -5.1082 C   0  0  2  0  0  0  0  0  0  0  0  0
   26.4881  -20.7306   -7.2635 N   0  0  0  0  0  0  0  0  0  0  0  0
   26.0659  -20.1190   -8.5572 C   0  0  0  0  0  0  0  0  0  0  0  0
   25.2764  -21.1204   -6.5359 O   0  0  0  0  0  0  0  0  0  0  0  0
   25.3511  -21.8939   -5.5017 O   0  0  0  0  0  0  0  0  0  0  0  0
  2  4  1  0
  2  1  1  6
  3  2  1  0
  5  4  1  0
  5  6  1  6
  7  5  1  0
  7  8  2  0
  9 10  1  0
 10 12  1  0
 10 11  2  0
 12 13  1  0
 13 14  1  0
 16 15  1  6
 15 14  1  0
 17 16  1  0
 17  7  1  0
 18 16  1  0
 19 18  2  0
 20 21  1  0
 21 22  1  0
 22 24  1  0
 22 23  1  6
 24 26  1  0
 24 25  1  1
 25 18  1  0
 26 28  1  0
 27 26  2  0
M  END
$$$$
