LRI.pdb
     RDKit          3D

 28 27  0  0  1  0  0  0  0  0999 V2000
   26.4591  -20.9621  -18.2995 C   0  0  0  0  0  0  0  0  0  0  0  0
   26.8749  -21.6764  -17.0106 C   0  0  1  0  0  0  0  0  0  0  0  0
   28.2549  -22.2403  -17.0971 C   0  0  0  0  0  0  0  0  0  0  0  0
   26.7079  -20.7293  -15.8401 C   0  0  0  0  0  0  0  0  0  0  0  0
   27.3302  -21.3850  -14.6277 C   0  0  2  0  0  0  0  0  0  0  0  0
   26.7717  -22.7183  -14.4946 N   0  0  0  0  0  0  0  0  0  0  0  0
   27.0471  -20.6443  -13.3834 C   0  0  0  0  0  0  0  0  0  0  0  0
   27.3905  -19.4431  -13.2415 O   0  0  0  0  0  0  0  0  0  0  0  0
   19.4880  -20.0386  -13.3556 N   0  0  0  0  0  0  0  0  0  0  0  0
   20.4814  -19.4941  -14.2325 C   0  0  0  0  0  0  0  0  0  0  0  0
   20.1134  -18.8176  -15.2706 N   0  0  0  0  0  0  0  0  0  0  0  0
   21.8450  -19.7260  -13.9164 N   0  0  0  0  0  0  0  0  0  0  0  0
   22.1136  -20.5916  -12.7565 C   0  0  0  0  0  0  0  0  0  0  0  0
   23.5861  -20.8188  -12.6608 C   0  0  0  0  0  0  0  0  0  0  0  0
   24.2316  -20.2596  -11.4366 C   0  0  0  0  0  0  0  0  0  0  0  0
   25.6882  -20.4582  -11.2740 C   0  0  2  0  0  0  0  0  0  0  0  0
   26.3689  -21.2276  -12.2560 N   0  0  0  0  0  0  0  0  0  0  0  0
   25.9779  -21.0277   -9.8996 C   0  0  0  0  0  0  0  0  0  0  0  0
   26.0693  -22.2695   -9.7923 O   0  0  0  0  0  0  0  0  0  0  0  0
   20.8119  -18.5129  -15.9661 C   0  0  0  0  0  0  0  0  0  0  0  0
   29.4171  -18.6997   -6.4030 C   0  0  0  0  0  0  0  0  0  0  0  0
   28.5783  -19.7155   -7.0764 C   0  0  2  0  0  0  0  0  0  0  0  0
   27.1652  -19.8623   -6.7058 C   0  0  0  0  0  0  0  0  0  0  0  0
   26.9909  -20.1723   -5.2158 C   0  0  2  0  0  0  0  0  0  0  0  0
   26.3188  -20.8113   -7.4554 N   0  0  0  0  0  0  0  0  0  0  0  0
   26.1355  -20.2033   -8.8054 C   0  0  0  0  0  0  0  0  0  0  0  0
   24.9888  -21.0990   -6.9095 O   0  0  0  0  0  0  0  0  0  0  0  0
   23.9514  -20.4505   -7.3300 O   0  0  0  0  0  0  0  0  0  0  0  0
  2  4  1  0
  2  1  1  6
  3  2  1  0
  5  4  1  0
  5  6  1  1
  7  5  1  0
  7  8  2  0
  9 10  1  0
 10 12  1  0
 10 11  2  0
 12 13  1  0
 13 14  1  0
 16 15  1  6
 15 14  1  0
 17 16  1  0
 17  7  1  0
 18 16  1  0
 19 18  2  0
 20 21  1  0
 21 22  1  0
 22 24  1  0
 22 23  1  6
 24 26  1  0
 24 25  1  6
 25 18  1  0
 26 28  1  0
 27 26  2  0
M  END
$$$$
