LRI.pdb
     RDKit          3D

 28 27  0  0  1  0  0  0  0  0999 V2000
   19.6848  -19.2655  -10.4930 C   0  0  0  0  0  0  0  0  0  0  0  0
   20.7830  -20.3266  -10.3810 C   0  0  1  0  0  0  0  0  0  0  0  0
   20.4961  -21.5275  -11.2206 C   0  0  0  0  0  0  0  0  0  0  0  0
   22.1206  -19.6957  -10.7095 C   0  0  0  0  0  0  0  0  0  0  0  0
   23.1659  -20.7876  -10.6637 C   0  0  2  0  0  0  0  0  0  0  0  0
   23.6596  -20.8880   -9.3022 N   0  0  0  0  0  0  0  0  0  0  0  0
   24.3132  -20.5018  -11.5463 C   0  0  0  0  0  0  0  0  0  0  0  0
   25.2259  -19.7089  -11.2011 O   0  0  0  0  0  0  0  0  0  0  0  0
   29.3580  -24.6659  -17.4419 N   0  0  0  0  0  0  0  0  0  0  0  0
   29.6495  -23.2917  -17.7229 C   0  0  0  0  0  0  0  0  0  0  0  0
   30.4972  -22.9973  -18.6533 N   0  0  0  0  0  0  0  0  0  0  0  0
   28.9842  -22.3013  -16.9550 N   0  0  0  0  0  0  0  0  0  0  0  0
   27.9573  -22.7780  -16.0143 C   0  0  0  0  0  0  0  0  0  0  0  0
   27.3545  -21.5977  -15.3268 C   0  0  0  0  0  0  0  0  0  0  0  0
   26.2737  -21.9220  -14.3496 C   0  0  0  0  0  0  0  0  0  0  0  0
   25.5606  -20.7940  -13.7118 C   0  0  2  0  0  0  0  0  0  0  0  0
   24.4745  -21.0968  -12.8467 N   0  0  0  0  0  0  0  0  0  0  0  0
   25.1006  -19.8130  -14.7717 C   0  0  0  0  0  0  0  0  0  0  0  0
   23.9944  -20.0206  -15.3151 O   0  0  0  0  0  0  0  0  0  0  0  0
   30.6191  -22.0177  -18.9535 C   0  0  0  0  0  0  0  0  0  0  0  0
   25.2495  -13.9119  -15.8160 C   0  0  0  0  0  0  0  0  0  0  0  0
   25.1861  -15.2674  -16.4055 C   0  0  2  0  0  0  0  0  0  0  0  0
   25.4976  -16.4411  -15.5802 C   0  0  0  0  0  0  0  0  0  0  0  0
   26.8848  -16.3407  -14.9383 C   0  0  2  0  0  0  0  0  0  0  0  0
   25.3822  -17.7886  -16.1717 N   0  0  0  0  0  0  0  0  0  0  0  0
   25.8765  -18.7287  -15.1239 C   0  0  0  0  0  0  0  0  0  0  0  0
   26.1394  -18.0488  -17.3999 O   0  0  0  0  0  0  0  0  0  0  0  0
   25.6437  -17.7425  -18.5549 O   0  0  0  0  0  0  0  0  0  0  0  0
  2  4  1  0
  2  1  1  6
  3  2  1  0
  5  4  1  0
  5  6  1  1
  7  5  1  0
  7  8  2  0
  9 10  1  0
 10 12  1  0
 10 11  2  0
 12 13  1  0
 13 14  1  0
 16 15  1  6
 15 14  1  0
 17 16  1  0
 17  7  1  0
 18 16  1  0
 19 18  2  0
 20 21  1  0
 21 22  1  0
 22 24  1  0
 22 23  1  1
 24 26  1  0
 24 25  1  6
 25 18  1  0
 26 28  1  0
 27 26  2  0
M  END
$$$$
