LRI.pdb
     RDKit          3D

 28 27  0  0  1  0  0  0  0  0999 V2000
   16.9168  -21.5711  -14.7616 C   0  0  0  0  0  0  0  0  0  0  0  0
   17.8492  -20.3828  -14.5103 C   0  0  1  0  0  0  0  0  0  0  0  0
   17.0999  -19.1022  -14.3429 C   0  0  0  0  0  0  0  0  0  0  0  0
   18.7414  -20.6917  -13.3255 C   0  0  0  0  0  0  0  0  0  0  0  0
   19.9948  -19.8572  -13.4658 C   0  0  2  0  0  0  0  0  0  0  0  0
   20.0921  -19.4106  -14.8437 N   0  0  0  0  0  0  0  0  0  0  0  0
   21.2154  -20.6217  -13.1455 C   0  0  0  0  0  0  0  0  0  0  0  0
   21.4235  -21.0731  -11.9906 O   0  0  0  0  0  0  0  0  0  0  0  0
   26.1522  -26.4067  -15.5329 N   0  0  0  0  0  0  0  0  0  0  0  0
   25.0364  -25.8467  -16.2355 C   0  0  0  0  0  0  0  0  0  0  0  0
   24.0413  -26.6055  -16.5594 N   0  0  0  0  0  0  0  0  0  0  0  0
   25.0753  -24.4634  -16.5487 N   0  0  0  0  0  0  0  0  0  0  0  0
   26.0574  -23.6498  -15.8137 C   0  0  0  0  0  0  0  0  0  0  0  0
   25.3827  -23.0413  -14.6290 C   0  0  0  0  0  0  0  0  0  0  0  0
   24.0841  -22.3660  -14.9215 C   0  0  0  0  0  0  0  0  0  0  0  0
   23.4070  -21.6639  -13.8097 C   0  0  2  0  0  0  0  0  0  0  0  0
   22.2438  -20.9052  -14.1114 N   0  0  0  0  0  0  0  0  0  0  0  0
   24.4019  -20.7877  -13.0749 C   0  0  0  0  0  0  0  0  0  0  0  0
   24.4983  -19.5934  -13.4303 O   0  0  0  0  0  0  0  0  0  0  0  0
   23.1953  -26.1979  -16.9867 C   0  0  0  0  0  0  0  0  0  0  0  0
   26.1606  -19.9125   -7.4506 C   0  0  0  0  0  0  0  0  0  0  0  0
   26.4984  -19.7682   -8.8837 C   0  0  2  0  0  0  0  0  0  0  0  0
   25.8274  -20.6083   -9.8835 C   0  0  0  0  0  0  0  0  0  0  0  0
   26.0358  -22.1015   -9.6127 C   0  0  2  0  0  0  0  0  0  0  0  0
   26.0980  -20.3783  -11.3162 N   0  0  0  0  0  0  0  0  0  0  0  0
   25.1739  -21.2918  -12.0492 C   0  0  0  0  0  0  0  0  0  0  0  0
   27.4595  -20.6423  -11.7922 O   0  0  0  0  0  0  0  0  0  0  0  0
   27.7555  -21.7758  -12.3410 O   0  0  0  0  0  0  0  0  0  0  0  0
  2  4  1  0
  2  1  1  1
  3  2  1  0
  5  4  1  0
  5  6  1  6
  7  5  1  0
  7  8  2  0
  9 10  1  0
 10 12  1  0
 10 11  2  0
 12 13  1  0
 13 14  1  0
 16 15  1  6
 15 14  1  0
 17 16  1  0
 17  7  1  0
 18 16  1  0
 19 18  2  0
 20 21  1  0
 21 22  1  0
 22 24  1  0
 22 23  1  6
 24 26  1  0
 24 25  1  6
 25 18  1  0
 26 28  1  0
 27 26  2  0
M  END
$$$$
