LRI.pdb
     RDKit          3D

 28 27  0  0  1  0  0  0  0  0999 V2000
   34.3916  -21.5857  -11.7729 C   0  0  0  0  0  0  0  0  0  0  0  0
   33.1151  -22.4253  -11.8719 C   0  0  1  0  0  0  0  0  0  0  0  0
   33.0846  -23.5281  -10.8656 C   0  0  0  0  0  0  0  0  0  0  0  0
   31.9098  -21.5133  -11.7692 C   0  0  0  0  0  0  0  0  0  0  0  0
   30.6745  -22.3857  -11.7592 C   0  0  2  0  0  0  0  0  0  0  0  0
   30.5957  -23.0774  -13.0332 N   0  0  0  0  0  0  0  0  0  0  0  0
   29.4366  -21.6016  -11.5872 C   0  0  0  0  0  0  0  0  0  0  0  0
   29.3303  -20.7314  -10.6859 O   0  0  0  0  0  0  0  0  0  0  0  0
   21.3391  -19.3256  -14.3516 N   0  0  0  0  0  0  0  0  0  0  0  0
   22.4521  -19.0146  -15.1983 C   0  0  0  0  0  0  0  0  0  0  0  0
   22.3325  -18.0908  -16.0945 N   0  0  0  0  0  0  0  0  0  0  0  0
   23.6533  -19.7462  -15.0116 N   0  0  0  0  0  0  0  0  0  0  0  0
   23.6287  -20.8003  -13.9844 C   0  0  0  0  0  0  0  0  0  0  0  0
   24.6969  -20.5146  -12.9812 C   0  0  0  0  0  0  0  0  0  0  0  0
   26.0034  -21.1873  -13.2431 C   0  0  0  0  0  0  0  0  0  0  0  0
   27.0647  -21.0520  -12.2219 C   0  0  2  0  0  0  0  0  0  0  0  0
   28.2759  -21.7683  -12.4215 N   0  0  0  0  0  0  0  0  0  0  0  0
   26.5046  -21.3833  -10.8530 C   0  0  0  0  0  0  0  0  0  0  0  0
   26.1780  -22.5688  -10.6299 O   0  0  0  0  0  0  0  0  0  0  0  0
   23.1183  -17.8774  -16.7281 C   0  0  0  0  0  0  0  0  0  0  0  0
   27.7257  -19.7941   -5.2300 C   0  0  0  0  0  0  0  0  0  0  0  0
   26.7739  -20.4354   -6.1636 C   0  0  2  0  0  0  0  0  0  0  0  0
   26.7882  -20.0760   -7.5870 C   0  0  0  0  0  0  0  0  0  0  0  0
   26.5548  -18.5776   -7.8039 C   0  0  2  0  0  0  0  0  0  0  0  0
   25.9039  -20.7995   -8.5216 N   0  0  0  0  0  0  0  0  0  0  0  0
   26.3608  -20.4094   -9.8872 C   0  0  0  0  0  0  0  0  0  0  0  0
   24.4666  -20.5233   -8.4343 O   0  0  0  0  0  0  0  0  0  0  0  0
   23.9112  -19.6722   -9.2347 O   0  0  0  0  0  0  0  0  0  0  0  0
  2  4  1  0
  2  1  1  1
  3  2  1  0
  5  4  1  0
  5  6  1  6
  7  5  1  0
  7  8  2  0
  9 10  1  0
 10 12  1  0
 10 11  2  0
 12 13  1  0
 13 14  1  0
 16 15  1  6
 15 14  1  0
 17 16  1  0
 17  7  1  0
 18 16  1  0
 19 18  2  0
 20 21  1  0
 21 22  1  0
 22 24  1  0
 22 23  1  6
 24 26  1  0
 24 25  1  1
 25 18  1  0
 26 28  1  0
 27 26  2  0
M  END
$$$$
