LRI.pdb
     RDKit          3D

 28 27  0  0  1  0  0  0  0  0999 V2000
   25.9784  -16.3916  -17.3273 C   0  0  0  0  0  0  0  0  0  0  0  0
   26.9008  -17.2773  -16.4852 C   0  0  1  0  0  0  0  0  0  0  0  0
   28.3443  -17.0002  -16.7476 C   0  0  0  0  0  0  0  0  0  0  0  0
   26.5378  -17.1254  -15.0223 C   0  0  0  0  0  0  0  0  0  0  0  0
   27.3900  -18.0960  -14.2356 C   0  0  2  0  0  0  0  0  0  0  0  0
   27.9817  -19.0398  -15.1665 N   0  0  0  0  0  0  0  0  0  0  0  0
   26.6028  -18.8596  -13.2485 C   0  0  0  0  0  0  0  0  0  0  0  0
   25.8244  -18.2866  -12.4443 O   0  0  0  0  0  0  0  0  0  0  0  0
   22.9802  -24.2512  -16.2727 N   0  0  0  0  0  0  0  0  0  0  0  0
   23.6204  -25.1937  -15.4042 C   0  0  0  0  0  0  0  0  0  0  0  0
   23.9970  -26.3382  -15.8724 N   0  0  0  0  0  0  0  0  0  0  0  0
   23.8146  -24.8221  -14.0487 N   0  0  0  0  0  0  0  0  0  0  0  0
   23.4078  -23.4574  -13.6759 C   0  0  0  0  0  0  0  0  0  0  0  0
   24.5786  -22.5467  -13.8457 C   0  0  0  0  0  0  0  0  0  0  0  0
   25.4443  -22.4018  -12.6384 C   0  0  0  0  0  0  0  0  0  0  0  0
   25.8445  -21.0354  -12.2378 C   0  0  2  0  0  0  0  0  0  0  0  0
   26.6632  -20.2926  -13.1310 N   0  0  0  0  0  0  0  0  0  0  0  0
   26.4975  -21.0724  -10.8704 C   0  0  0  0  0  0  0  0  0  0  0  0
   27.6591  -21.5268  -10.7930 O   0  0  0  0  0  0  0  0  0  0  0  0
   24.3791  -27.0577  -15.2394 C   0  0  0  0  0  0  0  0  0  0  0  0
   28.0558  -18.9490   -5.7765 C   0  0  0  0  0  0  0  0  0  0  0  0
   27.9912  -20.0819   -6.7258 C   0  0  2  0  0  0  0  0  0  0  0  0
   27.2490  -19.9421   -7.9848 C   0  0  0  0  0  0  0  0  0  0  0  0
   26.4746  -18.6221   -8.0521 C   0  0  2  0  0  0  0  0  0  0  0  0
   26.3255  -21.0164   -8.3997 N   0  0  0  0  0  0  0  0  0  0  0  0
   25.8320  -20.6197   -9.7506 C   0  0  0  0  0  0  0  0  0  0  0  0
   25.1561  -21.2607   -7.5496 O   0  0  0  0  0  0  0  0  0  0  0  0
   23.9966  -20.7886   -7.8756 O   0  0  0  0  0  0  0  0  0  0  0  0
  2  4  1  0
  2  1  1  6
  3  2  1  0
  5  4  1  0
  5  6  1  6
  7  5  1  0
  7  8  2  0
  9 10  1  0
 10 12  1  0
 10 11  2  0
 12 13  1  0
 13 14  1  0
 16 15  1  6
 15 14  1  0
 17 16  1  0
 17  7  1  0
 18 16  1  0
 19 18  2  0
 20 21  1  0
 21 22  1  0
 22 24  1  0
 22 23  1  6
 24 26  1  0
 24 25  1  1
 25 18  1  0
 26 28  1  0
 27 26  2  0
M  END
$$$$
