LRI.pdb
     RDKit          3D

 28 27  0  0  1  0  0  0  0  0999 V2000
   32.7493  -23.6214  -10.2790 C   0  0  0  0  0  0  0  0  0  0  0  0
   32.6618  -22.1861  -10.8051 C   0  0  1  0  0  0  0  0  0  0  0  0
   33.8871  -21.3931  -10.4898 C   0  0  0  0  0  0  0  0  0  0  0  0
   32.3571  -22.2171  -12.2888 C   0  0  0  0  0  0  0  0  0  0  0  0
   30.9306  -22.6913  -12.4538 C   0  0  2  0  0  0  0  0  0  0  0  0
   30.7490  -23.1170  -13.8298 N   0  0  0  0  0  0  0  0  0  0  0  0
   29.9500  -21.6255  -12.1716 C   0  0  0  0  0  0  0  0  0  0  0  0
   29.8103  -21.1511  -11.0156 O   0  0  0  0  0  0  0  0  0  0  0  0
   22.8616  -20.1070  -15.4640 N   0  0  0  0  0  0  0  0  0  0  0  0
   23.2684  -18.8266  -15.9614 C   0  0  0  0  0  0  0  0  0  0  0  0
   22.3762  -18.0008  -16.4008 N   0  0  0  0  0  0  0  0  0  0  0  0
   24.6533  -18.5187  -15.9489 N   0  0  0  0  0  0  0  0  0  0  0  0
   25.5506  -19.5455  -15.3944 C   0  0  0  0  0  0  0  0  0  0  0  0
   26.1799  -19.0092  -14.1514 C   0  0  0  0  0  0  0  0  0  0  0  0
   27.6529  -19.2267  -14.0466 C   0  0  0  0  0  0  0  0  0  0  0  0
   28.1517  -20.0270  -12.9071 C   0  0  2  0  0  0  0  0  0  0  0  0
   29.0931  -21.0566  -13.1780 N   0  0  0  0  0  0  0  0  0  0  0  0
   26.9822  -20.6055  -12.1358 C   0  0  0  0  0  0  0  0  0  0  0  0
   26.4472  -21.6429  -12.5826 O   0  0  0  0  0  0  0  0  0  0  0  0
   22.6580  -17.0771  -16.7640 C   0  0  0  0  0  0  0  0  0  0  0  0
   27.2550  -19.1239   -7.0818 C   0  0  0  0  0  0  0  0  0  0  0  0
   26.9651  -20.1207   -8.1359 C   0  0  2  0  0  0  0  0  0  0  0  0
   25.6501  -20.1361   -8.7888 C   0  0  0  0  0  0  0  0  0  0  0  0
   24.5775  -20.7819   -7.9062 C   0  0  2  0  0  0  0  0  0  0  0  0
   25.5224  -20.7221  -10.1376 N   0  0  0  0  0  0  0  0  0  0  0  0
   26.5247  -20.0073  -10.9805 C   0  0  0  0  0  0  0  0  0  0  0  0
   24.2184  -20.6069  -10.7979 O   0  0  0  0  0  0  0  0  0  0  0  0
   23.9517  -19.5911  -11.5532 O   0  0  0  0  0  0  0  0  0  0  0  0
  2  4  1  0
  2  1  1  6
  3  2  1  0
  5  4  1  0
  5  6  1  6
  7  5  1  0
  7  8  2  0
  9 10  1  0
 10 12  1  0
 10 11  2  0
 12 13  1  0
 13 14  1  0
 16 15  1  6
 15 14  1  0
 17 16  1  0
 17  7  1  0
 18 16  1  0
 19 18  2  0
 20 21  1  0
 21 22  1  0
 22 24  1  0
 22 23  1  6
 24 26  1  0
 24 25  1  6
 25 18  1  0
 26 28  1  0
 27 26  2  0
M  END
$$$$
