LRI.pdb
     RDKit          3D

 28 27  0  0  1  0  0  0  0  0999 V2000
   29.6003  -20.0880   -5.6744 C   0  0  0  0  0  0  0  0  0  0  0  0
   28.1024  -20.0368   -5.9877 C   0  0  1  0  0  0  0  0  0  0  0  0
   27.4204  -18.8988   -5.3025 C   0  0  0  0  0  0  0  0  0  0  0  0
   27.9084  -20.0093   -7.4900 C   0  0  0  0  0  0  0  0  0  0  0  0
   26.4205  -19.9893   -7.7595 C   0  0  2  0  0  0  0  0  0  0  0  0
   25.8456  -21.2122   -7.2289 N   0  0  0  0  0  0  0  0  0  0  0  0
   26.1133  -19.9278   -9.2014 C   0  0  0  0  0  0  0  0  0  0  0  0
   26.3354  -18.8905   -9.8764 O   0  0  0  0  0  0  0  0  0  0  0  0
   26.1258  -22.6905  -17.1685 N   0  0  0  0  0  0  0  0  0  0  0  0
   27.3670  -22.3246  -16.5537 C   0  0  0  0  0  0  0  0  0  0  0  0
   28.3187  -21.8372  -17.2801 N   0  0  0  0  0  0  0  0  0  0  0  0
   27.4970  -22.5170  -15.1540 N   0  0  0  0  0  0  0  0  0  0  0  0
   26.3148  -23.0391  -14.4492 C   0  0  0  0  0  0  0  0  0  0  0  0
   25.7026  -21.9310  -13.6577 C   0  0  0  0  0  0  0  0  0  0  0  0
   25.9625  -21.9876  -12.1889 C   0  0  0  0  0  0  0  0  0  0  0  0
   25.2928  -20.9855  -11.3318 C   0  0  2  0  0  0  0  0  0  0  0  0
   25.5463  -21.0290   -9.9340 N   0  0  0  0  0  0  0  0  0  0  0  0
   23.7968  -21.0223  -11.5726 C   0  0  0  0  0  0  0  0  0  0  0  0
   23.0990  -21.7054  -10.7926 O   0  0  0  0  0  0  0  0  0  0  0  0
   29.2148  -21.5648  -16.8472 C   0  0  0  0  0  0  0  0  0  0  0  0
   19.6774  -17.0675  -13.5313 C   0  0  0  0  0  0  0  0  0  0  0  0
   20.0149  -18.4712  -13.2080 C   0  0  2  0  0  0  0  0  0  0  0  0
   21.4206  -18.8857  -13.1197 C   0  0  0  0  0  0  0  0  0  0  0  0
   22.1913  -18.5828  -14.4084 C   0  0  2  0  0  0  0  0  0  0  0  0
   21.7392  -20.2738  -12.7317 N   0  0  0  0  0  0  0  0  0  0  0  0
   23.2258  -20.3255  -12.6168 C   0  0  0  0  0  0  0  0  0  0  0  0
   21.3238  -21.3388  -13.6498 O   0  0  0  0  0  0  0  0  0  0  0  0
   22.1219  -21.7531  -14.5798 O   0  0  0  0  0  0  0  0  0  0  0  0
  2  4  1  0
  2  1  1  6
  3  2  1  0
  5  4  1  0
  5  6  1  6
  7  5  1  0
  7  8  2  0
  9 10  1  0
 10 12  1  0
 10 11  2  0
 12 13  1  0
 13 14  1  0
 16 15  1  6
 15 14  1  0
 17 16  1  0
 17  7  1  0
 18 16  1  0
 19 18  2  0
 20 21  1  0
 21 22  1  0
 22 24  1  0
 22 23  1  1
 24 26  1  0
 24 25  1  6
 25 18  1  0
 26 28  1  0
 27 26  2  0
M  END
$$$$
