LRI.pdb
     RDKit          3D

 28 27  0  0  1  0  0  0  0  0999 V2000
   28.2625  -20.8780   -3.8838 C   0  0  0  0  0  0  0  0  0  0  0  0
   27.5755  -19.9844   -4.9201 C   0  0  1  0  0  0  0  0  0  0  0  0
   28.2250  -18.6444   -5.0299 C   0  0  0  0  0  0  0  0  0  0  0  0
   27.5204  -20.7125   -6.2474 C   0  0  0  0  0  0  0  0  0  0  0  0
   26.9361  -19.7616   -7.2678 C   0  0  2  0  0  0  0  0  0  0  0  0
   25.7668  -19.1298   -6.6837 N   0  0  0  0  0  0  0  0  0  0  0  0
   26.5142  -20.4534   -8.5009 C   0  0  0  0  0  0  0  0  0  0  0  0
   27.2565  -21.2944   -9.0688 O   0  0  0  0  0  0  0  0  0  0  0  0
   20.5471  -22.9335  -13.4671 N   0  0  0  0  0  0  0  0  0  0  0  0
   20.1859  -22.3116  -12.2281 C   0  0  0  0  0  0  0  0  0  0  0  0
   19.2463  -22.8278  -11.5060 N   0  0  0  0  0  0  0  0  0  0  0  0
   20.8870  -21.1392  -11.8444 N   0  0  0  0  0  0  0  0  0  0  0  0
   21.8679  -20.6141  -12.8081 C   0  0  0  0  0  0  0  0  0  0  0  0
   23.2398  -20.9511  -12.3250 C   0  0  0  0  0  0  0  0  0  0  0  0
   23.5637  -20.4578  -10.9539 C   0  0  0  0  0  0  0  0  0  0  0  0
   24.9264  -20.7075  -10.4360 C   0  0  2  0  0  0  0  0  0  0  0  0
   25.2444  -20.2240   -9.1380 N   0  0  0  0  0  0  0  0  0  0  0  0
   25.9532  -20.1978  -11.4277 C   0  0  0  0  0  0  0  0  0  0  0  0
   26.2022  -18.9731  -11.4290 O   0  0  0  0  0  0  0  0  0  0  0  0
   18.9980  -22.4054  -10.5979 C   0  0  0  0  0  0  0  0  0  0  0  0
   30.7034  -21.9774  -11.3427 C   0  0  0  0  0  0  0  0  0  0  0  0
   29.4169  -21.2954  -11.6049 C   0  0  2  0  0  0  0  0  0  0  0  0
   28.8469  -21.3002  -12.9579 C   0  0  0  0  0  0  0  0  0  0  0  0
   29.8817  -20.9136  -14.0191 C   0  0  2  0  0  0  0  0  0  0  0  0
   27.6253  -20.5167  -13.2276 N   0  0  0  0  0  0  0  0  0  0  0  0
   26.5907  -21.0568  -12.2981 C   0  0  0  0  0  0  0  0  0  0  0  0
   27.0791  -20.5732  -14.5871 O   0  0  0  0  0  0  0  0  0  0  0  0
   26.4241  -21.6137  -14.9895 O   0  0  0  0  0  0  0  0  0  0  0  0
  2  4  1  0
  2  1  1  1
  3  2  1  0
  5  4  1  0
  5  6  1  1
  7  5  1  0
  7  8  2  0
  9 10  1  0
 10 12  1  0
 10 11  2  0
 12 13  1  0
 13 14  1  0
 16 15  1  6
 15 14  1  0
 17 16  1  0
 17  7  1  0
 18 16  1  0
 19 18  2  0
 20 21  1  0
 21 22  1  0
 22 24  1  0
 22 23  1  6
 24 26  1  0
 24 25  1  1
 25 18  1  0
 26 28  1  0
 27 26  2  0
M  END
$$$$
