GEA.pdb
     RDKit          3D

 19 18  0  0  1  0  0  0  0  0999 V2000
   17.5232  -14.4897  -15.9351 N   0  0  0  0  0  0  0  0  0  0  0  0
   17.4563  -13.2700  -16.7171 C   0  0  0  0  0  0  0  0  0  0  0  0
   17.5791  -12.0624  -15.8487 C   0  0  0  0  0  0  0  0  0  0  0  0
   16.8946  -11.9277  -14.8268 O   0  0  0  0  0  0  0  0  0  0  0  0
   18.4945  -11.0488  -16.1961 N   0  0  0  0  0  0  0  0  0  0  0  0
   18.6552   -9.8138  -15.4801 C   0  0  1  0  0  0  0  0  0  0  0  0
   20.1358   -9.4870  -15.4448 C   0  0  0  0  0  0  0  0  0  0  0  0
   20.3941   -8.2936  -14.5397 C   0  0  0  0  0  0  0  0  0  0  0  0
   21.8250   -8.0067  -14.3935 C   0  0  0  0  0  0  0  0  0  0  0  0
   22.4407   -8.5651  -13.4495 O   0  0  0  0  0  0  0  0  0  0  0  0
   17.8435   -8.7195  -16.0040 C   0  0  0  0  0  0  0  0  0  0  0  0
   17.8740   -8.4178  -17.2236 O   0  0  0  0  0  0  0  0  0  0  0  0
   22.4552   -7.1471  -15.2765 O   0  0  0  0  0  0  0  0  0  0  0  0
   14.8522   -6.8232  -14.8316 C   0  0  0  0  0  0  0  0  0  0  0  0
   16.1872   -6.8659  -15.5638 C   0  0  2  0  0  0  0  0  0  0  0  0
   16.9982   -7.9678  -15.1469 N   0  0  0  0  0  0  0  0  0  0  0  0
   16.8826   -5.5845  -15.2177 C   0  0  0  0  0  0  0  0  0  0  0  0
   18.0894   -5.5998  -14.5727 O   0  0  0  0  0  0  0  0  0  0  0  0
   16.3328   -4.4977  -15.5330 O   0  0  0  0  0  0  0  0  0  0  0  0
  1  2  1  0
  3  4  2  0
  3  2  1  0
  5  3  1  0
  6  5  1  0
  6 11  1  0
  6  7  1  6
  8  7  1  0
  9  8  1  0
 10  9  2  0
 11 12  2  0
 13  9  1  0
 15 14  1  1
 16 11  1  0
 16 15  1  0
 17 18  1  0
 17 15  1  0
 19 17  2  0
M  END
$$$$
