GEA.pdb
     RDKit          3D

 19 18  0  0  1  0  0  0  0  0999 V2000
   14.4265   -8.0978   -7.8727 N   0  0  0  0  0  0  0  0  0  0  0  0
   15.3265   -7.0208   -8.2384 C   0  0  0  0  0  0  0  0  0  0  0  0
   16.1790   -7.3994   -9.4036 C   0  0  0  0  0  0  0  0  0  0  0  0
   16.6276   -8.5453   -9.5321 O   0  0  0  0  0  0  0  0  0  0  0  0
   16.4830   -6.4330  -10.3832 N   0  0  0  0  0  0  0  0  0  0  0  0
   17.2511   -6.6878  -11.5702 C   0  0  1  0  0  0  0  0  0  0  0  0
   16.4617   -6.1650  -12.7549 C   0  0  0  0  0  0  0  0  0  0  0  0
   15.1724   -6.9523  -12.9222 C   0  0  0  0  0  0  0  0  0  0  0  0
   14.3842   -6.4901  -14.0696 C   0  0  0  0  0  0  0  0  0  0  0  0
   13.1594   -6.2694  -13.8877 O   0  0  0  0  0  0  0  0  0  0  0  0
   18.6113   -6.1607  -11.5158 C   0  0  0  0  0  0  0  0  0  0  0  0
   18.8653   -5.0861  -10.9156 O   0  0  0  0  0  0  0  0  0  0  0  0
   14.9894   -6.3100  -15.3012 O   0  0  0  0  0  0  0  0  0  0  0  0
   21.9861   -7.4709  -12.7101 C   0  0  0  0  0  0  0  0  0  0  0  0
   21.0486   -6.4270  -12.1172 C   0  0  2  0  0  0  0  0  0  0  0  0
   19.6826   -6.8504  -12.1409 N   0  0  0  0  0  0  0  0  0  0  0  0
   21.2009   -5.2084  -12.9758 C   0  0  0  0  0  0  0  0  0  0  0  0
   22.2618   -4.3619  -12.8008 O   0  0  0  0  0  0  0  0  0  0  0  0
   20.3334   -4.9823  -13.8584 O   0  0  0  0  0  0  0  0  0  0  0  0
  1  2  1  0
  3  4  2  0
  3  2  1  0
  5  3  1  0
  6  5  1  0
  6 11  1  0
  6  7  1  6
  8  7  1  0
  9  8  1  0
 10  9  2  0
 11 12  2  0
 13  9  1  0
 15 14  1  6
 16 11  1  0
 16 15  1  0
 17 18  1  0
 17 15  1  0
 19 17  2  0
M  END
$$$$
