GEA.pdb
     RDKit          3D

 19 18  0  0  1  0  0  0  0  0999 V2000
   17.7374   -9.6394  -17.4028 N   0  0  0  0  0  0  0  0  0  0  0  0
   17.3752   -8.3054  -17.8419 C   0  0  0  0  0  0  0  0  0  0  0  0
   17.6378   -7.2943  -16.7758 C   0  0  0  0  0  0  0  0  0  0  0  0
   16.8521   -7.1270  -15.8348 O   0  0  0  0  0  0  0  0  0  0  0  0
   18.8065   -6.5093  -16.8377 N   0  0  0  0  0  0  0  0  0  0  0  0
   19.1812   -5.5251  -15.8605 C   0  0  1  0  0  0  0  0  0  0  0  0
   20.5056   -5.9513  -15.2568 C   0  0  0  0  0  0  0  0  0  0  0  0
   20.9180   -4.9923  -14.1521 C   0  0  0  0  0  0  0  0  0  0  0  0
   22.1989   -5.3650  -13.5424 C   0  0  0  0  0  0  0  0  0  0  0  0
   22.6672   -4.6071  -12.6546 O   0  0  0  0  0  0  0  0  0  0  0  0
   19.2050   -4.1605  -16.3783 C   0  0  0  0  0  0  0  0  0  0  0  0
   19.7662   -3.8926  -17.4704 O   0  0  0  0  0  0  0  0  0  0  0  0
   22.8521   -6.5164  -13.9466 O   0  0  0  0  0  0  0  0  0  0  0  0
   17.3594   -0.9915  -15.4500 C   0  0  0  0  0  0  0  0  0  0  0  0
   18.4943   -1.7515  -16.1241 C   0  0  2  0  0  0  0  0  0  0  0  0
   18.5935   -3.1005  -15.6594 N   0  0  0  0  0  0  0  0  0  0  0  0
   19.7483   -1.0139  -15.7647 C   0  0  0  0  0  0  0  0  0  0  0  0
   20.0726    0.1562  -16.3957 O   0  0  0  0  0  0  0  0  0  0  0  0
   20.4935   -1.4941  -14.8720 O   0  0  0  0  0  0  0  0  0  0  0  0
  1  2  1  0
  3  4  2  0
  3  2  1  0
  5  3  1  0
  6  5  1  0
  6 11  1  0
  6  7  1  6
  8  7  1  0
  9  8  1  0
 10  9  2  0
 11 12  2  0
 13  9  1  0
 15 14  1  1
 16 11  1  0
 16 15  1  0
 17 18  1  0
 17 15  1  0
 19 17  2  0
M  END
$$$$
