GEA.pdb
     RDKit          3D

 19 18  0  0  1  0  0  0  0  0999 V2000
   14.4713   -9.5182  -14.7192 N   0  0  0  0  0  0  0  0  0  0  0  0
   15.0341   -8.2359  -15.0969 C   0  0  0  0  0  0  0  0  0  0  0  0
   16.5116   -8.2099  -14.8869 C   0  0  0  0  0  0  0  0  0  0  0  0
   17.0222   -8.6027  -13.8306 O   0  0  0  0  0  0  0  0  0  0  0  0
   17.3491   -7.7277  -15.9126 N   0  0  0  0  0  0  0  0  0  0  0  0
   18.7777   -7.6132  -15.8134 C   0  0  1  0  0  0  0  0  0  0  0  0
   19.3539   -7.7706  -17.2074 C   0  0  0  0  0  0  0  0  0  0  0  0
   20.8718   -7.8245  -17.1510 C   0  0  0  0  0  0  0  0  0  0  0  0
   21.4758   -7.8755  -18.4866 C   0  0  0  0  0  0  0  0  0  0  0  0
   20.7105   -7.7743  -19.4795 O   0  0  0  0  0  0  0  0  0  0  0  0
   19.2259   -6.3942  -15.1470 C   0  0  0  0  0  0  0  0  0  0  0  0
   18.6547   -5.2946  -15.3570 O   0  0  0  0  0  0  0  0  0  0  0  0
   22.8443   -8.0305  -18.6250 O   0  0  0  0  0  0  0  0  0  0  0  0
   21.9290   -5.6557  -12.5581 C   0  0  0  0  0  0  0  0  0  0  0  0
   20.8120   -5.2861  -13.5254 C   0  0  2  0  0  0  0  0  0  0  0  0
   20.3202   -6.4210  -14.2436 N   0  0  0  0  0  0  0  0  0  0  0  0
   21.4165   -4.3153  -14.4937 C   0  0  0  0  0  0  0  0  0  0  0  0
   21.6668   -4.6867  -15.7868 O   0  0  0  0  0  0  0  0  0  0  0  0
   21.6876   -3.1545  -14.0914 O   0  0  0  0  0  0  0  0  0  0  0  0
  1  2  1  0
  3  4  2  0
  3  2  1  0
  5  3  1  0
  6  5  1  0
  6 11  1  0
  6  7  1  6
  8  7  1  0
  9  8  1  0
 10  9  2  0
 11 12  2  0
 13  9  1  0
 15 14  1  1
 16 11  1  0
 16 15  1  0
 17 18  1  0
 17 15  1  0
 19 17  2  0
M  END
$$$$
