GEA.pdb
     RDKit          3D

 19 18  0  0  1  0  0  0  0  0999 V2000
   14.5938   -7.1602   -9.1081 N   0  0  0  0  0  0  0  0  0  0  0  0
   15.8738   -6.8749   -8.4886 C   0  0  0  0  0  0  0  0  0  0  0  0
   17.0013   -7.1301   -9.4327 C   0  0  0  0  0  0  0  0  0  0  0  0
   18.1811   -7.0481   -9.0691 O   0  0  0  0  0  0  0  0  0  0  0  0
   16.7211   -7.4727  -10.7707 N   0  0  0  0  0  0  0  0  0  0  0  0
   17.7171   -7.7621  -11.7647 C   0  0  1  0  0  0  0  0  0  0  0  0
   17.0611   -8.5924  -12.8511 C   0  0  0  0  0  0  0  0  0  0  0  0
   18.1030   -9.0932  -13.8379 C   0  0  0  0  0  0  0  0  0  0  0  0
   17.5130   -9.9169  -14.8984 C   0  0  0  0  0  0  0  0  0  0  0  0
   17.3541   -9.3897  -16.0292 O   0  0  0  0  0  0  0  0  0  0  0  0
   18.3922   -6.5767  -12.2843 C   0  0  0  0  0  0  0  0  0  0  0  0
   17.7483   -5.5319  -12.5549 O   0  0  0  0  0  0  0  0  0  0  0  0
   17.1510  -11.2277  -14.6402 O   0  0  0  0  0  0  0  0  0  0  0  0
   22.0679   -5.7132  -12.8249 C   0  0  0  0  0  0  0  0  0  0  0  0
   20.5762   -5.4094  -12.7748 C   0  0  2  0  0  0  0  0  0  0  0  0
   19.7954   -6.5751  -12.4972 N   0  0  0  0  0  0  0  0  0  0  0  0
   20.2202   -4.8913  -14.1351 C   0  0  0  0  0  0  0  0  0  0  0  0
   20.4071   -3.5724  -14.4484 O   0  0  0  0  0  0  0  0  0  0  0  0
   19.7470   -5.6948  -14.9797 O   0  0  0  0  0  0  0  0  0  0  0  0
  1  2  1  0
  3  4  2  0
  3  2  1  0
  5  3  1  0
  6  5  1  0
  6 11  1  0
  6  7  1  6
  8  7  1  0
  9  8  1  0
 10  9  2  0
 11 12  2  0
 13  9  1  0
 15 14  1  6
 16 11  1  0
 16 15  1  0
 17 18  1  0
 17 15  1  0
 19 17  2  0
M  END
$$$$
