GEA.pdb
     RDKit          3D

 19 18  0  0  1  0  0  0  0  0999 V2000
   15.9861  -11.5882  -14.9132 N   0  0  0  0  0  0  0  0  0  0  0  0
   16.2198  -10.2483  -15.4171 C   0  0  0  0  0  0  0  0  0  0  0  0
   17.6449   -9.8430  -15.2374 C   0  0  0  0  0  0  0  0  0  0  0  0
   18.2949  -10.1865  -14.2422 O   0  0  0  0  0  0  0  0  0  0  0  0
   18.2696   -9.0507  -16.2212 N   0  0  0  0  0  0  0  0  0  0  0  0
   19.6086   -8.5386  -16.1274 C   0  0  1  0  0  0  0  0  0  0  0  0
   20.1441   -8.3785  -17.5373 C   0  0  0  0  0  0  0  0  0  0  0  0
   21.6136   -7.9915  -17.5058 C   0  0  0  0  0  0  0  0  0  0  0  0
   22.1510   -7.7412  -18.8474 C   0  0  0  0  0  0  0  0  0  0  0  0
   22.9319   -8.5984  -19.3346 O   0  0  0  0  0  0  0  0  0  0  0  0
   19.7178   -7.3172  -15.3355 C   0  0  0  0  0  0  0  0  0  0  0  0
   18.8777   -6.3904  -15.4564 O   0  0  0  0  0  0  0  0  0  0  0  0
   21.7965   -6.5935  -19.5351 O   0  0  0  0  0  0  0  0  0  0  0  0
   21.8860   -6.2774  -12.3994 C   0  0  0  0  0  0  0  0  0  0  0  0
   20.9494   -6.0007  -13.5683 C   0  0  2  0  0  0  0  0  0  0  0  0
   20.7779   -7.1461  -14.4074 N   0  0  0  0  0  0  0  0  0  0  0  0
   21.5971   -4.9045  -14.3585 C   0  0  0  0  0  0  0  0  0  0  0  0
   21.6655   -3.6327  -13.8579 O   0  0  0  0  0  0  0  0  0  0  0  0
   22.0749   -5.1799  -15.4892 O   0  0  0  0  0  0  0  0  0  0  0  0
  1  2  1  0
  3  4  2  0
  3  2  1  0
  5  3  1  0
  6  5  1  0
  6 11  1  0
  6  7  1  6
  8  7  1  0
  9  8  1  0
 10  9  2  0
 11 12  2  0
 13  9  1  0
 15 14  1  1
 16 11  1  0
 16 15  1  0
 17 18  1  0
 17 15  1  0
 19 17  2  0
M  END
$$$$
