GEA.pdb
     RDKit          3D

 19 18  0  0  1  0  0  0  0  0999 V2000
   11.6039  -12.4551  -10.6268 N   0  0  0  0  0  0  0  0  0  0  0  0
   12.2591  -11.6559  -11.6445 C   0  0  0  0  0  0  0  0  0  0  0  0
   13.4516  -10.9481  -11.0929 C   0  0  0  0  0  0  0  0  0  0  0  0
   13.6674  -10.8955   -9.8757 O   0  0  0  0  0  0  0  0  0  0  0  0
   14.3562  -10.3233  -11.9745 N   0  0  0  0  0  0  0  0  0  0  0  0
   15.4505   -9.4878  -11.5641 C   0  0  1  0  0  0  0  0  0  0  0  0
   16.3859   -9.3334  -12.7479 C   0  0  0  0  0  0  0  0  0  0  0  0
   17.5769   -8.4666  -12.3732 C   0  0  0  0  0  0  0  0  0  0  0  0
   18.5288   -8.3223  -13.4797 C   0  0  0  0  0  0  0  0  0  0  0  0
   18.2547   -7.4915  -14.3833 O   0  0  0  0  0  0  0  0  0  0  0  0
   15.0343   -8.2086  -10.9974 C   0  0  0  0  0  0  0  0  0  0  0  0
   14.2626   -7.4423  -11.6272 O   0  0  0  0  0  0  0  0  0  0  0  0
   19.6833   -9.0854  -13.5073 O   0  0  0  0  0  0  0  0  0  0  0  0
   15.4624   -6.5337   -7.6169 C   0  0  0  0  0  0  0  0  0  0  0  0
   15.2063   -6.5314   -9.1184 C   0  0  2  0  0  0  0  0  0  0  0  0
   15.4921   -7.7980   -9.7182 N   0  0  0  0  0  0  0  0  0  0  0  0
   16.1302   -5.4979   -9.6875 C   0  0  0  0  0  0  0  0  0  0  0  0
   15.9513   -4.1716   -9.4019 O   0  0  0  0  0  0  0  0  0  0  0  0
   17.0712   -5.8769  -10.4316 O   0  0  0  0  0  0  0  0  0  0  0  0
  1  2  1  0
  3  4  2  0
  3  2  1  0
  5  3  1  0
  6  5  1  0
  6 11  1  0
  6  7  1  6
  8  7  1  0
  9  8  1  0
 10  9  2  0
 11 12  2  0
 13  9  1  0
 15 14  1  1
 16 11  1  0
 16 15  1  0
 17 18  1  0
 17 15  1  0
 19 17  2  0
M  END
$$$$
