GEA.pdb
     RDKit          3D

 19 18  0  0  1  0  0  0  0  0999 V2000
   14.2442   -8.2485   -7.4259 N   0  0  0  0  0  0  0  0  0  0  0  0
   15.0203   -7.2173   -8.0877 C   0  0  0  0  0  0  0  0  0  0  0  0
   16.0652   -7.8102   -8.9732 C   0  0  0  0  0  0  0  0  0  0  0  0
   16.6975   -8.8207   -8.6414 O   0  0  0  0  0  0  0  0  0  0  0  0
   16.3422   -7.2090  -10.2173 N   0  0  0  0  0  0  0  0  0  0  0  0
   17.2952   -7.7069  -11.1701 C   0  0  1  0  0  0  0  0  0  0  0  0
   16.5435   -8.0519  -12.4414 C   0  0  0  0  0  0  0  0  0  0  0  0
   17.4696   -8.7302  -13.4376 C   0  0  0  0  0  0  0  0  0  0  0  0
   16.7881   -9.0603  -14.6938 C   0  0  0  0  0  0  0  0  0  0  0  0
   16.8805   -8.2402  -15.6429 O   0  0  0  0  0  0  0  0  0  0  0  0
   18.4214   -6.8075  -11.4016 C   0  0  0  0  0  0  0  0  0  0  0  0
   18.2460   -5.5689  -11.5225 O   0  0  0  0  0  0  0  0  0  0  0  0
   16.0734  -10.2401  -14.8076 O   0  0  0  0  0  0  0  0  0  0  0  0
   22.1932   -7.3275  -11.6411 C   0  0  0  0  0  0  0  0  0  0  0  0
   20.9115   -6.5056  -11.6863 C   0  0  2  0  0  0  0  0  0  0  0  0
   19.7450   -7.3109  -11.4960 N   0  0  0  0  0  0  0  0  0  0  0  0
   20.8687   -5.8929  -13.0532 C   0  0  0  0  0  0  0  0  0  0  0  0
   21.6925   -4.8483  -13.3737 O   0  0  0  0  0  0  0  0  0  0  0  0
   20.0603   -6.3599  -13.8965 O   0  0  0  0  0  0  0  0  0  0  0  0
  1  2  1  0
  3  4  2  0
  3  2  1  0
  5  3  1  0
  6  5  1  0
  6 11  1  0
  6  7  1  6
  8  7  1  0
  9  8  1  0
 10  9  2  0
 11 12  2  0
 13  9  1  0
 15 14  1  6
 16 11  1  0
 16 15  1  0
 17 18  1  0
 17 15  1  0
 19 17  2  0
M  END
$$$$
