GEA.pdb
     RDKit          3D

 19 18  0  0  1  0  0  0  0  0999 V2000
   14.3518   -8.0878   -7.9040 N   0  0  0  0  0  0  0  0  0  0  0  0
   15.4314   -7.1519   -8.1534 C   0  0  0  0  0  0  0  0  0  0  0  0
   16.2741   -7.5913   -9.3042 C   0  0  0  0  0  0  0  0  0  0  0  0
   16.5593   -8.7824   -9.4800 O   0  0  0  0  0  0  0  0  0  0  0  0
   16.7590   -6.6312  -10.2147 N   0  0  0  0  0  0  0  0  0  0  0  0
   17.4676   -6.9397  -11.4257 C   0  0  1  0  0  0  0  0  0  0  0  0
   16.6333   -6.4432  -12.5909 C   0  0  0  0  0  0  0  0  0  0  0  0
   17.2498   -6.8811  -13.9093 C   0  0  0  0  0  0  0  0  0  0  0  0
   16.4596   -6.4431  -15.0647 C   0  0  0  0  0  0  0  0  0  0  0  0
   15.9770   -7.3304  -15.8142 O   0  0  0  0  0  0  0  0  0  0  0  0
   18.8373   -6.4357  -11.4513 C   0  0  0  0  0  0  0  0  0  0  0  0
   19.1244   -5.3170  -10.9558 O   0  0  0  0  0  0  0  0  0  0  0  0
   16.2648   -5.0935  -15.3022 O   0  0  0  0  0  0  0  0  0  0  0  0
   22.1318   -7.8358  -12.7733 C   0  0  0  0  0  0  0  0  0  0  0  0
   21.2445   -6.7776  -12.1306 C   0  0  2  0  0  0  0  0  0  0  0  0
   19.8807   -7.1984  -12.0378 N   0  0  0  0  0  0  0  0  0  0  0  0
   21.3294   -5.5776  -13.0240 C   0  0  0  0  0  0  0  0  0  0  0  0
   22.3114   -4.6421  -12.8415 O   0  0  0  0  0  0  0  0  0  0  0  0
   20.4795   -5.4506  -13.9429 O   0  0  0  0  0  0  0  0  0  0  0  0
  1  2  1  0
  3  4  2  0
  3  2  1  0
  5  3  1  0
  6  5  1  0
  6 11  1  0
  6  7  1  6
  8  7  1  0
  9  8  1  0
 10  9  2  0
 11 12  2  0
 13  9  1  0
 15 14  1  6
 16 11  1  0
 16 15  1  0
 17 18  1  0
 17 15  1  0
 19 17  2  0
M  END
$$$$
