GEA.pdb
     RDKit          3D

 19 18  0  0  1  0  0  0  0  0999 V2000
   15.4944   -7.5646   -7.9612 N   0  0  0  0  0  0  0  0  0  0  0  0
   15.7855   -6.9693   -9.2513 C   0  0  0  0  0  0  0  0  0  0  0  0
   16.7635   -7.7941  -10.0201 C   0  0  0  0  0  0  0  0  0  0  0  0
   17.6608   -8.4299   -9.4531 O   0  0  0  0  0  0  0  0  0  0  0  0
   16.6671   -7.8535  -11.4248 N   0  0  0  0  0  0  0  0  0  0  0  0
   17.5450   -8.6125  -12.2716 C   0  0  1  0  0  0  0  0  0  0  0  0
   16.7186   -9.1738  -13.4127 C   0  0  0  0  0  0  0  0  0  0  0  0
   15.8176  -10.2922  -12.9150 C   0  0  0  0  0  0  0  0  0  0  0  0
   14.9603  -10.8291  -13.9771 C   0  0  0  0  0  0  0  0  0  0  0  0
   13.7592  -11.0715  -13.6935 O   0  0  0  0  0  0  0  0  0  0  0  0
   18.7130   -7.8659  -12.7289 C   0  0  0  0  0  0  0  0  0  0  0  0
   18.6653   -6.6192  -12.8808 O   0  0  0  0  0  0  0  0  0  0  0  0
   15.4777  -11.0534  -15.2411 O   0  0  0  0  0  0  0  0  0  0  0  0
   22.2804   -8.8603  -13.6469 C   0  0  0  0  0  0  0  0  0  0  0  0
   21.1085   -7.8950  -13.5252 C   0  0  2  0  0  0  0  0  0  0  0  0
   19.9340   -8.5311  -13.0138 N   0  0  0  0  0  0  0  0  0  0  0  0
   20.8375   -7.4061  -14.9155 C   0  0  0  0  0  0  0  0  0  0  0  0
   21.5308   -6.3429  -15.4269 O   0  0  0  0  0  0  0  0  0  0  0  0
   19.9603   -7.9940  -15.5995 O   0  0  0  0  0  0  0  0  0  0  0  0
  1  2  1  0
  3  4  2  0
  3  2  1  0
  5  3  1  0
  6  5  1  0
  6 11  1  0
  6  7  1  6
  8  7  1  0
  9  8  1  0
 10  9  2  0
 11 12  2  0
 13  9  1  0
 15 14  1  6
 16 11  1  0
 16 15  1  0
 17 18  1  0
 17 15  1  0
 19 17  2  0
M  END
$$$$
