GEA.pdb
     RDKit          3D

 19 18  0  0  1  0  0  0  0  0999 V2000
   16.7225  -11.9296  -15.0398 N   0  0  0  0  0  0  0  0  0  0  0  0
   16.3296  -10.5457  -14.8548 C   0  0  0  0  0  0  0  0  0  0  0  0
   17.4406   -9.6150  -15.2110 C   0  0  0  0  0  0  0  0  0  0  0  0
   18.5708  -10.0334  -15.4910 O   0  0  0  0  0  0  0  0  0  0  0  0
   17.2022   -8.2262  -15.2304 N   0  0  0  0  0  0  0  0  0  0  0  0
   18.1652   -7.2384  -15.6311 C   0  0  1  0  0  0  0  0  0  0  0  0
   17.4068   -6.0548  -16.2004 C   0  0  0  0  0  0  0  0  0  0  0  0
   18.3726   -5.0387  -16.7876 C   0  0  0  0  0  0  0  0  0  0  0  0
   17.6874   -3.8340  -17.2678 C   0  0  0  0  0  0  0  0  0  0  0  0
   18.3884   -2.9325  -17.7947 O   0  0  0  0  0  0  0  0  0  0  0  0
   19.0969   -6.8609  -14.5726 C   0  0  0  0  0  0  0  0  0  0  0  0
   18.6809   -6.4993  -13.4431 O   0  0  0  0  0  0  0  0  0  0  0  0
   16.3148   -3.7155  -17.1347 O   0  0  0  0  0  0  0  0  0  0  0  0
   22.8186   -7.3650  -14.1537 C   0  0  0  0  0  0  0  0  0  0  0  0
   21.4881   -6.7278  -13.7743 C   0  0  2  0  0  0  0  0  0  0  0  0
   20.4985   -6.8933  -14.7935 N   0  0  0  0  0  0  0  0  0  0  0  0
   21.7720   -5.2672  -13.5968 C   0  0  0  0  0  0  0  0  0  0  0  0
   21.2151   -4.3427  -14.4380 O   0  0  0  0  0  0  0  0  0  0  0  0
   22.5320   -4.9119  -12.6592 O   0  0  0  0  0  0  0  0  0  0  0  0
  1  2  1  0
  3  4  2  0
  3  2  1  0
  5  3  1  0
  6  5  1  0
  6 11  1  0
  6  7  1  1
  8  7  1  0
  9  8  1  0
 10  9  2  0
 11 12  2  0
 13  9  1  0
 15 14  1  6
 16 11  1  0
 16 15  1  0
 17 18  1  0
 17 15  1  0
 19 17  2  0
M  END
$$$$
