GEA.pdb
     RDKit          3D

 19 18  0  0  1  0  0  0  0  0999 V2000
    9.2392   -9.4808   -9.1318 N   0  0  0  0  0  0  0  0  0  0  0  0
    9.7231   -8.6079  -10.1842 C   0  0  0  0  0  0  0  0  0  0  0  0
   11.0780   -8.0710   -9.8624 C   0  0  0  0  0  0  0  0  0  0  0  0
   11.6066   -8.2661   -8.7608 O   0  0  0  0  0  0  0  0  0  0  0  0
   11.7759   -7.3237  -10.8322 N   0  0  0  0  0  0  0  0  0  0  0  0
   13.1106   -6.8182  -10.6681 C   0  0  1  0  0  0  0  0  0  0  0  0
   13.9226   -7.2518  -11.8733 C   0  0  0  0  0  0  0  0  0  0  0  0
   13.3430   -6.6559  -13.1457 C   0  0  0  0  0  0  0  0  0  0  0  0
   14.1174   -7.0257  -14.3352 C   0  0  0  0  0  0  0  0  0  0  0  0
   13.7086   -6.6141  -15.4512 O   0  0  0  0  0  0  0  0  0  0  0  0
   13.1700   -5.3792  -10.4300 C   0  0  0  0  0  0  0  0  0  0  0  0
   12.4429   -4.5855  -11.0787 O   0  0  0  0  0  0  0  0  0  0  0  0
   15.2562   -7.8021  -14.2094 O   0  0  0  0  0  0  0  0  0  0  0  0
   14.7255   -3.2906   -7.6800 C   0  0  0  0  0  0  0  0  0  0  0  0
   14.0695   -3.4715   -9.0428 C   0  0  2  0  0  0  0  0  0  0  0  0
   14.0525   -4.8400   -9.4580 N   0  0  0  0  0  0  0  0  0  0  0  0
   14.9003   -2.6762  -10.0034 C   0  0  0  0  0  0  0  0  0  0  0  0
   15.5715   -3.2963  -11.0220 O   0  0  0  0  0  0  0  0  0  0  0  0
   14.9660   -1.4289   -9.8521 O   0  0  0  0  0  0  0  0  0  0  0  0
  1  2  1  0
  3  4  2  0
  3  2  1  0
  5  3  1  0
  6  5  1  0
  6 11  1  0
  6  7  1  6
  8  7  1  0
  9  8  1  0
 10  9  2  0
 11 12  2  0
 13  9  1  0
 15 14  1  1
 16 11  1  0
 16 15  1  0
 17 18  1  0
 17 15  1  0
 19 17  2  0
M  END
$$$$
