YCK.pdb
     RDKit          3D

 28 28  0  0  1  0  0  0  0  0999 V2000
    5.4040  -10.5851   28.4138 O   0  0  0  0  0  0  0  0  0  0  0  0
    5.9798  -11.5039   27.5295 C   0  0  0  0  0  0  0  0  0  0  0  0
    5.2733  -11.9646   26.4575 C   0  0  0  0  0  0  0  0  0  0  0  0
    5.8360  -12.8836   25.5645 C   0  0  0  0  0  0  0  0  0  0  0  0
    7.1255  -13.3517   25.7431 C   0  0  0  0  0  0  0  0  0  0  0  0
    7.7313  -14.3127   24.8199 C   0  0  0  0  0  0  0  0  0  0  0  0
    6.8512  -15.4804   24.4789 C   0  0  2  0  0  0  0  0  0  0  0  0
    6.5492  -16.3170   25.5974 N   0  0  0  0  0  0  0  0  0  0  0  0
    7.5551  -16.2379   23.3980 C   0  0  0  0  0  0  0  0  0  0  0  0
    8.1278  -17.3149   23.6801 O   0  0  0  0  0  0  0  0  0  0  0  0
    7.8169  -12.8696   26.8344 C   0  0  0  0  0  0  0  0  0  0  0  0
    7.2745  -11.9630   27.7233 C   0  0  0  0  0  0  0  0  0  0  0  0
    7.6039  -15.7858   22.0515 N   0  0  0  0  0  0  0  0  0  0  0  0
    8.4111  -16.4154   21.0268 C   0  0  1  0  0  0  0  0  0  0  0  0
    8.1797  -15.6243   19.7319 C   0  0  0  0  0  0  0  0  0  0  0  0
    8.4646  -13.8749   20.0144 S   0  0  0  0  0  0  0  0  0  0  0  0
    9.8453  -16.4341   21.3818 C   0  0  0  0  0  0  0  0  0  0  0  0
   10.4727  -15.3617   21.5629 O   0  0  0  0  0  0  0  0  0  0  0  0
   10.5696  -17.6441   21.5325 N   0  0  0  0  0  0  0  0  0  0  0  0
   11.9880  -17.6716   21.8986 C   0  0  1  0  0  0  0  0  0  0  0  0
   12.1370  -18.7040   22.9738 C   0  0  0  0  0  0  0  0  0  0  0  0
   11.6099  -18.3057   24.3100 C   0  0  0  0  0  0  0  0  0  0  0  0
   11.6280  -19.4253   25.3172 C   0  0  0  0  0  0  0  0  0  0  0  0
   10.8886  -19.0612   26.5857 C   0  0  0  0  0  0  0  0  0  0  0  0
   10.7362  -20.1900   27.4681 N   0  0  0  0  0  0  0  0  0  0  0  0
   12.8296  -17.9503   20.7160 C   0  0  0  0  0  0  0  0  0  0  0  0
   14.0950  -17.8967   20.8225 O   0  0  0  0  0  0  0  0  0  0  0  0
   12.3404  -18.2744   19.4673 O   0  0  0  0  0  0  0  0  0  0  0  0
  2  1  1  0
  2 12  2  0
  3  2  1  0
  4  3  2  0
  4  5  1  0
  5 11  2  0
  6  5  1  0
  7  9  1  0
  7  6  1  0
  7  8  1  1
  9 10  2  0
 11 12  1  0
 13  9  1  0
 13 14  1  0
 14 17  1  0
 15 16  1  0
 14 15  1  6
 17 18  2  0
 19 17  1  0
 19 20  1  0
 20 26  1  0
 20 21  1  1
 22 21  1  0
 23 22  1  0
 24 23  1  0
 25 24  1  0
 26 27  2  0
 26 28  1  0
M  END
$$$$
