YCK.pdb
     RDKit          3D

 28 28  0  0  1  0  0  0  0  0999 V2000
    7.6830  -11.9165   17.3313 O   0  0  0  0  0  0  0  0  0  0  0  0
    7.8925  -12.7512   18.4347 C   0  0  0  0  0  0  0  0  0  0  0  0
    6.8334  -13.3159   19.0827 C   0  0  0  0  0  0  0  0  0  0  0  0
    7.0275  -14.1527   20.1876 C   0  0  0  0  0  0  0  0  0  0  0  0
    8.2994  -14.4316   20.6547 C   0  0  0  0  0  0  0  0  0  0  0  0
    8.5224  -15.3044   21.8084 C   0  0  0  0  0  0  0  0  0  0  0  0
    9.0315  -16.6729   21.4582 C   0  0  2  0  0  0  0  0  0  0  0  0
    8.1589  -17.4062   20.5963 N   0  0  0  0  0  0  0  0  0  0  0  0
    9.2526  -17.3854   22.7547 C   0  0  0  0  0  0  0  0  0  0  0  0
    8.5874  -18.4156   23.0070 O   0  0  0  0  0  0  0  0  0  0  0  0
    9.3515  -13.8477   19.9813 C   0  0  0  0  0  0  0  0  0  0  0  0
    9.1749  -13.0203   18.8901 C   0  0  0  0  0  0  0  0  0  0  0  0
   10.1934  -16.9416   23.7231 N   0  0  0  0  0  0  0  0  0  0  0  0
   10.5453  -17.7049   24.9026 C   0  0  1  0  0  0  0  0  0  0  0  0
   11.2250  -18.9908   24.4120 C   0  0  0  0  0  0  0  0  0  0  0  0
   12.0810  -18.6879   22.8637 S   0  0  0  0  0  0  0  0  0  0  0  0
   11.4378  -16.9511   25.8073 C   0  0  0  0  0  0  0  0  0  0  0  0
   12.3305  -16.1995   25.3439 O   0  0  0  0  0  0  0  0  0  0  0  0
   11.3306  -17.0389   27.2188 N   0  0  0  0  0  0  0  0  0  0  0  0
   10.8639  -15.9215   28.0435 C   0  0  1  0  0  0  0  0  0  0  0  0
    9.4890  -15.5731   27.5613 C   0  0  0  0  0  0  0  0  0  0  0  0
    9.1661  -14.1180   27.5692 C   0  0  0  0  0  0  0  0  0  0  0  0
    7.7722  -13.8128   27.0874 C   0  0  0  0  0  0  0  0  0  0  0  0
    7.4288  -12.3466   27.2313 C   0  0  0  0  0  0  0  0  0  0  0  0
    6.0689  -12.0672   26.8458 N   0  0  0  0  0  0  0  0  0  0  0  0
   10.8949  -16.2789   29.4772 C   0  0  0  0  0  0  0  0  0  0  0  0
   11.0841  -15.3691   30.3444 O   0  0  0  0  0  0  0  0  0  0  0  0
   10.7301  -17.5579   29.9677 O   0  0  0  0  0  0  0  0  0  0  0  0
  2  1  1  0
  2 12  2  0
  3  2  1  0
  4  3  2  0
  4  5  1  0
  5 11  2  0
  6  5  1  0
  7  9  1  0
  7  6  1  0
  7  8  1  6
  9 10  2  0
 11 12  1  0
 13  9  1  0
 13 14  1  0
 14 17  1  0
 15 16  1  0
 14 15  1  6
 17 18  2  0
 19 17  1  0
 19 20  1  0
 20 26  1  0
 20 21  1  6
 22 21  1  0
 23 22  1  0
 24 23  1  0
 25 24  1  0
 26 27  2  0
 26 28  1  0
M  END
$$$$
