YCK.pdb
     RDKit          3D

 28 28  0  0  1  0  0  0  0  0999 V2000
    5.8887  -11.0292   28.6687 O   0  0  0  0  0  0  0  0  0  0  0  0
    6.3631  -11.8869   27.6700 C   0  0  0  0  0  0  0  0  0  0  0  0
    5.6675  -12.0421   26.5070 C   0  0  0  0  0  0  0  0  0  0  0  0
    6.1296  -12.8963   25.4993 C   0  0  0  0  0  0  0  0  0  0  0  0
    7.3055  -13.6083   25.6535 C   0  0  0  0  0  0  0  0  0  0  0  0
    7.8051  -14.5063   24.6110 C   0  0  0  0  0  0  0  0  0  0  0  0
    6.8796  -15.6408   24.2778 C   0  0  2  0  0  0  0  0  0  0  0  0
    6.5585  -16.4672   25.3985 N   0  0  0  0  0  0  0  0  0  0  0  0
    7.5447  -16.4221   23.1893 C   0  0  0  0  0  0  0  0  0  0  0  0
    8.0065  -17.5571   23.4464 O   0  0  0  0  0  0  0  0  0  0  0  0
    7.9884  -13.4328   26.8385 C   0  0  0  0  0  0  0  0  0  0  0  0
    7.5445  -12.5937   27.8410 C   0  0  0  0  0  0  0  0  0  0  0  0
    7.6777  -15.9294   21.8628 N   0  0  0  0  0  0  0  0  0  0  0  0
    8.4815  -16.5779   20.8473 C   0  0  1  0  0  0  0  0  0  0  0  0
    8.1317  -15.9087   19.5109 C   0  0  0  0  0  0  0  0  0  0  0  0
    7.9578  -14.1359   19.7317 S   0  0  0  0  0  0  0  0  0  0  0  0
    9.9279  -16.4666   21.1278 C   0  0  0  0  0  0  0  0  0  0  0  0
   10.4203  -15.3818   21.5244 O   0  0  0  0  0  0  0  0  0  0  0  0
   10.8145  -17.5616   20.9653 N   0  0  0  0  0  0  0  0  0  0  0  0
   11.9015  -17.8404   21.9073 C   0  0  1  0  0  0  0  0  0  0  0  0
   11.2720  -18.0086   23.2563 C   0  0  0  0  0  0  0  0  0  0  0  0
   12.2070  -18.4139   24.3441 C   0  0  0  0  0  0  0  0  0  0  0  0
   11.5242  -18.6291   25.6692 C   0  0  0  0  0  0  0  0  0  0  0  0
   12.4860  -19.1104   26.7331 C   0  0  0  0  0  0  0  0  0  0  0  0
   11.8355  -19.3079   28.0035 N   0  0  0  0  0  0  0  0  0  0  0  0
   12.6721  -19.0279   21.4825 C   0  0  0  0  0  0  0  0  0  0  0  0
   13.9423  -18.9824   21.4842 O   0  0  0  0  0  0  0  0  0  0  0  0
   12.1095  -20.2190   21.0720 O   0  0  0  0  0  0  0  0  0  0  0  0
  2  1  1  0
  2 12  2  0
  3  2  1  0
  4  3  2  0
  4  5  1  0
  5 11  2  0
  6  5  1  0
  7  9  1  0
  7  6  1  0
  7  8  1  1
  9 10  2  0
 11 12  1  0
 13  9  1  0
 13 14  1  0
 14 17  1  0
 15 16  1  0
 14 15  1  6
 17 18  2  0
 19 17  1  0
 19 20  1  0
 20 26  1  0
 20 21  1  1
 22 21  1  0
 23 22  1  0
 24 23  1  0
 25 24  1  0
 26 27  2  0
 26 28  1  0
M  END
$$$$
