YCK.pdb
     RDKit          3D

 28 28  0  0  1  0  0  0  0  0999 V2000
    4.0024  -23.3346   22.3712 O   0  0  0  0  0  0  0  0  0  0  0  0
    4.7102  -22.1845   22.7377 C   0  0  0  0  0  0  0  0  0  0  0  0
    6.0669  -22.1383   22.6041 C   0  0  0  0  0  0  0  0  0  0  0  0
    6.7881  -20.9949   22.9664 C   0  0  0  0  0  0  0  0  0  0  0  0
    6.1460  -19.8782   23.4706 C   0  0  0  0  0  0  0  0  0  0  0  0
    6.8830  -18.6733   23.8548 C   0  0  0  0  0  0  0  0  0  0  0  0
    6.8594  -17.5804   22.8253 C   0  0  2  0  0  0  0  0  0  0  0  0
    7.4721  -17.9456   21.5870 N   0  0  0  0  0  0  0  0  0  0  0  0
    7.5350  -16.3999   23.4476 C   0  0  0  0  0  0  0  0  0  0  0  0
    8.7832  -16.3149   23.4002 O   0  0  0  0  0  0  0  0  0  0  0  0
    4.7748  -19.9521   23.5951 C   0  0  0  0  0  0  0  0  0  0  0  0
    4.0504  -21.0732   23.2418 C   0  0  0  0  0  0  0  0  0  0  0  0
    6.8169  -15.3593   24.0969 N   0  0  0  0  0  0  0  0  0  0  0  0
    7.4292  -14.4159   25.0095 C   0  0  1  0  0  0  0  0  0  0  0  0
    6.3371  -13.4146   25.4107 C   0  0  0  0  0  0  0  0  0  0  0  0
    6.9502  -12.3037   26.6801 S   0  0  0  0  0  0  0  0  0  0  0  0
    7.9949  -15.0818   26.2011 C   0  0  0  0  0  0  0  0  0  0  0  0
    7.3151  -15.9133   26.8515 O   0  0  0  0  0  0  0  0  0  0  0  0
    9.3108  -14.8179   26.6596 N   0  0  0  0  0  0  0  0  0  0  0  0
    9.8740  -15.4632   27.8483 C   0  0  1  0  0  0  0  0  0  0  0  0
   11.1110  -16.1823   27.4047 C   0  0  0  0  0  0  0  0  0  0  0  0
   11.7484  -17.0425   28.4418 C   0  0  0  0  0  0  0  0  0  0  0  0
   13.0033  -17.7243   27.9635 C   0  0  0  0  0  0  0  0  0  0  0  0
   13.5441  -18.7014   28.9840 C   0  0  0  0  0  0  0  0  0  0  0  0
   14.6478  -19.4702   28.4676 N   0  0  0  0  0  0  0  0  0  0  0  0
   10.1387  -14.4687   28.9092 C   0  0  0  0  0  0  0  0  0  0  0  0
   10.1710  -13.2329   28.6137 O   0  0  0  0  0  0  0  0  0  0  0  0
   10.3599  -14.7802   30.2349 O   0  0  0  0  0  0  0  0  0  0  0  0
  2  1  1  0
  2 12  2  0
  3  2  1  0
  4  3  2  0
  4  5  1  0
  5 11  2  0
  6  5  1  0
  7  9  1  0
  7  6  1  0
  7  8  1  6
  9 10  2  0
 11 12  1  0
 13  9  1  0
 13 14  1  0
 14 17  1  0
 15 16  1  0
 14 15  1  1
 17 18  2  0
 19 17  1  0
 19 20  1  0
 20 26  1  0
 20 21  1  6
 22 21  1  0
 23 22  1  0
 24 23  1  0
 25 24  1  0
 26 27  2  0
 26 28  1  0
M  END
$$$$
