YCK.pdb
     RDKit          3D

 28 28  0  0  1  0  0  0  0  0999 V2000
    8.0787  -22.6283   29.5693 O   0  0  0  0  0  0  0  0  0  0  0  0
    7.9368  -21.5244   28.7213 C   0  0  0  0  0  0  0  0  0  0  0  0
    6.6970  -21.0437   28.4172 C   0  0  0  0  0  0  0  0  0  0  0  0
    6.5394  -19.9405   27.5706 C   0  0  0  0  0  0  0  0  0  0  0  0
    7.6367  -19.3052   27.0174 C   0  0  0  0  0  0  0  0  0  0  0  0
    7.4922  -18.1501   26.1300 C   0  0  0  0  0  0  0  0  0  0  0  0
    6.6241  -18.3980   24.9302 C   0  0  2  0  0  0  0  0  0  0  0  0
    6.8754  -19.6502   24.2892 N   0  0  0  0  0  0  0  0  0  0  0  0
    6.8502  -17.2478   24.0010 C   0  0  0  0  0  0  0  0  0  0  0  0
    7.3016  -17.4683   22.8542 O   0  0  0  0  0  0  0  0  0  0  0  0
    8.8777  -19.8117   27.3413 C   0  0  0  0  0  0  0  0  0  0  0  0
    9.0480  -20.8990   28.1749 C   0  0  0  0  0  0  0  0  0  0  0  0
    6.5730  -15.9021   24.3645 N   0  0  0  0  0  0  0  0  0  0  0  0
    7.3427  -14.7716   23.8875 C   0  0  1  0  0  0  0  0  0  0  0  0
    6.6180  -13.5071   24.3692 C   0  0  0  0  0  0  0  0  0  0  0  0
    6.1107  -13.6966   26.0804 S   0  0  0  0  0  0  0  0  0  0  0  0
    8.7353  -14.7991   24.3806 C   0  0  0  0  0  0  0  0  0  0  0  0
    9.0420  -14.2364   25.4604 O   0  0  0  0  0  0  0  0  0  0  0  0
    9.7747  -15.4515   23.6697 N   0  0  0  0  0  0  0  0  0  0  0  0
   11.0785  -15.7413   24.2723 C   0  0  1  0  0  0  0  0  0  0  0  0
   10.8221  -16.6293   25.4512 C   0  0  0  0  0  0  0  0  0  0  0  0
   12.0422  -17.1963   26.0927 C   0  0  0  0  0  0  0  0  0  0  0  0
   11.7375  -18.1361   27.2294 C   0  0  0  0  0  0  0  0  0  0  0  0
   12.9942  -18.6319   27.9101 C   0  0  0  0  0  0  0  0  0  0  0  0
   12.7031  -19.4079   29.0887 N   0  0  0  0  0  0  0  0  0  0  0  0
   11.9898  -16.3523   23.2821 C   0  0  0  0  0  0  0  0  0  0  0  0
   13.2238  -16.4752   23.5604 O   0  0  0  0  0  0  0  0  0  0  0  0
   11.5999  -16.8153   22.0422 O   0  0  0  0  0  0  0  0  0  0  0  0
  2  1  1  0
  2 12  2  0
  3  2  1  0
  4  3  2  0
  4  5  1  0
  5 11  2  0
  6  5  1  0
  7  9  1  0
  7  6  1  0
  7  8  1  6
  9 10  2  0
 11 12  1  0
 13  9  1  0
 13 14  1  0
 14 17  1  0
 15 16  1  0
 14 15  1  1
 17 18  2  0
 19 17  1  0
 19 20  1  0
 20 26  1  0
 20 21  1  1
 22 21  1  0
 23 22  1  0
 24 23  1  0
 25 24  1  0
 26 27  2  0
 26 28  1  0
M  END
$$$$
