YCK.pdb
     RDKit          3D

 28 28  0  0  1  0  0  0  0  0999 V2000
   10.1458  -13.7238   30.6906 O   0  0  0  0  0  0  0  0  0  0  0  0
    9.8564  -14.1646   29.3945 C   0  0  0  0  0  0  0  0  0  0  0  0
   10.2570  -15.4014   28.9816 C   0  0  0  0  0  0  0  0  0  0  0  0
    9.9747  -15.8559   27.6884 C   0  0  0  0  0  0  0  0  0  0  0  0
    9.2812  -15.0638   26.7910 C   0  0  0  0  0  0  0  0  0  0  0  0
    8.9764  -15.5217   25.4345 C   0  0  0  0  0  0  0  0  0  0  0  0
    7.5092  -15.6143   25.1290 C   0  0  2  0  0  0  0  0  0  0  0  0
    6.8006  -16.5124   25.9855 N   0  0  0  0  0  0  0  0  0  0  0  0
    7.4018  -16.0211   23.6936 C   0  0  0  0  0  0  0  0  0  0  0  0
    6.9506  -17.1545   23.4118 O   0  0  0  0  0  0  0  0  0  0  0  0
    8.8884  -13.8187   27.2344 C   0  0  0  0  0  0  0  0  0  0  0  0
    9.1598  -13.3574   28.5071 C   0  0  0  0  0  0  0  0  0  0  0  0
    7.7928  -15.1708   22.6241 N   0  0  0  0  0  0  0  0  0  0  0  0
    7.9732  -15.6317   21.2629 C   0  0  1  0  0  0  0  0  0  0  0  0
    7.6923  -14.4318   20.3477 C   0  0  0  0  0  0  0  0  0  0  0  0
    8.1724  -12.9055   21.1610 S   0  0  0  0  0  0  0  0  0  0  0  0
    9.3325  -16.1625   21.0309 C   0  0  0  0  0  0  0  0  0  0  0  0
   10.3047  -15.7479   21.7088 O   0  0  0  0  0  0  0  0  0  0  0  0
    9.5997  -17.1492   20.0478 N   0  0  0  0  0  0  0  0  0  0  0  0
   10.9066  -17.7991   19.9202 C   0  0  1  0  0  0  0  0  0  0  0  0
   10.7402  -18.9147   18.9343 C   0  0  0  0  0  0  0  0  0  0  0  0
   11.9603  -19.7381   18.6995 C   0  0  0  0  0  0  0  0  0  0  0  0
   11.7487  -20.8493   17.7052 C   0  0  0  0  0  0  0  0  0  0  0  0
   12.9534  -21.7587   17.6035 C   0  0  0  0  0  0  0  0  0  0  0  0
   12.7488  -22.8271   16.6587 N   0  0  0  0  0  0  0  0  0  0  0  0
   11.9399  -16.8240   19.5131 C   0  0  0  0  0  0  0  0  0  0  0  0
   11.6327  -15.8846   18.7139 O   0  0  0  0  0  0  0  0  0  0  0  0
   13.2509  -16.8493   19.9422 O   0  0  0  0  0  0  0  0  0  0  0  0
  2  1  1  0
  2 12  2  0
  3  2  1  0
  4  3  2  0
  4  5  1  0
  5 11  2  0
  6  5  1  0
  7  9  1  0
  7  6  1  0
  7  8  1  1
  9 10  2  0
 11 12  1  0
 13  9  1  0
 13 14  1  0
 14 17  1  0
 15 16  1  0
 14 15  1  6
 17 18  2  0
 19 17  1  0
 19 20  1  0
 20 26  1  0
 20 21  1  6
 22 21  1  0
 23 22  1  0
 24 23  1  0
 25 24  1  0
 26 27  2  0
 26 28  1  0
M  END
$$$$
