YCK.pdb
     RDKit          3D

 28 28  0  0  1  0  0  0  0  0999 V2000
    5.6637  -10.5704   28.2841 O   0  0  0  0  0  0  0  0  0  0  0  0
    6.1871  -11.5482   27.4310 C   0  0  0  0  0  0  0  0  0  0  0  0
    5.7366  -11.6564   26.1480 C   0  0  0  0  0  0  0  0  0  0  0  0
    6.2507  -12.6294   25.2833 C   0  0  0  0  0  0  0  0  0  0  0  0
    7.2309  -13.5100   25.7047 C   0  0  0  0  0  0  0  0  0  0  0  0
    7.7810  -14.5340   24.8151 C   0  0  0  0  0  0  0  0  0  0  0  0
    6.8196  -15.6353   24.4723 C   0  0  2  0  0  0  0  0  0  0  0  0
    6.6318  -16.5816   25.5265 N   0  0  0  0  0  0  0  0  0  0  0  0
    7.3485  -16.2870   23.2341 C   0  0  0  0  0  0  0  0  0  0  0  0
    6.6287  -17.1069   22.6200 O   0  0  0  0  0  0  0  0  0  0  0  0
    7.6679  -13.3784   27.0058 C   0  0  0  0  0  0  0  0  0  0  0  0
    7.1699  -12.4234   27.8698 C   0  0  0  0  0  0  0  0  0  0  0  0
    8.6444  -16.0149   22.7179 N   0  0  0  0  0  0  0  0  0  0  0  0
    9.1247  -16.5323   21.4532 C   0  0  1  0  0  0  0  0  0  0  0  0
    8.2600  -15.8951   20.3566 C   0  0  0  0  0  0  0  0  0  0  0  0
    8.2157  -14.1122   20.5591 S   0  0  0  0  0  0  0  0  0  0  0  0
   10.5548  -16.2310   21.2360 C   0  0  0  0  0  0  0  0  0  0  0  0
   10.9812  -15.0537   21.3301 O   0  0  0  0  0  0  0  0  0  0  0  0
   11.4985  -17.2402   20.9161 N   0  0  0  0  0  0  0  0  0  0  0  0
   12.6026  -17.5970   21.8107 C   0  0  1  0  0  0  0  0  0  0  0  0
   12.6386  -19.0932   21.8775 C   0  0  0  0  0  0  0  0  0  0  0  0
   13.6478  -19.6599   22.8167 C   0  0  0  0  0  0  0  0  0  0  0  0
   13.6403  -21.1652   22.8643 C   0  0  0  0  0  0  0  0  0  0  0  0
   14.7439  -21.7121   23.7428 C   0  0  0  0  0  0  0  0  0  0  0  0
   14.8184  -23.1500   23.6888 N   0  0  0  0  0  0  0  0  0  0  0  0
   13.8740  -17.0140   21.3332 C   0  0  0  0  0  0  0  0  0  0  0  0
   14.8750  -16.9713   22.1153 O   0  0  0  0  0  0  0  0  0  0  0  0
   14.0707  -16.4965   20.0694 O   0  0  0  0  0  0  0  0  0  0  0  0
  2  1  1  0
  2 12  2  0
  3  2  1  0
  4  3  2  0
  4  5  1  0
  5 11  2  0
  6  5  1  0
  7  9  1  0
  7  6  1  0
  7  8  1  1
  9 10  2  0
 11 12  1  0
 13  9  1  0
 13 14  1  0
 14 17  1  0
 15 16  1  0
 14 15  1  6
 17 18  2  0
 19 17  1  0
 19 20  1  0
 20 26  1  0
 20 21  1  6
 22 21  1  0
 23 22  1  0
 24 23  1  0
 25 24  1  0
 26 27  2  0
 26 28  1  0
M  END
$$$$
