YCK.pdb
     RDKit          3D

 28 28  0  0  1  0  0  0  0  0999 V2000
    6.7938  -10.8234   28.0796 O   0  0  0  0  0  0  0  0  0  0  0  0
    6.7218  -11.6684   26.9667 C   0  0  0  0  0  0  0  0  0  0  0  0
    5.5258  -12.1974   26.5790 C   0  0  0  0  0  0  0  0  0  0  0  0
    5.4384  -13.0440   25.4680 C   0  0  0  0  0  0  0  0  0  0  0  0
    6.5627  -13.3691   24.7305 C   0  0  0  0  0  0  0  0  0  0  0  0
    6.4913  -14.2525   23.5656 C   0  0  0  0  0  0  0  0  0  0  0  0
    6.5042  -15.7165   23.8990 C   0  0  2  0  0  0  0  0  0  0  0  0
    6.9515  -15.9984   25.2267 N   0  0  0  0  0  0  0  0  0  0  0  0
    7.3712  -16.3753   22.8735 C   0  0  0  0  0  0  0  0  0  0  0  0
    6.8413  -16.8752   21.8553 O   0  0  0  0  0  0  0  0  0  0  0  0
    7.7583  -12.8208   25.1443 C   0  0  0  0  0  0  0  0  0  0  0  0
    7.8594  -11.9843   26.2381 C   0  0  0  0  0  0  0  0  0  0  0  0
    8.7839  -16.4604   23.0038 N   0  0  0  0  0  0  0  0  0  0  0  0
    9.6343  -17.1392   22.0478 C   0  0  1  0  0  0  0  0  0  0  0  0
    9.4546  -16.4183   20.7046 C   0  0  0  0  0  0  0  0  0  0  0  0
    9.9571  -14.7013   20.8500 S   0  0  0  0  0  0  0  0  0  0  0  0
   11.0526  -17.1326   22.4620 C   0  0  0  0  0  0  0  0  0  0  0  0
   11.5899  -16.0795   22.8849 O   0  0  0  0  0  0  0  0  0  0  0  0
   11.8614  -18.2961   22.4027 N   0  0  0  0  0  0  0  0  0  0  0  0
   13.2002  -18.3548   22.9952 C   0  0  1  0  0  0  0  0  0  0  0  0
   13.3720  -19.7401   23.5388 C   0  0  0  0  0  0  0  0  0  0  0  0
   12.5603  -20.0490   24.7503 C   0  0  0  0  0  0  0  0  0  0  0  0
   12.6452  -21.4916   25.1743 C   0  0  0  0  0  0  0  0  0  0  0  0
   11.7321  -21.7962   26.3413 C   0  0  0  0  0  0  0  0  0  0  0  0
   11.7933  -23.1820   26.7311 N   0  0  0  0  0  0  0  0  0  0  0  0
   14.2311  -17.9986   21.9979 C   0  0  0  0  0  0  0  0  0  0  0  0
   15.4379  -17.8547   22.3703 O   0  0  0  0  0  0  0  0  0  0  0  0
   13.9848  -17.8038   20.6544 O   0  0  0  0  0  0  0  0  0  0  0  0
  2  1  1  0
  2 12  2  0
  3  2  1  0
  4  3  2  0
  4  5  1  0
  5 11  2  0
  6  5  1  0
  7  9  1  0
  7  6  1  0
  7  8  1  1
  9 10  2  0
 11 12  1  0
 13  9  1  0
 13 14  1  0
 14 17  1  0
 15 16  1  0
 14 15  1  6
 17 18  2  0
 19 17  1  0
 19 20  1  0
 20 26  1  0
 20 21  1  6
 22 21  1  0
 23 22  1  0
 24 23  1  0
 25 24  1  0
 26 27  2  0
 26 28  1  0
M  END
$$$$
