YCK.pdb
     RDKit          3D

 28 28  0  0  1  0  0  0  0  0999 V2000
    5.3488  -11.1067   26.3657 O   0  0  0  0  0  0  0  0  0  0  0  0
    6.3344  -12.0994   26.3352 C   0  0  0  0  0  0  0  0  0  0  0  0
    6.2446  -13.1329   25.4496 C   0  0  0  0  0  0  0  0  0  0  0  0
    7.2227  -14.1330   25.4075 C   0  0  0  0  0  0  0  0  0  0  0  0
    8.3093  -14.1025   26.2631 C   0  0  0  0  0  0  0  0  0  0  0  0
    9.3425  -15.1391   26.2340 C   0  0  0  0  0  0  0  0  0  0  0  0
    9.1090  -16.2708   27.1928 C   0  0  2  0  0  0  0  0  0  0  0  0
    8.7391  -15.8434   28.5053 N   0  0  0  0  0  0  0  0  0  0  0  0
   10.3693  -17.0762   27.2099 C   0  0  0  0  0  0  0  0  0  0  0  0
   10.7473  -17.5967   28.2840 O   0  0  0  0  0  0  0  0  0  0  0  0
    8.3752  -13.0470   27.1478 C   0  0  0  0  0  0  0  0  0  0  0  0
    7.4178  -12.0535   27.2005 C   0  0  0  0  0  0  0  0  0  0  0  0
   11.1655  -17.2795   26.0503 N   0  0  0  0  0  0  0  0  0  0  0  0
   12.2281  -18.2607   25.9736 C   0  0  1  0  0  0  0  0  0  0  0  0
   11.5836  -19.6322   26.2176 C   0  0  0  0  0  0  0  0  0  0  0  0
   12.8218  -20.9272   26.1111 S   0  0  0  0  0  0  0  0  0  0  0  0
   12.9203  -18.2301   24.6686 C   0  0  0  0  0  0  0  0  0  0  0  0
   12.2699  -18.3178   23.5981 O   0  0  0  0  0  0  0  0  0  0  0  0
   14.3289  -18.1024   24.5643 N   0  0  0  0  0  0  0  0  0  0  0  0
   14.9928  -17.7016   23.3212 C   0  0  1  0  0  0  0  0  0  0  0  0
   14.7804  -18.8134   22.3398 C   0  0  0  0  0  0  0  0  0  0  0  0
   15.3049  -20.1418   22.7664 C   0  0  0  0  0  0  0  0  0  0  0  0
   15.6973  -21.0274   21.6131 C   0  0  0  0  0  0  0  0  0  0  0  0
   16.3054  -22.3319   22.0788 C   0  0  0  0  0  0  0  0  0  0  0  0
   16.6858  -23.1777   20.9762 N   0  0  0  0  0  0  0  0  0  0  0  0
   14.4689  -16.4056   22.8411 C   0  0  0  0  0  0  0  0  0  0  0  0
   13.3630  -16.3714   22.2155 O   0  0  0  0  0  0  0  0  0  0  0  0
   15.1001  -15.1922   23.0216 O   0  0  0  0  0  0  0  0  0  0  0  0
  2  1  1  0
  2 12  2  0
  3  2  1  0
  4  3  2  0
  4  5  1  0
  5 11  2  0
  6  5  1  0
  7  9  1  0
  7  6  1  0
  7  8  1  1
  9 10  2  0
 11 12  1  0
 13  9  1  0
 13 14  1  0
 14 17  1  0
 15 16  1  0
 14 15  1  6
 17 18  2  0
 19 17  1  0
 19 20  1  0
 20 26  1  0
 20 21  1  6
 22 21  1  0
 23 22  1  0
 24 23  1  0
 25 24  1  0
 26 27  2  0
 26 28  1  0
M  END
$$$$
