YCK.pdb
     RDKit          3D

 28 28  0  0  1  0  0  0  0  0999 V2000
    7.1477  -14.3448   15.5664 O   0  0  0  0  0  0  0  0  0  0  0  0
    7.3565  -14.1575   16.9373 C   0  0  0  0  0  0  0  0  0  0  0  0
    8.0364  -15.0898   17.6647 C   0  0  0  0  0  0  0  0  0  0  0  0
    8.2529  -14.9161   19.0364 C   0  0  0  0  0  0  0  0  0  0  0  0
    7.7835  -13.7936   19.6947 C   0  0  0  0  0  0  0  0  0  0  0  0
    8.0001  -13.5942   21.1285 C   0  0  0  0  0  0  0  0  0  0  0  0
    8.4697  -14.8195   21.8584 C   0  0  2  0  0  0  0  0  0  0  0  0
    7.5114  -15.8795   21.8755 N   0  0  0  0  0  0  0  0  0  0  0  0
    8.8259  -14.3760   23.2418 C   0  0  0  0  0  0  0  0  0  0  0  0
    8.9084  -13.1513   23.4887 O   0  0  0  0  0  0  0  0  0  0  0  0
    7.0998  -12.8676   18.9356 C   0  0  0  0  0  0  0  0  0  0  0  0
    6.8788  -13.0258   17.5819 C   0  0  0  0  0  0  0  0  0  0  0  0
    9.0776  -15.2910   24.2998 N   0  0  0  0  0  0  0  0  0  0  0  0
    9.3601  -14.8808   25.6598 C   0  0  1  0  0  0  0  0  0  0  0  0
    8.2531  -13.8976   26.0652 C   0  0  0  0  0  0  0  0  0  0  0  0
    8.5014  -13.3465   27.7552 S   0  0  0  0  0  0  0  0  0  0  0  0
    9.4089  -16.0290   26.5884 C   0  0  0  0  0  0  0  0  0  0  0  0
    8.3620  -16.6555   26.8854 O   0  0  0  0  0  0  0  0  0  0  0  0
   10.6202  -16.4711   27.1789 N   0  0  0  0  0  0  0  0  0  0  0  0
   10.6812  -17.6249   28.0799 C   0  0  1  0  0  0  0  0  0  0  0  0
   11.6853  -18.5735   27.5002 C   0  0  0  0  0  0  0  0  0  0  0  0
   11.5072  -18.8749   26.0513 C   0  0  0  0  0  0  0  0  0  0  0  0
   12.5052  -19.8705   25.5213 C   0  0  0  0  0  0  0  0  0  0  0  0
   12.2731  -20.1857   24.0600 C   0  0  0  0  0  0  0  0  0  0  0  0
   13.2533  -21.1052   23.5407 N   0  0  0  0  0  0  0  0  0  0  0  0
   11.0211  -17.1999   29.4540 C   0  0  0  0  0  0  0  0  0  0  0  0
   11.3774  -15.9985   29.6668 O   0  0  0  0  0  0  0  0  0  0  0  0
   10.9822  -18.0246   30.5594 O   0  0  0  0  0  0  0  0  0  0  0  0
  2  1  1  0
  2 12  2  0
  3  2  1  0
  4  3  2  0
  4  5  1  0
  5 11  2  0
  6  5  1  0
  7  9  1  0
  7  6  1  0
  7  8  1  1
  9 10  2  0
 11 12  1  0
 13  9  1  0
 13 14  1  0
 14 17  1  0
 15 16  1  0
 14 15  1  1
 17 18  2  0
 19 17  1  0
 19 20  1  0
 20 26  1  0
 20 21  1  6
 22 21  1  0
 23 22  1  0
 24 23  1  0
 25 24  1  0
 26 27  2  0
 26 28  1  0
M  END
$$$$
