YCK.pdb
     RDKit          3D

 28 28  0  0  1  0  0  0  0  0999 V2000
   10.6082  -15.2375   30.8164 O   0  0  0  0  0  0  0  0  0  0  0  0
    9.9836  -15.1109   29.5708 C   0  0  0  0  0  0  0  0  0  0  0  0
    9.3956  -13.9339   29.2109 C   0  0  0  0  0  0  0  0  0  0  0  0
    8.7672  -13.7925   27.9684 C   0  0  0  0  0  0  0  0  0  0  0  0
    8.7241  -14.8426   27.0688 C   0  0  0  0  0  0  0  0  0  0  0  0
    8.0718  -14.7139   25.7647 C   0  0  0  0  0  0  0  0  0  0  0  0
    7.2872  -15.9233   25.3448 C   0  0  2  0  0  0  0  0  0  0  0  0
    7.4041  -17.0248   26.2476 N   0  0  0  0  0  0  0  0  0  0  0  0
    7.7655  -16.2812   23.9734 C   0  0  0  0  0  0  0  0  0  0  0  0
    8.3496  -17.3743   23.7960 O   0  0  0  0  0  0  0  0  0  0  0  0
    9.3261  -16.0205   27.4581 C   0  0  0  0  0  0  0  0  0  0  0  0
    9.9495  -16.1742   28.6804 C   0  0  0  0  0  0  0  0  0  0  0  0
    7.5852  -15.4281   22.8511 N   0  0  0  0  0  0  0  0  0  0  0  0
    8.0571  -15.7495   21.5201 C   0  0  1  0  0  0  0  0  0  0  0  0
    7.3808  -14.7617   20.5594 C   0  0  0  0  0  0  0  0  0  0  0  0
    5.6141  -15.0715   20.4936 S   0  0  0  0  0  0  0  0  0  0  0  0
    9.5283  -15.6608   21.4150 C   0  0  0  0  0  0  0  0  0  0  0  0
   10.1831  -14.9394   22.2071 O   0  0  0  0  0  0  0  0  0  0  0  0
   10.2590  -16.3744   20.4310 N   0  0  0  0  0  0  0  0  0  0  0  0
   11.5455  -17.0147   20.7165 C   0  0  1  0  0  0  0  0  0  0  0  0
   11.3154  -17.9572   21.8580 C   0  0  0  0  0  0  0  0  0  0  0  0
   12.3052  -17.8591   22.9681 C   0  0  0  0  0  0  0  0  0  0  0  0
   12.0373  -18.8228   24.0941 C   0  0  0  0  0  0  0  0  0  0  0  0
   13.1642  -18.8462   25.1031 C   0  0  0  0  0  0  0  0  0  0  0  0
   12.8410  -19.6428   26.2594 N   0  0  0  0  0  0  0  0  0  0  0  0
   12.0737  -17.6905   19.5129 C   0  0  0  0  0  0  0  0  0  0  0  0
   13.3229  -17.9024   19.4123 O   0  0  0  0  0  0  0  0  0  0  0  0
   11.2991  -18.1243   18.4568 O   0  0  0  0  0  0  0  0  0  0  0  0
  2  1  1  0
  2 12  2  0
  3  2  1  0
  4  3  2  0
  4  5  1  0
  5 11  2  0
  6  5  1  0
  7  9  1  0
  7  6  1  0
  7  8  1  1
  9 10  2  0
 11 12  1  0
 13  9  1  0
 13 14  1  0
 14 17  1  0
 15 16  1  0
 14 15  1  6
 17 18  2  0
 19 17  1  0
 19 20  1  0
 20 26  1  0
 20 21  1  1
 22 21  1  0
 23 22  1  0
 24 23  1  0
 25 24  1  0
 26 27  2  0
 26 28  1  0
M  END
$$$$
