YCK.pdb
     RDKit          3D

 28 28  0  0  1  0  0  0  0  0999 V2000
    6.3091  -10.9284   28.0143 O   0  0  0  0  0  0  0  0  0  0  0  0
    6.7096  -11.6588   26.8901 C   0  0  0  0  0  0  0  0  0  0  0  0
    5.7956  -12.0315   25.9487 C   0  0  0  0  0  0  0  0  0  0  0  0
    6.1814  -12.7621   24.8191 C   0  0  0  0  0  0  0  0  0  0  0  0
    7.5012  -13.1278   24.6244 C   0  0  0  0  0  0  0  0  0  0  0  0
    7.9240  -13.8917   23.4495 C   0  0  0  0  0  0  0  0  0  0  0  0
    7.8677  -15.3815   23.6286 C   0  0  2  0  0  0  0  0  0  0  0  0
    7.8387  -15.7941   24.9964 N   0  0  0  0  0  0  0  0  0  0  0  0
    9.0557  -15.9380   22.9099 C   0  0  0  0  0  0  0  0  0  0  0  0
    9.2012  -15.6948   21.6904 O   0  0  0  0  0  0  0  0  0  0  0  0
    8.4039  -12.7382   25.5912 C   0  0  0  0  0  0  0  0  0  0  0  0
    8.0376  -12.0173   26.7104 C   0  0  0  0  0  0  0  0  0  0  0  0
   10.0369  -16.7385   23.5551 N   0  0  0  0  0  0  0  0  0  0  0  0
   11.1813  -17.3044   22.8711 C   0  0  1  0  0  0  0  0  0  0  0  0
   12.0036  -16.1253   22.3328 C   0  0  0  0  0  0  0  0  0  0  0  0
   12.9790  -15.3961   23.6513 S   0  0  0  0  0  0  0  0  0  0  0  0
   11.9995  -18.1518   23.7631 C   0  0  0  0  0  0  0  0  0  0  0  0
   11.6689  -18.3226   24.9623 O   0  0  0  0  0  0  0  0  0  0  0  0
   13.1777  -18.8017   23.3150 N   0  0  0  0  0  0  0  0  0  0  0  0
   13.5328  -20.1611   23.7304 C   0  0  1  0  0  0  0  0  0  0  0  0
   12.5502  -21.0836   23.0764 C   0  0  0  0  0  0  0  0  0  0  0  0
   12.7244  -22.5275   23.4032 C   0  0  0  0  0  0  0  0  0  0  0  0
   11.7337  -23.4216   22.7052 C   0  0  0  0  0  0  0  0  0  0  0  0
   11.9523  -24.8812   23.0373 C   0  0  0  0  0  0  0  0  0  0  0  0
   11.0226  -25.7398   22.3484 N   0  0  0  0  0  0  0  0  0  0  0  0
   14.9335  -20.4696   23.3735 C   0  0  0  0  0  0  0  0  0  0  0  0
   15.3277  -20.2922   22.1782 O   0  0  0  0  0  0  0  0  0  0  0  0
   15.8781  -20.9485   24.2577 O   0  0  0  0  0  0  0  0  0  0  0  0
  2  1  1  0
  2 12  2  0
  3  2  1  0
  4  3  2  0
  4  5  1  0
  5 11  2  0
  6  5  1  0
  7  9  1  0
  7  6  1  0
  7  8  1  1
  9 10  2  0
 11 12  1  0
 13  9  1  0
 13 14  1  0
 14 17  1  0
 15 16  1  0
 14 15  1  1
 17 18  2  0
 19 17  1  0
 19 20  1  0
 20 26  1  0
 20 21  1  6
 22 21  1  0
 23 22  1  0
 24 23  1  0
 25 24  1  0
 26 27  2  0
 26 28  1  0
M  END
$$$$
