YCK.pdb
     RDKit          3D

 28 28  0  0  1  0  0  0  0  0999 V2000
   12.8251  -26.3165   13.0870 O   0  0  0  0  0  0  0  0  0  0  0  0
   13.3478  -25.3904   13.9965 C   0  0  0  0  0  0  0  0  0  0  0  0
   12.6806  -25.1071   15.1520 C   0  0  0  0  0  0  0  0  0  0  0  0
   13.1910  -24.1833   16.0709 C   0  0  0  0  0  0  0  0  0  0  0  0
   14.3874  -23.5303   15.8341 C   0  0  0  0  0  0  0  0  0  0  0  0
   14.9374  -22.5611   16.7832 C   0  0  0  0  0  0  0  0  0  0  0  0
   14.1436  -21.2918   16.8994 C   0  0  2  0  0  0  0  0  0  0  0  0
   14.0636  -20.5516   15.6796 N   0  0  0  0  0  0  0  0  0  0  0  0
   14.7843  -20.4917   17.9888 C   0  0  0  0  0  0  0  0  0  0  0  0
   15.5896  -19.5822   17.6863 O   0  0  0  0  0  0  0  0  0  0  0  0
   15.0407  -23.8354   14.6588 C   0  0  0  0  0  0  0  0  0  0  0  0
   14.5491  -24.7445   13.7433 C   0  0  0  0  0  0  0  0  0  0  0  0
   14.5175  -20.7195   19.3661 N   0  0  0  0  0  0  0  0  0  0  0  0
   15.1245  -19.9524   20.4343 C   0  0  1  0  0  0  0  0  0  0  0  0
   13.9845  -19.4953   21.3549 C   0  0  0  0  0  0  0  0  0  0  0  0
   13.1535  -20.9182   22.0665 S   0  0  0  0  0  0  0  0  0  0  0  0
   16.1235  -20.7396   21.1862 C   0  0  0  0  0  0  0  0  0  0  0  0
   15.9087  -21.9448   21.4653 O   0  0  0  0  0  0  0  0  0  0  0  0
   17.3523  -20.1810   21.6214 N   0  0  0  0  0  0  0  0  0  0  0  0
   18.3580  -20.9610   22.3473 C   0  0  1  0  0  0  0  0  0  0  0  0
   19.6876  -20.3414   22.0434 C   0  0  0  0  0  0  0  0  0  0  0  0
   20.8685  -21.1040   22.5391 C   0  0  0  0  0  0  0  0  0  0  0  0
   22.1853  -20.4828   22.1538 C   0  0  0  0  0  0  0  0  0  0  0  0
   23.3615  -21.3370   22.5728 C   0  0  0  0  0  0  0  0  0  0  0  0
   24.6227  -20.7030   22.2844 N   0  0  0  0  0  0  0  0  0  0  0  0
   18.0562  -20.9893   23.7938 C   0  0  0  0  0  0  0  0  0  0  0  0
   18.3880  -22.0052   24.4819 O   0  0  0  0  0  0  0  0  0  0  0  0
   17.4248  -19.9729   24.4806 O   0  0  0  0  0  0  0  0  0  0  0  0
  2  1  1  0
  2 12  2  0
  3  2  1  0
  4  3  2  0
  4  5  1  0
  5 11  2  0
  6  5  1  0
  7  9  1  0
  7  6  1  0
  7  8  1  6
  9 10  2  0
 11 12  1  0
 13  9  1  0
 13 14  1  0
 14 17  1  0
 15 16  1  0
 14 15  1  1
 17 18  2  0
 19 17  1  0
 19 20  1  0
 20 26  1  0
 20 21  1  1
 22 21  1  0
 23 22  1  0
 24 23  1  0
 25 24  1  0
 26 27  2  0
 26 28  1  0
M  END
$$$$
