IQM.pdb
     RDKit          3D

 26 25  0  0  1  0  0  0  0  0999 V2000
   15.8232  -11.7990  -21.3034 C   0  0  0  0  0  0  0  0  0  0  0  0
   16.9061  -12.0496  -20.2865 C   0  0  0  0  0  0  0  0  0  0  0  0
   17.1041  -10.8778  -19.3450 C   0  0  2  0  0  0  0  0  0  0  0  0
   17.5738   -9.7173  -20.1797 C   0  0  0  0  0  0  0  0  0  0  0  0
   18.1080  -11.3185  -18.3013 C   0  0  2  0  0  0  0  0  0  0  0  0
   17.4621  -12.4429  -17.6012 N   0  0  0  0  0  0  0  0  0  0  0  0
   18.3663  -10.2825  -17.2696 C   0  0  0  0  0  0  0  0  0  0  0  0
   17.4847   -9.9893  -16.3905 O   0  0  0  0  0  0  0  0  0  0  0  0
   22.5904   -9.4659  -13.2210 N   0  0  0  0  0  0  0  0  0  0  0  0
   21.9563   -8.2070  -13.1310 C   0  0  0  0  0  0  0  0  0  0  0  0
   22.2205   -7.5311  -12.0806 O   0  0  0  0  0  0  0  0  0  0  0  0
   21.0363   -7.6914  -14.1882 C   0  0  0  0  0  0  0  0  0  0  0  0
   20.8425   -8.8096  -15.1944 C   0  0  0  0  0  0  0  0  0  0  0  0
   19.7581   -8.4695  -16.1932 C   0  0  2  0  0  0  0  0  0  0  0  0
   19.5636   -9.5387  -17.1510 N   0  0  0  0  0  0  0  0  0  0  0  0
   19.9729   -7.1620  -16.8395 C   0  0  0  0  0  0  0  0  0  0  0  0
   20.5048   -7.1742  -17.9961 O   0  0  0  0  0  0  0  0  0  0  0  0
   17.5042   -1.4077  -20.6768 C   0  0  0  0  0  0  0  0  0  0  0  0
   17.2915   -2.8612  -19.6141 S   0  0  0  0  0  0  0  0  0  0  0  0
   18.7710   -3.0905  -18.5660 C   0  0  0  0  0  0  0  0  0  0  0  0
   18.6156   -4.3964  -17.8481 C   0  0  0  0  0  0  0  0  0  0  0  0
   19.7825   -4.6977  -16.9317 C   0  0  2  0  0  0  0  0  0  0  0  0
   19.6134   -5.9415  -16.2235 N   0  0  0  0  0  0  0  0  0  0  0  0
   20.0138   -3.5758  -15.9834 C   0  0  0  0  0  0  0  0  0  0  0  0
   21.0224   -2.6558  -16.2316 O   0  0  0  0  0  0  0  0  0  0  0  0
   19.3212   -3.4225  -14.9464 O   0  0  0  0  0  0  0  0  0  0  0  0
  1  2  1  0
  3  5  1  0
  3  2  1  0
  3  4  1  6
  5  6  1  1
  7  5  1  0
  7  8  2  0
  9 10  1  0
 10 11  2  0
 12 10  1  0
 12 13  1  0
 14 13  1  6
 14 15  1  0
 15  7  1  0
 16 14  1  0
 17 16  2  0
 19 18  1  0
 19 20  1  0
 21 20  1  0
 22 21  1  1
 22 23  1  0
 23 16  1  0
 24 25  1  0
 24 22  1  0
 26 24  2  0
M  END
$$$$
