IQM.pdb
     RDKit          3D

 26 25  0  0  1  0  0  0  0  0999 V2000
   22.3804  -10.0408  -15.4282 C   0  0  0  0  0  0  0  0  0  0  0  0
   20.9935  -10.6229  -15.3431 C   0  0  0  0  0  0  0  0  0  0  0  0
   20.0855   -9.8332  -14.4208 C   0  0  2  0  0  0  0  0  0  0  0  0
   20.7831   -9.7397  -13.0909 C   0  0  0  0  0  0  0  0  0  0  0  0
   18.7674  -10.5749  -14.3623 C   0  0  2  0  0  0  0  0  0  0  0  0
   18.2905  -10.6166  -15.7560 N   0  0  0  0  0  0  0  0  0  0  0  0
   17.7265   -9.8501  -13.5905 C   0  0  0  0  0  0  0  0  0  0  0  0
   17.1752   -8.7927  -14.0533 O   0  0  0  0  0  0  0  0  0  0  0  0
   13.1415  -11.9798  -10.1574 N   0  0  0  0  0  0  0  0  0  0  0  0
   13.0856  -10.6089   -9.8221 C   0  0  0  0  0  0  0  0  0  0  0  0
   12.0724  -10.2515   -9.1323 O   0  0  0  0  0  0  0  0  0  0  0  0
   14.1361   -9.6339  -10.2412 C   0  0  0  0  0  0  0  0  0  0  0  0
   15.1785  -10.4106  -11.0225 C   0  0  0  0  0  0  0  0  0  0  0  0
   16.2506   -9.4946  -11.5711 C   0  0  2  0  0  0  0  0  0  0  0  0
   17.2509  -10.2329  -12.3146 N   0  0  0  0  0  0  0  0  0  0  0  0
   16.8404   -8.6281  -10.5343 C   0  0  0  0  0  0  0  0  0  0  0  0
   17.6877   -9.1659   -9.7509 O   0  0  0  0  0  0  0  0  0  0  0  0
   21.0473   -5.1443  -12.5834 C   0  0  0  0  0  0  0  0  0  0  0  0
   21.3172   -5.5600  -10.8394 S   0  0  0  0  0  0  0  0  0  0  0  0
   19.7522   -5.3989   -9.9095 C   0  0  0  0  0  0  0  0  0  0  0  0
   18.8034   -6.4281  -10.4441 C   0  0  0  0  0  0  0  0  0  0  0  0
   17.4317   -6.3384   -9.8097 C   0  0  2  0  0  0  0  0  0  0  0  0
   16.4965   -7.2637  -10.3983 N   0  0  0  0  0  0  0  0  0  0  0  0
   16.9100   -4.9472   -9.8719 C   0  0  0  0  0  0  0  0  0  0  0  0
   17.2616   -4.0311   -8.8908 O   0  0  0  0  0  0  0  0  0  0  0  0
   16.1493   -4.5582  -10.7931 O   0  0  0  0  0  0  0  0  0  0  0  0
  1  2  1  0
  3  5  1  0
  3  2  1  0
  3  4  1  1
  5  6  1  6
  7  5  1  0
  7  8  2  0
  9 10  1  0
 10 11  2  0
 12 10  1  0
 12 13  1  0
 14 13  1  1
 14 15  1  0
 15  7  1  0
 16 14  1  0
 17 16  2  0
 19 18  1  0
 19 20  1  0
 21 20  1  0
 22 21  1  6
 22 23  1  0
 23 16  1  0
 24 25  1  0
 24 22  1  0
 26 24  2  0
M  END
$$$$
