IQM.pdb
     RDKit          3D

 26 25  0  0  1  0  0  0  0  0999 V2000
   21.7472  -15.7674  -22.1173 C   0  0  0  0  0  0  0  0  0  0  0  0
   21.6506  -15.3141  -20.6837 C   0  0  0  0  0  0  0  0  0  0  0  0
   21.4265  -13.8198  -20.5588 C   0  0  2  0  0  0  0  0  0  0  0  0
   22.5512  -13.1432  -21.2946 C   0  0  0  0  0  0  0  0  0  0  0  0
   21.3942  -13.5033  -19.0790 C   0  0  2  0  0  0  0  0  0  0  0  0
   20.2946  -14.3215  -18.5375 N   0  0  0  0  0  0  0  0  0  0  0  0
   21.0373  -12.0905  -18.7946 C   0  0  0  0  0  0  0  0  0  0  0  0
   21.8311  -11.1337  -19.0951 O   0  0  0  0  0  0  0  0  0  0  0  0
   15.3934  -10.1846  -16.9996 N   0  0  0  0  0  0  0  0  0  0  0  0
   15.7527  -10.4088  -18.3470 C   0  0  0  0  0  0  0  0  0  0  0  0
   14.7799  -10.5930  -19.1531 O   0  0  0  0  0  0  0  0  0  0  0  0
   17.1726  -10.4310  -18.8087 C   0  0  0  0  0  0  0  0  0  0  0  0
   18.0374  -10.1054  -17.6060 C   0  0  0  0  0  0  0  0  0  0  0  0
   19.5069  -10.2799  -17.9213 C   0  0  2  0  0  0  0  0  0  0  0  0
   19.8325  -11.6663  -18.1868 N   0  0  0  0  0  0  0  0  0  0  0  0
   20.3813   -9.6786  -16.8978 C   0  0  0  0  0  0  0  0  0  0  0  0
   20.4608  -10.2866  -15.7820 O   0  0  0  0  0  0  0  0  0  0  0  0
   27.0942  -10.0007  -14.5318 C   0  0  0  0  0  0  0  0  0  0  0  0
   25.6136  -10.3491  -15.5186 S   0  0  0  0  0  0  0  0  0  0  0  0
   24.5030   -8.8977  -15.5123 C   0  0  0  0  0  0  0  0  0  0  0  0
   23.2586   -9.2804  -16.2538 C   0  0  0  0  0  0  0  0  0  0  0  0
   22.2391   -8.1617  -16.2937 C   0  0  2  0  0  0  0  0  0  0  0  0
   21.1055   -8.4856  -17.1226 N   0  0  0  0  0  0  0  0  0  0  0  0
   22.8686   -6.8878  -16.7318 C   0  0  0  0  0  0  0  0  0  0  0  0
   23.7373   -6.2165  -15.8832 O   0  0  0  0  0  0  0  0  0  0  0  0
   22.6428   -6.3831  -17.8601 O   0  0  0  0  0  0  0  0  0  0  0  0
  1  2  1  0
  3  5  1  0
  3  2  1  0
  3  4  1  6
  5  6  1  1
  7  5  1  0
  7  8  2  0
  9 10  1  0
 10 11  2  0
 12 10  1  0
 12 13  1  0
 14 13  1  1
 14 15  1  0
 15  7  1  0
 16 14  1  0
 17 16  2  0
 19 18  1  0
 19 20  1  0
 21 20  1  0
 22 21  1  6
 22 23  1  0
 23 16  1  0
 24 25  1  0
 24 22  1  0
 26 24  2  0
M  END
$$$$
