IQM.pdb
     RDKit          3D

 26 25  0  0  1  0  0  0  0  0999 V2000
   25.2026  -25.8494  -19.1568 C   0  0  0  0  0  0  0  0  0  0  0  0
   26.5706  -26.1377  -19.7183 C   0  0  0  0  0  0  0  0  0  0  0  0
   27.1578  -27.4308  -19.1874 C   0  0  2  0  0  0  0  0  0  0  0  0
   27.2712  -27.2822  -17.6944 C   0  0  0  0  0  0  0  0  0  0  0  0
   28.4899  -27.6243  -19.8795 C   0  0  2  0  0  0  0  0  0  0  0  0
   28.1560  -27.8274  -21.3004 N   0  0  0  0  0  0  0  0  0  0  0  0
   29.1992  -28.8530  -19.4418 C   0  0  0  0  0  0  0  0  0  0  0  0
   28.7448  -30.0153  -19.7223 O   0  0  0  0  0  0  0  0  0  0  0  0
   34.5411  -30.5030  -19.9983 N   0  0  0  0  0  0  0  0  0  0  0  0
   34.2909  -31.4569  -18.9873 C   0  0  0  0  0  0  0  0  0  0  0  0
   35.0343  -32.4945  -19.0128 O   0  0  0  0  0  0  0  0  0  0  0  0
   33.2299  -31.2740  -17.9525 C   0  0  0  0  0  0  0  0  0  0  0  0
   32.5542  -29.9463  -18.2369 C   0  0  0  0  0  0  0  0  0  0  0  0
   31.0475  -30.0844  -18.2375 C   0  0  2  0  0  0  0  0  0  0  0  0
   30.4029  -28.8720  -18.6990 N   0  0  0  0  0  0  0  0  0  0  0  0
   30.5205  -30.5480  -16.9410 C   0  0  0  0  0  0  0  0  0  0  0  0
   30.5587  -29.7181  -15.9763 O   0  0  0  0  0  0  0  0  0  0  0  0
   23.6979  -31.7855  -15.0405 C   0  0  0  0  0  0  0  0  0  0  0  0
   25.1744  -31.6714  -16.0865 S   0  0  0  0  0  0  0  0  0  0  0  0
   26.6493  -31.3601  -15.0531 C   0  0  0  0  0  0  0  0  0  0  0  0
   27.7953  -31.0818  -15.9773 C   0  0  0  0  0  0  0  0  0  0  0  0
   28.9325  -32.0664  -15.8050 C   0  0  2  0  0  0  0  0  0  0  0  0
   29.9936  -31.8465  -16.7553 N   0  0  0  0  0  0  0  0  0  0  0  0
   28.4363  -33.4661  -15.8800 C   0  0  0  0  0  0  0  0  0  0  0  0
   29.2638  -34.5155  -15.5065 O   0  0  0  0  0  0  0  0  0  0  0  0
   27.2766  -33.7449  -16.2752 O   0  0  0  0  0  0  0  0  0  0  0  0
  1  2  1  0
  3  5  1  0
  3  2  1  0
  3  4  1  1
  5  6  1  6
  7  5  1  0
  7  8  2  0
  9 10  1  0
 10 11  2  0
 12 10  1  0
 12 13  1  0
 14 13  1  1
 14 15  1  0
 15  7  1  0
 16 14  1  0
 17 16  2  0
 19 18  1  0
 19 20  1  0
 21 20  1  0
 22 21  1  6
 22 23  1  0
 23 16  1  0
 24 25  1  0
 24 22  1  0
 26 24  2  0
M  END
$$$$
