IQM.pdb
     RDKit          3D

 26 25  0  0  1  0  0  0  0  0999 V2000
   21.3193  -21.1625  -17.7472 C   0  0  0  0  0  0  0  0  0  0  0  0
   20.9841  -22.4919  -17.1226 C   0  0  0  0  0  0  0  0  0  0  0  0
   22.2146  -23.2394  -16.6474 C   0  0  2  0  0  0  0  0  0  0  0  0
   23.0632  -23.5063  -17.8609 C   0  0  0  0  0  0  0  0  0  0  0  0
   21.7261  -24.4973  -15.9616 C   0  0  2  0  0  0  0  0  0  0  0  0
   20.7516  -25.0878  -16.8961 N   0  0  0  0  0  0  0  0  0  0  0  0
   20.9817  -24.2231  -14.7065 C   0  0  0  0  0  0  0  0  0  0  0  0
   21.5818  -23.7966  -13.6606 O   0  0  0  0  0  0  0  0  0  0  0  0
   15.1662  -22.3970  -13.4852 N   0  0  0  0  0  0  0  0  0  0  0  0
   15.6361  -22.7678  -12.2059 C   0  0  0  0  0  0  0  0  0  0  0  0
   14.8942  -22.4235  -11.2255 O   0  0  0  0  0  0  0  0  0  0  0  0
   16.9140  -23.5130  -12.0023 C   0  0  0  0  0  0  0  0  0  0  0  0
   17.5890  -23.6183  -13.3564 C   0  0  0  0  0  0  0  0  0  0  0  0
   18.9170  -24.3363  -13.2550 C   0  0  2  0  0  0  0  0  0  0  0  0
   19.5881  -24.3959  -14.5375 N   0  0  0  0  0  0  0  0  0  0  0  0
   18.7985  -25.6594  -12.6156 C   0  0  0  0  0  0  0  0  0  0  0  0
   18.8875  -26.6751  -13.3780 O   0  0  0  0  0  0  0  0  0  0  0  0
   22.2929  -31.0139   -9.1738 C   0  0  0  0  0  0  0  0  0  0  0  0
   22.0612  -29.3301   -9.8048 S   0  0  0  0  0  0  0  0  0  0  0  0
   20.2780  -28.9614   -9.9605 C   0  0  0  0  0  0  0  0  0  0  0  0
   20.1522  -27.5828  -10.5339 C   0  0  0  0  0  0  0  0  0  0  0  0
   18.7135  -27.1191  -10.6207 C   0  0  2  0  0  0  0  0  0  0  0  0
   18.5956  -25.8162  -11.2254 N   0  0  0  0  0  0  0  0  0  0  0  0
   18.0689  -27.1412   -9.2809 C   0  0  0  0  0  0  0  0  0  0  0  0
   17.8361  -28.3518   -8.6441 O   0  0  0  0  0  0  0  0  0  0  0  0
   17.7188  -26.0896   -8.6892 O   0  0  0  0  0  0  0  0  0  0  0  0
  1  2  1  0
  3  5  1  0
  3  2  1  0
  3  4  1  6
  5  6  1  6
  7  5  1  0
  7  8  2  0
  9 10  1  0
 10 11  2  0
 12 10  1  0
 12 13  1  0
 14 13  1  6
 14 15  1  0
 15  7  1  0
 16 14  1  0
 17 16  2  0
 19 18  1  0
 19 20  1  0
 21 20  1  0
 22 21  1  1
 22 23  1  0
 23 16  1  0
 24 25  1  0
 24 22  1  0
 26 24  2  0
M  END
$$$$
