IQM.pdb
     RDKit          3D

 26 25  0  0  1  0  0  0  0  0999 V2000
   16.2978  -14.9223  -17.2802 C   0  0  0  0  0  0  0  0  0  0  0  0
   17.4184  -14.1966  -16.5820 C   0  0  0  0  0  0  0  0  0  0  0  0
   17.4483  -12.7167  -16.9106 C   0  0  2  0  0  0  0  0  0  0  0  0
   17.6250  -12.6004  -18.4003 C   0  0  0  0  0  0  0  0  0  0  0  0
   18.5876  -12.1142  -16.1169 C   0  0  2  0  0  0  0  0  0  0  0  0
   18.2111  -12.3031  -14.7048 N   0  0  0  0  0  0  0  0  0  0  0  0
   18.7236  -10.6492  -16.3162 C   0  0  0  0  0  0  0  0  0  0  0  0
   19.1662  -10.1688  -17.4159 O   0  0  0  0  0  0  0  0  0  0  0  0
   15.9252   -4.3949  -16.3031 N   0  0  0  0  0  0  0  0  0  0  0  0
   16.2094   -5.3813  -15.3331 C   0  0  0  0  0  0  0  0  0  0  0  0
   15.2228   -5.7389  -14.6058 O   0  0  0  0  0  0  0  0  0  0  0  0
   17.5694   -5.9733  -15.1610 C   0  0  0  0  0  0  0  0  0  0  0  0
   17.3849   -7.4674  -14.9765 C   0  0  0  0  0  0  0  0  0  0  0  0
   18.5409   -8.2423  -15.5703 C   0  0  2  0  0  0  0  0  0  0  0  0
   18.3928   -9.6669  -15.3536 N   0  0  0  0  0  0  0  0  0  0  0  0
   19.8515   -7.7347  -15.1252 C   0  0  0  0  0  0  0  0  0  0  0  0
   20.2755   -8.1507  -13.9991 O   0  0  0  0  0  0  0  0  0  0  0  0
   26.8510   -4.6953  -17.0465 C   0  0  0  0  0  0  0  0  0  0  0  0
   25.1101   -4.9262  -17.4973 S   0  0  0  0  0  0  0  0  0  0  0  0
   24.1643   -5.5224  -16.0516 C   0  0  0  0  0  0  0  0  0  0  0  0
   22.7952   -5.8956  -16.5326 C   0  0  0  0  0  0  0  0  0  0  0  0
   21.8960   -6.3724  -15.4119 C   0  0  2  0  0  0  0  0  0  0  0  0
   20.6173   -6.8295  -15.8949 N   0  0  0  0  0  0  0  0  0  0  0  0
   21.7251   -5.3122  -14.3833 C   0  0  0  0  0  0  0  0  0  0  0  0
   22.6042   -5.2380  -13.3123 O   0  0  0  0  0  0  0  0  0  0  0  0
   20.8002   -4.4640  -14.4437 O   0  0  0  0  0  0  0  0  0  0  0  0
  1  2  1  0
  3  5  1  0
  3  2  1  0
  3  4  1  6
  5  6  1  1
  7  5  1  0
  7  8  2  0
  9 10  1  0
 10 11  2  0
 12 10  1  0
 12 13  1  0
 14 13  1  1
 14 15  1  0
 15  7  1  0
 16 14  1  0
 17 16  2  0
 19 18  1  0
 19 20  1  0
 21 20  1  0
 22 21  1  6
 22 23  1  0
 23 16  1  0
 24 25  1  0
 24 22  1  0
 26 24  2  0
M  END
$$$$
