IQM.pdb
     RDKit          3D

 26 25  0  0  1  0  0  0  0  0999 V2000
   27.4374  -16.0085  -15.9156 C   0  0  0  0  0  0  0  0  0  0  0  0
   25.9571  -16.2841  -15.9678 C   0  0  0  0  0  0  0  0  0  0  0  0
   25.1346  -15.0209  -16.1306 C   0  0  2  0  0  0  0  0  0  0  0  0
   25.3447  -14.1961  -14.8898 C   0  0  0  0  0  0  0  0  0  0  0  0
   23.6988  -15.4554  -16.3328 C   0  0  2  0  0  0  0  0  0  0  0  0
   23.7295  -16.3374  -17.5130 N   0  0  0  0  0  0  0  0  0  0  0  0
   22.7947  -14.3303  -16.6808 C   0  0  0  0  0  0  0  0  0  0  0  0
   22.8535  -13.7634  -17.8259 O   0  0  0  0  0  0  0  0  0  0  0  0
   16.9599  -13.2274  -15.1181 N   0  0  0  0  0  0  0  0  0  0  0  0
   17.5016  -14.0301  -16.1463 C   0  0  0  0  0  0  0  0  0  0  0  0
   16.6964  -14.8707  -16.6709 O   0  0  0  0  0  0  0  0  0  0  0  0
   18.9201  -13.9118  -16.5976 C   0  0  0  0  0  0  0  0  0  0  0  0
   19.5629  -12.8190  -15.7651 C   0  0  0  0  0  0  0  0  0  0  0  0
   21.0142  -12.6203  -16.1436 C   0  0  2  0  0  0  0  0  0  0  0  0
   21.8118  -13.7859  -15.8215 N   0  0  0  0  0  0  0  0  0  0  0  0
   21.5792  -11.3765  -15.5892 C   0  0  0  0  0  0  0  0  0  0  0  0
   22.2837  -11.4865  -14.5345 O   0  0  0  0  0  0  0  0  0  0  0  0
   26.7766   -9.9575  -15.1271 C   0  0  0  0  0  0  0  0  0  0  0  0
   26.2665   -8.5900  -16.2028 S   0  0  0  0  0  0  0  0  0  0  0  0
   24.5479   -8.1011  -15.8189 C   0  0  0  0  0  0  0  0  0  0  0  0
   23.6613   -9.2543  -16.1785 C   0  0  0  0  0  0  0  0  0  0  0  0
   22.2084   -8.9975  -15.8390 C   0  0  2  0  0  0  0  0  0  0  0  0
   21.3622  -10.1123  -16.1833 N   0  0  0  0  0  0  0  0  0  0  0  0
   21.7269   -7.7480  -16.4854 C   0  0  0  0  0  0  0  0  0  0  0  0
   21.8791   -6.5301  -15.8381 O   0  0  0  0  0  0  0  0  0  0  0  0
   21.1771   -7.7478  -17.6152 O   0  0  0  0  0  0  0  0  0  0  0  0
  1  2  1  0
  3  5  1  0
  3  2  1  0
  3  4  1  1
  5  6  1  6
  7  5  1  0
  7  8  2  0
  9 10  1  0
 10 11  2  0
 12 10  1  0
 12 13  1  0
 14 13  1  1
 14 15  1  0
 15  7  1  0
 16 14  1  0
 17 16  2  0
 19 18  1  0
 19 20  1  0
 21 20  1  0
 22 21  1  6
 22 23  1  0
 23 16  1  0
 24 25  1  0
 24 22  1  0
 26 24  2  0
M  END
$$$$
