IQM.pdb
     RDKit          3D

 26 25  0  0  1  0  0  0  0  0999 V2000
   26.1009  -17.4767  -16.6395 C   0  0  0  0  0  0  0  0  0  0  0  0
   26.3368  -18.6246  -15.6927 C   0  0  0  0  0  0  0  0  0  0  0  0
   27.7802  -18.7178  -15.2379 C   0  0  2  0  0  0  0  0  0  0  0  0
   28.6147  -18.9519  -16.4679 C   0  0  0  0  0  0  0  0  0  0  0  0
   27.8515  -19.8481  -14.2337 C   0  0  2  0  0  0  0  0  0  0  0  0
   27.3130  -21.0227  -14.9420 N   0  0  0  0  0  0  0  0  0  0  0  0
   26.9718  -19.6358  -13.0566 C   0  0  0  0  0  0  0  0  0  0  0  0
   27.1230  -18.6221  -12.2913 O   0  0  0  0  0  0  0  0  0  0  0  0
   22.8780  -21.1502  -14.3480 N   0  0  0  0  0  0  0  0  0  0  0  0
   22.5150  -19.9046  -13.7898 C   0  0  0  0  0  0  0  0  0  0  0  0
   21.8850  -19.1141  -14.5698 O   0  0  0  0  0  0  0  0  0  0  0  0
   22.8414  -19.5271  -12.3824 C   0  0  0  0  0  0  0  0  0  0  0  0
   23.6387  -20.6720  -11.7875 C   0  0  0  0  0  0  0  0  0  0  0  0
   25.0701  -20.2635  -11.5164 C   0  0  2  0  0  0  0  0  0  0  0  0
   25.9160  -20.4939  -12.6696 N   0  0  0  0  0  0  0  0  0  0  0  0
   25.6100  -20.8725  -10.2870 C   0  0  0  0  0  0  0  0  0  0  0  0
   25.9022  -22.1104  -10.3406 O   0  0  0  0  0  0  0  0  0  0  0  0
   28.7025  -18.0209   -5.6311 C   0  0  0  0  0  0  0  0  0  0  0  0
   28.3335  -19.5136   -4.6706 S   0  0  0  0  0  0  0  0  0  0  0  0
   27.2982  -20.6513   -5.6574 C   0  0  0  0  0  0  0  0  0  0  0  0
   26.9914  -19.9687   -6.9554 C   0  0  0  0  0  0  0  0  0  0  0  0
   26.1366  -20.8192   -7.8710 C   0  0  2  0  0  0  0  0  0  0  0  0
   25.8021  -20.1366   -9.0954 N   0  0  0  0  0  0  0  0  0  0  0  0
   24.9092  -21.2816   -7.1703 C   0  0  0  0  0  0  0  0  0  0  0  0
   25.0014  -22.2397   -6.1708 O   0  0  0  0  0  0  0  0  0  0  0  0
   23.7695  -20.8330   -7.4504 O   0  0  0  0  0  0  0  0  0  0  0  0
  1  2  1  0
  3  5  1  0
  3  2  1  0
  3  4  1  6
  5  6  1  6
  7  5  1  0
  7  8  2  0
  9 10  1  0
 10 11  2  0
 12 10  1  0
 12 13  1  0
 14 13  1  6
 14 15  1  0
 15  7  1  0
 16 14  1  0
 17 16  2  0
 19 18  1  0
 19 20  1  0
 21 20  1  0
 22 21  1  1
 22 23  1  0
 23 16  1  0
 24 25  1  0
 24 22  1  0
 26 24  2  0
M  END
$$$$
