IQM.pdb
     RDKit          3D

 26 25  0  0  1  0  0  0  0  0999 V2000
   28.0189  -14.0706  -15.6126 C   0  0  0  0  0  0  0  0  0  0  0  0
   26.5525  -14.1740  -15.2828 C   0  0  0  0  0  0  0  0  0  0  0  0
   25.7596  -12.9773  -15.7706 C   0  0  2  0  0  0  0  0  0  0  0  0
   26.3827  -11.7551  -15.1526 C   0  0  0  0  0  0  0  0  0  0  0  0
   24.3228  -13.2025  -15.3508 C   0  0  2  0  0  0  0  0  0  0  0  0
   23.9439  -14.4892  -15.9611 N   0  0  0  0  0  0  0  0  0  0  0  0
   23.3896  -12.1903  -15.9068 C   0  0  0  0  0  0  0  0  0  0  0  0
   23.2126  -12.0753  -17.1684 O   0  0  0  0  0  0  0  0  0  0  0  0
   18.8556  -10.0164  -17.6827 N   0  0  0  0  0  0  0  0  0  0  0  0
   19.0606  -11.3654  -17.3184 C   0  0  0  0  0  0  0  0  0  0  0  0
   18.5038  -12.2308  -18.0742 O   0  0  0  0  0  0  0  0  0  0  0  0
   19.8727  -11.7642  -16.1304 C   0  0  0  0  0  0  0  0  0  0  0  0
   20.3338  -10.4861  -15.4565 C   0  0  0  0  0  0  0  0  0  0  0  0
   21.8049  -10.2333  -15.7037 C   0  0  2  0  0  0  0  0  0  0  0  0
   22.6271  -11.2820  -15.1358 N   0  0  0  0  0  0  0  0  0  0  0  0
   22.2282   -8.8873  -15.2760 C   0  0  0  0  0  0  0  0  0  0  0  0
   22.5936   -8.7592  -14.0632 O   0  0  0  0  0  0  0  0  0  0  0  0
   24.2246   -1.4891  -17.3172 C   0  0  0  0  0  0  0  0  0  0  0  0
   23.5458   -3.0977  -17.8059 S   0  0  0  0  0  0  0  0  0  0  0  0
   23.3947   -4.1824  -16.3428 C   0  0  0  0  0  0  0  0  0  0  0  0
   22.8283   -5.4892  -16.8083 C   0  0  0  0  0  0  0  0  0  0  0  0
   22.6699   -6.4877  -15.6814 C   0  0  2  0  0  0  0  0  0  0  0  0
   22.2358   -7.7786  -16.1529 N   0  0  0  0  0  0  0  0  0  0  0  0
   21.7461   -5.9669  -14.6390 C   0  0  0  0  0  0  0  0  0  0  0  0
   22.2509   -5.2616  -13.5558 O   0  0  0  0  0  0  0  0  0  0  0  0
   20.5033   -6.1416  -14.6983 O   0  0  0  0  0  0  0  0  0  0  0  0
  1  2  1  0
  3  5  1  0
  3  2  1  0
  3  4  1  1
  5  6  1  6
  7  5  1  0
  7  8  2  0
  9 10  1  0
 10 11  2  0
 12 10  1  0
 12 13  1  0
 14 13  1  1
 14 15  1  0
 15  7  1  0
 16 14  1  0
 17 16  2  0
 19 18  1  0
 19 20  1  0
 21 20  1  0
 22 21  1  6
 22 23  1  0
 23 16  1  0
 24 25  1  0
 24 22  1  0
 26 24  2  0
M  END
$$$$
