IQM.pdb
     RDKit          3D

 26 25  0  0  1  0  0  0  0  0999 V2000
   26.9552  -20.1287  -15.7180 C   0  0  0  0  0  0  0  0  0  0  0  0
   26.1924  -20.7484  -14.5761 C   0  0  0  0  0  0  0  0  0  0  0  0
   26.5685  -20.1536  -13.2331 C   0  0  2  0  0  0  0  0  0  0  0  0
   28.0023  -20.5280  -12.9723 C   0  0  0  0  0  0  0  0  0  0  0  0
   25.6004  -20.7193  -12.2163 C   0  0  2  0  0  0  0  0  0  0  0  0
   25.6394  -22.1780  -12.4223 N   0  0  0  0  0  0  0  0  0  0  0  0
   24.1954  -20.3048  -12.4585 C   0  0  0  0  0  0  0  0  0  0  0  0
   23.8990  -19.0871  -12.7140 O   0  0  0  0  0  0  0  0  0  0  0  0
   21.4806  -18.5064  -16.2997 N   0  0  0  0  0  0  0  0  0  0  0  0
   20.2760  -18.7764  -15.6136 C   0  0  0  0  0  0  0  0  0  0  0  0
   19.2185  -18.3033  -16.1502 O   0  0  0  0  0  0  0  0  0  0  0  0
   20.2308  -19.5618  -14.3444 C   0  0  0  0  0  0  0  0  0  0  0  0
   21.6553  -19.9719  -14.0232 C   0  0  0  0  0  0  0  0  0  0  0  0
   21.7244  -20.7552  -12.7306 C   0  0  2  0  0  0  0  0  0  0  0  0
   23.0794  -21.1735  -12.4345 N   0  0  0  0  0  0  0  0  0  0  0  0
   20.7653  -21.8743  -12.6942 C   0  0  0  0  0  0  0  0  0  0  0  0
   20.9301  -22.7993  -13.5534 O   0  0  0  0  0  0  0  0  0  0  0  0
   18.8775  -24.2363   -7.1848 C   0  0  0  0  0  0  0  0  0  0  0  0
   17.4251  -24.7667   -8.1316 S   0  0  0  0  0  0  0  0  0  0  0  0
   17.7556  -24.6101   -9.9222 C   0  0  0  0  0  0  0  0  0  0  0  0
   18.5431  -23.3518  -10.1258 C   0  0  0  0  0  0  0  0  0  0  0  0
   18.9919  -23.1735  -11.5608 C   0  0  2  0  0  0  0  0  0  0  0  0
   19.7067  -21.9379  -11.7596 N   0  0  0  0  0  0  0  0  0  0  0  0
   17.8373  -23.2730  -12.4925 C   0  0  0  0  0  0  0  0  0  0  0  0
   17.3516  -22.1335  -13.1178 O   0  0  0  0  0  0  0  0  0  0  0  0
   17.2713  -24.3665  -12.7425 O   0  0  0  0  0  0  0  0  0  0  0  0
  1  2  1  0
  3  5  1  0
  3  2  1  0
  3  4  1  1
  5  6  1  6
  7  5  1  0
  7  8  2  0
  9 10  1  0
 10 11  2  0
 12 10  1  0
 12 13  1  0
 14 13  1  6
 14 15  1  0
 15  7  1  0
 16 14  1  0
 17 16  2  0
 19 18  1  0
 19 20  1  0
 21 20  1  0
 22 21  1  1
 22 23  1  0
 23 16  1  0
 24 25  1  0
 24 22  1  0
 26 24  2  0
M  END
$$$$
