IQM.pdb
     RDKit          3D

 26 25  0  0  1  0  0  0  0  0999 V2000
   21.3952  -22.1090  -17.7572 C   0  0  0  0  0  0  0  0  0  0  0  0
   21.4913  -21.0366  -16.7033 C   0  0  0  0  0  0  0  0  0  0  0  0
   20.6492  -21.3441  -15.4805 C   0  0  2  0  0  0  0  0  0  0  0  0
   19.2175  -21.4121  -15.9381 C   0  0  0  0  0  0  0  0  0  0  0  0
   20.9128  -20.2412  -14.4779 C   0  0  2  0  0  0  0  0  0  0  0  0
   20.5441  -18.9959  -15.1744 N   0  0  0  0  0  0  0  0  0  0  0  0
   22.3488  -20.1079  -14.1248 C   0  0  0  0  0  0  0  0  0  0  0  0
   23.1544  -19.4471  -14.8667 O   0  0  0  0  0  0  0  0  0  0  0  0
   25.1965  -20.3673   -8.4730 N   0  0  0  0  0  0  0  0  0  0  0  0
   26.2162  -20.7541   -9.3705 C   0  0  0  0  0  0  0  0  0  0  0  0
   27.2625  -21.2517   -8.8340 O   0  0  0  0  0  0  0  0  0  0  0  0
   26.0894  -20.5960  -10.8499 C   0  0  0  0  0  0  0  0  0  0  0  0
   24.6313  -20.8248  -11.1992 C   0  0  0  0  0  0  0  0  0  0  0  0
   24.3624  -20.5312  -12.6589 C   0  0  2  0  0  0  0  0  0  0  0  0
   22.9566  -20.6722  -12.9790 N   0  0  0  0  0  0  0  0  0  0  0  0
   25.2299  -21.3087  -13.5624 C   0  0  0  0  0  0  0  0  0  0  0  0
   25.0785  -22.5728  -13.5562 O   0  0  0  0  0  0  0  0  0  0  0  0
   24.5275  -25.0473  -17.9819 C   0  0  0  0  0  0  0  0  0  0  0  0
   25.0793  -23.4365  -18.6047 S   0  0  0  0  0  0  0  0  0  0  0  0
   26.4247  -22.7873  -17.5518 C   0  0  0  0  0  0  0  0  0  0  0  0
   25.7884  -22.0683  -16.4015 C   0  0  0  0  0  0  0  0  0  0  0  0
   26.8077  -21.4608  -15.4611 C   0  0  2  0  0  0  0  0  0  0  0  0
   26.1900  -20.7011  -14.4035 N   0  0  0  0  0  0  0  0  0  0  0  0
   27.7869  -20.6280  -16.2087 C   0  0  0  0  0  0  0  0  0  0  0  0
   27.8581  -19.2626  -15.9723 O   0  0  0  0  0  0  0  0  0  0  0  0
   28.5679  -21.1177  -17.0625 O   0  0  0  0  0  0  0  0  0  0  0  0
  1  2  1  0
  3  5  1  0
  3  2  1  0
  3  4  1  6
  5  6  1  6
  7  5  1  0
  7  8  2  0
  9 10  1  0
 10 11  2  0
 12 10  1  0
 12 13  1  0
 14 13  1  1
 14 15  1  0
 15  7  1  0
 16 14  1  0
 17 16  2  0
 19 18  1  0
 19 20  1  0
 21 20  1  0
 22 21  1  6
 22 23  1  0
 23 16  1  0
 24 25  1  0
 24 22  1  0
 26 24  2  0
M  END
$$$$
