IQM.pdb
     RDKit          3D

 26 25  0  0  1  0  0  0  0  0999 V2000
   15.6798  -11.0312  -19.2829 C   0  0  0  0  0  0  0  0  0  0  0  0
   17.0478  -11.5679  -18.9508 C   0  0  0  0  0  0  0  0  0  0  0  0
   17.7856  -10.7027  -17.9478 C   0  0  2  0  0  0  0  0  0  0  0  0
   18.1802   -9.4391  -18.6631 C   0  0  0  0  0  0  0  0  0  0  0  0
   18.9652  -11.5125  -17.4540 C   0  0  2  0  0  0  0  0  0  0  0  0
   18.3712  -12.6834  -16.7848 N   0  0  0  0  0  0  0  0  0  0  0  0
   19.7631  -10.8060  -16.4203 C   0  0  0  0  0  0  0  0  0  0  0  0
   19.3136  -10.6427  -15.2340 O   0  0  0  0  0  0  0  0  0  0  0  0
   24.7687  -12.0398  -16.3698 N   0  0  0  0  0  0  0  0  0  0  0  0
   23.8983  -12.4396  -15.3318 C   0  0  0  0  0  0  0  0  0  0  0  0
   23.9534  -13.6745  -15.0120 O   0  0  0  0  0  0  0  0  0  0  0  0
   22.9715  -11.4898  -14.6473 C   0  0  0  0  0  0  0  0  0  0  0  0
   23.1272  -10.1448  -15.3308 C   0  0  0  0  0  0  0  0  0  0  0  0
   21.7821   -9.5153  -15.6199 C   0  0  2  0  0  0  0  0  0  0  0  0
   21.0519  -10.2601  -16.6251 N   0  0  0  0  0  0  0  0  0  0  0  0
   21.8856   -8.0803  -15.9419 C   0  0  0  0  0  0  0  0  0  0  0  0
   21.8616   -7.7659  -17.1753 O   0  0  0  0  0  0  0  0  0  0  0  0
   18.0363   -4.1731  -16.7086 C   0  0  0  0  0  0  0  0  0  0  0  0
   19.4838   -3.3926  -17.4719 S   0  0  0  0  0  0  0  0  0  0  0  0
   20.9876   -3.7941  -16.5142 C   0  0  0  0  0  0  0  0  0  0  0  0
   20.9056   -5.2410  -16.1338 C   0  0  0  0  0  0  0  0  0  0  0  0
   22.0984   -5.6959  -15.3198 C   0  0  2  0  0  0  0  0  0  0  0  0
   22.0063   -7.0847  -14.9457 N   0  0  0  0  0  0  0  0  0  0  0  0
   22.2797   -4.8355  -14.1207 C   0  0  0  0  0  0  0  0  0  0  0  0
   22.6958   -3.5200  -14.2685 O   0  0  0  0  0  0  0  0  0  0  0  0
   22.0682   -5.2571  -12.9562 O   0  0  0  0  0  0  0  0  0  0  0  0
  1  2  1  0
  3  5  1  0
  3  2  1  0
  3  4  1  6
  5  6  1  1
  7  5  1  0
  7  8  2  0
  9 10  1  0
 10 11  2  0
 12 10  1  0
 12 13  1  0
 14 13  1  6
 14 15  1  0
 15  7  1  0
 16 14  1  0
 17 16  2  0
 19 18  1  0
 19 20  1  0
 21 20  1  0
 22 21  1  1
 22 23  1  0
 23 16  1  0
 24 25  1  0
 24 22  1  0
 26 24  2  0
M  END
$$$$
