GCR.pdb
     RDKit          3D

 22 21  0  0  1  0  0  0  0  0999 V2000
   18.7245  -17.5773  -15.5774 N   0  0  0  0  0  0  0  0  0  0  0  0
   20.1080  -17.1719  -15.7312 C   0  0  0  0  0  0  0  0  0  0  0  0
   20.9733  -18.3834  -15.9294 C   0  0  0  0  0  0  0  0  0  0  0  0
   20.4615  -19.4943  -16.2172 O   0  0  0  0  0  0  0  0  0  0  0  0
   22.3704  -18.2504  -15.7866 N   0  0  0  0  0  0  0  0  0  0  0  0
   23.2414  -19.4177  -16.0387 C   0  0  1  0  0  0  0  0  0  0  0  0
   23.9037  -19.1756  -17.3836 C   0  0  0  0  0  0  0  0  0  0  0  0
   24.9684  -17.7272  -17.2616 S   0  0  0  0  0  0  0  0  0  0  0  0
   24.2033  -19.4516  -14.9170 C   0  0  0  0  0  0  0  0  0  0  0  0
   24.7202  -18.3641  -14.4850 O   0  0  0  0  0  0  0  0  0  0  0  0
   24.9900  -21.2852   -7.7016 N   0  0  0  0  0  0  0  0  0  0  0  0
   26.0531  -20.3747   -7.8868 C   0  0  0  0  0  0  0  0  0  0  0  0
   26.9038  -20.1249   -6.9298 N   0  0  0  0  0  0  0  0  0  0  0  0
   26.2412  -19.7046   -9.1152 N   0  0  0  0  0  0  0  0  0  0  0  0
   25.5588  -20.0720  -10.3045 C   0  0  0  0  0  0  0  0  0  0  0  0
   25.9984  -21.3734  -10.8796 C   0  0  0  0  0  0  0  0  0  0  0  0
   25.3839  -21.6972  -12.1922 C   0  0  0  0  0  0  0  0  0  0  0  0
   25.6402  -20.5701  -13.1924 C   0  0  2  0  0  0  0  0  0  0  0  0
   24.6268  -20.6215  -14.2424 N   0  0  0  0  0  0  0  0  0  0  0  0
   27.0123  -20.6880  -13.7169 C   0  0  0  0  0  0  0  0  0  0  0  0
   28.0705  -20.0822  -13.0953 O   0  0  0  0  0  0  0  0  0  0  0  0
   27.1696  -21.3782  -14.7728 O   0  0  0  0  0  0  0  0  0  0  0  0
  1  2  1  0
  2  3  1  0
  3  5  1  0
  4  3  2  0
  5  6  1  0
  6  9  1  0
  6  7  1  6
  8  7  1  0
  9 10  2  0
  9 19  1  0
 11 12  1  0
 12 13  2  0
 12 14  1  0
 14 15  1  0
 15 16  1  0
 17 16  1  0
 18 17  1  1
 18 20  1  0
 19 18  1  0
 20 22  2  0
 20 21  1  0
M  END
$$$$
