GCR.pdb
     RDKit          3D

 22 21  0  0  1  0  0  0  0  0999 V2000
   28.8300  -23.4588  -16.5905 N   0  0  0  0  0  0  0  0  0  0  0  0
   28.3143  -22.1243  -16.8255 C   0  0  0  0  0  0  0  0  0  0  0  0
   27.5511  -21.6550  -15.6201 C   0  0  0  0  0  0  0  0  0  0  0  0
   27.3370  -22.4327  -14.6566 O   0  0  0  0  0  0  0  0  0  0  0  0
   27.0798  -20.3258  -15.5902 N   0  0  0  0  0  0  0  0  0  0  0  0
   26.3439  -19.8419  -14.4032 C   0  0  1  0  0  0  0  0  0  0  0  0
   26.7449  -18.3897  -14.2130 C   0  0  0  0  0  0  0  0  0  0  0  0
   26.9162  -17.6113  -15.8290 S   0  0  0  0  0  0  0  0  0  0  0  0
   24.9106  -20.0100  -14.7225 C   0  0  0  0  0  0  0  0  0  0  0  0
   24.5149  -19.9500  -15.9375 O   0  0  0  0  0  0  0  0  0  0  0  0
   19.0149  -24.8559  -12.1707 N   0  0  0  0  0  0  0  0  0  0  0  0
   19.5225  -23.8865  -11.2784 C   0  0  0  0  0  0  0  0  0  0  0  0
   19.6397  -24.1367  -10.0034 N   0  0  0  0  0  0  0  0  0  0  0  0
   19.9291  -22.6124  -11.7311 N   0  0  0  0  0  0  0  0  0  0  0  0
   19.7064  -22.1601  -13.0579 C   0  0  0  0  0  0  0  0  0  0  0  0
   20.2044  -20.7816  -13.3213 C   0  0  0  0  0  0  0  0  0  0  0  0
   21.6218  -20.5626  -12.9360 C   0  0  0  0  0  0  0  0  0  0  0  0
   22.4951  -20.4136  -14.1815 C   0  0  2  0  0  0  0  0  0  0  0  0
   23.8866  -20.2427  -13.7735 N   0  0  0  0  0  0  0  0  0  0  0  0
   21.9960  -19.2900  -14.9939 C   0  0  0  0  0  0  0  0  0  0  0  0
   21.1582  -19.4923  -16.0571 O   0  0  0  0  0  0  0  0  0  0  0  0
   22.3782  -18.1237  -14.6629 O   0  0  0  0  0  0  0  0  0  0  0  0
  1  2  1  0
  2  3  1  0
  3  5  1  0
  4  3  2  0
  5  6  1  0
  6  9  1  0
  6  7  1  6
  8  7  1  0
  9 10  2  0
  9 19  1  0
 11 12  1  0
 12 13  2  0
 12 14  1  0
 14 15  1  0
 15 16  1  0
 17 16  1  0
 18 17  1  1
 18 20  1  0
 19 18  1  0
 20 22  2  0
 20 21  1  0
M  END
$$$$
