GCR.pdb
     RDKit          3D

 22 21  0  0  1  0  0  0  0  0999 V2000
   27.5948  -17.9431  -15.6493 N   0  0  0  0  0  0  0  0  0  0  0  0
   26.3794  -18.3207  -14.9549 C   0  0  0  0  0  0  0  0  0  0  0  0
   25.2015  -18.1716  -15.8748 C   0  0  0  0  0  0  0  0  0  0  0  0
   25.2726  -17.4343  -16.8899 O   0  0  0  0  0  0  0  0  0  0  0  0
   24.0150  -18.8745  -15.5779 N   0  0  0  0  0  0  0  0  0  0  0  0
   22.8528  -18.7539  -16.4831 C   0  0  1  0  0  0  0  0  0  0  0  0
   22.7789  -20.0559  -17.2612 C   0  0  0  0  0  0  0  0  0  0  0  0
   24.3451  -20.3214  -18.1117 S   0  0  0  0  0  0  0  0  0  0  0  0
   21.6821  -18.5351  -15.6077 C   0  0  0  0  0  0  0  0  0  0  0  0
   21.7076  -18.9371  -14.3936 O   0  0  0  0  0  0  0  0  0  0  0  0
   15.1936  -12.9926  -13.9468 N   0  0  0  0  0  0  0  0  0  0  0  0
   15.0927  -14.1031  -14.8129 C   0  0  0  0  0  0  0  0  0  0  0  0
   13.9315  -14.5780  -15.1710 N   0  0  0  0  0  0  0  0  0  0  0  0
   16.2425  -14.7383  -15.3304 N   0  0  0  0  0  0  0  0  0  0  0  0
   17.5601  -14.3780  -14.9444 C   0  0  0  0  0  0  0  0  0  0  0  0
   18.4168  -15.5329  -14.5572 C   0  0  0  0  0  0  0  0  0  0  0  0
   18.4467  -16.6306  -15.5570 C   0  0  0  0  0  0  0  0  0  0  0  0
   19.3557  -17.7622  -15.0779 C   0  0  2  0  0  0  0  0  0  0  0  0
   20.4820  -17.8941  -15.9978 N   0  0  0  0  0  0  0  0  0  0  0  0
   18.5677  -19.0017  -14.9585 C   0  0  0  0  0  0  0  0  0  0  0  0
   17.7728  -19.2423  -13.8706 O   0  0  0  0  0  0  0  0  0  0  0  0
   18.6587  -19.8379  -15.9116 O   0  0  0  0  0  0  0  0  0  0  0  0
  1  2  1  0
  2  3  1  0
  3  5  1  0
  4  3  2  0
  5  6  1  0
  6  9  1  0
  6  7  1  1
  8  7  1  0
  9 10  2  0
  9 19  1  0
 11 12  1  0
 12 13  2  0
 12 14  1  0
 14 15  1  0
 15 16  1  0
 17 16  1  0
 18 17  1  6
 18 20  1  0
 19 18  1  0
 20 22  2  0
 20 21  1  0
M  END
$$$$
