GCR.pdb
     RDKit          3D

 22 21  0  0  1  0  0  0  0  0999 V2000
   24.1430  -17.3305  -19.3145 N   0  0  0  0  0  0  0  0  0  0  0  0
   24.7854  -17.0622  -18.0428 C   0  0  0  0  0  0  0  0  0  0  0  0
   25.3124  -18.3421  -17.4597 C   0  0  0  0  0  0  0  0  0  0  0  0
   25.0944  -19.4411  -18.0287 O   0  0  0  0  0  0  0  0  0  0  0  0
   26.0562  -18.2871  -16.2624 N   0  0  0  0  0  0  0  0  0  0  0  0
   26.5176  -19.5432  -15.6347 C   0  0  1  0  0  0  0  0  0  0  0  0
   28.0298  -19.5610  -15.7732 C   0  0  0  0  0  0  0  0  0  0  0  0
   28.6827  -17.9528  -15.2897 S   0  0  0  0  0  0  0  0  0  0  0  0
   26.0654  -19.4803  -14.2290 C   0  0  0  0  0  0  0  0  0  0  0  0
   25.7864  -18.3508  -13.6971 O   0  0  0  0  0  0  0  0  0  0  0  0
   20.4504  -23.1011  -13.7550 N   0  0  0  0  0  0  0  0  0  0  0  0
   19.8907  -21.9003  -13.2668 C   0  0  0  0  0  0  0  0  0  0  0  0
   18.7281  -21.4783  -13.6821 N   0  0  0  0  0  0  0  0  0  0  0  0
   20.5629  -21.1134  -12.3064 N   0  0  0  0  0  0  0  0  0  0  0  0
   21.8023  -21.4955  -11.7297 C   0  0  0  0  0  0  0  0  0  0  0  0
   22.9775  -21.2821  -12.6190 C   0  0  0  0  0  0  0  0  0  0  0  0
   23.7873  -20.0842  -12.2805 C   0  0  0  0  0  0  0  0  0  0  0  0
   25.2512  -20.4722  -12.0741 C   0  0  2  0  0  0  0  0  0  0  0  0
   25.9018  -20.5974  -13.3753 N   0  0  0  0  0  0  0  0  0  0  0  0
   25.3186  -21.7119  -11.2803 C   0  0  0  0  0  0  0  0  0  0  0  0
   25.0092  -21.7258   -9.9472 O   0  0  0  0  0  0  0  0  0  0  0  0
   25.6767  -22.7687  -11.8894 O   0  0  0  0  0  0  0  0  0  0  0  0
  1  2  1  0
  2  3  1  0
  3  5  1  0
  4  3  2  0
  5  6  1  0
  6  9  1  0
  6  7  1  1
  8  7  1  0
  9 10  2  0
  9 19  1  0
 11 12  1  0
 12 13  2  0
 12 14  1  0
 14 15  1  0
 15 16  1  0
 17 16  1  0
 18 17  1  6
 18 20  1  0
 19 18  1  0
 20 22  2  0
 20 21  1  0
M  END
$$$$
