GCR.pdb
     RDKit          3D

 22 21  0  0  1  0  0  0  0  0999 V2000
   29.2019  -22.2964  -16.9963 N   0  0  0  0  0  0  0  0  0  0  0  0
   27.8427  -21.8407  -17.2131 C   0  0  0  0  0  0  0  0  0  0  0  0
   27.2317  -21.4249  -15.9056 C   0  0  0  0  0  0  0  0  0  0  0  0
   27.9096  -21.4465  -14.8477 O   0  0  0  0  0  0  0  0  0  0  0  0
   25.8836  -21.0098  -15.8877 N   0  0  0  0  0  0  0  0  0  0  0  0
   25.2971  -20.4978  -14.6313 C   0  0  1  0  0  0  0  0  0  0  0  0
   25.6741  -19.0291  -14.5499 C   0  0  0  0  0  0  0  0  0  0  0  0
   24.9985  -18.1691  -15.9820 S   0  0  0  0  0  0  0  0  0  0  0  0
   23.8401  -20.7162  -14.7492 C   0  0  0  0  0  0  0  0  0  0  0  0
   23.2597  -20.5612  -15.8786 O   0  0  0  0  0  0  0  0  0  0  0  0
   19.3739  -24.3990   -9.3155 N   0  0  0  0  0  0  0  0  0  0  0  0
   19.0050  -24.9904  -10.5433 C   0  0  0  0  0  0  0  0  0  0  0  0
   18.9177  -26.2859  -10.6706 N   0  0  0  0  0  0  0  0  0  0  0  0
   18.7098  -24.2043  -11.6784 N   0  0  0  0  0  0  0  0  0  0  0  0
   18.8093  -22.7883  -11.6807 C   0  0  0  0  0  0  0  0  0  0  0  0
   19.5072  -22.2304  -12.8720 C   0  0  0  0  0  0  0  0  0  0  0  0
   20.9461  -21.9364  -12.6520 C   0  0  0  0  0  0  0  0  0  0  0  0
   21.5514  -21.2814  -13.8934 C   0  0  2  0  0  0  0  0  0  0  0  0
   22.9854  -21.0987  -13.6879 N   0  0  0  0  0  0  0  0  0  0  0  0
   20.8479  -20.0158  -14.1675 C   0  0  0  0  0  0  0  0  0  0  0  0
   19.7616  -19.9664  -14.9984 O   0  0  0  0  0  0  0  0  0  0  0  0
   21.2950  -18.9715  -13.5971 O   0  0  0  0  0  0  0  0  0  0  0  0
  1  2  1  0
  2  3  1  0
  3  5  1  0
  4  3  2  0
  5  6  1  0
  6  9  1  0
  6  7  1  6
  8  7  1  0
  9 10  2  0
  9 19  1  0
 11 12  1  0
 12 13  2  0
 12 14  1  0
 14 15  1  0
 15 16  1  0
 17 16  1  0
 18 17  1  1
 18 20  1  0
 19 18  1  0
 20 22  2  0
 20 21  1  0
M  END
$$$$
