GCR.pdb
     RDKit          3D

 22 21  0  0  1  0  0  0  0  0999 V2000
   28.8770  -23.0324  -18.4690 N   0  0  0  0  0  0  0  0  0  0  0  0
   28.4429  -21.7078  -18.0700 C   0  0  0  0  0  0  0  0  0  0  0  0
   28.4336  -21.6062  -16.5715 C   0  0  0  0  0  0  0  0  0  0  0  0
   28.7545  -22.5924  -15.8620 O   0  0  0  0  0  0  0  0  0  0  0  0
   28.0585  -20.3835  -15.9764 N   0  0  0  0  0  0  0  0  0  0  0  0
   28.0959  -20.2495  -14.5049 C   0  0  1  0  0  0  0  0  0  0  0  0
   28.6950  -18.8847  -14.2141 C   0  0  0  0  0  0  0  0  0  0  0  0
   27.7115  -17.6230  -15.0432 S   0  0  0  0  0  0  0  0  0  0  0  0
   26.6941  -20.3748  -14.0537 C   0  0  0  0  0  0  0  0  0  0  0  0
   25.7572  -19.8040  -14.7117 O   0  0  0  0  0  0  0  0  0  0  0  0
   20.0693  -23.7593  -14.5246 N   0  0  0  0  0  0  0  0  0  0  0  0
   19.5621  -22.7067  -13.7319 C   0  0  0  0  0  0  0  0  0  0  0  0
   18.3030  -22.6613  -13.3934 N   0  0  0  0  0  0  0  0  0  0  0  0
   20.3976  -21.6668  -13.2693 N   0  0  0  0  0  0  0  0  0  0  0  0
   21.7823  -21.5991  -13.5740 C   0  0  0  0  0  0  0  0  0  0  0  0
   22.6706  -22.0497  -12.4670 C   0  0  0  0  0  0  0  0  0  0  0  0
   24.0961  -22.2020  -12.8543 C   0  0  0  0  0  0  0  0  0  0  0  0
   24.9023  -20.9826  -12.4074 C   0  0  2  0  0  0  0  0  0  0  0  0
   26.2666  -21.0980  -12.9146 N   0  0  0  0  0  0  0  0  0  0  0  0
   24.8462  -20.8740  -10.9389 C   0  0  0  0  0  0  0  0  0  0  0  0
   25.9618  -21.0476  -10.1654 O   0  0  0  0  0  0  0  0  0  0  0  0
   23.7149  -20.6111  -10.4221 O   0  0  0  0  0  0  0  0  0  0  0  0
  1  2  1  0
  2  3  1  0
  3  5  1  0
  4  3  2  0
  5  6  1  0
  6  9  1  0
  6  7  1  6
  8  7  1  0
  9 10  2  0
  9 19  1  0
 11 12  1  0
 12 13  2  0
 12 14  1  0
 14 15  1  0
 15 16  1  0
 17 16  1  0
 18 17  1  1
 18 20  1  0
 19 18  1  0
 20 22  2  0
 20 21  1  0
M  END
$$$$
