GCR.pdb
     RDKit          3D

 22 21  0  0  1  0  0  0  0  0999 V2000
   26.7538  -23.4533  -16.5351 N   0  0  0  0  0  0  0  0  0  0  0  0
   26.2259  -22.2056  -16.0186 C   0  0  0  0  0  0  0  0  0  0  0  0
   25.7387  -22.4039  -14.6117 C   0  0  0  0  0  0  0  0  0  0  0  0
   25.3638  -23.5371  -14.2189 O   0  0  0  0  0  0  0  0  0  0  0  0
   25.7104  -21.2948  -13.7405 N   0  0  0  0  0  0  0  0  0  0  0  0
   25.2309  -21.4718  -12.3536 C   0  0  1  0  0  0  0  0  0  0  0  0
   25.9882  -20.4642  -11.5067 C   0  0  0  0  0  0  0  0  0  0  0  0
   25.5099  -20.6697   -9.7817 S   0  0  0  0  0  0  0  0  0  0  0  0
   23.7758  -21.2161  -12.3954 C   0  0  0  0  0  0  0  0  0  0  0  0
   23.3117  -20.2827  -13.1369 O   0  0  0  0  0  0  0  0  0  0  0  0
   16.8534  -25.2699   -8.7783 N   0  0  0  0  0  0  0  0  0  0  0  0
   17.8611  -24.5053   -8.1511 C   0  0  0  0  0  0  0  0  0  0  0  0
   18.1844  -24.7064   -6.9033 N   0  0  0  0  0  0  0  0  0  0  0  0
   18.5625  -23.4991   -8.8504 N   0  0  0  0  0  0  0  0  0  0  0  0
   18.3186  -23.1985  -10.2161 C   0  0  0  0  0  0  0  0  0  0  0  0
   19.1692  -22.1030  -10.7582 C   0  0  0  0  0  0  0  0  0  0  0  0
   20.6287  -22.3525  -10.6438 C   0  0  0  0  0  0  0  0  0  0  0  0
   21.3876  -21.5734  -11.7177 C   0  0  2  0  0  0  0  0  0  0  0  0
   22.8011  -21.9358  -11.6638 N   0  0  0  0  0  0  0  0  0  0  0  0
   21.1602  -20.1304  -11.5239 C   0  0  0  0  0  0  0  0  0  0  0  0
   21.7481  -19.4451  -10.4954 O   0  0  0  0  0  0  0  0  0  0  0  0
   20.3936  -19.5499  -12.3554 O   0  0  0  0  0  0  0  0  0  0  0  0
  1  2  1  0
  2  3  1  0
  3  5  1  0
  4  3  2  0
  5  6  1  0
  6  9  1  0
  6  7  1  1
  8  7  1  0
  9 10  2  0
  9 19  1  0
 11 12  1  0
 12 13  2  0
 12 14  1  0
 14 15  1  0
 15 16  1  0
 17 16  1  0
 18 17  1  1
 18 20  1  0
 19 18  1  0
 20 22  2  0
 20 21  1  0
M  END
$$$$
