GCR.pdb
     RDKit          3D

 22 21  0  0  1  0  0  0  0  0999 V2000
   27.9840  -18.2507  -15.8761 N   0  0  0  0  0  0  0  0  0  0  0  0
   27.8199  -18.2901  -14.4361 C   0  0  0  0  0  0  0  0  0  0  0  0
   27.0957  -19.5452  -14.0414 C   0  0  0  0  0  0  0  0  0  0  0  0
   26.6472  -20.3266  -14.9174 O   0  0  0  0  0  0  0  0  0  0  0  0
   26.9291  -19.8302  -12.6700 N   0  0  0  0  0  0  0  0  0  0  0  0
   26.1244  -21.0015  -12.2633 C   0  0  1  0  0  0  0  0  0  0  0  0
   26.4917  -21.2929  -10.8189 C   0  0  0  0  0  0  0  0  0  0  0  0
   28.2811  -21.4600  -10.6902 S   0  0  0  0  0  0  0  0  0  0  0  0
   24.7127  -20.5977  -12.4319 C   0  0  0  0  0  0  0  0  0  0  0  0
   24.3025  -19.4880  -11.9453 O   0  0  0  0  0  0  0  0  0  0  0  0
   20.9545  -16.9302  -18.0968 N   0  0  0  0  0  0  0  0  0  0  0  0
   19.9188  -17.0579  -17.1458 C   0  0  0  0  0  0  0  0  0  0  0  0
   18.6659  -16.9433  -17.4910 N   0  0  0  0  0  0  0  0  0  0  0  0
   20.1972  -17.3210  -15.7868 N   0  0  0  0  0  0  0  0  0  0  0  0
   21.4174  -17.8996  -15.3495 C   0  0  0  0  0  0  0  0  0  0  0  0
   21.4006  -19.3878  -15.3002 C   0  0  0  0  0  0  0  0  0  0  0  0
   22.6751  -19.9959  -14.8405 C   0  0  0  0  0  0  0  0  0  0  0  0
   22.4621  -20.7502  -13.5283 C   0  0  2  0  0  0  0  0  0  0  0  0
   23.7255  -21.3515  -13.1107 N   0  0  0  0  0  0  0  0  0  0  0  0
   21.3884  -21.7436  -13.7070 C   0  0  0  0  0  0  0  0  0  0  0  0
   20.0808  -21.4397  -13.4407 O   0  0  0  0  0  0  0  0  0  0  0  0
   21.7309  -22.8960  -14.1202 O   0  0  0  0  0  0  0  0  0  0  0  0
  1  2  1  0
  2  3  1  0
  3  5  1  0
  4  3  2  0
  5  6  1  0
  6  9  1  0
  6  7  1  1
  8  7  1  0
  9 10  2  0
  9 19  1  0
 11 12  1  0
 12 13  2  0
 12 14  1  0
 14 15  1  0
 15 16  1  0
 17 16  1  0
 18 17  1  6
 18 20  1  0
 19 18  1  0
 20 22  2  0
 20 21  1  0
M  END
$$$$
