GCR.pdb
     RDKit          3D

 22 21  0  0  1  0  0  0  0  0999 V2000
   17.4311  -25.7182   -7.1097 N   0  0  0  0  0  0  0  0  0  0  0  0
   17.4999  -25.0151   -5.8436 C   0  0  0  0  0  0  0  0  0  0  0  0
   16.2838  -25.3304   -5.0205 C   0  0  0  0  0  0  0  0  0  0  0  0
   15.4583  -26.1960   -5.4057 O   0  0  0  0  0  0  0  0  0  0  0  0
   16.0863  -24.6373   -3.8079 N   0  0  0  0  0  0  0  0  0  0  0  0
   14.9789  -25.0368   -2.9142 C   0  0  1  0  0  0  0  0  0  0  0  0
   15.5062  -26.1783   -2.0627 C   0  0  0  0  0  0  0  0  0  0  0  0
   17.0866  -25.6944   -1.3452 S   0  0  0  0  0  0  0  0  0  0  0  0
   14.6441  -23.8325   -2.1255 C   0  0  0  0  0  0  0  0  0  0  0  0
   15.4841  -22.8717   -2.0377 O   0  0  0  0  0  0  0  0  0  0  0  0
    9.6848  -17.4447   -2.0332 N   0  0  0  0  0  0  0  0  0  0  0  0
    9.9530  -17.4721   -0.6473 C   0  0  0  0  0  0  0  0  0  0  0  0
    9.6345  -16.4684    0.1230 N   0  0  0  0  0  0  0  0  0  0  0  0
   10.5693  -18.5877   -0.0399 N   0  0  0  0  0  0  0  0  0  0  0  0
   10.9403  -19.7508   -0.7641 C   0  0  0  0  0  0  0  0  0  0  0  0
   11.3707  -20.8891    0.0941 C   0  0  0  0  0  0  0  0  0  0  0  0
   11.6649  -22.1378   -0.6540 C   0  0  0  0  0  0  0  0  0  0  0  0
   13.1718  -22.3907   -0.6959 C   0  0  2  0  0  0  0  0  0  0  0  0
   13.4299  -23.6277   -1.4274 N   0  0  0  0  0  0  0  0  0  0  0  0
   13.6985  -22.4203    0.6801 C   0  0  0  0  0  0  0  0  0  0  0  0
   14.0716  -21.2742    1.3283 O   0  0  0  0  0  0  0  0  0  0  0  0
   13.7906  -23.5585    1.2387 O   0  0  0  0  0  0  0  0  0  0  0  0
  1  2  1  0
  2  3  1  0
  3  5  1  0
  4  3  2  0
  5  6  1  0
  6  9  1  0
  6  7  1  1
  8  7  1  0
  9 10  2  0
  9 19  1  0
 11 12  1  0
 12 13  2  0
 12 14  1  0
 14 15  1  0
 15 16  1  0
 17 16  1  0
 18 17  1  1
 18 20  1  0
 19 18  1  0
 20 22  2  0
 20 21  1  0
M  END
$$$$
