GCR.pdb
     RDKit          3D

 22 21  0  0  1  0  0  0  0  0999 V2000
   19.2225  -10.1809  -16.2358 N   0  0  0  0  0  0  0  0  0  0  0  0
   19.5498   -8.8537  -15.7528 C   0  0  0  0  0  0  0  0  0  0  0  0
   19.5670   -8.8495  -14.2510 C   0  0  0  0  0  0  0  0  0  0  0  0
   19.1504   -9.8430  -13.6043 O   0  0  0  0  0  0  0  0  0  0  0  0
   20.0597   -7.7101  -13.5810 N   0  0  0  0  0  0  0  0  0  0  0  0
   20.1484   -7.7160  -12.1055 C   0  0  1  0  0  0  0  0  0  0  0  0
   21.5131   -7.1489  -11.7562 C   0  0  0  0  0  0  0  0  0  0  0  0
   21.6960   -5.5353  -12.5369 S   0  0  0  0  0  0  0  0  0  0  0  0
   19.0317   -6.8715  -11.6320 C   0  0  0  0  0  0  0  0  0  0  0  0
   18.8075   -5.7395  -12.1840 O   0  0  0  0  0  0  0  0  0  0  0  0
   12.2989   -9.9703   -8.2316 N   0  0  0  0  0  0  0  0  0  0  0  0
   12.3537   -8.6237   -7.8106 C   0  0  0  0  0  0  0  0  0  0  0  0
   11.3999   -8.1013   -7.0899 N   0  0  0  0  0  0  0  0  0  0  0  0
   13.4444   -7.7925   -8.1466 N   0  0  0  0  0  0  0  0  0  0  0  0
   13.4188   -6.8969   -9.2475 C   0  0  0  0  0  0  0  0  0  0  0  0
   14.7093   -6.1943   -9.4891 C   0  0  0  0  0  0  0  0  0  0  0  0
   15.8539   -7.1005   -9.7609 C   0  0  0  0  0  0  0  0  0  0  0  0
   17.0911   -6.2927  -10.1524 C   0  0  2  0  0  0  0  0  0  0  0  0
   18.1449   -7.2079  -10.5814 N   0  0  0  0  0  0  0  0  0  0  0  0
   17.4978   -5.4452   -9.0175 C   0  0  0  0  0  0  0  0  0  0  0  0
   18.5636   -5.7742   -8.2245 O   0  0  0  0  0  0  0  0  0  0  0  0
   16.8144   -4.3940   -8.8079 O   0  0  0  0  0  0  0  0  0  0  0  0
  1  2  1  0
  2  3  1  0
  3  5  1  0
  4  3  2  0
  5  6  1  0
  6  9  1  0
  6  7  1  6
  8  7  1  0
  9 10  2  0
  9 19  1  0
 11 12  1  0
 12 13  2  0
 12 14  1  0
 14 15  1  0
 15 16  1  0
 17 16  1  0
 18 17  1  1
 18 20  1  0
 19 18  1  0
 20 22  2  0
 20 21  1  0
M  END
$$$$
