GCR.pdb
     RDKit          3D

 22 21  0  0  1  0  0  0  0  0999 V2000
   23.3410  -20.5523  -17.4410 N   0  0  0  0  0  0  0  0  0  0  0  0
   21.9786  -20.5791  -16.9459 C   0  0  0  0  0  0  0  0  0  0  0  0
   21.9845  -20.6268  -15.4447 C   0  0  0  0  0  0  0  0  0  0  0  0
   22.8607  -20.0094  -14.7891 O   0  0  0  0  0  0  0  0  0  0  0  0
   20.9883  -21.3771  -14.7854 N   0  0  0  0  0  0  0  0  0  0  0  0
   20.8654  -21.2888  -13.3151 C   0  0  1  0  0  0  0  0  0  0  0  0
   20.4869  -19.8518  -13.0024 C   0  0  0  0  0  0  0  0  0  0  0  0
   20.3195  -19.6636  -11.2182 S   0  0  0  0  0  0  0  0  0  0  0  0
   19.8154  -22.2591  -12.9402 C   0  0  0  0  0  0  0  0  0  0  0  0
   18.5870  -21.9976  -13.1834 O   0  0  0  0  0  0  0  0  0  0  0  0
   20.9762  -29.8336  -10.3877 N   0  0  0  0  0  0  0  0  0  0  0  0
   19.5957  -29.7343  -10.1088 C   0  0  0  0  0  0  0  0  0  0  0  0
   18.8536  -30.7996   -9.9797 N   0  0  0  0  0  0  0  0  0  0  0  0
   18.9660  -28.4804   -9.9520 N   0  0  0  0  0  0  0  0  0  0  0  0
   19.6291  -27.2501  -10.1998 C   0  0  0  0  0  0  0  0  0  0  0  0
   18.7788  -26.0472   -9.9819 C   0  0  0  0  0  0  0  0  0  0  0  0
   19.4459  -24.7623  -10.3128 C   0  0  0  0  0  0  0  0  0  0  0  0
   18.9637  -24.2456  -11.6680 C   0  0  2  0  0  0  0  0  0  0  0  0
   20.0458  -23.5061  -12.3116 N   0  0  0  0  0  0  0  0  0  0  0  0
   17.7512  -23.4306  -11.4744 C   0  0  0  0  0  0  0  0  0  0  0  0
   17.8253  -22.1100  -11.1230 O   0  0  0  0  0  0  0  0  0  0  0  0
   16.6328  -24.0090  -11.6490 O   0  0  0  0  0  0  0  0  0  0  0  0
  1  2  1  0
  2  3  1  0
  3  5  1  0
  4  3  2  0
  5  6  1  0
  6  9  1  0
  6  7  1  6
  8  7  1  0
  9 10  2  0
  9 19  1  0
 11 12  1  0
 12 13  2  0
 12 14  1  0
 14 15  1  0
 15 16  1  0
 17 16  1  0
 18 17  1  1
 18 20  1  0
 19 18  1  0
 20 22  2  0
 20 21  1  0
M  END
$$$$
