GCR.pdb
     RDKit          3D

 22 21  0  0  1  0  0  0  0  0999 V2000
   23.1010  -13.4041  -14.9476 N   0  0  0  0  0  0  0  0  0  0  0  0
   24.4192  -13.9694  -14.7355 C   0  0  0  0  0  0  0  0  0  0  0  0
   24.4037  -15.4337  -15.0692 C   0  0  0  0  0  0  0  0  0  0  0  0
   23.3496  -15.9862  -15.4727 O   0  0  0  0  0  0  0  0  0  0  0  0
   25.5939  -16.1763  -14.9215 N   0  0  0  0  0  0  0  0  0  0  0  0
   25.6203  -17.5965  -15.3303 C   0  0  1  0  0  0  0  0  0  0  0  0
   26.2684  -17.6351  -16.7031 C   0  0  0  0  0  0  0  0  0  0  0  0
   27.8280  -16.7350  -16.6417 S   0  0  0  0  0  0  0  0  0  0  0  0
   26.4103  -18.2980  -14.2969 C   0  0  0  0  0  0  0  0  0  0  0  0
   27.5528  -17.8418  -13.9462 O   0  0  0  0  0  0  0  0  0  0  0  0
   22.9400  -20.9550  -11.7791 N   0  0  0  0  0  0  0  0  0  0  0  0
   22.9517  -20.9611  -10.3673 C   0  0  0  0  0  0  0  0  0  0  0  0
   21.9808  -21.5035   -9.6853 N   0  0  0  0  0  0  0  0  0  0  0  0
   24.0164  -20.3873   -9.6387 N   0  0  0  0  0  0  0  0  0  0  0  0
   25.1476  -19.7999  -10.2633 C   0  0  0  0  0  0  0  0  0  0  0  0
   26.2342  -20.7663  -10.5844 C   0  0  0  0  0  0  0  0  0  0  0  0
   26.2114  -21.2648  -11.9831 C   0  0  0  0  0  0  0  0  0  0  0  0
   26.9684  -20.3064  -12.9022 C   0  0  2  0  0  0  0  0  0  0  0  0
   26.0084  -19.4775  -13.6255 N   0  0  0  0  0  0  0  0  0  0  0  0
   27.8433  -21.0820  -13.7993 C   0  0  0  0  0  0  0  0  0  0  0  0
   27.3988  -21.5448  -15.0081 O   0  0  0  0  0  0  0  0  0  0  0  0
   29.0301  -21.3017  -13.4004 O   0  0  0  0  0  0  0  0  0  0  0  0
  1  2  1  0
  2  3  1  0
  3  5  1  0
  4  3  2  0
  5  6  1  0
  6  9  1  0
  6  7  1  6
  8  7  1  0
  9 10  2  0
  9 19  1  0
 11 12  1  0
 12 13  2  0
 12 14  1  0
 14 15  1  0
 15 16  1  0
 17 16  1  0
 18 17  1  1
 18 20  1  0
 19 18  1  0
 20 22  2  0
 20 21  1  0
M  END
$$$$
