YSE.pdb
     RDKit          3D

 28 28  0  0  1  0  0  0  0  0999 V2000
   28.6402  -34.6882  -16.3577 O   0  0  0  0  0  0  0  0  0  0  0  0
   28.6629  -33.3398  -16.6601 C   0  0  0  0  0  0  0  0  0  0  0  0
   28.2242  -32.9248  -17.8867 C   0  0  0  0  0  0  0  0  0  0  0  0
   28.2456  -31.5623  -18.1975 C   0  0  0  0  0  0  0  0  0  0  0  0
   28.7077  -30.6612  -17.2638 C   0  0  0  0  0  0  0  0  0  0  0  0
   28.7489  -29.2009  -17.5310 C   0  0  0  0  0  0  0  0  0  0  0  0
   27.7190  -28.5306  -16.6442 C   0  0  2  0  0  0  0  0  0  0  0  0
   26.3694  -28.8398  -16.9936 N   0  0  0  0  0  0  0  0  0  0  0  0
   27.9364  -27.0783  -16.6792 C   0  0  0  0  0  0  0  0  0  0  0  0
   26.9743  -26.3607  -17.0848 O   0  0  0  0  0  0  0  0  0  0  0  0
   29.1466  -31.1117  -16.0261 C   0  0  0  0  0  0  0  0  0  0  0  0
   29.1254  -32.4408  -15.7235 C   0  0  0  0  0  0  0  0  0  0  0  0
   31.5660  -25.1697  -15.8732 O   0  0  0  0  0  0  0  0  0  0  0  0
   30.4107  -24.5732  -15.4336 C   0  0  0  0  0  0  0  0  0  0  0  0
   29.2296  -25.0552  -16.2354 C   0  0  2  0  0  0  0  0  0  0  0  0
   29.1501  -26.5035  -16.2859 N   0  0  0  0  0  0  0  0  0  0  0  0
   29.3077  -24.5701  -17.6510 C   0  0  0  0  0  0  0  0  0  0  0  0
   29.4914  -25.4068  -18.5853 O   0  0  0  0  0  0  0  0  0  0  0  0
   29.1865  -23.2292  -18.0257 N   0  0  0  0  0  0  0  0  0  0  0  0
   29.5417  -22.7561  -19.3981 C   0  0  1  0  0  0  0  0  0  0  0  0
   30.9283  -23.2394  -19.6045 C   0  0  0  0  0  0  0  0  0  0  0  0
   31.5491  -23.1648  -20.9359 C   0  0  0  0  0  0  0  0  0  0  0  0
   32.8961  -23.6926  -21.1003 C   0  0  0  0  0  0  0  0  0  0  0  0
   33.0867  -24.7210  -21.8150 O   0  0  0  0  0  0  0  0  0  0  0  0
   28.4965  -23.2727  -20.2735 C   0  0  0  0  0  0  0  0  0  0  0  0
   28.5364  -23.0935  -21.5019 O   0  0  0  0  0  0  0  0  0  0  0  0
   33.9862  -23.0596  -20.4681 O   0  0  0  0  0  0  0  0  0  0  0  0
   27.4177  -23.9834  -19.7742 O   0  0  0  0  0  0  0  0  0  0  0  0
  2  1  1  0
  2 12  2  0
  3  2  1  0
  4  3  2  0
  4  5  1  0
  5 11  2  0
  6  5  1  0
  7  8  1  6
  7  6  1  0
  9  7  1  0
  9 10  2  0
 11 12  1  0
 13 14  1  0
 15 14  1  1
 15 16  1  0
 15 17  1  0
 16  9  1  0
 17 19  1  0
 18 17  2  0
 19 20  1  0
 20 25  1  0
 20 21  1  6
 22 21  1  0
 23 22  1  0
 23 24  2  0
 25 26  2  0
 25 28  1  0
 27 23  1  0
M  END
$$$$
