YSE.pdb
     RDKit          3D

 28 28  0  0  1  0  0  0  0  0999 V2000
   15.3404  -13.2048  -20.9208 O   0  0  0  0  0  0  0  0  0  0  0  0
   15.8141  -12.3043  -19.9854 C   0  0  0  0  0  0  0  0  0  0  0  0
   15.2204  -12.2476  -18.7551 C   0  0  0  0  0  0  0  0  0  0  0  0
   15.6956  -11.3384  -17.8060 C   0  0  0  0  0  0  0  0  0  0  0  0
   16.7529  -10.5153  -18.1254 C   0  0  0  0  0  0  0  0  0  0  0  0
   17.3075   -9.5337  -17.1588 C   0  0  0  0  0  0  0  0  0  0  0  0
   18.5718  -10.1209  -16.5644 C   0  0  2  0  0  0  0  0  0  0  0  0
   18.3455  -11.2754  -15.7552 N   0  0  0  0  0  0  0  0  0  0  0  0
   19.2591   -9.0796  -15.7890 C   0  0  0  0  0  0  0  0  0  0  0  0
   18.7634   -8.7774  -14.6630 O   0  0  0  0  0  0  0  0  0  0  0  0
   17.3361  -10.5954  -19.3827 C   0  0  0  0  0  0  0  0  0  0  0  0
   16.8723  -11.4825  -20.3081 C   0  0  0  0  0  0  0  0  0  0  0  0
   23.1717   -8.0443  -16.1693 O   0  0  0  0  0  0  0  0  0  0  0  0
   22.4313   -7.7462  -15.0527 C   0  0  0  0  0  0  0  0  0  0  0  0
   21.0112   -7.4165  -15.4334 C   0  0  2  0  0  0  0  0  0  0  0  0
   20.4101   -8.4424  -16.2657 N   0  0  0  0  0  0  0  0  0  0  0  0
   20.9460   -6.1325  -16.2031 C   0  0  0  0  0  0  0  0  0  0  0  0
   21.0759   -6.1564  -17.4638 O   0  0  0  0  0  0  0  0  0  0  0  0
   20.7440   -4.8796  -15.6177 N   0  0  0  0  0  0  0  0  0  0  0  0
   20.8013   -3.6161  -16.4138 C   0  0  1  0  0  0  0  0  0  0  0  0
   19.5605   -2.8934  -16.0435 C   0  0  0  0  0  0  0  0  0  0  0  0
   19.3071   -1.5408  -16.5629 C   0  0  0  0  0  0  0  0  0  0  0  0
   18.1173   -0.8371  -16.1056 C   0  0  0  0  0  0  0  0  0  0  0  0
   17.3516   -1.3810  -15.2555 O   0  0  0  0  0  0  0  0  0  0  0  0
   22.0804   -3.0007  -16.0807 C   0  0  0  0  0  0  0  0  0  0  0  0
   22.5828   -3.1268  -14.9519 O   0  0  0  0  0  0  0  0  0  0  0  0
   17.8190    0.4474  -16.6054 O   0  0  0  0  0  0  0  0  0  0  0  0
   22.7877   -2.2515  -17.0061 O   0  0  0  0  0  0  0  0  0  0  0  0
  2  1  1  0
  2 12  2  0
  3  2  1  0
  4  3  2  0
  4  5  1  0
  5 11  2  0
  6  5  1  0
  7  8  1  1
  7  6  1  0
  9  7  1  0
  9 10  2  0
 11 12  1  0
 13 14  1  0
 15 14  1  6
 15 16  1  0
 15 17  1  0
 16  9  1  0
 17 19  1  0
 18 17  2  0
 19 20  1  0
 20 25  1  0
 20 21  1  1
 22 21  1  0
 23 22  1  0
 23 24  2  0
 25 26  2  0
 25 28  1  0
 27 23  1  0
M  END
$$$$
