YSE.pdb
     RDKit          3D

 28 28  0  0  1  0  0  0  0  0999 V2000
   15.0489  -16.0093  -17.0531 O   0  0  0  0  0  0  0  0  0  0  0  0
   15.5829  -14.7581  -16.8094 C   0  0  0  0  0  0  0  0  0  0  0  0
   16.8907  -14.5184  -17.1281 C   0  0  0  0  0  0  0  0  0  0  0  0
   17.4355  -13.2548  -16.8833 C   0  0  0  0  0  0  0  0  0  0  0  0
   16.6467  -12.2729  -16.3255 C   0  0  0  0  0  0  0  0  0  0  0  0
   17.1647  -10.9091  -16.0476 C   0  0  0  0  0  0  0  0  0  0  0  0
   18.0086  -10.9730  -14.7906 C   0  0  2  0  0  0  0  0  0  0  0  0
   17.2684  -11.3071  -13.6161 N   0  0  0  0  0  0  0  0  0  0  0  0
   18.6943   -9.6860  -14.6140 C   0  0  0  0  0  0  0  0  0  0  0  0
   18.1193   -8.8209  -13.8887 O   0  0  0  0  0  0  0  0  0  0  0  0
   15.3218  -12.5451  -16.0125 C   0  0  0  0  0  0  0  0  0  0  0  0
   14.7909  -13.7778  -16.2517 C   0  0  0  0  0  0  0  0  0  0  0  0
   22.6430   -9.1226  -14.7885 O   0  0  0  0  0  0  0  0  0  0  0  0
   21.8117   -8.1784  -14.2400 C   0  0  0  0  0  0  0  0  0  0  0  0
   20.5157   -8.1074  -15.0051 C   0  0  2  0  0  0  0  0  0  0  0  0
   19.9275   -9.4171  -15.2181 N   0  0  0  0  0  0  0  0  0  0  0  0
   20.7230   -7.4941  -16.3565 C   0  0  0  0  0  0  0  0  0  0  0  0
   20.7002   -8.2346  -17.3851 O   0  0  0  0  0  0  0  0  0  0  0  0
   20.9418   -6.1305  -16.5709 N   0  0  0  0  0  0  0  0  0  0  0  0
   21.1645   -5.5706  -17.9385 C   0  0  1  0  0  0  0  0  0  0  0  0
   19.9104   -5.8769  -18.6682 C   0  0  0  0  0  0  0  0  0  0  0  0
   18.6909   -5.0972  -18.4066 C   0  0  0  0  0  0  0  0  0  0  0  0
   17.4992   -5.3961  -19.1880 C   0  0  0  0  0  0  0  0  0  0  0  0
   16.5313   -6.0112  -18.6501 O   0  0  0  0  0  0  0  0  0  0  0  0
   21.5173   -4.1705  -17.7362 C   0  0  0  0  0  0  0  0  0  0  0  0
   21.5338   -3.6666  -16.6011 O   0  0  0  0  0  0  0  0  0  0  0  0
   17.4212   -4.9998  -20.5392 O   0  0  0  0  0  0  0  0  0  0  0  0
   21.8482   -3.3451  -18.7980 O   0  0  0  0  0  0  0  0  0  0  0  0
  2  1  1  0
  2 12  2  0
  3  2  1  0
  4  3  2  0
  4  5  1  0
  5 11  2  0
  6  5  1  0
  7  8  1  1
  7  6  1  0
  9  7  1  0
  9 10  2  0
 11 12  1  0
 13 14  1  0
 15 14  1  6
 15 16  1  0
 15 17  1  0
 16  9  1  0
 17 19  1  0
 18 17  2  0
 19 20  1  0
 20 25  1  0
 20 21  1  6
 22 21  1  0
 23 22  1  0
 23 24  2  0
 25 26  2  0
 25 28  1  0
 27 23  1  0
M  END
$$$$
