YSE.pdb
     RDKit          3D

 28 28  0  0  1  0  0  0  0  0999 V2000
   20.0091  -23.1986   -6.5550 O   0  0  0  0  0  0  0  0  0  0  0  0
   20.7993  -22.4520   -7.4085 C   0  0  0  0  0  0  0  0  0  0  0  0
   21.5804  -21.4556   -6.8923 C   0  0  0  0  0  0  0  0  0  0  0  0
   22.3809  -20.6975   -7.7514 C   0  0  0  0  0  0  0  0  0  0  0  0
   22.3696  -20.9664   -9.1023 C   0  0  0  0  0  0  0  0  0  0  0  0
   23.2023  -20.2015  -10.0651 C   0  0  0  0  0  0  0  0  0  0  0  0
   24.4166  -21.0408  -10.4080 C   0  0  2  0  0  0  0  0  0  0  0  0
   25.4641  -20.9604   -9.4409 N   0  0  0  0  0  0  0  0  0  0  0  0
   24.9110  -20.6404  -11.7320 C   0  0  0  0  0  0  0  0  0  0  0  0
   25.5084  -19.5259  -11.8117 O   0  0  0  0  0  0  0  0  0  0  0  0
   21.5664  -21.9846   -9.5979 C   0  0  0  0  0  0  0  0  0  0  0  0
   20.7860  -22.7238   -8.7595 C   0  0  0  0  0  0  0  0  0  0  0  0
   26.7878  -21.5413  -15.8826 O   0  0  0  0  0  0  0  0  0  0  0  0
   26.2624  -22.0059  -14.7029 C   0  0  0  0  0  0  0  0  0  0  0  0
   25.3117  -20.9960  -14.1143 C   0  0  2  0  0  0  0  0  0  0  0  0
   24.7331  -21.4466  -12.8618 N   0  0  0  0  0  0  0  0  0  0  0  0
   24.1739  -20.7209  -15.0497 C   0  0  0  0  0  0  0  0  0  0  0  0
   23.1279  -21.4338  -14.9826 O   0  0  0  0  0  0  0  0  0  0  0  0
   24.1810  -19.7081  -16.0127 N   0  0  0  0  0  0  0  0  0  0  0  0
   23.0417  -19.5083  -16.9591 C   0  0  1  0  0  0  0  0  0  0  0  0
   22.8221  -18.0418  -16.9633 C   0  0  0  0  0  0  0  0  0  0  0  0
   21.7585  -17.4537  -17.7919 C   0  0  0  0  0  0  0  0  0  0  0  0
   21.6826  -16.0030  -17.8908 C   0  0  0  0  0  0  0  0  0  0  0  0
   22.6597  -15.2937  -17.5077 O   0  0  0  0  0  0  0  0  0  0  0  0
   23.4508  -20.1455  -18.2050 C   0  0  0  0  0  0  0  0  0  0  0  0
   24.6498  -20.3243  -18.4751 O   0  0  0  0  0  0  0  0  0  0  0  0
   20.5259  -15.3891  -18.4141 O   0  0  0  0  0  0  0  0  0  0  0  0
   22.5225  -20.5774  -19.1377 O   0  0  0  0  0  0  0  0  0  0  0  0
  2  1  1  0
  2 12  2  0
  3  2  1  0
  4  3  2  0
  4  5  1  0
  5 11  2  0
  6  5  1  0
  7  8  1  1
  7  6  1  0
  9  7  1  0
  9 10  2  0
 11 12  1  0
 13 14  1  0
 15 14  1  6
 15 16  1  0
 15 17  1  0
 16  9  1  0
 17 19  1  0
 18 17  2  0
 19 20  1  0
 20 25  1  0
 20 21  1  6
 22 21  1  0
 23 22  1  0
 23 24  2  0
 25 26  2  0
 25 28  1  0
 27 23  1  0
M  END
$$$$
