YSE.pdb
     RDKit          3D

 28 28  0  0  1  0  0  0  0  0999 V2000
   21.7067  -13.8640  -22.9650 O   0  0  0  0  0  0  0  0  0  0  0  0
   21.2831  -12.9782  -21.9924 C   0  0  0  0  0  0  0  0  0  0  0  0
   22.2122  -12.3734  -21.1921 C   0  0  0  0  0  0  0  0  0  0  0  0
   21.7888  -11.4771  -20.2068 C   0  0  0  0  0  0  0  0  0  0  0  0
   20.4440  -11.2183  -20.0583 C   0  0  0  0  0  0  0  0  0  0  0  0
   19.9319  -10.2715  -19.0352 C   0  0  0  0  0  0  0  0  0  0  0  0
   20.0150  -10.9496  -17.6825 C   0  0  2  0  0  0  0  0  0  0  0  0
   19.1722  -12.0957  -17.5601 N   0  0  0  0  0  0  0  0  0  0  0  0
   19.6959   -9.9663  -16.6390 C   0  0  0  0  0  0  0  0  0  0  0  0
   18.4749   -9.6661  -16.4834 O   0  0  0  0  0  0  0  0  0  0  0  0
   19.5234  -11.8471  -20.8857 C   0  0  0  0  0  0  0  0  0  0  0  0
   19.9370  -12.7212  -21.8467 C   0  0  0  0  0  0  0  0  0  0  0  0
   21.5884   -9.4051  -13.1877 O   0  0  0  0  0  0  0  0  0  0  0  0
   20.3423   -8.8998  -13.4624 C   0  0  0  0  0  0  0  0  0  0  0  0
   20.2824   -8.3819  -14.8761 C   0  0  2  0  0  0  0  0  0  0  0  0
   20.6900   -9.3799  -15.8478 N   0  0  0  0  0  0  0  0  0  0  0  0
   21.1872   -7.2007  -15.0539 C   0  0  0  0  0  0  0  0  0  0  0  0
   22.3976   -7.3887  -15.3800 O   0  0  0  0  0  0  0  0  0  0  0  0
   20.7826   -5.8737  -14.8853 N   0  0  0  0  0  0  0  0  0  0  0  0
   21.7273   -4.7297  -15.0655 C   0  0  1  0  0  0  0  0  0  0  0  0
   21.0912   -3.8906  -16.1096 C   0  0  0  0  0  0  0  0  0  0  0  0
   21.6737   -2.5895  -16.4719 C   0  0  0  0  0  0  0  0  0  0  0  0
   20.9668   -1.7615  -17.4388 C   0  0  0  0  0  0  0  0  0  0  0  0
   19.9031   -2.1902  -17.9768 O   0  0  0  0  0  0  0  0  0  0  0  0
   21.9058   -4.1559  -13.7372 C   0  0  0  0  0  0  0  0  0  0  0  0
   21.0439   -4.2931  -12.8537 O   0  0  0  0  0  0  0  0  0  0  0  0
   21.4631   -0.4847  -17.7739 O   0  0  0  0  0  0  0  0  0  0  0  0
   23.0411   -3.4355  -13.4049 O   0  0  0  0  0  0  0  0  0  0  0  0
  2  1  1  0
  2 12  2  0
  3  2  1  0
  4  3  2  0
  4  5  1  0
  5 11  2  0
  6  5  1  0
  7  8  1  6
  7  6  1  0
  9  7  1  0
  9 10  2  0
 11 12  1  0
 13 14  1  0
 15 14  1  1
 15 16  1  0
 15 17  1  0
 16  9  1  0
 17 19  1  0
 18 17  2  0
 19 20  1  0
 20 25  1  0
 20 21  1  6
 22 21  1  0
 23 22  1  0
 23 24  2  0
 25 26  2  0
 25 28  1  0
 27 23  1  0
M  END
$$$$
