YSE.pdb
     RDKit          3D

 28 28  0  0  1  0  0  0  0  0999 V2000
   22.5049  -37.2185  -15.1701 O   0  0  0  0  0  0  0  0  0  0  0  0
   23.0897  -36.9292  -13.9518 C   0  0  0  0  0  0  0  0  0  0  0  0
   23.6067  -35.6813  -13.7406 C   0  0  0  0  0  0  0  0  0  0  0  0
   24.1995  -35.3840  -12.5103 C   0  0  0  0  0  0  0  0  0  0  0  0
   24.2532  -36.3522  -11.5320 C   0  0  0  0  0  0  0  0  0  0  0  0
   24.8634  -36.0962  -10.2025 C   0  0  0  0  0  0  0  0  0  0  0  0
   26.3205  -35.7381  -10.4142 C   0  0  2  0  0  0  0  0  0  0  0  0
   27.1466  -36.8559  -10.7416 N   0  0  0  0  0  0  0  0  0  0  0  0
   26.8235  -35.0662   -9.2087 C   0  0  0  0  0  0  0  0  0  0  0  0
   27.7731  -35.6301   -8.5878 O   0  0  0  0  0  0  0  0  0  0  0  0
   23.7196  -37.6108  -11.7748 C   0  0  0  0  0  0  0  0  0  0  0  0
   23.1414  -37.9001  -12.9749 C   0  0  0  0  0  0  0  0  0  0  0  0
   24.9330  -31.9023   -7.2614 O   0  0  0  0  0  0  0  0  0  0  0  0
   26.3053  -31.8910   -7.2822 C   0  0  0  0  0  0  0  0  0  0  0  0
   26.8406  -33.2735   -7.5508 C   0  0  2  0  0  0  0  0  0  0  0  0
   26.2827  -33.8573   -8.7568 N   0  0  0  0  0  0  0  0  0  0  0  0
   26.5159  -34.2038   -6.4219 C   0  0  0  0  0  0  0  0  0  0  0  0
   25.8408  -35.2512   -6.6543 O   0  0  0  0  0  0  0  0  0  0  0  0
   26.9160  -33.9970   -5.0989 N   0  0  0  0  0  0  0  0  0  0  0  0
   26.5466  -34.9443   -4.0035 C   0  0  1  0  0  0  0  0  0  0  0  0
   27.0975  -36.2481   -4.4458 C   0  0  0  0  0  0  0  0  0  0  0  0
   27.1708  -37.3786   -3.5077 C   0  0  0  0  0  0  0  0  0  0  0  0
   26.3009  -38.5235   -3.7365 C   0  0  0  0  0  0  0  0  0  0  0  0
   26.5679  -39.3417   -4.6661 O   0  0  0  0  0  0  0  0  0  0  0  0
   27.0758  -34.3541   -2.7799 C   0  0  0  0  0  0  0  0  0  0  0  0
   28.0068  -33.5326   -2.8097 O   0  0  0  0  0  0  0  0  0  0  0  0
   25.1655  -38.7230   -2.9242 O   0  0  0  0  0  0  0  0  0  0  0  0
   26.5643  -34.6834   -1.5357 O   0  0  0  0  0  0  0  0  0  0  0  0
  2  1  1  0
  2 12  2  0
  3  2  1  0
  4  3  2  0
  4  5  1  0
  5 11  2  0
  6  5  1  0
  7  8  1  1
  7  6  1  0
  9  7  1  0
  9 10  2  0
 11 12  1  0
 13 14  1  0
 15 14  1  1
 15 16  1  0
 15 17  1  0
 16  9  1  0
 17 19  1  0
 18 17  2  0
 19 20  1  0
 20 25  1  0
 20 21  1  6
 22 21  1  0
 23 22  1  0
 23 24  2  0
 25 26  2  0
 25 28  1  0
 27 23  1  0
M  END
$$$$
