YSE.pdb
     RDKit          3D

 28 28  0  0  1  0  0  0  0  0999 V2000
   20.5195  -13.6876  -24.4635 O   0  0  0  0  0  0  0  0  0  0  0  0
   20.6909  -13.0527  -23.2480 C   0  0  0  0  0  0  0  0  0  0  0  0
   21.9432  -12.6464  -22.8794 C   0  0  0  0  0  0  0  0  0  0  0  0
   22.1218  -12.0043  -21.6509 C   0  0  0  0  0  0  0  0  0  0  0  0
   21.0342  -11.7917  -20.8327 C   0  0  0  0  0  0  0  0  0  0  0  0
   21.1576  -11.1094  -19.5194 C   0  0  0  0  0  0  0  0  0  0  0  0
   21.8574  -12.0532  -18.5623 C   0  0  2  0  0  0  0  0  0  0  0  0
   21.0908  -13.2118  -18.2322 N   0  0  0  0  0  0  0  0  0  0  0  0
   22.2163  -11.3136  -17.3449 C   0  0  0  0  0  0  0  0  0  0  0  0
   21.4245  -11.4048  -16.3601 O   0  0  0  0  0  0  0  0  0  0  0  0
   19.7742  -12.2150  -21.2334 C   0  0  0  0  0  0  0  0  0  0  0  0
   19.6007  -12.8412  -22.4318 C   0  0  0  0  0  0  0  0  0  0  0  0
   25.5385  -11.2116  -15.5007 O   0  0  0  0  0  0  0  0  0  0  0  0
   25.1237   -9.9123  -15.6538 C   0  0  0  0  0  0  0  0  0  0  0  0
   23.6614   -9.8638  -16.0137 C   0  0  2  0  0  0  0  0  0  0  0  0
   23.3785  -10.5380  -17.2675 N   0  0  0  0  0  0  0  0  0  0  0  0
   23.1913   -8.4486  -16.1604 C   0  0  0  0  0  0  0  0  0  0  0  0
   23.0962   -7.9422  -17.3186 O   0  0  0  0  0  0  0  0  0  0  0  0
   22.8381   -7.6269  -15.0865 N   0  0  0  0  0  0  0  0  0  0  0  0
   22.3256   -6.2376  -15.2886 C   0  0  1  0  0  0  0  0  0  0  0  0
   21.1392   -6.4085  -16.1617 C   0  0  0  0  0  0  0  0  0  0  0  0
   20.2293   -5.2789  -16.4058 C   0  0  0  0  0  0  0  0  0  0  0  0
   18.9836   -5.5361  -17.1143 C   0  0  0  0  0  0  0  0  0  0  0  0
   18.1872   -4.5809  -17.3552 O   0  0  0  0  0  0  0  0  0  0  0  0
   22.1216   -5.6965  -13.9502 C   0  0  0  0  0  0  0  0  0  0  0  0
   21.9843   -6.4422  -12.9666 O   0  0  0  0  0  0  0  0  0  0  0  0
   18.6653   -6.8444  -17.5338 O   0  0  0  0  0  0  0  0  0  0  0  0
   22.0724   -4.3318  -13.7193 O   0  0  0  0  0  0  0  0  0  0  0  0
  2  1  1  0
  2 12  2  0
  3  2  1  0
  4  3  2  0
  4  5  1  0
  5 11  2  0
  6  5  1  0
  7  8  1  1
  7  6  1  0
  9  7  1  0
  9 10  2  0
 11 12  1  0
 13 14  1  0
 15 14  1  6
 15 16  1  0
 15 17  1  0
 16  9  1  0
 17 19  1  0
 18 17  2  0
 19 20  1  0
 20 25  1  0
 20 21  1  6
 22 21  1  0
 23 22  1  0
 23 24  2  0
 25 26  2  0
 25 28  1  0
 27 23  1  0
M  END
$$$$
