YSE.pdb
     RDKit          3D

 28 28  0  0  1  0  0  0  0  0999 V2000
   17.5431  -15.8446  -21.4903 O   0  0  0  0  0  0  0  0  0  0  0  0
   17.7073  -14.8572  -20.5374 C   0  0  0  0  0  0  0  0  0  0  0  0
   17.0966  -14.9961  -19.3220 C   0  0  0  0  0  0  0  0  0  0  0  0
   17.2594  -14.0000  -18.3552 C   0  0  0  0  0  0  0  0  0  0  0  0
   18.0315  -12.8960  -18.6425 C   0  0  0  0  0  0  0  0  0  0  0  0
   18.2483  -11.8075  -17.6557 C   0  0  0  0  0  0  0  0  0  0  0  0
   19.5980  -12.0261  -17.0024 C   0  0  2  0  0  0  0  0  0  0  0  0
   19.6728  -13.2181  -16.2197 N   0  0  0  0  0  0  0  0  0  0  0  0
   19.9221  -10.8531  -16.1798 C   0  0  0  0  0  0  0  0  0  0  0  0
   19.2878  -10.7189  -15.0913 O   0  0  0  0  0  0  0  0  0  0  0  0
   18.6398  -12.7821  -19.8852 C   0  0  0  0  0  0  0  0  0  0  0  0
   18.4808  -13.7541  -20.8278 C   0  0  0  0  0  0  0  0  0  0  0  0
   23.5408   -9.2861  -15.9187 O   0  0  0  0  0  0  0  0  0  0  0  0
   22.5621   -9.0943  -14.9759 C   0  0  0  0  0  0  0  0  0  0  0  0
   21.2288   -8.8627  -15.6385 C   0  0  2  0  0  0  0  0  0  0  0  0
   20.8860   -9.9182  -16.5737 N   0  0  0  0  0  0  0  0  0  0  0  0
   21.2279   -7.5768  -16.4079 C   0  0  0  0  0  0  0  0  0  0  0  0
   21.6639   -7.5645  -17.5981 O   0  0  0  0  0  0  0  0  0  0  0  0
   20.7667   -6.3605  -15.8970 N   0  0  0  0  0  0  0  0  0  0  0  0
   20.8587   -5.0891  -16.6771 C   0  0  1  0  0  0  0  0  0  0  0  0
   20.1310   -5.3787  -17.9363 C   0  0  0  0  0  0  0  0  0  0  0  0
   18.6794   -5.6150  -17.9163 C   0  0  0  0  0  0  0  0  0  0  0  0
   17.9996   -5.8452  -19.1831 C   0  0  0  0  0  0  0  0  0  0  0  0
   18.0164   -6.9987  -19.7064 O   0  0  0  0  0  0  0  0  0  0  0  0
   20.3288   -4.0519  -15.8001 C   0  0  0  0  0  0  0  0  0  0  0  0
   20.2983   -2.8616  -16.1533 O   0  0  0  0  0  0  0  0  0  0  0  0
   17.3220   -4.7880  -19.8249 O   0  0  0  0  0  0  0  0  0  0  0  0
   19.8380   -4.3489  -14.5395 O   0  0  0  0  0  0  0  0  0  0  0  0
  2  1  1  0
  2 12  2  0
  3  2  1  0
  4  3  2  0
  4  5  1  0
  5 11  2  0
  6  5  1  0
  7  8  1  1
  7  6  1  0
  9  7  1  0
  9 10  2  0
 11 12  1  0
 13 14  1  0
 15 14  1  6
 15 16  1  0
 15 17  1  0
 16  9  1  0
 17 19  1  0
 18 17  2  0
 19 20  1  0
 20 25  1  0
 20 21  1  6
 22 21  1  0
 23 22  1  0
 23 24  2  0
 25 26  2  0
 25 28  1  0
 27 23  1  0
M  END
$$$$
