YSE.pdb
     RDKit          3D

 28 28  0  0  1  0  0  0  0  0999 V2000
   30.9303  -14.5777  -17.2664 O   0  0  0  0  0  0  0  0  0  0  0  0
   30.2689  -13.3647  -17.2291 C   0  0  0  0  0  0  0  0  0  0  0  0
   30.8943  -12.2498  -17.7139 C   0  0  0  0  0  0  0  0  0  0  0  0
   30.2298  -11.0208  -17.6781 C   0  0  0  0  0  0  0  0  0  0  0  0
   28.9571  -10.9531  -17.1554 C   0  0  0  0  0  0  0  0  0  0  0  0
   28.1964   -9.6791  -17.0957 C   0  0  0  0  0  0  0  0  0  0  0  0
   27.4640   -9.5058  -18.4109 C   0  0  2  0  0  0  0  0  0  0  0  0
   28.3294   -9.3500  -19.5360 N   0  0  0  0  0  0  0  0  0  0  0  0
   26.5569   -8.3557  -18.3004 C   0  0  0  0  0  0  0  0  0  0  0  0
   26.9477   -7.2622  -18.8071 O   0  0  0  0  0  0  0  0  0  0  0  0
   28.3469  -12.1020  -16.6706 C   0  0  0  0  0  0  0  0  0  0  0  0
   28.9955  -13.3005  -16.7059 C   0  0  0  0  0  0  0  0  0  0  0  0
   23.1882   -7.9924  -19.7707 O   0  0  0  0  0  0  0  0  0  0  0  0
   24.0774   -7.0712  -19.2762 C   0  0  0  0  0  0  0  0  0  0  0  0
   24.3805   -7.3547  -17.8277 C   0  0  2  0  0  0  0  0  0  0  0  0
   25.3147   -8.4532  -17.6635 N   0  0  0  0  0  0  0  0  0  0  0  0
   23.1347   -7.7223  -17.0806 C   0  0  0  0  0  0  0  0  0  0  0  0
   22.8070   -8.9428  -16.9813 O   0  0  0  0  0  0  0  0  0  0  0  0
   22.2885   -6.7945  -16.4671 N   0  0  0  0  0  0  0  0  0  0  0  0
   20.9956   -7.1993  -15.8363 C   0  0  1  0  0  0  0  0  0  0  0  0
   20.3060   -7.9861  -16.8872 C   0  0  0  0  0  0  0  0  0  0  0  0
   19.0535   -8.6942  -16.5815 C   0  0  0  0  0  0  0  0  0  0  0  0
   18.3662   -9.3812  -17.6658 C   0  0  0  0  0  0  0  0  0  0  0  0
   18.4610  -10.6397  -17.7743 O   0  0  0  0  0  0  0  0  0  0  0  0
   21.3590   -7.8770  -14.5977 C   0  0  0  0  0  0  0  0  0  0  0  0
   22.3237   -8.6576  -14.5482 O   0  0  0  0  0  0  0  0  0  0  0  0
   17.5949   -8.6483  -18.5914 O   0  0  0  0  0  0  0  0  0  0  0  0
   20.6461   -7.6796  -13.4268 O   0  0  0  0  0  0  0  0  0  0  0  0
  2  1  1  0
  2 12  2  0
  3  2  1  0
  4  3  2  0
  4  5  1  0
  5 11  2  0
  6  5  1  0
  7  8  1  6
  7  6  1  0
  9  7  1  0
  9 10  2  0
 11 12  1  0
 13 14  1  0
 15 14  1  6
 15 16  1  0
 15 17  1  0
 16  9  1  0
 17 19  1  0
 18 17  2  0
 19 20  1  0
 20 25  1  0
 20 21  1  6
 22 21  1  0
 23 22  1  0
 23 24  2  0
 25 26  2  0
 25 28  1  0
 27 23  1  0
M  END
$$$$
