YSE.pdb
     RDKit          3D

 28 28  0  0  1  0  0  0  0  0999 V2000
   16.9084  -11.8655  -22.1333 O   0  0  0  0  0  0  0  0  0  0  0  0
   17.1932  -10.9008  -21.1855 C   0  0  0  0  0  0  0  0  0  0  0  0
   16.2051  -10.4913  -20.3340 C   0  0  0  0  0  0  0  0  0  0  0  0
   16.4881   -9.5156  -19.3741 C   0  0  0  0  0  0  0  0  0  0  0  0
   17.7565   -8.9833  -19.3019 C   0  0  0  0  0  0  0  0  0  0  0  0
   18.1215   -7.9494  -18.3002 C   0  0  0  0  0  0  0  0  0  0  0  0
   18.8564   -8.6325  -17.1646 C   0  0  2  0  0  0  0  0  0  0  0  0
   18.0482   -9.5465  -16.4227 N   0  0  0  0  0  0  0  0  0  0  0  0
   19.4146   -7.6053  -16.2753 C   0  0  0  0  0  0  0  0  0  0  0  0
   18.6209   -7.0648  -15.4488 O   0  0  0  0  0  0  0  0  0  0  0  0
   18.7400   -9.4188  -20.1796 C   0  0  0  0  0  0  0  0  0  0  0  0
   18.4634  -10.3705  -21.1157 C   0  0  0  0  0  0  0  0  0  0  0  0
   23.2881   -6.0779  -16.5597 O   0  0  0  0  0  0  0  0  0  0  0  0
   22.7232   -6.1582  -15.3115 C   0  0  0  0  0  0  0  0  0  0  0  0
   21.2207   -6.2059  -15.4139 C   0  0  2  0  0  0  0  0  0  0  0  0
   20.7620   -7.2317  -16.3325 N   0  0  0  0  0  0  0  0  0  0  0  0
   20.6744   -4.9001  -15.9056 C   0  0  0  0  0  0  0  0  0  0  0  0
   19.9515   -4.8815  -16.9467 O   0  0  0  0  0  0  0  0  0  0  0  0
   20.9072   -3.6710  -15.2824 N   0  0  0  0  0  0  0  0  0  0  0  0
   20.4144   -2.3845  -15.8618 C   0  0  1  0  0  0  0  0  0  0  0  0
   18.9454   -2.5640  -15.9554 C   0  0  0  0  0  0  0  0  0  0  0  0
   18.0675   -1.4010  -16.1556 C   0  0  0  0  0  0  0  0  0  0  0  0
   16.6301   -1.6238  -16.2214 C   0  0  0  0  0  0  0  0  0  0  0  0
   16.1761   -2.6238  -16.8527 O   0  0  0  0  0  0  0  0  0  0  0  0
   20.9243   -1.3384  -14.9835 C   0  0  0  0  0  0  0  0  0  0  0  0
   20.9794   -0.1544  -15.3544 O   0  0  0  0  0  0  0  0  0  0  0  0
   15.7456   -0.7307  -15.5821 O   0  0  0  0  0  0  0  0  0  0  0  0
   21.3675   -1.6195  -13.7018 O   0  0  0  0  0  0  0  0  0  0  0  0
  2  1  1  0
  2 12  2  0
  3  2  1  0
  4  3  2  0
  4  5  1  0
  5 11  2  0
  6  5  1  0
  7  8  1  1
  7  6  1  0
  9  7  1  0
  9 10  2  0
 11 12  1  0
 13 14  1  0
 15 14  1  6
 15 16  1  0
 15 17  1  0
 16  9  1  0
 17 19  1  0
 18 17  2  0
 19 20  1  0
 20 25  1  0
 20 21  1  1
 22 21  1  0
 23 22  1  0
 23 24  2  0
 25 26  2  0
 25 28  1  0
 27 23  1  0
M  END
$$$$
