FQP.pdb
     RDKit          3D

 28 29  0  0  1  0  0  0  0  0999 V2000
    8.1047  -15.6131   25.7280 N   0  0  0  0  0  0  0  0  0  0  0  0
    6.9016  -16.1218   25.1028 C   0  0  1  0  0  0  0  0  0  0  0  0
    5.6885  -15.3270   25.5729 C   0  0  0  0  0  0  0  0  0  0  0  0
    6.1837  -14.0095   26.0325 C   0  0  0  0  0  0  0  0  0  0  0  0
    5.2685  -13.0879   26.5008 C   0  0  0  0  0  0  0  0  0  0  0  0
    5.7026  -11.8378   26.9413 C   0  0  0  0  0  0  0  0  0  0  0  0
    7.0604  -11.5809   26.8846 C   0  0  0  0  0  0  0  0  0  0  0  0
    7.9624  -12.5190   26.4113 C   0  0  0  0  0  0  0  0  0  0  0  0
    7.5314  -13.7430   25.9806 C   0  0  0  0  0  0  0  0  0  0  0  0
    7.0087  -15.9438   23.6404 C   0  0  0  0  0  0  0  0  0  0  0  0
    6.0255  -16.2562   22.9017 O   0  0  0  0  0  0  0  0  0  0  0  0
    7.0681  -12.7057   19.5210 N   0  0  0  0  0  0  0  0  0  0  0  0
    7.9497  -13.6448   18.9178 C   0  0  0  0  0  0  0  0  0  0  0  0
    7.7155  -14.1131   17.7935 O   0  0  0  0  0  0  0  0  0  0  0  0
    9.1714  -14.0336   19.7185 C   0  0  0  0  0  0  0  0  0  0  0  0
    8.8188  -14.1000   21.1475 C   0  0  0  0  0  0  0  0  0  0  0  0
    8.2425  -15.4846   21.5096 C   0  0  2  0  0  0  0  0  0  0  0  0
    8.1562  -15.4401   23.0091 N   0  0  0  0  0  0  0  0  0  0  0  0
    9.1839  -16.5547   21.2149 C   0  0  0  0  0  0  0  0  0  0  0  0
   10.2728  -16.5985   21.8985 O   0  0  0  0  0  0  0  0  0  0  0  0
    8.9798  -17.5370   20.2458 N   0  0  0  0  0  0  0  0  0  0  0  0
    7.7152  -17.5804   19.4573 C   0  0  0  0  0  0  0  0  0  0  0  0
    8.1937  -18.2345   18.1873 C   0  0  0  0  0  0  0  0  0  0  0  0
    8.9910  -19.4026   18.7930 C   0  0  0  0  0  0  0  0  0  0  0  0
    9.8108  -18.6199   19.8206 C   0  0  1  0  0  0  0  0  0  0  0  0
   10.9987  -18.1123   19.0330 C   0  0  0  0  0  0  0  0  0  0  0  0
   11.0848  -16.9429   18.6004 O   0  0  0  0  0  0  0  0  0  0  0  0
   12.0216  -19.0062   18.7969 O   0  0  0  0  0  0  0  0  0  0  0  0
  2 10  1  0
  2  1  1  1
  3  2  1  0
  4  3  1  0
  5  4  2  0
  6  5  1  0
  7  8  1  0
  7  6  2  0
  8  9  2  0
  9  4  1  0
 10 11  2  0
 13 12  1  0
 14 13  2  0
 15 13  1  0
 16 15  1  0
 17 16  1  1
 18 17  1  0
 18 10  1  0
 19 17  1  0
 20 19  2  0
 21 19  1  0
 21 25  1  0
 22 23  1  0
 22 21  1  0
 23 24  1  0
 24 25  1  0
 25 26  1  6
 26 28  1  0
 27 26  2  0
M  END
$$$$
