FQP.pdb
     RDKit          3D

 28 29  0  0  1  0  0  0  0  0999 V2000
    6.1891  -18.1255   20.8752 N   0  0  0  0  0  0  0  0  0  0  0  0
    6.8503  -16.8987   21.2692 C   0  0  1  0  0  0  0  0  0  0  0  0
    6.0897  -15.6940   20.7266 C   0  0  0  0  0  0  0  0  0  0  0  0
    6.8524  -14.4865   21.1173 C   0  0  0  0  0  0  0  0  0  0  0  0
    7.8164  -14.0072   20.2529 C   0  0  0  0  0  0  0  0  0  0  0  0
    8.5522  -12.8717   20.5913 C   0  0  0  0  0  0  0  0  0  0  0  0
    8.2704  -12.2708   21.8048 C   0  0  0  0  0  0  0  0  0  0  0  0
    7.2992  -12.7673   22.6579 C   0  0  0  0  0  0  0  0  0  0  0  0
    6.5808  -13.8809   22.3213 C   0  0  0  0  0  0  0  0  0  0  0  0
    6.8420  -16.8012   22.7430 C   0  0  0  0  0  0  0  0  0  0  0  0
    5.7462  -16.9308   23.3693 O   0  0  0  0  0  0  0  0  0  0  0  0
    6.1235  -19.9527   26.0138 N   0  0  0  0  0  0  0  0  0  0  0  0
    7.1629  -19.6800   26.9455 C   0  0  0  0  0  0  0  0  0  0  0  0
    7.1331  -20.1476   28.0939 O   0  0  0  0  0  0  0  0  0  0  0  0
    8.2897  -18.7975   26.4596 C   0  0  0  0  0  0  0  0  0  0  0  0
    8.0110  -18.3637   25.0794 C   0  0  0  0  0  0  0  0  0  0  0  0
    7.9585  -16.8247   24.9850 C   0  0  2  0  0  0  0  0  0  0  0  0
    7.9974  -16.5691   23.5047 N   0  0  0  0  0  0  0  0  0  0  0  0
    9.1696  -16.2104   25.5085 C   0  0  0  0  0  0  0  0  0  0  0  0
   10.2986  -16.7041   25.1388 O   0  0  0  0  0  0  0  0  0  0  0  0
    9.1856  -15.1199   26.3781 N   0  0  0  0  0  0  0  0  0  0  0  0
    7.9282  -14.3928   26.7141 C   0  0  0  0  0  0  0  0  0  0  0  0
    8.2635  -13.8615   28.0835 C   0  0  0  0  0  0  0  0  0  0  0  0
    9.6602  -13.2854   27.7927 C   0  0  0  0  0  0  0  0  0  0  0  0
   10.2662  -14.4910   27.0716 C   0  0  1  0  0  0  0  0  0  0  0  0
   10.7746  -15.3717   28.1918 C   0  0  0  0  0  0  0  0  0  0  0  0
   11.8311  -15.1415   28.8186 O   0  0  0  0  0  0  0  0  0  0  0  0
   10.0136  -16.4750   28.5154 O   0  0  0  0  0  0  0  0  0  0  0  0
  2 10  1  0
  2  1  1  1
  3  2  1  0
  4  3  1  0
  5  4  2  0
  6  5  1  0
  7  8  1  0
  7  6  2  0
  8  9  2  0
  9  4  1  0
 10 11  2  0
 13 12  1  0
 14 13  2  0
 15 13  1  0
 16 15  1  0
 17 16  1  6
 18 17  1  0
 18 10  1  0
 19 17  1  0
 20 19  2  0
 21 19  1  0
 21 25  1  0
 22 23  1  0
 22 21  1  0
 23 24  1  0
 24 25  1  0
 25 26  1  1
 26 28  1  0
 27 26  2  0
M  END
$$$$
