FQP.pdb
     RDKit          3D

 28 29  0  0  1  0  0  0  0  0999 V2000
    6.6892  -18.5051   20.5207 N   0  0  0  0  0  0  0  0  0  0  0  0
    7.2307  -17.1759   20.7132 C   0  0  1  0  0  0  0  0  0  0  0  0
    6.7077  -16.2339   19.6347 C   0  0  0  0  0  0  0  0  0  0  0  0
    7.4105  -14.9421   19.8077 C   0  0  0  0  0  0  0  0  0  0  0  0
    6.7641  -13.9250   20.4813 C   0  0  0  0  0  0  0  0  0  0  0  0
    7.3987  -12.6961   20.6613 C   0  0  0  0  0  0  0  0  0  0  0  0
    8.6736  -12.5579   20.1431 C   0  0  0  0  0  0  0  0  0  0  0  0
    9.3048  -13.5906   19.4704 C   0  0  0  0  0  0  0  0  0  0  0  0
    8.6780  -14.7934   19.2966 C   0  0  0  0  0  0  0  0  0  0  0  0
    6.7719  -16.6551   22.0171 C   0  0  0  0  0  0  0  0  0  0  0  0
    5.5369  -16.6981   22.3049 O   0  0  0  0  0  0  0  0  0  0  0  0
    8.2619  -19.8610   25.9851 N   0  0  0  0  0  0  0  0  0  0  0  0
    7.2945  -19.1171   26.7157 C   0  0  0  0  0  0  0  0  0  0  0  0
    6.6472  -19.6378   27.6366 O   0  0  0  0  0  0  0  0  0  0  0  0
    7.1042  -17.6742   26.3073 C   0  0  0  0  0  0  0  0  0  0  0  0
    7.3493  -17.5388   24.8609 C   0  0  0  0  0  0  0  0  0  0  0  0
    7.2084  -16.0692   24.4129 C   0  0  2  0  0  0  0  0  0  0  0  0
    7.6390  -16.1053   22.9736 N   0  0  0  0  0  0  0  0  0  0  0  0
    8.1753  -15.2077   25.0771 C   0  0  0  0  0  0  0  0  0  0  0  0
    9.4238  -15.4642   24.9031 O   0  0  0  0  0  0  0  0  0  0  0  0
    7.8368  -14.1208   25.8832 N   0  0  0  0  0  0  0  0  0  0  0  0
    6.4219  -13.6646   25.9951 C   0  0  0  0  0  0  0  0  0  0  0  0
    6.4291  -13.0484   27.3699 C   0  0  0  0  0  0  0  0  0  0  0  0
    7.7077  -12.2003   27.2567 C   0  0  0  0  0  0  0  0  0  0  0  0
    8.6485  -13.2674   26.6937 C   0  0  1  0  0  0  0  0  0  0  0  0
    9.1473  -14.0008   27.9194 C   0  0  0  0  0  0  0  0  0  0  0  0
    8.6682  -15.0870   28.3101 O   0  0  0  0  0  0  0  0  0  0  0  0
   10.1827  -13.4184   28.6194 O   0  0  0  0  0  0  0  0  0  0  0  0
  2 10  1  0
  2  1  1  6
  3  2  1  0
  4  3  1  0
  5  4  2  0
  6  5  1  0
  7  8  1  0
  7  6  2  0
  8  9  2  0
  9  4  1  0
 10 11  2  0
 13 12  1  0
 14 13  2  0
 15 13  1  0
 16 15  1  0
 17 16  1  1
 18 17  1  0
 18 10  1  0
 19 17  1  0
 20 19  2  0
 21 19  1  0
 21 25  1  0
 22 23  1  0
 22 21  1  0
 23 24  1  0
 24 25  1  0
 25 26  1  1
 26 28  1  0
 27 26  2  0
M  END
$$$$
