FQP.pdb
     RDKit          3D

 28 29  0  0  1  0  0  0  0  0999 V2000
    6.6366  -18.3609   20.4049 N   0  0  0  0  0  0  0  0  0  0  0  0
    7.1504  -17.0368   20.6876 C   0  0  1  0  0  0  0  0  0  0  0  0
    6.4646  -16.0059   19.7982 C   0  0  0  0  0  0  0  0  0  0  0  0
    7.1072  -14.7001   20.0711 C   0  0  0  0  0  0  0  0  0  0  0  0
    8.1763  -14.3148   19.2870 C   0  0  0  0  0  0  0  0  0  0  0  0
    8.8036  -13.0907   19.5182 C   0  0  0  0  0  0  0  0  0  0  0  0
    8.3093  -12.3080   20.5459 C   0  0  0  0  0  0  0  0  0  0  0  0
    7.2356  -12.7127   21.3211 C   0  0  0  0  0  0  0  0  0  0  0  0
    6.6244  -13.9138   21.0902 C   0  0  0  0  0  0  0  0  0  0  0  0
    6.8389  -16.6903   22.0893 C   0  0  0  0  0  0  0  0  0  0  0  0
    5.6271  -16.6227   22.4592 O   0  0  0  0  0  0  0  0  0  0  0  0
    6.1405  -19.7142   27.4626 N   0  0  0  0  0  0  0  0  0  0  0  0
    7.3525  -19.1162   27.0195 C   0  0  0  0  0  0  0  0  0  0  0  0
    8.4256  -19.7367   27.0599 O   0  0  0  0  0  0  0  0  0  0  0  0
    7.2561  -17.6982   26.5048 C   0  0  0  0  0  0  0  0  0  0  0  0
    7.4699  -17.6913   25.0471 C   0  0  0  0  0  0  0  0  0  0  0  0
    7.4123  -16.2544   24.4881 C   0  0  2  0  0  0  0  0  0  0  0  0
    7.8239  -16.4266   23.0532 N   0  0  0  0  0  0  0  0  0  0  0  0
    8.4364  -15.4048   25.0777 C   0  0  0  0  0  0  0  0  0  0  0  0
    9.6599  -15.7914   24.9862 O   0  0  0  0  0  0  0  0  0  0  0  0
    8.1783  -14.1984   25.7287 N   0  0  0  0  0  0  0  0  0  0  0  0
    6.8381  -13.5519   25.6352 C   0  0  0  0  0  0  0  0  0  0  0  0
    6.7985  -12.7893   26.9340 C   0  0  0  0  0  0  0  0  0  0  0  0
    8.1892  -12.1336   26.8811 C   0  0  0  0  0  0  0  0  0  0  0  0
    9.0197  -13.3713   26.5362 C   0  0  1  0  0  0  0  0  0  0  0  0
    9.2877  -14.0192   27.8769 C   0  0  0  0  0  0  0  0  0  0  0  0
    8.6351  -14.9932   28.3099 O   0  0  0  0  0  0  0  0  0  0  0  0
   10.3087  -13.4878   28.6361 O   0  0  0  0  0  0  0  0  0  0  0  0
  2 10  1  0
  2  1  1  6
  3  2  1  0
  4  3  1  0
  5  4  2  0
  6  5  1  0
  7  8  1  0
  7  6  2  0
  8  9  2  0
  9  4  1  0
 10 11  2  0
 13 12  1  0
 14 13  2  0
 15 13  1  0
 16 15  1  0
 17 16  1  1
 18 17  1  0
 18 10  1  0
 19 17  1  0
 20 19  2  0
 21 19  1  0
 21 25  1  0
 22 23  1  0
 22 21  1  0
 23 24  1  0
 24 25  1  0
 25 26  1  1
 26 28  1  0
 27 26  2  0
M  END
$$$$
