FQP.pdb
     RDKit          3D

 28 29  0  0  1  0  0  0  0  0999 V2000
   11.8107  -17.0387   25.8436 N   0  0  0  0  0  0  0  0  0  0  0  0
   11.1634  -15.7848   25.5181 C   0  0  1  0  0  0  0  0  0  0  0  0
   11.7909  -14.6468   26.3153 C   0  0  0  0  0  0  0  0  0  0  0  0
   11.1957  -14.6857   27.6705 C   0  0  0  0  0  0  0  0  0  0  0  0
   11.4679  -15.7710   28.4793 C   0  0  0  0  0  0  0  0  0  0  0  0
   10.9228  -15.8378   29.7614 C   0  0  0  0  0  0  0  0  0  0  0  0
   10.1186  -14.7874   30.1650 C   0  0  0  0  0  0  0  0  0  0  0  0
    9.8577  -13.7075   29.3384 C   0  0  0  0  0  0  0  0  0  0  0  0
   10.3946  -13.6471   28.0823 C   0  0  0  0  0  0  0  0  0  0  0  0
   11.3760  -15.4927   24.0859 C   0  0  0  0  0  0  0  0  0  0  0  0
   12.5105  -15.0786   23.6968 O   0  0  0  0  0  0  0  0  0  0  0  0
   14.0001  -14.6546   20.9281 N   0  0  0  0  0  0  0  0  0  0  0  0
   13.2847  -14.7663   19.7038 C   0  0  0  0  0  0  0  0  0  0  0  0
   13.7196  -14.2592   18.6588 O   0  0  0  0  0  0  0  0  0  0  0  0
   11.9800  -15.5281   19.7522 C   0  0  0  0  0  0  0  0  0  0  0  0
   11.6971  -15.9258   21.1424 C   0  0  0  0  0  0  0  0  0  0  0  0
   10.5847  -15.0472   21.7516 C   0  0  2  0  0  0  0  0  0  0  0  0
   10.3773  -15.6493   23.1127 N   0  0  0  0  0  0  0  0  0  0  0  0
    9.3166  -15.2258   21.0601 C   0  0  0  0  0  0  0  0  0  0  0  0
    8.7038  -16.3463   21.2143 O   0  0  0  0  0  0  0  0  0  0  0  0
    8.7211  -14.2607   20.2478 N   0  0  0  0  0  0  0  0  0  0  0  0
    9.3592  -12.9274   20.0531 C   0  0  0  0  0  0  0  0  0  0  0  0
    8.8366  -12.5580   18.6892 C   0  0  0  0  0  0  0  0  0  0  0  0
    7.3488  -12.8926   18.8927 C   0  0  0  0  0  0  0  0  0  0  0  0
    7.5027  -14.2882   19.5003 C   0  0  1  0  0  0  0  0  0  0  0  0
    7.6261  -15.2001   18.2993 C   0  0  0  0  0  0  0  0  0  0  0  0
    8.7228  -15.5977   17.8508 O   0  0  0  0  0  0  0  0  0  0  0  0
    6.4540  -15.5959   17.6907 O   0  0  0  0  0  0  0  0  0  0  0  0
  2 10  1  0
  2  1  1  1
  3  2  1  0
  4  3  1  0
  5  4  2  0
  6  5  1  0
  7  8  1  0
  7  6  2  0
  8  9  2  0
  9  4  1  0
 10 11  2  0
 13 12  1  0
 14 13  2  0
 15 13  1  0
 16 15  1  0
 17 16  1  6
 18 17  1  0
 18 10  1  0
 19 17  1  0
 20 19  2  0
 21 19  1  0
 21 25  1  0
 22 23  1  0
 22 21  1  0
 23 24  1  0
 24 25  1  0
 25 26  1  6
 26 28  1  0
 27 26  2  0
M  END
$$$$
