FQP.pdb
     RDKit          3D

 28 29  0  0  1  0  0  0  0  0999 V2000
    5.8074  -18.2078   21.2340 N   0  0  0  0  0  0  0  0  0  0  0  0
    6.5475  -16.9855   21.4698 C   0  0  1  0  0  0  0  0  0  0  0  0
    5.8560  -15.8120   20.7850 C   0  0  0  0  0  0  0  0  0  0  0  0
    6.7923  -14.6661   20.8359 C   0  0  0  0  0  0  0  0  0  0  0  0
    7.7403  -14.5444   19.8395 C   0  0  0  0  0  0  0  0  0  0  0  0
    8.6369  -13.4763   19.8584 C   0  0  0  0  0  0  0  0  0  0  0  0
    8.5264  -12.5728   20.8998 C   0  0  0  0  0  0  0  0  0  0  0  0
    7.5683  -12.7126   21.8898 C   0  0  0  0  0  0  0  0  0  0  0  0
    6.6918  -13.7617   21.8665 C   0  0  0  0  0  0  0  0  0  0  0  0
    6.5629  -16.7062   22.9201 C   0  0  0  0  0  0  0  0  0  0  0  0
    5.4689  -16.4818   23.5225 O   0  0  0  0  0  0  0  0  0  0  0  0
    7.3701  -20.6372   26.3008 N   0  0  0  0  0  0  0  0  0  0  0  0
    7.3206  -19.7229   27.3892 C   0  0  0  0  0  0  0  0  0  0  0  0
    7.2414  -20.1242   28.5601 O   0  0  0  0  0  0  0  0  0  0  0  0
    7.3684  -18.2534   27.0383 C   0  0  0  0  0  0  0  0  0  0  0  0
    7.4460  -18.1023   25.5748 C   0  0  0  0  0  0  0  0  0  0  0  0
    7.6342  -16.6220   25.1825 C   0  0  2  0  0  0  0  0  0  0  0  0
    7.7392  -16.6737   23.6844 N   0  0  0  0  0  0  0  0  0  0  0  0
    8.9162  -16.1027   25.6355 C   0  0  0  0  0  0  0  0  0  0  0  0
    9.9822  -16.6373   25.1532 O   0  0  0  0  0  0  0  0  0  0  0  0
    9.0633  -15.0614   26.5518 N   0  0  0  0  0  0  0  0  0  0  0  0
    7.8735  -14.3317   27.0758 C   0  0  0  0  0  0  0  0  0  0  0  0
    8.3846  -13.8812   28.4196 C   0  0  0  0  0  0  0  0  0  0  0  0
    9.7492  -13.3148   27.9907 C   0  0  0  0  0  0  0  0  0  0  0  0
   10.2346  -14.4899   27.1397 C   0  0  1  0  0  0  0  0  0  0  0  0
   10.8535  -15.4387   28.1426 C   0  0  0  0  0  0  0  0  0  0  0  0
   11.9771  -15.2537   28.6578 O   0  0  0  0  0  0  0  0  0  0  0  0
   10.1184  -16.5534   28.4862 O   0  0  0  0  0  0  0  0  0  0  0  0
  2 10  1  0
  2  1  1  1
  3  2  1  0
  4  3  1  0
  5  4  2  0
  6  5  1  0
  7  8  1  0
  7  6  2  0
  8  9  2  0
  9  4  1  0
 10 11  2  0
 13 12  1  0
 14 13  2  0
 15 13  1  0
 16 15  1  0
 17 16  1  1
 18 17  1  0
 18 10  1  0
 19 17  1  0
 20 19  2  0
 21 19  1  0
 21 25  1  0
 22 23  1  0
 22 21  1  0
 23 24  1  0
 24 25  1  0
 25 26  1  1
 26 28  1  0
 27 26  2  0
M  END
$$$$
