FQP.pdb
     RDKit          3D

 28 29  0  0  1  0  0  0  0  0999 V2000
    5.7179  -16.6224   20.8520 N   0  0  0  0  0  0  0  0  0  0  0  0
    6.7173  -15.8981   21.6094 C   0  0  1  0  0  0  0  0  0  0  0  0
    6.4838  -14.3966   21.4869 C   0  0  0  0  0  0  0  0  0  0  0  0
    7.4203  -13.8937   20.4562 C   0  0  0  0  0  0  0  0  0  0  0  0
    8.7567  -13.7745   20.7816 C   0  0  0  0  0  0  0  0  0  0  0  0
    9.6648  -13.3041   19.8332 C   0  0  0  0  0  0  0  0  0  0  0  0
    9.1664  -12.9738   18.5860 C   0  0  0  0  0  0  0  0  0  0  0  0
    7.8219  -13.1006   18.2794 C   0  0  0  0  0  0  0  0  0  0  0  0
    6.9360  -13.5622   19.2130 C   0  0  0  0  0  0  0  0  0  0  0  0
    6.5867  -16.2521   23.0375 C   0  0  0  0  0  0  0  0  0  0  0  0
    5.4779  -16.0670   23.6258 O   0  0  0  0  0  0  0  0  0  0  0  0
    7.5673  -20.7721   26.4161 N   0  0  0  0  0  0  0  0  0  0  0  0
    7.6121  -19.8598   27.5063 C   0  0  0  0  0  0  0  0  0  0  0  0
    7.6862  -20.2631   28.6768 O   0  0  0  0  0  0  0  0  0  0  0  0
    7.5634  -18.3897   27.1579 C   0  0  0  0  0  0  0  0  0  0  0  0
    7.5244  -18.2352   25.6932 C   0  0  0  0  0  0  0  0  0  0  0  0
    7.5534  -16.7449   25.2950 C   0  0  2  0  0  0  0  0  0  0  0  0
    7.6376  -16.7910   23.7953 N   0  0  0  0  0  0  0  0  0  0  0  0
    8.7830  -16.0955   25.7246 C   0  0  0  0  0  0  0  0  0  0  0  0
    9.8932  -16.5493   25.2594 O   0  0  0  0  0  0  0  0  0  0  0  0
    8.8351  -15.0118   26.6013 N   0  0  0  0  0  0  0  0  0  0  0  0
    7.5989  -14.2594   26.9594 C   0  0  0  0  0  0  0  0  0  0  0  0
    7.9646  -13.7453   28.3276 C   0  0  0  0  0  0  0  0  0  0  0  0
    9.3696  -13.1982   28.0215 C   0  0  0  0  0  0  0  0  0  0  0  0
    9.9388  -14.4118   27.2839 C   0  0  1  0  0  0  0  0  0  0  0  0
   10.4427  -15.3114   28.3912 C   0  0  0  0  0  0  0  0  0  0  0  0
    9.8049  -16.2989   28.8154 O   0  0  0  0  0  0  0  0  0  0  0  0
   11.6694  -15.0020   28.9397 O   0  0  0  0  0  0  0  0  0  0  0  0
  2 10  1  0
  2  1  1  6
  3  2  1  0
  4  3  1  0
  5  4  2  0
  6  5  1  0
  7  8  1  0
  7  6  2  0
  8  9  2  0
  9  4  1  0
 10 11  2  0
 13 12  1  0
 14 13  2  0
 15 13  1  0
 16 15  1  0
 17 16  1  1
 18 17  1  0
 18 10  1  0
 19 17  1  0
 20 19  2  0
 21 19  1  0
 21 25  1  0
 22 23  1  0
 22 21  1  0
 23 24  1  0
 24 25  1  0
 25 26  1  1
 26 28  1  0
 27 26  2  0
M  END
$$$$
