FQP.pdb
     RDKit          3D

 28 29  0  0  1  0  0  0  0  0999 V2000
    5.8813  -16.6478   25.3499 N   0  0  0  0  0  0  0  0  0  0  0  0
    6.7137  -15.5756   24.8451 C   0  0  1  0  0  0  0  0  0  0  0  0
    7.6181  -15.0463   25.9524 C   0  0  0  0  0  0  0  0  0  0  0  0
    7.1223  -13.6980   26.3112 C   0  0  0  0  0  0  0  0  0  0  0  0
    6.0421  -13.5983   27.1652 C   0  0  0  0  0  0  0  0  0  0  0  0
    5.5510  -12.3429   27.5229 C   0  0  0  0  0  0  0  0  0  0  0  0
    6.1878  -11.2366   26.9903 C   0  0  0  0  0  0  0  0  0  0  0  0
    7.2702  -11.3579   26.1350 C   0  0  0  0  0  0  0  0  0  0  0  0
    7.7475  -12.5912   25.7876 C   0  0  0  0  0  0  0  0  0  0  0  0
    7.5848  -16.1068   23.7771 C   0  0  0  0  0  0  0  0  0  0  0  0
    7.9217  -17.3298   23.7993 O   0  0  0  0  0  0  0  0  0  0  0  0
    9.0786  -12.8543   18.9067 N   0  0  0  0  0  0  0  0  0  0  0  0
    7.9762  -13.7405   18.7574 C   0  0  0  0  0  0  0  0  0  0  0  0
    7.1185  -13.5544   17.8809 O   0  0  0  0  0  0  0  0  0  0  0  0
    7.9125  -14.9056   19.7182 C   0  0  0  0  0  0  0  0  0  0  0  0
    9.0871  -14.8714   20.6071 C   0  0  0  0  0  0  0  0  0  0  0  0
    8.9808  -15.9519   21.7032 C   0  0  2  0  0  0  0  0  0  0  0  0
    8.0706  -15.3224   22.7198 N   0  0  0  0  0  0  0  0  0  0  0  0
   10.2467  -16.1451   22.3948 C   0  0  0  0  0  0  0  0  0  0  0  0
   10.7357  -15.1441   23.0381 O   0  0  0  0  0  0  0  0  0  0  0  0
   10.9593  -17.3441   22.4104 N   0  0  0  0  0  0  0  0  0  0  0  0
   10.3851  -18.5813   21.8084 C   0  0  0  0  0  0  0  0  0  0  0  0
   11.6405  -19.3211   21.4256 C   0  0  0  0  0  0  0  0  0  0  0  0
   12.4313  -19.1658   22.7361 C   0  0  0  0  0  0  0  0  0  0  0  0
   12.2466  -17.6615   22.9454 C   0  0  1  0  0  0  0  0  0  0  0  0
   13.3459  -17.0373   22.1142 C   0  0  0  0  0  0  0  0  0  0  0  0
   13.1614  -16.5818   20.9651 O   0  0  0  0  0  0  0  0  0  0  0  0
   14.6027  -16.9817   22.6787 O   0  0  0  0  0  0  0  0  0  0  0  0
  2 10  1  0
  2  1  1  1
  3  2  1  0
  4  3  1  0
  5  4  2  0
  6  5  1  0
  7  8  1  0
  7  6  2  0
  8  9  2  0
  9  4  1  0
 10 11  2  0
 13 12  1  0
 14 13  2  0
 15 13  1  0
 16 15  1  0
 17 16  1  6
 18 17  1  0
 18 10  1  0
 19 17  1  0
 20 19  2  0
 21 19  1  0
 21 25  1  0
 22 23  1  0
 22 21  1  0
 23 24  1  0
 24 25  1  0
 25 26  1  6
 26 28  1  0
 27 26  2  0
M  END
$$$$
