FQP.pdb
     RDKit          3D

 28 29  0  0  1  0  0  0  0  0999 V2000
    6.4977  -17.4015   19.9849 N   0  0  0  0  0  0  0  0  0  0  0  0
    7.4694  -17.3358   21.0567 C   0  0  1  0  0  0  0  0  0  0  0  0
    8.6990  -16.5561   20.6045 C   0  0  0  0  0  0  0  0  0  0  0  0
    8.2464  -15.1865   20.2701 C   0  0  0  0  0  0  0  0  0  0  0  0
    7.0407  -14.7477   20.7799 C   0  0  0  0  0  0  0  0  0  0  0  0
    6.5861  -13.4627   20.4839 C   0  0  0  0  0  0  0  0  0  0  0  0
    7.3868  -12.6764   19.6755 C   0  0  0  0  0  0  0  0  0  0  0  0
    8.5933  -13.1353   19.1740 C   0  0  0  0  0  0  0  0  0  0  0  0
    9.0342  -14.3960   19.4673 C   0  0  0  0  0  0  0  0  0  0  0  0
    6.8773  -16.6074   22.1972 C   0  0  0  0  0  0  0  0  0  0  0  0
    5.6149  -16.5444   22.3077 O   0  0  0  0  0  0  0  0  0  0  0  0
    6.7124  -20.0930   25.5856 N   0  0  0  0  0  0  0  0  0  0  0  0
    6.9985  -19.2224   26.6733 C   0  0  0  0  0  0  0  0  0  0  0  0
    7.2702  -19.6696   27.7978 O   0  0  0  0  0  0  0  0  0  0  0  0
    6.9510  -17.7401   26.3811 C   0  0  0  0  0  0  0  0  0  0  0  0
    7.1960  -17.5164   24.9456 C   0  0  0  0  0  0  0  0  0  0  0  0
    7.1769  -16.0103   24.6111 C   0  0  2  0  0  0  0  0  0  0  0  0
    7.6444  -15.9689   23.1836 N   0  0  0  0  0  0  0  0  0  0  0  0
    8.1857  -15.2781   25.3624 C   0  0  0  0  0  0  0  0  0  0  0  0
    9.3919  -15.7245   25.3369 O   0  0  0  0  0  0  0  0  0  0  0  0
    7.9311  -14.1229   26.1017 N   0  0  0  0  0  0  0  0  0  0  0  0
    6.5876  -13.4774   26.0709 C   0  0  0  0  0  0  0  0  0  0  0  0
    6.5608  -12.8106   27.4216 C   0  0  0  0  0  0  0  0  0  0  0  0
    7.9484  -12.1465   27.3999 C   0  0  0  0  0  0  0  0  0  0  0  0
    8.7792  -13.3524   26.9568 C   0  0  1  0  0  0  0  0  0  0  0  0
    9.0657  -14.0940   28.2441 C   0  0  0  0  0  0  0  0  0  0  0  0
    8.4041  -15.0828   28.6270 O   0  0  0  0  0  0  0  0  0  0  0  0
   10.1146  -13.6338   29.0116 O   0  0  0  0  0  0  0  0  0  0  0  0
  2 10  1  0
  2  1  1  6
  3  2  1  0
  4  3  1  0
  5  4  2  0
  6  5  1  0
  7  8  1  0
  7  6  2  0
  8  9  2  0
  9  4  1  0
 10 11  2  0
 13 12  1  0
 14 13  2  0
 15 13  1  0
 16 15  1  0
 17 16  1  1
 18 17  1  0
 18 10  1  0
 19 17  1  0
 20 19  2  0
 21 19  1  0
 21 25  1  0
 22 23  1  0
 22 21  1  0
 23 24  1  0
 24 25  1  0
 25 26  1  1
 26 28  1  0
 27 26  2  0
M  END
$$$$
