FQP.pdb
     RDKit          3D

 28 29  0  0  1  0  0  0  0  0999 V2000
    6.1400  -18.3045   20.6214 N   0  0  0  0  0  0  0  0  0  0  0  0
    6.7948  -17.0373   20.8717 C   0  0  1  0  0  0  0  0  0  0  0  0
    6.2378  -15.9651   19.9420 C   0  0  0  0  0  0  0  0  0  0  0  0
    7.0232  -14.7327   20.1800 C   0  0  0  0  0  0  0  0  0  0  0  0
    6.6069  -13.8667   21.1715 C   0  0  0  0  0  0  0  0  0  0  0  0
    7.3249  -12.6973   21.4209 C   0  0  0  0  0  0  0  0  0  0  0  0
    8.4437  -12.4609   20.6428 C   0  0  0  0  0  0  0  0  0  0  0  0
    8.8448  -13.3423   19.6530 C   0  0  0  0  0  0  0  0  0  0  0  0
    8.1372  -14.4874   19.4126 C   0  0  0  0  0  0  0  0  0  0  0  0
    6.5081  -16.6147   22.2577 C   0  0  0  0  0  0  0  0  0  0  0  0
    5.3040  -16.5503   22.6524 O   0  0  0  0  0  0  0  0  0  0  0  0
    7.8536  -20.0860   26.0240 N   0  0  0  0  0  0  0  0  0  0  0  0
    7.3618  -19.1908   27.0138 C   0  0  0  0  0  0  0  0  0  0  0  0
    7.1882  -19.5621   28.1843 O   0  0  0  0  0  0  0  0  0  0  0  0
    7.0663  -17.7796   26.5596 C   0  0  0  0  0  0  0  0  0  0  0  0
    7.3750  -17.6529   25.1245 C   0  0  0  0  0  0  0  0  0  0  0  0
    7.1615  -16.2036   24.6405 C   0  0  2  0  0  0  0  0  0  0  0  0
    7.5090  -16.2737   23.1802 N   0  0  0  0  0  0  0  0  0  0  0  0
    8.1372  -15.2922   25.2197 C   0  0  0  0  0  0  0  0  0  0  0  0
    9.3797  -15.5033   24.9620 O   0  0  0  0  0  0  0  0  0  0  0  0
    7.8128  -14.2036   26.0293 N   0  0  0  0  0  0  0  0  0  0  0  0
    6.3916  -13.8044   26.2384 C   0  0  0  0  0  0  0  0  0  0  0  0
    6.4738  -13.1595   27.5975 C   0  0  0  0  0  0  0  0  0  0  0  0
    7.7029  -12.2616   27.3740 C   0  0  0  0  0  0  0  0  0  0  0  0
    8.6446  -13.3003   26.7615 C   0  0  1  0  0  0  0  0  0  0  0  0
    9.2637  -13.9864   27.9595 C   0  0  0  0  0  0  0  0  0  0  0  0
    8.8602  -15.0817   28.4060 O   0  0  0  0  0  0  0  0  0  0  0  0
   10.3240  -13.3484   28.5676 O   0  0  0  0  0  0  0  0  0  0  0  0
  2 10  1  0
  2  1  1  6
  3  2  1  0
  4  3  1  0
  5  4  2  0
  6  5  1  0
  7  8  1  0
  7  6  2  0
  8  9  2  0
  9  4  1  0
 10 11  2  0
 13 12  1  0
 14 13  2  0
 15 13  1  0
 16 15  1  0
 17 16  1  1
 18 17  1  0
 18 10  1  0
 19 17  1  0
 20 19  2  0
 21 19  1  0
 21 25  1  0
 22 23  1  0
 22 21  1  0
 23 24  1  0
 24 25  1  0
 25 26  1  1
 26 28  1  0
 27 26  2  0
M  END
$$$$
