FQP.pdb
     RDKit          3D

 28 29  0  0  1  0  0  0  0  0999 V2000
    7.6732  -17.4640   16.6931 N   0  0  0  0  0  0  0  0  0  0  0  0
    8.0071  -16.4159   17.6350 C   0  0  1  0  0  0  0  0  0  0  0  0
    6.8590  -15.4184   17.7402 C   0  0  0  0  0  0  0  0  0  0  0  0
    7.1771  -14.5065   18.8626 C   0  0  0  0  0  0  0  0  0  0  0  0
    6.5230  -14.6875   20.0648 C   0  0  0  0  0  0  0  0  0  0  0  0
    6.8000  -13.8456   21.1418 C   0  0  0  0  0  0  0  0  0  0  0  0
    7.7386  -12.8492   20.9436 C   0  0  0  0  0  0  0  0  0  0  0  0
    8.3838  -12.6841   19.7295 C   0  0  0  0  0  0  0  0  0  0  0  0
    8.1084  -13.5123   18.6770 C   0  0  0  0  0  0  0  0  0  0  0  0
    8.1978  -17.0149   18.9716 C   0  0  0  0  0  0  0  0  0  0  0  0
    7.2732  -17.7243   19.4735 O   0  0  0  0  0  0  0  0  0  0  0  0
   12.6195  -19.3390   19.3999 N   0  0  0  0  0  0  0  0  0  0  0  0
   11.3905  -19.9813   19.0839 C   0  0  0  0  0  0  0  0  0  0  0  0
   11.3250  -20.8330   18.1847 O   0  0  0  0  0  0  0  0  0  0  0  0
   10.1853  -19.5686   19.8976 C   0  0  0  0  0  0  0  0  0  0  0  0
   10.5846  -18.5440   20.8781 C   0  0  0  0  0  0  0  0  0  0  0  0
    9.4621  -17.5045   21.0776 C   0  0  2  0  0  0  0  0  0  0  0  0
    9.3639  -16.8416   19.7327 N   0  0  0  0  0  0  0  0  0  0  0  0
    9.8628  -16.4470   21.9939 C   0  0  0  0  0  0  0  0  0  0  0  0
   10.9535  -15.8150   21.7377 O   0  0  0  0  0  0  0  0  0  0  0  0
    9.1392  -16.0714   23.1258 N   0  0  0  0  0  0  0  0  0  0  0  0
    7.7320  -16.5249   23.3177 C   0  0  0  0  0  0  0  0  0  0  0  0
    7.6331  -16.5184   24.8210 C   0  0  0  0  0  0  0  0  0  0  0  0
    8.2463  -15.1363   25.1057 C   0  0  0  0  0  0  0  0  0  0  0  0
    9.5030  -15.2542   24.2411 C   0  0  1  0  0  0  0  0  0  0  0  0
   10.4962  -15.9674   25.1322 C   0  0  0  0  0  0  0  0  0  0  0  0
   10.6640  -17.2058   25.1173 O   0  0  0  0  0  0  0  0  0  0  0  0
   11.2390  -15.1865   25.9922 O   0  0  0  0  0  0  0  0  0  0  0  0
  2 10  1  0
  2  1  1  6
  3  2  1  0
  4  3  1  0
  5  4  2  0
  6  5  1  0
  7  8  1  0
  7  6  2  0
  8  9  2  0
  9  4  1  0
 10 11  2  0
 13 12  1  0
 14 13  2  0
 15 13  1  0
 16 15  1  0
 17 16  1  6
 18 17  1  0
 18 10  1  0
 19 17  1  0
 20 19  2  0
 21 19  1  0
 21 25  1  0
 22 23  1  0
 22 21  1  0
 23 24  1  0
 24 25  1  0
 25 26  1  1
 26 28  1  0
 27 26  2  0
M  END
$$$$
