FQP.pdb
     RDKit          3D

 28 29  0  0  1  0  0  0  0  0999 V2000
    8.4792  -15.7800   26.9169 N   0  0  0  0  0  0  0  0  0  0  0  0
    7.7023  -15.7196   25.6963 C   0  0  1  0  0  0  0  0  0  0  0  0
    7.9456  -14.3941   24.9833 C   0  0  0  0  0  0  0  0  0  0  0  0
    7.3393  -13.3332   25.8196 C   0  0  0  0  0  0  0  0  0  0  0  0
    5.9627  -13.2554   25.8904 C   0  0  0  0  0  0  0  0  0  0  0  0
    5.3604  -12.2677   26.6694 C   0  0  0  0  0  0  0  0  0  0  0  0
    6.1945  -11.3968   27.3468 C   0  0  0  0  0  0  0  0  0  0  0  0
    7.5734  -11.4915   27.2626 C   0  0  0  0  0  0  0  0  0  0  0  0
    8.1587  -12.4618   26.4973 C   0  0  0  0  0  0  0  0  0  0  0  0
    8.1471  -16.7983   24.7906 C   0  0  0  0  0  0  0  0  0  0  0  0
    9.3712  -17.1321   24.7741 O   0  0  0  0  0  0  0  0  0  0  0  0
    4.5370  -20.6817   21.6667 N   0  0  0  0  0  0  0  0  0  0  0  0
    5.7210  -20.9054   20.9111 C   0  0  0  0  0  0  0  0  0  0  0  0
    5.7241  -21.6724   19.9365 O   0  0  0  0  0  0  0  0  0  0  0  0
    6.9587  -20.1637   21.3616 C   0  0  0  0  0  0  0  0  0  0  0  0
    6.6005  -19.2223   22.4369 C   0  0  0  0  0  0  0  0  0  0  0  0
    7.8496  -18.4854   22.9634 C   0  0  2  0  0  0  0  0  0  0  0  0
    7.2783  -17.4879   23.9312 N   0  0  0  0  0  0  0  0  0  0  0  0
    8.4828  -17.6869   21.9244 C   0  0  0  0  0  0  0  0  0  0  0  0
    7.7818  -16.7610   21.3710 O   0  0  0  0  0  0  0  0  0  0  0  0
    9.7991  -17.8560   21.4951 N   0  0  0  0  0  0  0  0  0  0  0  0
   10.7260  -18.7733   22.2177 C   0  0  0  0  0  0  0  0  0  0  0  0
   11.6610  -19.1687   21.1045 C   0  0  0  0  0  0  0  0  0  0  0  0
   11.9496  -17.7773   20.5148 C   0  0  0  0  0  0  0  0  0  0  0  0
   10.5119  -17.2655   20.4055 C   0  0  1  0  0  0  0  0  0  0  0  0
   10.0265  -17.8142   19.0817 C   0  0  0  0  0  0  0  0  0  0  0  0
    9.2961  -18.8238   18.9849 O   0  0  0  0  0  0  0  0  0  0  0  0
   10.4251  -17.1464   17.9432 O   0  0  0  0  0  0  0  0  0  0  0  0
  2 10  1  0
  2  1  1  1
  3  2  1  0
  4  3  1  0
  5  4  2  0
  6  5  1  0
  7  8  1  0
  7  6  2  0
  8  9  2  0
  9  4  1  0
 10 11  2  0
 13 12  1  0
 14 13  2  0
 15 13  1  0
 16 15  1  0
 17 16  1  6
 18 17  1  0
 18 10  1  0
 19 17  1  0
 20 19  2  0
 21 19  1  0
 21 25  1  0
 22 23  1  0
 22 21  1  0
 23 24  1  0
 24 25  1  0
 25 26  1  6
 26 28  1  0
 27 26  2  0
M  END
$$$$
