FQP.pdb
     RDKit          3D

 28 29  0  0  1  0  0  0  0  0999 V2000
    6.7515  -17.3879   25.5352 N   0  0  0  0  0  0  0  0  0  0  0  0
    6.6481  -15.9476   25.6455 C   0  0  1  0  0  0  0  0  0  0  0  0
    7.0841  -15.4942   27.0342 C   0  0  0  0  0  0  0  0  0  0  0  0
    7.0195  -14.0150   27.0486 C   0  0  0  0  0  0  0  0  0  0  0  0
    8.2022  -13.3037   27.0888 C   0  0  0  0  0  0  0  0  0  0  0  0
    8.1758  -11.9093   27.1031 C   0  0  0  0  0  0  0  0  0  0  0  0
    6.9356  -11.2974   27.0755 C   0  0  0  0  0  0  0  0  0  0  0  0
    5.7606  -12.0290   27.0353 C   0  0  0  0  0  0  0  0  0  0  0  0
    5.7923  -13.3959   27.0215 C   0  0  0  0  0  0  0  0  0  0  0  0
    7.5635  -15.3246   24.6680 C   0  0  0  0  0  0  0  0  0  0  0  0
    7.5091  -14.0717   24.4750 O   0  0  0  0  0  0  0  0  0  0  0  0
   13.0102  -17.2616   22.9079 N   0  0  0  0  0  0  0  0  0  0  0  0
   12.8613  -16.2952   21.8750 C   0  0  0  0  0  0  0  0  0  0  0  0
   13.7655  -16.0942   21.0502 O   0  0  0  0  0  0  0  0  0  0  0  0
   11.5537  -15.5375   21.8440 C   0  0  0  0  0  0  0  0  0  0  0  0
   10.6501  -16.0788   22.8741 C   0  0  0  0  0  0  0  0  0  0  0  0
    9.2913  -15.3481   22.8549 C   0  0  2  0  0  0  0  0  0  0  0  0
    8.5071  -16.0516   23.9263 N   0  0  0  0  0  0  0  0  0  0  0  0
    8.5606  -15.6003   21.6217 C   0  0  0  0  0  0  0  0  0  0  0  0
    8.0778  -16.7792   21.4429 O   0  0  0  0  0  0  0  0  0  0  0  0
    8.3452  -14.6471   20.6264 N   0  0  0  0  0  0  0  0  0  0  0  0
    8.8543  -13.2543   20.7800 C   0  0  0  0  0  0  0  0  0  0  0  0
    9.0349  -12.8563   19.3382 C   0  0  0  0  0  0  0  0  0  0  0  0
    7.6832  -13.3305   18.7770 C   0  0  0  0  0  0  0  0  0  0  0  0
    7.6621  -14.7392   19.3737 C   0  0  1  0  0  0  0  0  0  0  0  0
    8.4539  -15.5682   18.3864 C   0  0  0  0  0  0  0  0  0  0  0  0
    9.6463  -15.8956   18.5676 O   0  0  0  0  0  0  0  0  0  0  0  0
    7.8013  -15.9681   17.2395 O   0  0  0  0  0  0  0  0  0  0  0  0
  2 10  1  0
  2  1  1  1
  3  2  1  0
  4  3  1  0
  5  4  2  0
  6  5  1  0
  7  8  1  0
  7  6  2  0
  8  9  2  0
  9  4  1  0
 10 11  2  0
 13 12  1  0
 14 13  2  0
 15 13  1  0
 16 15  1  0
 17 16  1  6
 18 17  1  0
 18 10  1  0
 19 17  1  0
 20 19  2  0
 21 19  1  0
 21 25  1  0
 22 23  1  0
 22 21  1  0
 23 24  1  0
 24 25  1  0
 25 26  1  6
 26 28  1  0
 27 26  2  0
M  END
$$$$
