FQP.pdb
     RDKit          3D

 28 29  0  0  1  0  0  0  0  0999 V2000
    7.1089  -18.2342   20.3100 N   0  0  0  0  0  0  0  0  0  0  0  0
    7.4695  -16.8617   20.5988 C   0  0  1  0  0  0  0  0  0  0  0  0
    6.7899  -15.9205   19.6106 C   0  0  0  0  0  0  0  0  0  0  0  0
    7.2978  -14.5577   19.8888 C   0  0  0  0  0  0  0  0  0  0  0  0
    8.4366  -14.1322   19.2343 C   0  0  0  0  0  0  0  0  0  0  0  0
    8.9407  -12.8540   19.4740 C   0  0  0  0  0  0  0  0  0  0  0  0
    8.2563  -12.0605   20.3768 C   0  0  0  0  0  0  0  0  0  0  0  0
    7.1155  -12.5061   21.0230 C   0  0  0  0  0  0  0  0  0  0  0  0
    6.6256  -13.7602   20.7844 C   0  0  0  0  0  0  0  0  0  0  0  0
    6.9841  -16.5122   21.9494 C   0  0  0  0  0  0  0  0  0  0  0  0
    5.7386  -16.5406   22.1899 O   0  0  0  0  0  0  0  0  0  0  0  0
    7.6454  -19.9563   25.8546 N   0  0  0  0  0  0  0  0  0  0  0  0
    7.0170  -19.0518   26.7545 C   0  0  0  0  0  0  0  0  0  0  0  0
    6.6315  -19.4244   27.8729 O   0  0  0  0  0  0  0  0  0  0  0  0
    6.8482  -17.6291   26.2723 C   0  0  0  0  0  0  0  0  0  0  0  0
    7.3413  -17.5199   24.8883 C   0  0  0  0  0  0  0  0  0  0  0  0
    7.2807  -16.0593   24.3949 C   0  0  2  0  0  0  0  0  0  0  0  0
    7.8365  -16.1435   23.0013 N   0  0  0  0  0  0  0  0  0  0  0  0
    8.2077  -15.2053   25.1225 C   0  0  0  0  0  0  0  0  0  0  0  0
    9.4667  -15.4103   24.9557 O   0  0  0  0  0  0  0  0  0  0  0  0
    7.8204  -14.1773   25.9822 N   0  0  0  0  0  0  0  0  0  0  0  0
    6.3798  -13.8463   26.1763 C   0  0  0  0  0  0  0  0  0  0  0  0
    6.4037  -13.2760   27.5705 C   0  0  0  0  0  0  0  0  0  0  0  0
    7.6004  -12.3196   27.4287 C   0  0  0  0  0  0  0  0  0  0  0  0
    8.5976  -13.2847   26.7843 C   0  0  1  0  0  0  0  0  0  0  0  0
    9.2155  -14.0122   27.9582 C   0  0  0  0  0  0  0  0  0  0  0  0
    8.8540  -15.1507   28.3260 O   0  0  0  0  0  0  0  0  0  0  0  0
   10.2252  -13.3627   28.6362 O   0  0  0  0  0  0  0  0  0  0  0  0
  2 10  1  0
  2  1  1  6
  3  2  1  0
  4  3  1  0
  5  4  2  0
  6  5  1  0
  7  8  1  0
  7  6  2  0
  8  9  2  0
  9  4  1  0
 10 11  2  0
 13 12  1  0
 14 13  2  0
 15 13  1  0
 16 15  1  0
 17 16  1  1
 18 17  1  0
 18 10  1  0
 19 17  1  0
 20 19  2  0
 21 19  1  0
 21 25  1  0
 22 23  1  0
 22 21  1  0
 23 24  1  0
 24 25  1  0
 25 26  1  1
 26 28  1  0
 27 26  2  0
M  END
$$$$
