FQP.pdb
     RDKit          3D

 28 29  0  0  1  0  0  0  0  0999 V2000
    5.1540  -17.1092   23.6395 N   0  0  0  0  0  0  0  0  0  0  0  0
    6.0591  -16.0828   24.1135 C   0  0  1  0  0  0  0  0  0  0  0  0
    5.5014  -15.4313   25.3739 C   0  0  0  0  0  0  0  0  0  0  0  0
    6.4043  -14.3097   25.7193 C   0  0  0  0  0  0  0  0  0  0  0  0
    6.8539  -14.2019   27.0202 C   0  0  0  0  0  0  0  0  0  0  0  0
    7.7056  -13.1569   27.3780 C   0  0  0  0  0  0  0  0  0  0  0  0
    8.0639  -12.2619   26.3863 C   0  0  0  0  0  0  0  0  0  0  0  0
    7.6020  -12.3876   25.0869 C   0  0  0  0  0  0  0  0  0  0  0  0
    6.7671  -13.4139   24.7416 C   0  0  0  0  0  0  0  0  0  0  0  0
    7.3486  -16.7081   24.4710 C   0  0  0  0  0  0  0  0  0  0  0  0
    7.3648  -17.6763   25.2909 O   0  0  0  0  0  0  0  0  0  0  0  0
   13.7332  -18.5049   21.8360 N   0  0  0  0  0  0  0  0  0  0  0  0
   12.8618  -17.3996   22.0406 C   0  0  0  0  0  0  0  0  0  0  0  0
   12.7548  -16.5020   21.1914 O   0  0  0  0  0  0  0  0  0  0  0  0
   12.0857  -17.3838   23.3377 C   0  0  0  0  0  0  0  0  0  0  0  0
   10.7526  -16.8022   23.1030 C   0  0  0  0  0  0  0  0  0  0  0  0
    9.8262  -17.0400   24.3137 C   0  0  2  0  0  0  0  0  0  0  0  0
    8.5797  -16.2854   23.9467 N   0  0  0  0  0  0  0  0  0  0  0  0
   10.3273  -16.3855   25.5131 C   0  0  0  0  0  0  0  0  0  0  0  0
   10.7774  -15.1860   25.3964 O   0  0  0  0  0  0  0  0  0  0  0  0
   10.3453  -16.9708   26.7791 N   0  0  0  0  0  0  0  0  0  0  0  0
    9.5291  -18.1837   27.0712 C   0  0  0  0  0  0  0  0  0  0  0  0
   10.3433  -18.8174   28.1691 C   0  0  0  0  0  0  0  0  0  0  0  0
   10.5780  -17.5796   29.0522 C   0  0  0  0  0  0  0  0  0  0  0  0
   11.0461  -16.6044   27.9703 C   0  0  1  0  0  0  0  0  0  0  0  0
   12.5261  -16.8881   27.8354 C   0  0  0  0  0  0  0  0  0  0  0  0
   12.9992  -17.6666   26.9797 O   0  0  0  0  0  0  0  0  0  0  0  0
   13.3701  -16.2412   28.7130 O   0  0  0  0  0  0  0  0  0  0  0  0
  2 10  1  0
  2  1  1  1
  3  2  1  0
  4  3  1  0
  5  4  2  0
  6  5  1  0
  7  8  1  0
  7  6  2  0
  8  9  2  0
  9  4  1  0
 10 11  2  0
 13 12  1  0
 14 13  2  0
 15 13  1  0
 16 15  1  0
 17 16  1  6
 18 17  1  0
 18 10  1  0
 19 17  1  0
 20 19  2  0
 21 19  1  0
 21 25  1  0
 22 23  1  0
 22 21  1  0
 23 24  1  0
 24 25  1  0
 25 26  1  6
 26 28  1  0
 27 26  2  0
M  END
$$$$
