FQP.pdb
     RDKit          3D

 28 29  0  0  1  0  0  0  0  0999 V2000
    6.9975  -18.1437   20.3424 N   0  0  0  0  0  0  0  0  0  0  0  0
    7.3670  -16.7786   20.6543 C   0  0  1  0  0  0  0  0  0  0  0  0
    6.6246  -15.8110   19.7396 C   0  0  0  0  0  0  0  0  0  0  0  0
    7.2326  -14.4751   19.9351 C   0  0  0  0  0  0  0  0  0  0  0  0
    8.4730  -14.2278   19.3817 C   0  0  0  0  0  0  0  0  0  0  0  0
    9.0730  -12.9797   19.5474 C   0  0  0  0  0  0  0  0  0  0  0  0
    8.3764  -12.0319   20.2751 C   0  0  0  0  0  0  0  0  0  0  0  0
    7.1328  -12.2998   20.8223 C   0  0  0  0  0  0  0  0  0  0  0  0
    6.5493  -13.5252   20.6568 C   0  0  0  0  0  0  0  0  0  0  0  0
    6.9610  -16.4768   22.0421 C   0  0  0  0  0  0  0  0  0  0  0  0
    5.7607  -16.1420   22.2806 O   0  0  0  0  0  0  0  0  0  0  0  0
    7.4804  -20.0144   26.3572 N   0  0  0  0  0  0  0  0  0  0  0  0
    7.1558  -18.9438   27.2355 C   0  0  0  0  0  0  0  0  0  0  0  0
    6.9780  -19.1403   28.4471 O   0  0  0  0  0  0  0  0  0  0  0  0
    7.0407  -17.5716   26.6122 C   0  0  0  0  0  0  0  0  0  0  0  0
    7.3001  -17.6682   25.1651 C   0  0  0  0  0  0  0  0  0  0  0  0
    7.3150  -16.2700   24.5130 C   0  0  2  0  0  0  0  0  0  0  0  0
    7.8425  -16.5400   23.1320 N   0  0  0  0  0  0  0  0  0  0  0  0
    8.3008  -15.3965   25.1321 C   0  0  0  0  0  0  0  0  0  0  0  0
    9.5424  -15.7044   24.9957 O   0  0  0  0  0  0  0  0  0  0  0  0
    7.9876  -14.2465   25.8568 N   0  0  0  0  0  0  0  0  0  0  0  0
    6.6029  -13.6941   25.8513 C   0  0  0  0  0  0  0  0  0  0  0  0
    6.5663  -13.0036   27.1898 C   0  0  0  0  0  0  0  0  0  0  0  0
    7.9044  -12.2477   27.1175 C   0  0  0  0  0  0  0  0  0  0  0  0
    8.8035  -13.4034   26.6738 C   0  0  1  0  0  0  0  0  0  0  0  0
    9.1737  -14.0978   27.9660 C   0  0  0  0  0  0  0  0  0  0  0  0
    8.5830  -15.1137   28.3915 O   0  0  0  0  0  0  0  0  0  0  0  0
   10.2184  -13.5610   28.6882 O   0  0  0  0  0  0  0  0  0  0  0  0
  2 10  1  0
  2  1  1  6
  3  2  1  0
  4  3  1  0
  5  4  2  0
  6  5  1  0
  7  8  1  0
  7  6  2  0
  8  9  2  0
  9  4  1  0
 10 11  2  0
 13 12  1  0
 14 13  2  0
 15 13  1  0
 16 15  1  0
 17 16  1  1
 18 17  1  0
 18 10  1  0
 19 17  1  0
 20 19  2  0
 21 19  1  0
 21 25  1  0
 22 23  1  0
 22 21  1  0
 23 24  1  0
 24 25  1  0
 25 26  1  1
 26 28  1  0
 27 26  2  0
M  END
$$$$
