EGS.pdb
     RDKit          3D

 20 19  0  0  1  0  0  0  0  0999 V2000
   21.4850  -12.4084  -16.8567 N   0  0  0  0  0  0  0  0  0  0  0  0
   20.0830  -12.2348  -17.2691 C   0  0  1  0  0  0  0  0  0  0  0  0
   19.1927  -13.1284  -16.4717 C   0  0  0  0  0  0  0  0  0  0  0  0
   19.5011  -14.5639  -16.7139 C   0  0  0  0  0  0  0  0  0  0  0  0
   18.5557  -15.4283  -15.9374 C   0  0  0  0  0  0  0  0  0  0  0  0
   17.5143  -14.9194  -15.4909 O   0  0  0  0  0  0  0  0  0  0  0  0
   19.7089  -10.8330  -17.1169 C   0  0  0  0  0  0  0  0  0  0  0  0
   18.5992  -10.3943  -17.4565 O   0  0  0  0  0  0  0  0  0  0  0  0
   18.8523  -16.7458  -15.7366 O   0  0  0  0  0  0  0  0  0  0  0  0
   20.6381   -9.9028  -16.5563 N   0  0  0  0  0  0  0  0  0  0  0  0
   20.2320   -8.5531  -16.3366 C   0  0  0  0  0  0  0  0  0  0  0  0
   21.3394   -7.7379  -15.7195 C   0  0  0  0  0  0  0  0  0  0  0  0
   22.4480   -8.2466  -15.4450 O   0  0  0  0  0  0  0  0  0  0  0  0
   21.9085   -4.1626  -16.8373 O   0  0  0  0  0  0  0  0  0  0  0  0
   22.0371   -4.1496  -15.4686 C   0  0  0  0  0  0  0  0  0  0  0  0
   22.2228   -5.5467  -14.8874 C   0  0  2  0  0  0  0  0  0  0  0  0
   21.1533   -6.3591  -15.4304 N   0  0  0  0  0  0  0  0  0  0  0  0
   22.1897   -5.5041  -13.4083 C   0  0  0  0  0  0  0  0  0  0  0  0
   23.3558   -5.2101  -12.7288 O   0  0  0  0  0  0  0  0  0  0  0  0
   21.1464   -5.7244  -12.7572 O   0  0  0  0  0  0  0  0  0  0  0  0
  2  1  1  1
  3  4  1  0
  3  2  1  0
  4  5  1  0
  5  9  1  0
  5  6  2  0
  7  2  1  0
  8  7  2  0
 10  7  1  0
 11 10  1  0
 11 12  1  0
 12 13  2  0
 16 15  1  6
 15 14  1  0
 17 12  1  0
 17 16  1  0
 18 16  1  0
 18 19  1  0
 20 18  2  0
M  END
$$$$
