EGS.pdb
     RDKit          3D

 20 19  0  0  1  0  0  0  0  0999 V2000
   22.9387  -32.3031  -12.3679 N   0  0  0  0  0  0  0  0  0  0  0  0
   23.6090  -33.3783  -11.6195 C   0  0  1  0  0  0  0  0  0  0  0  0
   24.0987  -34.4339  -12.5537 C   0  0  0  0  0  0  0  0  0  0  0  0
   23.2823  -34.4847  -13.7968 C   0  0  0  0  0  0  0  0  0  0  0  0
   22.5072  -35.7655  -13.8479 C   0  0  0  0  0  0  0  0  0  0  0  0
   22.5717  -36.5391  -12.8783 O   0  0  0  0  0  0  0  0  0  0  0  0
   24.7003  -32.8087  -10.8367 C   0  0  0  0  0  0  0  0  0  0  0  0
   25.2957  -31.7728  -11.1706 O   0  0  0  0  0  0  0  0  0  0  0  0
   21.7520  -36.0566  -14.9474 O   0  0  0  0  0  0  0  0  0  0  0  0
   25.1234  -33.4483   -9.6304 N   0  0  0  0  0  0  0  0  0  0  0  0
   26.1866  -32.8770   -8.8703 C   0  0  0  0  0  0  0  0  0  0  0  0
   26.4948  -33.7019   -7.6471 C   0  0  0  0  0  0  0  0  0  0  0  0
   25.7516  -34.6421   -7.2909 O   0  0  0  0  0  0  0  0  0  0  0  0
   30.3342  -34.1181   -6.1509 O   0  0  0  0  0  0  0  0  0  0  0  0
   29.3575  -33.7841   -5.2430 C   0  0  0  0  0  0  0  0  0  0  0  0
   27.9691  -34.2264   -5.6913 C   0  0  2  0  0  0  0  0  0  0  0  0
   27.6462  -33.4324   -6.8592 N   0  0  0  0  0  0  0  0  0  0  0  0
   26.9848  -34.0358   -4.6025 C   0  0  0  0  0  0  0  0  0  0  0  0
   26.9700  -34.9400   -3.5584 O   0  0  0  0  0  0  0  0  0  0  0  0
   26.1707  -33.0882   -4.5968 O   0  0  0  0  0  0  0  0  0  0  0  0
  2  1  1  6
  3  4  1  0
  3  2  1  0
  4  5  1  0
  5  9  1  0
  5  6  2  0
  7  2  1  0
  8  7  2  0
 10  7  1  0
 11 10  1  0
 11 12  1  0
 12 13  2  0
 16 15  1  1
 15 14  1  0
 17 12  1  0
 17 16  1  0
 18 16  1  0
 18 19  1  0
 20 18  2  0
M  END
$$$$
