EGS.pdb
     RDKit          3D

 20 19  0  0  1  0  0  0  0  0999 V2000
   19.0820  -10.7037  -19.0449 N   0  0  0  0  0  0  0  0  0  0  0  0
   20.4495  -10.5721  -19.5723 C   0  0  1  0  0  0  0  0  0  0  0  0
   20.4619  -10.8032  -21.0465 C   0  0  0  0  0  0  0  0  0  0  0  0
   19.9996  -12.1758  -21.3882 C   0  0  0  0  0  0  0  0  0  0  0  0
   20.0461  -12.3767  -22.8719 C   0  0  0  0  0  0  0  0  0  0  0  0
   18.9753  -12.4295  -23.4990 O   0  0  0  0  0  0  0  0  0  0  0  0
   20.9686   -9.2515  -19.2335 C   0  0  0  0  0  0  0  0  0  0  0  0
   22.1609   -8.9416  -19.3806 O   0  0  0  0  0  0  0  0  0  0  0  0
   21.2516  -12.4970  -23.5015 O   0  0  0  0  0  0  0  0  0  0  0  0
   20.0915   -8.2525  -18.7085 N   0  0  0  0  0  0  0  0  0  0  0  0
   20.5858   -6.9332  -18.4857 C   0  0  0  0  0  0  0  0  0  0  0  0
   20.5295   -6.5627  -17.0258 C   0  0  0  0  0  0  0  0  0  0  0  0
   19.5978   -6.9541  -16.2897 O   0  0  0  0  0  0  0  0  0  0  0  0
   21.9252   -6.6846  -12.9707 O   0  0  0  0  0  0  0  0  0  0  0  0
   21.6741   -6.8156  -14.3160 C   0  0  0  0  0  0  0  0  0  0  0  0
   21.5578   -5.4688  -15.0209 C   0  0  2  0  0  0  0  0  0  0  0  0
   21.5403   -5.7530  -16.4413 N   0  0  0  0  0  0  0  0  0  0  0  0
   22.6852   -4.5859  -14.6465 C   0  0  0  0  0  0  0  0  0  0  0  0
   23.7970   -4.5494  -15.4654 O   0  0  0  0  0  0  0  0  0  0  0  0
   22.6643   -3.8759  -13.6188 O   0  0  0  0  0  0  0  0  0  0  0  0
  2  1  1  6
  3  4  1  0
  3  2  1  0
  4  5  1  0
  5  9  1  0
  5  6  2  0
  7  2  1  0
  8  7  2  0
 10  7  1  0
 11 10  1  0
 11 12  1  0
 12 13  2  0
 16 15  1  1
 15 14  1  0
 17 12  1  0
 17 16  1  0
 18 16  1  0
 18 19  1  0
 20 18  2  0
M  END
$$$$
