EGS.pdb
     RDKit          3D

 20 19  0  0  1  0  0  0  0  0999 V2000
   21.9198   -8.5445  -17.8101 N   0  0  0  0  0  0  0  0  0  0  0  0
   21.7879   -9.2936  -16.5503 C   0  0  1  0  0  0  0  0  0  0  0  0
   22.8681  -10.3172  -16.4393 C   0  0  0  0  0  0  0  0  0  0  0  0
   22.8552  -11.2526  -17.5966 C   0  0  0  0  0  0  0  0  0  0  0  0
   21.9013  -12.3775  -17.3345 C   0  0  0  0  0  0  0  0  0  0  0  0
   21.3843  -12.4692  -16.2088 O   0  0  0  0  0  0  0  0  0  0  0  0
   21.8202   -8.3584  -15.4312 C   0  0  0  0  0  0  0  0  0  0  0  0
   21.8546   -8.7295  -14.2479 O   0  0  0  0  0  0  0  0  0  0  0  0
   21.6202  -13.2721  -18.3268 O   0  0  0  0  0  0  0  0  0  0  0  0
   21.8129   -6.9503  -15.6768 N   0  0  0  0  0  0  0  0  0  0  0  0
   21.9558   -6.0474  -14.5818 C   0  0  0  0  0  0  0  0  0  0  0  0
   21.8933   -4.6125  -15.0388 C   0  0  0  0  0  0  0  0  0  0  0  0
   22.4098   -4.2492  -16.1179 O   0  0  0  0  0  0  0  0  0  0  0  0
   19.6784   -1.2397  -16.4798 O   0  0  0  0  0  0  0  0  0  0  0  0
   20.0762   -2.4485  -15.9599 C   0  0  0  0  0  0  0  0  0  0  0  0
   20.9985   -2.2902  -14.7563 C   0  0  2  0  0  0  0  0  0  0  0  0
   21.2414   -3.6259  -14.2509 N   0  0  0  0  0  0  0  0  0  0  0  0
   20.3776   -1.4162  -13.7358 C   0  0  0  0  0  0  0  0  0  0  0  0
   20.7072   -0.0749  -13.7246 O   0  0  0  0  0  0  0  0  0  0  0  0
   19.5689   -1.8499  -12.8881 O   0  0  0  0  0  0  0  0  0  0  0  0
  2  1  1  6
  3  4  1  0
  3  2  1  0
  4  5  1  0
  5  9  1  0
  5  6  2  0
  7  2  1  0
  8  7  2  0
 10  7  1  0
 11 10  1  0
 11 12  1  0
 12 13  2  0
 16 15  1  6
 15 14  1  0
 17 12  1  0
 17 16  1  0
 18 16  1  0
 18 19  1  0
 20 18  2  0
M  END
$$$$
