EGS.pdb
     RDKit          3D

 20 19  0  0  1  0  0  0  0  0999 V2000
   19.1794  -11.3839  -15.3253 N   0  0  0  0  0  0  0  0  0  0  0  0
   18.0260  -10.4836  -15.4829 C   0  0  1  0  0  0  0  0  0  0  0  0
   16.7603  -11.1965  -15.1412 C   0  0  0  0  0  0  0  0  0  0  0  0
   16.5962  -12.4356  -15.9489 C   0  0  0  0  0  0  0  0  0  0  0  0
   15.3175  -13.1221  -15.5783 C   0  0  0  0  0  0  0  0  0  0  0  0
   14.2991  -12.8856  -16.2489 O   0  0  0  0  0  0  0  0  0  0  0  0
   18.2195   -9.3057  -14.6443 C   0  0  0  0  0  0  0  0  0  0  0  0
   17.5023   -8.2969  -14.7290 O   0  0  0  0  0  0  0  0  0  0  0  0
   15.2944  -13.9862  -14.5215 O   0  0  0  0  0  0  0  0  0  0  0  0
   19.2706   -9.2835  -13.6758 N   0  0  0  0  0  0  0  0  0  0  0  0
   19.4826   -8.1061  -12.8990 C   0  0  0  0  0  0  0  0  0  0  0  0
   20.7078   -7.3570  -13.3566 C   0  0  0  0  0  0  0  0  0  0  0  0
   21.7168   -7.9581  -13.7853 O   0  0  0  0  0  0  0  0  0  0  0  0
   22.6421   -4.9381  -16.2334 O   0  0  0  0  0  0  0  0  0  0  0  0
   21.7729   -5.6527  -15.4436 C   0  0  0  0  0  0  0  0  0  0  0  0
   21.7892   -5.1888  -13.9915 C   0  0  2  0  0  0  0  0  0  0  0  0
   20.7508   -5.9374  -13.3133 N   0  0  0  0  0  0  0  0  0  0  0  0
   21.5632   -3.7284  -13.9086 C   0  0  0  0  0  0  0  0  0  0  0  0
   22.6570   -2.8969  -13.7661 O   0  0  0  0  0  0  0  0  0  0  0  0
   20.4210   -3.2254  -13.9632 O   0  0  0  0  0  0  0  0  0  0  0  0
  2  1  1  1
  3  4  1  0
  3  2  1  0
  4  5  1  0
  5  9  1  0
  5  6  2  0
  7  2  1  0
  8  7  2  0
 10  7  1  0
 11 10  1  0
 11 12  1  0
 12 13  2  0
 16 15  1  6
 15 14  1  0
 17 12  1  0
 17 16  1  0
 18 16  1  0
 18 19  1  0
 20 18  2  0
M  END
$$$$
