EGS.pdb
     RDKit          3D

 20 19  0  0  1  0  0  0  0  0999 V2000
   17.5289  -22.3089  -10.5459 N   0  0  0  0  0  0  0  0  0  0  0  0
   17.5910  -23.7521  -10.8269 C   0  0  1  0  0  0  0  0  0  0  0  0
   18.4148  -24.0091  -12.0444 C   0  0  0  0  0  0  0  0  0  0  0  0
   18.7531  -22.7444  -12.7520 C   0  0  0  0  0  0  0  0  0  0  0  0
   19.5205  -23.0472  -14.0022 C   0  0  0  0  0  0  0  0  0  0  0  0
   19.9132  -22.1002  -14.7035 O   0  0  0  0  0  0  0  0  0  0  0  0
   18.1292  -24.4445   -9.6611 C   0  0  0  0  0  0  0  0  0  0  0  0
   18.3000  -25.6729   -9.6304 O   0  0  0  0  0  0  0  0  0  0  0  0
   19.7719  -24.3446  -14.3450 O   0  0  0  0  0  0  0  0  0  0  0  0
   18.4835  -23.7038   -8.4912 N   0  0  0  0  0  0  0  0  0  0  0  0
   18.9424  -24.3997   -7.3337 C   0  0  0  0  0  0  0  0  0  0  0  0
   17.7952  -24.9910   -6.5552 C   0  0  0  0  0  0  0  0  0  0  0  0
   16.6295  -24.9852   -7.0070 O   0  0  0  0  0  0  0  0  0  0  0  0
   18.4896  -27.7125   -3.7492 O   0  0  0  0  0  0  0  0  0  0  0  0
   17.5218  -26.8364   -3.3185 C   0  0  0  0  0  0  0  0  0  0  0  0
   16.9040  -26.0415   -4.4633 C   0  0  2  0  0  0  0  0  0  0  0  0
   18.0079  -25.5755   -5.2776 N   0  0  0  0  0  0  0  0  0  0  0  0
   16.0902  -24.9214   -3.9401 C   0  0  0  0  0  0  0  0  0  0  0  0
   14.8705  -25.2057   -3.3573 O   0  0  0  0  0  0  0  0  0  0  0  0
   16.4685  -23.7327   -4.0078 O   0  0  0  0  0  0  0  0  0  0  0  0
  2  1  1  1
  3  4  1  0
  3  2  1  0
  4  5  1  0
  5  9  1  0
  5  6  2  0
  7  2  1  0
  8  7  2  0
 10  7  1  0
 11 10  1  0
 11 12  1  0
 12 13  2  0
 16 15  1  1
 15 14  1  0
 17 12  1  0
 17 16  1  0
 18 16  1  0
 18 19  1  0
 20 18  2  0
M  END
$$$$
