EGS.pdb
     RDKit          3D

 20 19  0  0  1  0  0  0  0  0999 V2000
   18.1157  -11.3984  -16.7855 N   0  0  0  0  0  0  0  0  0  0  0  0
   19.3535  -11.7596  -17.4946 C   0  0  1  0  0  0  0  0  0  0  0  0
   19.0614  -12.0667  -18.9255 C   0  0  0  0  0  0  0  0  0  0  0  0
   18.0957  -13.1912  -19.0567 C   0  0  0  0  0  0  0  0  0  0  0  0
   18.8346  -14.4890  -19.1745 C   0  0  0  0  0  0  0  0  0  0  0  0
   19.6139  -14.6455  -20.1289 O   0  0  0  0  0  0  0  0  0  0  0  0
   20.3144  -10.6694  -17.3670 C   0  0  0  0  0  0  0  0  0  0  0  0
   21.4333  -10.6955  -17.9022 O   0  0  0  0  0  0  0  0  0  0  0  0
   18.6402  -15.4660  -18.2408 O   0  0  0  0  0  0  0  0  0  0  0  0
   19.9813   -9.5102  -16.5999 N   0  0  0  0  0  0  0  0  0  0  0  0
   20.9456   -8.4702  -16.4476 C   0  0  0  0  0  0  0  0  0  0  0  0
   20.4125   -7.3443  -15.5990 C   0  0  0  0  0  0  0  0  0  0  0  0
   19.2078   -7.2910  -15.2691 O   0  0  0  0  0  0  0  0  0  0  0  0
   22.6766   -5.7012  -12.9287 O   0  0  0  0  0  0  0  0  0  0  0  0
   21.9721   -4.6932  -13.5432 C   0  0  0  0  0  0  0  0  0  0  0  0
   20.7758   -5.2149  -14.3313 C   0  0  2  0  0  0  0  0  0  0  0  0
   21.2699   -6.3052  -15.1472 N   0  0  0  0  0  0  0  0  0  0  0  0
   20.1810   -4.1353  -15.1506 C   0  0  0  0  0  0  0  0  0  0  0  0
   20.5404   -4.0400  -16.4809 O   0  0  0  0  0  0  0  0  0  0  0  0
   19.3682   -3.3111  -14.6805 O   0  0  0  0  0  0  0  0  0  0  0  0
  2  1  1  1
  3  4  1  0
  3  2  1  0
  4  5  1  0
  5  9  1  0
  5  6  2  0
  7  2  1  0
  8  7  2  0
 10  7  1  0
 11 10  1  0
 11 12  1  0
 12 13  2  0
 16 15  1  6
 15 14  1  0
 17 12  1  0
 17 16  1  0
 18 16  1  0
 18 19  1  0
 20 18  2  0
M  END
$$$$
