EGS.pdb
     RDKit          3D

 20 19  0  0  1  0  0  0  0  0999 V2000
   18.2994  -11.0900  -15.8384 N   0  0  0  0  0  0  0  0  0  0  0  0
   19.7125  -10.9795  -16.2341 C   0  0  1  0  0  0  0  0  0  0  0  0
   19.9764  -11.8007  -17.4519 C   0  0  0  0  0  0  0  0  0  0  0  0
   18.7107  -12.2225  -18.1110 C   0  0  0  0  0  0  0  0  0  0  0  0
   19.0156  -12.9692  -19.3734 C   0  0  0  0  0  0  0  0  0  0  0  0
   18.0693  -13.3860  -20.0615 O   0  0  0  0  0  0  0  0  0  0  0  0
   20.0399   -9.5751  -16.4548 C   0  0  0  0  0  0  0  0  0  0  0  0
   21.1815   -9.1914  -16.7524 O   0  0  0  0  0  0  0  0  0  0  0  0
   20.3141  -13.1759  -19.7411 O   0  0  0  0  0  0  0  0  0  0  0  0
   19.0244   -8.5771  -16.3301 N   0  0  0  0  0  0  0  0  0  0  0  0
   19.3510   -7.2106  -16.5767 C   0  0  0  0  0  0  0  0  0  0  0  0
   19.6961   -6.4874  -15.3001 C   0  0  0  0  0  0  0  0  0  0  0  0
   18.9686   -6.5709  -14.2868 O   0  0  0  0  0  0  0  0  0  0  0  0
   21.5840   -6.9510  -12.6657 O   0  0  0  0  0  0  0  0  0  0  0  0
   22.1936   -5.8636  -13.2451 C   0  0  0  0  0  0  0  0  0  0  0  0
   21.2087   -4.9752  -13.9967 C   0  0  2  0  0  0  0  0  0  0  0  0
   20.8656   -5.6850  -15.2120 N   0  0  0  0  0  0  0  0  0  0  0  0
   21.8107   -3.6528  -14.2789 C   0  0  0  0  0  0  0  0  0  0  0  0
   22.0249   -2.7852  -13.2256 O   0  0  0  0  0  0  0  0  0  0  0  0
   22.1299   -3.2971  -15.4332 O   0  0  0  0  0  0  0  0  0  0  0  0
  2  1  1  6
  3  4  1  0
  3  2  1  0
  4  5  1  0
  5  9  1  0
  5  6  2  0
  7  2  1  0
  8  7  2  0
 10  7  1  0
 11 10  1  0
 11 12  1  0
 12 13  2  0
 16 15  1  6
 15 14  1  0
 17 12  1  0
 17 16  1  0
 18 16  1  0
 18 19  1  0
 20 18  2  0
M  END
$$$$
