EGS.pdb
     RDKit          3D

 20 19  0  0  1  0  0  0  0  0999 V2000
   18.7839   -9.5075  -16.8464 N   0  0  0  0  0  0  0  0  0  0  0  0
   19.3943  -10.2909  -15.7604 C   0  0  1  0  0  0  0  0  0  0  0  0
   19.3145  -11.7498  -16.0644 C   0  0  0  0  0  0  0  0  0  0  0  0
   17.9031  -12.2087  -16.1732 C   0  0  0  0  0  0  0  0  0  0  0  0
   17.8634  -13.6453  -16.5958 C   0  0  0  0  0  0  0  0  0  0  0  0
   18.0502  -14.5234  -15.7374 O   0  0  0  0  0  0  0  0  0  0  0  0
   20.7750   -9.8580  -15.5748 C   0  0  0  0  0  0  0  0  0  0  0  0
   21.5042  -10.3082  -14.6778 O   0  0  0  0  0  0  0  0  0  0  0  0
   17.6252  -13.9603  -17.9027 O   0  0  0  0  0  0  0  0  0  0  0  0
   21.3387   -8.8759  -16.4471 N   0  0  0  0  0  0  0  0  0  0  0  0
   22.6983   -8.4816  -16.2724 C   0  0  0  0  0  0  0  0  0  0  0  0
   22.8018   -7.0564  -15.7931 C   0  0  0  0  0  0  0  0  0  0  0  0
   23.9109   -6.5091  -15.6106 O   0  0  0  0  0  0  0  0  0  0  0  0
   20.2869   -2.9596  -15.0953 O   0  0  0  0  0  0  0  0  0  0  0  0
   20.4054   -4.2513  -15.5507 C   0  0  0  0  0  0  0  0  0  0  0  0
   21.7128   -4.9046  -15.1168 C   0  0  2  0  0  0  0  0  0  0  0  0
   21.6338   -6.2897  -15.5337 N   0  0  0  0  0  0  0  0  0  0  0  0
   21.8988   -4.7761  -13.6540 C   0  0  0  0  0  0  0  0  0  0  0  0
   22.7015   -3.7586  -13.1762 O   0  0  0  0  0  0  0  0  0  0  0  0
   21.3561   -5.5542  -12.8412 O   0  0  0  0  0  0  0  0  0  0  0  0
  2  1  1  6
  3  4  1  0
  3  2  1  0
  4  5  1  0
  5  9  1  0
  5  6  2  0
  7  2  1  0
  8  7  2  0
 10  7  1  0
 11 10  1  0
 11 12  1  0
 12 13  2  0
 16 15  1  1
 15 14  1  0
 17 12  1  0
 17 16  1  0
 18 16  1  0
 18 19  1  0
 20 18  2  0
M  END
$$$$
