EGS.pdb
     RDKit          3D

 20 19  0  0  1  0  0  0  0  0999 V2000
   19.0619   -9.5606  -14.5698 N   0  0  0  0  0  0  0  0  0  0  0  0
   20.2357   -8.9349  -15.1993 C   0  0  1  0  0  0  0  0  0  0  0  0
   19.9362   -8.5781  -16.6171 C   0  0  0  0  0  0  0  0  0  0  0  0
   19.6083   -9.7833  -17.4261 C   0  0  0  0  0  0  0  0  0  0  0  0
   19.4222   -9.4003  -18.8622 C   0  0  0  0  0  0  0  0  0  0  0  0
   20.3331   -9.6523  -19.6681 O   0  0  0  0  0  0  0  0  0  0  0  0
   20.6273   -7.7628  -14.4241 C   0  0  0  0  0  0  0  0  0  0  0  0
   19.8332   -7.1400  -13.7026 O   0  0  0  0  0  0  0  0  0  0  0  0
   18.2672   -8.7877  -19.2555 O   0  0  0  0  0  0  0  0  0  0  0  0
   21.9747   -7.2886  -14.4780 N   0  0  0  0  0  0  0  0  0  0  0  0
   22.3520   -6.1599  -13.6917 C   0  0  0  0  0  0  0  0  0  0  0  0
   22.2066   -4.8751  -14.4664 C   0  0  0  0  0  0  0  0  0  0  0  0
   22.8489   -4.6731  -15.5198 O   0  0  0  0  0  0  0  0  0  0  0  0
   21.1935   -3.5363  -17.1079 O   0  0  0  0  0  0  0  0  0  0  0  0
   20.3130   -3.2628  -16.0882 C   0  0  0  0  0  0  0  0  0  0  0  0
   21.0091   -2.7090  -14.8500 C   0  0  2  0  0  0  0  0  0  0  0  0
   21.3297   -3.8508  -14.0182 N   0  0  0  0  0  0  0  0  0  0  0  0
   20.1346   -1.7416  -14.1499 C   0  0  0  0  0  0  0  0  0  0  0  0
   20.2976   -0.3947  -14.4089 O   0  0  0  0  0  0  0  0  0  0  0  0
   19.2579   -2.1019  -13.3360 O   0  0  0  0  0  0  0  0  0  0  0  0
  2  1  1  1
  3  4  1  0
  3  2  1  0
  4  5  1  0
  5  9  1  0
  5  6  2  0
  7  2  1  0
  8  7  2  0
 10  7  1  0
 11 10  1  0
 11 12  1  0
 12 13  2  0
 16 15  1  6
 15 14  1  0
 17 12  1  0
 17 16  1  0
 18 16  1  0
 18 19  1  0
 20 18  2  0
M  END
$$$$
