EGS.pdb
     RDKit          3D

 20 19  0  0  1  0  0  0  0  0999 V2000
   20.1522  -10.5618  -14.8883 N   0  0  0  0  0  0  0  0  0  0  0  0
   20.6868  -10.2875  -16.2316 C   0  0  1  0  0  0  0  0  0  0  0  0
   19.5753  -10.1856  -17.2221 C   0  0  0  0  0  0  0  0  0  0  0  0
   18.3911   -9.4934  -16.6450 C   0  0  0  0  0  0  0  0  0  0  0  0
   17.2643   -9.4983  -17.6320 C   0  0  0  0  0  0  0  0  0  0  0  0
   17.1741   -8.5565  -18.4367 O   0  0  0  0  0  0  0  0  0  0  0  0
   21.4806   -9.0642  -16.1908 C   0  0  0  0  0  0  0  0  0  0  0  0
   22.1444   -8.6628  -17.1589 O   0  0  0  0  0  0  0  0  0  0  0  0
   16.3664  -10.5267  -17.6294 O   0  0  0  0  0  0  0  0  0  0  0  0
   21.5144   -8.2744  -14.9999 N   0  0  0  0  0  0  0  0  0  0  0  0
   22.3107   -7.0915  -14.9663 C   0  0  0  0  0  0  0  0  0  0  0  0
   21.4656   -5.8535  -15.1240 C   0  0  0  0  0  0  0  0  0  0  0  0
   20.3037   -5.9116  -15.5819 O   0  0  0  0  0  0  0  0  0  0  0  0
   21.7830   -2.7031  -12.6700 O   0  0  0  0  0  0  0  0  0  0  0  0
   20.7247   -2.9806  -13.5024 C   0  0  0  0  0  0  0  0  0  0  0  0
   21.1741   -3.3754  -14.9047 C   0  0  2  0  0  0  0  0  0  0  0  0
   21.9691   -4.5771  -14.7543 N   0  0  0  0  0  0  0  0  0  0  0  0
   21.9427   -2.2780  -15.5336 C   0  0  0  0  0  0  0  0  0  0  0  0
   21.2868   -1.1012  -15.8385 O   0  0  0  0  0  0  0  0  0  0  0  0
   23.1597   -2.3806  -15.7966 O   0  0  0  0  0  0  0  0  0  0  0  0
  2  1  1  1
  3  4  1  0
  3  2  1  0
  4  5  1  0
  5  9  1  0
  5  6  2  0
  7  2  1  0
  8  7  2  0
 10  7  1  0
 11 10  1  0
 11 12  1  0
 12 13  2  0
 16 15  1  1
 15 14  1  0
 17 12  1  0
 17 16  1  0
 18 16  1  0
 18 19  1  0
 20 18  2  0
M  END
$$$$
