EGS.pdb
     RDKit          3D

 20 19  0  0  1  0  0  0  0  0999 V2000
   20.7167  -12.7315  -16.1895 N   0  0  0  0  0  0  0  0  0  0  0  0
   19.6825  -12.1496  -17.0599 C   0  0  1  0  0  0  0  0  0  0  0  0
   18.4416  -12.9775  -17.0168 C   0  0  0  0  0  0  0  0  0  0  0  0
   17.9868  -13.2077  -15.6188 C   0  0  0  0  0  0  0  0  0  0  0  0
   16.7111  -13.9929  -15.6185 C   0  0  0  0  0  0  0  0  0  0  0  0
   16.7723  -15.2275  -15.7400 O   0  0  0  0  0  0  0  0  0  0  0  0
   19.4235  -10.7756  -16.6436 C   0  0  0  0  0  0  0  0  0  0  0  0
   18.7130   -9.9987  -17.2998 O   0  0  0  0  0  0  0  0  0  0  0  0
   15.5169  -13.3445  -15.4864 O   0  0  0  0  0  0  0  0  0  0  0  0
   19.9983  -10.2756  -15.4343 N   0  0  0  0  0  0  0  0  0  0  0  0
   19.6763   -8.9559  -14.9989 C   0  0  0  0  0  0  0  0  0  0  0  0
   20.8983   -8.0746  -14.9605 C   0  0  0  0  0  0  0  0  0  0  0  0
   21.9410   -8.3789  -15.5796 O   0  0  0  0  0  0  0  0  0  0  0  0
   22.9693   -4.5234  -16.0437 O   0  0  0  0  0  0  0  0  0  0  0  0
   22.0225   -5.4897  -15.7996 C   0  0  0  0  0  0  0  0  0  0  0  0
   21.9756   -5.9023  -14.3327 C   0  0  2  0  0  0  0  0  0  0  0  0
   20.8997   -6.8651  -14.2146 N   0  0  0  0  0  0  0  0  0  0  0  0
   21.7601   -4.7218  -13.4662 C   0  0  0  0  0  0  0  0  0  0  0  0
   22.8601   -4.1055  -12.9022 O   0  0  0  0  0  0  0  0  0  0  0  0
   20.6211   -4.2665  -13.2294 O   0  0  0  0  0  0  0  0  0  0  0  0
  2  1  1  1
  3  4  1  0
  3  2  1  0
  4  5  1  0
  5  9  1  0
  5  6  2  0
  7  2  1  0
  8  7  2  0
 10  7  1  0
 11 10  1  0
 11 12  1  0
 12 13  2  0
 16 15  1  6
 15 14  1  0
 17 12  1  0
 17 16  1  0
 18 16  1  0
 18 19  1  0
 20 18  2  0
M  END
$$$$
