EGS.pdb
     RDKit          3D

 20 19  0  0  1  0  0  0  0  0999 V2000
   18.3347  -11.2812  -17.1833 N   0  0  0  0  0  0  0  0  0  0  0  0
   19.0292  -11.5892  -15.9230 C   0  0  1  0  0  0  0  0  0  0  0  0
   19.4513  -13.0204  -15.8992 C   0  0  0  0  0  0  0  0  0  0  0  0
   18.2891  -13.9296  -15.7069 C   0  0  0  0  0  0  0  0  0  0  0  0
   17.6404  -14.2167  -17.0262 C   0  0  0  0  0  0  0  0  0  0  0  0
   18.3619  -14.3415  -18.0295 O   0  0  0  0  0  0  0  0  0  0  0  0
   20.1700  -10.6925  -15.7731 C   0  0  0  0  0  0  0  0  0  0  0  0
   20.9322  -10.7347  -14.7951 O   0  0  0  0  0  0  0  0  0  0  0  0
   16.2823  -14.3347  -17.1016 O   0  0  0  0  0  0  0  0  0  0  0  0
   20.4465   -9.7145  -16.7781 N   0  0  0  0  0  0  0  0  0  0  0  0
   21.4715   -8.7486  -16.5525 C   0  0  0  0  0  0  0  0  0  0  0  0
   20.9683   -7.5939  -15.7247 C   0  0  0  0  0  0  0  0  0  0  0  0
   19.7500   -7.4448  -15.4869 O   0  0  0  0  0  0  0  0  0  0  0  0
   22.3478   -3.6899  -13.1377 O   0  0  0  0  0  0  0  0  0  0  0  0
   22.6448   -4.8324  -13.8422 C   0  0  0  0  0  0  0  0  0  0  0  0
   21.4023   -5.4996  -14.4212 C   0  0  2  0  0  0  0  0  0  0  0  0
   21.8703   -6.6361  -15.1880 N   0  0  0  0  0  0  0  0  0  0  0  0
   20.6393   -4.5446  -15.2558 C   0  0  0  0  0  0  0  0  0  0  0  0
   19.5964   -3.8475  -14.6778 O   0  0  0  0  0  0  0  0  0  0  0  0
   20.9066   -4.3492  -16.4605 O   0  0  0  0  0  0  0  0  0  0  0  0
  2  1  1  6
  3  4  1  0
  3  2  1  0
  4  5  1  0
  5  9  1  0
  5  6  2  0
  7  2  1  0
  8  7  2  0
 10  7  1  0
 11 10  1  0
 11 12  1  0
 12 13  2  0
 16 15  1  6
 15 14  1  0
 17 12  1  0
 17 16  1  0
 18 16  1  0
 18 19  1  0
 20 18  2  0
M  END
$$$$
