QES.pdb
     RDKit          3D

 25 24  0  0  1  0  0  0  0  0999 V2000
    7.5311  -12.6256   17.9082 N   0  0  0  0  0  0  0  0  0  0  0  0
    8.0593  -13.9386   17.8660 C   0  0  0  0  0  0  0  0  0  0  0  0
    7.6475  -14.7200   16.9767 O   0  0  0  0  0  0  0  0  0  0  0  0
    9.0643  -14.4047   18.8238 C   0  0  0  0  0  0  0  0  0  0  0  0
    9.3484  -13.3157   19.8593 C   0  0  0  0  0  0  0  0  0  0  0  0
   10.3841  -13.8546   20.7859 C   0  0  2  0  0  0  0  0  0  0  0  0
   11.3945  -14.5240   20.0067 N   0  0  0  0  0  0  0  0  0  0  0  0
    9.8517  -14.6870   21.8826 C   0  0  0  0  0  0  0  0  0  0  0  0
    8.8702  -14.2585   22.5448 O   0  0  0  0  0  0  0  0  0  0  0  0
   10.3662  -15.9458   22.2521 N   0  0  0  0  0  0  0  0  0  0  0  0
    9.9327  -16.6896   23.4468 C   0  0  1  0  0  0  0  0  0  0  0  0
   10.2154  -18.1251   23.1804 C   0  0  0  0  0  0  0  0  0  0  0  0
    9.8730  -19.0718   24.2955 C   0  0  0  0  0  0  0  0  0  0  0  0
   10.1432  -20.4885   24.0067 C   0  0  0  0  0  0  0  0  0  0  0  0
    9.4402  -21.1374   23.2194 O   0  0  0  0  0  0  0  0  0  0  0  0
   10.5103  -16.1293   24.6663 C   0  0  0  0  0  0  0  0  0  0  0  0
   11.6970  -15.7304   24.7004 O   0  0  0  0  0  0  0  0  0  0  0  0
   11.2175  -21.1307   24.6299 O   0  0  0  0  0  0  0  0  0  0  0  0
   10.0211  -13.5576   28.5855 O   0  0  0  0  0  0  0  0  0  0  0  0
    9.4469  -14.1278   27.4594 C   0  0  0  0  0  0  0  0  0  0  0  0
   10.2684  -15.3173   27.0525 C   0  0  2  0  0  0  0  0  0  0  0  0
    9.7698  -15.9977   25.8950 N   0  0  0  0  0  0  0  0  0  0  0  0
   10.4393  -16.2340   28.2164 C   0  0  0  0  0  0  0  0  0  0  0  0
    9.9127  -17.3686   28.1550 O   0  0  0  0  0  0  0  0  0  0  0  0
   11.1503  -15.8624   29.3324 O   0  0  0  0  0  0  0  0  0  0  0  0
  2  4  1  0
  2  1  1  0
  3  2  2  0
  5  4  1  0
  6  5  1  0
  6  8  1  0
  6  7  1  6
  8 10  1  0
  9  8  2  0
 10 11  1  0
 11 16  1  0
 11 12  1  6
 12 13  1  0
 13 14  1  0
 14 18  1  0
 14 15  2  0
 16 17  2  0
 19 20  1  0
 21 20  1  1
 21 22  1  0
 21 23  1  0
 22 16  1  0
 23 24  2  0
 23 25  1  0
M  END
$$$$
