QES.pdb
     RDKit          3D

 25 24  0  0  1  0  0  0  0  0999 V2000
    7.0371  -12.0819   18.5560 N   0  0  0  0  0  0  0  0  0  0  0  0
    7.8610  -13.2236   18.7045 C   0  0  0  0  0  0  0  0  0  0  0  0
    7.4724  -14.3091   18.2128 O   0  0  0  0  0  0  0  0  0  0  0  0
    9.1432  -13.1721   19.4102 C   0  0  0  0  0  0  0  0  0  0  0  0
   10.2070  -13.9400   18.6242 C   0  0  0  0  0  0  0  0  0  0  0  0
   11.4099  -14.0376   19.4991 C   0  0  2  0  0  0  0  0  0  0  0  0
   12.5863  -14.0136   18.6676 N   0  0  0  0  0  0  0  0  0  0  0  0
   11.3903  -15.1720   20.4434 C   0  0  0  0  0  0  0  0  0  0  0  0
   10.4211  -15.2788   21.2400 O   0  0  0  0  0  0  0  0  0  0  0  0
   12.3902  -16.1618   20.5236 N   0  0  0  0  0  0  0  0  0  0  0  0
   12.2673  -17.3871   21.3310 C   0  0  1  0  0  0  0  0  0  0  0  0
   13.3092  -18.3273   20.8391 C   0  0  0  0  0  0  0  0  0  0  0  0
   13.3694  -19.6543   21.5408 C   0  0  0  0  0  0  0  0  0  0  0  0
   14.4570  -20.5389   21.0954 C   0  0  0  0  0  0  0  0  0  0  0  0
   15.6018  -20.1107   20.8925 O   0  0  0  0  0  0  0  0  0  0  0  0
   12.2833  -17.0907   22.7616 C   0  0  0  0  0  0  0  0  0  0  0  0
   13.1196  -16.2982   23.2525 O   0  0  0  0  0  0  0  0  0  0  0  0
   14.2054  -21.8990   20.8922 O   0  0  0  0  0  0  0  0  0  0  0  0
    8.9803  -17.4008   25.1612 O   0  0  0  0  0  0  0  0  0  0  0  0
   10.0819  -16.6405   25.5241 C   0  0  0  0  0  0  0  0  0  0  0  0
   11.3258  -17.3613   25.0901 C   0  0  2  0  0  0  0  0  0  0  0  0
   11.3549  -17.6780   23.6936 N   0  0  0  0  0  0  0  0  0  0  0  0
   11.5363  -18.5641   25.9464 C   0  0  0  0  0  0  0  0  0  0  0  0
   11.5882  -19.6836   25.3873 O   0  0  0  0  0  0  0  0  0  0  0  0
   11.6714  -18.4669   27.3107 O   0  0  0  0  0  0  0  0  0  0  0  0
  2  4  1  0
  2  1  1  0
  3  2  2  0
  5  4  1  0
  6  5  1  0
  6  8  1  0
  6  7  1  6
  8 10  1  0
  9  8  2  0
 10 11  1  0
 11 16  1  0
 11 12  1  1
 12 13  1  0
 13 14  1  0
 14 18  1  0
 14 15  2  0
 16 17  2  0
 19 20  1  0
 21 20  1  1
 21 22  1  0
 21 23  1  0
 22 16  1  0
 23 24  2  0
 23 25  1  0
M  END
$$$$
