QES.pdb
     RDKit          3D

 25 24  0  0  1  0  0  0  0  0999 V2000
    8.9843  -12.7174   17.9193 N   0  0  0  0  0  0  0  0  0  0  0  0
    7.9098  -13.2523   17.1683 C   0  0  0  0  0  0  0  0  0  0  0  0
    7.7341  -12.8384   15.9983 O   0  0  0  0  0  0  0  0  0  0  0  0
    7.0061  -14.2665   17.7155 C   0  0  0  0  0  0  0  0  0  0  0  0
    7.3831  -14.5796   19.1643 C   0  0  0  0  0  0  0  0  0  0  0  0
    8.7434  -15.1885   19.1391 C   0  0  2  0  0  0  0  0  0  0  0  0
    8.8764  -15.9668   17.9339 N   0  0  0  0  0  0  0  0  0  0  0  0
    9.1005  -15.9411   20.3577 C   0  0  0  0  0  0  0  0  0  0  0  0
    8.2936  -15.9442   21.3244 O   0  0  0  0  0  0  0  0  0  0  0  0
   10.2955  -16.6688   20.5256 N   0  0  0  0  0  0  0  0  0  0  0  0
   10.6092  -17.4638   21.7248 C   0  0  1  0  0  0  0  0  0  0  0  0
   11.7456  -18.3516   21.3617 C   0  0  0  0  0  0  0  0  0  0  0  0
   12.2628  -19.2285   22.4665 C   0  0  0  0  0  0  0  0  0  0  0  0
   13.3483  -20.1401   22.0736 C   0  0  0  0  0  0  0  0  0  0  0  0
   13.1232  -21.1940   21.4622 O   0  0  0  0  0  0  0  0  0  0  0  0
   10.7983  -16.6134   22.8978 C   0  0  0  0  0  0  0  0  0  0  0  0
   11.6102  -15.6599   22.8859 O   0  0  0  0  0  0  0  0  0  0  0  0
   14.6716  -19.8207   22.3921 O   0  0  0  0  0  0  0  0  0  0  0  0
    7.8946  -15.7812   25.5235 O   0  0  0  0  0  0  0  0  0  0  0  0
    9.0609  -15.0313   25.4942 C   0  0  0  0  0  0  0  0  0  0  0  0
   10.2216  -15.9586   25.2748 C   0  0  2  0  0  0  0  0  0  0  0  0
   10.0775  -16.8071   24.1300 N   0  0  0  0  0  0  0  0  0  0  0  0
   10.4912  -16.7325   26.5209 C   0  0  0  0  0  0  0  0  0  0  0  0
   10.5116  -17.9824   26.4454 O   0  0  0  0  0  0  0  0  0  0  0  0
   10.7132  -16.1100   27.7260 O   0  0  0  0  0  0  0  0  0  0  0  0
  2  4  1  0
  2  1  1  0
  3  2  2  0
  5  4  1  0
  6  5  1  0
  6  8  1  0
  6  7  1  6
  8 10  1  0
  9  8  2  0
 10 11  1  0
 11 16  1  0
 11 12  1  6
 12 13  1  0
 13 14  1  0
 14 18  1  0
 14 15  2  0
 16 17  2  0
 19 20  1  0
 21 20  1  1
 21 22  1  0
 21 23  1  0
 22 16  1  0
 23 24  2  0
 23 25  1  0
M  END
$$$$
