QES.pdb
     RDKit          3D

 25 24  0  0  1  0  0  0  0  0999 V2000
    7.2852  -11.6879   19.7188 N   0  0  0  0  0  0  0  0  0  0  0  0
    7.5161  -12.9873   20.2315 C   0  0  0  0  0  0  0  0  0  0  0  0
    7.0652  -13.2709   21.3661 O   0  0  0  0  0  0  0  0  0  0  0  0
    8.2605  -14.0000   19.4798 C   0  0  0  0  0  0  0  0  0  0  0  0
    8.7223  -13.4259   18.1396 C   0  0  0  0  0  0  0  0  0  0  0  0
    9.4399  -14.5175   17.4217 C   0  0  2  0  0  0  0  0  0  0  0  0
    8.4820  -15.5237   17.0397 N   0  0  0  0  0  0  0  0  0  0  0  0
   10.6011  -15.0683   18.1478 C   0  0  0  0  0  0  0  0  0  0  0  0
   10.4911  -16.1961   18.6968 O   0  0  0  0  0  0  0  0  0  0  0  0
   11.8447  -14.4180   18.2762 N   0  0  0  0  0  0  0  0  0  0  0  0
   13.0162  -15.0138   18.9402 C   0  0  1  0  0  0  0  0  0  0  0  0
   14.2179  -14.4055   18.3100 C   0  0  0  0  0  0  0  0  0  0  0  0
   15.5404  -14.8964   18.8265 C   0  0  0  0  0  0  0  0  0  0  0  0
   16.7169  -14.2978   18.1773 C   0  0  0  0  0  0  0  0  0  0  0  0
   16.7685  -14.1316   16.9506 O   0  0  0  0  0  0  0  0  0  0  0  0
   12.9207  -14.9066   20.3943 C   0  0  0  0  0  0  0  0  0  0  0  0
   12.6700  -13.8131   20.9509 O   0  0  0  0  0  0  0  0  0  0  0  0
   17.8108  -13.9024   18.9529 O   0  0  0  0  0  0  0  0  0  0  0  0
   11.4266  -17.6685   22.7645 O   0  0  0  0  0  0  0  0  0  0  0  0
   11.6983  -16.4017   23.2591 C   0  0  0  0  0  0  0  0  0  0  0  0
   13.0154  -15.9422   22.7030 C   0  0  2  0  0  0  0  0  0  0  0  0
   13.1049  -16.0307   21.2763 N   0  0  0  0  0  0  0  0  0  0  0  0
   14.1293  -16.6628   23.3844 C   0  0  0  0  0  0  0  0  0  0  0  0
   14.8859  -17.3744   22.6846 O   0  0  0  0  0  0  0  0  0  0  0  0
   14.3354  -16.5614   24.7395 O   0  0  0  0  0  0  0  0  0  0  0  0
  2  4  1  0
  2  1  1  0
  3  2  2  0
  5  4  1  0
  6  5  1  0
  6  8  1  0
  6  7  1  1
  8 10  1  0
  9  8  2  0
 10 11  1  0
 11 16  1  0
 11 12  1  6
 12 13  1  0
 13 14  1  0
 14 18  1  0
 14 15  2  0
 16 17  2  0
 19 20  1  0
 21 20  1  1
 21 22  1  0
 21 23  1  0
 22 16  1  0
 23 24  2  0
 23 25  1  0
M  END
$$$$
