QES.pdb
     RDKit          3D

 25 24  0  0  1  0  0  0  0  0999 V2000
    7.5365  -11.5889   19.4865 N   0  0  0  0  0  0  0  0  0  0  0  0
    7.7064  -12.8724   20.0593 C   0  0  0  0  0  0  0  0  0  0  0  0
    7.1569  -13.1132   21.1598 O   0  0  0  0  0  0  0  0  0  0  0  0
    8.4993  -13.9172   19.4077 C   0  0  0  0  0  0  0  0  0  0  0  0
    9.0411  -13.4089   18.0708 C   0  0  0  0  0  0  0  0  0  0  0  0
    9.7872  -14.5375   17.4453 C   0  0  2  0  0  0  0  0  0  0  0  0
    8.8352  -15.4752   16.9064 N   0  0  0  0  0  0  0  0  0  0  0  0
   10.7907  -15.1703   18.3237 C   0  0  0  0  0  0  0  0  0  0  0  0
   10.5181  -16.2809   18.8508 O   0  0  0  0  0  0  0  0  0  0  0  0
   12.0519  -14.6177   18.6232 N   0  0  0  0  0  0  0  0  0  0  0  0
   13.0724  -15.2986   19.4377 C   0  0  1  0  0  0  0  0  0  0  0  0
   14.3935  -14.8120   18.9591 C   0  0  0  0  0  0  0  0  0  0  0  0
   14.8616  -15.3854   17.6518 C   0  0  0  0  0  0  0  0  0  0  0  0
   16.1975  -14.9405   17.2261 C   0  0  0  0  0  0  0  0  0  0  0  0
   17.1954  -15.6636   17.3547 O   0  0  0  0  0  0  0  0  0  0  0  0
   12.8045  -15.1509   20.8665 C   0  0  0  0  0  0  0  0  0  0  0  0
   12.3555  -14.0807   21.3369 O   0  0  0  0  0  0  0  0  0  0  0  0
   16.3586  -13.6720   16.6608 O   0  0  0  0  0  0  0  0  0  0  0  0
   10.3566  -17.1969   22.5639 O   0  0  0  0  0  0  0  0  0  0  0  0
   10.9404  -16.0599   23.1020 C   0  0  0  0  0  0  0  0  0  0  0  0
   12.4303  -16.2477   23.1179 C   0  0  2  0  0  0  0  0  0  0  0  0
   13.0336  -16.2067   21.8195 N   0  0  0  0  0  0  0  0  0  0  0  0
   12.7734  -17.4946   23.8608 C   0  0  0  0  0  0  0  0  0  0  0  0
   13.3010  -18.4343   23.2228 O   0  0  0  0  0  0  0  0  0  0  0  0
   12.5254  -17.6271   25.2062 O   0  0  0  0  0  0  0  0  0  0  0  0
  2  4  1  0
  2  1  1  0
  3  2  2  0
  5  4  1  0
  6  5  1  0
  6  8  1  0
  6  7  1  1
  8 10  1  0
  9  8  2  0
 10 11  1  0
 11 16  1  0
 11 12  1  1
 12 13  1  0
 13 14  1  0
 14 18  1  0
 14 15  2  0
 16 17  2  0
 19 20  1  0
 21 20  1  6
 21 22  1  0
 21 23  1  0
 22 16  1  0
 23 24  2  0
 23 25  1  0
M  END
$$$$
