QES.pdb
     RDKit          3D

 25 24  0  0  1  0  0  0  0  0999 V2000
    9.5542  -13.3164   18.5383 N   0  0  0  0  0  0  0  0  0  0  0  0
    8.1692  -13.1575   18.2914 C   0  0  0  0  0  0  0  0  0  0  0  0
    7.8111  -12.6356   17.2095 O   0  0  0  0  0  0  0  0  0  0  0  0
    7.1525  -13.5821   19.2562 C   0  0  0  0  0  0  0  0  0  0  0  0
    7.8195  -14.0558   20.5484 C   0  0  0  0  0  0  0  0  0  0  0  0
    8.4198  -15.3904   20.2653 C   0  0  2  0  0  0  0  0  0  0  0  0
    7.4007  -16.2445   19.7104 N   0  0  0  0  0  0  0  0  0  0  0  0
    9.1269  -15.9993   21.4091 C   0  0  0  0  0  0  0  0  0  0  0  0
    8.4871  -16.7649   22.1772 O   0  0  0  0  0  0  0  0  0  0  0  0
   10.4864  -15.7860   21.7131 N   0  0  0  0  0  0  0  0  0  0  0  0
   11.1983  -16.4684   22.8067 C   0  0  1  0  0  0  0  0  0  0  0  0
   12.6431  -16.1641   22.6292 C   0  0  0  0  0  0  0  0  0  0  0  0
   13.5696  -16.8164   23.6156 C   0  0  0  0  0  0  0  0  0  0  0  0
   15.0012  -16.6240   23.3376 C   0  0  0  0  0  0  0  0  0  0  0  0
   15.6214  -17.3740   22.5707 O   0  0  0  0  0  0  0  0  0  0  0  0
   10.6209  -16.1417   24.1086 C   0  0  0  0  0  0  0  0  0  0  0  0
   10.4014  -14.9551   24.4436 O   0  0  0  0  0  0  0  0  0  0  0  0
   15.6908  -15.5720   23.9478 O   0  0  0  0  0  0  0  0  0  0  0  0
    7.6423  -17.8024   25.8520 O   0  0  0  0  0  0  0  0  0  0  0  0
    8.2282  -16.6549   26.3652 C   0  0  0  0  0  0  0  0  0  0  0  0
    9.7187  -16.8386   26.3695 C   0  0  2  0  0  0  0  0  0  0  0  0
   10.2691  -17.1430   25.0828 N   0  0  0  0  0  0  0  0  0  0  0  0
   10.0994  -17.8478   27.3996 C   0  0  0  0  0  0  0  0  0  0  0  0
   10.8221  -18.8073   27.0454 O   0  0  0  0  0  0  0  0  0  0  0  0
    9.6791  -17.7447   28.7042 O   0  0  0  0  0  0  0  0  0  0  0  0
  2  4  1  0
  2  1  1  0
  3  2  2  0
  5  4  1  0
  6  5  1  0
  6  8  1  0
  6  7  1  1
  8 10  1  0
  9  8  2  0
 10 11  1  0
 11 16  1  0
 11 12  1  1
 12 13  1  0
 13 14  1  0
 14 18  1  0
 14 15  2  0
 16 17  2  0
 19 20  1  0
 21 20  1  6
 21 22  1  0
 21 23  1  0
 22 16  1  0
 23 24  2  0
 23 25  1  0
M  END
$$$$
