QES.pdb
     RDKit          3D

 25 24  0  0  1  0  0  0  0  0999 V2000
    8.2773  -11.2806   19.8305 N   0  0  0  0  0  0  0  0  0  0  0  0
    8.2442  -12.6788   19.6099 C   0  0  0  0  0  0  0  0  0  0  0  0
    8.5961  -13.4393   20.5420 O   0  0  0  0  0  0  0  0  0  0  0  0
    7.8141  -13.2559   18.3345 C   0  0  0  0  0  0  0  0  0  0  0  0
    7.7981  -14.7824   18.4270 C   0  0  0  0  0  0  0  0  0  0  0  0
    8.9843  -15.2775   17.6724 C   0  0  2  0  0  0  0  0  0  0  0  0
    8.5244  -16.0832   16.5701 N   0  0  0  0  0  0  0  0  0  0  0  0
    9.9992  -15.9556   18.5025 C   0  0  0  0  0  0  0  0  0  0  0  0
    9.9238  -17.2039   18.6498 O   0  0  0  0  0  0  0  0  0  0  0  0
   11.0644  -15.3025   19.1543 N   0  0  0  0  0  0  0  0  0  0  0  0
   12.0745  -15.9964   19.9706 C   0  0  1  0  0  0  0  0  0  0  0  0
   13.3939  -15.7150   19.3451 C   0  0  0  0  0  0  0  0  0  0  0  0
   13.6575  -14.2755   19.0057 C   0  0  0  0  0  0  0  0  0  0  0  0
   15.0017  -14.0031   18.4741 C   0  0  0  0  0  0  0  0  0  0  0  0
   15.9783  -13.8517   19.2214 O   0  0  0  0  0  0  0  0  0  0  0  0
   11.9423  -15.6613   21.3866 C   0  0  0  0  0  0  0  0  0  0  0  0
   12.4351  -14.6095   21.8550 O   0  0  0  0  0  0  0  0  0  0  0  0
   15.1954  -13.9102   17.0926 O   0  0  0  0  0  0  0  0  0  0  0  0
    8.7435  -16.3916   23.5898 O   0  0  0  0  0  0  0  0  0  0  0  0
    9.7490  -15.5417   24.0256 C   0  0  0  0  0  0  0  0  0  0  0  0
   11.0767  -16.1691   23.7114 C   0  0  2  0  0  0  0  0  0  0  0  0
   11.2482  -16.5015   22.3288 N   0  0  0  0  0  0  0  0  0  0  0  0
   11.3053  -17.3402   24.6062 C   0  0  0  0  0  0  0  0  0  0  0  0
   11.4513  -18.4660   24.0775 O   0  0  0  0  0  0  0  0  0  0  0  0
   11.3574  -17.2075   25.9733 O   0  0  0  0  0  0  0  0  0  0  0  0
  2  4  1  0
  2  1  1  0
  3  2  2  0
  5  4  1  0
  6  5  1  0
  6  8  1  0
  6  7  1  6
  8 10  1  0
  9  8  2  0
 10 11  1  0
 11 16  1  0
 11 12  1  6
 12 13  1  0
 13 14  1  0
 14 18  1  0
 14 15  2  0
 16 17  2  0
 19 20  1  0
 21 20  1  6
 21 22  1  0
 21 23  1  0
 22 16  1  0
 23 24  2  0
 23 25  1  0
M  END
$$$$
