QES.pdb
     RDKit          3D

 25 24  0  0  1  0  0  0  0  0999 V2000
    9.0184  -12.6008   18.0099 N   0  0  0  0  0  0  0  0  0  0  0  0
    8.1338  -13.3013   17.1547 C   0  0  0  0  0  0  0  0  0  0  0  0
    7.4283  -12.6422   16.3554 O   0  0  0  0  0  0  0  0  0  0  0  0
    8.0213  -14.7613   17.1779 C   0  0  0  0  0  0  0  0  0  0  0  0
    8.9048  -15.3390   18.2845 C   0  0  0  0  0  0  0  0  0  0  0  0
   10.0466  -16.0261   17.6168 C   0  0  2  0  0  0  0  0  0  0  0  0
    9.5306  -17.1202   16.8340 N   0  0  0  0  0  0  0  0  0  0  0  0
   11.1370  -16.4281   18.5270 C   0  0  0  0  0  0  0  0  0  0  0  0
   11.0345  -17.5185   19.1484 O   0  0  0  0  0  0  0  0  0  0  0  0
   12.3038  -15.6726   18.7583 N   0  0  0  0  0  0  0  0  0  0  0  0
   13.3400  -16.0439   19.7366 C   0  0  1  0  0  0  0  0  0  0  0  0
   14.6264  -15.5072   19.2186 C   0  0  0  0  0  0  0  0  0  0  0  0
   14.6510  -14.0298   18.9473 C   0  0  0  0  0  0  0  0  0  0  0  0
   15.9409  -13.5125   18.4653 C   0  0  0  0  0  0  0  0  0  0  0  0
   16.6280  -12.7401   19.1484 O   0  0  0  0  0  0  0  0  0  0  0  0
   12.9672  -15.6427   21.0911 C   0  0  0  0  0  0  0  0  0  0  0  0
   12.9063  -14.4353   21.4185 O   0  0  0  0  0  0  0  0  0  0  0  0
   16.4146  -13.8944   17.2066 O   0  0  0  0  0  0  0  0  0  0  0  0
   10.2736  -17.4602   23.2838 O   0  0  0  0  0  0  0  0  0  0  0  0
   10.7684  -16.2240   23.6713 C   0  0  0  0  0  0  0  0  0  0  0  0
   12.2542  -16.2125   23.4531 C   0  0  2  0  0  0  0  0  0  0  0  0
   12.6486  -16.5898   22.1289 N   0  0  0  0  0  0  0  0  0  0  0  0
   12.9238  -17.0387   24.4987 C   0  0  0  0  0  0  0  0  0  0  0  0
   13.6870  -17.9582   24.1237 O   0  0  0  0  0  0  0  0  0  0  0  0
   12.7215  -16.8130   25.8393 O   0  0  0  0  0  0  0  0  0  0  0  0
  2  4  1  0
  2  1  1  0
  3  2  2  0
  5  4  1  0
  6  5  1  0
  6  8  1  0
  6  7  1  1
  8 10  1  0
  9  8  2  0
 10 11  1  0
 11 16  1  0
 11 12  1  6
 12 13  1  0
 13 14  1  0
 14 18  1  0
 14 15  2  0
 16 17  2  0
 19 20  1  0
 21 20  1  6
 21 22  1  0
 21 23  1  0
 22 16  1  0
 23 24  2  0
 23 25  1  0
M  END
$$$$
