QES.pdb
     RDKit          3D

 25 24  0  0  1  0  0  0  0  0999 V2000
    7.8545  -12.0080   18.1271 N   0  0  0  0  0  0  0  0  0  0  0  0
    7.5413  -12.5604   19.3926 C   0  0  0  0  0  0  0  0  0  0  0  0
    7.5522  -11.8058   20.3933 O   0  0  0  0  0  0  0  0  0  0  0  0
    7.2080  -13.9762   19.5632 C   0  0  0  0  0  0  0  0  0  0  0  0
    8.3882  -14.7226   20.1871 C   0  0  0  0  0  0  0  0  0  0  0  0
    9.2163  -15.2457   19.0635 C   0  0  2  0  0  0  0  0  0  0  0  0
    8.4460  -16.2272   18.3429 N   0  0  0  0  0  0  0  0  0  0  0  0
   10.5510  -15.7345   19.4620 C   0  0  0  0  0  0  0  0  0  0  0  0
   10.6664  -16.9258   19.8532 O   0  0  0  0  0  0  0  0  0  0  0  0
   11.7262  -14.9573   19.4380 N   0  0  0  0  0  0  0  0  0  0  0  0
   13.0318  -15.4307   19.9276 C   0  0  1  0  0  0  0  0  0  0  0  0
   14.0680  -14.6643   19.1858 C   0  0  0  0  0  0  0  0  0  0  0  0
   15.4921  -15.0039   19.5230 C   0  0  0  0  0  0  0  0  0  0  0  0
   16.5012  -14.3112   18.7074 C   0  0  0  0  0  0  0  0  0  0  0  0
   17.4523  -13.7078   19.2237 O   0  0  0  0  0  0  0  0  0  0  0  0
   13.1076  -15.3819   21.3859 C   0  0  0  0  0  0  0  0  0  0  0  0
   13.2573  -14.2971   21.9936 O   0  0  0  0  0  0  0  0  0  0  0  0
   16.3958  -14.3264   17.3133 O   0  0  0  0  0  0  0  0  0  0  0  0
   11.2875  -18.1250   23.7257 O   0  0  0  0  0  0  0  0  0  0  0  0
   11.6722  -16.8980   24.2450 C   0  0  0  0  0  0  0  0  0  0  0  0
   12.9958  -16.5178   23.6462 C   0  0  2  0  0  0  0  0  0  0  0  0
   13.0172  -16.5568   22.2147 N   0  0  0  0  0  0  0  0  0  0  0  0
   14.0790  -17.3465   24.2499 C   0  0  0  0  0  0  0  0  0  0  0  0
   14.7682  -18.0617   23.4870 O   0  0  0  0  0  0  0  0  0  0  0  0
   14.3285  -17.3388   25.6015 O   0  0  0  0  0  0  0  0  0  0  0  0
  2  4  1  0
  2  1  1  0
  3  2  2  0
  5  4  1  0
  6  5  1  0
  6  8  1  0
  6  7  1  1
  8 10  1  0
  9  8  2  0
 10 11  1  0
 11 16  1  0
 11 12  1  6
 12 13  1  0
 13 14  1  0
 14 18  1  0
 14 15  2  0
 16 17  2  0
 19 20  1  0
 21 20  1  1
 21 22  1  0
 21 23  1  0
 22 16  1  0
 23 24  2  0
 23 25  1  0
M  END
$$$$
