QES.pdb
     RDKit          3D

 25 24  0  0  1  0  0  0  0  0999 V2000
    8.2428  -16.1112   13.6259 N   0  0  0  0  0  0  0  0  0  0  0  0
    7.5489  -14.9253   13.9676 C   0  0  0  0  0  0  0  0  0  0  0  0
    6.7159  -14.4643   13.1523 O   0  0  0  0  0  0  0  0  0  0  0  0
    7.7751  -14.2287   15.2358 C   0  0  0  0  0  0  0  0  0  0  0  0
    8.9003  -14.9100   16.0162 C   0  0  0  0  0  0  0  0  0  0  0  0
    8.8425  -14.3868   17.4107 C   0  0  2  0  0  0  0  0  0  0  0  0
    8.9456  -12.9504   17.3675 N   0  0  0  0  0  0  0  0  0  0  0  0
    9.8063  -15.0096   18.3393 C   0  0  0  0  0  0  0  0  0  0  0  0
    9.6367  -16.2129   18.6692 O   0  0  0  0  0  0  0  0  0  0  0  0
   10.9209  -14.3499   18.8946 N   0  0  0  0  0  0  0  0  0  0  0  0
   11.8356  -14.9663   19.8702 C   0  0  1  0  0  0  0  0  0  0  0  0
   13.1905  -14.4234   19.5854 C   0  0  0  0  0  0  0  0  0  0  0  0
   13.9298  -15.0833   18.4563 C   0  0  0  0  0  0  0  0  0  0  0  0
   15.2781  -14.5506   18.2072 C   0  0  0  0  0  0  0  0  0  0  0  0
   16.2434  -14.8660   18.9171 O   0  0  0  0  0  0  0  0  0  0  0  0
   11.3469  -14.8080   21.2380 C   0  0  0  0  0  0  0  0  0  0  0  0
   10.8677  -13.7215   21.6361 O   0  0  0  0  0  0  0  0  0  0  0  0
   15.4888  -13.6654   17.1458 O   0  0  0  0  0  0  0  0  0  0  0  0
    8.5962  -16.8759   22.7830 O   0  0  0  0  0  0  0  0  0  0  0  0
    9.1411  -15.6730   23.2066 C   0  0  0  0  0  0  0  0  0  0  0  0
   10.6153  -15.8634   23.4204 C   0  0  2  0  0  0  0  0  0  0  0  0
   11.3805  -15.8711   22.2097 N   0  0  0  0  0  0  0  0  0  0  0  0
   10.8518  -17.0830   24.2456 C   0  0  0  0  0  0  0  0  0  0  0  0
   11.5469  -18.0015   23.7538 O   0  0  0  0  0  0  0  0  0  0  0  0
   10.3305  -17.2135   25.5107 O   0  0  0  0  0  0  0  0  0  0  0  0
  2  4  1  0
  2  1  1  0
  3  2  2  0
  5  4  1  0
  6  5  1  0
  6  8  1  0
  6  7  1  6
  8 10  1  0
  9  8  2  0
 10 11  1  0
 11 16  1  0
 11 12  1  1
 12 13  1  0
 13 14  1  0
 14 18  1  0
 14 15  2  0
 16 17  2  0
 19 20  1  0
 21 20  1  6
 21 22  1  0
 21 23  1  0
 22 16  1  0
 23 24  2  0
 23 25  1  0
M  END
$$$$
