QES.pdb
     RDKit          3D

 25 24  0  0  1  0  0  0  0  0999 V2000
    8.5378  -11.6929   19.2733 N   0  0  0  0  0  0  0  0  0  0  0  0
    8.4139  -13.0739   18.9868 C   0  0  0  0  0  0  0  0  0  0  0  0
    9.2500  -13.6019   18.2166 O   0  0  0  0  0  0  0  0  0  0  0  0
    7.3456  -13.8953   19.5603 C   0  0  0  0  0  0  0  0  0  0  0  0
    7.9053  -14.7844   20.6718 C   0  0  0  0  0  0  0  0  0  0  0  0
    8.3829  -16.0403   20.0266 C   0  0  2  0  0  0  0  0  0  0  0  0
    7.2482  -16.7304   19.4679 N   0  0  0  0  0  0  0  0  0  0  0  0
    9.2131  -16.8979   20.8951 C   0  0  0  0  0  0  0  0  0  0  0  0
    8.6480  -17.5762   21.7928 O   0  0  0  0  0  0  0  0  0  0  0  0
   10.6136  -17.0181   20.7952 N   0  0  0  0  0  0  0  0  0  0  0  0
   11.4318  -17.8431   21.6998 C   0  0  1  0  0  0  0  0  0  0  0  0
   12.7800  -17.9450   21.0806 C   0  0  0  0  0  0  0  0  0  0  0  0
   12.8508  -18.7375   19.8063 C   0  0  0  0  0  0  0  0  0  0  0  0
   14.0819  -18.5415   19.0255 C   0  0  0  0  0  0  0  0  0  0  0  0
   15.2004  -18.7721   19.5061 O   0  0  0  0  0  0  0  0  0  0  0  0
   11.3834  -17.3439   23.0721 C   0  0  0  0  0  0  0  0  0  0  0  0
   11.4381  -16.1176   23.3206 O   0  0  0  0  0  0  0  0  0  0  0  0
   14.0013  -18.0838   17.7069 O   0  0  0  0  0  0  0  0  0  0  0  0
    9.6981  -17.0805   27.3003 O   0  0  0  0  0  0  0  0  0  0  0  0
    9.7077  -17.5116   25.9822 C   0  0  0  0  0  0  0  0  0  0  0  0
   11.1318  -17.7350   25.5612 C   0  0  2  0  0  0  0  0  0  0  0  0
   11.2714  -18.2105   24.2175 N   0  0  0  0  0  0  0  0  0  0  0  0
   11.8162  -18.6202   26.5474 C   0  0  0  0  0  0  0  0  0  0  0  0
   12.2698  -19.7145   26.1412 O   0  0  0  0  0  0  0  0  0  0  0  0
   11.9545  -18.2626   27.8673 O   0  0  0  0  0  0  0  0  0  0  0  0
  2  4  1  0
  2  1  1  0
  3  2  2  0
  5  4  1  0
  6  5  1  0
  6  8  1  0
  6  7  1  1
  8 10  1  0
  9  8  2  0
 10 11  1  0
 11 16  1  0
 11 12  1  6
 12 13  1  0
 13 14  1  0
 14 18  1  0
 14 15  2  0
 16 17  2  0
 19 20  1  0
 21 20  1  1
 21 22  1  0
 21 23  1  0
 22 16  1  0
 23 24  2  0
 23 25  1  0
M  END
$$$$
