QES.pdb
     RDKit          3D

 25 24  0  0  1  0  0  0  0  0999 V2000
    7.6650  -11.3994   19.5398 N   0  0  0  0  0  0  0  0  0  0  0  0
    7.6410  -12.7034   20.0908 C   0  0  0  0  0  0  0  0  0  0  0  0
    7.0554  -12.8792   21.1849 O   0  0  0  0  0  0  0  0  0  0  0  0
    8.2758  -13.8422   19.4238 C   0  0  0  0  0  0  0  0  0  0  0  0
    8.9331  -13.3880   18.1197 C   0  0  0  0  0  0  0  0  0  0  0  0
    9.5399  -14.5968   17.4932 C   0  0  2  0  0  0  0  0  0  0  0  0
    8.4820  -15.4248   16.9724 N   0  0  0  0  0  0  0  0  0  0  0  0
   10.4772  -15.3332   18.3640 C   0  0  0  0  0  0  0  0  0  0  0  0
   10.0605  -16.3516   18.9759 O   0  0  0  0  0  0  0  0  0  0  0  0
   11.8258  -14.9779   18.5669 N   0  0  0  0  0  0  0  0  0  0  0  0
   12.7482  -15.7261   19.4374 C   0  0  1  0  0  0  0  0  0  0  0  0
   14.1211  -15.4597   18.9317 C   0  0  0  0  0  0  0  0  0  0  0  0
   14.5784  -14.0313   19.0171 C   0  0  0  0  0  0  0  0  0  0  0  0
   15.9422  -13.7896   18.5218 C   0  0  0  0  0  0  0  0  0  0  0  0
   16.8958  -13.6257   19.2957 O   0  0  0  0  0  0  0  0  0  0  0  0
   12.5081  -15.4352   20.8490 C   0  0  0  0  0  0  0  0  0  0  0  0
   12.7485  -14.3042   21.3302 O   0  0  0  0  0  0  0  0  0  0  0  0
   16.1816  -13.7413   17.1452 O   0  0  0  0  0  0  0  0  0  0  0  0
    9.6869  -17.2583   23.0152 O   0  0  0  0  0  0  0  0  0  0  0  0
   10.2911  -16.1209   23.5292 C   0  0  0  0  0  0  0  0  0  0  0  0
   11.7462  -16.1417   23.1581 C   0  0  2  0  0  0  0  0  0  0  0  0
   11.9872  -16.4108   21.7722 N   0  0  0  0  0  0  0  0  0  0  0  0
   12.4811  -17.0825   24.0521 C   0  0  0  0  0  0  0  0  0  0  0  0
   13.1249  -18.0170   23.5223 O   0  0  0  0  0  0  0  0  0  0  0  0
   12.4641  -16.9442   25.4195 O   0  0  0  0  0  0  0  0  0  0  0  0
  2  4  1  0
  2  1  1  0
  3  2  2  0
  5  4  1  0
  6  5  1  0
  6  8  1  0
  6  7  1  1
  8 10  1  0
  9  8  2  0
 10 11  1  0
 11 16  1  0
 11 12  1  6
 12 13  1  0
 13 14  1  0
 14 18  1  0
 14 15  2  0
 16 17  2  0
 19 20  1  0
 21 20  1  6
 21 22  1  0
 21 23  1  0
 22 16  1  0
 23 24  2  0
 23 25  1  0
M  END
$$$$
