DAV.pdb
     RDKit          3D

 21 20  0  0  1  0  0  0  0  0999 V2000
    9.1798  -17.4382   16.9862 N   0  0  0  0  0  0  0  0  0  0  0  0
    8.1107  -17.3153   17.9439 C   0  0  1  0  0  0  0  0  0  0  0  0
    7.6201  -18.6897   18.3421 C   0  0  0  0  0  0  0  0  0  0  0  0
    6.8873  -19.3522   17.2439 C   0  0  0  0  0  0  0  0  0  0  0  0
    5.6376  -19.5168   17.3509 O   0  0  0  0  0  0  0  0  0  0  0  0
    8.5467  -16.6265   19.1823 C   0  0  0  0  0  0  0  0  0  0  0  0
    9.6701  -16.8779   19.6958 O   0  0  0  0  0  0  0  0  0  0  0  0
    7.5406  -19.7857   16.1226 O   0  0  0  0  0  0  0  0  0  0  0  0
    7.2672  -13.8764   21.4781 C   0  0  0  0  0  0  0  0  0  0  0  0
    8.2283  -14.9446   21.0462 C   0  0  2  0  0  0  0  0  0  0  0  0
    7.7572  -15.6593   19.8664 N   0  0  0  0  0  0  0  0  0  0  0  0
    8.5454  -15.8920   22.1533 C   0  0  0  0  0  0  0  0  0  0  0  0
    7.7697  -16.8545   22.3803 O   0  0  0  0  0  0  0  0  0  0  0  0
   11.4462  -17.9570   22.6389 C   0  0  0  0  0  0  0  0  0  0  0  0
   11.3728  -17.2050   23.9264 C   0  0  1  0  0  0  0  0  0  0  0  0
   12.3816  -16.1183   24.0781 C   0  0  0  0  0  0  0  0  0  0  0  0
    9.9348  -16.7032   24.0909 C   0  0  2  0  0  0  0  0  0  0  0  0
    9.6900  -15.7788   22.9880 N   0  0  0  0  0  0  0  0  0  0  0  0
    9.6864  -16.0903   25.3955 C   0  0  0  0  0  0  0  0  0  0  0  0
    9.6443  -16.9027   26.5131 O   0  0  0  0  0  0  0  0  0  0  0  0
    9.5041  -14.8601   25.5846 O   0  0  0  0  0  0  0  0  0  0  0  0
  2  3  1  0
  2  1  1  6
  3  4  1  0
  4  5  2  0
  4  8  1  0
  6 11  1  0
  6  2  1  0
  7  6  2  0
 10 11  1  0
 10  9  1  1
 12 10  1  0
 12 18  1  0
 13 12  2  0
 15 14  1  6
 15 16  1  0
 17 18  1  6
 17 15  1  0
 19 17  1  0
 20 19  1  0
 21 19  2  0
M  END
$$$$
