DAV.pdb
     RDKit          3D

 21 20  0  0  1  0  0  0  0  0999 V2000
   11.5814  -17.1419   20.4170 N   0  0  0  0  0  0  0  0  0  0  0  0
   11.6366  -15.7896   20.9106 C   0  0  1  0  0  0  0  0  0  0  0  0
   11.9686  -14.8444   19.7770 C   0  0  0  0  0  0  0  0  0  0  0  0
   13.3584  -15.0156   19.3068 C   0  0  0  0  0  0  0  0  0  0  0  0
   14.0678  -15.9349   19.8086 O   0  0  0  0  0  0  0  0  0  0  0  0
   10.3421  -15.3516   21.4854 C   0  0  0  0  0  0  0  0  0  0  0  0
   10.1445  -14.1409   21.7750 O   0  0  0  0  0  0  0  0  0  0  0  0
   13.8813  -14.1971   18.3430 O   0  0  0  0  0  0  0  0  0  0  0  0
    6.9463  -16.8427   22.3037 C   0  0  0  0  0  0  0  0  0  0  0  0
    8.0247  -15.8035   22.3962 C   0  0  2  0  0  0  0  0  0  0  0  0
    9.2564  -16.2346   21.7469 N   0  0  0  0  0  0  0  0  0  0  0  0
    8.2809  -15.3878   23.8053 C   0  0  0  0  0  0  0  0  0  0  0  0
    9.2831  -15.8465   24.4093 O   0  0  0  0  0  0  0  0  0  0  0  0
    7.0304  -12.6063   27.6894 C   0  0  0  0  0  0  0  0  0  0  0  0
    6.7240  -13.0398   26.2942 C   0  0  1  0  0  0  0  0  0  0  0  0
    6.6876  -11.9407   25.2880 C   0  0  0  0  0  0  0  0  0  0  0  0
    7.7146  -14.1478   25.9229 C   0  0  2  0  0  0  0  0  0  0  0  0
    7.4511  -14.4886   24.5282 N   0  0  0  0  0  0  0  0  0  0  0  0
    7.6313  -15.3116   26.8049 C   0  0  0  0  0  0  0  0  0  0  0  0
    8.5944  -15.4732   27.7830 O   0  0  0  0  0  0  0  0  0  0  0  0
    6.7365  -16.1937   26.7424 O   0  0  0  0  0  0  0  0  0  0  0  0
  2  3  1  0
  2  1  1  6
  3  4  1  0
  4  5  2  0
  4  8  1  0
  6 11  1  0
  6  2  1  0
  7  6  2  0
 10 11  1  0
 10  9  1  1
 12 10  1  0
 12 18  1  0
 13 12  2  0
 15 14  1  1
 15 16  1  0
 17 18  1  6
 17 15  1  0
 19 17  1  0
 20 19  1  0
 21 19  2  0
M  END
$$$$
