DAV.pdb
     RDKit          3D

 21 20  0  0  1  0  0  0  0  0999 V2000
    8.8380  -17.3540   16.5317 N   0  0  0  0  0  0  0  0  0  0  0  0
    7.9546  -17.4772   17.6630 C   0  0  1  0  0  0  0  0  0  0  0  0
    7.8741  -18.9251   18.0939 C   0  0  0  0  0  0  0  0  0  0  0  0
    7.0477  -19.7291   17.1705 C   0  0  0  0  0  0  0  0  0  0  0  0
    7.5006  -20.0035   16.0216 O   0  0  0  0  0  0  0  0  0  0  0  0
    8.4290  -16.6953   18.8298 C   0  0  0  0  0  0  0  0  0  0  0  0
    9.5948  -16.8575   19.2809 O   0  0  0  0  0  0  0  0  0  0  0  0
    5.8088  -20.1756   17.5419 O   0  0  0  0  0  0  0  0  0  0  0  0
    7.1456  -13.9126   21.0820 C   0  0  0  0  0  0  0  0  0  0  0  0
    8.1078  -14.9875   20.6695 C   0  0  2  0  0  0  0  0  0  0  0  0
    7.6317  -15.7318   19.5103 N   0  0  0  0  0  0  0  0  0  0  0  0
    8.4354  -15.9070   21.7969 C   0  0  0  0  0  0  0  0  0  0  0  0
    7.6616  -16.8629   22.0557 O   0  0  0  0  0  0  0  0  0  0  0  0
   11.7070  -17.6105   22.4885 C   0  0  0  0  0  0  0  0  0  0  0  0
   11.3483  -16.9266   23.7660 C   0  0  1  0  0  0  0  0  0  0  0  0
   12.1404  -15.7001   24.0665 C   0  0  0  0  0  0  0  0  0  0  0  0
    9.8391  -16.6647   23.7459 C   0  0  2  0  0  0  0  0  0  0  0  0
    9.5883  -15.7737   22.6172 N   0  0  0  0  0  0  0  0  0  0  0  0
    9.3339  -16.1210   25.0062 C   0  0  0  0  0  0  0  0  0  0  0  0
    9.2377  -16.9608   26.1000 O   0  0  0  0  0  0  0  0  0  0  0  0
    8.9729  -14.9281   25.1769 O   0  0  0  0  0  0  0  0  0  0  0  0
  2  3  1  0
  2  1  1  6
  3  4  1  0
  4  5  2  0
  4  8  1  0
  6 11  1  0
  6  2  1  0
  7  6  2  0
 10 11  1  0
 10  9  1  1
 12 10  1  0
 12 18  1  0
 13 12  2  0
 15 14  1  6
 15 16  1  0
 17 18  1  6
 17 15  1  0
 19 17  1  0
 20 19  1  0
 21 19  2  0
M  END
$$$$
