DAV.pdb
     RDKit          3D

 21 20  0  0  1  0  0  0  0  0999 V2000
   10.4292  -16.7510   20.0333 N   0  0  0  0  0  0  0  0  0  0  0  0
   11.1284  -17.2080   21.2071 C   0  0  1  0  0  0  0  0  0  0  0  0
   12.4954  -16.5634   21.2717 C   0  0  0  0  0  0  0  0  0  0  0  0
   13.4156  -17.1216   20.2600 C   0  0  0  0  0  0  0  0  0  0  0  0
   13.6456  -16.4592   19.2070 O   0  0  0  0  0  0  0  0  0  0  0  0
   10.4136  -16.8528   22.4565 C   0  0  0  0  0  0  0  0  0  0  0  0
   10.0233  -15.6717   22.6598 O   0  0  0  0  0  0  0  0  0  0  0  0
   14.0158  -18.3366   20.4484 O   0  0  0  0  0  0  0  0  0  0  0  0
    8.4379  -18.5623   25.0969 C   0  0  0  0  0  0  0  0  0  0  0  0
    9.3395  -17.4411   24.6711 C   0  0  2  0  0  0  0  0  0  0  0  0
   10.1215  -17.7867   23.4906 N   0  0  0  0  0  0  0  0  0  0  0  0
   10.2230  -16.9820   25.7814 C   0  0  0  0  0  0  0  0  0  0  0  0
   11.4052  -17.4041   25.8414 O   0  0  0  0  0  0  0  0  0  0  0  0
   10.3583  -13.3245   27.1786 C   0  0  0  0  0  0  0  0  0  0  0  0
   10.2143  -14.2731   28.3221 C   0  0  1  0  0  0  0  0  0  0  0  0
    8.8504  -14.3345   28.9201 C   0  0  0  0  0  0  0  0  0  0  0  0
   10.7172  -15.6432   27.8565 C   0  0  2  0  0  0  0  0  0  0  0  0
    9.8106  -16.0797   26.7990 N   0  0  0  0  0  0  0  0  0  0  0  0
   10.8152  -16.6181   28.9423 C   0  0  0  0  0  0  0  0  0  0  0  0
   11.8796  -16.5292   29.8199 O   0  0  0  0  0  0  0  0  0  0  0  0
    9.9930  -17.5485   29.1445 O   0  0  0  0  0  0  0  0  0  0  0  0
  2  3  1  0
  2  1  1  6
  3  4  1  0
  4  5  2  0
  4  8  1  0
  6 11  1  0
  6  2  1  0
  7  6  2  0
 10 11  1  0
 10  9  1  1
 12 10  1  0
 12 18  1  0
 13 12  2  0
 15 14  1  6
 15 16  1  0
 17 18  1  6
 17 15  1  0
 19 17  1  0
 20 19  1  0
 21 19  2  0
M  END
$$$$
