DAV.pdb
     RDKit          3D

 21 20  0  0  1  0  0  0  0  0999 V2000
    9.2637  -17.6723   19.6154 N   0  0  0  0  0  0  0  0  0  0  0  0
    9.6845  -17.7923   20.9880 C   0  0  1  0  0  0  0  0  0  0  0  0
   11.0275  -17.1208   21.1719 C   0  0  0  0  0  0  0  0  0  0  0  0
   12.0743  -17.7459   20.3380 C   0  0  0  0  0  0  0  0  0  0  0  0
   12.2967  -18.9854   20.4584 O   0  0  0  0  0  0  0  0  0  0  0  0
    8.7344  -17.1421   21.9222 C   0  0  0  0  0  0  0  0  0  0  0  0
    8.2090  -16.0329   21.6355 O   0  0  0  0  0  0  0  0  0  0  0  0
   12.7991  -17.0045   19.4451 O   0  0  0  0  0  0  0  0  0  0  0  0
    6.7926  -18.0435   25.0358 C   0  0  0  0  0  0  0  0  0  0  0  0
    7.3852  -17.0680   24.0619 C   0  0  2  0  0  0  0  0  0  0  0  0
    8.3535  -17.7008   23.1751 N   0  0  0  0  0  0  0  0  0  0  0  0
    7.9821  -15.8860   24.7479 C   0  0  0  0  0  0  0  0  0  0  0  0
    9.2214  -15.8559   24.9549 O   0  0  0  0  0  0  0  0  0  0  0  0
    5.5848  -13.0141   26.6502 C   0  0  0  0  0  0  0  0  0  0  0  0
    6.8293  -12.5366   25.9781 C   0  0  1  0  0  0  0  0  0  0  0  0
    7.4024  -11.2789   26.5364 C   0  0  0  0  0  0  0  0  0  0  0  0
    7.8326  -13.6942   25.9795 C   0  0  2  0  0  0  0  0  0  0  0  0
    7.2290  -14.7663   25.1937 N   0  0  0  0  0  0  0  0  0  0  0  0
    8.2025  -14.1318   27.3251 C   0  0  0  0  0  0  0  0  0  0  0  0
    9.1978  -13.4459   27.9958 O   0  0  0  0  0  0  0  0  0  0  0  0
    7.6775  -15.1009   27.9316 O   0  0  0  0  0  0  0  0  0  0  0  0
  2  3  1  0
  2  1  1  6
  3  4  1  0
  4  5  2  0
  4  8  1  0
  6 11  1  0
  6  2  1  0
  7  6  2  0
 10 11  1  0
 10  9  1  1
 12 10  1  0
 12 18  1  0
 13 12  2  0
 15 14  1  1
 15 16  1  0
 17 18  1  6
 17 15  1  0
 19 17  1  0
 20 19  1  0
 21 19  2  0
M  END
$$$$
