DAV.pdb
     RDKit          3D

 21 20  0  0  1  0  0  0  0  0999 V2000
    9.0954  -17.4667   20.2810 N   0  0  0  0  0  0  0  0  0  0  0  0
    8.2859  -16.2751   20.2707 C   0  0  1  0  0  0  0  0  0  0  0  0
    7.1998  -16.4035   19.2255 C   0  0  0  0  0  0  0  0  0  0  0  0
    7.7097  -16.9949   17.9716 C   0  0  0  0  0  0  0  0  0  0  0  0
    8.0209  -18.2209   17.9529 O   0  0  0  0  0  0  0  0  0  0  0  0
    7.6186  -16.0421   21.5740 C   0  0  0  0  0  0  0  0  0  0  0  0
    6.9222  -15.0087   21.7636 O   0  0  0  0  0  0  0  0  0  0  0  0
    7.8476  -16.2369   16.8409 O   0  0  0  0  0  0  0  0  0  0  0  0
    7.0175  -17.8694   24.8382 C   0  0  0  0  0  0  0  0  0  0  0  0
    7.1384  -16.6408   23.9855 C   0  0  2  0  0  0  0  0  0  0  0  0
    7.7089  -16.9373   22.6773 N   0  0  0  0  0  0  0  0  0  0  0  0
    7.9040  -15.5590   24.6693 C   0  0  0  0  0  0  0  0  0  0  0  0
    9.1467  -15.4825   24.4981 O   0  0  0  0  0  0  0  0  0  0  0  0
    7.0578  -11.8078   25.0507 C   0  0  0  0  0  0  0  0  0  0  0  0
    7.2688  -12.3652   26.4193 C   0  0  1  0  0  0  0  0  0  0  0  0
    6.0227  -12.5897   27.2058 C   0  0  0  0  0  0  0  0  0  0  0  0
    8.1156  -13.6342   26.2796 C   0  0  2  0  0  0  0  0  0  0  0  0
    7.3117  -14.5871   25.5202 N   0  0  0  0  0  0  0  0  0  0  0  0
    8.5534  -14.1767   27.5654 C   0  0  0  0  0  0  0  0  0  0  0  0
    9.5202  -13.4937   28.2791 O   0  0  0  0  0  0  0  0  0  0  0  0
    8.1123  -15.2352   28.0825 O   0  0  0  0  0  0  0  0  0  0  0  0
  2  3  1  0
  2  1  1  1
  3  4  1  0
  4  5  2  0
  4  8  1  0
  6 11  1  0
  6  2  1  0
  7  6  2  0
 10 11  1  0
 10  9  1  1
 12 10  1  0
 12 18  1  0
 13 12  2  0
 15 14  1  6
 15 16  1  0
 17 18  1  1
 17 15  1  0
 19 17  1  0
 20 19  1  0
 21 19  2  0
M  END
$$$$
