DAV.pdb
     RDKit          3D

 21 20  0  0  1  0  0  0  0  0999 V2000
   10.3679  -19.1300   21.3126 N   0  0  0  0  0  0  0  0  0  0  0  0
   10.2110  -17.7378   20.9772 C   0  0  1  0  0  0  0  0  0  0  0  0
    9.7862  -17.6045   19.5314 C   0  0  0  0  0  0  0  0  0  0  0  0
   10.8454  -18.0502   18.6032 C   0  0  0  0  0  0  0  0  0  0  0  0
   11.2967  -19.2275   18.7060 O   0  0  0  0  0  0  0  0  0  0  0  0
    9.1730  -17.0776   21.8046 C   0  0  0  0  0  0  0  0  0  0  0  0
    8.7974  -15.9023   21.5470 O   0  0  0  0  0  0  0  0  0  0  0  0
   11.3387  -17.2101   17.6424 O   0  0  0  0  0  0  0  0  0  0  0  0
    6.7572  -17.9942   24.5772 C   0  0  0  0  0  0  0  0  0  0  0  0
    7.5325  -17.0277   23.7310 C   0  0  2  0  0  0  0  0  0  0  0  0
    8.5396  -17.6985   22.9184 N   0  0  0  0  0  0  0  0  0  0  0  0
    8.1426  -15.9370   24.5447 C   0  0  0  0  0  0  0  0  0  0  0  0
    9.3513  -16.0211   24.8786 O   0  0  0  0  0  0  0  0  0  0  0  0
    5.7769  -13.1205   26.5449 C   0  0  0  0  0  0  0  0  0  0  0  0
    7.0601  -12.6292   25.9615 C   0  0  1  0  0  0  0  0  0  0  0  0
    7.6495  -11.4442   26.6470 C   0  0  0  0  0  0  0  0  0  0  0  0
    8.0268  -13.8159   25.8977 C   0  0  2  0  0  0  0  0  0  0  0  0
    7.4352  -14.7831   24.9782 N   0  0  0  0  0  0  0  0  0  0  0  0
    8.3096  -14.3972   27.2097 C   0  0  0  0  0  0  0  0  0  0  0  0
    9.3415  -13.8676   27.9616 O   0  0  0  0  0  0  0  0  0  0  0  0
    7.6771  -15.3588   27.7172 O   0  0  0  0  0  0  0  0  0  0  0  0
  2  3  1  0
  2  1  1  1
  3  4  1  0
  4  5  2  0
  4  8  1  0
  6 11  1  0
  6  2  1  0
  7  6  2  0
 10 11  1  0
 10  9  1  1
 12 10  1  0
 12 18  1  0
 13 12  2  0
 15 14  1  1
 15 16  1  0
 17 18  1  6
 17 15  1  0
 19 17  1  0
 20 19  1  0
 21 19  2  0
M  END
$$$$
