DAV.pdb
     RDKit          3D

 21 20  0  0  1  0  0  0  0  0999 V2000
    6.5174  -18.6000   19.5338 N   0  0  0  0  0  0  0  0  0  0  0  0
    7.5032  -17.8821   20.3008 C   0  0  1  0  0  0  0  0  0  0  0  0
    7.9825  -16.6788   19.5193 C   0  0  0  0  0  0  0  0  0  0  0  0
    8.7853  -17.0707   18.3428 C   0  0  0  0  0  0  0  0  0  0  0  0
    9.4317  -18.1576   18.3748 O   0  0  0  0  0  0  0  0  0  0  0  0
    6.9569  -17.3844   21.5860 C   0  0  0  0  0  0  0  0  0  0  0  0
    5.9719  -16.5981   21.6040 O   0  0  0  0  0  0  0  0  0  0  0  0
    8.8364  -16.2770   17.2294 O   0  0  0  0  0  0  0  0  0  0  0  0
    6.7310  -18.4184   25.0934 C   0  0  0  0  0  0  0  0  0  0  0  0
    6.8961  -17.2935   24.1143 C   0  0  2  0  0  0  0  0  0  0  0  0
    7.4842  -17.7434   22.8588 N   0  0  0  0  0  0  0  0  0  0  0  0
    7.6733  -16.1593   24.6920 C   0  0  0  0  0  0  0  0  0  0  0  0
    8.9078  -16.0830   24.4691 O   0  0  0  0  0  0  0  0  0  0  0  0
    7.6960  -11.8713   27.1391 C   0  0  0  0  0  0  0  0  0  0  0  0
    6.9086  -12.9743   26.5134 C   0  0  1  0  0  0  0  0  0  0  0  0
    5.9610  -12.5436   25.4465 C   0  0  0  0  0  0  0  0  0  0  0  0
    7.8999  -14.0371   26.0289 C   0  0  2  0  0  0  0  0  0  0  0  0
    7.1010  -15.1360   25.4951 N   0  0  0  0  0  0  0  0  0  0  0  0
    8.8246  -14.4780   27.0728 C   0  0  0  0  0  0  0  0  0  0  0  0
   10.0336  -13.8218   27.2087 O   0  0  0  0  0  0  0  0  0  0  0  0
    8.6032  -15.4246   27.8711 O   0  0  0  0  0  0  0  0  0  0  0  0
  2  3  1  0
  2  1  1  6
  3  4  1  0
  4  5  2  0
  4  8  1  0
  6 11  1  0
  6  2  1  0
  7  6  2  0
 10 11  1  0
 10  9  1  1
 12 10  1  0
 12 18  1  0
 13 12  2  0
 15 14  1  6
 15 16  1  0
 17 18  1  1
 17 15  1  0
 19 17  1  0
 20 19  1  0
 21 19  2  0
M  END
$$$$
