DAV.pdb
     RDKit          3D

 21 20  0  0  1  0  0  0  0  0999 V2000
    7.7041  -17.1229   19.1739 N   0  0  0  0  0  0  0  0  0  0  0  0
    8.5424  -17.1642   20.3448 C   0  0  1  0  0  0  0  0  0  0  0  0
    9.8076  -16.3731   20.0963 C   0  0  0  0  0  0  0  0  0  0  0  0
   10.6798  -17.0283   19.1004 C   0  0  0  0  0  0  0  0  0  0  0  0
   11.1186  -18.1906   19.3385 O   0  0  0  0  0  0  0  0  0  0  0  0
    7.8767  -16.5711   21.5294 C   0  0  0  0  0  0  0  0  0  0  0  0
    7.3403  -15.4325   21.4620 O   0  0  0  0  0  0  0  0  0  0  0  0
   11.0149  -16.3964   17.9339 O   0  0  0  0  0  0  0  0  0  0  0  0
    6.4977  -17.7590   24.8055 C   0  0  0  0  0  0  0  0  0  0  0  0
    7.0311  -16.6780   23.9122 C   0  0  2  0  0  0  0  0  0  0  0  0
    7.7937  -17.2194   22.7942 N   0  0  0  0  0  0  0  0  0  0  0  0
    7.8323  -15.6728   24.6683 C   0  0  0  0  0  0  0  0  0  0  0  0
    9.0867  -15.7485   24.6527 O   0  0  0  0  0  0  0  0  0  0  0  0
    6.9759  -11.8129   25.0769 C   0  0  0  0  0  0  0  0  0  0  0  0
    7.2331  -12.4285   26.4123 C   0  0  1  0  0  0  0  0  0  0  0  0
    6.0135  -12.6989   27.2254 C   0  0  0  0  0  0  0  0  0  0  0  0
    8.0849  -13.6823   26.1905 C   0  0  2  0  0  0  0  0  0  0  0  0
    7.2621  -14.6115   25.4220 N   0  0  0  0  0  0  0  0  0  0  0  0
    8.5736  -14.2722   27.4364 C   0  0  0  0  0  0  0  0  0  0  0  0
    8.0461  -15.4811   27.8499 O   0  0  0  0  0  0  0  0  0  0  0  0
    9.4516  -13.7570   28.1754 O   0  0  0  0  0  0  0  0  0  0  0  0
  2  3  1  0
  2  1  1  6
  3  4  1  0
  4  5  2  0
  4  8  1  0
  6 11  1  0
  6  2  1  0
  7  6  2  0
 10 11  1  0
 10  9  1  1
 12 10  1  0
 12 18  1  0
 13 12  2  0
 15 14  1  6
 15 16  1  0
 17 18  1  1
 17 15  1  0
 19 17  1  0
 20 19  1  0
 21 19  2  0
M  END
$$$$
