DAV.pdb
     RDKit          3D

 21 20  0  0  1  0  0  0  0  0999 V2000
    8.8265  -16.4700   19.3978 N   0  0  0  0  0  0  0  0  0  0  0  0
    8.5077  -15.1358   19.8378 C   0  0  1  0  0  0  0  0  0  0  0  0
    7.5394  -14.4950   18.8681 C   0  0  0  0  0  0  0  0  0  0  0  0
    8.0849  -14.4472   17.4962 C   0  0  0  0  0  0  0  0  0  0  0  0
    8.5336  -15.5095   16.9763 O   0  0  0  0  0  0  0  0  0  0  0  0
    7.8650  -15.1269   21.1738 C   0  0  0  0  0  0  0  0  0  0  0  0
    7.4003  -14.0592   21.6561 O   0  0  0  0  0  0  0  0  0  0  0  0
    8.1097  -13.2761   16.7889 O   0  0  0  0  0  0  0  0  0  0  0  0
    6.8752  -17.6300   23.8562 C   0  0  0  0  0  0  0  0  0  0  0  0
    7.1175  -16.2522   23.3137 C   0  0  2  0  0  0  0  0  0  0  0  0
    7.7267  -16.2853   21.9900 N   0  0  0  0  0  0  0  0  0  0  0  0
    7.9214  -15.4159   24.2509 C   0  0  0  0  0  0  0  0  0  0  0  0
    9.1755  -15.4361   24.1718 O   0  0  0  0  0  0  0  0  0  0  0  0
    7.1240  -11.7960   25.2815 C   0  0  0  0  0  0  0  0  0  0  0  0
    7.3768  -12.5586   26.5396 C   0  0  1  0  0  0  0  0  0  0  0  0
    6.1589  -12.8743   27.3389 C   0  0  0  0  0  0  0  0  0  0  0  0
    8.1825  -13.8087   26.1722 C   0  0  2  0  0  0  0  0  0  0  0  0
    7.3541  -14.5791   25.2496 N   0  0  0  0  0  0  0  0  0  0  0  0
    8.5914  -14.5913   27.3382 C   0  0  0  0  0  0  0  0  0  0  0  0
    9.5988  -14.1000   28.1471 O   0  0  0  0  0  0  0  0  0  0  0  0
    8.0902  -15.6967   27.6690 O   0  0  0  0  0  0  0  0  0  0  0  0
  2  3  1  0
  2  1  1  6
  3  4  1  0
  4  5  2  0
  4  8  1  0
  6 11  1  0
  6  2  1  0
  7  6  2  0
 10 11  1  0
 10  9  1  1
 12 10  1  0
 12 18  1  0
 13 12  2  0
 15 14  1  6
 15 16  1  0
 17 18  1  6
 17 15  1  0
 19 17  1  0
 20 19  1  0
 21 19  2  0
M  END
$$$$
