DAV.pdb
     RDKit          3D

 21 20  0  0  1  0  0  0  0  0999 V2000
    9.2885  -17.3652   19.6687 N   0  0  0  0  0  0  0  0  0  0  0  0
    9.7081  -17.6250   21.0222 C   0  0  1  0  0  0  0  0  0  0  0  0
   11.0668  -17.0055   21.2644 C   0  0  0  0  0  0  0  0  0  0  0  0
   12.1362  -17.7246   20.5427 C   0  0  0  0  0  0  0  0  0  0  0  0
   13.3002  -17.2298   20.5173 O   0  0  0  0  0  0  0  0  0  0  0  0
    8.7748  -17.0446   22.0173 C   0  0  0  0  0  0  0  0  0  0  0  0
    8.2984  -15.8891   21.8539 O   0  0  0  0  0  0  0  0  0  0  0  0
   11.8828  -18.9095   19.9070 O   0  0  0  0  0  0  0  0  0  0  0  0
    6.7914  -18.2199   25.0184 C   0  0  0  0  0  0  0  0  0  0  0  0
    7.3829  -17.1677   24.1272 C   0  0  2  0  0  0  0  0  0  0  0  0
    8.3571  -17.7241   23.1967 N   0  0  0  0  0  0  0  0  0  0  0  0
    7.9720  -16.0413   24.9071 C   0  0  0  0  0  0  0  0  0  0  0  0
    9.2174  -15.9896   25.0678 O   0  0  0  0  0  0  0  0  0  0  0  0
    7.2989  -11.7864   27.3329 C   0  0  0  0  0  0  0  0  0  0  0  0
    6.7021  -12.9008   26.5390 C   0  0  1  0  0  0  0  0  0  0  0  0
    5.9112  -12.4727   25.3504 C   0  0  0  0  0  0  0  0  0  0  0  0
    7.8308  -13.8721   26.1788 C   0  0  2  0  0  0  0  0  0  0  0  0
    7.2047  -14.9990   25.4941 N   0  0  0  0  0  0  0  0  0  0  0  0
    8.6176  -14.2931   27.3376 C   0  0  0  0  0  0  0  0  0  0  0  0
    8.3152  -15.4987   27.9424 O   0  0  0  0  0  0  0  0  0  0  0  0
    9.5647  -13.6328   27.8370 O   0  0  0  0  0  0  0  0  0  0  0  0
  2  3  1  0
  2  1  1  6
  3  4  1  0
  4  5  2  0
  4  8  1  0
  6 11  1  0
  6  2  1  0
  7  6  2  0
 10 11  1  0
 10  9  1  1
 12 10  1  0
 12 18  1  0
 13 12  2  0
 15 14  1  6
 15 16  1  0
 17 18  1  1
 17 15  1  0
 19 17  1  0
 20 19  1  0
 21 19  2  0
M  END
$$$$
