DAV.pdb
     RDKit          3D

 21 20  0  0  1  0  0  0  0  0999 V2000
    8.9200  -16.4319   19.5920 N   0  0  0  0  0  0  0  0  0  0  0  0
    8.5060  -15.0965   19.9396 C   0  0  1  0  0  0  0  0  0  0  0  0
    7.6236  -14.5338   18.8472 C   0  0  0  0  0  0  0  0  0  0  0  0
    8.1873  -14.7779   17.5039 C   0  0  0  0  0  0  0  0  0  0  0  0
    9.0314  -15.7077   17.3517 O   0  0  0  0  0  0  0  0  0  0  0  0
    7.7241  -15.0643   21.1988 C   0  0  0  0  0  0  0  0  0  0  0  0
    7.1586  -14.0032   21.5769 O   0  0  0  0  0  0  0  0  0  0  0  0
    7.8093  -14.0152   16.4326 O   0  0  0  0  0  0  0  0  0  0  0  0
    6.6176  -17.4537   23.9340 C   0  0  0  0  0  0  0  0  0  0  0  0
    6.9425  -16.1015   23.3708 C   0  0  2  0  0  0  0  0  0  0  0  0
    7.5561  -16.1918   22.0518 N   0  0  0  0  0  0  0  0  0  0  0  0
    7.7884  -15.2977   24.2995 C   0  0  0  0  0  0  0  0  0  0  0  0
    9.0397  -15.3571   24.1988 O   0  0  0  0  0  0  0  0  0  0  0  0
    7.2202  -11.6431   25.5215 C   0  0  0  0  0  0  0  0  0  0  0  0
    7.3865  -12.5145   26.7220 C   0  0  1  0  0  0  0  0  0  0  0  0
    6.1267  -12.8159   27.4594 C   0  0  0  0  0  0  0  0  0  0  0  0
    8.1290  -13.7794   26.2798 C   0  0  2  0  0  0  0  0  0  0  0  0
    7.2650  -14.4503   25.3132 N   0  0  0  0  0  0  0  0  0  0  0  0
    8.4951  -14.6502   27.3964 C   0  0  0  0  0  0  0  0  0  0  0  0
    9.5459  -14.2760   28.2128 O   0  0  0  0  0  0  0  0  0  0  0  0
    7.9194  -15.7327   27.6777 O   0  0  0  0  0  0  0  0  0  0  0  0
  2  3  1  0
  2  1  1  6
  3  4  1  0
  4  5  2  0
  4  8  1  0
  6 11  1  0
  6  2  1  0
  7  6  2  0
 10 11  1  0
 10  9  1  1
 12 10  1  0
 12 18  1  0
 13 12  2  0
 15 14  1  6
 15 16  1  0
 17 18  1  6
 17 15  1  0
 19 17  1  0
 20 19  1  0
 21 19  2  0
M  END
$$$$
