DAV.pdb
     RDKit          3D

 21 20  0  0  1  0  0  0  0  0999 V2000
   11.1379  -18.5148   20.8912 N   0  0  0  0  0  0  0  0  0  0  0  0
   10.7773  -17.1296   21.0542 C   0  0  1  0  0  0  0  0  0  0  0  0
    9.8978  -16.6912   19.9041 C   0  0  0  0  0  0  0  0  0  0  0  0
   10.4585  -17.0932   18.5980 C   0  0  0  0  0  0  0  0  0  0  0  0
   11.6352  -16.7378   18.2992 O   0  0  0  0  0  0  0  0  0  0  0  0
   10.0177  -16.8938   22.3054 C   0  0  0  0  0  0  0  0  0  0  0  0
    9.6085  -15.7387   22.6005 O   0  0  0  0  0  0  0  0  0  0  0  0
    9.7246  -17.8390   17.7163 O   0  0  0  0  0  0  0  0  0  0  0  0
    8.3556  -18.9288   25.0259 C   0  0  0  0  0  0  0  0  0  0  0  0
    8.9470  -17.6700   24.4630 C   0  0  2  0  0  0  0  0  0  0  0  0
    9.7012  -17.9193   23.2409 N   0  0  0  0  0  0  0  0  0  0  0  0
    9.7800  -16.9465   25.4664 C   0  0  0  0  0  0  0  0  0  0  0  0
   11.0302  -17.0699   25.4316 O   0  0  0  0  0  0  0  0  0  0  0  0
   10.1813  -13.6768   29.1146 C   0  0  0  0  0  0  0  0  0  0  0  0
    9.3254  -14.3162   28.0720 C   0  0  1  0  0  0  0  0  0  0  0  0
    8.8558  -13.3992   26.9949 C   0  0  0  0  0  0  0  0  0  0  0  0
   10.0854  -15.5289   27.5255 C   0  0  2  0  0  0  0  0  0  0  0  0
    9.2452  -16.1083   26.4818 N   0  0  0  0  0  0  0  0  0  0  0  0
   10.4358  -16.5010   28.5606 C   0  0  0  0  0  0  0  0  0  0  0  0
   11.6674  -16.3965   29.1794 O   0  0  0  0  0  0  0  0  0  0  0  0
    9.6919  -17.4423   28.9389 O   0  0  0  0  0  0  0  0  0  0  0  0
  2  3  1  0
  2  1  1  6
  3  4  1  0
  4  5  2  0
  4  8  1  0
  6 11  1  0
  6  2  1  0
  7  6  2  0
 10 11  1  0
 10  9  1  1
 12 10  1  0
 12 18  1  0
 13 12  2  0
 15 14  1  1
 15 16  1  0
 17 18  1  6
 17 15  1  0
 19 17  1  0
 20 19  1  0
 21 19  2  0
M  END
$$$$
