DAV.pdb
     RDKit          3D

 21 20  0  0  1  0  0  0  0  0999 V2000
    9.8887  -17.3605   19.3902 N   0  0  0  0  0  0  0  0  0  0  0  0
   10.2175  -17.5084   20.7849 C   0  0  1  0  0  0  0  0  0  0  0  0
   11.5500  -16.8508   21.0689 C   0  0  0  0  0  0  0  0  0  0  0  0
   12.6650  -17.5580   20.4067 C   0  0  0  0  0  0  0  0  0  0  0  0
   12.9528  -18.7331   20.7761 O   0  0  0  0  0  0  0  0  0  0  0  0
    9.2125  -16.8675   21.6666 C   0  0  0  0  0  0  0  0  0  0  0  0
    8.8523  -15.6757   21.4701 O   0  0  0  0  0  0  0  0  0  0  0  0
   13.3831  -16.9601   19.4071 O   0  0  0  0  0  0  0  0  0  0  0  0
    6.7269  -17.9356   24.3029 C   0  0  0  0  0  0  0  0  0  0  0  0
    7.5415  -16.9131   23.5666 C   0  0  2  0  0  0  0  0  0  0  0  0
    8.5957  -17.5259   22.7680 N   0  0  0  0  0  0  0  0  0  0  0  0
    8.0995  -15.8775   24.4833 C   0  0  0  0  0  0  0  0  0  0  0  0
    9.2683  -16.0126   24.9251 O   0  0  0  0  0  0  0  0  0  0  0  0
    5.7455  -13.0789   26.5052 C   0  0  0  0  0  0  0  0  0  0  0  0
    6.9837  -12.5594   25.8532 C   0  0  1  0  0  0  0  0  0  0  0  0
    7.5637  -11.3409   26.4861 C   0  0  0  0  0  0  0  0  0  0  0  0
    7.9857  -13.7152   25.7695 C   0  0  2  0  0  0  0  0  0  0  0  0
    7.3844  -14.7225   24.9008 N   0  0  0  0  0  0  0  0  0  0  0  0
    8.3492  -14.2559   27.0790 C   0  0  0  0  0  0  0  0  0  0  0  0
    9.4098  -13.6885   27.7600 O   0  0  0  0  0  0  0  0  0  0  0  0
    7.7627  -15.2142   27.6448 O   0  0  0  0  0  0  0  0  0  0  0  0
  2  3  1  0
  2  1  1  6
  3  4  1  0
  4  5  2  0
  4  8  1  0
  6 11  1  0
  6  2  1  0
  7  6  2  0
 10 11  1  0
 10  9  1  1
 12 10  1  0
 12 18  1  0
 13 12  2  0
 15 14  1  1
 15 16  1  0
 17 18  1  6
 17 15  1  0
 19 17  1  0
 20 19  1  0
 21 19  2  0
M  END
$$$$
