HDP.pdb
     RDKit          3D

 26 27  0  0  1  0  0  0  0  0999 V2000
    7.4309  -16.4414   20.1809 N   0  0  0  0  0  0  0  0  0  0  0  0
    7.7840  -15.2732   20.9248 C   0  0  1  0  0  0  0  0  0  0  0  0
    7.1081  -14.0791   20.3354 C   0  0  0  0  0  0  0  0  0  0  0  0
    7.6426  -13.8673   18.9622 C   0  0  0  0  0  0  0  0  0  0  0  0
    8.5607  -12.9461   18.5093 C   0  0  0  0  0  0  0  0  0  0  0  0
    8.7818  -13.0779   17.1895 N   0  0  0  0  0  0  0  0  0  0  0  0
    7.9934  -14.0974   16.7964 C   0  0  0  0  0  0  0  0  0  0  0  0
    7.3059  -14.5793   17.8473 N   0  0  0  0  0  0  0  0  0  0  0  0
    7.5238  -15.4184   22.3803 C   0  0  0  0  0  0  0  0  0  0  0  0
    6.4043  -15.0465   22.8183 O   0  0  0  0  0  0  0  0  0  0  0  0
    8.4803  -15.9542   23.2806 N   0  0  0  0  0  0  0  0  0  0  0  0
    8.1290  -16.1762   24.6807 C   0  0  1  0  0  0  0  0  0  0  0  0
    8.1050  -17.6749   24.9691 C   0  0  0  0  0  0  0  0  0  0  0  0
    7.0603  -18.3877   24.2283 C   0  0  0  0  0  0  0  0  0  0  0  0
    5.8402  -18.1242   24.3265 O   0  0  0  0  0  0  0  0  0  0  0  0
    9.0717  -15.4911   25.5882 C   0  0  0  0  0  0  0  0  0  0  0  0
   10.2905  -15.4598   25.2045 O   0  0  0  0  0  0  0  0  0  0  0  0
    7.4276  -19.4017   23.3771 O   0  0  0  0  0  0  0  0  0  0  0  0
    8.7541  -14.8798   26.8151 N   0  0  0  0  0  0  0  0  0  0  0  0
    7.4798  -14.8063   27.4560 C   0  0  0  0  0  0  0  0  0  0  0  0
    7.5075  -13.4515   28.1331 C   0  0  0  0  0  0  0  0  0  0  0  0
    8.9318  -12.9541   28.0438 C   0  0  0  0  0  0  0  0  0  0  0  0
    9.6893  -14.2106   27.6734 C   0  0  1  0  0  0  0  0  0  0  0  0
    9.9458  -14.9715   28.9298 C   0  0  0  0  0  0  0  0  0  0  0  0
    9.4278  -16.2417   29.1303 O   0  0  0  0  0  0  0  0  0  0  0  0
   10.6408  -14.5007   29.8640 O   0  0  0  0  0  0  0  0  0  0  0  0
  2  1  1  6
  3  2  1  0
  4  3  1  0
  5  4  2  0
  6  7  1  0
  6  5  1  0
  7  8  2  0
  8  4  1  0
  9  2  1  0
  9 11  1  0
 10  9  2  0
 12 11  1  0
 13 14  1  0
 12 13  1  1
 14 18  1  0
 15 14  2  0
 16 17  2  0
 16 12  1  0
 19 16  1  0
 20 19  1  0
 20 21  1  0
 21 22  1  0
 23 19  1  0
 23 22  1  0
 23 24  1  1
 24 25  1  0
 26 24  2  0
M  END
$$$$
