HDP.pdb
     RDKit          3D

 26 27  0  0  1  0  0  0  0  0999 V2000
    8.9804  -15.6525   20.7370 N   0  0  0  0  0  0  0  0  0  0  0  0
    8.2267  -14.6359   21.4011 C   0  0  1  0  0  0  0  0  0  0  0  0
    7.0397  -14.2687   20.5726 C   0  0  0  0  0  0  0  0  0  0  0  0
    7.4973  -14.0321   19.1758 C   0  0  0  0  0  0  0  0  0  0  0  0
    8.0913  -12.9197   18.6224 C   0  0  0  0  0  0  0  0  0  0  0  0
    8.3561  -13.1000   17.3165 N   0  0  0  0  0  0  0  0  0  0  0  0
    7.9247  -14.3448   17.0342 C   0  0  0  0  0  0  0  0  0  0  0  0
    7.4083  -14.9144   18.1379 N   0  0  0  0  0  0  0  0  0  0  0  0
    7.8612  -15.0078   22.7922 C   0  0  0  0  0  0  0  0  0  0  0  0
    7.1486  -14.2048   23.4487 O   0  0  0  0  0  0  0  0  0  0  0  0
    8.2817  -16.2200   23.3975 N   0  0  0  0  0  0  0  0  0  0  0  0
    8.0541  -16.4485   24.8220 C   0  0  1  0  0  0  0  0  0  0  0  0
    7.5686  -17.8794   25.0378 C   0  0  0  0  0  0  0  0  0  0  0  0
    7.5376  -18.2707   26.4499 C   0  0  0  0  0  0  0  0  0  0  0  0
    6.5404  -18.1112   27.1903 O   0  0  0  0  0  0  0  0  0  0  0  0
    9.2765  -16.1937   25.6108 C   0  0  0  0  0  0  0  0  0  0  0  0
   10.3593  -16.6736   25.1302 O   0  0  0  0  0  0  0  0  0  0  0  0
    8.6571  -18.8443   27.0022 O   0  0  0  0  0  0  0  0  0  0  0  0
    9.3550  -15.4822   26.8222 N   0  0  0  0  0  0  0  0  0  0  0  0
    8.2957  -14.8425   27.5354 C   0  0  0  0  0  0  0  0  0  0  0  0
    8.9666  -13.6262   28.1397 C   0  0  0  0  0  0  0  0  0  0  0  0
   10.4532  -13.8092   27.9381 C   0  0  0  0  0  0  0  0  0  0  0  0
   10.5523  -15.2777   27.5864 C   0  0  1  0  0  0  0  0  0  0  0  0
   10.5457  -16.0500   28.8618 C   0  0  0  0  0  0  0  0  0  0  0  0
   11.6169  -16.0128   29.7410 O   0  0  0  0  0  0  0  0  0  0  0  0
    9.5732  -16.7691   29.2005 O   0  0  0  0  0  0  0  0  0  0  0  0
  2  1  1  6
  3  2  1  0
  4  3  1  0
  5  4  2  0
  6  7  1  0
  6  5  1  0
  7  8  2  0
  8  4  1  0
  9  2  1  0
  9 11  1  0
 10  9  2  0
 12 11  1  0
 13 14  1  0
 12 13  1  6
 14 18  1  0
 15 14  2  0
 16 17  2  0
 16 12  1  0
 19 16  1  0
 20 19  1  0
 20 21  1  0
 21 22  1  0
 23 19  1  0
 23 22  1  0
 23 24  1  1
 24 25  1  0
 26 24  2  0
M  END
$$$$
