HDP.pdb
     RDKit          3D

 26 27  0  0  1  0  0  0  0  0999 V2000
   10.0586  -16.2197   20.3783 N   0  0  0  0  0  0  0  0  0  0  0  0
   10.4007  -15.1513   21.2639 C   0  0  1  0  0  0  0  0  0  0  0  0
   10.2045  -13.8427   20.5715 C   0  0  0  0  0  0  0  0  0  0  0  0
    8.8930  -13.8761   19.8678 C   0  0  0  0  0  0  0  0  0  0  0  0
    7.9952  -14.9114   19.7316 C   0  0  0  0  0  0  0  0  0  0  0  0
    6.9183  -14.5397   19.0173 N   0  0  0  0  0  0  0  0  0  0  0  0
    7.1333  -13.2495   18.6941 C   0  0  0  0  0  0  0  0  0  0  0  0
    8.3116  -12.8392   19.1967 N   0  0  0  0  0  0  0  0  0  0  0  0
    9.6798  -15.2268   22.5607 C   0  0  0  0  0  0  0  0  0  0  0  0
    9.7428  -14.2317   23.3283 O   0  0  0  0  0  0  0  0  0  0  0  0
    8.9335  -16.3660   22.9579 N   0  0  0  0  0  0  0  0  0  0  0  0
    8.3781  -16.4479   24.3062 C   0  0  1  0  0  0  0  0  0  0  0  0
    7.6808  -17.7933   24.4898 C   0  0  0  0  0  0  0  0  0  0  0  0
    7.1598  -17.9923   25.8451 C   0  0  0  0  0  0  0  0  0  0  0  0
    7.3100  -17.1644   26.7725 O   0  0  0  0  0  0  0  0  0  0  0  0
    9.4246  -16.2647   25.3323 C   0  0  0  0  0  0  0  0  0  0  0  0
   10.5349  -16.8566   25.1070 O   0  0  0  0  0  0  0  0  0  0  0  0
    6.4676  -19.1455   26.1252 O   0  0  0  0  0  0  0  0  0  0  0  0
    9.3114  -15.5100   26.5145 N   0  0  0  0  0  0  0  0  0  0  0  0
    8.1605  -14.8277   27.0142 C   0  0  0  0  0  0  0  0  0  0  0  0
    8.7453  -13.6005   27.6825 C   0  0  0  0  0  0  0  0  0  0  0  0
   10.2401  -13.8143   27.7441 C   0  0  0  0  0  0  0  0  0  0  0  0
   10.3655  -15.2962   27.4645 C   0  0  1  0  0  0  0  0  0  0  0  0
   10.1252  -16.0204   28.7456 C   0  0  0  0  0  0  0  0  0  0  0  0
    9.0806  -16.9205   28.8882 O   0  0  0  0  0  0  0  0  0  0  0  0
   10.8547  -15.8509   29.7539 O   0  0  0  0  0  0  0  0  0  0  0  0
  2  1  1  6
  3  2  1  0
  4  3  1  0
  5  4  2  0
  6  7  1  0
  6  5  1  0
  7  8  2  0
  8  4  1  0
  9  2  1  0
  9 11  1  0
 10  9  2  0
 12 11  1  0
 13 14  1  0
 12 13  1  1
 14 18  1  0
 15 14  2  0
 16 17  2  0
 16 12  1  0
 19 16  1  0
 20 19  1  0
 20 21  1  0
 21 22  1  0
 23 19  1  0
 23 22  1  0
 23 24  1  1
 24 25  1  0
 26 24  2  0
M  END
$$$$
