HDP.pdb
     RDKit          3D

 26 27  0  0  1  0  0  0  0  0999 V2000
    7.5687  -16.6245   19.5346 N   0  0  0  0  0  0  0  0  0  0  0  0
    7.7464  -15.4698   20.3580 C   0  0  1  0  0  0  0  0  0  0  0  0
    7.0859  -14.2919   19.7204 C   0  0  0  0  0  0  0  0  0  0  0  0
    7.7827  -14.0005   18.4375 C   0  0  0  0  0  0  0  0  0  0  0  0
    8.6360  -12.9684   18.1160 C   0  0  0  0  0  0  0  0  0  0  0  0
    9.0598  -13.0571   16.8429 N   0  0  0  0  0  0  0  0  0  0  0  0
    8.4681  -14.1612   16.3467 C   0  0  0  0  0  0  0  0  0  0  0  0
    7.7007  -14.7358   17.2903 N   0  0  0  0  0  0  0  0  0  0  0  0
    7.3000  -15.6883   21.7581 C   0  0  0  0  0  0  0  0  0  0  0  0
    6.0653  -15.8041   21.9713 O   0  0  0  0  0  0  0  0  0  0  0  0
    8.2051  -15.7696   22.8475 N   0  0  0  0  0  0  0  0  0  0  0  0
    7.7067  -15.9873   24.2030 C   0  0  1  0  0  0  0  0  0  0  0  0
    7.7898  -17.4727   24.5445 C   0  0  0  0  0  0  0  0  0  0  0  0
    7.4799  -17.7596   25.9480 C   0  0  0  0  0  0  0  0  0  0  0  0
    6.3328  -17.6534   26.4389 O   0  0  0  0  0  0  0  0  0  0  0  0
    8.4612  -15.1879   25.1895 C   0  0  0  0  0  0  0  0  0  0  0  0
    9.7306  -15.1741   25.0410 O   0  0  0  0  0  0  0  0  0  0  0  0
    8.4944  -18.1680   26.7795 O   0  0  0  0  0  0  0  0  0  0  0  0
    7.9176  -14.4526   26.2590 N   0  0  0  0  0  0  0  0  0  0  0  0
    6.5478  -14.3554   26.6516 C   0  0  0  0  0  0  0  0  0  0  0  0
    6.4296  -12.9317   27.1556 C   0  0  0  0  0  0  0  0  0  0  0  0
    7.8378  -12.3931   27.2599 C   0  0  0  0  0  0  0  0  0  0  0  0
    8.6715  -13.6535   27.1822 C   0  0  1  0  0  0  0  0  0  0  0  0
    8.7114  -14.2546   28.5462 C   0  0  0  0  0  0  0  0  0  0  0  0
    8.0491  -15.4363   28.8407 O   0  0  0  0  0  0  0  0  0  0  0  0
    9.3444  -13.7217   29.4910 O   0  0  0  0  0  0  0  0  0  0  0  0
  2  1  1  6
  3  2  1  0
  4  3  1  0
  5  4  2  0
  6  7  1  0
  6  5  1  0
  7  8  2  0
  8  4  1  0
  9  2  1  0
  9 11  1  0
 10  9  2  0
 12 11  1  0
 13 14  1  0
 12 13  1  1
 14 18  1  0
 15 14  2  0
 16 17  2  0
 16 12  1  0
 19 16  1  0
 20 19  1  0
 20 21  1  0
 21 22  1  0
 23 19  1  0
 23 22  1  0
 23 24  1  1
 24 25  1  0
 26 24  2  0
M  END
$$$$
