HDP.pdb
     RDKit          3D

 26 27  0  0  1  0  0  0  0  0999 V2000
    8.8741  -15.6299   20.1533 N   0  0  0  0  0  0  0  0  0  0  0  0
    8.0264  -14.5957   20.6577 C   0  0  1  0  0  0  0  0  0  0  0  0
    6.9219  -14.3337   19.6873 C   0  0  0  0  0  0  0  0  0  0  0  0
    7.5066  -14.2569   18.3203 C   0  0  0  0  0  0  0  0  0  0  0  0
    8.3204  -13.2943   17.7657 C   0  0  0  0  0  0  0  0  0  0  0  0
    8.6373  -13.5899   16.4927 N   0  0  0  0  0  0  0  0  0  0  0  0
    8.0165  -14.7572   16.2331 C   0  0  0  0  0  0  0  0  0  0  0  0
    7.3360  -15.1680   17.3182 N   0  0  0  0  0  0  0  0  0  0  0  0
    7.5289  -14.8782   22.0288 C   0  0  0  0  0  0  0  0  0  0  0  0
    6.7177  -14.0636   22.5405 O   0  0  0  0  0  0  0  0  0  0  0  0
    7.9313  -16.0185   22.7707 N   0  0  0  0  0  0  0  0  0  0  0  0
    7.5206  -16.1721   24.1639 C   0  0  1  0  0  0  0  0  0  0  0  0
    7.5601  -17.6490   24.5474 C   0  0  0  0  0  0  0  0  0  0  0  0
    7.2923  -17.8825   25.9693 C   0  0  0  0  0  0  0  0  0  0  0  0
    6.1434  -17.8750   26.4672 O   0  0  0  0  0  0  0  0  0  0  0  0
    8.3784  -15.3806   25.0690 C   0  0  0  0  0  0  0  0  0  0  0  0
    9.6318  -15.4166   24.8212 O   0  0  0  0  0  0  0  0  0  0  0  0
    8.3509  -18.1238   26.8111 O   0  0  0  0  0  0  0  0  0  0  0  0
    7.9473  -14.6036   26.1601 N   0  0  0  0  0  0  0  0  0  0  0  0
    6.6162  -14.4421   26.6520 C   0  0  0  0  0  0  0  0  0  0  0  0
    6.5938  -13.0057   27.1326 C   0  0  0  0  0  0  0  0  0  0  0  0
    8.0264  -12.5244   27.1195 C   0  0  0  0  0  0  0  0  0  0  0  0
    8.8005  -13.8198   27.0069 C   0  0  1  0  0  0  0  0  0  0  0  0
    8.9192  -14.3967   28.3766 C   0  0  0  0  0  0  0  0  0  0  0  0
    9.4278  -15.6687   28.5893 O   0  0  0  0  0  0  0  0  0  0  0  0
    8.5657  -13.7610   29.4005 O   0  0  0  0  0  0  0  0  0  0  0  0
  2  1  1  6
  3  2  1  0
  4  3  1  0
  5  4  2  0
  6  7  1  0
  6  5  1  0
  7  8  2  0
  8  4  1  0
  9  2  1  0
  9 11  1  0
 10  9  2  0
 12 11  1  0
 13 14  1  0
 12 13  1  1
 14 18  1  0
 15 14  2  0
 16 17  2  0
 16 12  1  0
 19 16  1  0
 20 19  1  0
 20 21  1  0
 21 22  1  0
 23 19  1  0
 23 22  1  0
 23 24  1  1
 24 25  1  0
 26 24  2  0
M  END
$$$$
