HDP.pdb
     RDKit          3D

 26 27  0  0  1  0  0  0  0  0999 V2000
    7.6206  -16.2247   19.9820 N   0  0  0  0  0  0  0  0  0  0  0  0
    7.7523  -15.0643   20.8058 C   0  0  1  0  0  0  0  0  0  0  0  0
    6.9514  -13.9443   20.2275 C   0  0  0  0  0  0  0  0  0  0  0  0
    7.4688  -13.6535   18.8621 C   0  0  0  0  0  0  0  0  0  0  0  0
    8.2990  -12.6413   18.4344 C   0  0  0  0  0  0  0  0  0  0  0  0
    8.5360  -12.7229   17.1133 N   0  0  0  0  0  0  0  0  0  0  0  0
    7.8470  -13.8022   16.6938 C   0  0  0  0  0  0  0  0  0  0  0  0
    7.2035  -14.3689   17.7302 N   0  0  0  0  0  0  0  0  0  0  0  0
    7.4209  -15.3297   22.2295 C   0  0  0  0  0  0  0  0  0  0  0  0
    6.2307  -15.1562   22.5994 O   0  0  0  0  0  0  0  0  0  0  0  0
    8.3863  -15.7657   23.1731 N   0  0  0  0  0  0  0  0  0  0  0  0
    7.9855  -16.0883   24.5400 C   0  0  1  0  0  0  0  0  0  0  0  0
    7.6996  -17.5838   24.6481 C   0  0  0  0  0  0  0  0  0  0  0  0
    7.4961  -18.0333   26.0282 C   0  0  0  0  0  0  0  0  0  0  0  0
    6.5832  -17.6021   26.7688 O   0  0  0  0  0  0  0  0  0  0  0  0
    9.0216  -15.6892   25.5140 C   0  0  0  0  0  0  0  0  0  0  0  0
   10.2296  -15.9277   25.1709 O   0  0  0  0  0  0  0  0  0  0  0  0
    8.3467  -18.9785   26.5484 O   0  0  0  0  0  0  0  0  0  0  0  0
    8.8024  -15.0800   26.7633 N   0  0  0  0  0  0  0  0  0  0  0  0
    7.5548  -14.8330   27.4132 C   0  0  0  0  0  0  0  0  0  0  0  0
    7.7918  -13.5236   28.1372 C   0  0  0  0  0  0  0  0  0  0  0  0
    9.2759  -13.2496   28.0576 C   0  0  0  0  0  0  0  0  0  0  0  0
    9.8299  -14.5942   27.6394 C   0  0  1  0  0  0  0  0  0  0  0  0
    9.9654  -15.4297   28.8670 C   0  0  0  0  0  0  0  0  0  0  0  0
   10.9317  -15.1647   29.8250 O   0  0  0  0  0  0  0  0  0  0  0  0
    9.2136  -16.4104   29.0920 O   0  0  0  0  0  0  0  0  0  0  0  0
  2  1  1  6
  3  2  1  0
  4  3  1  0
  5  4  2  0
  6  7  1  0
  6  5  1  0
  7  8  2  0
  8  4  1  0
  9  2  1  0
  9 11  1  0
 10  9  2  0
 12 11  1  0
 13 14  1  0
 12 13  1  6
 14 18  1  0
 15 14  2  0
 16 17  2  0
 16 12  1  0
 19 16  1  0
 20 19  1  0
 20 21  1  0
 21 22  1  0
 23 19  1  0
 23 22  1  0
 23 24  1  1
 24 25  1  0
 26 24  2  0
M  END
$$$$
