HDP.pdb
     RDKit          3D

 26 27  0  0  1  0  0  0  0  0999 V2000
    8.0990  -16.7213   19.6751 N   0  0  0  0  0  0  0  0  0  0  0  0
    8.0072  -15.5074   20.4239 C   0  0  1  0  0  0  0  0  0  0  0  0
    7.1690  -14.5205   19.6797 C   0  0  0  0  0  0  0  0  0  0  0  0
    7.8568  -14.1900   18.4014 C   0  0  0  0  0  0  0  0  0  0  0  0
    8.5451  -13.0525   18.0426 C   0  0  0  0  0  0  0  0  0  0  0  0
    9.0239  -13.1403   16.7892 N   0  0  0  0  0  0  0  0  0  0  0  0
    8.6350  -14.3508   16.3434 C   0  0  0  0  0  0  0  0  0  0  0  0
    7.9355  -14.9900   17.2981 N   0  0  0  0  0  0  0  0  0  0  0  0
    7.5354  -15.7251   21.8157 C   0  0  0  0  0  0  0  0  0  0  0  0
    6.3006  -15.8814   22.0014 O   0  0  0  0  0  0  0  0  0  0  0  0
    8.4165  -15.7625   22.9269 N   0  0  0  0  0  0  0  0  0  0  0  0
    7.8870  -15.9008   24.2811 C   0  0  1  0  0  0  0  0  0  0  0  0
    8.0134  -17.3536   24.7322 C   0  0  0  0  0  0  0  0  0  0  0  0
    7.1632  -18.2705   23.9676 C   0  0  0  0  0  0  0  0  0  0  0  0
    7.5866  -18.9921   23.0360 O   0  0  0  0  0  0  0  0  0  0  0  0
    8.5832  -15.0045   25.2263 C   0  0  0  0  0  0  0  0  0  0  0  0
    9.8426  -14.8775   25.0482 O   0  0  0  0  0  0  0  0  0  0  0  0
    5.8280  -18.3513   24.2809 O   0  0  0  0  0  0  0  0  0  0  0  0
    7.9950  -14.2898   26.2860 N   0  0  0  0  0  0  0  0  0  0  0  0
    6.6112  -14.2102   26.6306 C   0  0  0  0  0  0  0  0  0  0  0  0
    6.4620  -12.7953   27.1506 C   0  0  0  0  0  0  0  0  0  0  0  0
    7.8606  -12.2461   27.3131 C   0  0  0  0  0  0  0  0  0  0  0  0
    8.7081  -13.4980   27.2472 C   0  0  1  0  0  0  0  0  0  0  0  0
    8.7046  -14.1188   28.6029 C   0  0  0  0  0  0  0  0  0  0  0  0
    9.4691  -13.6072   29.6399 O   0  0  0  0  0  0  0  0  0  0  0  0
    8.0116  -15.1316   28.8702 O   0  0  0  0  0  0  0  0  0  0  0  0
  2  1  1  6
  3  2  1  0
  4  3  1  0
  5  4  2  0
  6  7  1  0
  6  5  1  0
  7  8  2  0
  8  4  1  0
  9  2  1  0
  9 11  1  0
 10  9  2  0
 12 11  1  0
 13 14  1  0
 12 13  1  1
 14 18  1  0
 15 14  2  0
 16 17  2  0
 16 12  1  0
 19 16  1  0
 20 19  1  0
 20 21  1  0
 21 22  1  0
 23 19  1  0
 23 22  1  0
 23 24  1  1
 24 25  1  0
 26 24  2  0
M  END
$$$$
