HDP.pdb
     RDKit          3D

 26 27  0  0  1  0  0  0  0  0999 V2000
    8.8638  -15.8035   20.4027 N   0  0  0  0  0  0  0  0  0  0  0  0
    8.2164  -14.7170   21.0682 C   0  0  1  0  0  0  0  0  0  0  0  0
    7.0377  -14.2686   20.2682 C   0  0  0  0  0  0  0  0  0  0  0  0
    7.4582  -14.1372   18.8461 C   0  0  0  0  0  0  0  0  0  0  0  0
    7.9971  -13.0555   18.1857 C   0  0  0  0  0  0  0  0  0  0  0  0
    8.2432  -13.3385   16.8944 N   0  0  0  0  0  0  0  0  0  0  0  0
    7.8555  -14.6184   16.7301 C   0  0  0  0  0  0  0  0  0  0  0  0
    7.3836  -15.1089   17.8903 N   0  0  0  0  0  0  0  0  0  0  0  0
    7.8657  -15.0329   22.4769 C   0  0  0  0  0  0  0  0  0  0  0  0
    6.8469  -14.4813   22.9681 O   0  0  0  0  0  0  0  0  0  0  0  0
    8.6290  -15.9224   23.2761 N   0  0  0  0  0  0  0  0  0  0  0  0
    8.2239  -16.2088   24.6498 C   0  0  1  0  0  0  0  0  0  0  0  0
    7.6916  -17.6367   24.7374 C   0  0  0  0  0  0  0  0  0  0  0  0
    7.4262  -18.0695   26.1123 C   0  0  0  0  0  0  0  0  0  0  0  0
    8.2257  -18.7567   26.7878 O   0  0  0  0  0  0  0  0  0  0  0  0
    9.3440  -16.0167   25.5932 C   0  0  0  0  0  0  0  0  0  0  0  0
   10.4883  -16.4164   25.1875 O   0  0  0  0  0  0  0  0  0  0  0  0
    6.2394  -17.7076   26.7023 O   0  0  0  0  0  0  0  0  0  0  0  0
    9.2661  -15.4428   26.8755 N   0  0  0  0  0  0  0  0  0  0  0  0
    8.0933  -15.0884   27.6095 C   0  0  0  0  0  0  0  0  0  0  0  0
    8.5173  -13.8465   28.3662 C   0  0  0  0  0  0  0  0  0  0  0  0
   10.0160  -13.7349   28.2062 C   0  0  0  0  0  0  0  0  0  0  0  0
   10.3900  -15.1128   27.7047 C   0  0  1  0  0  0  0  0  0  0  0  0
   10.4996  -16.0114   28.8894 C   0  0  0  0  0  0  0  0  0  0  0  0
   11.5391  -15.8934   29.7990 O   0  0  0  0  0  0  0  0  0  0  0  0
    9.6589  -16.9156   29.1201 O   0  0  0  0  0  0  0  0  0  0  0  0
  2  1  1  6
  3  2  1  0
  4  3  1  0
  5  4  2  0
  6  7  1  0
  6  5  1  0
  7  8  2  0
  8  4  1  0
  9  2  1  0
  9 11  1  0
 10  9  2  0
 12 11  1  0
 13 14  1  0
 12 13  1  6
 14 18  1  0
 15 14  2  0
 16 17  2  0
 16 12  1  0
 19 16  1  0
 20 19  1  0
 20 21  1  0
 21 22  1  0
 23 19  1  0
 23 22  1  0
 23 24  1  1
 24 25  1  0
 26 24  2  0
M  END
$$$$
