CKS.pdb
     RDKit          3D

 22 21  0  0  1  0  0  0  0  0999 V2000
   -3.4439  -21.2517   21.9887 N   0  0  0  0  0  0  0  0  0  0  0  0
   -3.5069  -20.7895   23.3934 C   0  0  1  0  0  0  0  0  0  0  0  0
   -4.1318  -19.4087   23.4247 C   0  0  0  0  0  0  0  0  0  0  0  0
   -2.9274  -18.1780   22.8899 S   0  0  0  0  0  0  0  0  0  0  0  0
   -4.2825  -21.8035   24.1289 C   0  0  0  0  0  0  0  0  0  0  0  0
   -5.3127  -22.3431   23.5869 O   0  0  0  0  0  0  0  0  0  0  0  0
   -4.0037  -22.2714   25.4277 N   0  0  0  0  0  0  0  0  0  0  0  0
   -4.8033  -23.2797   26.0902 C   0  0  1  0  0  0  0  0  0  0  0  0
   -4.0552  -24.5775   26.2971 C   0  0  0  0  0  0  0  0  0  0  0  0
   -5.0331  -25.5616   26.8985 C   0  0  0  0  0  0  0  0  0  0  0  0
   -4.3967  -26.9026   27.1697 C   0  0  0  0  0  0  0  0  0  0  0  0
   -5.4476  -27.9212   27.5924 C   0  0  0  0  0  0  0  0  0  0  0  0
   -4.8583  -29.2059   27.9115 N   0  0  0  0  0  0  0  0  0  0  0  0
   -5.4151  -22.7634   27.3385 C   0  0  0  0  0  0  0  0  0  0  0  0
   -4.6548  -22.1942   28.1639 O   0  0  0  0  0  0  0  0  0  0  0  0
   -9.4797  -22.6606   27.9594 O   0  0  0  0  0  0  0  0  0  0  0  0
   -8.7055  -21.6715   28.5692 C   0  0  0  0  0  0  0  0  0  0  0  0
   -7.3333  -22.2567   28.8211 C   0  0  2  0  0  0  0  0  0  0  0  0
   -6.7823  -22.8751   27.6437 N   0  0  0  0  0  0  0  0  0  0  0  0
   -7.4607  -23.2025   29.9531 C   0  0  0  0  0  0  0  0  0  0  0  0
   -7.9132  -22.6856   31.1615 O   0  0  0  0  0  0  0  0  0  0  0  0
   -7.1936  -24.4209   29.9020 O   0  0  0  0  0  0  0  0  0  0  0  0
  2  1  1  6
  3  2  1  0
  4  3  1  0
  5  6  2  0
  5  2  1  0
  7  5  1  0
  8  9  1  1
  8  7  1  0
 10 11  1  0
 10  9  1  0
 11 12  1  0
 12 13  1  0
 14  8  1  0
 15 14  2  0
 17 16  1  0
 18 17  1  6
 18 19  1  0
 19 14  1  0
 20 18  1  0
 20 21  1  0
 22 20  2  0
M  END
$$$$
