CKS.pdb
     RDKit          3D

 22 21  0  0  1  0  0  0  0  0999 V2000
    5.8267  -14.2678   26.7373 N   0  0  0  0  0  0  0  0  0  0  0  0
    6.3761  -13.2403   25.8248 C   0  0  1  0  0  0  0  0  0  0  0  0
    7.3933  -12.4094   26.5820 C   0  0  0  0  0  0  0  0  0  0  0  0
    6.8196  -12.1239   28.2674 S   0  0  0  0  0  0  0  0  0  0  0  0
    6.9469  -13.9674   24.6775 C   0  0  0  0  0  0  0  0  0  0  0  0
    7.2889  -15.1978   24.8016 O   0  0  0  0  0  0  0  0  0  0  0  0
    7.1694  -13.4348   23.3928 N   0  0  0  0  0  0  0  0  0  0  0  0
    7.7398  -14.2054   22.3086 C   0  0  1  0  0  0  0  0  0  0  0  0
    7.8205  -13.4259   21.0153 C   0  0  0  0  0  0  0  0  0  0  0  0
    8.2894  -14.3875   19.9468 C   0  0  0  0  0  0  0  0  0  0  0  0
    8.2827  -13.7606   18.5743 C   0  0  0  0  0  0  0  0  0  0  0  0
    8.7660  -14.7549   17.5262 C   0  0  0  0  0  0  0  0  0  0  0  0
    8.7679  -14.1806   16.1960 N   0  0  0  0  0  0  0  0  0  0  0  0
    9.0343  -14.8189   22.6920 C   0  0  0  0  0  0  0  0  0  0  0  0
    9.9070  -14.0641   23.1939 O   0  0  0  0  0  0  0  0  0  0  0  0
    9.5916  -18.5918   23.7006 O   0  0  0  0  0  0  0  0  0  0  0  0
   10.6378  -17.6989   23.9409 C   0  0  0  0  0  0  0  0  0  0  0  0
   10.6486  -16.6936   22.8104 C   0  0  2  0  0  0  0  0  0  0  0  0
    9.3334  -16.1819   22.5261 N   0  0  0  0  0  0  0  0  0  0  0  0
   11.2655  -17.3571   21.6392 C   0  0  0  0  0  0  0  0  0  0  0  0
   10.4720  -17.5103   20.5083 O   0  0  0  0  0  0  0  0  0  0  0  0
   12.4371  -17.7855   21.5935 O   0  0  0  0  0  0  0  0  0  0  0  0
  2  1  1  1
  3  2  1  0
  4  3  1  0
  5  6  2  0
  5  2  1  0
  7  5  1  0
  8  9  1  6
  8  7  1  0
 10 11  1  0
 10  9  1  0
 11 12  1  0
 12 13  1  0
 14  8  1  0
 15 14  2  0
 17 16  1  0
 18 17  1  1
 18 19  1  0
 19 14  1  0
 20 18  1  0
 20 21  1  0
 22 20  2  0
M  END
$$$$
