CKS.pdb
     RDKit          3D

 22 21  0  0  1  0  0  0  0  0999 V2000
   15.6132  -17.3592   13.2983 N   0  0  0  0  0  0  0  0  0  0  0  0
   16.0148  -18.6435   13.9147 C   0  0  1  0  0  0  0  0  0  0  0  0
   17.5287  -18.7131   13.9537 C   0  0  0  0  0  0  0  0  0  0  0  0
   18.1740  -18.9709   12.2899 S   0  0  0  0  0  0  0  0  0  0  0  0
   15.3895  -18.6766   15.2484 C   0  0  0  0  0  0  0  0  0  0  0  0
   15.3571  -17.6161   15.9700 O   0  0  0  0  0  0  0  0  0  0  0  0
   14.7913  -19.8007   15.8500 N   0  0  0  0  0  0  0  0  0  0  0  0
   14.1469  -19.7516   17.1451 C   0  0  1  0  0  0  0  0  0  0  0  0
   12.9128  -20.6224   17.2184 C   0  0  0  0  0  0  0  0  0  0  0  0
   12.2949  -20.4013   18.5807 C   0  0  0  0  0  0  0  0  0  0  0  0
   11.0249  -21.1949   18.7651 C   0  0  0  0  0  0  0  0  0  0  0  0
   10.3815  -20.8762   20.1086 C   0  0  0  0  0  0  0  0  0  0  0  0
    9.1849  -21.6612   20.3353 N   0  0  0  0  0  0  0  0  0  0  0  0
   15.1045  -20.0172   18.2458 C   0  0  0  0  0  0  0  0  0  0  0  0
   15.8464  -21.0276   18.1370 O   0  0  0  0  0  0  0  0  0  0  0  0
   17.3251  -17.4455   20.1303 O   0  0  0  0  0  0  0  0  0  0  0  0
   16.6974  -18.2403   21.0914 C   0  0  0  0  0  0  0  0  0  0  0  0
   16.2106  -19.4944   20.3993 C   0  0  2  0  0  0  0  0  0  0  0  0
   15.2249  -19.2096   19.3895 N   0  0  0  0  0  0  0  0  0  0  0  0
   15.7013  -20.4056   21.4495 C   0  0  0  0  0  0  0  0  0  0  0  0
   16.6123  -20.8425   22.4041 O   0  0  0  0  0  0  0  0  0  0  0  0
   14.5227  -20.8070   21.5395 O   0  0  0  0  0  0  0  0  0  0  0  0
  2  1  1  1
  3  2  1  0
  4  3  1  0
  5  6  2  0
  5  2  1  0
  7  5  1  0
  8  9  1  6
  8  7  1  0
 10 11  1  0
 10  9  1  0
 11 12  1  0
 12 13  1  0
 14  8  1  0
 15 14  2  0
 17 16  1  0
 18 17  1  1
 18 19  1  0
 19 14  1  0
 20 18  1  0
 20 21  1  0
 22 20  2  0
M  END
$$$$
