CKS.pdb
     RDKit          3D

 22 21  0  0  1  0  0  0  0  0999 V2000
    8.5025  -14.7778   17.6429 N   0  0  0  0  0  0  0  0  0  0  0  0
    9.3880  -13.8412   18.3705 C   0  0  1  0  0  0  0  0  0  0  0  0
    8.6367  -13.2895   19.5661 C   0  0  0  0  0  0  0  0  0  0  0  0
    7.3734  -12.1275   19.0139 S   0  0  0  0  0  0  0  0  0  0  0  0
   10.5923  -14.6078   18.7346 C   0  0  0  0  0  0  0  0  0  0  0  0
   10.4872  -15.8293   19.1130 O   0  0  0  0  0  0  0  0  0  0  0  0
   11.9149  -14.1242   18.7111 N   0  0  0  0  0  0  0  0  0  0  0  0
   13.0460  -14.9012   19.1711 C   0  0  1  0  0  0  0  0  0  0  0  0
   14.3489  -14.4720   18.5348 C   0  0  0  0  0  0  0  0  0  0  0  0
   14.3761  -15.0592   17.1416 C   0  0  0  0  0  0  0  0  0  0  0  0
   15.5841  -14.6084   16.3577 C   0  0  0  0  0  0  0  0  0  0  0  0
   15.6633  -15.3398   15.0237 C   0  0  0  0  0  0  0  0  0  0  0  0
   16.7079  -14.8042   14.1743 N   0  0  0  0  0  0  0  0  0  0  0  0
   13.1164  -14.9460   20.6517 C   0  0  0  0  0  0  0  0  0  0  0  0
   13.3568  -13.8673   21.2531 O   0  0  0  0  0  0  0  0  0  0  0  0
   11.1668  -17.5199   22.9343 O   0  0  0  0  0  0  0  0  0  0  0  0
   11.7008  -16.3667   23.5128 C   0  0  0  0  0  0  0  0  0  0  0  0
   13.0305  -16.0946   22.8444 C   0  0  2  0  0  0  0  0  0  0  0  0
   12.9308  -16.1155   21.4085 N   0  0  0  0  0  0  0  0  0  0  0  0
   13.9940  -17.0928   23.3618 C   0  0  0  0  0  0  0  0  0  0  0  0
   14.5912  -17.9364   22.4323 O   0  0  0  0  0  0  0  0  0  0  0  0
   14.3069  -17.2309   24.5623 O   0  0  0  0  0  0  0  0  0  0  0  0
  2  1  1  1
  3  2  1  0
  4  3  1  0
  5  6  2  0
  5  2  1  0
  7  5  1  0
  8  9  1  6
  8  7  1  0
 10 11  1  0
 10  9  1  0
 11 12  1  0
 12 13  1  0
 14  8  1  0
 15 14  2  0
 17 16  1  0
 18 17  1  1
 18 19  1  0
 19 14  1  0
 20 18  1  0
 20 21  1  0
 22 20  2  0
M  END
$$$$
