CKS.pdb
     RDKit          3D

 22 21  0  0  1  0  0  0  0  0999 V2000
    6.7976  -14.4446   19.7892 N   0  0  0  0  0  0  0  0  0  0  0  0
    7.9849  -14.1551   20.6241 C   0  0  1  0  0  0  0  0  0  0  0  0
    8.1675  -12.6525   20.7075 C   0  0  0  0  0  0  0  0  0  0  0  0
    8.7455  -12.0158   19.1226 S   0  0  0  0  0  0  0  0  0  0  0  0
    7.7386  -14.7916   21.9298 C   0  0  0  0  0  0  0  0  0  0  0  0
    6.5885  -14.6879   22.4891 O   0  0  0  0  0  0  0  0  0  0  0  0
    8.6733  -15.5409   22.6703 N   0  0  0  0  0  0  0  0  0  0  0  0
    8.3666  -16.1358   23.9536 C   0  0  1  0  0  0  0  0  0  0  0  0
    8.3945  -17.6473   23.9200 C   0  0  0  0  0  0  0  0  0  0  0  0
    7.1071  -18.0998   23.2684 C   0  0  0  0  0  0  0  0  0  0  0  0
    7.0553  -19.5972   23.0901 C   0  0  0  0  0  0  0  0  0  0  0  0
    5.7389  -20.0174   22.4489 C   0  0  0  0  0  0  0  0  0  0  0  0
    5.6608  -21.4525   22.2644 N   0  0  0  0  0  0  0  0  0  0  0  0
    9.2060  -15.5691   25.0368 C   0  0  0  0  0  0  0  0  0  0  0  0
   10.4131  -15.3332   24.7711 O   0  0  0  0  0  0  0  0  0  0  0  0
    8.6254  -12.6475   27.1750 O   0  0  0  0  0  0  0  0  0  0  0  0
    8.9883  -13.6210   28.1078 C   0  0  0  0  0  0  0  0  0  0  0  0
    9.6076  -14.7731   27.3476 C   0  0  2  0  0  0  0  0  0  0  0  0
    8.7298  -15.2855   26.3282 N   0  0  0  0  0  0  0  0  0  0  0  0
    9.9851  -15.8028   28.3425 C   0  0  0  0  0  0  0  0  0  0  0  0
   10.8076  -15.4004   29.3883 O   0  0  0  0  0  0  0  0  0  0  0  0
    9.6215  -16.9965   28.3109 O   0  0  0  0  0  0  0  0  0  0  0  0
  2  1  1  6
  3  2  1  0
  4  3  1  0
  5  6  2  0
  5  2  1  0
  7  5  1  0
  8  9  1  6
  8  7  1  0
 10 11  1  0
 10  9  1  0
 11 12  1  0
 12 13  1  0
 14  8  1  0
 15 14  2  0
 17 16  1  0
 18 17  1  1
 18 19  1  0
 19 14  1  0
 20 18  1  0
 20 21  1  0
 22 20  2  0
M  END
$$$$
