CKS.pdb
     RDKit          3D

 22 21  0  0  1  0  0  0  0  0999 V2000
    2.5425  -20.8010   20.3391 N   0  0  0  0  0  0  0  0  0  0  0  0
    3.1189  -19.4754   20.0213 C   0  0  1  0  0  0  0  0  0  0  0  0
    2.2940  -18.4070   20.7115 C   0  0  0  0  0  0  0  0  0  0  0  0
    2.4156  -18.5984   22.5003 S   0  0  0  0  0  0  0  0  0  0  0  0
    4.5223  -19.5157   20.4679 C   0  0  0  0  0  0  0  0  0  0  0  0
    4.8614  -20.2598   21.4566 O   0  0  0  0  0  0  0  0  0  0  0  0
    5.5886  -18.7917   19.9000 N   0  0  0  0  0  0  0  0  0  0  0  0
    6.9426  -18.8558   20.4072 C   0  0  1  0  0  0  0  0  0  0  0  0
    7.9560  -18.2766   19.4458 C   0  0  0  0  0  0  0  0  0  0  0  0
    9.3245  -18.5402   20.0325 C   0  0  0  0  0  0  0  0  0  0  0  0
   10.3490  -18.8516   18.9693 C   0  0  0  0  0  0  0  0  0  0  0  0
   11.7336  -19.0066   19.5854 C   0  0  0  0  0  0  0  0  0  0  0  0
   12.7477  -19.2570   18.5812 N   0  0  0  0  0  0  0  0  0  0  0  0
    7.0472  -18.2792   21.7694 C   0  0  0  0  0  0  0  0  0  0  0  0
    6.5698  -17.1291   21.9498 O   0  0  0  0  0  0  0  0  0  0  0  0
    5.5082  -18.0341   24.1212 O   0  0  0  0  0  0  0  0  0  0  0  0
    6.5934  -18.2748   24.9661 C   0  0  0  0  0  0  0  0  0  0  0  0
    7.8438  -18.2733   24.1146 C   0  0  2  0  0  0  0  0  0  0  0  0
    7.6442  -18.9418   22.8554 N   0  0  0  0  0  0  0  0  0  0  0  0
    8.9236  -18.8884   24.9196 C   0  0  0  0  0  0  0  0  0  0  0  0
    9.6877  -19.8738   24.3053 O   0  0  0  0  0  0  0  0  0  0  0  0
    9.1959  -18.5892   26.1006 O   0  0  0  0  0  0  0  0  0  0  0  0
  2  1  1  1
  3  2  1  0
  4  3  1  0
  5  6  2  0
  5  2  1  0
  7  5  1  0
  8  9  1  6
  8  7  1  0
 10 11  1  0
 10  9  1  0
 11 12  1  0
 12 13  1  0
 14  8  1  0
 15 14  2  0
 17 16  1  0
 18 17  1  1
 18 19  1  0
 19 14  1  0
 20 18  1  0
 20 21  1  0
 22 20  2  0
M  END
$$$$
