CKS.pdb
     RDKit          3D

 22 21  0  0  1  0  0  0  0  0999 V2000
    7.6167  -14.2426   18.0273 N   0  0  0  0  0  0  0  0  0  0  0  0
    8.6999  -13.9637   18.9965 C   0  0  1  0  0  0  0  0  0  0  0  0
    8.3494  -12.7088   19.7715 C   0  0  0  0  0  0  0  0  0  0  0  0
    9.2010  -11.2888   19.0576 S   0  0  0  0  0  0  0  0  0  0  0  0
    8.8184  -15.1641   19.8424 C   0  0  0  0  0  0  0  0  0  0  0  0
    7.7684  -15.8213   20.1770 O   0  0  0  0  0  0  0  0  0  0  0  0
   10.0184  -15.6990   20.3499 N   0  0  0  0  0  0  0  0  0  0  0  0
   10.0742  -16.9343   21.1021 C   0  0  1  0  0  0  0  0  0  0  0  0
   10.3805  -18.1346   20.2349 C   0  0  0  0  0  0  0  0  0  0  0  0
   10.2708  -19.3580   21.1168 C   0  0  0  0  0  0  0  0  0  0  0  0
   10.5415  -20.6332   20.3571 C   0  0  0  0  0  0  0  0  0  0  0  0
   10.3688  -21.8460   21.2627 C   0  0  0  0  0  0  0  0  0  0  0  0
   10.6165  -23.0873   20.5576 N   0  0  0  0  0  0  0  0  0  0  0  0
   10.9781  -16.8247   22.2725 C   0  0  0  0  0  0  0  0  0  0  0  0
   12.1443  -16.3996   22.0661 O   0  0  0  0  0  0  0  0  0  0  0  0
   11.8939  -17.2932   26.9829 O   0  0  0  0  0  0  0  0  0  0  0  0
   10.9016  -17.3914   26.0055 C   0  0  0  0  0  0  0  0  0  0  0  0
   11.5351  -17.0461   24.6758 C   0  0  2  0  0  0  0  0  0  0  0  0
   10.6050  -17.1665   23.5836 N   0  0  0  0  0  0  0  0  0  0  0  0
   12.7187  -17.9208   24.5132 C   0  0  0  0  0  0  0  0  0  0  0  0
   13.8840  -17.5360   25.1661 O   0  0  0  0  0  0  0  0  0  0  0  0
   12.7463  -18.9703   23.8380 O   0  0  0  0  0  0  0  0  0  0  0  0
  2  1  1  6
  3  2  1  0
  4  3  1  0
  5  6  2  0
  5  2  1  0
  7  5  1  0
  8  9  1  6
  8  7  1  0
 10 11  1  0
 10  9  1  0
 11 12  1  0
 12 13  1  0
 14  8  1  0
 15 14  2  0
 17 16  1  0
 18 17  1  1
 18 19  1  0
 19 14  1  0
 20 18  1  0
 20 21  1  0
 22 20  2  0
M  END
$$$$
