CKS.pdb
     RDKit          3D

 22 21  0  0  1  0  0  0  0  0999 V2000
    6.9194  -11.2735   25.5640 N   0  0  0  0  0  0  0  0  0  0  0  0
    7.4257  -12.3832   26.4023 C   0  0  1  0  0  0  0  0  0  0  0  0
    6.5221  -12.5332   27.6102 C   0  0  0  0  0  0  0  0  0  0  0  0
    4.8082  -12.7043   27.0767 S   0  0  0  0  0  0  0  0  0  0  0  0
    7.4553  -13.5757   25.5375 C   0  0  0  0  0  0  0  0  0  0  0  0
    7.2338  -14.7371   26.0359 O   0  0  0  0  0  0  0  0  0  0  0  0
    7.7118  -13.5828   24.1527 N   0  0  0  0  0  0  0  0  0  0  0  0
    7.9194  -14.7992   23.3963 C   0  0  1  0  0  0  0  0  0  0  0  0
    7.6394  -14.6259   21.9204 C   0  0  0  0  0  0  0  0  0  0  0  0
    7.8485  -15.9742   21.2685 C   0  0  0  0  0  0  0  0  0  0  0  0
    7.6269  -15.9254   19.7767 C   0  0  0  0  0  0  0  0  0  0  0  0
    7.6579  -17.3276   19.1821 C   0  0  0  0  0  0  0  0  0  0  0  0
    7.3146  -17.3259   17.7744 N   0  0  0  0  0  0  0  0  0  0  0  0
    9.2524  -15.3916   23.6631 C   0  0  0  0  0  0  0  0  0  0  0  0
   10.2617  -14.6828   23.4141 O   0  0  0  0  0  0  0  0  0  0  0  0
    9.9086  -18.0616   26.4557 O   0  0  0  0  0  0  0  0  0  0  0  0
   11.0044  -17.3705   25.9350 C   0  0  0  0  0  0  0  0  0  0  0  0
   10.7655  -17.1866   24.4525 C   0  0  2  0  0  0  0  0  0  0  0  0
    9.4446  -16.6870   24.1732 N   0  0  0  0  0  0  0  0  0  0  0  0
   11.0297  -18.4896   23.8006 C   0  0  0  0  0  0  0  0  0  0  0  0
    9.9881  -19.0571   23.0759 O   0  0  0  0  0  0  0  0  0  0  0  0
   12.1112  -19.1108   23.8536 O   0  0  0  0  0  0  0  0  0  0  0  0
  2  1  1  6
  3  2  1  0
  4  3  1  0
  5  6  2  0
  5  2  1  0
  7  5  1  0
  8  9  1  6
  8  7  1  0
 10 11  1  0
 10  9  1  0
 11 12  1  0
 12 13  1  0
 14  8  1  0
 15 14  2  0
 17 16  1  0
 18 17  1  1
 18 19  1  0
 19 14  1  0
 20 18  1  0
 20 21  1  0
 22 20  2  0
M  END
$$$$
