QGN.pdb
     RDKit          3D

 22 21  0  0  1  0  0  0  0  0999 V2000
    8.9103  -12.0571   19.5253 N   0  0  0  0  0  0  0  0  0  0  0  0
    8.2107  -13.0920   18.8079 C   0  0  0  0  0  0  0  0  0  0  0  0
    8.7003  -13.4603   17.7103 O   0  0  0  0  0  0  0  0  0  0  0  0
    6.9656  -13.6863   19.3580 C   0  0  0  0  0  0  0  0  0  0  0  0
    7.0653  -13.6636   20.8537 C   0  0  0  0  0  0  0  0  0  0  0  0
    8.1307  -14.6093   21.3757 C   0  0  2  0  0  0  0  0  0  0  0  0
    8.1284  -15.8241   20.5997 N   0  0  0  0  0  0  0  0  0  0  0  0
    7.8006  -14.8800   22.7917 C   0  0  0  0  0  0  0  0  0  0  0  0
    7.5181  -13.9173   23.5359 O   0  0  0  0  0  0  0  0  0  0  0  0
    7.8014  -16.1957   23.3024 N   0  0  0  0  0  0  0  0  0  0  0  0
    7.5198  -16.5291   24.6762 C   0  0  0  0  0  0  0  0  0  0  0  0
    8.7252  -16.3098   25.5416 C   0  0  0  0  0  0  0  0  0  0  0  0
    9.8788  -16.1960   25.0609 O   0  0  0  0  0  0  0  0  0  0  0  0
    8.3348  -12.7900   28.0657 N   0  0  0  0  0  0  0  0  0  0  0  0
    9.4478  -13.6579   27.9119 C   0  0  0  0  0  0  0  0  0  0  0  0
   10.3257  -13.2856   27.0861 O   0  0  0  0  0  0  0  0  0  0  0  0
    9.5532  -14.9109   28.6776 C   0  0  0  0  0  0  0  0  0  0  0  0
    9.8010  -16.0897   27.7815 C   0  0  2  0  0  0  0  0  0  0  0  0
    8.5949  -16.2229   26.9544 N   0  0  0  0  0  0  0  0  0  0  0  0
   10.0640  -17.3357   28.5197 C   0  0  0  0  0  0  0  0  0  0  0  0
   11.0463  -17.4440   29.3110 O   0  0  0  0  0  0  0  0  0  0  0  0
    9.2475  -18.4425   28.3806 O   0  0  0  0  0  0  0  0  0  0  0  0
  1  2  1  0
  2  4  1  0
  2  3  2  0
  4  5  1  0
  5  6  1  0
  6  8  1  0
  6  7  1  6
  8  9  2  0
 10  8  1  0
 10 11  1  0
 11 12  1  0
 12 19  1  0
 12 13  2  0
 15 14  1  0
 15 17  1  0
 16 15  2  0
 18 17  1  1
 18 20  1  0
 19 18  1  0
 20 22  1  0
 21 20  2  0
M  END
$$$$
