QGN.pdb
     RDKit          3D

 22 21  0  0  1  0  0  0  0  0999 V2000
    8.4395  -12.0232   18.7841 N   0  0  0  0  0  0  0  0  0  0  0  0
    7.8609  -13.3369   18.6638 C   0  0  0  0  0  0  0  0  0  0  0  0
    7.8981  -13.8782   17.5299 O   0  0  0  0  0  0  0  0  0  0  0  0
    7.2510  -14.0067   19.8408 C   0  0  0  0  0  0  0  0  0  0  0  0
    8.3568  -14.6159   20.6493 C   0  0  0  0  0  0  0  0  0  0  0  0
    8.0322  -16.0277   21.1001 C   0  0  2  0  0  0  0  0  0  0  0  0
    7.0060  -16.5863   20.2559 N   0  0  0  0  0  0  0  0  0  0  0  0
    7.5747  -15.9303   22.5030 C   0  0  0  0  0  0  0  0  0  0  0  0
    6.3826  -15.6306   22.7253 O   0  0  0  0  0  0  0  0  0  0  0  0
    8.4587  -16.1693   23.5770 N   0  0  0  0  0  0  0  0  0  0  0  0
    8.0661  -16.1592   24.9640 C   0  0  0  0  0  0  0  0  0  0  0  0
    9.2497  -16.3727   25.8603 C   0  0  0  0  0  0  0  0  0  0  0  0
   10.3698  -16.7200   25.4137 O   0  0  0  0  0  0  0  0  0  0  0  0
    9.0860  -13.2460   28.8060 N   0  0  0  0  0  0  0  0  0  0  0  0
   10.2385  -14.0726   28.7433 C   0  0  0  0  0  0  0  0  0  0  0  0
   11.2667  -13.5455   28.2370 O   0  0  0  0  0  0  0  0  0  0  0  0
   10.2158  -15.4572   29.2432 C   0  0  0  0  0  0  0  0  0  0  0  0
   10.2975  -16.4532   28.1227 C   0  0  2  0  0  0  0  0  0  0  0  0
    9.1363  -16.1851   27.2648 N   0  0  0  0  0  0  0  0  0  0  0  0
   10.2891  -17.8504   28.5855 C   0  0  0  0  0  0  0  0  0  0  0  0
    9.2504  -18.5700   28.5062 O   0  0  0  0  0  0  0  0  0  0  0  0
   11.4174  -18.4378   29.1268 O   0  0  0  0  0  0  0  0  0  0  0  0
  1  2  1  0
  2  4  1  0
  2  3  2  0
  4  5  1  0
  5  6  1  0
  6  8  1  0
  6  7  1  6
  8  9  2  0
 10  8  1  0
 10 11  1  0
 11 12  1  0
 12 19  1  0
 12 13  2  0
 15 14  1  0
 15 17  1  0
 16 15  2  0
 18 17  1  1
 18 20  1  0
 19 18  1  0
 20 22  1  0
 21 20  2  0
M  END
$$$$
