QGN.pdb
     RDKit          3D

 22 21  0  0  1  0  0  0  0  0999 V2000
    6.5565  -13.1134   20.5023 N   0  0  0  0  0  0  0  0  0  0  0  0
    7.5798  -13.1292   19.4885 C   0  0  0  0  0  0  0  0  0  0  0  0
    8.2706  -12.0876   19.3547 O   0  0  0  0  0  0  0  0  0  0  0  0
    7.7943  -14.3344   18.6473 C   0  0  0  0  0  0  0  0  0  0  0  0
    7.2585  -15.5192   19.3935 C   0  0  0  0  0  0  0  0  0  0  0  0
    7.4716  -16.8196   18.6416 C   0  0  2  0  0  0  0  0  0  0  0  0
    6.8008  -17.8958   19.3270 N   0  0  0  0  0  0  0  0  0  0  0  0
    8.9321  -17.0465   18.5924 C   0  0  0  0  0  0  0  0  0  0  0  0
    9.6516  -16.1988   18.0230 O   0  0  0  0  0  0  0  0  0  0  0  0
    9.5122  -18.1943   19.1740 N   0  0  0  0  0  0  0  0  0  0  0  0
    9.6081  -18.4192   20.5946 C   0  0  0  0  0  0  0  0  0  0  0  0
   10.7672  -17.6696   21.1815 C   0  0  0  0  0  0  0  0  0  0  0  0
   11.3248  -16.7232   20.5746 O   0  0  0  0  0  0  0  0  0  0  0  0
   11.4846  -15.9664   26.8834 N   0  0  0  0  0  0  0  0  0  0  0  0
   11.8317  -15.9804   25.5068 C   0  0  0  0  0  0  0  0  0  0  0  0
   12.6887  -15.1276   25.1469 O   0  0  0  0  0  0  0  0  0  0  0  0
   11.2185  -16.9386   24.5723 C   0  0  0  0  0  0  0  0  0  0  0  0
   11.9569  -16.9898   23.2661 C   0  0  2  0  0  0  0  0  0  0  0  0
   11.2769  -18.0140   22.4630 N   0  0  0  0  0  0  0  0  0  0  0  0
   13.3848  -17.3133   23.4181 C   0  0  0  0  0  0  0  0  0  0  0  0
   14.1771  -16.5457   24.0394 O   0  0  0  0  0  0  0  0  0  0  0  0
   13.9223  -18.4716   22.8885 O   0  0  0  0  0  0  0  0  0  0  0  0
  1  2  1  0
  2  4  1  0
  2  3  2  0
  4  5  1  0
  5  6  1  0
  6  8  1  0
  6  7  1  1
  8  9  2  0
 10  8  1  0
 10 11  1  0
 11 12  1  0
 12 19  1  0
 12 13  2  0
 15 14  1  0
 15 17  1  0
 16 15  2  0
 18 17  1  1
 18 20  1  0
 19 18  1  0
 20 22  1  0
 21 20  2  0
M  END
$$$$
