QGN.pdb
     RDKit          3D

 22 21  0  0  1  0  0  0  0  0999 V2000
   11.0631  -15.1945   17.7717 N   0  0  0  0  0  0  0  0  0  0  0  0
   11.3875  -13.9816   18.4779 C   0  0  0  0  0  0  0  0  0  0  0  0
   12.5799  -13.8349   18.8478 O   0  0  0  0  0  0  0  0  0  0  0  0
   10.3439  -12.9598   18.7478 C   0  0  0  0  0  0  0  0  0  0  0  0
    9.0558  -13.4487   18.1568 C   0  0  0  0  0  0  0  0  0  0  0  0
    7.8829  -13.2726   19.1030 C   0  0  2  0  0  0  0  0  0  0  0  0
    8.2290  -12.3338   20.1406 N   0  0  0  0  0  0  0  0  0  0  0  0
    7.5893  -14.6077   19.6674 C   0  0  0  0  0  0  0  0  0  0  0  0
    7.3246  -15.5444   18.8846 O   0  0  0  0  0  0  0  0  0  0  0  0
    7.6052  -14.8301   21.0611 N   0  0  0  0  0  0  0  0  0  0  0  0
    7.2778  -16.0893   21.6818 C   0  0  0  0  0  0  0  0  0  0  0  0
    8.4825  -16.6953   22.3387 C   0  0  0  0  0  0  0  0  0  0  0  0
    8.4402  -17.8138   22.9061 O   0  0  0  0  0  0  0  0  0  0  0  0
   12.3246  -15.2821   20.0288 N   0  0  0  0  0  0  0  0  0  0  0  0
   12.2454  -16.2932   21.0221 C   0  0  0  0  0  0  0  0  0  0  0  0
   12.3134  -17.4816   20.6042 O   0  0  0  0  0  0  0  0  0  0  0  0
   12.0931  -15.9564   22.4472 C   0  0  0  0  0  0  0  0  0  0  0  0
   10.8739  -16.5993   23.0423 C   0  0  2  0  0  0  0  0  0  0  0  0
    9.7279  -16.0100   22.3381 N   0  0  0  0  0  0  0  0  0  0  0  0
   10.7553  -16.3877   24.4941 C   0  0  0  0  0  0  0  0  0  0  0  0
   11.5317  -16.9601   25.3142 O   0  0  0  0  0  0  0  0  0  0  0  0
    9.7898  -15.5527   25.0248 O   0  0  0  0  0  0  0  0  0  0  0  0
  1  2  1  0
  2  4  1  0
  2  3  2  0
  4  5  1  0
  5  6  1  0
  6  8  1  0
  6  7  1  1
  8  9  2  0
 10  8  1  0
 10 11  1  0
 11 12  1  0
 12 19  1  0
 12 13  2  0
 15 14  1  0
 15 17  1  0
 16 15  2  0
 18 17  1  6
 18 20  1  0
 19 18  1  0
 20 22  1  0
 21 20  2  0
M  END
$$$$
