QGN.pdb
     RDKit          3D

 22 21  0  0  1  0  0  0  0  0999 V2000
    8.6954  -12.5837   17.1798 N   0  0  0  0  0  0  0  0  0  0  0  0
    8.2129  -13.6569   18.0107 C   0  0  0  0  0  0  0  0  0  0  0  0
    8.7670  -14.7776   17.8791 O   0  0  0  0  0  0  0  0  0  0  0  0
    7.1072  -13.4294   18.9759 C   0  0  0  0  0  0  0  0  0  0  0  0
    7.6857  -13.4709   20.3584 C   0  0  0  0  0  0  0  0  0  0  0  0
    7.6453  -14.8633   20.9596 C   0  0  2  0  0  0  0  0  0  0  0  0
    6.2916  -15.1993   21.3234 N   0  0  0  0  0  0  0  0  0  0  0  0
    8.5265  -14.8382   22.1470 C   0  0  0  0  0  0  0  0  0  0  0  0
    8.0569  -14.4395   23.2337 O   0  0  0  0  0  0  0  0  0  0  0  0
    9.8727  -15.2545   22.0655 N   0  0  0  0  0  0  0  0  0  0  0  0
   10.7988  -15.2145   23.1695 C   0  0  0  0  0  0  0  0  0  0  0  0
   10.1692  -15.7520   24.4203 C   0  0  0  0  0  0  0  0  0  0  0  0
    9.7481  -14.9985   25.3312 O   0  0  0  0  0  0  0  0  0  0  0  0
    7.4673  -20.3951   26.8129 N   0  0  0  0  0  0  0  0  0  0  0  0
    7.7652  -19.0083   26.8733 C   0  0  0  0  0  0  0  0  0  0  0  0
    7.5967  -18.4579   27.9958 O   0  0  0  0  0  0  0  0  0  0  0  0
    8.2402  -18.2749   25.6885 C   0  0  0  0  0  0  0  0  0  0  0  0
    9.5889  -17.6578   25.9216 C   0  0  2  0  0  0  0  0  0  0  0  0
   10.0283  -17.1531   24.6146 N   0  0  0  0  0  0  0  0  0  0  0  0
   10.5739  -18.6041   26.4702 C   0  0  0  0  0  0  0  0  0  0  0  0
   10.7167  -18.7652   27.7178 O   0  0  0  0  0  0  0  0  0  0  0  0
   11.3860  -19.3592   25.6447 O   0  0  0  0  0  0  0  0  0  0  0  0
  1  2  1  0
  2  4  1  0
  2  3  2  0
  4  5  1  0
  5  6  1  0
  6  8  1  0
  6  7  1  1
  8  9  2  0
 10  8  1  0
 10 11  1  0
 11 12  1  0
 12 19  1  0
 12 13  2  0
 15 14  1  0
 15 17  1  0
 16 15  2  0
 18 17  1  6
 18 20  1  0
 19 18  1  0
 20 22  1  0
 21 20  2  0
M  END
$$$$
