QGN.pdb
     RDKit          3D

 22 21  0  0  1  0  0  0  0  0999 V2000
   -1.2195  -18.8359   22.8735 N   0  0  0  0  0  0  0  0  0  0  0  0
   -1.0814  -20.2138   23.2701 C   0  0  0  0  0  0  0  0  0  0  0  0
   -2.0232  -20.7166   23.9338 O   0  0  0  0  0  0  0  0  0  0  0  0
    0.1294  -20.9908   22.9010 C   0  0  0  0  0  0  0  0  0  0  0  0
    1.0233  -20.0968   22.0952 C   0  0  0  0  0  0  0  0  0  0  0  0
    2.3266  -20.7742   21.7153 C   0  0  2  0  0  0  0  0  0  0  0  0
    3.0135  -21.2135   22.9041 N   0  0  0  0  0  0  0  0  0  0  0  0
    3.1256  -19.7727   20.9767 C   0  0  0  0  0  0  0  0  0  0  0  0
    2.7300  -19.4018   19.8514 O   0  0  0  0  0  0  0  0  0  0  0  0
    4.3129  -19.2397   21.5229 N   0  0  0  0  0  0  0  0  0  0  0  0
    5.1499  -18.2771   20.8515 C   0  0  0  0  0  0  0  0  0  0  0  0
    6.3526  -17.9377   21.6811 C   0  0  0  0  0  0  0  0  0  0  0  0
    7.2368  -17.1432   21.2789 O   0  0  0  0  0  0  0  0  0  0  0  0
    6.0522  -16.2599   24.0404 N   0  0  0  0  0  0  0  0  0  0  0  0
    6.5176  -16.9476   25.1919 C   0  0  0  0  0  0  0  0  0  0  0  0
    6.0513  -16.5517   26.2952 O   0  0  0  0  0  0  0  0  0  0  0  0
    7.4850  -18.0523   25.0851 C   0  0  0  0  0  0  0  0  0  0  0  0
    7.8188  -18.3613   23.6543 C   0  0  2  0  0  0  0  0  0  0  0  0
    6.5298  -18.5149   22.9679 N   0  0  0  0  0  0  0  0  0  0  0  0
    8.6378  -19.5742   23.4976 C   0  0  0  0  0  0  0  0  0  0  0  0
    8.1853  -20.6126   22.9320 O   0  0  0  0  0  0  0  0  0  0  0  0
    9.9388  -19.6310   23.9616 O   0  0  0  0  0  0  0  0  0  0  0  0
  1  2  1  0
  2  4  1  0
  2  3  2  0
  4  5  1  0
  5  6  1  0
  6  8  1  0
  6  7  1  1
  8  9  2  0
 10  8  1  0
 10 11  1  0
 11 12  1  0
 12 19  1  0
 12 13  2  0
 15 14  1  0
 15 17  1  0
 16 15  2  0
 18 17  1  1
 18 20  1  0
 19 18  1  0
 20 22  1  0
 21 20  2  0
M  END
$$$$
