QGN.pdb
     RDKit          3D

 22 21  0  0  1  0  0  0  0  0999 V2000
    8.8030  -12.4896   17.0544 N   0  0  0  0  0  0  0  0  0  0  0  0
    8.4984  -13.6357   17.8722 C   0  0  0  0  0  0  0  0  0  0  0  0
    9.4189  -14.4725   18.0524 O   0  0  0  0  0  0  0  0  0  0  0  0
    7.1484  -13.8038   18.4682 C   0  0  0  0  0  0  0  0  0  0  0  0
    7.2000  -13.2962   19.8779 C   0  0  0  0  0  0  0  0  0  0  0  0
    8.1917  -14.0637   20.7319 C   0  0  2  0  0  0  0  0  0  0  0  0
    7.9652  -15.4802   20.5900 N   0  0  0  0  0  0  0  0  0  0  0  0
    7.9768  -13.6262   22.1281 C   0  0  0  0  0  0  0  0  0  0  0  0
    7.9197  -12.4021   22.3707 O   0  0  0  0  0  0  0  0  0  0  0  0
    7.8375  -14.5642   23.1734 N   0  0  0  0  0  0  0  0  0  0  0  0
    7.5073  -14.2159   24.5327 C   0  0  0  0  0  0  0  0  0  0  0  0
    7.5028  -15.4297   25.4139 C   0  0  0  0  0  0  0  0  0  0  0  0
    7.1205  -15.3847   26.6083 O   0  0  0  0  0  0  0  0  0  0  0  0
    5.7938  -17.8178   24.8780 N   0  0  0  0  0  0  0  0  0  0  0  0
    6.5866  -18.9892   24.7561 C   0  0  0  0  0  0  0  0  0  0  0  0
    6.0292  -19.9755   24.2012 O   0  0  0  0  0  0  0  0  0  0  0  0
    7.9720  -19.0312   25.2526 C   0  0  0  0  0  0  0  0  0  0  0  0
    8.3845  -17.7206   25.8577 C   0  0  2  0  0  0  0  0  0  0  0  0
    7.9383  -16.6874   24.9146 N   0  0  0  0  0  0  0  0  0  0  0  0
    9.8344  -17.6190   26.0908 C   0  0  0  0  0  0  0  0  0  0  0  0
   10.3960  -18.2199   27.0532 O   0  0  0  0  0  0  0  0  0  0  0  0
   10.6461  -16.8621   25.2666 O   0  0  0  0  0  0  0  0  0  0  0  0
  1  2  1  0
  2  4  1  0
  2  3  2  0
  4  5  1  0
  5  6  1  0
  6  8  1  0
  6  7  1  1
  8  9  2  0
 10  8  1  0
 10 11  1  0
 11 12  1  0
 12 19  1  0
 12 13  2  0
 15 14  1  0
 15 17  1  0
 16 15  2  0
 18 17  1  6
 18 20  1  0
 19 18  1  0
 20 22  1  0
 21 20  2  0
M  END
$$$$
