QGN.pdb
     RDKit          3D

 22 21  0  0  1  0  0  0  0  0999 V2000
    6.7614  -22.4741   23.0006 N   0  0  0  0  0  0  0  0  0  0  0  0
    6.3007  -23.4474   22.0437 C   0  0  0  0  0  0  0  0  0  0  0  0
    7.0903  -24.3801   21.7490 O   0  0  0  0  0  0  0  0  0  0  0  0
    4.9473  -23.3366   21.4420 C   0  0  0  0  0  0  0  0  0  0  0  0
    4.2328  -22.2056   22.1189 C   0  0  0  0  0  0  0  0  0  0  0  0
    4.6220  -20.8540   21.5501 C   0  0  2  0  0  0  0  0  0  0  0  0
    5.5281  -21.0322   20.4433 N   0  0  0  0  0  0  0  0  0  0  0  0
    5.2636  -20.1003   22.6490 C   0  0  0  0  0  0  0  0  0  0  0  0
    4.5482  -19.6703   23.5784 O   0  0  0  0  0  0  0  0  0  0  0  0
    6.6553  -19.8660   22.6576 N   0  0  0  0  0  0  0  0  0  0  0  0
    7.3573  -19.2095   23.7320 C   0  0  0  0  0  0  0  0  0  0  0  0
    8.2708  -20.1645   24.4414 C   0  0  0  0  0  0  0  0  0  0  0  0
    7.9025  -21.3177   24.7721 O   0  0  0  0  0  0  0  0  0  0  0  0
   12.0979  -22.1192   22.6713 N   0  0  0  0  0  0  0  0  0  0  0  0
   11.7276  -20.8600   23.2125 C   0  0  0  0  0  0  0  0  0  0  0  0
   11.3133  -20.0049   22.3827 O   0  0  0  0  0  0  0  0  0  0  0  0
   11.8280  -20.5875   24.6558 C   0  0  0  0  0  0  0  0  0  0  0  0
   10.5108  -20.7806   25.3499 C   0  0  2  0  0  0  0  0  0  0  0  0
    9.6020  -19.7862   24.7655 N   0  0  0  0  0  0  0  0  0  0  0  0
   10.5934  -20.6131   26.8100 C   0  0  0  0  0  0  0  0  0  0  0  0
   10.2249  -19.5431   27.3777 O   0  0  0  0  0  0  0  0  0  0  0  0
   11.0771  -21.6195   27.6252 O   0  0  0  0  0  0  0  0  0  0  0  0
  1  2  1  0
  2  4  1  0
  2  3  2  0
  4  5  1  0
  5  6  1  0
  6  8  1  0
  6  7  1  6
  8  9  2  0
 10  8  1  0
 10 11  1  0
 11 12  1  0
 12 19  1  0
 12 13  2  0
 15 14  1  0
 15 17  1  0
 16 15  2  0
 18 17  1  6
 18 20  1  0
 19 18  1  0
 20 22  1  0
 21 20  2  0
M  END
$$$$
