QGN.pdb
     RDKit          3D

 22 21  0  0  1  0  0  0  0  0999 V2000
    8.1468  -12.8339   15.9423 N   0  0  0  0  0  0  0  0  0  0  0  0
    8.2951  -14.2569   15.7743 C   0  0  0  0  0  0  0  0  0  0  0  0
    8.1808  -14.7116   14.6080 O   0  0  0  0  0  0  0  0  0  0  0  0
    8.5709  -15.1329   16.9416 C   0  0  0  0  0  0  0  0  0  0  0  0
    8.6025  -14.2710   18.1679 C   0  0  0  0  0  0  0  0  0  0  0  0
    8.8155  -15.0777   19.4351 C   0  0  2  0  0  0  0  0  0  0  0  0
    7.9949  -16.2624   19.4039 N   0  0  0  0  0  0  0  0  0  0  0  0
    8.4419  -14.1994   20.5648 C   0  0  0  0  0  0  0  0  0  0  0  0
    9.1693  -13.2183   20.8272 O   0  0  0  0  0  0  0  0  0  0  0  0
    7.2888  -14.4550   21.3373 N   0  0  0  0  0  0  0  0  0  0  0  0
    6.9312  -13.7177   22.5233 C   0  0  0  0  0  0  0  0  0  0  0  0
    7.3415  -14.4578   23.7618 C   0  0  0  0  0  0  0  0  0  0  0  0
    7.1371  -13.9979   24.9114 O   0  0  0  0  0  0  0  0  0  0  0  0
    5.6490  -18.7197   23.7355 N   0  0  0  0  0  0  0  0  0  0  0  0
    6.3494  -17.9219   24.6781 C   0  0  0  0  0  0  0  0  0  0  0  0
    5.6341  -17.2834   25.4978 O   0  0  0  0  0  0  0  0  0  0  0  0
    7.8202  -17.8563   24.6829 C   0  0  0  0  0  0  0  0  0  0  0  0
    8.3125  -16.4545   24.8988 C   0  0  2  0  0  0  0  0  0  0  0  0
    7.9841  -15.7223   23.6691 N   0  0  0  0  0  0  0  0  0  0  0  0
    9.7562  -16.3819   25.1760 C   0  0  0  0  0  0  0  0  0  0  0  0
   10.5822  -15.9934   24.2987 O   0  0  0  0  0  0  0  0  0  0  0  0
   10.2726  -16.7349   26.4089 O   0  0  0  0  0  0  0  0  0  0  0  0
  1  2  1  0
  2  4  1  0
  2  3  2  0
  4  5  1  0
  5  6  1  0
  6  8  1  0
  6  7  1  6
  8  9  2  0
 10  8  1  0
 10 11  1  0
 11 12  1  0
 12 19  1  0
 12 13  2  0
 15 14  1  0
 15 17  1  0
 16 15  2  0
 18 17  1  6
 18 20  1  0
 19 18  1  0
 20 22  1  0
 21 20  2  0
M  END
$$$$
