QGN.pdb
     RDKit          3D

 22 21  0  0  1  0  0  0  0  0999 V2000
    8.6459  -12.1878   19.3386 N   0  0  0  0  0  0  0  0  0  0  0  0
    8.3470  -13.3062   18.4813 C   0  0  0  0  0  0  0  0  0  0  0  0
    9.0623  -13.4515   17.4579 O   0  0  0  0  0  0  0  0  0  0  0  0
    7.2370  -14.2369   18.8095 C   0  0  0  0  0  0  0  0  0  0  0  0
    7.1103  -14.2956   20.3022 C   0  0  0  0  0  0  0  0  0  0  0  0
    8.3689  -14.8192   20.9682 C   0  0  2  0  0  0  0  0  0  0  0  0
    8.7948  -16.0347   20.3208 N   0  0  0  0  0  0  0  0  0  0  0  0
    8.0287  -15.0612   22.3869 C   0  0  0  0  0  0  0  0  0  0  0  0
    7.3331  -14.2163   22.9891 O   0  0  0  0  0  0  0  0  0  0  0  0
    8.4755  -16.2204   23.0569 N   0  0  0  0  0  0  0  0  0  0  0  0
    8.2042  -16.5072   24.4433 C   0  0  0  0  0  0  0  0  0  0  0  0
    9.1474  -15.7635   25.3417 C   0  0  0  0  0  0  0  0  0  0  0  0
   10.2688  -15.3630   24.9455 O   0  0  0  0  0  0  0  0  0  0  0  0
    8.7062  -11.8192   26.3788 N   0  0  0  0  0  0  0  0  0  0  0  0
    8.0913  -12.8566   27.1280 C   0  0  0  0  0  0  0  0  0  0  0  0
    6.8772  -13.0784   26.8670 O   0  0  0  0  0  0  0  0  0  0  0  0
    8.8406  -13.6156   28.1428 C   0  0  0  0  0  0  0  0  0  0  0  0
    9.6980  -14.6789   27.5196 C   0  0  2  0  0  0  0  0  0  0  0  0
    8.7938  -15.4855   26.6901 N   0  0  0  0  0  0  0  0  0  0  0  0
   10.3868  -15.5237   28.5087 C   0  0  0  0  0  0  0  0  0  0  0  0
   11.2498  -15.0472   29.3031 O   0  0  0  0  0  0  0  0  0  0  0  0
   10.1196  -16.8761   28.6129 O   0  0  0  0  0  0  0  0  0  0  0  0
  1  2  1  0
  2  4  1  0
  2  3  2  0
  4  5  1  0
  5  6  1  0
  6  8  1  0
  6  7  1  6
  8  9  2  0
 10  8  1  0
 10 11  1  0
 11 12  1  0
 12 19  1  0
 12 13  2  0
 15 14  1  0
 15 17  1  0
 16 15  2  0
 18 17  1  1
 18 20  1  0
 19 18  1  0
 20 22  1  0
 21 20  2  0
M  END
$$$$
