QGN.pdb
     RDKit          3D

 22 21  0  0  1  0  0  0  0  0999 V2000
    7.4796  -13.7201   21.5287 N   0  0  0  0  0  0  0  0  0  0  0  0
    7.1367  -12.5087   20.8287 C   0  0  0  0  0  0  0  0  0  0  0  0
    6.1578  -11.8518   21.2649 O   0  0  0  0  0  0  0  0  0  0  0  0
    7.9185  -12.0711   19.6441 C   0  0  0  0  0  0  0  0  0  0  0  0
    9.1666  -12.8996   19.5833 C   0  0  0  0  0  0  0  0  0  0  0  0
    8.9852  -14.1566   18.7533 C   0  0  2  0  0  0  0  0  0  0  0  0
    7.6125  -14.5916   18.8190 N   0  0  0  0  0  0  0  0  0  0  0  0
    9.8954  -15.1746   19.3210 C   0  0  0  0  0  0  0  0  0  0  0  0
    9.4570  -15.9481   20.1984 O   0  0  0  0  0  0  0  0  0  0  0  0
   11.2345  -15.2791   18.8873 N   0  0  0  0  0  0  0  0  0  0  0  0
   12.1348  -16.3298   19.2915 C   0  0  0  0  0  0  0  0  0  0  0  0
   12.7981  -15.9987   20.5955 C   0  0  0  0  0  0  0  0  0  0  0  0
   13.4621  -14.9461   20.7570 O   0  0  0  0  0  0  0  0  0  0  0  0
   11.6896  -15.6113   24.8690 N   0  0  0  0  0  0  0  0  0  0  0  0
   12.0067  -16.9947   24.9017 C   0  0  0  0  0  0  0  0  0  0  0  0
   11.4202  -17.6727   25.7893 O   0  0  0  0  0  0  0  0  0  0  0  0
   12.9636  -17.5837   23.9504 C   0  0  0  0  0  0  0  0  0  0  0  0
   13.4301  -16.5778   22.9381 C   0  0  2  0  0  0  0  0  0  0  0  0
   12.6927  -16.8810   21.7050 N   0  0  0  0  0  0  0  0  0  0  0  0
   14.8818  -16.6241   22.6993 C   0  0  0  0  0  0  0  0  0  0  0  0
   15.3877  -17.3940   21.8308 O   0  0  0  0  0  0  0  0  0  0  0  0
   15.7561  -15.8267   23.4140 O   0  0  0  0  0  0  0  0  0  0  0  0
  1  2  1  0
  2  4  1  0
  2  3  2  0
  4  5  1  0
  5  6  1  0
  6  8  1  0
  6  7  1  1
  8  9  2  0
 10  8  1  0
 10 11  1  0
 11 12  1  0
 12 19  1  0
 12 13  2  0
 15 14  1  0
 15 17  1  0
 16 15  2  0
 18 17  1  1
 18 20  1  0
 19 18  1  0
 20 22  1  0
 21 20  2  0
M  END
$$$$
