QGN.pdb
     RDKit          3D

 22 21  0  0  1  0  0  0  0  0999 V2000
    7.8232  -14.5789   18.1892 N   0  0  0  0  0  0  0  0  0  0  0  0
    7.8372  -13.1773   18.5218 C   0  0  0  0  0  0  0  0  0  0  0  0
    8.2241  -12.3802   17.6302 O   0  0  0  0  0  0  0  0  0  0  0  0
    7.4089  -12.7134   19.8662 C   0  0  0  0  0  0  0  0  0  0  0  0
    6.8908  -13.9009   20.6206 C   0  0  0  0  0  0  0  0  0  0  0  0
    7.9952  -14.8677   21.0046 C   0  0  2  0  0  0  0  0  0  0  0  0
    7.8334  -16.1055   20.2838 N   0  0  0  0  0  0  0  0  0  0  0  0
    7.8837  -15.0812   22.4637 C   0  0  0  0  0  0  0  0  0  0  0  0
    8.0885  -14.1149   23.2283 O   0  0  0  0  0  0  0  0  0  0  0  0
    7.5528  -16.3472   22.9926 N   0  0  0  0  0  0  0  0  0  0  0  0
    7.3180  -16.6018   24.3919 C   0  0  0  0  0  0  0  0  0  0  0  0
    8.5858  -16.4719   25.1831 C   0  0  0  0  0  0  0  0  0  0  0  0
    9.6902  -16.2325   24.6374 O   0  0  0  0  0  0  0  0  0  0  0  0
    9.6316  -13.8118   26.4128 N   0  0  0  0  0  0  0  0  0  0  0  0
    9.4308  -14.0245   27.8021 C   0  0  0  0  0  0  0  0  0  0  0  0
    9.1948  -12.9926   28.4882 O   0  0  0  0  0  0  0  0  0  0  0  0
    9.4978  -15.3737   28.3876 C   0  0  0  0  0  0  0  0  0  0  0  0
    9.8166  -16.4129   27.3520 C   0  0  2  0  0  0  0  0  0  0  0  0
    8.5740  -16.6183   26.5969 N   0  0  0  0  0  0  0  0  0  0  0  0
   10.2891  -17.6821   27.9287 C   0  0  0  0  0  0  0  0  0  0  0  0
   11.3701  -17.7521   28.5839 O   0  0  0  0  0  0  0  0  0  0  0  0
    9.5707  -18.8538   27.7796 O   0  0  0  0  0  0  0  0  0  0  0  0
  1  2  1  0
  2  4  1  0
  2  3  2  0
  4  5  1  0
  5  6  1  0
  6  8  1  0
  6  7  1  6
  8  9  2  0
 10  8  1  0
 10 11  1  0
 11 12  1  0
 12 19  1  0
 12 13  2  0
 15 14  1  0
 15 17  1  0
 16 15  2  0
 18 17  1  1
 18 20  1  0
 19 18  1  0
 20 22  1  0
 21 20  2  0
M  END
$$$$
