PGH.pdb
     RDKit          3D

 22 23  0  0  1  0  0  0  0  0999 V2000
    7.5631  -15.5907   20.4471 N   0  0  0  0  0  0  0  0  0  0  0  0
    6.4509  -14.6936   20.5126 C   0  0  0  0  0  0  0  0  0  0  0  0
    6.9377  -13.3273   20.0786 C   0  0  0  0  0  0  0  0  0  0  0  0
    8.4058  -13.3822   20.4449 C   0  0  0  0  0  0  0  0  0  0  0  0
    8.7306  -14.8412   20.1083 C   0  0  1  0  0  0  0  0  0  0  0  0
    9.9429  -15.3010   20.8356 C   0  0  0  0  0  0  0  0  0  0  0  0
   11.0096  -14.6827   20.6922 O   0  0  0  0  0  0  0  0  0  0  0  0
    9.8393  -16.4417   21.6770 N   0  0  0  0  0  0  0  0  0  0  0  0
   10.9822  -16.9185   22.4028 C   0  0  0  0  0  0  0  0  0  0  0  0
   10.7683  -16.8083   23.8692 C   0  0  0  0  0  0  0  0  0  0  0  0
   11.7624  -16.5889   24.6102 O   0  0  0  0  0  0  0  0  0  0  0  0
    9.4960  -16.9391   24.4687 N   0  0  0  0  0  0  0  0  0  0  0  0
    9.3417  -16.8607   25.9551 C   0  0  1  0  0  0  0  0  0  0  0  0
    7.9952  -16.3171   26.2328 C   0  0  0  0  0  0  0  0  0  0  0  0
    7.7364  -14.9267   25.8570 C   0  0  0  0  0  0  0  0  0  0  0  0
    8.5553  -13.8455   25.6965 C   0  0  0  0  0  0  0  0  0  0  0  0
    7.8529  -12.7555   25.2754 N   0  0  0  0  0  0  0  0  0  0  0  0
    6.5954  -13.1813   25.1787 C   0  0  0  0  0  0  0  0  0  0  0  0
    6.4940  -14.4690   25.5178 N   0  0  0  0  0  0  0  0  0  0  0  0
    9.5225  -18.2672   26.3971 C   0  0  0  0  0  0  0  0  0  0  0  0
    9.4656  -19.2074   25.5493 O   0  0  0  0  0  0  0  0  0  0  0  0
    9.7524  -18.6360   27.6950 O   0  0  0  0  0  0  0  0  0  0  0  0
  1  2  1  0
  1  5  1  0
  2  3  1  0
  3  4  1  0
  5  4  1  0
  5  6  1  1
  6  7  2  0
  8  9  1  0
  8  6  1  0
  9 10  1  0
 10 12  1  0
 10 11  2  0
 12 13  1  0
 13 14  1  6
 14 15  1  0
 15 16  2  0
 16 17  1  0
 18 17  1  0
 19 15  1  0
 19 18  2  0
 20 13  1  0
 20 22  1  0
 21 20  2  0
M  END
$$$$
