PGH.pdb
     RDKit          3D

 22 23  0  0  1  0  0  0  0  0999 V2000
    7.6086  -15.4089   17.5456 N   0  0  0  0  0  0  0  0  0  0  0  0
    6.9430  -14.2114   17.9567 C   0  0  0  0  0  0  0  0  0  0  0  0
    7.5747  -13.0561   17.2094 C   0  0  0  0  0  0  0  0  0  0  0  0
    8.9735  -13.5737   16.9485 C   0  0  0  0  0  0  0  0  0  0  0  0
    8.6853  -15.0538   16.6771 C   0  0  1  0  0  0  0  0  0  0  0  0
    9.8994  -15.8839   16.8937 C   0  0  0  0  0  0  0  0  0  0  0  0
   10.9326  -15.6288   16.2550 O   0  0  0  0  0  0  0  0  0  0  0  0
    9.8359  -16.9497   17.8317 N   0  0  0  0  0  0  0  0  0  0  0  0
   10.9889  -17.7657   18.0871 C   0  0  0  0  0  0  0  0  0  0  0  0
   11.8090  -17.2018   19.1905 C   0  0  0  0  0  0  0  0  0  0  0  0
   12.9273  -16.6937   18.9136 O   0  0  0  0  0  0  0  0  0  0  0  0
   11.3877  -17.2110   20.5388 N   0  0  0  0  0  0  0  0  0  0  0  0
   12.0862  -16.3714   21.5618 C   0  0  1  0  0  0  0  0  0  0  0  0
   11.0932  -15.4229   22.1095 C   0  0  0  0  0  0  0  0  0  0  0  0
   10.4708  -14.4820   21.1774 C   0  0  0  0  0  0  0  0  0  0  0  0
   10.9848  -13.6483   20.2256 C   0  0  0  0  0  0  0  0  0  0  0  0
    9.9923  -12.9950   19.5570 N   0  0  0  0  0  0  0  0  0  0  0  0
    8.8651  -13.4386   20.1089 C   0  0  0  0  0  0  0  0  0  0  0  0
    9.1169  -14.3247   21.0758 N   0  0  0  0  0  0  0  0  0  0  0  0
   12.5742  -17.3655   22.5516 C   0  0  0  0  0  0  0  0  0  0  0  0
   12.1872  -18.5701   22.4796 O   0  0  0  0  0  0  0  0  0  0  0  0
   13.4383  -17.0675   23.5704 O   0  0  0  0  0  0  0  0  0  0  0  0
  1  2  1  0
  1  5  1  0
  2  3  1  0
  3  4  1  0
  5  4  1  0
  5  6  1  1
  6  7  2  0
  8  9  1  0
  8  6  1  0
  9 10  1  0
 10 12  1  0
 10 11  2  0
 12 13  1  0
 13 14  1  1
 14 15  1  0
 15 16  2  0
 16 17  1  0
 18 17  1  0
 19 15  1  0
 19 18  2  0
 20 13  1  0
 20 22  1  0
 21 20  2  0
M  END
$$$$
