PGH.pdb
     RDKit          3D

 22 23  0  0  1  0  0  0  0  0999 V2000
    7.2755  -14.4300   19.9168 N   0  0  0  0  0  0  0  0  0  0  0  0
    7.1916  -13.0409   20.2475 C   0  0  0  0  0  0  0  0  0  0  0  0
    8.0053  -12.2763   19.2250 C   0  0  0  0  0  0  0  0  0  0  0  0
    9.0299  -13.3068   18.7996 C   0  0  0  0  0  0  0  0  0  0  0  0
    8.1803  -14.5816   18.8222 C   0  0  1  0  0  0  0  0  0  0  0  0
    9.0349  -15.7921   18.9431 C   0  0  0  0  0  0  0  0  0  0  0  0
    9.8974  -16.0166   18.0793 O   0  0  0  0  0  0  0  0  0  0  0  0
    8.8341  -16.6581   20.0520 N   0  0  0  0  0  0  0  0  0  0  0  0
    9.5523  -17.8972   20.1487 C   0  0  0  0  0  0  0  0  0  0  0  0
   10.8817  -17.6965   20.7815 C   0  0  0  0  0  0  0  0  0  0  0  0
   11.6847  -18.6656   20.8212 O   0  0  0  0  0  0  0  0  0  0  0  0
   11.2844  -16.4637   21.3413 N   0  0  0  0  0  0  0  0  0  0  0  0
   12.6295  -16.3197   21.9810 C   0  0  1  0  0  0  0  0  0  0  0  0
   13.2465  -15.0885   21.4432 C   0  0  0  0  0  0  0  0  0  0  0  0
   13.8946  -15.1729   20.1340 C   0  0  0  0  0  0  0  0  0  0  0  0
   14.0397  -16.1946   19.2393 C   0  0  0  0  0  0  0  0  0  0  0  0
   14.6808  -15.7732   18.1123 N   0  0  0  0  0  0  0  0  0  0  0  0
   14.9256  -14.4824   18.3260 C   0  0  0  0  0  0  0  0  0  0  0  0
   14.4695  -14.0955   19.5201 N   0  0  0  0  0  0  0  0  0  0  0  0
   12.3178  -16.2490   23.4315 C   0  0  0  0  0  0  0  0  0  0  0  0
   11.1147  -16.1374   23.8138 O   0  0  0  0  0  0  0  0  0  0  0  0
   13.2645  -16.2957   24.4190 O   0  0  0  0  0  0  0  0  0  0  0  0
  1  2  1  0
  1  5  1  0
  2  3  1  0
  3  4  1  0
  5  4  1  0
  5  6  1  1
  6  7  2  0
  8  9  1  0
  8  6  1  0
  9 10  1  0
 10 12  1  0
 10 11  2  0
 12 13  1  0
 13 14  1  6
 14 15  1  0
 15 16  2  0
 16 17  1  0
 18 17  1  0
 19 15  1  0
 19 18  2  0
 20 13  1  0
 20 22  1  0
 21 20  2  0
M  END
$$$$
