PGH.pdb
     RDKit          3D

 22 23  0  0  1  0  0  0  0  0999 V2000
    8.0834  -18.4391   19.9973 N   0  0  0  0  0  0  0  0  0  0  0  0
    7.3673  -19.6313   20.3315 C   0  0  0  0  0  0  0  0  0  0  0  0
    5.9739  -19.2239   20.7611 C   0  0  0  0  0  0  0  0  0  0  0  0
    6.2007  -17.8221   21.2867 C   0  0  0  0  0  0  0  0  0  0  0  0
    7.2575  -17.3141   20.3004 C   0  0  1  0  0  0  0  0  0  0  0  0
    8.0214  -16.1751   20.8743 C   0  0  0  0  0  0  0  0  0  0  0  0
    7.4208  -15.1336   21.1828 O   0  0  0  0  0  0  0  0  0  0  0  0
    9.4242  -16.3180   21.0519 N   0  0  0  0  0  0  0  0  0  0  0  0
   10.2016  -15.2465   21.6069 C   0  0  0  0  0  0  0  0  0  0  0  0
   10.1739  -15.2796   23.0922 C   0  0  0  0  0  0  0  0  0  0  0  0
   10.8322  -14.4151   23.7284 O   0  0  0  0  0  0  0  0  0  0  0  0
    9.4399  -16.2405   23.8225 N   0  0  0  0  0  0  0  0  0  0  0  0
    9.4262  -16.2139   25.3187 C   0  0  1  0  0  0  0  0  0  0  0  0
    8.0118  -16.2089   25.7488 C   0  0  0  0  0  0  0  0  0  0  0  0
    7.2849  -14.9415   25.6685 C   0  0  0  0  0  0  0  0  0  0  0  0
    7.4747  -13.7283   26.2664 C   0  0  0  0  0  0  0  0  0  0  0  0
    6.5587  -12.8173   25.8307 N   0  0  0  0  0  0  0  0  0  0  0  0
    5.8068  -13.4854   24.9588 C   0  0  0  0  0  0  0  0  0  0  0  0
    6.2142  -14.7517   24.8404 N   0  0  0  0  0  0  0  0  0  0  0  0
   10.1620  -17.4484   25.6941 C   0  0  0  0  0  0  0  0  0  0  0  0
   10.2828  -17.7643   26.9154 O   0  0  0  0  0  0  0  0  0  0  0  0
   10.7396  -18.2978   24.7895 O   0  0  0  0  0  0  0  0  0  0  0  0
  1  2  1  0
  1  5  1  0
  2  3  1  0
  3  4  1  0
  5  4  1  0
  5  6  1  1
  6  7  2  0
  8  9  1  0
  8  6  1  0
  9 10  1  0
 10 12  1  0
 10 11  2  0
 12 13  1  0
 13 14  1  1
 14 15  1  0
 15 16  2  0
 16 17  1  0
 18 17  1  0
 19 15  1  0
 19 18  2  0
 20 13  1  0
 20 22  1  0
 21 20  2  0
M  END
$$$$
