PGH.pdb
     RDKit          3D

 22 23  0  0  1  0  0  0  0  0999 V2000
    9.4140  -14.1690   18.9636 N   0  0  0  0  0  0  0  0  0  0  0  0
    8.7402  -13.6553   17.8112 C   0  0  0  0  0  0  0  0  0  0  0  0
    7.6111  -12.7711   18.2965 C   0  0  0  0  0  0  0  0  0  0  0  0
    7.2979  -13.3709   19.6511 C   0  0  0  0  0  0  0  0  0  0  0  0
    8.7037  -13.7484   20.1291 C   0  0  1  0  0  0  0  0  0  0  0  0
    8.6476  -14.7976   21.1808 C   0  0  0  0  0  0  0  0  0  0  0  0
    7.9924  -14.5888   22.2141 O   0  0  0  0  0  0  0  0  0  0  0  0
    9.3512  -16.0136   20.9663 N   0  0  0  0  0  0  0  0  0  0  0  0
    9.3220  -17.0565   21.9523 C   0  0  0  0  0  0  0  0  0  0  0  0
    9.6740  -16.5309   23.2969 C   0  0  0  0  0  0  0  0  0  0  0  0
   10.8624  -16.1767   23.5153 O   0  0  0  0  0  0  0  0  0  0  0  0
    8.7316  -16.4111   24.3423 N   0  0  0  0  0  0  0  0  0  0  0  0
    9.1661  -16.0181   25.7193 C   0  0  1  0  0  0  0  0  0  0  0  0
    7.9571  -15.6092   26.4657 C   0  0  0  0  0  0  0  0  0  0  0  0
    7.3730  -14.3064   26.1454 C   0  0  0  0  0  0  0  0  0  0  0  0
    7.8067  -13.2630   25.3783 C   0  0  0  0  0  0  0  0  0  0  0  0
    6.8767  -12.2670   25.3325 N   0  0  0  0  0  0  0  0  0  0  0  0
    5.8685  -12.7124   26.0788 C   0  0  0  0  0  0  0  0  0  0  0  0
    6.1336  -13.9231   26.5760 N   0  0  0  0  0  0  0  0  0  0  0  0
    9.8066  -17.2505   26.2458 C   0  0  0  0  0  0  0  0  0  0  0  0
   10.4350  -17.2147   27.3457 O   0  0  0  0  0  0  0  0  0  0  0  0
    9.7685  -18.4620   25.6099 O   0  0  0  0  0  0  0  0  0  0  0  0
  1  2  1  0
  1  5  1  0
  2  3  1  0
  3  4  1  0
  5  4  1  0
  5  6  1  1
  6  7  2  0
  8  9  1  0
  8  6  1  0
  9 10  1  0
 10 12  1  0
 10 11  2  0
 12 13  1  0
 13 14  1  1
 14 15  1  0
 15 16  2  0
 16 17  1  0
 18 17  1  0
 19 15  1  0
 19 18  2  0
 20 13  1  0
 20 22  1  0
 21 20  2  0
M  END
$$$$
