PGH.pdb
     RDKit          3D

 22 23  0  0  1  0  0  0  0  0999 V2000
    7.5423  -15.0967   20.2440 N   0  0  0  0  0  0  0  0  0  0  0  0
    6.6346  -14.0309   20.5374 C   0  0  0  0  0  0  0  0  0  0  0  0
    7.3300  -12.7297   20.1975 C   0  0  0  0  0  0  0  0  0  0  0  0
    8.7888  -13.0927   20.3784 C   0  0  0  0  0  0  0  0  0  0  0  0
    8.7935  -14.5312   19.8509 C   0  0  1  0  0  0  0  0  0  0  0  0
    9.9598  -15.2896   20.3751 C   0  0  0  0  0  0  0  0  0  0  0  0
   11.1073  -14.8755   20.1466 O   0  0  0  0  0  0  0  0  0  0  0  0
    9.7200  -16.4722   21.1259 N   0  0  0  0  0  0  0  0  0  0  0  0
   10.8148  -17.2811   21.5814 C   0  0  0  0  0  0  0  0  0  0  0  0
   11.1965  -16.9292   22.9737 C   0  0  0  0  0  0  0  0  0  0  0  0
   12.3871  -17.1143   23.3393 O   0  0  0  0  0  0  0  0  0  0  0  0
   10.2799  -16.3950   23.9065 N   0  0  0  0  0  0  0  0  0  0  0  0
   10.7143  -16.0671   25.3005 C   0  0  1  0  0  0  0  0  0  0  0  0
    9.7473  -15.0922   25.8482 C   0  0  0  0  0  0  0  0  0  0  0  0
    9.8763  -14.7322   27.2606 C   0  0  0  0  0  0  0  0  0  0  0  0
   10.7510  -15.1178   28.2361 C   0  0  0  0  0  0  0  0  0  0  0  0
   10.5068  -14.4578   29.4038 N   0  0  0  0  0  0  0  0  0  0  0  0
    9.4740  -13.6631   29.1325 C   0  0  0  0  0  0  0  0  0  0  0  0
    9.0764  -13.8033   27.8653 N   0  0  0  0  0  0  0  0  0  0  0  0
   10.6930  -17.3831   25.9888 C   0  0  0  0  0  0  0  0  0  0  0  0
    9.7870  -18.2251   25.7129 O   0  0  0  0  0  0  0  0  0  0  0  0
   11.6087  -17.7667   26.9312 O   0  0  0  0  0  0  0  0  0  0  0  0
  1  2  1  0
  1  5  1  0
  2  3  1  0
  3  4  1  0
  5  4  1  0
  5  6  1  1
  6  7  2  0
  8  9  1  0
  8  6  1  0
  9 10  1  0
 10 12  1  0
 10 11  2  0
 12 13  1  0
 13 14  1  1
 14 15  1  0
 15 16  2  0
 16 17  1  0
 18 17  1  0
 19 15  1  0
 19 18  2  0
 20 13  1  0
 20 22  1  0
 21 20  2  0
M  END
$$$$
