PGH.pdb
     RDKit          3D

 22 23  0  0  1  0  0  0  0  0999 V2000
    7.7251  -15.7216   20.3664 N   0  0  0  0  0  0  0  0  0  0  0  0
    6.4773  -15.0235   20.4069 C   0  0  0  0  0  0  0  0  0  0  0  0
    6.7726  -13.5470   20.2497 C   0  0  0  0  0  0  0  0  0  0  0  0
    8.1774  -13.4433   20.8052 C   0  0  0  0  0  0  0  0  0  0  0  0
    8.7802  -14.7609   20.3072 C   0  0  1  0  0  0  0  0  0  0  0  0
    9.9617  -15.1502   21.1212 C   0  0  0  0  0  0  0  0  0  0  0  0
   10.9270  -14.3743   21.2023 O   0  0  0  0  0  0  0  0  0  0  0  0
    9.9462  -16.4072   21.7841 N   0  0  0  0  0  0  0  0  0  0  0  0
   11.0627  -16.8228   22.5850 C   0  0  0  0  0  0  0  0  0  0  0  0
   10.7510  -16.7143   24.0338 C   0  0  0  0  0  0  0  0  0  0  0  0
   11.7022  -16.5844   24.8486 O   0  0  0  0  0  0  0  0  0  0  0  0
    9.4318  -16.7506   24.5375 N   0  0  0  0  0  0  0  0  0  0  0  0
    9.1742  -16.6536   26.0084 C   0  0  1  0  0  0  0  0  0  0  0  0
    7.7718  -16.2200   26.1850 C   0  0  0  0  0  0  0  0  0  0  0  0
    7.4525  -14.8241   25.8841 C   0  0  0  0  0  0  0  0  0  0  0  0
    8.2248  -13.7568   25.5239 C   0  0  0  0  0  0  0  0  0  0  0  0
    7.4593  -12.6532   25.2899 N   0  0  0  0  0  0  0  0  0  0  0  0
    6.2099  -13.0565   25.5096 C   0  0  0  0  0  0  0  0  0  0  0  0
    6.1731  -14.3435   25.8645 N   0  0  0  0  0  0  0  0  0  0  0  0
    9.4417  -18.0299   26.4987 C   0  0  0  0  0  0  0  0  0  0  0  0
    9.3914  -19.0075   25.6939 O   0  0  0  0  0  0  0  0  0  0  0  0
    9.7476  -18.3314   27.7983 O   0  0  0  0  0  0  0  0  0  0  0  0
  1  2  1  0
  1  5  1  0
  2  3  1  0
  3  4  1  0
  5  4  1  0
  5  6  1  1
  6  7  2  0
  8  9  1  0
  8  6  1  0
  9 10  1  0
 10 12  1  0
 10 11  2  0
 12 13  1  0
 13 14  1  6
 14 15  1  0
 15 16  2  0
 16 17  1  0
 18 17  1  0
 19 15  1  0
 19 18  2  0
 20 13  1  0
 20 22  1  0
 21 20  2  0
M  END
$$$$
