PGH.pdb
     RDKit          3D

 22 23  0  0  1  0  0  0  0  0999 V2000
    5.7255  -17.9959   21.3867 N   0  0  0  0  0  0  0  0  0  0  0  0
    4.7160  -18.4899   20.5019 C   0  0  0  0  0  0  0  0  0  0  0  0
    5.4093  -19.0120   19.2613 C   0  0  0  0  0  0  0  0  0  0  0  0
    6.6723  -18.1776   19.2284 C   0  0  0  0  0  0  0  0  0  0  0  0
    6.9882  -18.0770   20.7243 C   0  0  1  0  0  0  0  0  0  0  0  0
    7.8652  -16.9109   21.0087 C   0  0  0  0  0  0  0  0  0  0  0  0
    9.0757  -16.9809   20.7434 O   0  0  0  0  0  0  0  0  0  0  0  0
    7.2840  -15.7462   21.5793 N   0  0  0  0  0  0  0  0  0  0  0  0
    8.0651  -14.5555   21.7601 C   0  0  0  0  0  0  0  0  0  0  0  0
    8.6998  -14.5315   23.1035 C   0  0  0  0  0  0  0  0  0  0  0  0
    9.5085  -13.6049   23.3734 O   0  0  0  0  0  0  0  0  0  0  0  0
    8.4347  -15.5047   24.0924 N   0  0  0  0  0  0  0  0  0  0  0  0
    9.0605  -15.4045   25.4481 C   0  0  1  0  0  0  0  0  0  0  0  0
    7.9656  -15.2776   26.4333 C   0  0  0  0  0  0  0  0  0  0  0  0
    7.2569  -13.9990   26.4959 C   0  0  0  0  0  0  0  0  0  0  0  0
    7.6893  -12.7064   26.5836 C   0  0  0  0  0  0  0  0  0  0  0  0
    6.6414  -11.8348   26.5544 N   0  0  0  0  0  0  0  0  0  0  0  0
    5.5628  -12.6074   26.4467 C   0  0  0  0  0  0  0  0  0  0  0  0
    5.8964  -13.9000   26.4092 N   0  0  0  0  0  0  0  0  0  0  0  0
    9.8310  -16.6687   25.5685 C   0  0  0  0  0  0  0  0  0  0  0  0
    9.7532  -17.5446   24.6559 O   0  0  0  0  0  0  0  0  0  0  0  0
   10.6448  -16.9688   26.6273 O   0  0  0  0  0  0  0  0  0  0  0  0
  1  2  1  0
  1  5  1  0
  2  3  1  0
  3  4  1  0
  5  4  1  0
  5  6  1  6
  6  7  2  0
  8  9  1  0
  8  6  1  0
  9 10  1  0
 10 12  1  0
 10 11  2  0
 12 13  1  0
 13 14  1  1
 14 15  1  0
 15 16  2  0
 16 17  1  0
 18 17  1  0
 19 15  1  0
 19 18  2  0
 20 13  1  0
 20 22  1  0
 21 20  2  0
M  END
$$$$
