PGH.pdb
     RDKit          3D

 22 23  0  0  1  0  0  0  0  0999 V2000
    7.3391  -14.9741   21.0556 N   0  0  0  0  0  0  0  0  0  0  0  0
    6.5511  -14.0599   20.2881 C   0  0  0  0  0  0  0  0  0  0  0  0
    7.0875  -14.0688   18.8724 C   0  0  0  0  0  0  0  0  0  0  0  0
    8.5358  -14.4564   19.0840 C   0  0  0  0  0  0  0  0  0  0  0  0
    8.3984  -15.4624   20.2314 C   0  0  1  0  0  0  0  0  0  0  0  0
    9.6808  -15.6122   20.9682 C   0  0  0  0  0  0  0  0  0  0  0  0
   10.6326  -16.1916   20.4213 O   0  0  0  0  0  0  0  0  0  0  0  0
    9.7749  -15.0833   22.2839 N   0  0  0  0  0  0  0  0  0  0  0  0
   11.0001  -15.1853   23.0248 C   0  0  0  0  0  0  0  0  0  0  0  0
   10.7569  -15.7225   24.3888 C   0  0  0  0  0  0  0  0  0  0  0  0
   11.7284  -15.8139   25.1845 O   0  0  0  0  0  0  0  0  0  0  0  0
    9.4809  -16.1356   24.8320 N   0  0  0  0  0  0  0  0  0  0  0  0
    9.2135  -16.3553   26.2879 C   0  0  1  0  0  0  0  0  0  0  0  0
    7.8119  -15.9618   26.5454 C   0  0  0  0  0  0  0  0  0  0  0  0
    7.4819  -14.5389   26.4579 C   0  0  0  0  0  0  0  0  0  0  0  0
    8.2535  -13.4153   26.3709 C   0  0  0  0  0  0  0  0  0  0  0  0
    7.4820  -12.2976   26.2513 N   0  0  0  0  0  0  0  0  0  0  0  0
    6.2298  -12.7490   26.2647 C   0  0  0  0  0  0  0  0  0  0  0  0
    6.1969  -14.0785   26.3862 N   0  0  0  0  0  0  0  0  0  0  0  0
    9.4718  -17.8063   26.4728 C   0  0  0  0  0  0  0  0  0  0  0  0
    9.6662  -18.5464   25.4627 O   0  0  0  0  0  0  0  0  0  0  0  0
    9.5157  -18.4244   27.6932 O   0  0  0  0  0  0  0  0  0  0  0  0
  1  2  1  0
  1  5  1  0
  2  3  1  0
  3  4  1  0
  5  4  1  0
  5  6  1  1
  6  7  2  0
  8  9  1  0
  8  6  1  0
  9 10  1  0
 10 12  1  0
 10 11  2  0
 12 13  1  0
 13 14  1  6
 14 15  1  0
 15 16  2  0
 16 17  1  0
 18 17  1  0
 19 15  1  0
 19 18  2  0
 20 13  1  0
 20 22  1  0
 21 20  2  0
M  END
$$$$
