PGH.pdb
     RDKit          3D

 22 23  0  0  1  0  0  0  0  0999 V2000
    7.4723  -15.0300   19.8881 N   0  0  0  0  0  0  0  0  0  0  0  0
    6.4676  -14.0142   19.9572 C   0  0  0  0  0  0  0  0  0  0  0  0
    7.1573  -12.6757   19.7989 C   0  0  0  0  0  0  0  0  0  0  0  0
    8.5462  -12.9700   20.3250 C   0  0  0  0  0  0  0  0  0  0  0  0
    8.7509  -14.3984   19.8100 C   0  0  1  0  0  0  0  0  0  0  0  0
    9.7938  -15.1070   20.5976 C   0  0  0  0  0  0  0  0  0  0  0  0
   10.9593  -14.6804   20.5864 O   0  0  0  0  0  0  0  0  0  0  0  0
    9.4185  -16.2577   21.3426 N   0  0  0  0  0  0  0  0  0  0  0  0
   10.4006  -17.0014   22.0794 C   0  0  0  0  0  0  0  0  0  0  0  0
   10.3883  -16.6251   23.5169 C   0  0  0  0  0  0  0  0  0  0  0  0
   11.4685  -16.2708   24.0582 O   0  0  0  0  0  0  0  0  0  0  0  0
    9.2153  -16.6478   24.3036 N   0  0  0  0  0  0  0  0  0  0  0  0
    9.2699  -16.3239   25.7636 C   0  0  1  0  0  0  0  0  0  0  0  0
    7.9042  -15.9454   26.1849 C   0  0  0  0  0  0  0  0  0  0  0  0
    7.4174  -14.6227   25.7918 C   0  0  0  0  0  0  0  0  0  0  0  0
    8.0132  -13.5699   25.1577 C   0  0  0  0  0  0  0  0  0  0  0  0
    7.1276  -12.5533   24.9553 N   0  0  0  0  0  0  0  0  0  0  0  0
    5.9829  -12.9954   25.4712 C   0  0  0  0  0  0  0  0  0  0  0  0
    6.1232  -14.2237   25.9763 N   0  0  0  0  0  0  0  0  0  0  0  0
    9.7593  -17.5835   26.3801 C   0  0  0  0  0  0  0  0  0  0  0  0
    9.7328  -18.6628   25.7166 O   0  0  0  0  0  0  0  0  0  0  0  0
   10.2521  -17.6686   27.6542 O   0  0  0  0  0  0  0  0  0  0  0  0
  1  2  1  0
  1  5  1  0
  2  3  1  0
  3  4  1  0
  5  4  1  0
  5  6  1  1
  6  7  2  0
  8  9  1  0
  8  6  1  0
  9 10  1  0
 10 12  1  0
 10 11  2  0
 12 13  1  0
 13 14  1  1
 14 15  1  0
 15 16  2  0
 16 17  1  0
 18 17  1  0
 19 15  1  0
 19 18  2  0
 20 13  1  0
 20 22  1  0
 21 20  2  0
M  END
$$$$
