PGH.pdb
     RDKit          3D

 22 23  0  0  1  0  0  0  0  0999 V2000
    7.2504  -14.6213   20.8287 N   0  0  0  0  0  0  0  0  0  0  0  0
    6.6980  -13.3927   20.3479 C   0  0  0  0  0  0  0  0  0  0  0  0
    7.1545  -13.2143   18.9154 C   0  0  0  0  0  0  0  0  0  0  0  0
    8.4585  -13.9837   18.8996 C   0  0  0  0  0  0  0  0  0  0  0  0
    8.1101  -15.1567   19.8217 C   0  0  1  0  0  0  0  0  0  0  0  0
    9.3380  -15.7795   20.3825 C   0  0  0  0  0  0  0  0  0  0  0  0
   10.0781  -16.4424   19.6386 O   0  0  0  0  0  0  0  0  0  0  0  0
    9.6255  -15.5937   21.7619 N   0  0  0  0  0  0  0  0  0  0  0  0
   10.8054  -16.1673   22.3444 C   0  0  0  0  0  0  0  0  0  0  0  0
   10.6378  -16.3636   23.8077 C   0  0  0  0  0  0  0  0  0  0  0  0
   11.6221  -16.1489   24.5630 O   0  0  0  0  0  0  0  0  0  0  0  0
    9.4201  -16.7814   24.3892 N   0  0  0  0  0  0  0  0  0  0  0  0
    9.2488  -16.7917   25.8757 C   0  0  1  0  0  0  0  0  0  0  0  0
    7.8623  -16.3677   26.1650 C   0  0  0  0  0  0  0  0  0  0  0  0
    7.5091  -14.9751   25.8874 C   0  0  0  0  0  0  0  0  0  0  0  0
    8.2458  -13.8979   25.4847 C   0  0  0  0  0  0  0  0  0  0  0  0
    7.4546  -12.8031   25.2996 N   0  0  0  0  0  0  0  0  0  0  0  0
    6.2254  -13.2220   25.5922 C   0  0  0  0  0  0  0  0  0  0  0  0
    6.2252  -14.5099   25.9452 N   0  0  0  0  0  0  0  0  0  0  0  0
    9.5340  -18.2012   26.2478 C   0  0  0  0  0  0  0  0  0  0  0  0
    9.6970  -19.0724   25.3421 O   0  0  0  0  0  0  0  0  0  0  0  0
    9.6361  -18.6442   27.5388 O   0  0  0  0  0  0  0  0  0  0  0  0
  1  2  1  0
  1  5  1  0
  2  3  1  0
  3  4  1  0
  5  4  1  0
  5  6  1  1
  6  7  2  0
  8  9  1  0
  8  6  1  0
  9 10  1  0
 10 12  1  0
 10 11  2  0
 12 13  1  0
 13 14  1  6
 14 15  1  0
 15 16  2  0
 16 17  1  0
 18 17  1  0
 19 15  1  0
 19 18  2  0
 20 13  1  0
 20 22  1  0
 21 20  2  0
M  END
$$$$
