PGH.pdb
     RDKit          3D

 22 23  0  0  1  0  0  0  0  0999 V2000
    9.0054  -14.3169   18.5167 N   0  0  0  0  0  0  0  0  0  0  0  0
    8.1334  -13.6129   17.6279 C   0  0  0  0  0  0  0  0  0  0  0  0
    7.4966  -12.4834   18.4095 C   0  0  0  0  0  0  0  0  0  0  0  0
    7.5206  -13.0231   19.8240 C   0  0  0  0  0  0  0  0  0  0  0  0
    8.8621  -13.7632   19.8253 C   0  0  1  0  0  0  0  0  0  0  0  0
    8.9035  -14.7939   20.8959 C   0  0  0  0  0  0  0  0  0  0  0  0
    8.7458  -14.4500   22.0780 O   0  0  0  0  0  0  0  0  0  0  0  0
    9.1239  -16.1487   20.5271 N   0  0  0  0  0  0  0  0  0  0  0  0
    9.1381  -17.1822   21.5232 C   0  0  0  0  0  0  0  0  0  0  0  0
   10.5059  -17.3800   22.0689 C   0  0  0  0  0  0  0  0  0  0  0  0
   10.8849  -18.5495   22.3411 O   0  0  0  0  0  0  0  0  0  0  0  0
   11.4010  -16.3110   22.2960 N   0  0  0  0  0  0  0  0  0  0  0  0
   12.8161  -16.5750   22.7049 C   0  0  1  0  0  0  0  0  0  0  0  0
   13.6395  -15.4559   22.1996 C   0  0  0  0  0  0  0  0  0  0  0  0
   13.8016  -15.3362   20.7502 C   0  0  0  0  0  0  0  0  0  0  0  0
   13.3495  -16.0899   19.7048 C   0  0  0  0  0  0  0  0  0  0  0  0
   13.7148  -15.5428   18.5106 N   0  0  0  0  0  0  0  0  0  0  0  0
   14.3943  -14.4454   18.8361 C   0  0  0  0  0  0  0  0  0  0  0  0
   14.4629  -14.2950   20.1613 N   0  0  0  0  0  0  0  0  0  0  0  0
   12.7419  -16.6423   24.1869 C   0  0  0  0  0  0  0  0  0  0  0  0
   11.6818  -16.2854   24.7826 O   0  0  0  0  0  0  0  0  0  0  0  0
   13.7675  -17.0743   24.9838 O   0  0  0  0  0  0  0  0  0  0  0  0
  1  2  1  0
  1  5  1  0
  2  3  1  0
  3  4  1  0
  5  4  1  0
  5  6  1  1
  6  7  2  0
  8  9  1  0
  8  6  1  0
  9 10  1  0
 10 12  1  0
 10 11  2  0
 12 13  1  0
 13 14  1  1
 14 15  1  0
 15 16  2  0
 16 17  1  0
 18 17  1  0
 19 15  1  0
 19 18  2  0
 20 13  1  0
 20 22  1  0
 21 20  2  0
M  END
$$$$
