PGH.pdb
     RDKit          3D

 22 23  0  0  1  0  0  0  0  0999 V2000
    9.2442  -14.4698   19.5057 N   0  0  0  0  0  0  0  0  0  0  0  0
    8.5239  -14.2038   18.2988 C   0  0  0  0  0  0  0  0  0  0  0  0
    7.4741  -13.1589   18.6124 C   0  0  0  0  0  0  0  0  0  0  0  0
    7.2194  -13.3968   20.0858 C   0  0  0  0  0  0  0  0  0  0  0  0
    8.6326  -13.7387   20.5692 C   0  0  1  0  0  0  0  0  0  0  0  0
    8.5920  -14.5008   21.8449 C   0  0  0  0  0  0  0  0  0  0  0  0
    7.9019  -14.0767   22.7854 O   0  0  0  0  0  0  0  0  0  0  0  0
    9.3504  -15.6986   21.9458 N   0  0  0  0  0  0  0  0  0  0  0  0
    9.1882  -16.5713   23.0739 C   0  0  0  0  0  0  0  0  0  0  0  0
    9.6758  -15.9283   24.3216 C   0  0  0  0  0  0  0  0  0  0  0  0
   10.8308  -15.4268   24.3316 O   0  0  0  0  0  0  0  0  0  0  0  0
    8.8986  -15.8551   25.4989 N   0  0  0  0  0  0  0  0  0  0  0  0
    9.4528  -15.2310   26.7409 C   0  0  1  0  0  0  0  0  0  0  0  0
    8.3086  -14.7433   27.5402 C   0  0  0  0  0  0  0  0  0  0  0  0
    7.5112  -13.6503   26.9830 C   0  0  0  0  0  0  0  0  0  0  0  0
    7.8488  -12.4374   26.4534 C   0  0  0  0  0  0  0  0  0  0  0  0
    6.7460  -11.7734   26.0042 N   0  0  0  0  0  0  0  0  0  0  0  0
    5.7298  -12.5933   26.2634 C   0  0  0  0  0  0  0  0  0  0  0  0
    6.1531  -13.7183   26.8454 N   0  0  0  0  0  0  0  0  0  0  0  0
   10.2015  -16.3417   27.3827 C   0  0  0  0  0  0  0  0  0  0  0  0
   10.8116  -16.1429   28.4756 O   0  0  0  0  0  0  0  0  0  0  0  0
   10.2857  -17.6055   26.8640 O   0  0  0  0  0  0  0  0  0  0  0  0
  1  2  1  0
  1  5  1  0
  2  3  1  0
  3  4  1  0
  5  4  1  0
  5  6  1  1
  6  7  2  0
  8  9  1  0
  8  6  1  0
  9 10  1  0
 10 12  1  0
 10 11  2  0
 12 13  1  0
 13 14  1  1
 14 15  1  0
 15 16  2  0
 16 17  1  0
 18 17  1  0
 19 15  1  0
 19 18  2  0
 20 13  1  0
 20 22  1  0
 21 20  2  0
M  END
$$$$
