CNM.pdb
     RDKit          3D

 23 22  0  0  1  0  0  0  0  0999 V2000
   17.4905  -13.9207  -18.1695 N   0  0  0  0  0  0  0  0  0  0  0  0
   16.8216  -12.6374  -18.1782 C   0  0  1  0  0  0  0  0  0  0  0  0
   16.0790  -12.5367  -16.8485 C   0  0  0  0  0  0  0  0  0  0  0  0
   17.2103  -12.6070  -15.4416 S   0  0  0  0  0  0  0  0  0  0  0  0
   17.7997  -11.5078  -18.2131 C   0  0  0  0  0  0  0  0  0  0  0  0
   19.0281  -11.7555  -18.1861 O   0  0  0  0  0  0  0  0  0  0  0  0
   19.9909   -7.1737  -19.1418 N   0  0  0  0  0  0  0  0  0  0  0  0
   18.6215   -6.7508  -19.0367 C   0  0  0  0  0  0  0  0  0  0  0  0
   18.3862   -5.5465  -19.2714 O   0  0  0  0  0  0  0  0  0  0  0  0
   17.6393   -7.7792  -18.6637 C   0  0  0  0  0  0  0  0  0  0  0  0
   18.3642   -9.0679  -18.3682 C   0  0  2  0  0  0  0  0  0  0  0  0
   17.3852  -10.1388  -18.2767 N   0  0  0  0  0  0  0  0  0  0  0  0
   19.0818   -8.9857  -17.0568 C   0  0  0  0  0  0  0  0  0  0  0  0
   18.5133   -9.2695  -15.9780 O   0  0  0  0  0  0  0  0  0  0  0  0
   25.0746  -11.6070  -13.5161 C   0  0  0  0  0  0  0  0  0  0  0  0
   24.8997  -10.2586  -14.7382 S   0  0  0  0  0  0  0  0  0  0  0  0
   23.3379   -9.4853  -14.7328 C   0  0  0  0  0  0  0  0  0  0  0  0
   22.4399   -9.3284  -15.8620 C   0  0  0  0  0  0  0  0  0  0  0  0
   21.1299   -8.7008  -15.7045 C   0  0  2  0  0  0  0  0  0  0  0  0
   20.4245   -8.5843  -17.0057 N   0  0  0  0  0  0  0  0  0  0  0  0
   21.3975   -7.2160  -15.4854 C   0  0  0  0  0  0  0  0  0  0  0  0
   21.4176   -6.4561  -16.4874 O   0  0  0  0  0  0  0  0  0  0  0  0
   21.6173   -6.6635  -14.2816 O   0  0  0  0  0  0  0  0  0  0  0  0
  2  5  1  0
  2  1  1  1
  2  3  1  0
  4  3  1  0
  5  6  2  0
  7  8  1  0
  8  9  2  0
  8 10  1  0
 11 10  1  1
 11 13  1  0
 12 11  1  0
 12  5  1  0
 13 20  1  0
 13 14  2  0
 15 16  1  0
 17 16  1  0
 18 17  1  0
 19 18  1  6
 20 19  1  0
 21 19  1  0
 21 23  1  0
 22 21  2  0
M  END
$$$$
