CNM.pdb
     RDKit          3D

 23 22  0  0  1  0  0  0  0  0999 V2000
   20.5915  -11.8823  -16.9917 N   0  0  0  0  0  0  0  0  0  0  0  0
   21.6214  -10.9215  -16.6591 C   0  0  1  0  0  0  0  0  0  0  0  0
   22.4838  -10.7736  -17.9098 C   0  0  0  0  0  0  0  0  0  0  0  0
   23.2813  -12.3301  -18.3625 S   0  0  0  0  0  0  0  0  0  0  0  0
   21.0435   -9.5735  -16.3713 C   0  0  0  0  0  0  0  0  0  0  0  0
   20.0562   -9.1728  -17.0314 O   0  0  0  0  0  0  0  0  0  0  0  0
   19.9902   -8.6490  -11.7948 N   0  0  0  0  0  0  0  0  0  0  0  0
   19.7805   -7.9819  -13.0503 C   0  0  0  0  0  0  0  0  0  0  0  0
   18.6514   -8.1059  -13.5703 O   0  0  0  0  0  0  0  0  0  0  0  0
   20.9166   -7.2225  -13.5927 C   0  0  0  0  0  0  0  0  0  0  0  0
   20.9718   -7.4194  -15.0866 C   0  0  2  0  0  0  0  0  0  0  0  0
   21.5784   -8.7118  -15.3607 N   0  0  0  0  0  0  0  0  0  0  0  0
   21.8188   -6.3663  -15.7309 C   0  0  0  0  0  0  0  0  0  0  0  0
   21.6105   -5.1469  -15.5381 O   0  0  0  0  0  0  0  0  0  0  0  0
   28.7205   -4.9438  -17.7937 C   0  0  0  0  0  0  0  0  0  0  0  0
   27.4280   -5.4831  -18.9689 S   0  0  0  0  0  0  0  0  0  0  0  0
   25.7993   -5.1581  -18.4410 C   0  0  0  0  0  0  0  0  0  0  0  0
   24.9404   -6.0402  -17.6727 C   0  0  0  0  0  0  0  0  0  0  0  0
   23.5883   -5.6369  -17.2934 C   0  0  2  0  0  0  0  0  0  0  0  0
   22.8789   -6.7259  -16.5756 N   0  0  0  0  0  0  0  0  0  0  0  0
   22.7637   -5.6684  -18.5753 C   0  0  0  0  0  0  0  0  0  0  0  0
   22.3329   -6.7772  -18.9840 O   0  0  0  0  0  0  0  0  0  0  0  0
   22.4676   -4.5799  -19.3032 O   0  0  0  0  0  0  0  0  0  0  0  0
  2  5  1  0
  2  1  1  6
  2  3  1  0
  4  3  1  0
  5  6  2  0
  7  8  1  0
  8  9  2  0
  8 10  1  0
 11 10  1  1
 11 13  1  0
 12 11  1  0
 12  5  1  0
 13 20  1  0
 13 14  2  0
 15 16  1  0
 17 16  1  0
 18 17  1  0
 19 18  1  6
 20 19  1  0
 21 19  1  0
 21 23  1  0
 22 21  2  0
M  END
$$$$
