CNM.pdb
     RDKit          3D

 23 22  0  0  1  0  0  0  0  0999 V2000
   26.8786  -17.3820  -19.5801 N   0  0  0  0  0  0  0  0  0  0  0  0
   26.1129  -16.9524  -18.4296 C   0  0  1  0  0  0  0  0  0  0  0  0
   25.3153  -15.7323  -18.8821 C   0  0  0  0  0  0  0  0  0  0  0  0
   26.3722  -14.2835  -19.1012 S   0  0  0  0  0  0  0  0  0  0  0  0
   25.1189  -17.9878  -18.0130 C   0  0  0  0  0  0  0  0  0  0  0  0
   24.3932  -18.5293  -18.8798 O   0  0  0  0  0  0  0  0  0  0  0  0
   27.0011  -21.2917  -15.8637 N   0  0  0  0  0  0  0  0  0  0  0  0
   25.6071  -21.2758  -16.2128 C   0  0  0  0  0  0  0  0  0  0  0  0
   25.2631  -21.9837  -17.1830 O   0  0  0  0  0  0  0  0  0  0  0  0
   24.7302  -20.4280  -15.3920 C   0  0  0  0  0  0  0  0  0  0  0  0
   24.0228  -19.4410  -16.2859 C   0  0  2  0  0  0  0  0  0  0  0  0
   24.9602  -18.3905  -16.6482 N   0  0  0  0  0  0  0  0  0  0  0  0
   22.8717  -18.8052  -15.5700 C   0  0  0  0  0  0  0  0  0  0  0  0
   23.0476  -18.0174  -14.6130 O   0  0  0  0  0  0  0  0  0  0  0  0
   15.8485  -15.4086  -15.7298 C   0  0  0  0  0  0  0  0  0  0  0  0
   17.3016  -16.0303  -16.6487 S   0  0  0  0  0  0  0  0  0  0  0  0
   18.4080  -16.9722  -15.6867 C   0  0  0  0  0  0  0  0  0  0  0  0
   19.6624  -17.5567  -16.1239 C   0  0  0  0  0  0  0  0  0  0  0  0
   20.4598  -18.3920  -15.2289 C   0  0  2  0  0  0  0  0  0  0  0  0
   21.5531  -19.0805  -15.9602 N   0  0  0  0  0  0  0  0  0  0  0  0
   19.6094  -19.6218  -14.9310 C   0  0  0  0  0  0  0  0  0  0  0  0
   19.7462  -20.6367  -15.6612 O   0  0  0  0  0  0  0  0  0  0  0  0
   18.7147  -19.6906  -13.9323 O   0  0  0  0  0  0  0  0  0  0  0  0
  2  5  1  0
  2  1  1  6
  2  3  1  0
  4  3  1  0
  5  6  2  0
  7  8  1  0
  8  9  2  0
  8 10  1  0
 11 10  1  1
 11 13  1  0
 12 11  1  0
 12  5  1  0
 13 20  1  0
 13 14  2  0
 15 16  1  0
 17 16  1  0
 18 17  1  0
 19 18  1  6
 20 19  1  0
 21 19  1  0
 21 23  1  0
 22 21  2  0
M  END
$$$$
