CNM.pdb
     RDKit          3D

 23 22  0  0  1  0  0  0  0  0999 V2000
   18.0654  -14.1964  -17.3944 N   0  0  0  0  0  0  0  0  0  0  0  0
   17.5027  -12.9812  -16.8456 C   0  0  1  0  0  0  0  0  0  0  0  0
   17.4716  -13.1738  -15.3317 C   0  0  0  0  0  0  0  0  0  0  0  0
   16.1640  -14.3138  -14.8273 S   0  0  0  0  0  0  0  0  0  0  0  0
   18.3789  -11.8002  -17.1126 C   0  0  0  0  0  0  0  0  0  0  0  0
   19.6041  -11.9745  -17.3119 O   0  0  0  0  0  0  0  0  0  0  0  0
   18.8499   -7.0856  -19.9179 N   0  0  0  0  0  0  0  0  0  0  0  0
   18.5924   -7.0997  -18.5041 C   0  0  0  0  0  0  0  0  0  0  0  0
   19.0825   -6.1657  -17.8348 O   0  0  0  0  0  0  0  0  0  0  0  0
   17.7788   -8.2120  -17.9919 C   0  0  0  0  0  0  0  0  0  0  0  0
   18.6844   -9.3692  -17.6539 C   0  0  2  0  0  0  0  0  0  0  0  0
   17.8694  -10.4627  -17.1502 N   0  0  0  0  0  0  0  0  0  0  0  0
   19.6575   -8.9876  -16.5820 C   0  0  0  0  0  0  0  0  0  0  0  0
   19.4270   -9.2180  -15.3731 O   0  0  0  0  0  0  0  0  0  0  0  0
   26.3153  -10.7350  -14.2643 C   0  0  0  0  0  0  0  0  0  0  0  0
   25.8373   -9.6507  -15.6566 S   0  0  0  0  0  0  0  0  0  0  0  0
   24.3320   -8.8046  -15.4214 C   0  0  0  0  0  0  0  0  0  0  0  0
   23.1314   -8.9225  -16.2282 C   0  0  0  0  0  0  0  0  0  0  0  0
   21.8958   -8.2414  -15.8486 C   0  0  2  0  0  0  0  0  0  0  0  0
   20.8653   -8.3555  -16.9113 N   0  0  0  0  0  0  0  0  0  0  0  0
   22.1744   -6.7497  -15.9959 C   0  0  0  0  0  0  0  0  0  0  0  0
   21.8519   -6.1828  -17.0713 O   0  0  0  0  0  0  0  0  0  0  0  0
   22.7488   -5.9968  -15.0442 O   0  0  0  0  0  0  0  0  0  0  0  0
  2  5  1  0
  2  1  1  6
  2  3  1  0
  4  3  1  0
  5  6  2  0
  7  8  1  0
  8  9  2  0
  8 10  1  0
 11 10  1  1
 11 13  1  0
 12 11  1  0
 12  5  1  0
 13 20  1  0
 13 14  2  0
 15 16  1  0
 17 16  1  0
 18 17  1  0
 19 18  1  6
 20 19  1  0
 21 19  1  0
 21 23  1  0
 22 21  2  0
M  END
$$$$
