CNM.pdb
     RDKit          3D

 23 22  0  0  1  0  0  0  0  0999 V2000
   15.3367  -19.2055    2.1751 N   0  0  0  0  0  0  0  0  0  0  0  0
   16.2557  -19.4811    3.2586 C   0  0  1  0  0  0  0  0  0  0  0  0
   17.6579  -19.3373    2.6728 C   0  0  0  0  0  0  0  0  0  0  0  0
   18.0875  -20.7342    1.6107 S   0  0  0  0  0  0  0  0  0  0  0  0
   16.1380  -18.4673    4.3505 C   0  0  0  0  0  0  0  0  0  0  0  0
   15.6803  -17.3301    4.0887 O   0  0  0  0  0  0  0  0  0  0  0  0
   14.1418  -20.3498    8.1932 N   0  0  0  0  0  0  0  0  0  0  0  0
   14.4424  -18.9930    7.8272 C   0  0  0  0  0  0  0  0  0  0  0  0
   13.4925  -18.3030    7.4003 O   0  0  0  0  0  0  0  0  0  0  0  0
   15.8368  -18.5576    7.9929 C   0  0  0  0  0  0  0  0  0  0  0  0
   16.2634  -17.7943    6.7645 C   0  0  2  0  0  0  0  0  0  0  0  0
   16.5317  -18.7459    5.6986 N   0  0  0  0  0  0  0  0  0  0  0  0
   17.5222  -17.0270    7.0255 C   0  0  0  0  0  0  0  0  0  0  0  0
   18.6503  -17.5150    6.7873 O   0  0  0  0  0  0  0  0  0  0  0  0
   19.7360  -11.6021    4.1686 C   0  0  0  0  0  0  0  0  0  0  0  0
   20.0114  -11.3714    5.9612 S   0  0  0  0  0  0  0  0  0  0  0  0
   19.8397  -12.8262    6.9053 C   0  0  0  0  0  0  0  0  0  0  0  0
   18.7266  -13.7570    6.8762 C   0  0  0  0  0  0  0  0  0  0  0  0
   18.7425  -14.9796    7.6760 C   0  0  2  0  0  0  0  0  0  0  0  0
   17.4662  -15.7272    7.5491 N   0  0  0  0  0  0  0  0  0  0  0  0
   18.5751  -14.5373    9.1254 C   0  0  0  0  0  0  0  0  0  0  0  0
   17.4288  -14.5915    9.6402 O   0  0  0  0  0  0  0  0  0  0  0  0
   19.5806  -14.0875    9.8930 O   0  0  0  0  0  0  0  0  0  0  0  0
  2  5  1  0
  2  1  1  6
  2  3  1  0
  4  3  1  0
  5  6  2  0
  7  8  1  0
  8  9  2  0
  8 10  1  0
 11 10  1  1
 11 13  1  0
 12 11  1  0
 12  5  1  0
 13 20  1  0
 13 14  2  0
 15 16  1  0
 17 16  1  0
 18 17  1  0
 19 18  1  6
 20 19  1  0
 21 19  1  0
 21 23  1  0
 22 21  2  0
M  END
$$$$
