CNM.pdb
     RDKit          3D

 23 22  0  0  1  0  0  0  0  0999 V2000
   25.2252  -21.5313   -8.8213 N   0  0  0  0  0  0  0  0  0  0  0  0
   24.9693  -20.3571   -9.6277 C   0  0  1  0  0  0  0  0  0  0  0  0
   26.3149  -19.6567   -9.7966 C   0  0  0  0  0  0  0  0  0  0  0  0
   26.7312  -18.6476   -8.3571 S   0  0  0  0  0  0  0  0  0  0  0  0
   24.4982  -20.7233  -10.9980 C   0  0  0  0  0  0  0  0  0  0  0  0
   25.0992  -21.6183  -11.6375 O   0  0  0  0  0  0  0  0  0  0  0  0
   19.8333  -21.4567  -11.2105 N   0  0  0  0  0  0  0  0  0  0  0  0
   20.7397  -21.6304  -12.3121 C   0  0  0  0  0  0  0  0  0  0  0  0
   20.9318  -22.8017  -12.7019 O   0  0  0  0  0  0  0  0  0  0  0  0
   21.3471  -20.4116  -12.8663 C   0  0  0  0  0  0  0  0  0  0  0  0
   22.8463  -20.5716  -12.8806 C   0  0  2  0  0  0  0  0  0  0  0  0
   23.3754  -20.0856  -11.6167 N   0  0  0  0  0  0  0  0  0  0  0  0
   23.4574  -19.7588  -13.9795 C   0  0  0  0  0  0  0  0  0  0  0  0
   23.5238  -18.5103  -13.9141 O   0  0  0  0  0  0  0  0  0  0  0  0
   28.9777  -18.4800  -19.3061 C   0  0  0  0  0  0  0  0  0  0  0  0
   28.3490  -19.5543  -17.9670 S   0  0  0  0  0  0  0  0  0  0  0  0
   26.6889  -19.2557  -17.5291 C   0  0  0  0  0  0  0  0  0  0  0  0
   25.9655  -19.8336  -16.4115 C   0  0  0  0  0  0  0  0  0  0  0  0
   24.5578  -19.5194  -16.1786 C   0  0  2  0  0  0  0  0  0  0  0  0
   23.9766  -20.3852  -15.1217 N   0  0  0  0  0  0  0  0  0  0  0  0
   23.7942  -20.1038  -17.3618 C   0  0  0  0  0  0  0  0  0  0  0  0
   23.3992  -21.2958  -17.2908 O   0  0  0  0  0  0  0  0  0  0  0  0
   23.5163  -19.4226  -18.4849 O   0  0  0  0  0  0  0  0  0  0  0  0
  2  5  1  0
  2  1  1  1
  2  3  1  0
  4  3  1  0
  5  6  2  0
  7  8  1  0
  8  9  2  0
  8 10  1  0
 11 10  1  1
 11 13  1  0
 12 11  1  0
 12  5  1  0
 13 20  1  0
 13 14  2  0
 15 16  1  0
 17 16  1  0
 18 17  1  0
 19 18  1  6
 20 19  1  0
 21 19  1  0
 21 23  1  0
 22 21  2  0
M  END
$$$$
