CNM.pdb
     RDKit          3D

 23 22  0  0  1  0  0  0  0  0999 V2000
   26.0465  -22.2956  -11.5625 N   0  0  0  0  0  0  0  0  0  0  0  0
   25.1067  -21.2036  -11.4253 C   0  0  1  0  0  0  0  0  0  0  0  0
   25.9088  -20.0171  -10.8975 C   0  0  0  0  0  0  0  0  0  0  0  0
   26.1667  -20.1228   -9.1125 S   0  0  0  0  0  0  0  0  0  0  0  0
   24.5460  -20.7915  -12.7481 C   0  0  0  0  0  0  0  0  0  0  0  0
   25.2482  -20.9115  -13.7794 O   0  0  0  0  0  0  0  0  0  0  0  0
   20.3533  -21.8938  -14.7677 N   0  0  0  0  0  0  0  0  0  0  0  0
   20.5367  -20.9421  -13.7066 C   0  0  0  0  0  0  0  0  0  0  0  0
   20.1114  -21.2700  -12.5786 O   0  0  0  0  0  0  0  0  0  0  0  0
   21.2058  -19.6811  -14.0584 C   0  0  0  0  0  0  0  0  0  0  0  0
   22.6863  -19.9315  -14.1964 C   0  0  2  0  0  0  0  0  0  0  0  0
   23.2242  -20.2588  -12.8860 N   0  0  0  0  0  0  0  0  0  0  0  0
   23.3892  -18.7054  -14.6904 C   0  0  0  0  0  0  0  0  0  0  0  0
   23.5175  -17.6876  -13.9727 O   0  0  0  0  0  0  0  0  0  0  0  0
   29.7140  -15.7966  -18.0798 C   0  0  0  0  0  0  0  0  0  0  0  0
   28.8087  -17.2352  -17.4065 S   0  0  0  0  0  0  0  0  0  0  0  0
   27.1251  -16.9309  -17.0752 C   0  0  0  0  0  0  0  0  0  0  0  0
   26.1602  -17.8702  -16.5340 C   0  0  0  0  0  0  0  0  0  0  0  0
   24.7600  -17.4949  -16.3519 C   0  0  2  0  0  0  0  0  0  0  0  0
   23.9275  -18.6682  -15.9849 N   0  0  0  0  0  0  0  0  0  0  0  0
   24.1967  -17.2765  -17.7516 C   0  0  0  0  0  0  0  0  0  0  0  0
   23.8176  -18.2798  -18.4087 O   0  0  0  0  0  0  0  0  0  0  0  0
   24.0806  -16.0722  -18.3336 O   0  0  0  0  0  0  0  0  0  0  0  0
  2  5  1  0
  2  1  1  6
  2  3  1  0
  4  3  1  0
  5  6  2  0
  7  8  1  0
  8  9  2  0
  8 10  1  0
 11 10  1  1
 11 13  1  0
 12 11  1  0
 12  5  1  0
 13 20  1  0
 13 14  2  0
 15 16  1  0
 17 16  1  0
 18 17  1  0
 19 18  1  6
 20 19  1  0
 21 19  1  0
 21 23  1  0
 22 21  2  0
M  END
$$$$
