CNM.pdb
     RDKit          3D

 23 22  0  0  1  0  0  0  0  0999 V2000
   29.3871  -21.6261  -18.4063 N   0  0  0  0  0  0  0  0  0  0  0  0
   28.6383  -22.3315  -17.3884 C   0  0  1  0  0  0  0  0  0  0  0  0
   29.6732  -22.9545  -16.4553 C   0  0  0  0  0  0  0  0  0  0  0  0
   30.5444  -24.3281  -17.2415 S   0  0  0  0  0  0  0  0  0  0  0  0
   27.8189  -21.3950  -16.5606 C   0  0  0  0  0  0  0  0  0  0  0  0
   28.1546  -20.1901  -16.4790 O   0  0  0  0  0  0  0  0  0  0  0  0
   24.5004  -23.1093  -14.9281 N   0  0  0  0  0  0  0  0  0  0  0  0
   23.8023  -22.0892  -15.6612 C   0  0  0  0  0  0  0  0  0  0  0  0
   22.6800  -22.3942  -16.1174 O   0  0  0  0  0  0  0  0  0  0  0  0
   24.4812  -20.7924  -15.7984 C   0  0  0  0  0  0  0  0  0  0  0  0
   25.8286  -20.8688  -15.1260 C   0  0  2  0  0  0  0  0  0  0  0  0
   26.6528  -21.8237  -15.8488 N   0  0  0  0  0  0  0  0  0  0  0  0
   25.6925  -21.3518  -13.7154 C   0  0  0  0  0  0  0  0  0  0  0  0
   25.9642  -22.5314  -13.3959 O   0  0  0  0  0  0  0  0  0  0  0  0
   28.5657  -20.4959   -7.8889 C   0  0  0  0  0  0  0  0  0  0  0  0
   26.8207  -19.9927   -7.6778 S   0  0  0  0  0  0  0  0  0  0  0  0
   25.7576  -20.5467   -8.9426 C   0  0  0  0  0  0  0  0  0  0  0  0
   25.9033  -20.3131  -10.3675 C   0  0  0  0  0  0  0  0  0  0  0  0
   25.0899  -21.0396  -11.3397 C   0  0  2  0  0  0  0  0  0  0  0  0
   25.2523  -20.4829  -12.7064 N   0  0  0  0  0  0  0  0  0  0  0  0
   23.6522  -20.5892  -11.1069 C   0  0  0  0  0  0  0  0  0  0  0  0
   23.1481  -19.7567  -11.9036 O   0  0  0  0  0  0  0  0  0  0  0  0
   22.8840  -21.0261  -10.0961 O   0  0  0  0  0  0  0  0  0  0  0  0
  2  5  1  0
  2  1  1  6
  2  3  1  0
  4  3  1  0
  5  6  2  0
  7  8  1  0
  8  9  2  0
  8 10  1  0
 11 10  1  6
 11 13  1  0
 12 11  1  0
 12  5  1  0
 13 20  1  0
 13 14  2  0
 15 16  1  0
 17 16  1  0
 18 17  1  0
 19 18  1  1
 20 19  1  0
 21 19  1  0
 21 23  1  0
 22 21  2  0
M  END
$$$$
