CNM.pdb
     RDKit          3D

 23 22  0  0  1  0  0  0  0  0999 V2000
   20.9412  -11.6827  -15.7222 N   0  0  0  0  0  0  0  0  0  0  0  0
   20.0896  -10.5439  -15.9914 C   0  0  1  0  0  0  0  0  0  0  0  0
   18.6590  -11.0759  -15.9983 C   0  0  0  0  0  0  0  0  0  0  0  0
   18.2905  -11.9896  -17.5127 S   0  0  0  0  0  0  0  0  0  0  0  0
   20.1673   -9.5286  -14.8974 C   0  0  0  0  0  0  0  0  0  0  0  0
   20.2454   -9.9110  -13.7063 O   0  0  0  0  0  0  0  0  0  0  0  0
   20.8389   -5.4224  -12.2009 N   0  0  0  0  0  0  0  0  0  0  0  0
   21.2556   -5.0014  -13.5102 C   0  0  0  0  0  0  0  0  0  0  0  0
   21.7928   -3.8766  -13.5938 O   0  0  0  0  0  0  0  0  0  0  0  0
   21.0065   -5.9380  -14.6157 C   0  0  0  0  0  0  0  0  0  0  0  0
   20.3099   -7.1618  -14.0765 C   0  0  2  0  0  0  0  0  0  0  0  0
   20.1559   -8.1208  -15.1582 N   0  0  0  0  0  0  0  0  0  0  0  0
   18.9446   -6.8161  -13.5686 C   0  0  0  0  0  0  0  0  0  0  0  0
   17.9689   -6.6875  -14.3425 O   0  0  0  0  0  0  0  0  0  0  0  0
   13.6783   -7.2673   -7.6917 C   0  0  0  0  0  0  0  0  0  0  0  0
   15.3616   -7.6983   -8.2601 S   0  0  0  0  0  0  0  0  0  0  0  0
   15.8397   -6.9152   -9.7417 C   0  0  0  0  0  0  0  0  0  0  0  0
   17.0767   -7.1166  -10.4735 C   0  0  0  0  0  0  0  0  0  0  0  0
   17.3229   -6.4375  -11.7434 C   0  0  2  0  0  0  0  0  0  0  0  0
   18.7240   -6.6264  -12.1967 N   0  0  0  0  0  0  0  0  0  0  0  0
   17.4146   -4.9513  -11.4158 C   0  0  0  0  0  0  0  0  0  0  0  0
   17.8945   -4.1750  -12.2813 O   0  0  0  0  0  0  0  0  0  0  0  0
   17.0148   -4.4141  -10.2521 O   0  0  0  0  0  0  0  0  0  0  0  0
  2  5  1  0
  2  1  1  1
  2  3  1  0
  4  3  1  0
  5  6  2  0
  7  8  1  0
  8  9  2  0
  8 10  1  0
 11 10  1  6
 11 13  1  0
 12 11  1  0
 12  5  1  0
 13 20  1  0
 13 14  2  0
 15 16  1  0
 17 16  1  0
 18 17  1  0
 19 18  1  1
 20 19  1  0
 21 19  1  0
 21 23  1  0
 22 21  2  0
M  END
$$$$
