CNM.pdb
     RDKit          3D

 23 22  0  0  1  0  0  0  0  0999 V2000
   16.6778  -19.4782    2.0532 N   0  0  0  0  0  0  0  0  0  0  0  0
   16.4780  -19.7770    3.4551 C   0  0  1  0  0  0  0  0  0  0  0  0
   17.6056  -20.7262    3.8518 C   0  0  0  0  0  0  0  0  0  0  0  0
   17.5666  -22.2538    2.8881 S   0  0  0  0  0  0  0  0  0  0  0  0
   16.6235  -18.5553    4.3037 C   0  0  0  0  0  0  0  0  0  0  0  0
   17.4773  -17.6903    3.9972 O   0  0  0  0  0  0  0  0  0  0  0  0
   14.5830  -15.4580    4.5511 N   0  0  0  0  0  0  0  0  0  0  0  0
   13.7988  -15.8946    5.6735 C   0  0  0  0  0  0  0  0  0  0  0  0
   12.6069  -15.5214    5.7047 O   0  0  0  0  0  0  0  0  0  0  0  0
   14.4804  -16.7351    6.6687 C   0  0  0  0  0  0  0  0  0  0  0  0
   15.8662  -17.0607    6.1715 C   0  0  2  0  0  0  0  0  0  0  0  0
   15.8178  -18.3309    5.4659 N   0  0  0  0  0  0  0  0  0  0  0  0
   16.8214  -17.2046    7.3154 C   0  0  0  0  0  0  0  0  0  0  0  0
   16.9075  -18.2687    7.9694 O   0  0  0  0  0  0  0  0  0  0  0  0
   23.3061  -16.9082    7.7061 C   0  0  0  0  0  0  0  0  0  0  0  0
   22.7422  -15.8574    9.0919 S   0  0  0  0  0  0  0  0  0  0  0  0
   21.0327  -15.9557    9.4156 C   0  0  0  0  0  0  0  0  0  0  0  0
   19.9596  -15.9524    8.4385 C   0  0  0  0  0  0  0  0  0  0  0  0
   18.6046  -16.3601    8.8025 C   0  0  2  0  0  0  0  0  0  0  0  0
   17.6528  -16.1374    7.6850 N   0  0  0  0  0  0  0  0  0  0  0  0
   18.0759  -15.2784    9.7377 C   0  0  0  0  0  0  0  0  0  0  0  0
   17.2796  -14.4221    9.2745 O   0  0  0  0  0  0  0  0  0  0  0  0
   18.4104  -15.1791   11.0342 O   0  0  0  0  0  0  0  0  0  0  0  0
  2  5  1  0
  2  1  1  6
  2  3  1  0
  4  3  1  0
  5  6  2  0
  7  8  1  0
  8  9  2  0
  8 10  1  0
 11 10  1  1
 11 13  1  0
 12 11  1  0
 12  5  1  0
 13 20  1  0
 13 14  2  0
 15 16  1  0
 17 16  1  0
 18 17  1  0
 19 18  1  6
 20 19  1  0
 21 19  1  0
 21 23  1  0
 22 21  2  0
M  END
$$$$
