CNM.pdb
     RDKit          3D

 23 22  0  0  1  0  0  0  0  0999 V2000
   20.4449  -16.3347  -17.0353 N   0  0  0  0  0  0  0  0  0  0  0  0
   21.1162  -15.3851  -16.1739 C   0  0  1  0  0  0  0  0  0  0  0  0
   22.6038  -15.4971  -16.4967 C   0  0  0  0  0  0  0  0  0  0  0  0
   23.3622  -16.9191  -15.6802 S   0  0  0  0  0  0  0  0  0  0  0  0
   20.7118  -13.9801  -16.4840 C   0  0  0  0  0  0  0  0  0  0  0  0
   20.4726  -13.6554  -17.6708 O   0  0  0  0  0  0  0  0  0  0  0  0
   17.7169   -9.7131  -16.7436 N   0  0  0  0  0  0  0  0  0  0  0  0
   18.3977  -10.0015  -15.5113 C   0  0  0  0  0  0  0  0  0  0  0  0
   18.6051   -9.0365  -14.7454 O   0  0  0  0  0  0  0  0  0  0  0  0
   18.7795  -11.4022  -15.2795 C   0  0  0  0  0  0  0  0  0  0  0  0
   20.1753  -11.6250  -15.8045 C   0  0  2  0  0  0  0  0  0  0  0  0
   20.5852  -12.9788  -15.4684 N   0  0  0  0  0  0  0  0  0  0  0  0
   21.1419  -10.6780  -15.1639 C   0  0  0  0  0  0  0  0  0  0  0  0
   21.5862  -10.8735  -14.0098 O   0  0  0  0  0  0  0  0  0  0  0  0
   26.8130  -11.5585  -15.1954 C   0  0  0  0  0  0  0  0  0  0  0  0
   25.2215  -10.9387  -15.8478 S   0  0  0  0  0  0  0  0  0  0  0  0
   24.9642   -9.2322  -15.6060 C   0  0  0  0  0  0  0  0  0  0  0  0
   23.7681   -8.4771  -15.9306 C   0  0  0  0  0  0  0  0  0  0  0  0
   22.5386   -8.6398  -15.1584 C   0  0  2  0  0  0  0  0  0  0  0  0
   21.5780   -9.5356  -15.8506 N   0  0  0  0  0  0  0  0  0  0  0  0
   21.7602   -7.3397  -15.3261 C   0  0  0  0  0  0  0  0  0  0  0  0
   20.9273   -7.2563  -16.2649 O   0  0  0  0  0  0  0  0  0  0  0  0
   21.9099   -6.2684  -14.5309 O   0  0  0  0  0  0  0  0  0  0  0  0
  2  5  1  0
  2  1  1  6
  2  3  1  0
  4  3  1  0
  5  6  2  0
  7  8  1  0
  8  9  2  0
  8 10  1  0
 11 10  1  1
 11 13  1  0
 12 11  1  0
 12  5  1  0
 13 20  1  0
 13 14  2  0
 15 16  1  0
 17 16  1  0
 18 17  1  0
 19 18  1  6
 20 19  1  0
 21 19  1  0
 21 23  1  0
 22 21  2  0
M  END
$$$$
