CNM.pdb
     RDKit          3D

 23 22  0  0  1  0  0  0  0  0999 V2000
   26.9177  -19.3750  -15.9175 N   0  0  0  0  0  0  0  0  0  0  0  0
   27.0173  -20.3639  -14.8656 C   0  0  1  0  0  0  0  0  0  0  0  0
   28.4919  -20.4216  -14.4755 C   0  0  0  0  0  0  0  0  0  0  0  0
   28.7889  -21.6128  -13.1501 S   0  0  0  0  0  0  0  0  0  0  0  0
   26.2639  -19.9454  -13.6445 C   0  0  0  0  0  0  0  0  0  0  0  0
   26.2790  -18.7422  -13.2934 O   0  0  0  0  0  0  0  0  0  0  0  0
   22.0864  -20.8150  -13.7655 N   0  0  0  0  0  0  0  0  0  0  0  0
   22.5840  -20.1801  -12.5762 C   0  0  0  0  0  0  0  0  0  0  0  0
   22.2651  -18.9847  -12.4025 O   0  0  0  0  0  0  0  0  0  0  0  0
   23.4169  -21.0030  -11.6871 C   0  0  0  0  0  0  0  0  0  0  0  0
   24.8136  -20.4356  -11.6565 C   0  0  2  0  0  0  0  0  0  0  0  0
   25.5172  -20.8740  -12.8507 N   0  0  0  0  0  0  0  0  0  0  0  0
   25.5669  -20.9409  -10.4655 C   0  0  0  0  0  0  0  0  0  0  0  0
   26.0128  -22.1098  -10.4177 O   0  0  0  0  0  0  0  0  0  0  0  0
   30.0289  -18.3074   -5.6395 C   0  0  0  0  0  0  0  0  0  0  0  0
   28.4661  -18.9563   -4.9473 S   0  0  0  0  0  0  0  0  0  0  0  0
   27.5952  -20.0196   -6.0186 C   0  0  0  0  0  0  0  0  0  0  0  0
   27.0812  -19.6977   -7.3371 C   0  0  0  0  0  0  0  0  0  0  0  0
   26.4197  -20.7090   -8.1581 C   0  0  2  0  0  0  0  0  0  0  0  0
   25.7940  -20.1058   -9.3619 N   0  0  0  0  0  0  0  0  0  0  0  0
   25.1347  -21.0741   -7.4233 C   0  0  0  0  0  0  0  0  0  0  0  0
   25.2235  -21.6869   -6.3285 O   0  0  0  0  0  0  0  0  0  0  0  0
   23.9043  -20.7833   -7.8749 O   0  0  0  0  0  0  0  0  0  0  0  0
  2  5  1  0
  2  1  1  6
  2  3  1  0
  4  3  1  0
  5  6  2  0
  7  8  1  0
  8  9  2  0
  8 10  1  0
 11 10  1  6
 11 13  1  0
 12 11  1  0
 12  5  1  0
 13 20  1  0
 13 14  2  0
 15 16  1  0
 17 16  1  0
 18 17  1  0
 19 18  1  1
 20 19  1  0
 21 19  1  0
 21 23  1  0
 22 21  2  0
M  END
$$$$
