CNM.pdb
     RDKit          3D

 23 22  0  0  1  0  0  0  0  0999 V2000
   27.7305  -22.1467  -16.8838 N   0  0  0  0  0  0  0  0  0  0  0  0
   27.9245  -21.4564  -15.6266 C   0  0  1  0  0  0  0  0  0  0  0  0
   28.1932  -19.9963  -15.9811 C   0  0  0  0  0  0  0  0  0  0  0  0
   26.7213  -19.1853  -16.6440 S   0  0  0  0  0  0  0  0  0  0  0  0
   26.6853  -21.4769  -14.7913 C   0  0  0  0  0  0  0  0  0  0  0  0
   25.6391  -21.9897  -15.2535 O   0  0  0  0  0  0  0  0  0  0  0  0
   23.3995  -21.3467  -11.0731 N   0  0  0  0  0  0  0  0  0  0  0  0
   24.5774  -20.8572  -10.4112 C   0  0  0  0  0  0  0  0  0  0  0  0
   24.4897  -20.6619   -9.1804 O   0  0  0  0  0  0  0  0  0  0  0  0
   25.7638  -20.6368  -11.2512 C   0  0  0  0  0  0  0  0  0  0  0  0
   25.4244  -20.9754  -12.6807 C   0  0  2  0  0  0  0  0  0  0  0  0
   26.6447  -20.9279  -13.4696 N   0  0  0  0  0  0  0  0  0  0  0  0
   24.4672  -19.9754  -13.2512 C   0  0  0  0  0  0  0  0  0  0  0  0
   24.8595  -18.8795  -13.7124 O   0  0  0  0  0  0  0  0  0  0  0  0
   23.7517  -18.9199  -18.7582 C   0  0  0  0  0  0  0  0  0  0  0  0
   21.9947  -18.8381  -18.2595 S   0  0  0  0  0  0  0  0  0  0  0  0
   21.7397  -18.8187  -16.5357 C   0  0  0  0  0  0  0  0  0  0  0  0
   22.5485  -19.4796  -15.5281 C   0  0  0  0  0  0  0  0  0  0  0  0
   22.2328  -19.3589  -14.1067 C   0  0  2  0  0  0  0  0  0  0  0  0
   23.0917  -20.2467  -13.2831 N   0  0  0  0  0  0  0  0  0  0  0  0
   20.9177  -20.1026  -13.9024 C   0  0  0  0  0  0  0  0  0  0  0  0
   20.9573  -21.2824  -13.4683 O   0  0  0  0  0  0  0  0  0  0  0  0
   19.7103  -19.5754  -14.1605 O   0  0  0  0  0  0  0  0  0  0  0  0
  2  5  1  0
  2  1  1  6
  2  3  1  0
  4  3  1  0
  5  6  2  0
  7  8  1  0
  8  9  2  0
  8 10  1  0
 11 10  1  1
 11 13  1  0
 12 11  1  0
 12  5  1  0
 13 20  1  0
 13 14  2  0
 15 16  1  0
 17 16  1  0
 18 17  1  0
 19 18  1  6
 20 19  1  0
 21 19  1  0
 21 23  1  0
 22 21  2  0
M  END
$$$$
