YHK.pdb
     RDKit          3D

 32 33  0  0  1  0  0  0  0  0999 V2000
    6.0865  -10.0652   26.9765 O   0  0  0  0  0  0  0  0  0  0  0  0
    6.3752  -11.3979   26.6907 C   0  0  0  0  0  0  0  0  0  0  0  0
    5.5684  -12.3807   27.2400 C   0  0  0  0  0  0  0  0  0  0  0  0
    5.8820  -13.6881   26.9370 C   0  0  0  0  0  0  0  0  0  0  0  0
    6.9372  -14.0209   26.1327 C   0  0  0  0  0  0  0  0  0  0  0  0
    7.2998  -15.4088   25.7888 C   0  0  0  0  0  0  0  0  0  0  0  0
    6.7533  -15.8084   24.4121 C   0  0  2  0  0  0  0  0  0  0  0  0
    5.9459  -16.9950   24.6218 N   0  0  0  0  0  0  0  0  0  0  0  0
    7.9353  -16.1895   23.5991 C   0  0  0  0  0  0  0  0  0  0  0  0
    8.4284  -17.3586   23.6510 O   0  0  0  0  0  0  0  0  0  0  0  0
    7.7251  -13.0084   25.5990 C   0  0  0  0  0  0  0  0  0  0  0  0
    7.4413  -11.6835   25.8808 C   0  0  0  0  0  0  0  0  0  0  0  0
    8.5966  -15.2866   22.7121 N   0  0  0  0  0  0  0  0  0  0  0  0
    9.7499  -15.6824   21.9291 C   0  0  1  0  0  0  0  0  0  0  0  0
   10.0795  -14.5363   20.9684 C   0  0  0  0  0  0  0  0  0  0  0  0
    9.0968  -14.4451   19.8789 C   0  0  0  0  0  0  0  0  0  0  0  0
    8.0527  -15.2654   19.5872 C   0  0  0  0  0  0  0  0  0  0  0  0
    7.4092  -14.8017   18.4925 N   0  0  0  0  0  0  0  0  0  0  0  0
    8.0730  -13.6997   18.1299 C   0  0  0  0  0  0  0  0  0  0  0  0
    9.1025  -13.4548   18.9499 N   0  0  0  0  0  0  0  0  0  0  0  0
   10.9481  -15.8838   22.7890 C   0  0  0  0  0  0  0  0  0  0  0  0
   11.2329  -14.9757   23.6101 O   0  0  0  0  0  0  0  0  0  0  0  0
   11.7673  -17.0184   22.7335 N   0  0  0  0  0  0  0  0  0  0  0  0
   12.6132  -17.4152   23.8313 C   0  0  1  0  0  0  0  0  0  0  0  0
   12.0460  -18.5124   24.6628 C   0  0  0  0  0  0  0  0  0  0  0  0
   12.8767  -19.0346   25.7679 C   0  0  0  0  0  0  0  0  0  0  0  0
   12.2583  -20.0921   26.6083 C   0  0  0  0  0  0  0  0  0  0  0  0
   13.2079  -20.4892   27.7220 C   0  0  0  0  0  0  0  0  0  0  0  0
   12.6927  -21.5170   28.5666 N   0  0  0  0  0  0  0  0  0  0  0  0
   14.0127  -17.6100   23.4455 C   0  0  0  0  0  0  0  0  0  0  0  0
   14.9355  -17.8087   24.2733 O   0  0  0  0  0  0  0  0  0  0  0  0
   14.3613  -17.5779   22.1065 O   0  0  0  0  0  0  0  0  0  0  0  0
  2  1  1  0
  3  2  2  0
  4  3  1  0
  5 11  1  0
  5  4  2  0
  6  5  1  0
  7  8  1  1
  7  6  1  0
  9 13  1  0
  9  7  1  0
 10  9  2  0
 11 12  2  0
 12  2  1  0
 14 13  1  0
 14 15  1  6
 15 16  1  0
 16 17  2  0
 17 18  1  0
 19 18  1  0
 20 16  1  0
 20 19  2  0
 21 14  1  0
 22 21  2  0
 23 21  1  0
 24 30  1  0
 24 23  1  0
 24 25  1  6
 26 25  1  0
 27 26  1  0
 27 28  1  0
 29 28  1  0
 30 32  1  0
 31 30  2  0
M  END
$$$$
