YHK.pdb
     RDKit          3D

 32 33  0  0  1  0  0  0  0  0999 V2000
    7.1407  -11.1035   18.9037 O   0  0  0  0  0  0  0  0  0  0  0  0
    7.7933  -12.2468   19.3596 C   0  0  0  0  0  0  0  0  0  0  0  0
    9.1624  -12.3443   19.1731 C   0  0  0  0  0  0  0  0  0  0  0  0
    9.7762  -13.4882   19.6360 C   0  0  0  0  0  0  0  0  0  0  0  0
    9.0832  -14.4927   20.2539 C   0  0  0  0  0  0  0  0  0  0  0  0
    9.7090  -15.7287   20.7605 C   0  0  0  0  0  0  0  0  0  0  0  0
   10.2332  -16.6043   19.6150 C   0  0  2  0  0  0  0  0  0  0  0  0
    9.0656  -17.1663   18.9631 N   0  0  0  0  0  0  0  0  0  0  0  0
   10.9831  -17.7118   20.2586 C   0  0  0  0  0  0  0  0  0  0  0  0
   10.3866  -18.7131   20.7629 O   0  0  0  0  0  0  0  0  0  0  0  0
    7.7105  -14.3606   20.4238 C   0  0  0  0  0  0  0  0  0  0  0  0
    7.0589  -13.2263   19.9722 C   0  0  0  0  0  0  0  0  0  0  0  0
   12.4075  -17.7356   20.3582 N   0  0  0  0  0  0  0  0  0  0  0  0
   13.1194  -18.8495   20.9519 C   0  0  1  0  0  0  0  0  0  0  0  0
   14.4844  -18.9524   20.2652 C   0  0  0  0  0  0  0  0  0  0  0  0
   14.3755  -19.5734   18.9372 C   0  0  0  0  0  0  0  0  0  0  0  0
   14.0054  -20.8382   18.6035 C   0  0  0  0  0  0  0  0  0  0  0  0
   14.0462  -20.9785   17.2595 N   0  0  0  0  0  0  0  0  0  0  0  0
   14.4426  -19.7915   16.7899 C   0  0  0  0  0  0  0  0  0  0  0  0
   14.6511  -18.9163   17.7813 N   0  0  0  0  0  0  0  0  0  0  0  0
   13.3801  -18.6192   22.3993 C   0  0  0  0  0  0  0  0  0  0  0  0
   13.8592  -17.5062   22.7331 O   0  0  0  0  0  0  0  0  0  0  0  0
   13.1231  -19.5657   23.3991 N   0  0  0  0  0  0  0  0  0  0  0  0
   13.4538  -19.3364   24.7834 C   0  0  1  0  0  0  0  0  0  0  0  0
   12.7668  -20.2601   25.7278 C   0  0  0  0  0  0  0  0  0  0  0  0
   13.0535  -20.1047   27.1691 C   0  0  0  0  0  0  0  0  0  0  0  0
   12.5121  -21.1615   28.0618 C   0  0  0  0  0  0  0  0  0  0  0  0
   12.9109  -20.8803   29.4977 C   0  0  0  0  0  0  0  0  0  0  0  0
   12.5780  -21.9375   30.3959 N   0  0  0  0  0  0  0  0  0  0  0  0
   14.8916  -19.1883   25.0205 C   0  0  0  0  0  0  0  0  0  0  0  0
   15.7564  -19.9425   24.5107 O   0  0  0  0  0  0  0  0  0  0  0  0
   15.3455  -18.1731   25.8444 O   0  0  0  0  0  0  0  0  0  0  0  0
  2  1  1  0
  3  2  2  0
  4  3  1  0
  5 11  1  0
  5  4  2  0
  6  5  1  0
  7  8  1  1
  7  6  1  0
  9 13  1  0
  9  7  1  0
 10  9  2  0
 11 12  2  0
 12  2  1  0
 14 13  1  0
 14 15  1  6
 15 16  1  0
 16 17  2  0
 17 18  1  0
 19 18  1  0
 20 16  1  0
 20 19  2  0
 21 14  1  0
 22 21  2  0
 23 21  1  0
 24 30  1  0
 24 23  1  0
 24 25  1  1
 26 25  1  0
 27 26  1  0
 27 28  1  0
 29 28  1  0
 30 32  1  0
 31 30  2  0
M  END
$$$$
