YHK.pdb
     RDKit          3D

 32 33  0  0  1  0  0  0  0  0999 V2000
    4.9417  -10.5098   27.2148 O   0  0  0  0  0  0  0  0  0  0  0  0
    5.5594  -11.7184   26.9000 C   0  0  0  0  0  0  0  0  0  0  0  0
    6.5010  -11.7339   25.8844 C   0  0  0  0  0  0  0  0  0  0  0  0
    7.0924  -12.9456   25.5990 C   0  0  0  0  0  0  0  0  0  0  0  0
    6.7779  -14.0918   26.2760 C   0  0  0  0  0  0  0  0  0  0  0  0
    7.3916  -15.4037   25.9959 C   0  0  0  0  0  0  0  0  0  0  0  0
    6.5790  -16.1961   24.9637 C   0  0  2  0  0  0  0  0  0  0  0  0
    6.5520  -17.5688   25.4316 N   0  0  0  0  0  0  0  0  0  0  0  0
    7.3639  -16.1505   23.7047 C   0  0  0  0  0  0  0  0  0  0  0  0
    8.3022  -16.9752   23.4765 O   0  0  0  0  0  0  0  0  0  0  0  0
    5.8284  -14.0387   27.2890 C   0  0  0  0  0  0  0  0  0  0  0  0
    5.2129  -12.8400   27.6044 C   0  0  0  0  0  0  0  0  0  0  0  0
    7.1280  -15.1927   22.6721 N   0  0  0  0  0  0  0  0  0  0  0  0
    7.8459  -15.2245   21.4137 C   0  0  1  0  0  0  0  0  0  0  0  0
    7.3961  -14.0163   20.5872 C   0  0  0  0  0  0  0  0  0  0  0  0
    7.9128  -14.0795   19.2124 C   0  0  0  0  0  0  0  0  0  0  0  0
    8.8015  -14.9496   18.6634 C   0  0  0  0  0  0  0  0  0  0  0  0
    8.9904  -14.6375   17.3617 N   0  0  0  0  0  0  0  0  0  0  0  0
    8.2104  -13.5762   17.1337 C   0  0  0  0  0  0  0  0  0  0  0  0
    7.5430  -13.2119   18.2356 N   0  0  0  0  0  0  0  0  0  0  0  0
    9.3133  -15.0843   21.6208 C   0  0  0  0  0  0  0  0  0  0  0  0
    9.6985  -14.3931   22.5973 O   0  0  0  0  0  0  0  0  0  0  0  0
   10.2783  -15.6746   20.7950 N   0  0  0  0  0  0  0  0  0  0  0  0
   11.4637  -16.3047   21.3203 C   0  0  1  0  0  0  0  0  0  0  0  0
   11.2103  -17.1745   22.5020 C   0  0  0  0  0  0  0  0  0  0  0  0
   12.3594  -17.9081   23.0722 C   0  0  0  0  0  0  0  0  0  0  0  0
   12.0637  -18.7889   24.2313 C   0  0  0  0  0  0  0  0  0  0  0  0
   13.3243  -19.5097   24.6685 C   0  0  0  0  0  0  0  0  0  0  0  0
   13.1507  -20.2888   25.8508 N   0  0  0  0  0  0  0  0  0  0  0  0
   12.3026  -16.9167   20.2874 C   0  0  0  0  0  0  0  0  0  0  0  0
   11.8644  -17.7234   19.4309 O   0  0  0  0  0  0  0  0  0  0  0  0
   13.6502  -16.6064   20.2316 O   0  0  0  0  0  0  0  0  0  0  0  0
  2  1  1  0
  3  2  2  0
  4  3  1  0
  5 11  1  0
  5  4  2  0
  6  5  1  0
  7  8  1  1
  7  6  1  0
  9 13  1  0
  9  7  1  0
 10  9  2  0
 11 12  2  0
 12  2  1  0
 14 13  1  0
 14 15  1  6
 15 16  1  0
 16 17  2  0
 17 18  1  0
 19 18  1  0
 20 16  1  0
 20 19  2  0
 21 14  1  0
 22 21  2  0
 23 21  1  0
 24 30  1  0
 24 23  1  0
 24 25  1  1
 26 25  1  0
 27 26  1  0
 27 28  1  0
 29 28  1  0
 30 32  1  0
 31 30  2  0
M  END
$$$$
