YHK.pdb
     RDKit          3D

 32 33  0  0  1  0  0  0  0  0999 V2000
    6.0996  -10.5346   27.3927 O   0  0  0  0  0  0  0  0  0  0  0  0
    6.3120  -11.8192   26.8967 C   0  0  0  0  0  0  0  0  0  0  0  0
    7.2357  -11.9895   25.8787 C   0  0  0  0  0  0  0  0  0  0  0  0
    7.4213  -13.2728   25.4116 C   0  0  0  0  0  0  0  0  0  0  0  0
    6.7348  -14.3427   25.9168 C   0  0  0  0  0  0  0  0  0  0  0  0
    6.9095  -15.7277   25.4400 C   0  0  0  0  0  0  0  0  0  0  0  0
    6.3895  -15.8992   24.0069 C   0  0  2  0  0  0  0  0  0  0  0  0
    5.5717  -17.0972   24.0098 N   0  0  0  0  0  0  0  0  0  0  0  0
    7.5859  -16.1564   23.1670 C   0  0  0  0  0  0  0  0  0  0  0  0
    8.0950  -17.3160   23.0731 O   0  0  0  0  0  0  0  0  0  0  0  0
    5.8158  -14.1343   26.9379 C   0  0  0  0  0  0  0  0  0  0  0  0
    5.6022  -12.8597   27.4329 C   0  0  0  0  0  0  0  0  0  0  0  0
    8.2444  -15.1375   22.4135 N   0  0  0  0  0  0  0  0  0  0  0  0
    9.3808  -15.4231   21.5609 C   0  0  1  0  0  0  0  0  0  0  0  0
    9.7131  -14.1479   20.7808 C   0  0  0  0  0  0  0  0  0  0  0  0
    8.8337  -13.9835   19.6143 C   0  0  0  0  0  0  0  0  0  0  0  0
    8.0762  -12.9157   19.2480 C   0  0  0  0  0  0  0  0  0  0  0  0
    7.4224  -13.2014   18.0997 N   0  0  0  0  0  0  0  0  0  0  0  0
    7.7922  -14.4454   17.7800 C   0  0  0  0  0  0  0  0  0  0  0  0
    8.6479  -14.9492   18.6780 N   0  0  0  0  0  0  0  0  0  0  0  0
   10.5880  -15.7675   22.3607 C   0  0  0  0  0  0  0  0  0  0  0  0
   10.9202  -14.9776   23.2803 O   0  0  0  0  0  0  0  0  0  0  0  0
   11.3661  -16.9122   22.1465 N   0  0  0  0  0  0  0  0  0  0  0  0
   12.4060  -17.3211   23.0573 C   0  0  1  0  0  0  0  0  0  0  0  0
   12.3216  -18.7506   23.4653 C   0  0  0  0  0  0  0  0  0  0  0  0
   13.4060  -19.2864   24.3143 C   0  0  0  0  0  0  0  0  0  0  0  0
   13.3547  -20.7434   24.5995 C   0  0  0  0  0  0  0  0  0  0  0  0
   14.5001  -21.1323   25.5142 C   0  0  0  0  0  0  0  0  0  0  0  0
   14.4101  -22.4715   25.9974 N   0  0  0  0  0  0  0  0  0  0  0  0
   13.7430  -16.8876   22.6451 C   0  0  0  0  0  0  0  0  0  0  0  0
   14.0745  -16.7188   21.4459 O   0  0  0  0  0  0  0  0  0  0  0  0
   14.7078  -16.6453   23.6073 O   0  0  0  0  0  0  0  0  0  0  0  0
  2  1  1  0
  3  2  2  0
  4  3  1  0
  5 11  1  0
  5  4  2  0
  6  5  1  0
  7  8  1  1
  7  6  1  0
  9 13  1  0
  9  7  1  0
 10  9  2  0
 11 12  2  0
 12  2  1  0
 14 13  1  0
 14 15  1  1
 15 16  1  0
 16 17  2  0
 17 18  1  0
 19 18  1  0
 20 16  1  0
 20 19  2  0
 21 14  1  0
 22 21  2  0
 23 21  1  0
 24 30  1  0
 24 23  1  0
 24 25  1  6
 26 25  1  0
 27 26  1  0
 27 28  1  0
 29 28  1  0
 30 32  1  0
 31 30  2  0
M  END
$$$$
