YHK.pdb
     RDKit          3D

 32 33  0  0  1  0  0  0  0  0999 V2000
    5.0506  -12.2695   19.0928 O   0  0  0  0  0  0  0  0  0  0  0  0
    6.3557  -12.7424   19.2122 C   0  0  0  0  0  0  0  0  0  0  0  0
    7.3953  -11.9200   18.8105 C   0  0  0  0  0  0  0  0  0  0  0  0
    8.6733  -12.4188   18.9422 C   0  0  0  0  0  0  0  0  0  0  0  0
    8.9247  -13.6661   19.4443 C   0  0  0  0  0  0  0  0  0  0  0  0
   10.2792  -14.2298   19.5985 C   0  0  0  0  0  0  0  0  0  0  0  0
   10.8832  -14.6214   18.2437 C   0  0  2  0  0  0  0  0  0  0  0  0
   10.1132  -15.7538   17.7652 N   0  0  0  0  0  0  0  0  0  0  0  0
   12.2628  -15.0871   18.5316 C   0  0  0  0  0  0  0  0  0  0  0  0
   12.4882  -16.2423   19.0083 O   0  0  0  0  0  0  0  0  0  0  0  0
    7.8570  -14.4636   19.8373 C   0  0  0  0  0  0  0  0  0  0  0  0
    6.5593  -13.9972   19.7201 C   0  0  0  0  0  0  0  0  0  0  0  0
   13.4217  -14.2857   18.2986 N   0  0  0  0  0  0  0  0  0  0  0  0
   14.7560  -14.7487   18.6229 C   0  0  1  0  0  0  0  0  0  0  0  0
   15.7506  -13.6947   18.1279 C   0  0  0  0  0  0  0  0  0  0  0  0
   17.1278  -14.2091   18.1286 C   0  0  0  0  0  0  0  0  0  0  0  0
   17.6041  -15.4004   18.5780 C   0  0  0  0  0  0  0  0  0  0  0  0
   18.9405  -15.4533   18.3808 N   0  0  0  0  0  0  0  0  0  0  0  0
   19.2623  -14.2877   17.8111 C   0  0  0  0  0  0  0  0  0  0  0  0
   18.1858  -13.5095   17.6438 N   0  0  0  0  0  0  0  0  0  0  0  0
   14.9482  -14.8670   20.0942 C   0  0  0  0  0  0  0  0  0  0  0  0
   14.7078  -13.8515   20.7948 O   0  0  0  0  0  0  0  0  0  0  0  0
   15.3779  -16.0364   20.7340 N   0  0  0  0  0  0  0  0  0  0  0  0
   15.4283  -16.1579   22.1696 C   0  0  1  0  0  0  0  0  0  0  0  0
   14.5109  -17.1941   22.7189 C   0  0  0  0  0  0  0  0  0  0  0  0
   14.5577  -17.4494   24.1737 C   0  0  0  0  0  0  0  0  0  0  0  0
   13.6663  -18.5252   24.6785 C   0  0  0  0  0  0  0  0  0  0  0  0
   13.7860  -18.6313   26.1866 C   0  0  0  0  0  0  0  0  0  0  0  0
   12.8373  -19.5233   26.7691 N   0  0  0  0  0  0  0  0  0  0  0  0
   16.7922  -16.2148   22.7003 C   0  0  0  0  0  0  0  0  0  0  0  0
   17.1024  -15.8169   23.8501 O   0  0  0  0  0  0  0  0  0  0  0  0
   17.8086  -16.7289   21.9142 O   0  0  0  0  0  0  0  0  0  0  0  0
  2  1  1  0
  3  2  2  0
  4  3  1  0
  5 11  1  0
  5  4  2  0
  6  5  1  0
  7  8  1  1
  7  6  1  0
  9 13  1  0
  9  7  1  0
 10  9  2  0
 11 12  2  0
 12  2  1  0
 14 13  1  0
 14 15  1  1
 15 16  1  0
 16 17  2  0
 17 18  1  0
 19 18  1  0
 20 16  1  0
 20 19  2  0
 21 14  1  0
 22 21  2  0
 23 21  1  0
 24 30  1  0
 24 23  1  0
 24 25  1  6
 26 25  1  0
 27 26  1  0
 27 28  1  0
 29 28  1  0
 30 32  1  0
 31 30  2  0
M  END
$$$$
