YHK.pdb
     RDKit          3D

 32 33  0  0  1  0  0  0  0  0999 V2000
    7.8816  -11.3224   26.9951 O   0  0  0  0  0  0  0  0  0  0  0  0
    7.4782  -12.6004   26.6142 C   0  0  0  0  0  0  0  0  0  0  0  0
    8.4318  -13.6031   26.5535 C   0  0  0  0  0  0  0  0  0  0  0  0
    7.9988  -14.8551   26.1733 C   0  0  0  0  0  0  0  0  0  0  0  0
    6.6917  -15.1162   25.8659 C   0  0  0  0  0  0  0  0  0  0  0  0
    6.1956  -16.4435   25.4559 C   0  0  0  0  0  0  0  0  0  0  0  0
    5.9384  -16.5058   23.9448 C   0  0  2  0  0  0  0  0  0  0  0  0
    5.3492  -17.8054   23.6840 N   0  0  0  0  0  0  0  0  0  0  0  0
    7.2755  -16.4653   23.3016 C   0  0  0  0  0  0  0  0  0  0  0  0
    8.0712  -17.4532   23.3602 O   0  0  0  0  0  0  0  0  0  0  0  0
    5.7624  -14.0857   25.9378 C   0  0  0  0  0  0  0  0  0  0  0  0
    6.1595  -12.8150   26.3157 C   0  0  0  0  0  0  0  0  0  0  0  0
    7.7607  -15.3323   22.5803 N   0  0  0  0  0  0  0  0  0  0  0  0
    9.0416  -15.3414   21.9028 C   0  0  1  0  0  0  0  0  0  0  0  0
    9.1606  -14.0377   21.1084 C   0  0  0  0  0  0  0  0  0  0  0  0
    8.5349  -14.1535   19.7832 C   0  0  0  0  0  0  0  0  0  0  0  0
    7.9834  -15.2404   19.1810 C   0  0  0  0  0  0  0  0  0  0  0  0
    7.5237  -14.8919   17.9583 N   0  0  0  0  0  0  0  0  0  0  0  0
    7.8026  -13.5908   17.8312 C   0  0  0  0  0  0  0  0  0  0  0  0
    8.4160  -13.1117   18.9205 N   0  0  0  0  0  0  0  0  0  0  0  0
   10.1702  -15.3608   22.8732 C   0  0  0  0  0  0  0  0  0  0  0  0
   10.2478  -14.4108   23.6926 O   0  0  0  0  0  0  0  0  0  0  0  0
   11.1404  -16.3696   22.9225 N   0  0  0  0  0  0  0  0  0  0  0  0
   12.1540  -16.4175   23.9465 C   0  0  1  0  0  0  0  0  0  0  0  0
   12.0285  -17.5835   24.8641 C   0  0  0  0  0  0  0  0  0  0  0  0
   13.0664  -17.7537   25.9021 C   0  0  0  0  0  0  0  0  0  0  0  0
   12.9890  -18.9999   26.7069 C   0  0  0  0  0  0  0  0  0  0  0  0
   14.0553  -18.9865   27.7853 C   0  0  0  0  0  0  0  0  0  0  0  0
   13.9896  -20.1106   28.6612 N   0  0  0  0  0  0  0  0  0  0  0  0
   13.5079  -16.1934   23.4348 C   0  0  0  0  0  0  0  0  0  0  0  0
   14.4672  -15.8278   24.1577 O   0  0  0  0  0  0  0  0  0  0  0  0
   13.7690  -16.3877   22.0896 O   0  0  0  0  0  0  0  0  0  0  0  0
  2  1  1  0
  3  2  2  0
  4  3  1  0
  5 11  1  0
  5  4  2  0
  6  5  1  0
  7  8  1  1
  7  6  1  0
  9 13  1  0
  9  7  1  0
 10  9  2  0
 11 12  2  0
 12  2  1  0
 14 13  1  0
 14 15  1  1
 15 16  1  0
 16 17  2  0
 17 18  1  0
 19 18  1  0
 20 16  1  0
 20 19  2  0
 21 14  1  0
 22 21  2  0
 23 21  1  0
 24 30  1  0
 24 23  1  0
 24 25  1  6
 26 25  1  0
 27 26  1  0
 27 28  1  0
 29 28  1  0
 30 32  1  0
 31 30  2  0
M  END
$$$$
