YHK.pdb
     RDKit          3D

 32 33  0  0  1  0  0  0  0  0999 V2000
    8.6381  -13.3899   16.1811 O   0  0  0  0  0  0  0  0  0  0  0  0
    8.2430  -13.7499   17.4678 C   0  0  0  0  0  0  0  0  0  0  0  0
    8.8343  -14.8564   18.0547 C   0  0  0  0  0  0  0  0  0  0  0  0
    8.4204  -15.1845   19.3277 C   0  0  0  0  0  0  0  0  0  0  0  0
    7.4708  -14.4633   19.9979 C   0  0  0  0  0  0  0  0  0  0  0  0
    7.0057  -14.7870   21.3600 C   0  0  0  0  0  0  0  0  0  0  0  0
    6.6690  -16.2772   21.5002 C   0  0  2  0  0  0  0  0  0  0  0  0
    5.3830  -16.4677   20.8568 N   0  0  0  0  0  0  0  0  0  0  0  0
    6.5008  -16.5222   22.9544 C   0  0  0  0  0  0  0  0  0  0  0  0
    5.3506  -16.5851   23.4890 O   0  0  0  0  0  0  0  0  0  0  0  0
    6.8991  -13.3591   19.3779 C   0  0  0  0  0  0  0  0  0  0  0  0
    7.2891  -12.9986   18.0999 C   0  0  0  0  0  0  0  0  0  0  0  0
    7.6002  -16.7026   23.8478 N   0  0  0  0  0  0  0  0  0  0  0  0
    7.4945  -17.5115   25.0455 C   0  0  1  0  0  0  0  0  0  0  0  0
    7.2362  -18.9576   24.6127 C   0  0  0  0  0  0  0  0  0  0  0  0
    7.1353  -19.8582   25.7703 C   0  0  0  0  0  0  0  0  0  0  0  0
    7.1966  -19.5686   27.0971 C   0  0  0  0  0  0  0  0  0  0  0  0
    7.0562  -20.7071   27.8125 N   0  0  0  0  0  0  0  0  0  0  0  0
    6.9105  -21.6800   26.9075 C   0  0  0  0  0  0  0  0  0  0  0  0
    6.9537  -21.1992   25.6588 N   0  0  0  0  0  0  0  0  0  0  0  0
    8.7681  -17.5119   25.8160 C   0  0  0  0  0  0  0  0  0  0  0  0
    9.5315  -18.5005   25.6754 O   0  0  0  0  0  0  0  0  0  0  0  0
    9.1581  -16.4811   26.6802 N   0  0  0  0  0  0  0  0  0  0  0  0
    9.9576  -16.7194   27.8559 C   0  0  1  0  0  0  0  0  0  0  0  0
    9.6954  -15.7631   28.9666 C   0  0  0  0  0  0  0  0  0  0  0  0
   10.6806  -15.7031   30.0664 C   0  0  0  0  0  0  0  0  0  0  0  0
   10.4351  -14.6744   31.1096 C   0  0  0  0  0  0  0  0  0  0  0  0
   11.4895  -14.7760   32.1949 C   0  0  0  0  0  0  0  0  0  0  0  0
   11.2827  -13.8652   33.2732 N   0  0  0  0  0  0  0  0  0  0  0  0
    9.9873  -18.1261   28.2629 C   0  0  0  0  0  0  0  0  0  0  0  0
    8.9612  -18.7718   28.5894 O   0  0  0  0  0  0  0  0  0  0  0  0
   11.1955  -18.8002   28.2977 O   0  0  0  0  0  0  0  0  0  0  0  0
  2  1  1  0
  3  2  2  0
  4  3  1  0
  5 11  1  0
  5  4  2  0
  6  5  1  0
  7  8  1  6
  7  6  1  0
  9 13  1  0
  9  7  1  0
 10  9  2  0
 11 12  2  0
 12  2  1  0
 14 13  1  0
 14 15  1  6
 15 16  1  0
 16 17  2  0
 17 18  1  0
 19 18  1  0
 20 16  1  0
 20 19  2  0
 21 14  1  0
 22 21  2  0
 23 21  1  0
 24 30  1  0
 24 23  1  0
 24 25  1  1
 26 25  1  0
 27 26  1  0
 27 28  1  0
 29 28  1  0
 30 32  1  0
 31 30  2  0
M  END
$$$$
