YHK.pdb
     RDKit          3D

 32 33  0  0  1  0  0  0  0  0999 V2000
    8.3572  -11.8038   27.1952 O   0  0  0  0  0  0  0  0  0  0  0  0
    7.7239  -12.9232   26.6596 C   0  0  0  0  0  0  0  0  0  0  0  0
    6.4353  -12.7824   26.1714 C   0  0  0  0  0  0  0  0  0  0  0  0
    5.8385  -13.9093   25.6488 C   0  0  0  0  0  0  0  0  0  0  0  0
    6.4724  -15.1206   25.6048 C   0  0  0  0  0  0  0  0  0  0  0  0
    5.8628  -16.3452   25.0526 C   0  0  0  0  0  0  0  0  0  0  0  0
    5.7027  -16.2563   23.5294 C   0  0  2  0  0  0  0  0  0  0  0  0
    5.0241  -17.4707   23.1185 N   0  0  0  0  0  0  0  0  0  0  0  0
    7.0784  -16.2828   22.9726 C   0  0  0  0  0  0  0  0  0  0  0  0
    7.7898  -17.3340   23.0089 O   0  0  0  0  0  0  0  0  0  0  0  0
    7.7651  -15.2247   26.1037 C   0  0  0  0  0  0  0  0  0  0  0  0
    8.3972  -14.1149   26.6365 C   0  0  0  0  0  0  0  0  0  0  0  0
    7.6961  -15.1480   22.3642 N   0  0  0  0  0  0  0  0  0  0  0  0
    9.0354  -15.2032   21.8135 C   0  0  1  0  0  0  0  0  0  0  0  0
    9.2996  -13.8790   21.0910 C   0  0  0  0  0  0  0  0  0  0  0  0
    8.6297  -13.8342   19.7831 C   0  0  0  0  0  0  0  0  0  0  0  0
    7.7317  -12.9331   19.3037 C   0  0  0  0  0  0  0  0  0  0  0  0
    7.3751  -13.2795   18.0465 N   0  0  0  0  0  0  0  0  0  0  0  0
    8.0640  -14.3924   17.7753 C   0  0  0  0  0  0  0  0  0  0  0  0
    8.8350  -14.7562   18.8077 N   0  0  0  0  0  0  0  0  0  0  0  0
   10.0603  -15.3221   22.8863 C   0  0  0  0  0  0  0  0  0  0  0  0
   10.1831  -14.3567   23.6817 O   0  0  0  0  0  0  0  0  0  0  0  0
   10.8869  -16.4400   23.0561 N   0  0  0  0  0  0  0  0  0  0  0  0
   11.8479  -16.5349   24.1264 C   0  0  1  0  0  0  0  0  0  0  0  0
   11.4342  -17.4469   25.2283 C   0  0  0  0  0  0  0  0  0  0  0  0
   12.3489  -17.5893   26.3802 C   0  0  0  0  0  0  0  0  0  0  0  0
   11.9954  -18.6382   27.3709 C   0  0  0  0  0  0  0  0  0  0  0  0
   12.9696  -18.6022   28.5326 C   0  0  0  0  0  0  0  0  0  0  0  0
   12.6355  -19.5102   29.5809 N   0  0  0  0  0  0  0  0  0  0  0  0
   13.2211  -16.7360   23.6581 C   0  0  0  0  0  0  0  0  0  0  0  0
   13.5031  -17.2381   22.5424 O   0  0  0  0  0  0  0  0  0  0  0  0
   14.2791  -16.3617   24.4680 O   0  0  0  0  0  0  0  0  0  0  0  0
  2  1  1  0
  3  2  2  0
  4  3  1  0
  5 11  1  0
  5  4  2  0
  6  5  1  0
  7  8  1  6
  7  6  1  0
  9 13  1  0
  9  7  1  0
 10  9  2  0
 11 12  2  0
 12  2  1  0
 14 13  1  0
 14 15  1  1
 15 16  1  0
 16 17  2  0
 17 18  1  0
 19 18  1  0
 20 16  1  0
 20 19  2  0
 21 14  1  0
 22 21  2  0
 23 21  1  0
 24 30  1  0
 24 23  1  0
 24 25  1  1
 26 25  1  0
 27 26  1  0
 27 28  1  0
 29 28  1  0
 30 32  1  0
 31 30  2  0
M  END
$$$$
