YHK.pdb
     RDKit          3D

 32 33  0  0  1  0  0  0  0  0999 V2000
    6.9164  -13.0915   15.5558 O   0  0  0  0  0  0  0  0  0  0  0  0
    7.4395  -13.4093   16.8074 C   0  0  0  0  0  0  0  0  0  0  0  0
    6.8456  -12.8577   17.9306 C   0  0  0  0  0  0  0  0  0  0  0  0
    7.3879  -13.1930   19.1525 C   0  0  0  0  0  0  0  0  0  0  0  0
    8.4630  -14.0301   19.2720 C   0  0  0  0  0  0  0  0  0  0  0  0
    9.0673  -14.4089   20.5633 C   0  0  0  0  0  0  0  0  0  0  0  0
    9.0764  -15.9310   20.7553 C   0  0  2  0  0  0  0  0  0  0  0  0
    8.5296  -16.4995   19.5379 N   0  0  0  0  0  0  0  0  0  0  0  0
    8.1281  -16.2079   21.8631 C   0  0  0  0  0  0  0  0  0  0  0  0
    7.3933  -15.2952   22.3525 O   0  0  0  0  0  0  0  0  0  0  0  0
    9.0333  -14.5650   18.1233 C   0  0  0  0  0  0  0  0  0  0  0  0
    8.5164  -14.2515   16.8784 C   0  0  0  0  0  0  0  0  0  0  0  0
    7.9725  -17.4992   22.4529 N   0  0  0  0  0  0  0  0  0  0  0  0
    7.1448  -17.7170   23.6222 C   0  0  1  0  0  0  0  0  0  0  0  0
    6.3281  -18.9910   23.3872 C   0  0  0  0  0  0  0  0  0  0  0  0
    5.3060  -18.7936   22.3491 C   0  0  0  0  0  0  0  0  0  0  0  0
    5.2802  -19.2438   21.0666 C   0  0  0  0  0  0  0  0  0  0  0  0
    4.1441  -18.8241   20.4659 N   0  0  0  0  0  0  0  0  0  0  0  0
    3.4897  -18.1203   21.3949 C   0  0  0  0  0  0  0  0  0  0  0  0
    4.1670  -18.0821   22.5491 N   0  0  0  0  0  0  0  0  0  0  0  0
    7.9713  -17.9516   24.8378 C   0  0  0  0  0  0  0  0  0  0  0  0
    8.9518  -18.7308   24.7318 O   0  0  0  0  0  0  0  0  0  0  0  0
    7.7185  -17.3574   26.0805 N   0  0  0  0  0  0  0  0  0  0  0  0
    8.5750  -17.5597   27.2223 C   0  0  1  0  0  0  0  0  0  0  0  0
    8.7428  -16.3482   28.0716 C   0  0  0  0  0  0  0  0  0  0  0  0
    9.6089  -16.4613   29.2636 C   0  0  0  0  0  0  0  0  0  0  0  0
    9.8374  -15.2082   30.0280 C   0  0  0  0  0  0  0  0  0  0  0  0
   10.7663  -15.4767   31.1962 C   0  0  0  0  0  0  0  0  0  0  0  0
   11.0071  -14.3264   32.0049 N   0  0  0  0  0  0  0  0  0  0  0  0
    8.2705  -18.7834   27.9674 C   0  0  0  0  0  0  0  0  0  0  0  0
    7.1137  -19.2614   28.0662 O   0  0  0  0  0  0  0  0  0  0  0  0
    9.2926  -19.4659   28.6038 O   0  0  0  0  0  0  0  0  0  0  0  0
  2  1  1  0
  3  2  2  0
  4  3  1  0
  5 11  1  0
  5  4  2  0
  6  5  1  0
  7  8  1  6
  7  6  1  0
  9 13  1  0
  9  7  1  0
 10  9  2  0
 11 12  2  0
 12  2  1  0
 14 13  1  0
 14 15  1  6
 15 16  1  0
 16 17  2  0
 17 18  1  0
 19 18  1  0
 20 16  1  0
 20 19  2  0
 21 14  1  0
 22 21  2  0
 23 21  1  0
 24 30  1  0
 24 23  1  0
 24 25  1  1
 26 25  1  0
 27 26  1  0
 27 28  1  0
 29 28  1  0
 30 32  1  0
 31 30  2  0
M  END
$$$$
