YHK.pdb
     RDKit          3D

 32 33  0  0  1  0  0  0  0  0999 V2000
    8.7300  -13.9164   26.0259 O   0  0  0  0  0  0  0  0  0  0  0  0
    8.1958  -14.5913   24.9304 C   0  0  0  0  0  0  0  0  0  0  0  0
    8.0664  -15.9685   25.0022 C   0  0  0  0  0  0  0  0  0  0  0  0
    7.5344  -16.6043   23.9012 C   0  0  0  0  0  0  0  0  0  0  0  0
    7.1459  -15.9249   22.7794 C   0  0  0  0  0  0  0  0  0  0  0  0
    6.5734  -16.5743   21.5850 C   0  0  0  0  0  0  0  0  0  0  0  0
    7.4910  -16.4181   20.3654 C   0  0  2  0  0  0  0  0  0  0  0  0
    6.9124  -17.2305   19.3122 N   0  0  0  0  0  0  0  0  0  0  0  0
    8.7912  -17.0195   20.7537 C   0  0  0  0  0  0  0  0  0  0  0  0
    8.9052  -18.2627   20.9864 O   0  0  0  0  0  0  0  0  0  0  0  0
    7.2904  -14.5434   22.7428 C   0  0  0  0  0  0  0  0  0  0  0  0
    7.8207  -13.8697   23.8291 C   0  0  0  0  0  0  0  0  0  0  0  0
    9.9922  -16.2595   20.8929 N   0  0  0  0  0  0  0  0  0  0  0  0
   11.2640  -16.8796   21.2061 C   0  0  1  0  0  0  0  0  0  0  0  0
   12.3712  -16.0010   20.6167 C   0  0  0  0  0  0  0  0  0  0  0  0
   13.6849  -16.6545   20.7067 C   0  0  0  0  0  0  0  0  0  0  0  0
   14.8376  -16.2019   21.2675 C   0  0  0  0  0  0  0  0  0  0  0  0
   15.8050  -17.1350   21.1216 N   0  0  0  0  0  0  0  0  0  0  0  0
   15.2259  -18.1487   20.4706 C   0  0  0  0  0  0  0  0  0  0  0  0
   13.9398  -17.8897   20.2036 N   0  0  0  0  0  0  0  0  0  0  0  0
   11.4940  -16.9369   22.6756 C   0  0  0  0  0  0  0  0  0  0  0  0
   11.2332  -15.9055   23.3449 O   0  0  0  0  0  0  0  0  0  0  0  0
   11.9803  -18.0662   23.3464 N   0  0  0  0  0  0  0  0  0  0  0  0
   12.3029  -18.0511   24.7513 C   0  0  1  0  0  0  0  0  0  0  0  0
   11.8564  -19.2675   25.4849 C   0  0  0  0  0  0  0  0  0  0  0  0
   11.2869  -19.0827   26.8360 C   0  0  0  0  0  0  0  0  0  0  0  0
   10.7720  -20.3065   27.5022 C   0  0  0  0  0  0  0  0  0  0  0  0
   10.1828  -19.9511   28.8537 C   0  0  0  0  0  0  0  0  0  0  0  0
    9.7277  -21.0852   29.5897 N   0  0  0  0  0  0  0  0  0  0  0  0
   13.6853  -17.6525   25.0258 C   0  0  0  0  0  0  0  0  0  0  0  0
   14.6832  -18.2711   24.5807 O   0  0  0  0  0  0  0  0  0  0  0  0
   13.9306  -16.5410   25.8131 O   0  0  0  0  0  0  0  0  0  0  0  0
  2  1  1  0
  3  2  2  0
  4  3  1  0
  5 11  1  0
  5  4  2  0
  6  5  1  0
  7  8  1  6
  7  6  1  0
  9 13  1  0
  9  7  1  0
 10  9  2  0
 11 12  2  0
 12  2  1  0
 14 13  1  0
 14 15  1  6
 15 16  1  0
 16 17  2  0
 17 18  1  0
 19 18  1  0
 20 16  1  0
 20 19  2  0
 21 14  1  0
 22 21  2  0
 23 21  1  0
 24 30  1  0
 24 23  1  0
 24 25  1  6
 26 25  1  0
 27 26  1  0
 27 28  1  0
 29 28  1  0
 30 32  1  0
 31 30  2  0
M  END
$$$$
