YHK.pdb
     RDKit          3D

 32 33  0  0  1  0  0  0  0  0999 V2000
   46.9791   -8.7789  -67.5774 O   0  0  0  0  0  0  0  0  0  0  0  0
   46.8503   -7.3980  -67.7095 C   0  0  0  0  0  0  0  0  0  0  0  0
   45.5769   -6.8571  -67.7767 C   0  0  0  0  0  0  0  0  0  0  0  0
   45.4857   -5.4880  -67.9071 C   0  0  0  0  0  0  0  0  0  0  0  0
   46.5897   -4.6829  -67.9692 C   0  0  0  0  0  0  0  0  0  0  0  0
   46.5272   -3.2156  -68.1086 C   0  0  0  0  0  0  0  0  0  0  0  0
   47.9290   -2.5990  -68.2012 C   0  0  2  0  0  0  0  0  0  0  0  0
   48.4198   -2.4942  -66.8402 N   0  0  0  0  0  0  0  0  0  0  0  0
   47.7363   -1.2263  -68.7318 C   0  0  0  0  0  0  0  0  0  0  0  0
   46.6227   -0.6248  -68.6299 O   0  0  0  0  0  0  0  0  0  0  0  0
   47.8515   -5.2604  -67.8988 C   0  0  0  0  0  0  0  0  0  0  0  0
   47.9832   -6.6318  -67.7676 C   0  0  0  0  0  0  0  0  0  0  0  0
   48.7705   -0.4901  -69.3859 N   0  0  0  0  0  0  0  0  0  0  0  0
   48.4842    0.5065  -70.3982 C   0  0  1  0  0  0  0  0  0  0  0  0
   48.0495    1.7890  -69.6831 C   0  0  0  0  0  0  0  0  0  0  0  0
   46.7128    2.2220  -70.1153 C   0  0  0  0  0  0  0  0  0  0  0  0
   46.2292    2.4046  -71.3726 C   0  0  0  0  0  0  0  0  0  0  0  0
   44.9413    2.8103  -71.3042 N   0  0  0  0  0  0  0  0  0  0  0  0
   44.6561    2.8697  -69.9998 C   0  0  0  0  0  0  0  0  0  0  0  0
   45.7088    2.5190  -69.2507 N   0  0  0  0  0  0  0  0  0  0  0  0
   49.6994    0.8434  -71.1891 C   0  0  0  0  0  0  0  0  0  0  0  0
   50.0767    2.0423  -71.1916 O   0  0  0  0  0  0  0  0  0  0  0  0
   50.4378   -0.0934  -71.9231 N   0  0  0  0  0  0  0  0  0  0  0  0
   51.2446    0.2772  -73.0589 C   0  0  1  0  0  0  0  0  0  0  0  0
   51.6029   -0.8667  -73.9421 C   0  0  0  0  0  0  0  0  0  0  0  0
   53.0385   -1.1326  -74.1710 C   0  0  0  0  0  0  0  0  0  0  0  0
   53.8196   -0.0268  -74.7823 C   0  0  0  0  0  0  0  0  0  0  0  0
   53.2773    0.2882  -76.1631 C   0  0  0  0  0  0  0  0  0  0  0  0
   54.2804    0.7199  -77.0810 N   0  0  0  0  0  0  0  0  0  0  0  0
   50.7417    1.4554  -73.7690 C   0  0  0  0  0  0  0  0  0  0  0  0
   49.6181    1.4969  -74.3279 O   0  0  0  0  0  0  0  0  0  0  0  0
   51.5259    2.5934  -73.8418 O   0  0  0  0  0  0  0  0  0  0  0  0
  2  1  1  0
  3  2  2  0
  4  3  1  0
  5 11  1  0
  5  4  2  0
  6  5  1  0
  7  8  1  1
  7  6  1  0
  9 13  1  0
  9  7  1  0
 10  9  2  0
 11 12  2  0
 12  2  1  0
 14 13  1  0
 14 15  1  1
 15 16  1  0
 16 17  2  0
 17 18  1  0
 19 18  1  0
 20 16  1  0
 20 19  2  0
 21 14  1  0
 22 21  2  0
 23 21  1  0
 24 30  1  0
 24 23  1  0
 24 25  1  6
 26 25  1  0
 27 26  1  0
 27 28  1  0
 29 28  1  0
 30 32  1  0
 31 30  2  0
M  END
$$$$
