YHK.pdb
     RDKit          3D

 32 33  0  0  1  0  0  0  0  0999 V2000
    7.9913  -11.8535   28.1752 O   0  0  0  0  0  0  0  0  0  0  0  0
    7.4657  -12.7254   27.2240 C   0  0  0  0  0  0  0  0  0  0  0  0
    8.1092  -13.9327   27.0079 C   0  0  0  0  0  0  0  0  0  0  0  0
    7.5628  -14.7712   26.0603 C   0  0  0  0  0  0  0  0  0  0  0  0
    6.4373  -14.4447   25.3549 C   0  0  0  0  0  0  0  0  0  0  0  0
    5.8271  -15.3183   24.3348 C   0  0  0  0  0  0  0  0  0  0  0  0
    6.5778  -16.6507   24.2134 C   0  0  2  0  0  0  0  0  0  0  0  0
    7.3157  -16.8181   25.4509 N   0  0  0  0  0  0  0  0  0  0  0  0
    7.5555  -16.4689   23.1115 C   0  0  0  0  0  0  0  0  0  0  0  0
    7.2632  -16.7565   21.9096 O   0  0  0  0  0  0  0  0  0  0  0  0
    5.8181  -13.2248   25.5981 C   0  0  0  0  0  0  0  0  0  0  0  0
    6.3374  -12.3563   26.5422 C   0  0  0  0  0  0  0  0  0  0  0  0
    8.8763  -15.9655   23.3150 N   0  0  0  0  0  0  0  0  0  0  0  0
    9.8589  -15.9284   22.2506 C   0  0  1  0  0  0  0  0  0  0  0  0
    9.9422  -14.4870   21.7402 C   0  0  0  0  0  0  0  0  0  0  0  0
    9.0414  -14.2647   20.5999 C   0  0  0  0  0  0  0  0  0  0  0  0
    7.9615  -13.4449   20.5000 C   0  0  0  0  0  0  0  0  0  0  0  0
    7.4256  -13.5563   19.2638 N   0  0  0  0  0  0  0  0  0  0  0  0
    8.1899  -14.4468   18.6239 C   0  0  0  0  0  0  0  0  0  0  0  0
    9.1792  -14.8964   19.4059 N   0  0  0  0  0  0  0  0  0  0  0  0
   11.2144  -16.2896   22.7485 C   0  0  0  0  0  0  0  0  0  0  0  0
   11.4664  -16.0672   23.9596 O   0  0  0  0  0  0  0  0  0  0  0  0
   12.2140  -16.8581   21.9491 N   0  0  0  0  0  0  0  0  0  0  0  0
   13.3991  -17.4610   22.5060 C   0  0  1  0  0  0  0  0  0  0  0  0
   13.7486  -18.7750   21.8991 C   0  0  0  0  0  0  0  0  0  0  0  0
   14.9399  -19.4763   22.4215 C   0  0  0  0  0  0  0  0  0  0  0  0
   15.2527  -20.7881   21.7986 C   0  0  0  0  0  0  0  0  0  0  0  0
   16.4503  -21.4149   22.4861 C   0  0  0  0  0  0  0  0  0  0  0  0
   16.7161  -22.7492   22.0569 N   0  0  0  0  0  0  0  0  0  0  0  0
   14.5241  -16.5305   22.6233 C   0  0  0  0  0  0  0  0  0  0  0  0
   15.6303  -16.8451   23.1273 O   0  0  0  0  0  0  0  0  0  0  0  0
   14.3861  -15.2328   22.1626 O   0  0  0  0  0  0  0  0  0  0  0  0
  2  1  1  0
  3  2  2  0
  4  3  1  0
  5 11  1  0
  5  4  2  0
  6  5  1  0
  7  8  1  1
  7  6  1  0
  9 13  1  0
  9  7  1  0
 10  9  2  0
 11 12  2  0
 12  2  1  0
 14 13  1  0
 14 15  1  1
 15 16  1  0
 16 17  2  0
 17 18  1  0
 19 18  1  0
 20 16  1  0
 20 19  2  0
 21 14  1  0
 22 21  2  0
 23 21  1  0
 24 30  1  0
 24 23  1  0
 24 25  1  6
 26 25  1  0
 27 26  1  0
 27 28  1  0
 29 28  1  0
 30 32  1  0
 31 30  2  0
M  END
$$$$
