YHK.pdb
     RDKit          3D

 32 33  0  0  1  0  0  0  0  0999 V2000
   11.5704  -20.3393   28.4210 O   0  0  0  0  0  0  0  0  0  0  0  0
   12.5017  -20.1717   27.3984 C   0  0  0  0  0  0  0  0  0  0  0  0
   13.7326  -20.7957   27.5176 C   0  0  0  0  0  0  0  0  0  0  0  0
   14.6300  -20.6090   26.4884 C   0  0  0  0  0  0  0  0  0  0  0  0
   14.3380  -19.8464   25.3910 C   0  0  0  0  0  0  0  0  0  0  0  0
   15.2748  -19.6266   24.2729 C   0  0  0  0  0  0  0  0  0  0  0  0
   14.6934  -20.1284   22.9448 C   0  0  2  0  0  0  0  0  0  0  0  0
   14.4386  -21.5456   23.1200 N   0  0  0  0  0  0  0  0  0  0  0  0
   15.7757  -19.9724   21.9411 C   0  0  0  0  0  0  0  0  0  0  0  0
   16.7540  -20.7802   21.8879 O   0  0  0  0  0  0  0  0  0  0  0  0
   13.0930  -19.2354   25.3053 C   0  0  0  0  0  0  0  0  0  0  0  0
   12.1655  -19.3996   26.3191 C   0  0  0  0  0  0  0  0  0  0  0  0
   15.7990  -18.9205   20.9755 N   0  0  0  0  0  0  0  0  0  0  0  0
   16.8352  -18.8237   19.9671 C   0  0  1  0  0  0  0  0  0  0  0  0
   16.2618  -18.0450   18.7796 C   0  0  0  0  0  0  0  0  0  0  0  0
   15.2445  -18.8265   18.0617 C   0  0  0  0  0  0  0  0  0  0  0  0
   15.0478  -20.1715   18.0368 C   0  0  0  0  0  0  0  0  0  0  0  0
   13.9922  -20.4566   17.2417 N   0  0  0  0  0  0  0  0  0  0  0  0
   13.5577  -19.2759   16.7905 C   0  0  0  0  0  0  0  0  0  0  0  0
   14.2953  -18.2661   17.2688 N   0  0  0  0  0  0  0  0  0  0  0  0
   18.0076  -18.0527   20.4639 C   0  0  0  0  0  0  0  0  0  0  0  0
   17.7782  -17.0034   21.1166 O   0  0  0  0  0  0  0  0  0  0  0  0
   19.3389  -18.4291   20.2459 N   0  0  0  0  0  0  0  0  0  0  0  0
   20.4473  -17.7359   20.8535 C   0  0  1  0  0  0  0  0  0  0  0  0
   21.0344  -18.4469   22.0226 C   0  0  0  0  0  0  0  0  0  0  0  0
   21.5298  -19.8229   21.8100 C   0  0  0  0  0  0  0  0  0  0  0  0
   22.0888  -20.5089   23.0032 C   0  0  0  0  0  0  0  0  0  0  0  0
   22.5210  -21.9155   22.6363 C   0  0  0  0  0  0  0  0  0  0  0  0
   23.1300  -22.6212   23.7161 N   0  0  0  0  0  0  0  0  0  0  0  0
   21.4317  -17.2513   19.8833 C   0  0  0  0  0  0  0  0  0  0  0  0
   21.3638  -17.4912   18.6527 O   0  0  0  0  0  0  0  0  0  0  0  0
   22.5004  -16.4880   20.3200 O   0  0  0  0  0  0  0  0  0  0  0  0
  2  1  1  0
  3  2  2  0
  4  3  1  0
  5 11  1  0
  5  4  2  0
  6  5  1  0
  7  8  1  1
  7  6  1  0
  9 13  1  0
  9  7  1  0
 10  9  2  0
 11 12  2  0
 12  2  1  0
 14 13  1  0
 14 15  1  6
 15 16  1  0
 16 17  2  0
 17 18  1  0
 19 18  1  0
 20 16  1  0
 20 19  2  0
 21 14  1  0
 22 21  2  0
 23 21  1  0
 24 30  1  0
 24 23  1  0
 24 25  1  1
 26 25  1  0
 27 26  1  0
 27 28  1  0
 29 28  1  0
 30 32  1  0
 31 30  2  0
M  END
$$$$
