YHK.pdb
     RDKit          3D

 32 33  0  0  1  0  0  0  0  0999 V2000
    7.3809  -10.7572   27.0889 O   0  0  0  0  0  0  0  0  0  0  0  0
    7.1595  -12.0756   26.6966 C   0  0  0  0  0  0  0  0  0  0  0  0
    6.0232  -12.7197   27.1575 C   0  0  0  0  0  0  0  0  0  0  0  0
    5.8351  -14.0229   26.7503 C   0  0  0  0  0  0  0  0  0  0  0  0
    6.7181  -14.6685   25.9290 C   0  0  0  0  0  0  0  0  0  0  0  0
    6.5467  -16.0615   25.4747 C   0  0  0  0  0  0  0  0  0  0  0  0
    6.1217  -16.1248   24.0019 C   0  0  2  0  0  0  0  0  0  0  0  0
    5.3857  -17.3644   23.8421 N   0  0  0  0  0  0  0  0  0  0  0  0
    7.3785  -16.2273   23.2190 C   0  0  0  0  0  0  0  0  0  0  0  0
    8.0345  -17.3127   23.1544 O   0  0  0  0  0  0  0  0  0  0  0  0
    7.8474  -13.9910   25.4860 C   0  0  0  0  0  0  0  0  0  0  0  0
    8.0705  -12.6814   25.8737 C   0  0  0  0  0  0  0  0  0  0  0  0
    7.9363  -15.1325   22.4912 N   0  0  0  0  0  0  0  0  0  0  0  0
    9.2102  -15.2313   21.8077 C   0  0  1  0  0  0  0  0  0  0  0  0
    9.3738  -13.9811   20.9386 C   0  0  0  0  0  0  0  0  0  0  0  0
    8.5869  -14.0769   19.7006 C   0  0  0  0  0  0  0  0  0  0  0  0
    7.6863  -13.2016   19.1802 C   0  0  0  0  0  0  0  0  0  0  0  0
    7.1994  -13.6947   18.0194 N   0  0  0  0  0  0  0  0  0  0  0  0
    7.8128  -14.8697   17.8471 C   0  0  0  0  0  0  0  0  0  0  0  0
    8.6612  -15.1320   18.8491 N   0  0  0  0  0  0  0  0  0  0  0  0
   10.3451  -15.2397   22.7708 C   0  0  0  0  0  0  0  0  0  0  0  0
   10.2487  -14.5080   23.7882 O   0  0  0  0  0  0  0  0  0  0  0  0
   11.5028  -16.0107   22.6067 N   0  0  0  0  0  0  0  0  0  0  0  0
   12.3275  -16.4127   23.7187 C   0  0  1  0  0  0  0  0  0  0  0  0
   11.7065  -17.4532   24.5841 C   0  0  0  0  0  0  0  0  0  0  0  0
   12.4954  -17.9522   25.7297 C   0  0  0  0  0  0  0  0  0  0  0  0
   11.8912  -19.0662   26.5048 C   0  0  0  0  0  0  0  0  0  0  0  0
   12.8279  -19.4881   27.6203 C   0  0  0  0  0  0  0  0  0  0  0  0
   12.3293  -20.5748   28.3986 N   0  0  0  0  0  0  0  0  0  0  0  0
   13.7159  -16.6884   23.3425 C   0  0  0  0  0  0  0  0  0  0  0  0
   14.6143  -16.9657   24.1747 O   0  0  0  0  0  0  0  0  0  0  0  0
   14.0815  -16.6475   22.0084 O   0  0  0  0  0  0  0  0  0  0  0  0
  2  1  1  0
  3  2  2  0
  4  3  1  0
  5 11  1  0
  5  4  2  0
  6  5  1  0
  7  8  1  1
  7  6  1  0
  9 13  1  0
  9  7  1  0
 10  9  2  0
 11 12  2  0
 12  2  1  0
 14 13  1  0
 14 15  1  6
 15 16  1  0
 16 17  2  0
 17 18  1  0
 19 18  1  0
 20 16  1  0
 20 19  2  0
 21 14  1  0
 22 21  2  0
 23 21  1  0
 24 30  1  0
 24 23  1  0
 24 25  1  6
 26 25  1  0
 27 26  1  0
 27 28  1  0
 29 28  1  0
 30 32  1  0
 31 30  2  0
M  END
$$$$
