YHK.pdb
     RDKit          3D

 32 33  0  0  1  0  0  0  0  0999 V2000
    7.9868  -13.0882   27.3331 O   0  0  0  0  0  0  0  0  0  0  0  0
    7.6611  -13.0306   25.9797 C   0  0  0  0  0  0  0  0  0  0  0  0
    6.7451  -13.9424   25.4816 C   0  0  0  0  0  0  0  0  0  0  0  0
    6.4458  -13.8575   24.1390 C   0  0  0  0  0  0  0  0  0  0  0  0
    7.0162  -12.9230   23.3190 C   0  0  0  0  0  0  0  0  0  0  0  0
    6.7181  -12.8050   21.8790 C   0  0  0  0  0  0  0  0  0  0  0  0
    7.8681  -13.3467   21.0202 C   0  0  2  0  0  0  0  0  0  0  0  0
    7.4136  -13.2866   19.6440 N   0  0  0  0  0  0  0  0  0  0  0  0
    8.0204  -14.7744   21.3963 C   0  0  0  0  0  0  0  0  0  0  0  0
    7.2802  -15.6762   20.8948 O   0  0  0  0  0  0  0  0  0  0  0  0
    7.9311  -12.0242   23.8533 C   0  0  0  0  0  0  0  0  0  0  0  0
    8.2570  -12.0784   25.1972 C   0  0  0  0  0  0  0  0  0  0  0  0
    8.9938  -15.2350   22.3343 N   0  0  0  0  0  0  0  0  0  0  0  0
    9.4249  -16.6177   22.3805 C   0  0  1  0  0  0  0  0  0  0  0  0
   10.1296  -16.9330   21.0579 C   0  0  0  0  0  0  0  0  0  0  0  0
   10.3881  -18.3729   20.9134 C   0  0  0  0  0  0  0  0  0  0  0  0
    9.5518  -19.4249   21.1182 C   0  0  0  0  0  0  0  0  0  0  0  0
   10.2104  -20.5783   20.8658 N   0  0  0  0  0  0  0  0  0  0  0  0
   11.4452  -20.2119   20.5088 C   0  0  0  0  0  0  0  0  0  0  0  0
   11.5868  -18.8807   20.5272 N   0  0  0  0  0  0  0  0  0  0  0  0
   10.4202  -16.8413   23.4645 C   0  0  0  0  0  0  0  0  0  0  0  0
   11.3984  -16.0544   23.5261 O   0  0  0  0  0  0  0  0  0  0  0  0
   10.3270  -17.8703   24.4100 N   0  0  0  0  0  0  0  0  0  0  0  0
   11.3451  -18.1005   25.4044 C   0  0  1  0  0  0  0  0  0  0  0  0
   11.0721  -19.2684   26.2868 C   0  0  0  0  0  0  0  0  0  0  0  0
   10.6989  -18.9947   27.6902 C   0  0  0  0  0  0  0  0  0  0  0  0
   10.5447  -20.1818   28.5699 C   0  0  0  0  0  0  0  0  0  0  0  0
   10.2746  -19.7385   29.9948 C   0  0  0  0  0  0  0  0  0  0  0  0
    9.9967  -20.8204   30.8821 N   0  0  0  0  0  0  0  0  0  0  0  0
   12.7057  -18.0556   24.8640 C   0  0  0  0  0  0  0  0  0  0  0  0
   13.6308  -17.3805   25.3787 O   0  0  0  0  0  0  0  0  0  0  0  0
   13.0127  -18.7857   23.7290 O   0  0  0  0  0  0  0  0  0  0  0  0
  2  1  1  0
  3  2  2  0
  4  3  1  0
  5 11  1  0
  5  4  2  0
  6  5  1  0
  7  8  1  6
  7  6  1  0
  9 13  1  0
  9  7  1  0
 10  9  2  0
 11 12  2  0
 12  2  1  0
 14 13  1  0
 14 15  1  6
 15 16  1  0
 16 17  2  0
 17 18  1  0
 19 18  1  0
 20 16  1  0
 20 19  2  0
 21 14  1  0
 22 21  2  0
 23 21  1  0
 24 30  1  0
 24 23  1  0
 24 25  1  6
 26 25  1  0
 27 26  1  0
 27 28  1  0
 29 28  1  0
 30 32  1  0
 31 30  2  0
M  END
$$$$
