YHK.pdb
     RDKit          3D

 32 33  0  0  1  0  0  0  0  0999 V2000
    7.2072  -12.7988   27.6257 O   0  0  0  0  0  0  0  0  0  0  0  0
    7.2020  -12.6809   26.2375 C   0  0  0  0  0  0  0  0  0  0  0  0
    8.2383  -11.9916   25.6295 C   0  0  0  0  0  0  0  0  0  0  0  0
    8.2022  -11.8938   24.2553 C   0  0  0  0  0  0  0  0  0  0  0  0
    7.1981  -12.4452   23.5077 C   0  0  0  0  0  0  0  0  0  0  0  0
    7.1296  -12.3590   22.0366 C   0  0  0  0  0  0  0  0  0  0  0  0
    8.1026  -13.3399   21.3697 C   0  0  2  0  0  0  0  0  0  0  0  0
    7.8552  -13.2540   19.9429 N   0  0  0  0  0  0  0  0  0  0  0  0
    7.6981  -14.6918   21.8299 C   0  0  0  0  0  0  0  0  0  0  0  0
    6.9189  -15.4221   21.1427 O   0  0  0  0  0  0  0  0  0  0  0  0
    6.1747  -13.1297   24.1516 C   0  0  0  0  0  0  0  0  0  0  0  0
    6.1766  -13.2488   25.5304 C   0  0  0  0  0  0  0  0  0  0  0  0
    8.1464  -15.2645   23.0589 N   0  0  0  0  0  0  0  0  0  0  0  0
    8.6798  -16.6099   23.1322 C   0  0  1  0  0  0  0  0  0  0  0  0
    9.9421  -16.6610   22.2667 C   0  0  0  0  0  0  0  0  0  0  0  0
   10.5082  -18.0168   22.2165 C   0  0  0  0  0  0  0  0  0  0  0  0
   10.1266  -19.1369   22.8858 C   0  0  0  0  0  0  0  0  0  0  0  0
   10.9302  -20.1658   22.5347 N   0  0  0  0  0  0  0  0  0  0  0  0
   11.7949  -19.6565   21.6519 C   0  0  0  0  0  0  0  0  0  0  0  0
   11.5668  -18.3550   21.4362 N   0  0  0  0  0  0  0  0  0  0  0  0
    9.0928  -16.9565   24.5196 C   0  0  0  0  0  0  0  0  0  0  0  0
    9.9211  -16.1991   25.0853 O   0  0  0  0  0  0  0  0  0  0  0  0
    8.6134  -18.0694   25.2219 N   0  0  0  0  0  0  0  0  0  0  0  0
    8.4068  -18.0526   26.6486 C   0  0  1  0  0  0  0  0  0  0  0  0
    7.2436  -18.8661   27.0984 C   0  0  0  0  0  0  0  0  0  0  0  0
    7.3009  -20.3258   26.8756 C   0  0  0  0  0  0  0  0  0  0  0  0
    6.1082  -21.1006   27.3044 C   0  0  0  0  0  0  0  0  0  0  0  0
    6.3712  -22.5857   27.1452 C   0  0  0  0  0  0  0  0  0  0  0  0
    5.9872  -23.3545   28.2839 N   0  0  0  0  0  0  0  0  0  0  0  0
    9.6342  -18.2758   27.4160 C   0  0  0  0  0  0  0  0  0  0  0  0
    9.7072  -18.1246   28.6603 O   0  0  0  0  0  0  0  0  0  0  0  0
   10.7856  -18.6742   26.7595 O   0  0  0  0  0  0  0  0  0  0  0  0
  2  1  1  0
  3  2  2  0
  4  3  1  0
  5 11  1  0
  5  4  2  0
  6  5  1  0
  7  8  1  6
  7  6  1  0
  9 13  1  0
  9  7  1  0
 10  9  2  0
 11 12  2  0
 12  2  1  0
 14 13  1  0
 14 15  1  6
 15 16  1  0
 16 17  2  0
 17 18  1  0
 19 18  1  0
 20 16  1  0
 20 19  2  0
 21 14  1  0
 22 21  2  0
 23 21  1  0
 24 30  1  0
 24 23  1  0
 24 25  1  6
 26 25  1  0
 27 26  1  0
 27 28  1  0
 29 28  1  0
 30 32  1  0
 31 30  2  0
M  END
$$$$
