YYQ.pdb
     RDKit          3D

 34 35  0  0  1  0  0  0  0  0999 V2000
    7.1300  -14.2485   15.1636 O   0  0  0  0  0  0  0  0  0  0  0  0
    7.3424  -14.0703   16.5247 C   0  0  0  0  0  0  0  0  0  0  0  0
    6.7299  -12.9662   17.1039 C   0  0  0  0  0  0  0  0  0  0  0  0
    6.9393  -12.7804   18.4742 C   0  0  0  0  0  0  0  0  0  0  0  0
    7.7153  -13.6560   19.1975 C   0  0  0  0  0  0  0  0  0  0  0  0
    7.9083  -13.4217   20.6371 C   0  0  0  0  0  0  0  0  0  0  0  0
    7.4795  -14.6794   21.3880 C   0  0  2  0  0  0  0  0  0  0  0  0
    6.0407  -14.7940   21.4167 N   0  0  0  0  0  0  0  0  0  0  0  0
    7.9821  -14.5427   22.7716 C   0  0  0  0  0  0  0  0  0  0  0  0
    7.4415  -13.7631   23.6050 O   0  0  0  0  0  0  0  0  0  0  0  0
    8.3051  -14.7350   18.5958 C   0  0  0  0  0  0  0  0  0  0  0  0
    8.1207  -14.9550   17.2318 C   0  0  0  0  0  0  0  0  0  0  0  0
   11.2546  -15.4961   30.6887 O   0  0  0  0  0  0  0  0  0  0  0  0
   10.6581  -15.4855   29.4297 C   0  0  0  0  0  0  0  0  0  0  0  0
   10.4608  -14.2994   28.7529 C   0  0  0  0  0  0  0  0  0  0  0  0
    9.8730  -14.2414   27.5018 C   0  0  0  0  0  0  0  0  0  0  0  0
    9.4554  -15.3942   26.8762 C   0  0  0  0  0  0  0  0  0  0  0  0
    8.8181  -15.4171   25.5397 C   0  0  0  0  0  0  0  0  0  0  0  0
    9.8018  -15.1193   24.4313 C   0  0  2  0  0  0  0  0  0  0  0  0
    9.1038  -15.3097   23.1736 N   0  0  0  0  0  0  0  0  0  0  0  0
   10.8911  -16.1383   24.5293 C   0  0  0  0  0  0  0  0  0  0  0  0
   10.5842  -17.3505   24.5964 O   0  0  0  0  0  0  0  0  0  0  0  0
    9.6460  -16.5842   27.5396 C   0  0  0  0  0  0  0  0  0  0  0  0
   10.2378  -16.6383   28.7982 C   0  0  0  0  0  0  0  0  0  0  0  0
   16.3671  -15.7924   21.5647 N   0  0  0  0  0  0  0  0  0  0  0  0
   15.0751  -15.2357   21.5512 C   0  0  0  0  0  0  0  0  0  0  0  0
   14.8163  -14.2415   20.8537 O   0  0  0  0  0  0  0  0  0  0  0  0
   13.9906  -15.8368   22.3805 C   0  0  0  0  0  0  0  0  0  0  0  0
   14.4672  -16.1553   23.7663 C   0  0  0  0  0  0  0  0  0  0  0  0
   13.3523  -16.7789   24.5649 C   0  0  2  0  0  0  0  0  0  0  0  0
   12.2580  -15.7921   24.5496 N   0  0  0  0  0  0  0  0  0  0  0  0
   13.7326  -16.9281   25.9858 C   0  0  0  0  0  0  0  0  0  0  0  0
   14.5841  -17.9067   26.4448 O   0  0  0  0  0  0  0  0  0  0  0  0
   13.2596  -16.1205   26.8614 O   0  0  0  0  0  0  0  0  0  0  0  0
  2  1  1  0
  2  3  2  0
  4  3  1  0
  5  4  2  0
  6  5  1  0
  7  6  1  0
  7  8  1  1
  9 10  2  0
  9  7  1  0
 11 12  2  0
 11  5  1  0
 12  2  1  0
 13 14  1  0
 14 15  2  0
 15 16  1  0
 17 16  2  0
 17 18  1  0
 19 18  1  1
 19 20  1  0
 20  9  1  0
 21 19  1  0
 21 31  1  0
 22 21  2  0
 23 17  1  0
 24 14  1  0
 24 23  2  0
 25 26  1  0
 26 27  2  0
 26 28  1  0
 28 29  1  0
 30 29  1  6
 30 31  1  0
 30 32  1  0
 32 34  2  0
 32 33  1  0
M  END
$$$$
