YYQ.pdb
     RDKit          3D

 34 35  0  0  1  0  0  0  0  0999 V2000
    5.5721  -11.9204   19.3169 O   0  0  0  0  0  0  0  0  0  0  0  0
    6.6040  -12.8443   19.2115 C   0  0  0  0  0  0  0  0  0  0  0  0
    7.5513  -12.8276   20.2275 C   0  0  0  0  0  0  0  0  0  0  0  0
    8.5933  -13.7551   20.1282 C   0  0  0  0  0  0  0  0  0  0  0  0
    8.6622  -14.6329   19.0713 C   0  0  0  0  0  0  0  0  0  0  0  0
    9.7762  -15.5918   19.0075 C   0  0  0  0  0  0  0  0  0  0  0  0
   10.7367  -15.1367   17.9121 C   0  0  2  0  0  0  0  0  0  0  0  0
   10.1271  -15.2648   16.6097 N   0  0  0  0  0  0  0  0  0  0  0  0
   11.9170  -16.0241   17.9837 C   0  0  0  0  0  0  0  0  0  0  0  0
   12.1924  -16.8454   17.0648 O   0  0  0  0  0  0  0  0  0  0  0  0
    7.7118  -14.6231   18.0861 C   0  0  0  0  0  0  0  0  0  0  0  0
    6.6572  -13.7139   18.1487 C   0  0  0  0  0  0  0  0  0  0  0  0
   19.7421  -12.8328   17.5140 O   0  0  0  0  0  0  0  0  0  0  0  0
   18.4153  -13.1774   17.7625 C   0  0  0  0  0  0  0  0  0  0  0  0
   17.8266  -12.8864   18.9761 C   0  0  0  0  0  0  0  0  0  0  0  0
   16.5131  -13.2097   19.2665 C   0  0  0  0  0  0  0  0  0  0  0  0
   15.7315  -13.8483   18.3306 C   0  0  0  0  0  0  0  0  0  0  0  0
   14.3194  -14.2284   18.5634 C   0  0  0  0  0  0  0  0  0  0  0  0
   14.1825  -15.6542   19.0463 C   0  0  2  0  0  0  0  0  0  0  0  0
   12.7639  -15.9503   19.1175 N   0  0  0  0  0  0  0  0  0  0  0  0
   14.7481  -15.7026   20.4292 C   0  0  0  0  0  0  0  0  0  0  0  0
   14.3604  -14.8629   21.2734 O   0  0  0  0  0  0  0  0  0  0  0  0
   16.3056  -14.1446   17.1161 C   0  0  0  0  0  0  0  0  0  0  0  0
   17.6275  -13.8176   16.8277 C   0  0  0  0  0  0  0  0  0  0  0  0
   17.0492  -20.8313   24.9652 N   0  0  0  0  0  0  0  0  0  0  0  0
   17.3689  -20.0982   23.8077 C   0  0  0  0  0  0  0  0  0  0  0  0
   17.9871  -20.6260   22.8689 O   0  0  0  0  0  0  0  0  0  0  0  0
   16.9666  -18.6665   23.6916 C   0  0  0  0  0  0  0  0  0  0  0  0
   16.4926  -18.3364   22.3076 C   0  0  0  0  0  0  0  0  0  0  0  0
   16.1051  -16.8827   22.2278 C   0  0  2  0  0  0  0  0  0  0  0  0
   15.7053  -16.6586   20.8272 N   0  0  0  0  0  0  0  0  0  0  0  0
   17.2742  -16.0059   22.4521 C   0  0  0  0  0  0  0  0  0  0  0  0
   17.6597  -15.5584   23.6948 O   0  0  0  0  0  0  0  0  0  0  0  0
   17.9852  -15.6230   21.4569 O   0  0  0  0  0  0  0  0  0  0  0  0
  2  1  1  0
  2  3  2  0
  4  3  1  0
  5  4  2  0
  6  5  1  0
  7  6  1  0
  7  8  1  6
  9 10  2  0
  9  7  1  0
 11 12  2  0
 11  5  1  0
 12  2  1  0
 13 14  1  0
 14 15  2  0
 15 16  1  0
 17 16  2  0
 17 18  1  0
 19 18  1  1
 19 20  1  0
 20  9  1  0
 21 19  1  0
 21 31  1  0
 22 21  2  0
 23 17  1  0
 24 14  1  0
 24 23  2  0
 25 26  1  0
 26 27  2  0
 26 28  1  0
 28 29  1  0
 30 29  1  6
 30 31  1  0
 30 32  1  0
 32 34  2  0
 32 33  1  0
M  END
$$$$
