YYQ.pdb
     RDKit          3D

 34 35  0  0  1  0  0  0  0  0999 V2000
   11.3350  -15.1620   31.2582 O   0  0  0  0  0  0  0  0  0  0  0  0
   10.4693  -15.2418   30.1748 C   0  0  0  0  0  0  0  0  0  0  0  0
   10.3844  -14.1127   29.3702 C   0  0  0  0  0  0  0  0  0  0  0  0
    9.5147  -14.1857   28.2774 C   0  0  0  0  0  0  0  0  0  0  0  0
    8.7872  -15.3257   28.0258 C   0  0  0  0  0  0  0  0  0  0  0  0
    7.8845  -15.3582   26.8644 C   0  0  0  0  0  0  0  0  0  0  0  0
    8.4533  -16.3405   25.8440 C   0  0  2  0  0  0  0  0  0  0  0  0
    9.8944  -16.2621   25.8047 N   0  0  0  0  0  0  0  0  0  0  0  0
    7.9109  -15.9484   24.5259 C   0  0  0  0  0  0  0  0  0  0  0  0
    6.6710  -15.9479   24.2867 O   0  0  0  0  0  0  0  0  0  0  0  0
    8.8942  -16.4218   28.8389 C   0  0  0  0  0  0  0  0  0  0  0  0
    9.7502  -16.3888   29.9384 C   0  0  0  0  0  0  0  0  0  0  0  0
    7.2799  -12.4091   16.5222 O   0  0  0  0  0  0  0  0  0  0  0  0
    7.5822  -12.7551   17.8375 C   0  0  0  0  0  0  0  0  0  0  0  0
    8.8821  -12.7082   18.2980 C   0  0  0  0  0  0  0  0  0  0  0  0
    9.2282  -13.0426   19.5951 C   0  0  0  0  0  0  0  0  0  0  0  0
    8.2626  -13.4431   20.4906 C   0  0  0  0  0  0  0  0  0  0  0  0
    8.5507  -13.8176   21.8940 C   0  0  0  0  0  0  0  0  0  0  0  0
    8.4077  -15.3037   22.1308 C   0  0  2  0  0  0  0  0  0  0  0  0
    8.8098  -15.5619   23.5008 N   0  0  0  0  0  0  0  0  0  0  0  0
    9.3726  -15.9861   21.2156 C   0  0  0  0  0  0  0  0  0  0  0  0
    9.0479  -16.1725   20.0206 O   0  0  0  0  0  0  0  0  0  0  0  0
    6.9622  -13.4945   20.0450 C   0  0  0  0  0  0  0  0  0  0  0  0
    6.6179  -13.1572   18.7392 C   0  0  0  0  0  0  0  0  0  0  0  0
   13.0494  -14.2747   17.7853 N   0  0  0  0  0  0  0  0  0  0  0  0
   13.7218  -14.3383   19.0195 C   0  0  0  0  0  0  0  0  0  0  0  0
   14.8159  -13.7734   19.1797 O   0  0  0  0  0  0  0  0  0  0  0  0
   13.1249  -15.0908   20.1609 C   0  0  0  0  0  0  0  0  0  0  0  0
   11.9383  -15.8997   19.7288 C   0  0  0  0  0  0  0  0  0  0  0  0
   11.6609  -16.9868   20.7344 C   0  0  2  0  0  0  0  0  0  0  0  0
   10.6407  -16.4322   21.6417 N   0  0  0  0  0  0  0  0  0  0  0  0
   12.8455  -17.2461   21.5800 C   0  0  0  0  0  0  0  0  0  0  0  0
   13.9966  -17.8379   21.1128 O   0  0  0  0  0  0  0  0  0  0  0  0
   12.8304  -16.9163   22.8184 O   0  0  0  0  0  0  0  0  0  0  0  0
  2  1  1  0
  2  3  2  0
  4  3  1  0
  5  4  2  0
  6  5  1  0
  7  6  1  0
  7  8  1  6
  9 10  2  0
  9  7  1  0
 11 12  2  0
 11  5  1  0
 12  2  1  0
 13 14  1  0
 14 15  2  0
 15 16  1  0
 17 16  2  0
 17 18  1  0
 19 18  1  6
 19 20  1  0
 20  9  1  0
 21 19  1  0
 21 31  1  0
 22 21  2  0
 23 17  1  0
 24 14  1  0
 24 23  2  0
 25 26  1  0
 26 27  2  0
 26 28  1  0
 28 29  1  0
 30 29  1  6
 30 31  1  0
 30 32  1  0
 32 34  2  0
 32 33  1  0
M  END
$$$$
