YYQ.pdb
     RDKit          3D

 34 35  0  0  1  0  0  0  0  0999 V2000
    6.2768  -13.3939   15.7986 O   0  0  0  0  0  0  0  0  0  0  0  0
    7.0861  -13.5624   16.9148 C   0  0  0  0  0  0  0  0  0  0  0  0
    6.8569  -12.6977   17.9776 C   0  0  0  0  0  0  0  0  0  0  0  0
    7.6680  -12.8615   19.1051 C   0  0  0  0  0  0  0  0  0  0  0  0
    8.6394  -13.8347   19.1437 C   0  0  0  0  0  0  0  0  0  0  0  0
    9.4696  -13.9712   20.3507 C   0  0  0  0  0  0  0  0  0  0  0  0
    9.2295  -15.3578   20.9418 C   0  0  2  0  0  0  0  0  0  0  0  0
    7.8262  -15.5648   21.2105 N   0  0  0  0  0  0  0  0  0  0  0  0
    9.9797  -15.4149   22.2144 C   0  0  0  0  0  0  0  0  0  0  0  0
   11.2403  -15.3517   22.2506 O   0  0  0  0  0  0  0  0  0  0  0  0
    8.8396  -14.6711   18.0785 C   0  0  0  0  0  0  0  0  0  0  0  0
    8.0517  -14.5400   16.9362 C   0  0  0  0  0  0  0  0  0  0  0  0
   10.9970  -15.0342   31.0378 O   0  0  0  0  0  0  0  0  0  0  0  0
   10.4819  -15.0500   29.7434 C   0  0  0  0  0  0  0  0  0  0  0  0
    9.9368  -16.2024   29.2154 C   0  0  0  0  0  0  0  0  0  0  0  0
    9.4142  -16.2641   27.9359 C   0  0  0  0  0  0  0  0  0  0  0  0
    9.4213  -15.1497   27.1279 C   0  0  0  0  0  0  0  0  0  0  0  0
    8.8827  -15.1335   25.7487 C   0  0  0  0  0  0  0  0  0  0  0  0
    9.8921  -15.6200   24.7341 C   0  0  2  0  0  0  0  0  0  0  0  0
    9.2619  -15.5445   23.4295 N   0  0  0  0  0  0  0  0  0  0  0  0
   10.1674  -17.0557   25.0466 C   0  0  0  0  0  0  0  0  0  0  0  0
    9.2028  -17.8389   25.2020 O   0  0  0  0  0  0  0  0  0  0  0  0
    9.9618  -13.9937   27.6416 C   0  0  0  0  0  0  0  0  0  0  0  0
   10.4866  -13.9356   28.9294 C   0  0  0  0  0  0  0  0  0  0  0  0
   15.0867  -20.1211   23.0742 N   0  0  0  0  0  0  0  0  0  0  0  0
   13.9582  -19.5618   22.4473 C   0  0  0  0  0  0  0  0  0  0  0  0
   13.9456  -19.3552   21.2230 O   0  0  0  0  0  0  0  0  0  0  0  0
   12.7526  -19.2070   23.2510 C   0  0  0  0  0  0  0  0  0  0  0  0
   13.0195  -19.3119   24.7229 C   0  0  0  0  0  0  0  0  0  0  0  0
   11.7725  -18.9762   25.4988 C   0  0  2  0  0  0  0  0  0  0  0  0
   11.4743  -17.5699   25.1747 N   0  0  0  0  0  0  0  0  0  0  0  0
   12.0269  -19.0027   26.9550 C   0  0  0  0  0  0  0  0  0  0  0  0
   12.4625  -17.9102   27.6692 O   0  0  0  0  0  0  0  0  0  0  0  0
   11.8435  -20.0856   27.6155 O   0  0  0  0  0  0  0  0  0  0  0  0
  2  1  1  0
  2  3  2  0
  4  3  1  0
  5  4  2  0
  6  5  1  0
  7  6  1  0
  7  8  1  1
  9 10  2  0
  9  7  1  0
 11 12  2  0
 11  5  1  0
 12  2  1  0
 13 14  1  0
 14 15  2  0
 15 16  1  0
 17 16  2  0
 17 18  1  0
 19 18  1  1
 19 20  1  0
 20  9  1  0
 21 19  1  0
 21 31  1  0
 22 21  2  0
 23 17  1  0
 24 14  1  0
 24 23  2  0
 25 26  1  0
 26 27  2  0
 26 28  1  0
 28 29  1  0
 30 29  1  6
 30 31  1  0
 30 32  1  0
 32 34  2  0
 32 33  1  0
M  END
$$$$
