YYQ.pdb
     RDKit          3D

 34 35  0  0  1  0  0  0  0  0999 V2000
    6.4048  -14.3931   14.0888 O   0  0  0  0  0  0  0  0  0  0  0  0
    6.8586  -14.7519   15.3516 C   0  0  0  0  0  0  0  0  0  0  0  0
    7.2432  -16.0768   15.5140 C   0  0  0  0  0  0  0  0  0  0  0  0
    7.7013  -16.4454   16.7830 C   0  0  0  0  0  0  0  0  0  0  0  0
    7.7618  -15.5300   17.8080 C   0  0  0  0  0  0  0  0  0  0  0  0
    8.2505  -15.9619   19.1268 C   0  0  0  0  0  0  0  0  0  0  0  0
    9.5145  -15.1703   19.4510 C   0  0  2  0  0  0  0  0  0  0  0  0
   10.6676  -15.7622   18.8152 N   0  0  0  0  0  0  0  0  0  0  0  0
    9.6886  -15.2261   20.9180 C   0  0  0  0  0  0  0  0  0  0  0  0
   10.6149  -15.8945   21.4562 O   0  0  0  0  0  0  0  0  0  0  0  0
    7.3748  -14.2312   17.6144 C   0  0  0  0  0  0  0  0  0  0  0  0
    6.9123  -13.8243   16.3641 C   0  0  0  0  0  0  0  0  0  0  0  0
    7.8648  -13.0370   29.3508 O   0  0  0  0  0  0  0  0  0  0  0  0
    7.8284  -13.1923   27.9667 C   0  0  0  0  0  0  0  0  0  0  0  0
    6.7608  -13.8168   27.3550 C   0  0  0  0  0  0  0  0  0  0  0  0
    6.6825  -13.9929   25.9850 C   0  0  0  0  0  0  0  0  0  0  0  0
    7.6928  -13.5394   25.1673 C   0  0  0  0  0  0  0  0  0  0  0  0
    7.6847  -13.6890   23.6941 C   0  0  0  0  0  0  0  0  0  0  0  0
    8.8743  -14.4752   23.1922 C   0  0  2  0  0  0  0  0  0  0  0  0
    8.7886  -14.5079   21.7441 N   0  0  0  0  0  0  0  0  0  0  0  0
    8.7248  -15.8699   23.7087 C   0  0  0  0  0  0  0  0  0  0  0  0
    7.5942  -16.4078   23.6862 O   0  0  0  0  0  0  0  0  0  0  0  0
    8.7635  -12.9147   25.7638 C   0  0  0  0  0  0  0  0  0  0  0  0
    8.8385  -12.7395   27.1426 C   0  0  0  0  0  0  0  0  0  0  0  0
   11.3268  -15.1556   28.6907 N   0  0  0  0  0  0  0  0  0  0  0  0
   10.7816  -16.4230   28.9663 C   0  0  0  0  0  0  0  0  0  0  0  0
   10.7539  -16.8671   30.1256 O   0  0  0  0  0  0  0  0  0  0  0  0
   10.2254  -17.2566   27.8613 C   0  0  0  0  0  0  0  0  0  0  0  0
   10.3203  -16.5555   26.5390 C   0  0  0  0  0  0  0  0  0  0  0  0
    9.7358  -17.4206   25.4530 C   0  0  2  0  0  0  0  0  0  0  0  0
    9.8083  -16.6113   24.2236 N   0  0  0  0  0  0  0  0  0  0  0  0
    8.2960  -17.6654   25.6828 C   0  0  0  0  0  0  0  0  0  0  0  0
    7.3149  -17.3263   24.7795 O   0  0  0  0  0  0  0  0  0  0  0  0
    7.9083  -18.2188   26.7719 O   0  0  0  0  0  0  0  0  0  0  0  0
  2  1  1  0
  2  3  2  0
  4  3  1  0
  5  4  2  0
  6  5  1  0
  7  6  1  0
  7  8  1  6
  9 10  2  0
  9  7  1  0
 11 12  2  0
 11  5  1  0
 12  2  1  0
 13 14  1  0
 14 15  2  0
 15 16  1  0
 17 16  2  0
 17 18  1  0
 19 18  1  1
 19 20  1  0
 20  9  1  0
 21 19  1  0
 21 31  1  0
 22 21  2  0
 23 17  1  0
 24 14  1  0
 24 23  2  0
 25 26  1  0
 26 27  2  0
 26 28  1  0
 28 29  1  0
 30 29  1  1
 30 31  1  0
 30 32  1  0
 32 34  2  0
 32 33  1  0
M  END
$$$$
