YYQ.pdb
     RDKit          3D

 34 35  0  0  1  0  0  0  0  0999 V2000
    6.8596  -14.4161   15.4043 O   0  0  0  0  0  0  0  0  0  0  0  0
    7.2472  -14.1881   16.7185 C   0  0  0  0  0  0  0  0  0  0  0  0
    8.4044  -14.8311   17.1393 C   0  0  0  0  0  0  0  0  0  0  0  0
    8.8009  -14.6062   18.4615 C   0  0  0  0  0  0  0  0  0  0  0  0
    8.0706  -13.7868   19.2906 C   0  0  0  0  0  0  0  0  0  0  0  0
    8.5250  -13.5786   20.6743 C   0  0  0  0  0  0  0  0  0  0  0  0
    8.9742  -14.9241   21.2377 C   0  0  2  0  0  0  0  0  0  0  0  0
    7.8855  -15.8722   21.2306 N   0  0  0  0  0  0  0  0  0  0  0  0
    9.3970  -14.6827   22.6336 C   0  0  0  0  0  0  0  0  0  0  0  0
    8.9233  -13.7354   23.3210 O   0  0  0  0  0  0  0  0  0  0  0  0
    6.9340  -13.1678   18.8443 C   0  0  0  0  0  0  0  0  0  0  0  0
    6.5055  -13.3664   17.5329 C   0  0  0  0  0  0  0  0  0  0  0  0
   11.0749  -15.1566   30.9899 O   0  0  0  0  0  0  0  0  0  0  0  0
   10.7231  -15.2025   29.6427 C   0  0  0  0  0  0  0  0  0  0  0  0
   10.4641  -16.4073   29.0221 C   0  0  0  0  0  0  0  0  0  0  0  0
   10.1117  -16.5003   27.6874 C   0  0  0  0  0  0  0  0  0  0  0  0
   10.0054  -15.3652   26.9162 C   0  0  0  0  0  0  0  0  0  0  0  0
    9.6343  -15.3797   25.4827 C   0  0  0  0  0  0  0  0  0  0  0  0
   10.8452  -15.4038   24.5782 C   0  0  2  0  0  0  0  0  0  0  0  0
   10.3628  -15.5404   23.2166 N   0  0  0  0  0  0  0  0  0  0  0  0
   11.6282  -16.6276   24.9300 C   0  0  0  0  0  0  0  0  0  0  0  0
   11.6494  -17.0131   26.1212 O   0  0  0  0  0  0  0  0  0  0  0  0
   10.2608  -14.1568   27.5220 C   0  0  0  0  0  0  0  0  0  0  0  0
   10.6151  -14.0674   28.8651 C   0  0  0  0  0  0  0  0  0  0  0  0
   14.1439  -14.5823   20.3137 N   0  0  0  0  0  0  0  0  0  0  0  0
   15.3176  -15.1133   20.8794 C   0  0  0  0  0  0  0  0  0  0  0  0
   16.4352  -14.8119   20.4298 O   0  0  0  0  0  0  0  0  0  0  0  0
   15.2347  -16.0524   22.0354 C   0  0  0  0  0  0  0  0  0  0  0  0
   13.8157  -16.2714   22.4684 C   0  0  0  0  0  0  0  0  0  0  0  0
   13.7782  -17.1641   23.6814 C   0  0  2  0  0  0  0  0  0  0  0  0
   12.3486  -17.3717   23.9729 N   0  0  0  0  0  0  0  0  0  0  0  0
   14.3293  -16.4754   24.8679 C   0  0  0  0  0  0  0  0  0  0  0  0
   15.1572  -17.0847   25.7826 O   0  0  0  0  0  0  0  0  0  0  0  0
   14.0378  -15.2465   25.0854 O   0  0  0  0  0  0  0  0  0  0  0  0
  2  1  1  0
  2  3  2  0
  4  3  1  0
  5  4  2  0
  6  5  1  0
  7  6  1  0
  7  8  1  1
  9 10  2  0
  9  7  1  0
 11 12  2  0
 11  5  1  0
 12  2  1  0
 13 14  1  0
 14 15  2  0
 15 16  1  0
 17 16  2  0
 17 18  1  0
 19 18  1  1
 19 20  1  0
 20  9  1  0
 21 19  1  0
 21 31  1  0
 22 21  2  0
 23 17  1  0
 24 14  1  0
 24 23  2  0
 25 26  1  0
 26 27  2  0
 26 28  1  0
 28 29  1  0
 30 29  1  6
 30 31  1  0
 30 32  1  0
 32 34  2  0
 32 33  1  0
M  END
$$$$
