YYQ.pdb
     RDKit          3D

 34 35  0  0  1  0  0  0  0  0999 V2000
    6.2567  -13.2383   15.4178 O   0  0  0  0  0  0  0  0  0  0  0  0
    6.7708  -13.6885   16.6271 C   0  0  0  0  0  0  0  0  0  0  0  0
    7.3701  -14.9416   16.6128 C   0  0  0  0  0  0  0  0  0  0  0  0
    7.8902  -15.4016   17.8268 C   0  0  0  0  0  0  0  0  0  0  0  0
    7.8044  -14.6392   18.9686 C   0  0  0  0  0  0  0  0  0  0  0  0
    8.3655  -15.1628   20.2239 C   0  0  0  0  0  0  0  0  0  0  0  0
    9.2759  -14.0943   20.8231 C   0  0  2  0  0  0  0  0  0  0  0  0
   10.3529  -13.7715   19.9174 N   0  0  0  0  0  0  0  0  0  0  0  0
    9.8416  -14.6630   22.0649 C   0  0  0  0  0  0  0  0  0  0  0  0
   10.8327  -15.4452   22.0508 O   0  0  0  0  0  0  0  0  0  0  0  0
    7.2070  -13.4076   18.9485 C   0  0  0  0  0  0  0  0  0  0  0  0
    6.6764  -12.9135   17.7581 C   0  0  0  0  0  0  0  0  0  0  0  0
   10.3264  -15.8851   30.8954 O   0  0  0  0  0  0  0  0  0  0  0  0
    9.9615  -15.4769   29.6143 C   0  0  0  0  0  0  0  0  0  0  0  0
    9.1949  -16.2914   28.8062 C   0  0  0  0  0  0  0  0  0  0  0  0
    8.8094  -15.9273   27.5284 C   0  0  0  0  0  0  0  0  0  0  0  0
    9.1877  -14.7100   27.0088 C   0  0  0  0  0  0  0  0  0  0  0  0
    8.8172  -14.2469   25.6519 C   0  0  0  0  0  0  0  0  0  0  0  0
    9.7520  -14.7796   24.5902 C   0  0  2  0  0  0  0  0  0  0  0  0
    9.2533  -14.3196   23.3076 N   0  0  0  0  0  0  0  0  0  0  0  0
    9.6542  -16.2707   24.6310 C   0  0  0  0  0  0  0  0  0  0  0  0
    8.6340  -16.8252   24.1622 O   0  0  0  0  0  0  0  0  0  0  0  0
    9.9522  -13.8877   27.8036 C   0  0  0  0  0  0  0  0  0  0  0  0
   10.3381  -14.2577   29.0887 C   0  0  0  0  0  0  0  0  0  0  0  0
   11.5655  -18.4675   20.3257 N   0  0  0  0  0  0  0  0  0  0  0  0
   12.3578  -19.2490   21.1866 C   0  0  0  0  0  0  0  0  0  0  0  0
   13.4009  -19.7867   20.7808 O   0  0  0  0  0  0  0  0  0  0  0  0
   11.9524  -19.4434   22.6089 C   0  0  0  0  0  0  0  0  0  0  0  0
   11.4409  -18.1712   23.2163 C   0  0  0  0  0  0  0  0  0  0  0  0
   11.0283  -18.4110   24.6453 C   0  0  2  0  0  0  0  0  0  0  0  0
   10.6670  -17.0853   25.1780 N   0  0  0  0  0  0  0  0  0  0  0  0
   12.1729  -18.8685   25.4615 C   0  0  0  0  0  0  0  0  0  0  0  0
   12.8403  -18.0603   26.3531 O   0  0  0  0  0  0  0  0  0  0  0  0
   12.5913  -20.0752   25.3548 O   0  0  0  0  0  0  0  0  0  0  0  0
  2  1  1  0
  2  3  2  0
  4  3  1  0
  5  4  2  0
  6  5  1  0
  7  6  1  0
  7  8  1  6
  9 10  2  0
  9  7  1  0
 11 12  2  0
 11  5  1  0
 12  2  1  0
 13 14  1  0
 14 15  2  0
 15 16  1  0
 17 16  2  0
 17 18  1  0
 19 18  1  1
 19 20  1  0
 20  9  1  0
 21 19  1  0
 21 31  1  0
 22 21  2  0
 23 17  1  0
 24 14  1  0
 24 23  2  0
 25 26  1  0
 26 27  2  0
 26 28  1  0
 28 29  1  0
 30 29  1  6
 30 31  1  0
 30 32  1  0
 32 34  2  0
 32 33  1  0
M  END
$$$$
