YYQ.pdb
     RDKit          3D

 34 35  0  0  1  0  0  0  0  0999 V2000
    8.5546  -12.3906   16.9831 O   0  0  0  0  0  0  0  0  0  0  0  0
    8.2063  -13.3798   17.8939 C   0  0  0  0  0  0  0  0  0  0  0  0
    8.4254  -14.6913   17.4919 C   0  0  0  0  0  0  0  0  0  0  0  0
    8.0772  -15.6928   18.4039 C   0  0  0  0  0  0  0  0  0  0  0  0
    7.5455  -15.3782   19.6329 C   0  0  0  0  0  0  0  0  0  0  0  0
    7.1939  -16.4643   20.5610 C   0  0  0  0  0  0  0  0  0  0  0  0
    6.4784  -15.8534   21.7629 C   0  0  2  0  0  0  0  0  0  0  0  0
    5.6543  -14.7396   21.3573 N   0  0  0  0  0  0  0  0  0  0  0  0
    7.5285  -15.3688   22.6837 C   0  0  0  0  0  0  0  0  0  0  0  0
    8.0460  -14.2233   22.5637 O   0  0  0  0  0  0  0  0  0  0  0  0
    7.3422  -14.0747   19.9982 C   0  0  0  0  0  0  0  0  0  0  0  0
    7.6763  -13.0474   19.1174 C   0  0  0  0  0  0  0  0  0  0  0  0
    6.0461  -10.6411   26.8064 O   0  0  0  0  0  0  0  0  0  0  0  0
    6.6396  -11.8869   26.6149 C   0  0  0  0  0  0  0  0  0  0  0  0
    5.8692  -13.0273   26.5158 C   0  0  0  0  0  0  0  0  0  0  0  0
    6.4151  -14.2842   26.3256 C   0  0  0  0  0  0  0  0  0  0  0  0
    7.7790  -14.4416   26.2265 C   0  0  0  0  0  0  0  0  0  0  0  0
    8.4407  -15.7506   26.0234 C   0  0  0  0  0  0  0  0  0  0  0  0
    9.0443  -15.8790   24.6435 C   0  0  2  0  0  0  0  0  0  0  0  0
    7.9668  -16.2157   23.7320 N   0  0  0  0  0  0  0  0  0  0  0  0
   10.0022  -17.0256   24.6913 C   0  0  0  0  0  0  0  0  0  0  0  0
    9.5561  -18.1824   24.8670 O   0  0  0  0  0  0  0  0  0  0  0  0
    8.5595  -13.3129   26.3234 C   0  0  0  0  0  0  0  0  0  0  0  0
    8.0063  -12.0500   26.5148 C   0  0  0  0  0  0  0  0  0  0  0  0
   11.0157  -18.5229   19.9094 N   0  0  0  0  0  0  0  0  0  0  0  0
   12.1038  -19.2673   20.4008 C   0  0  0  0  0  0  0  0  0  0  0  0
   12.6488  -20.1373   19.7023 O   0  0  0  0  0  0  0  0  0  0  0  0
   12.6212  -19.0195   21.7777 C   0  0  0  0  0  0  0  0  0  0  0  0
   11.7778  -18.0213   22.5134 C   0  0  0  0  0  0  0  0  0  0  0  0
   12.2783  -17.8638   23.9256 C   0  0  2  0  0  0  0  0  0  0  0  0
   11.3952  -16.8604   24.5462 N   0  0  0  0  0  0  0  0  0  0  0  0
   13.6319  -17.2698   23.9488 C   0  0  0  0  0  0  0  0  0  0  0  0
   13.8819  -15.9647   24.3059 O   0  0  0  0  0  0  0  0  0  0  0  0
   14.6468  -17.9811   23.6222 O   0  0  0  0  0  0  0  0  0  0  0  0
  2  1  1  0
  2  3  2  0
  4  3  1  0
  5  4  2  0
  6  5  1  0
  7  6  1  0
  7  8  1  6
  9 10  2  0
  9  7  1  0
 11 12  2  0
 11  5  1  0
 12  2  1  0
 13 14  1  0
 14 15  2  0
 15 16  1  0
 17 16  2  0
 17 18  1  0
 19 18  1  1
 19 20  1  0
 20  9  1  0
 21 19  1  0
 21 31  1  0
 22 21  2  0
 23 17  1  0
 24 14  1  0
 24 23  2  0
 25 26  1  0
 26 27  2  0
 26 28  1  0
 28 29  1  0
 30 29  1  6
 30 31  1  0
 30 32  1  0
 32 34  2  0
 32 33  1  0
M  END
$$$$
