YYQ.pdb
     RDKit          3D

 34 35  0  0  1  0  0  0  0  0999 V2000
    2.6185  -24.3417   26.6811 O   0  0  0  0  0  0  0  0  0  0  0  0
    3.4027  -23.3361   26.1305 C   0  0  0  0  0  0  0  0  0  0  0  0
    4.6946  -23.2208   26.6281 C   0  0  0  0  0  0  0  0  0  0  0  0
    5.4902  -22.2105   26.0784 C   0  0  0  0  0  0  0  0  0  0  0  0
    5.0029  -21.3810   25.0951 C   0  0  0  0  0  0  0  0  0  0  0  0
    5.8753  -20.3316   24.5453 C   0  0  0  0  0  0  0  0  0  0  0  0
    5.8305  -20.4219   23.0223 C   0  0  2  0  0  0  0  0  0  0  0  0
    6.2895  -21.7143   22.5715 N   0  0  0  0  0  0  0  0  0  0  0  0
    6.7406  -19.3776   22.5059 C   0  0  0  0  0  0  0  0  0  0  0  0
    7.9668  -19.6004   22.3031 O   0  0  0  0  0  0  0  0  0  0  0  0
    3.7243  -21.5215   24.6266 C   0  0  0  0  0  0  0  0  0  0  0  0
    2.8996  -22.5165   25.1488 C   0  0  0  0  0  0  0  0  0  0  0  0
    8.8436  -11.3257   19.3412 O   0  0  0  0  0  0  0  0  0  0  0  0
    8.1708  -12.4303   19.8592 C   0  0  0  0  0  0  0  0  0  0  0  0
    7.6440  -12.4009   21.1342 C   0  0  0  0  0  0  0  0  0  0  0  0
    6.9687  -13.4734   21.6890 C   0  0  0  0  0  0  0  0  0  0  0  0
    6.7963  -14.6337   20.9687 C   0  0  0  0  0  0  0  0  0  0  0  0
    6.0871  -15.8245   21.4900 C   0  0  0  0  0  0  0  0  0  0  0  0
    7.0267  -16.9771   21.7614 C   0  0  2  0  0  0  0  0  0  0  0  0
    6.2205  -18.0884   22.2306 N   0  0  0  0  0  0  0  0  0  0  0  0
    7.9349  -16.5481   22.8685 C   0  0  0  0  0  0  0  0  0  0  0  0
    7.4366  -16.2150   23.9679 O   0  0  0  0  0  0  0  0  0  0  0  0
    7.3164  -14.6769   19.6959 C   0  0  0  0  0  0  0  0  0  0  0  0
    7.9951  -13.5957   19.1413 C   0  0  0  0  0  0  0  0  0  0  0  0
   10.2248  -19.0695   26.8532 N   0  0  0  0  0  0  0  0  0  0  0  0
   10.8316  -19.3761   25.6214 C   0  0  0  0  0  0  0  0  0  0  0  0
   11.3007  -20.5053   25.4051 O   0  0  0  0  0  0  0  0  0  0  0  0
   10.9202  -18.3412   24.5508 C   0  0  0  0  0  0  0  0  0  0  0  0
   10.1008  -17.1302   24.8840 C   0  0  0  0  0  0  0  0  0  0  0  0
   10.2548  -16.0900   23.8052 C   0  0  2  0  0  0  0  0  0  0  0  0
    9.3374  -16.5018   22.7280 N   0  0  0  0  0  0  0  0  0  0  0  0
   11.6083  -16.1330   23.2120 C   0  0  0  0  0  0  0  0  0  0  0  0
   12.7187  -15.5880   23.8147 O   0  0  0  0  0  0  0  0  0  0  0  0
   11.7899  -16.6985   22.0763 O   0  0  0  0  0  0  0  0  0  0  0  0
  2  1  1  0
  2  3  2  0
  4  3  1  0
  5  4  2  0
  6  5  1  0
  7  6  1  0
  7  8  1  1
  9 10  2  0
  9  7  1  0
 11 12  2  0
 11  5  1  0
 12  2  1  0
 13 14  1  0
 14 15  2  0
 15 16  1  0
 17 16  2  0
 17 18  1  0
 19 18  1  1
 19 20  1  0
 20  9  1  0
 21 19  1  0
 21 31  1  0
 22 21  2  0
 23 17  1  0
 24 14  1  0
 24 23  2  0
 25 26  1  0
 26 27  2  0
 26 28  1  0
 28 29  1  0
 30 29  1  1
 30 31  1  0
 30 32  1  0
 32 34  2  0
 32 33  1  0
M  END
$$$$
