YYQ.pdb
     RDKit          3D

 34 35  0  0  1  0  0  0  0  0999 V2000
    6.4222  -13.5653   15.1802 O   0  0  0  0  0  0  0  0  0  0  0  0
    7.1060  -13.6056   16.3886 C   0  0  0  0  0  0  0  0  0  0  0  0
    6.7403  -12.6565   17.3347 C   0  0  0  0  0  0  0  0  0  0  0  0
    7.4245  -12.6909   18.5540 C   0  0  0  0  0  0  0  0  0  0  0  0
    8.4074  -13.6241   18.7888 C   0  0  0  0  0  0  0  0  0  0  0  0
    9.1010  -13.6236   20.0863 C   0  0  0  0  0  0  0  0  0  0  0  0
    8.9599  -15.0120   20.7045 C   0  0  2  0  0  0  0  0  0  0  0  0
    7.5723  -15.3246   20.9517 N   0  0  0  0  0  0  0  0  0  0  0  0
    9.6862  -14.9818   21.9917 C   0  0  0  0  0  0  0  0  0  0  0  0
   10.9300  -14.7728   22.0526 O   0  0  0  0  0  0  0  0  0  0  0  0
    8.7439  -14.5462   17.8345 C   0  0  0  0  0  0  0  0  0  0  0  0
    8.0853  -14.5449   16.6061 C   0  0  0  0  0  0  0  0  0  0  0  0
   10.6532  -14.9396   30.8279 O   0  0  0  0  0  0  0  0  0  0  0  0
   10.1569  -14.8854   29.5272 C   0  0  0  0  0  0  0  0  0  0  0  0
    9.6236  -16.0084   28.9286 C   0  0  0  0  0  0  0  0  0  0  0  0
    9.1197  -16.0009   27.6402 C   0  0  0  0  0  0  0  0  0  0  0  0
    9.1344  -14.8436   26.8950 C   0  0  0  0  0  0  0  0  0  0  0  0
    8.6156  -14.7529   25.5111 C   0  0  0  0  0  0  0  0  0  0  0  0
    9.5873  -15.3128   24.4976 C   0  0  2  0  0  0  0  0  0  0  0  0
    8.9643  -15.1940   23.1926 N   0  0  0  0  0  0  0  0  0  0  0  0
    9.7579  -16.7641   24.8124 C   0  0  0  0  0  0  0  0  0  0  0  0
    8.7637  -17.4240   25.1921 O   0  0  0  0  0  0  0  0  0  0  0  0
    9.6633  -13.7161   27.4794 C   0  0  0  0  0  0  0  0  0  0  0  0
   10.1693  -13.7277   28.7760 C   0  0  0  0  0  0  0  0  0  0  0  0
   13.7485  -19.1551   21.5813 N   0  0  0  0  0  0  0  0  0  0  0  0
   14.1917  -19.6237   22.8317 C   0  0  0  0  0  0  0  0  0  0  0  0
   15.2235  -20.3080   22.9272 O   0  0  0  0  0  0  0  0  0  0  0  0
   13.4225  -19.3023   24.0687 C   0  0  0  0  0  0  0  0  0  0  0  0
   11.9444  -19.4281   23.8482 C   0  0  0  0  0  0  0  0  0  0  0  0
   11.1966  -18.8511   25.0219 C   0  0  2  0  0  0  0  0  0  0  0  0
   10.9976  -17.4269   24.6998 N   0  0  0  0  0  0  0  0  0  0  0  0
   12.0272  -18.8693   26.2448 C   0  0  0  0  0  0  0  0  0  0  0  0
   12.6750  -17.7603   26.7388 O   0  0  0  0  0  0  0  0  0  0  0  0
   12.1734  -19.9604   26.9011 O   0  0  0  0  0  0  0  0  0  0  0  0
  2  1  1  0
  2  3  2  0
  4  3  1  0
  5  4  2  0
  6  5  1  0
  7  6  1  0
  7  8  1  1
  9 10  2  0
  9  7  1  0
 11 12  2  0
 11  5  1  0
 12  2  1  0
 13 14  1  0
 14 15  2  0
 15 16  1  0
 17 16  2  0
 17 18  1  0
 19 18  1  1
 19 20  1  0
 20  9  1  0
 21 19  1  0
 21 31  1  0
 22 21  2  0
 23 17  1  0
 24 14  1  0
 24 23  2  0
 25 26  1  0
 26 27  2  0
 26 28  1  0
 28 29  1  0
 30 29  1  6
 30 31  1  0
 30 32  1  0
 32 34  2  0
 32 33  1  0
M  END
$$$$
