YYQ.pdb
     RDKit          3D

 34 35  0  0  1  0  0  0  0  0999 V2000
    8.0321  -22.6629   17.2376 O   0  0  0  0  0  0  0  0  0  0  0  0
    8.4128  -21.6210   18.0736 C   0  0  0  0  0  0  0  0  0  0  0  0
    8.3819  -20.3465   17.5220 C   0  0  0  0  0  0  0  0  0  0  0  0
    8.7639  -19.2923   18.3578 C   0  0  0  0  0  0  0  0  0  0  0  0
    9.1483  -19.5228   19.6583 C   0  0  0  0  0  0  0  0  0  0  0  0
    9.5420  -18.3836   20.5019 C   0  0  0  0  0  0  0  0  0  0  0  0
    8.9736  -17.1101   19.8816 C   0  0  2  0  0  0  0  0  0  0  0  0
    9.6719  -16.7777   18.6625 N   0  0  0  0  0  0  0  0  0  0  0  0
    9.1777  -16.0273   20.8672 C   0  0  0  0  0  0  0  0  0  0  0  0
   10.1583  -15.2349   20.7961 O   0  0  0  0  0  0  0  0  0  0  0  0
    9.1676  -20.7918   20.1714 C   0  0  0  0  0  0  0  0  0  0  0  0
    8.7939  -21.8695   19.3703 C   0  0  0  0  0  0  0  0  0  0  0  0
    7.0040  -10.8895   27.7971 O   0  0  0  0  0  0  0  0  0  0  0  0
    6.9971  -11.8073   26.7490 C   0  0  0  0  0  0  0  0  0  0  0  0
    6.5912  -13.1099   26.9550 C   0  0  0  0  0  0  0  0  0  0  0  0
    6.5681  -14.0545   25.9445 C   0  0  0  0  0  0  0  0  0  0  0  0
    6.9592  -13.7168   24.6686 C   0  0  0  0  0  0  0  0  0  0  0  0
    6.9640  -14.6680   23.5337 C   0  0  0  0  0  0  0  0  0  0  0  0
    8.3444  -14.8503   22.9454 C   0  0  2  0  0  0  0  0  0  0  0  0
    8.2447  -15.8748   21.9228 N   0  0  0  0  0  0  0  0  0  0  0  0
    9.2228  -15.3584   24.0431 C   0  0  0  0  0  0  0  0  0  0  0  0
    9.5125  -14.5941   24.9918 O   0  0  0  0  0  0  0  0  0  0  0  0
    7.3664  -12.4213   24.4488 C   0  0  0  0  0  0  0  0  0  0  0  0
    7.3882  -11.4738   25.4682 C   0  0  0  0  0  0  0  0  0  0  0  0
   10.5658  -19.0152   27.7685 N   0  0  0  0  0  0  0  0  0  0  0  0
    9.3430  -19.2452   27.1117 C   0  0  0  0  0  0  0  0  0  0  0  0
    8.3256  -19.5606   27.7499 O   0  0  0  0  0  0  0  0  0  0  0  0
    9.2516  -19.1122   25.6287 C   0  0  0  0  0  0  0  0  0  0  0  0
   10.5555  -18.6729   25.0322 C   0  0  0  0  0  0  0  0  0  0  0  0
   10.6687  -17.1716   25.0875 C   0  0  2  0  0  0  0  0  0  0  0  0
    9.7427  -16.6692   24.0571 N   0  0  0  0  0  0  0  0  0  0  0  0
   12.0127  -16.7220   24.6668 C   0  0  0  0  0  0  0  0  0  0  0  0
   12.7885  -15.8564   25.4033 O   0  0  0  0  0  0  0  0  0  0  0  0
   12.5091  -17.1406   23.5619 O   0  0  0  0  0  0  0  0  0  0  0  0
  2  1  1  0
  2  3  2  0
  4  3  1  0
  5  4  2  0
  6  5  1  0
  7  6  1  0
  7  8  1  6
  9 10  2  0
  9  7  1  0
 11 12  2  0
 11  5  1  0
 12  2  1  0
 13 14  1  0
 14 15  2  0
 15 16  1  0
 17 16  2  0
 17 18  1  0
 19 18  1  1
 19 20  1  0
 20  9  1  0
 21 19  1  0
 21 31  1  0
 22 21  2  0
 23 17  1  0
 24 14  1  0
 24 23  2  0
 25 26  1  0
 26 27  2  0
 26 28  1  0
 28 29  1  0
 30 29  1  6
 30 31  1  0
 30 32  1  0
 32 34  2  0
 32 33  1  0
M  END
$$$$
