YYQ.pdb
     RDKit          3D

 34 35  0  0  1  0  0  0  0  0999 V2000
    8.0459  -12.2213   27.6016 O   0  0  0  0  0  0  0  0  0  0  0  0
    7.4928  -13.0647   26.6465 C   0  0  0  0  0  0  0  0  0  0  0  0
    6.8228  -14.1828   27.1266 C   0  0  0  0  0  0  0  0  0  0  0  0
    6.2632  -15.0367   26.1707 C   0  0  0  0  0  0  0  0  0  0  0  0
    6.3794  -14.7685   24.8265 C   0  0  0  0  0  0  0  0  0  0  0  0
    5.7748  -15.6943   23.8560 C   0  0  0  0  0  0  0  0  0  0  0  0
    6.6534  -16.9395   23.7717 C   0  0  2  0  0  0  0  0  0  0  0  0
    7.3057  -17.1935   25.0344 N   0  0  0  0  0  0  0  0  0  0  0  0
    7.6795  -16.6690   22.7424 C   0  0  0  0  0  0  0  0  0  0  0  0
    7.3752  -16.4504   21.5365 O   0  0  0  0  0  0  0  0  0  0  0  0
    7.0467  -13.6572   24.3864 C   0  0  0  0  0  0  0  0  0  0  0  0
    7.6185  -12.7813   25.3077 C   0  0  0  0  0  0  0  0  0  0  0  0
    6.9126  -13.6740   17.2503 O   0  0  0  0  0  0  0  0  0  0  0  0
    7.6363  -13.9229   18.4145 C   0  0  0  0  0  0  0  0  0  0  0  0
    8.3335  -15.1030   18.5727 C   0  0  0  0  0  0  0  0  0  0  0  0
    9.0651  -15.3924   19.7108 C   0  0  0  0  0  0  0  0  0  0  0  0
    9.1225  -14.4894   20.7481 C   0  0  0  0  0  0  0  0  0  0  0  0
    9.8816  -14.7235   21.9979 C   0  0  0  0  0  0  0  0  0  0  0  0
   10.1164  -16.1939   22.2581 C   0  0  2  0  0  0  0  0  0  0  0  0
    9.0450  -16.6547   23.1212 N   0  0  0  0  0  0  0  0  0  0  0  0
   11.4077  -16.3042   23.0031 C   0  0  0  0  0  0  0  0  0  0  0  0
   12.3579  -15.5531   22.6855 O   0  0  0  0  0  0  0  0  0  0  0  0
    8.4320  -13.3083   20.6039 C   0  0  0  0  0  0  0  0  0  0  0  0
    7.6971  -13.0209   19.4573 C   0  0  0  0  0  0  0  0  0  0  0  0
    9.1135  -17.7158   26.9884 N   0  0  0  0  0  0  0  0  0  0  0  0
   10.2751  -18.4637   27.2543 C   0  0  0  0  0  0  0  0  0  0  0  0
   10.4758  -18.9523   28.3781 O   0  0  0  0  0  0  0  0  0  0  0  0
   11.2888  -18.6815   26.1818 C   0  0  0  0  0  0  0  0  0  0  0  0
   12.3902  -17.6658   26.2483 C   0  0  0  0  0  0  0  0  0  0  0  0
   12.8372  -17.2975   24.8575 C   0  0  2  0  0  0  0  0  0  0  0  0
   11.6037  -17.2232   24.0546 N   0  0  0  0  0  0  0  0  0  0  0  0
   13.6410  -18.3802   24.2513 C   0  0  0  0  0  0  0  0  0  0  0  0
   14.9033  -18.7200   24.6809 O   0  0  0  0  0  0  0  0  0  0  0  0
   13.1662  -19.0552   23.2707 O   0  0  0  0  0  0  0  0  0  0  0  0
  2  1  1  0
  2  3  2  0
  4  3  1  0
  5  4  2  0
  6  5  1  0
  7  6  1  0
  7  8  1  1
  9 10  2  0
  9  7  1  0
 11 12  2  0
 11  5  1  0
 12  2  1  0
 13 14  1  0
 14 15  2  0
 15 16  1  0
 17 16  2  0
 17 18  1  0
 19 18  1  1
 19 20  1  0
 20  9  1  0
 21 19  1  0
 21 31  1  0
 22 21  2  0
 23 17  1  0
 24 14  1  0
 24 23  2  0
 25 26  1  0
 26 27  2  0
 26 28  1  0
 28 29  1  0
 30 29  1  1
 30 31  1  0
 30 32  1  0
 32 34  2  0
 32 33  1  0
M  END
$$$$
