YYQ.pdb
     RDKit          3D

 34 35  0  0  1  0  0  0  0  0999 V2000
    7.5777  -13.9460   15.4537 O   0  0  0  0  0  0  0  0  0  0  0  0
    7.9823  -13.9923   16.7816 C   0  0  0  0  0  0  0  0  0  0  0  0
    7.3893  -13.0736   17.6383 C   0  0  0  0  0  0  0  0  0  0  0  0
    7.7918  -13.1144   18.9770 C   0  0  0  0  0  0  0  0  0  0  0  0
    8.7290  -14.0246   19.4077 C   0  0  0  0  0  0  0  0  0  0  0  0
    9.1225  -14.0318   20.8253 C   0  0  0  0  0  0  0  0  0  0  0  0
    9.0316  -15.4660   21.3395 C   0  0  2  0  0  0  0  0  0  0  0  0
    7.6979  -15.9900   21.1642 N   0  0  0  0  0  0  0  0  0  0  0  0
    9.3492  -15.4229   22.7827 C   0  0  0  0  0  0  0  0  0  0  0  0
   10.4380  -14.9504   23.2137 O   0  0  0  0  0  0  0  0  0  0  0  0
    9.2945  -14.9169   18.5370 C   0  0  0  0  0  0  0  0  0  0  0  0
    8.9199  -14.9083   17.1945 C   0  0  0  0  0  0  0  0  0  0  0  0
    6.2939  -10.2698   26.8578 O   0  0  0  0  0  0  0  0  0  0  0  0
    6.5444  -11.6172   26.6072 C   0  0  0  0  0  0  0  0  0  0  0  0
    5.6808  -12.3624   25.8308 C   0  0  0  0  0  0  0  0  0  0  0  0
    5.8896  -13.7022   25.5559 C   0  0  0  0  0  0  0  0  0  0  0  0
    6.9935  -14.3513   26.0608 C   0  0  0  0  0  0  0  0  0  0  0  0
    7.2882  -15.7812   25.8136 C   0  0  0  0  0  0  0  0  0  0  0  0
    8.6274  -15.9819   25.1418 C   0  0  2  0  0  0  0  0  0  0  0  0
    8.4029  -15.9270   23.7094 N   0  0  0  0  0  0  0  0  0  0  0  0
    9.0922  -17.3574   25.4976 C   0  0  0  0  0  0  0  0  0  0  0  0
    8.3021  -18.3194   25.3614 O   0  0  0  0  0  0  0  0  0  0  0  0
    7.8632  -13.6203   26.8366 C   0  0  0  0  0  0  0  0  0  0  0  0
    7.6496  -12.2725   27.1109 C   0  0  0  0  0  0  0  0  0  0  0  0
   14.7721  -19.4400   24.6156 N   0  0  0  0  0  0  0  0  0  0  0  0
   14.2480  -20.4918   25.3892 C   0  0  0  0  0  0  0  0  0  0  0  0
   14.8980  -21.5338   25.5730 O   0  0  0  0  0  0  0  0  0  0  0  0
   12.8943  -20.3686   26.0037 C   0  0  0  0  0  0  0  0  0  0  0  0
   12.2594  -19.0488   25.6811 C   0  0  0  0  0  0  0  0  0  0  0  0
   10.8873  -18.9715   26.2984 C   0  0  2  0  0  0  0  0  0  0  0  0
   10.3897  -17.6207   25.9831 N   0  0  0  0  0  0  0  0  0  0  0  0
   10.9617  -19.0329   27.7736 C   0  0  0  0  0  0  0  0  0  0  0  0
   10.9969  -20.2113   28.4833 O   0  0  0  0  0  0  0  0  0  0  0  0
   10.9944  -17.9491   28.4568 O   0  0  0  0  0  0  0  0  0  0  0  0
  2  1  1  0
  2  3  2  0
  4  3  1  0
  5  4  2  0
  6  5  1  0
  7  6  1  0
  7  8  1  1
  9 10  2  0
  9  7  1  0
 11 12  2  0
 11  5  1  0
 12  2  1  0
 13 14  1  0
 14 15  2  0
 15 16  1  0
 17 16  2  0
 17 18  1  0
 19 18  1  1
 19 20  1  0
 20  9  1  0
 21 19  1  0
 21 31  1  0
 22 21  2  0
 23 17  1  0
 24 14  1  0
 24 23  2  0
 25 26  1  0
 26 27  2  0
 26 28  1  0
 28 29  1  0
 30 29  1  6
 30 31  1  0
 30 32  1  0
 32 34  2  0
 32 33  1  0
M  END
$$$$
