YYQ.pdb
     RDKit          3D

 34 35  0  0  1  0  0  0  0  0999 V2000
   11.1644  -20.5096    7.8724 O   0  0  0  0  0  0  0  0  0  0  0  0
   11.7652  -20.3759    9.1177 C   0  0  0  0  0  0  0  0  0  0  0  0
   11.9064  -21.5407    9.8613 C   0  0  0  0  0  0  0  0  0  0  0  0
   12.5105  -21.4138   11.1162 C   0  0  0  0  0  0  0  0  0  0  0  0
   12.9379  -20.1900   11.5763 C   0  0  0  0  0  0  0  0  0  0  0  0
   13.5685  -20.1032   12.9027 C   0  0  0  0  0  0  0  0  0  0  0  0
   12.4799  -20.2605   13.9609 C   0  0  2  0  0  0  0  0  0  0  0  0
   11.5626  -19.1464   13.9225 N   0  0  0  0  0  0  0  0  0  0  0  0
   13.1602  -20.2825   15.2732 C   0  0  0  0  0  0  0  0  0  0  0  0
   13.1460  -19.2873   16.0502 O   0  0  0  0  0  0  0  0  0  0  0  0
   12.7837  -19.0607   10.8179 C   0  0  0  0  0  0  0  0  0  0  0  0
   12.1862  -19.1453    9.5615 C   0  0  0  0  0  0  0  0  0  0  0  0
   16.9946  -24.1538   22.3045 O   0  0  0  0  0  0  0  0  0  0  0  0
   16.3862  -23.8909   21.0791 C   0  0  0  0  0  0  0  0  0  0  0  0
   15.0765  -23.4605   21.0201 C   0  0  0  0  0  0  0  0  0  0  0  0
   14.4323  -23.1877   19.8265 C   0  0  0  0  0  0  0  0  0  0  0  0
   15.0939  -23.3406   18.6291 C   0  0  0  0  0  0  0  0  0  0  0  0
   14.4761  -23.0704   17.3107 C   0  0  0  0  0  0  0  0  0  0  0  0
   14.5199  -21.6036   16.9480 C   0  0  2  0  0  0  0  0  0  0  0  0
   13.8486  -21.4559   15.6702 N   0  0  0  0  0  0  0  0  0  0  0  0
   15.9593  -21.2401   16.7734 C   0  0  0  0  0  0  0  0  0  0  0  0
   16.7899  -21.6217   17.6293 O   0  0  0  0  0  0  0  0  0  0  0  0
   16.4003  -23.7692   18.6731 C   0  0  0  0  0  0  0  0  0  0  0  0
   17.0449  -24.0426   19.8760 C   0  0  0  0  0  0  0  0  0  0  0  0
   19.6360  -23.5726   13.6131 N   0  0  0  0  0  0  0  0  0  0  0  0
   19.0869  -22.4809   12.9159 C   0  0  0  0  0  0  0  0  0  0  0  0
   19.3850  -22.2666   11.7296 O   0  0  0  0  0  0  0  0  0  0  0  0
   18.1322  -21.5593   13.5973 C   0  0  0  0  0  0  0  0  0  0  0  0
   18.5615  -21.2595   15.0025 C   0  0  0  0  0  0  0  0  0  0  0  0
   17.8260  -20.0509   15.5202 C   0  0  2  0  0  0  0  0  0  0  0  0
   16.4257  -20.4813   15.6800 N   0  0  0  0  0  0  0  0  0  0  0  0
   17.7968  -18.9713   14.5107 C   0  0  0  0  0  0  0  0  0  0  0  0
   16.6413  -18.5209   13.9146 O   0  0  0  0  0  0  0  0  0  0  0  0
   18.8886  -18.4062   14.1485 O   0  0  0  0  0  0  0  0  0  0  0  0
  2  1  1  0
  2  3  2  0
  4  3  1  0
  5  4  2  0
  6  5  1  0
  7  6  1  0
  7  8  1  1
  9 10  2  0
  9  7  1  0
 11 12  2  0
 11  5  1  0
 12  2  1  0
 13 14  1  0
 14 15  2  0
 15 16  1  0
 17 16  2  0
 17 18  1  0
 19 18  1  6
 19 20  1  0
 20  9  1  0
 21 19  1  0
 21 31  1  0
 22 21  2  0
 23 17  1  0
 24 14  1  0
 24 23  2  0
 25 26  1  0
 26 27  2  0
 26 28  1  0
 28 29  1  0
 30 29  1  6
 30 31  1  0
 30 32  1  0
 32 34  2  0
 32 33  1  0
M  END
$$$$
