MPN.pdb
     RDKit          3D

 24 24  0  0  1  0  0  0  0  0999 V2000
    5.3149  -10.9952   26.9243 C   0  0  0  0  0  0  0  0  0  0  0  0
    6.7196  -12.0642   26.4294 S   0  0  0  0  0  0  0  0  0  0  0  0
    6.3271  -13.8001   26.8010 C   0  0  0  0  0  0  0  0  0  0  0  0
    6.1510  -14.6099   25.5651 C   0  0  0  0  0  0  0  0  0  0  0  0
    7.4034  -15.4308   25.3195 C   0  0  2  0  0  0  0  0  0  0  0  0
    8.5415  -14.6795   25.7400 N   0  0  0  0  0  0  0  0  0  0  0  0
    7.4035  -15.8488   23.9094 C   0  0  0  0  0  0  0  0  0  0  0  0
    6.8634  -16.9800   23.6753 O   0  0  0  0  0  0  0  0  0  0  0  0
    7.9344  -15.1305   22.8266 N   0  0  0  0  0  0  0  0  0  0  0  0
    8.4841  -13.7682   22.9755 C   0  0  0  0  0  0  0  0  0  0  0  0
    8.7744  -13.2889   21.6012 C   0  0  0  0  0  0  0  0  0  0  0  0
    7.8684  -14.1485   20.7212 C   0  0  0  0  0  0  0  0  0  0  0  0
    8.0419  -15.5015   21.4491 C   0  0  1  0  0  0  0  0  0  0  0  0
    9.3559  -15.9914   21.0198 C   0  0  0  0  0  0  0  0  0  0  0  0
   10.0567  -15.1852   20.3137 O   0  0  0  0  0  0  0  0  0  0  0  0
   13.3569  -15.7017   21.6592 N   0  0  0  0  0  0  0  0  0  0  0  0
   12.8319  -15.9849   22.9734 C   0  0  0  0  0  0  0  0  0  0  0  0
   13.5800  -15.7977   23.9779 O   0  0  0  0  0  0  0  0  0  0  0  0
   11.4388  -16.4810   23.0546 C   0  0  0  0  0  0  0  0  0  0  0  0
   11.2141  -17.4370   21.9032 C   0  0  2  0  0  0  0  0  0  0  0  0
    9.8970  -17.2604   21.3241 N   0  0  0  0  0  0  0  0  0  0  0  0
   11.3623  -18.8085   22.3718 C   0  0  0  0  0  0  0  0  0  0  0  0
   10.6334  -19.3836   23.4011 O   0  0  0  0  0  0  0  0  0  0  0  0
   12.2129  -19.5661   21.8246 O   0  0  0  0  0  0  0  0  0  0  0  0
  2  1  1  0
  2  3  1  0
  4  3  1  0
  5  4  1  0
  5  6  1  6
  7  5  1  0
  8  7  2  0
  9  7  1  0
 10  9  1  0
 11 10  1  0
 12 11  1  0
 12 13  1  0
 13  9  1  0
 13 14  1  1
 15 14  2  0
 16 17  1  0
 17 18  2  0
 19 17  1  0
 20 19  1  1
 20 21  1  0
 21 14  1  0
 22 23  1  0
 22 20  1  0
 24 22  2  0
M  END
$$$$
