MPN.pdb
     RDKit          3D

 24 24  0  0  1  0  0  0  0  0999 V2000
    7.1307  -11.3586   26.1154 C   0  0  0  0  0  0  0  0  0  0  0  0
    6.8771  -12.5640   27.4733 S   0  0  0  0  0  0  0  0  0  0  0  0
    6.2846  -14.1405   26.7882 C   0  0  0  0  0  0  0  0  0  0  0  0
    7.2515  -14.7281   25.8218 C   0  0  0  0  0  0  0  0  0  0  0  0
    6.6417  -15.9660   25.1905 C   0  0  2  0  0  0  0  0  0  0  0  0
    6.3719  -16.9242   26.2130 N   0  0  0  0  0  0  0  0  0  0  0  0
    7.5394  -16.4179   24.1169 C   0  0  0  0  0  0  0  0  0  0  0  0
    8.0230  -17.5882   24.2660 O   0  0  0  0  0  0  0  0  0  0  0  0
    7.9027  -15.6909   22.9723 N   0  0  0  0  0  0  0  0  0  0  0  0
    7.2944  -14.3878   22.6378 C   0  0  0  0  0  0  0  0  0  0  0  0
    7.7989  -14.0323   21.2880 C   0  0  0  0  0  0  0  0  0  0  0  0
    8.2044  -15.3781   20.6892 C   0  0  0  0  0  0  0  0  0  0  0  0
    8.8435  -16.0156   21.9445 C   0  0  1  0  0  0  0  0  0  0  0  0
   10.1597  -15.3788   22.0585 C   0  0  0  0  0  0  0  0  0  0  0  0
   10.1835  -14.2257   22.6147 O   0  0  0  0  0  0  0  0  0  0  0  0
   11.2384  -17.5941   25.8909 N   0  0  0  0  0  0  0  0  0  0  0  0
   12.0082  -16.9557   24.8502 C   0  0  0  0  0  0  0  0  0  0  0  0
   12.7868  -16.0085   25.1670 O   0  0  0  0  0  0  0  0  0  0  0  0
   11.8299  -17.4595   23.4690 C   0  0  0  0  0  0  0  0  0  0  0  0
   12.3978  -16.4291   22.5174 C   0  0  2  0  0  0  0  0  0  0  0  0
   11.3799  -15.9335   21.6121 N   0  0  0  0  0  0  0  0  0  0  0  0
   13.4873  -17.0203   21.7517 C   0  0  0  0  0  0  0  0  0  0  0  0
   13.3590  -18.0824   20.8703 O   0  0  0  0  0  0  0  0  0  0  0  0
   14.6573  -16.5587   21.8734 O   0  0  0  0  0  0  0  0  0  0  0  0
  2  1  1  0
  2  3  1  0
  4  3  1  0
  5  4  1  0
  5  6  1  1
  7  5  1  0
  8  7  2  0
  9  7  1  0
 10  9  1  0
 11 10  1  0
 12 11  1  0
 12 13  1  0
 13  9  1  0
 13 14  1  1
 15 14  2  0
 16 17  1  0
 17 18  2  0
 19 17  1  0
 20 19  1  1
 20 21  1  0
 21 14  1  0
 22 23  1  0
 22 20  1  0
 24 22  2  0
M  END
$$$$
