MPN.pdb
     RDKit          3D

 24 24  0  0  1  0  0  0  0  0999 V2000
    5.2882  -12.2217   26.5114 C   0  0  0  0  0  0  0  0  0  0  0  0
    7.0179  -12.7457   26.8188 S   0  0  0  0  0  0  0  0  0  0  0  0
    7.1663  -14.5405   26.5691 C   0  0  0  0  0  0  0  0  0  0  0  0
    6.4861  -14.9893   25.3242 C   0  0  0  0  0  0  0  0  0  0  0  0
    6.7020  -16.4805   25.1432 C   0  0  2  0  0  0  0  0  0  0  0  0
    7.0484  -17.0561   26.4022 N   0  0  0  0  0  0  0  0  0  0  0  0
    7.6849  -16.6699   24.0657 C   0  0  0  0  0  0  0  0  0  0  0  0
    8.3225  -17.7737   24.0964 O   0  0  0  0  0  0  0  0  0  0  0  0
    7.9764  -15.7639   23.0339 N   0  0  0  0  0  0  0  0  0  0  0  0
    7.3398  -14.4346   22.9464 C   0  0  0  0  0  0  0  0  0  0  0  0
    7.7634  -13.8601   21.6451 C   0  0  0  0  0  0  0  0  0  0  0  0
    8.1445  -15.0863   20.8172 C   0  0  0  0  0  0  0  0  0  0  0  0
    8.8593  -15.9047   21.9170 C   0  0  1  0  0  0  0  0  0  0  0  0
   10.1749  -15.2721   22.0586 C   0  0  0  0  0  0  0  0  0  0  0  0
   10.2240  -14.2300   22.8009 O   0  0  0  0  0  0  0  0  0  0  0  0
   12.4349  -16.8620   25.9309 N   0  0  0  0  0  0  0  0  0  0  0  0
   12.7732  -16.4414   24.5923 C   0  0  0  0  0  0  0  0  0  0  0  0
   13.7612  -15.6653   24.4328 O   0  0  0  0  0  0  0  0  0  0  0  0
   11.9302  -16.9529   23.4874 C   0  0  0  0  0  0  0  0  0  0  0  0
   12.4400  -16.3556   22.1939 C   0  0  2  0  0  0  0  0  0  0  0  0
   11.3693  -15.7201   21.4515 N   0  0  0  0  0  0  0  0  0  0  0  0
   13.0462  -17.4007   21.3795 C   0  0  0  0  0  0  0  0  0  0  0  0
   12.4688  -17.9744   20.2575 O   0  0  0  0  0  0  0  0  0  0  0  0
   14.1870  -17.8485   21.6876 O   0  0  0  0  0  0  0  0  0  0  0  0
  2  1  1  0
  2  3  1  0
  4  3  1  0
  5  4  1  0
  5  6  1  1
  7  5  1  0
  8  7  2  0
  9  7  1  0
 10  9  1  0
 11 10  1  0
 12 11  1  0
 12 13  1  0
 13  9  1  0
 13 14  1  1
 15 14  2  0
 16 17  1  0
 17 18  2  0
 19 17  1  0
 20 19  1  1
 20 21  1  0
 21 14  1  0
 22 23  1  0
 22 20  1  0
 24 22  2  0
M  END
$$$$
