MPN.pdb
     RDKit          3D

 24 24  0  0  1  0  0  0  0  0999 V2000
    9.0341  -12.5829   28.3238 C   0  0  0  0  0  0  0  0  0  0  0  0
    7.7608  -12.7626   27.0170 S   0  0  0  0  0  0  0  0  0  0  0  0
    7.5864  -14.5165   26.5708 C   0  0  0  0  0  0  0  0  0  0  0  0
    6.5997  -14.7188   25.4755 C   0  0  0  0  0  0  0  0  0  0  0  0
    6.4615  -16.2030   25.1914 C   0  0  2  0  0  0  0  0  0  0  0  0
    6.6971  -16.9308   26.3961 N   0  0  0  0  0  0  0  0  0  0  0  0
    7.3472  -16.5345   24.0650 C   0  0  0  0  0  0  0  0  0  0  0  0
    7.7419  -17.7461   24.0192 O   0  0  0  0  0  0  0  0  0  0  0  0
    7.7862  -15.6554   23.0626 N   0  0  0  0  0  0  0  0  0  0  0  0
    7.5357  -14.2015   23.1214 C   0  0  0  0  0  0  0  0  0  0  0  0
    7.9864  -13.6530   21.8180 C   0  0  0  0  0  0  0  0  0  0  0  0
    7.9410  -14.8611   20.8839 C   0  0  0  0  0  0  0  0  0  0  0  0
    8.4954  -15.9323   21.8513 C   0  0  1  0  0  0  0  0  0  0  0  0
    9.9415  -15.6908   21.8879 C   0  0  0  0  0  0  0  0  0  0  0  0
   10.5789  -15.9099   20.7992 O   0  0  0  0  0  0  0  0  0  0  0  0
   13.0965  -17.8440   26.0581 N   0  0  0  0  0  0  0  0  0  0  0  0
   12.6753  -17.8896   24.6783 C   0  0  0  0  0  0  0  0  0  0  0  0
   13.3756  -18.5466   23.8526 O   0  0  0  0  0  0  0  0  0  0  0  0
   11.4395  -17.1553   24.3220 C   0  0  0  0  0  0  0  0  0  0  0  0
   11.8351  -15.9314   23.5247 C   0  0  2  0  0  0  0  0  0  0  0  0
   10.6689  -15.2399   23.0119 N   0  0  0  0  0  0  0  0  0  0  0  0
   12.6949  -16.3277   22.4172 C   0  0  0  0  0  0  0  0  0  0  0  0
   14.0406  -16.0164   22.3004 O   0  0  0  0  0  0  0  0  0  0  0  0
   12.2142  -17.0079   21.4669 O   0  0  0  0  0  0  0  0  0  0  0  0
  2  1  1  0
  2  3  1  0
  4  3  1  0
  5  4  1  0
  5  6  1  1
  7  5  1  0
  8  7  2  0
  9  7  1  0
 10  9  1  0
 11 10  1  0
 12 11  1  0
 12 13  1  0
 13  9  1  0
 13 14  1  1
 15 14  2  0
 16 17  1  0
 17 18  2  0
 19 17  1  0
 20 19  1  6
 20 21  1  0
 21 14  1  0
 22 23  1  0
 22 20  1  0
 24 22  2  0
M  END
$$$$
