MPN.pdb
     RDKit          3D

 24 24  0  0  1  0  0  0  0  0999 V2000
    6.3955  -12.0838   27.0591 C   0  0  0  0  0  0  0  0  0  0  0  0
    7.9973  -12.9739   27.0056 S   0  0  0  0  0  0  0  0  0  0  0  0
    7.7271  -14.6859   26.4561 C   0  0  0  0  0  0  0  0  0  0  0  0
    6.7217  -14.7693   25.3624 C   0  0  0  0  0  0  0  0  0  0  0  0
    6.4938  -16.2249   24.9992 C   0  0  2  0  0  0  0  0  0  0  0  0
    6.9066  -17.0464   26.0906 N   0  0  0  0  0  0  0  0  0  0  0  0
    7.1676  -16.4845   23.7180 C   0  0  0  0  0  0  0  0  0  0  0  0
    7.2029  -17.7071   23.3576 O   0  0  0  0  0  0  0  0  0  0  0  0
    7.7619  -15.5284   22.8794 N   0  0  0  0  0  0  0  0  0  0  0  0
    7.8461  -14.1003   23.2448 C   0  0  0  0  0  0  0  0  0  0  0  0
    8.3683  -13.3987   22.0457 C   0  0  0  0  0  0  0  0  0  0  0  0
    8.0241  -14.3448   20.8966 C   0  0  0  0  0  0  0  0  0  0  0  0
    8.3532  -15.6888   21.5866 C   0  0  1  0  0  0  0  0  0  0  0  0
    9.8170  -15.7745   21.5596 C   0  0  0  0  0  0  0  0  0  0  0  0
   10.3740  -15.5762   20.4238 O   0  0  0  0  0  0  0  0  0  0  0  0
   12.0706  -14.7389   25.3303 N   0  0  0  0  0  0  0  0  0  0  0  0
   12.8553  -15.2284   24.2222 C   0  0  0  0  0  0  0  0  0  0  0  0
   13.6307  -14.4235   23.6267 O   0  0  0  0  0  0  0  0  0  0  0  0
   12.6953  -16.6544   23.8558 C   0  0  0  0  0  0  0  0  0  0  0  0
   11.9229  -16.7204   22.5562 C   0  0  2  0  0  0  0  0  0  0  0  0
   10.6425  -16.0508   22.6722 N   0  0  0  0  0  0  0  0  0  0  0  0
   11.7143  -18.1133   22.1830 C   0  0  0  0  0  0  0  0  0  0  0  0
   12.4845  -18.8197   21.2725 O   0  0  0  0  0  0  0  0  0  0  0  0
   10.7657  -18.7638   22.7063 O   0  0  0  0  0  0  0  0  0  0  0  0
  2  1  1  0
  2  3  1  0
  4  3  1  0
  5  4  1  0
  5  6  1  1
  7  5  1  0
  8  7  2  0
  9  7  1  0
 10  9  1  0
 11 10  1  0
 12 11  1  0
 12 13  1  0
 13  9  1  0
 13 14  1  1
 15 14  2  0
 16 17  1  0
 17 18  2  0
 19 17  1  0
 20 19  1  1
 20 21  1  0
 21 14  1  0
 22 23  1  0
 22 20  1  0
 24 22  2  0
M  END
$$$$
