MPN.pdb
     RDKit          3D

 24 24  0  0  1  0  0  0  0  0999 V2000
    6.0494  -11.6321   26.9618 C   0  0  0  0  0  0  0  0  0  0  0  0
    7.6165  -12.5731   26.8206 S   0  0  0  0  0  0  0  0  0  0  0  0
    7.2646  -14.2649   26.2554 C   0  0  0  0  0  0  0  0  0  0  0  0
    6.3736  -14.2817   25.0638 C   0  0  0  0  0  0  0  0  0  0  0  0
    6.0965  -15.7191   24.6637 C   0  0  2  0  0  0  0  0  0  0  0  0
    5.9175  -16.5033   25.8424 N   0  0  0  0  0  0  0  0  0  0  0  0
    7.1763  -16.1574   23.7666 C   0  0  0  0  0  0  0  0  0  0  0  0
    7.5336  -17.3745   23.8964 O   0  0  0  0  0  0  0  0  0  0  0  0
    7.8327  -15.3722   22.8059 N   0  0  0  0  0  0  0  0  0  0  0  0
    7.7218  -13.9001   22.7787 C   0  0  0  0  0  0  0  0  0  0  0  0
    8.3979  -13.4592   21.5331 C   0  0  0  0  0  0  0  0  0  0  0  0
    8.3606  -14.7012   20.6443 C   0  0  0  0  0  0  0  0  0  0  0  0
    8.6692  -15.7719   21.7162 C   0  0  1  0  0  0  0  0  0  0  0  0
   10.1136  -15.6649   21.9467 C   0  0  0  0  0  0  0  0  0  0  0  0
   10.8657  -15.8904   20.9352 O   0  0  0  0  0  0  0  0  0  0  0  0
   10.0201  -18.3337   25.5213 N   0  0  0  0  0  0  0  0  0  0  0  0
   11.2484  -17.6065   25.3077 C   0  0  0  0  0  0  0  0  0  0  0  0
   11.8618  -17.1444   26.3148 O   0  0  0  0  0  0  0  0  0  0  0  0
   11.7092  -17.4500   23.9090 C   0  0  0  0  0  0  0  0  0  0  0  0
   11.9350  -15.9759   23.6522 C   0  0  2  0  0  0  0  0  0  0  0  0
   10.7250  -15.3347   23.1767 N   0  0  0  0  0  0  0  0  0  0  0  0
   12.9960  -15.8092   22.6676 C   0  0  0  0  0  0  0  0  0  0  0  0
   14.3209  -16.1721   22.8526 O   0  0  0  0  0  0  0  0  0  0  0  0
   12.7294  -15.2953   21.5444 O   0  0  0  0  0  0  0  0  0  0  0  0
  2  1  1  0
  2  3  1  0
  4  3  1  0
  5  4  1  0
  5  6  1  1
  7  5  1  0
  8  7  2  0
  9  7  1  0
 10  9  1  0
 11 10  1  0
 12 11  1  0
 12 13  1  0
 13  9  1  0
 13 14  1  1
 15 14  2  0
 16 17  1  0
 17 18  2  0
 19 17  1  0
 20 19  1  6
 20 21  1  0
 21 14  1  0
 22 23  1  0
 22 20  1  0
 24 22  2  0
M  END
$$$$
