MPN.pdb
     RDKit          3D

 24 24  0  0  1  0  0  0  0  0999 V2000
    7.9910  -12.5526   21.9785 C   0  0  0  0  0  0  0  0  0  0  0  0
    7.6838  -12.5521   20.1711 S   0  0  0  0  0  0  0  0  0  0  0  0
    7.1009  -14.1935   19.6499 C   0  0  0  0  0  0  0  0  0  0  0  0
    7.8953  -15.2902   20.2665 C   0  0  0  0  0  0  0  0  0  0  0  0
    7.3151  -16.6282   19.8473 C   0  0  2  0  0  0  0  0  0  0  0  0
    5.9324  -16.6657   20.1985 N   0  0  0  0  0  0  0  0  0  0  0  0
    8.1486  -17.6887   20.4332 C   0  0  0  0  0  0  0  0  0  0  0  0
    7.6246  -18.3175   21.4108 O   0  0  0  0  0  0  0  0  0  0  0  0
    9.4388  -18.0585   20.0218 N   0  0  0  0  0  0  0  0  0  0  0  0
   10.0894  -17.4679   18.8352 C   0  0  0  0  0  0  0  0  0  0  0  0
   11.3449  -18.2327   18.6307 C   0  0  0  0  0  0  0  0  0  0  0  0
   11.0789  -19.5582   19.3421 C   0  0  0  0  0  0  0  0  0  0  0  0
   10.3379  -19.0173   20.5866 C   0  0  1  0  0  0  0  0  0  0  0  0
   11.3956  -18.4736   21.4448 C   0  0  0  0  0  0  0  0  0  0  0  0
   12.2018  -17.6460   20.8927 O   0  0  0  0  0  0  0  0  0  0  0  0
    9.0779  -16.0482   23.9396 N   0  0  0  0  0  0  0  0  0  0  0  0
   10.5121  -16.1536   23.8167 C   0  0  0  0  0  0  0  0  0  0  0  0
   11.1131  -15.3595   23.0343 O   0  0  0  0  0  0  0  0  0  0  0  0
   11.1869  -17.1960   24.6238 C   0  0  0  0  0  0  0  0  0  0  0  0
   12.2149  -17.8759   23.7458 C   0  0  2  0  0  0  0  0  0  0  0  0
   11.5856  -18.7861   22.8094 N   0  0  0  0  0  0  0  0  0  0  0  0
   13.1603  -18.6078   24.5786 C   0  0  0  0  0  0  0  0  0  0  0  0
   13.3194  -19.9847   24.5846 O   0  0  0  0  0  0  0  0  0  0  0  0
   13.9115  -17.9746   25.3733 O   0  0  0  0  0  0  0  0  0  0  0  0
  2  1  1  0
  2  3  1  0
  4  3  1  0
  5  4  1  0
  5  6  1  1
  7  5  1  0
  8  7  2  0
  9  7  1  0
 10  9  1  0
 11 10  1  0
 12 11  1  0
 12 13  1  0
 13  9  1  0
 13 14  1  1
 15 14  2  0
 16 17  1  0
 17 18  2  0
 19 17  1  0
 20 19  1  1
 20 21  1  0
 21 14  1  0
 22 23  1  0
 22 20  1  0
 24 22  2  0
M  END
$$$$
