MPN.pdb
     RDKit          3D

 24 24  0  0  1  0  0  0  0  0999 V2000
   10.6105  -14.5842   27.9675 C   0  0  0  0  0  0  0  0  0  0  0  0
    9.7340  -13.6440   26.6602 S   0  0  0  0  0  0  0  0  0  0  0  0
    8.2845  -14.5863   26.0974 C   0  0  0  0  0  0  0  0  0  0  0  0
    7.5730  -13.9037   24.9830 C   0  0  0  0  0  0  0  0  0  0  0  0
    6.4651  -14.8039   24.4680 C   0  0  2  0  0  0  0  0  0  0  0  0
    6.2140  -15.8283   25.4293 N   0  0  0  0  0  0  0  0  0  0  0  0
    6.8456  -15.2708   23.1263 C   0  0  0  0  0  0  0  0  0  0  0  0
    6.5849  -16.4944   22.8799 O   0  0  0  0  0  0  0  0  0  0  0  0
    7.4569  -14.5070   22.1197 N   0  0  0  0  0  0  0  0  0  0  0  0
    7.7836  -13.0785   22.3002 C   0  0  0  0  0  0  0  0  0  0  0  0
    8.2434  -12.5908   20.9760 C   0  0  0  0  0  0  0  0  0  0  0  0
    7.6300  -13.5863   19.9928 C   0  0  0  0  0  0  0  0  0  0  0  0
    7.8534  -14.8868   20.7986 C   0  0  1  0  0  0  0  0  0  0  0  0
    9.2761  -15.1963   20.6225 C   0  0  0  0  0  0  0  0  0  0  0  0
    9.5910  -15.8156   19.5469 O   0  0  0  0  0  0  0  0  0  0  0  0
   12.4032  -13.1054   19.2572 N   0  0  0  0  0  0  0  0  0  0  0  0
   12.7011  -14.4324   19.7405 C   0  0  0  0  0  0  0  0  0  0  0  0
   12.9296  -15.3477   18.8956 O   0  0  0  0  0  0  0  0  0  0  0  0
   12.7179  -14.6316   21.2079 C   0  0  0  0  0  0  0  0  0  0  0  0
   11.5777  -15.5591   21.5680 C   0  0  2  0  0  0  0  0  0  0  0  0
   10.3055  -14.8653   21.5318 N   0  0  0  0  0  0  0  0  0  0  0  0
   11.7975  -16.1083   22.8995 C   0  0  0  0  0  0  0  0  0  0  0  0
   11.5005  -15.4612   24.0888 O   0  0  0  0  0  0  0  0  0  0  0  0
   12.2982  -17.2618   23.0236 O   0  0  0  0  0  0  0  0  0  0  0  0
  2  1  1  0
  2  3  1  0
  4  3  1  0
  5  4  1  0
  5  6  1  1
  7  5  1  0
  8  7  2  0
  9  7  1  0
 10  9  1  0
 11 10  1  0
 12 11  1  0
 12 13  1  0
 13  9  1  0
 13 14  1  1
 15 14  2  0
 16 17  1  0
 17 18  2  0
 19 17  1  0
 20 19  1  1
 20 21  1  0
 21 14  1  0
 22 23  1  0
 22 20  1  0
 24 22  2  0
M  END
$$$$
