MPN.pdb
     RDKit          3D

 24 24  0  0  1  0  0  0  0  0999 V2000
    5.0594  -17.5986   22.9466 C   0  0  0  0  0  0  0  0  0  0  0  0
    5.0822  -16.8968   21.2531 S   0  0  0  0  0  0  0  0  0  0  0  0
    6.5094  -15.7852   21.0715 C   0  0  0  0  0  0  0  0  0  0  0  0
    6.1514  -14.3672   21.3458 C   0  0  0  0  0  0  0  0  0  0  0  0
    7.4174  -13.5331   21.4123 C   0  0  2  0  0  0  0  0  0  0  0  0
    8.1347  -13.6785   20.1873 N   0  0  0  0  0  0  0  0  0  0  0  0
    8.1511  -13.9168   22.6278 C   0  0  0  0  0  0  0  0  0  0  0  0
    9.3126  -14.4055   22.4329 O   0  0  0  0  0  0  0  0  0  0  0  0
    7.6953  -13.7969   23.9500 N   0  0  0  0  0  0  0  0  0  0  0  0
    6.4061  -13.1607   24.2867 C   0  0  0  0  0  0  0  0  0  0  0  0
    6.3676  -13.0667   25.7674 C   0  0  0  0  0  0  0  0  0  0  0  0
    7.8401  -13.1255   26.1703 C   0  0  0  0  0  0  0  0  0  0  0  0
    8.3185  -14.2045   25.1716 C   0  0  1  0  0  0  0  0  0  0  0  0
    7.8472  -15.4729   25.7372 C   0  0  0  0  0  0  0  0  0  0  0  0
    6.6747  -15.8480   25.3849 O   0  0  0  0  0  0  0  0  0  0  0  0
   11.2960  -17.7368   22.9321 N   0  0  0  0  0  0  0  0  0  0  0  0
   10.2030  -17.6553   23.8713 C   0  0  0  0  0  0  0  0  0  0  0  0
    9.1512  -18.3202   23.6359 O   0  0  0  0  0  0  0  0  0  0  0  0
   10.3916  -16.7887   25.0574 C   0  0  0  0  0  0  0  0  0  0  0  0
    9.5059  -17.3134   26.1665 C   0  0  2  0  0  0  0  0  0  0  0  0
    8.5776  -16.2974   26.6219 N   0  0  0  0  0  0  0  0  0  0  0  0
   10.3319  -17.7564   27.2821 C   0  0  0  0  0  0  0  0  0  0  0  0
   11.2509  -16.9683   27.9572 O   0  0  0  0  0  0  0  0  0  0  0  0
   10.2345  -18.9462   27.6963 O   0  0  0  0  0  0  0  0  0  0  0  0
  2  1  1  0
  2  3  1  0
  4  3  1  0
  5  4  1  0
  5  6  1  6
  7  5  1  0
  8  7  2  0
  9  7  1  0
 10  9  1  0
 11 10  1  0
 12 11  1  0
 12 13  1  0
 13  9  1  0
 13 14  1  1
 15 14  2  0
 16 17  1  0
 17 18  2  0
 19 17  1  0
 20 19  1  6
 20 21  1  0
 21 14  1  0
 22 23  1  0
 22 20  1  0
 24 22  2  0
M  END
$$$$
