MPN.pdb
     RDKit          3D

 24 24  0  0  1  0  0  0  0  0999 V2000
    6.1869  -11.7190   26.9399 C   0  0  0  0  0  0  0  0  0  0  0  0
    7.6827  -12.7741   26.8386 S   0  0  0  0  0  0  0  0  0  0  0  0
    7.2287  -14.4195   26.2125 C   0  0  0  0  0  0  0  0  0  0  0  0
    6.3010  -14.3391   25.0519 C   0  0  0  0  0  0  0  0  0  0  0  0
    5.9672  -15.7412   24.5771 C   0  0  2  0  0  0  0  0  0  0  0  0
    5.8981  -16.6102   25.7069 N   0  0  0  0  0  0  0  0  0  0  0  0
    6.9457  -16.1167   23.5454 C   0  0  0  0  0  0  0  0  0  0  0  0
    7.1505  -17.3686   23.4170 O   0  0  0  0  0  0  0  0  0  0  0  0
    7.6573  -15.2393   22.7122 N   0  0  0  0  0  0  0  0  0  0  0  0
    7.5671  -13.7719   22.8491 C   0  0  0  0  0  0  0  0  0  0  0  0
    8.3075  -13.2044   21.6947 C   0  0  0  0  0  0  0  0  0  0  0  0
    8.2963  -14.3360   20.6684 C   0  0  0  0  0  0  0  0  0  0  0  0
    8.5395  -15.5274   21.6233 C   0  0  1  0  0  0  0  0  0  0  0  0
    9.9725  -15.4741   21.9305 C   0  0  0  0  0  0  0  0  0  0  0  0
   10.3470  -14.5382   22.7200 O   0  0  0  0  0  0  0  0  0  0  0  0
   10.7734  -19.9549   22.1347 N   0  0  0  0  0  0  0  0  0  0  0  0
   11.5775  -18.9683   22.8152 C   0  0  0  0  0  0  0  0  0  0  0  0
   11.4479  -18.8410   24.0686 O   0  0  0  0  0  0  0  0  0  0  0  0
   12.5079  -18.1649   21.9892 C   0  0  0  0  0  0  0  0  0  0  0  0
   12.1523  -16.7050   22.1686 C   0  0  2  0  0  0  0  0  0  0  0  0
   10.9511  -16.3632   21.4327 N   0  0  0  0  0  0  0  0  0  0  0  0
   13.2585  -15.8738   21.7121 C   0  0  0  0  0  0  0  0  0  0  0  0
   14.4573  -15.6998   22.3859 O   0  0  0  0  0  0  0  0  0  0  0  0
   13.1563  -15.2434   20.6216 O   0  0  0  0  0  0  0  0  0  0  0  0
  2  1  1  0
  2  3  1  0
  4  3  1  0
  5  4  1  0
  5  6  1  1
  7  5  1  0
  8  7  2  0
  9  7  1  0
 10  9  1  0
 11 10  1  0
 12 11  1  0
 12 13  1  0
 13  9  1  0
 13 14  1  1
 15 14  2  0
 16 17  1  0
 17 18  2  0
 19 17  1  0
 20 19  1  6
 20 21  1  0
 21 14  1  0
 22 23  1  0
 22 20  1  0
 24 22  2  0
M  END
$$$$
