MPN.pdb
     RDKit          3D

 24 24  0  0  1  0  0  0  0  0999 V2000
    6.4885  -11.7225   26.5108 C   0  0  0  0  0  0  0  0  0  0  0  0
    7.9694  -12.7632   26.8022 S   0  0  0  0  0  0  0  0  0  0  0  0
    7.7656  -14.3642   25.9650 C   0  0  0  0  0  0  0  0  0  0  0  0
    6.9375  -14.2494   24.7340 C   0  0  0  0  0  0  0  0  0  0  0  0
    6.4577  -15.6284   24.3207 C   0  0  2  0  0  0  0  0  0  0  0  0
    6.7621  -16.5573   25.3604 N   0  0  0  0  0  0  0  0  0  0  0  0
    7.0370  -15.9356   23.0044 C   0  0  0  0  0  0  0  0  0  0  0  0
    7.0286  -17.1683   22.6784 O   0  0  0  0  0  0  0  0  0  0  0  0
    7.5863  -15.0139   22.0993 N   0  0  0  0  0  0  0  0  0  0  0  0
    7.7302  -13.5801   22.4212 C   0  0  0  0  0  0  0  0  0  0  0  0
    8.1742  -12.9194   21.1686 C   0  0  0  0  0  0  0  0  0  0  0  0
    7.7219  -13.8835   20.0732 C   0  0  0  0  0  0  0  0  0  0  0  0
    8.0730  -15.2185   20.7696 C   0  0  1  0  0  0  0  0  0  0  0  0
    9.5281  -15.3402   20.6332 C   0  0  0  0  0  0  0  0  0  0  0  0
    9.9628  -15.6510   19.4696 O   0  0  0  0  0  0  0  0  0  0  0  0
   11.8223  -12.6574   19.6089 N   0  0  0  0  0  0  0  0  0  0  0  0
   12.5860  -13.8482   19.8951 C   0  0  0  0  0  0  0  0  0  0  0  0
   13.0995  -14.4854   18.9287 O   0  0  0  0  0  0  0  0  0  0  0  0
   12.7158  -14.2451   21.3160 C   0  0  0  0  0  0  0  0  0  0  0  0
   11.8707  -15.4809   21.5363 C   0  0  2  0  0  0  0  0  0  0  0  0
   10.4679  -15.1405   21.6690 N   0  0  0  0  0  0  0  0  0  0  0  0
   12.3216  -16.1726   22.7368 C   0  0  0  0  0  0  0  0  0  0  0  0
   11.5336  -16.4465   23.8438 O   0  0  0  0  0  0  0  0  0  0  0  0
   13.5189  -16.5688   22.8157 O   0  0  0  0  0  0  0  0  0  0  0  0
  2  1  1  0
  2  3  1  0
  4  3  1  0
  5  4  1  0
  5  6  1  1
  7  5  1  0
  8  7  2  0
  9  7  1  0
 10  9  1  0
 11 10  1  0
 12 11  1  0
 12 13  1  0
 13  9  1  0
 13 14  1  1
 15 14  2  0
 16 17  1  0
 17 18  2  0
 19 17  1  0
 20 19  1  1
 20 21  1  0
 21 14  1  0
 22 23  1  0
 22 20  1  0
 24 22  2  0
M  END
$$$$
