VWY.pdb
     RDKit          3D

 34 36  0  0  1  0  0  0  0  0999 V2000
    8.5590  -17.6742   18.1289 C   0  0  0  0  0  0  0  0  0  0  0  0
    9.9089  -18.3910   18.4129 C   0  0  2  0  0  0  0  0  0  0  0  0
    9.6888  -19.7833   17.8582 C   0  0  0  0  0  0  0  0  0  0  0  0
   10.1463  -18.3605   19.8934 C   0  0  2  0  0  0  0  0  0  0  0  0
    9.1825  -19.3339   20.4508 N   0  0  0  0  0  0  0  0  0  0  0  0
    9.9433  -17.0982   20.5781 C   0  0  0  0  0  0  0  0  0  0  0  0
   10.8641  -16.1980   20.4983 O   0  0  0  0  0  0  0  0  0  0  0  0
    8.8063  -16.7425   21.3422 N   0  0  0  0  0  0  0  0  0  0  0  0
    8.6389  -15.3826   21.8801 C   0  0  1  0  0  0  0  0  0  0  0  0
    7.2102  -15.1378   22.2090 C   0  0  0  0  0  0  0  0  0  0  0  0
    6.9465  -14.9300   23.6334 C   0  0  0  0  0  0  0  0  0  0  0  0
    6.7000  -15.9482   24.5468 C   0  0  0  0  0  0  0  0  0  0  0  0
    6.5016  -15.4060   25.7489 N   0  0  0  0  0  0  0  0  0  0  0  0
    6.6014  -14.0704   25.6965 C   0  0  0  0  0  0  0  0  0  0  0  0
    6.4803  -13.0865   26.6551 C   0  0  0  0  0  0  0  0  0  0  0  0
    6.6398  -11.7669   26.2889 C   0  0  0  0  0  0  0  0  0  0  0  0
    6.9199  -11.4691   24.9554 C   0  0  0  0  0  0  0  0  0  0  0  0
    7.0424  -12.4495   23.9927 C   0  0  0  0  0  0  0  0  0  0  0  0
    6.8827  -13.7722   24.3582 C   0  0  0  0  0  0  0  0  0  0  0  0
    9.4793  -15.1851   23.1145 C   0  0  0  0  0  0  0  0  0  0  0  0
    9.4798  -14.0934   23.7278 O   0  0  0  0  0  0  0  0  0  0  0  0
   11.3397  -15.5794   31.2675 O   0  0  0  0  0  0  0  0  0  0  0  0
   10.9623  -15.6543   29.9505 C   0  0  0  0  0  0  0  0  0  0  0  0
   10.8300  -14.5056   29.1975 C   0  0  0  0  0  0  0  0  0  0  0  0
   10.4526  -14.5942   27.8842 C   0  0  0  0  0  0  0  0  0  0  0  0
   10.2121  -15.8336   27.3417 C   0  0  0  0  0  0  0  0  0  0  0  0
    9.7984  -15.9685   25.9443 C   0  0  0  0  0  0  0  0  0  0  0  0
   10.9376  -16.1279   24.9624 C   0  0  2  0  0  0  0  0  0  0  0  0
   10.3034  -16.2115   23.6374 N   0  0  0  0  0  0  0  0  0  0  0  0
   11.7499  -17.3343   25.2279 C   0  0  0  0  0  0  0  0  0  0  0  0
   11.5573  -18.4503   24.7120 O   0  0  0  0  0  0  0  0  0  0  0  0
   10.3432  -16.9924   28.0922 C   0  0  0  0  0  0  0  0  0  0  0  0
   10.7236  -16.8947   29.4131 C   0  0  0  0  0  0  0  0  0  0  0  0
   12.8092  -17.2256   26.1169 O   0  0  0  0  0  0  0  0  0  0  0  0
  2  1  1  1
  2  3  1  0
  4  2  1  0
  4  5  1  1
  6  4  1  0
  6  8  1  0
  7  6  2  0
  9  8  1  0
  9 20  1  0
  9 10  1  1
 11 19  1  0
 11 10  1  0
 12 11  2  0
 13 12  1  0
 13 14  1  0
 14 15  1  0
 14 19  2  0
 15 16  2  0
 16 17  1  0
 18 17  2  0
 19 18  1  0
 20 29  1  0
 21 20  2  0
 22 23  1  0
 23 24  2  0
 23 33  1  0
 24 25  1  0
 25 26  2  0
 26 27  1  0
 28 27  1  1
 28 30  1  0
 29 28  1  0
 30 31  2  0
 30 34  1  0
 32 26  1  0
 33 32  2  0
M  END
$$$$
