VWY.pdb
     RDKit          3D

 34 36  0  0  1  0  0  0  0  0999 V2000
    7.0505  -12.8457   21.0876 C   0  0  0  0  0  0  0  0  0  0  0  0
    7.9118  -13.2958   19.8743 C   0  0  2  0  0  0  0  0  0  0  0  0
    6.9539  -13.1865   18.7059 C   0  0  0  0  0  0  0  0  0  0  0  0
    8.3872  -14.6936   20.1377 C   0  0  2  0  0  0  0  0  0  0  0  0
    7.1539  -15.5076   20.1952 N   0  0  0  0  0  0  0  0  0  0  0  0
    9.1280  -14.9291   21.3621 C   0  0  0  0  0  0  0  0  0  0  0  0
   10.3098  -14.4240   21.4751 O   0  0  0  0  0  0  0  0  0  0  0  0
    8.6731  -15.6734   22.4766 N   0  0  0  0  0  0  0  0  0  0  0  0
    9.4627  -15.7579   23.7160 C   0  0  1  0  0  0  0  0  0  0  0  0
    8.5876  -16.1522   24.8510 C   0  0  0  0  0  0  0  0  0  0  0  0
    7.6333  -15.1220   25.2626 C   0  0  0  0  0  0  0  0  0  0  0  0
    6.2601  -15.3129   25.3611 C   0  0  0  0  0  0  0  0  0  0  0  0
    5.6970  -14.1719   25.7608 N   0  0  0  0  0  0  0  0  0  0  0  0
    6.6201  -13.2166   25.9386 C   0  0  0  0  0  0  0  0  0  0  0  0
    6.5357  -11.8990   26.3367 C   0  0  0  0  0  0  0  0  0  0  0  0
    7.6885  -11.1483   26.4278 C   0  0  0  0  0  0  0  0  0  0  0  0
    8.9076  -11.7488   26.1133 C   0  0  0  0  0  0  0  0  0  0  0  0
    8.9975  -13.0663   25.7149 C   0  0  0  0  0  0  0  0  0  0  0  0
    7.8431  -13.8197   25.6231 C   0  0  0  0  0  0  0  0  0  0  0  0
   10.5814  -16.7567   23.5741 C   0  0  0  0  0  0  0  0  0  0  0  0
   10.4139  -17.8301   22.9515 O   0  0  0  0  0  0  0  0  0  0  0  0
   13.5948  -13.7879   18.7889 O   0  0  0  0  0  0  0  0  0  0  0  0
   13.7458  -14.4910   19.9574 C   0  0  0  0  0  0  0  0  0  0  0  0
   14.2042  -15.7922   19.9332 C   0  0  0  0  0  0  0  0  0  0  0  0
   14.3503  -16.4828   21.1066 C   0  0  0  0  0  0  0  0  0  0  0  0
   14.0345  -15.8605   22.2903 C   0  0  0  0  0  0  0  0  0  0  0  0
   14.1689  -16.5685   23.5641 C   0  0  0  0  0  0  0  0  0  0  0  0
   12.9950  -17.4531   23.9202 C   0  0  2  0  0  0  0  0  0  0  0  0
   11.8642  -16.5361   24.1326 N   0  0  0  0  0  0  0  0  0  0  0  0
   13.2431  -18.2632   25.1318 C   0  0  0  0  0  0  0  0  0  0  0  0
   14.1553  -19.1008   25.2541 O   0  0  0  0  0  0  0  0  0  0  0  0
   13.5733  -14.5530   22.3225 C   0  0  0  0  0  0  0  0  0  0  0  0
   13.4293  -13.8648   21.1373 C   0  0  0  0  0  0  0  0  0  0  0  0
   12.4023  -18.0840   26.2205 O   0  0  0  0  0  0  0  0  0  0  0  0
  2  1  1  1
  2  3  1  0
  4  2  1  0
  4  5  1  1
  6  4  1  0
  6  8  1  0
  7  6  2  0
  9  8  1  0
  9 20  1  0
  9 10  1  1
 11 19  1  0
 11 10  1  0
 12 11  2  0
 13 12  1  0
 13 14  1  0
 14 15  1  0
 14 19  2  0
 15 16  2  0
 16 17  1  0
 18 17  2  0
 19 18  1  0
 20 29  1  0
 21 20  2  0
 22 23  1  0
 23 24  2  0
 23 33  1  0
 24 25  1  0
 25 26  2  0
 26 27  1  0
 28 27  1  1
 28 30  1  0
 29 28  1  0
 30 31  2  0
 30 34  1  0
 32 26  1  0
 33 32  2  0
M  END
$$$$
