VWY.pdb
     RDKit          3D

 34 36  0  0  1  0  0  0  0  0999 V2000
    9.4739  -21.3313   20.3000 C   0  0  0  0  0  0  0  0  0  0  0  0
    9.9571  -19.9512   20.8278 C   0  0  2  0  0  0  0  0  0  0  0  0
    9.8252  -20.0862   22.3308 C   0  0  0  0  0  0  0  0  0  0  0  0
    9.0730  -18.8943   20.2357 C   0  0  2  0  0  0  0  0  0  0  0  0
    9.3305  -18.9577   18.7808 N   0  0  0  0  0  0  0  0  0  0  0  0
    9.2891  -17.5249   20.6621 C   0  0  0  0  0  0  0  0  0  0  0  0
   10.2859  -16.8739   20.1649 O   0  0  0  0  0  0  0  0  0  0  0  0
    8.4946  -16.8099   21.5897 N   0  0  0  0  0  0  0  0  0  0  0  0
    8.8561  -15.4496   22.0205 C   0  0  1  0  0  0  0  0  0  0  0  0
    7.6303  -14.6813   22.3619 C   0  0  0  0  0  0  0  0  0  0  0  0
    7.2446  -14.7565   23.7715 C   0  0  0  0  0  0  0  0  0  0  0  0
    6.6951  -15.8787   24.3802 C   0  0  0  0  0  0  0  0  0  0  0  0
    6.4654  -15.5999   25.6640 N   0  0  0  0  0  0  0  0  0  0  0  0
    6.8320  -14.3443   25.9565 C   0  0  0  0  0  0  0  0  0  0  0  0
    6.7937  -13.6076   27.1216 C   0  0  0  0  0  0  0  0  0  0  0  0
    7.2527  -12.3076   27.1112 C   0  0  0  0  0  0  0  0  0  0  0  0
    7.7431  -11.7780   25.9177 C   0  0  0  0  0  0  0  0  0  0  0  0
    7.7840  -12.5107   24.7497 C   0  0  0  0  0  0  0  0  0  0  0  0
    7.3242  -13.8135   24.7586 C   0  0  0  0  0  0  0  0  0  0  0  0
    9.7726  -15.4895   23.2153 C   0  0  0  0  0  0  0  0  0  0  0  0
   10.2853  -14.4421   23.6714 O   0  0  0  0  0  0  0  0  0  0  0  0
    9.7022  -13.5230   30.0518 O   0  0  0  0  0  0  0  0  0  0  0  0
    9.8907  -14.4729   29.0798 C   0  0  0  0  0  0  0  0  0  0  0  0
    8.8607  -15.3194   28.7241 C   0  0  0  0  0  0  0  0  0  0  0  0
    9.0621  -16.2631   27.7526 C   0  0  0  0  0  0  0  0  0  0  0  0
   10.2940  -16.3470   27.1496 C   0  0  0  0  0  0  0  0  0  0  0  0
   10.5505  -17.3483   26.1135 C   0  0  0  0  0  0  0  0  0  0  0  0
   11.1905  -16.8041   24.8559 C   0  0  2  0  0  0  0  0  0  0  0  0
   10.0990  -16.6996   23.8749 N   0  0  0  0  0  0  0  0  0  0  0  0
   12.2680  -17.6779   24.3448 C   0  0  0  0  0  0  0  0  0  0  0  0
   13.3817  -17.8232   24.8808 O   0  0  0  0  0  0  0  0  0  0  0  0
   11.3338  -15.4997   27.5017 C   0  0  0  0  0  0  0  0  0  0  0  0
   11.1230  -14.5524   28.4802 C   0  0  0  0  0  0  0  0  0  0  0  0
   12.0306  -18.3948   23.1812 O   0  0  0  0  0  0  0  0  0  0  0  0
  2  1  1  6
  2  3  1  0
  4  2  1  0
  4  5  1  6
  6  4  1  0
  6  8  1  0
  7  6  2  0
  9  8  1  0
  9 20  1  0
  9 10  1  1
 11 19  1  0
 11 10  1  0
 12 11  2  0
 13 12  1  0
 13 14  1  0
 14 15  1  0
 14 19  2  0
 15 16  2  0
 16 17  1  0
 18 17  2  0
 19 18  1  0
 20 29  1  0
 21 20  2  0
 22 23  1  0
 23 24  2  0
 23 33  1  0
 24 25  1  0
 25 26  2  0
 26 27  1  0
 28 27  1  1
 28 30  1  0
 29 28  1  0
 30 31  2  0
 30 34  1  0
 32 26  1  0
 33 32  2  0
M  END
$$$$
