VWY.pdb
     RDKit          3D

 34 36  0  0  1  0  0  0  0  0999 V2000
    7.3658  -13.1786   18.6073 C   0  0  0  0  0  0  0  0  0  0  0  0
    8.0653  -13.0898   19.9928 C   0  0  2  0  0  0  0  0  0  0  0  0
    9.4729  -12.6502   19.6462 C   0  0  0  0  0  0  0  0  0  0  0  0
    7.9954  -14.4438   20.6339 C   0  0  2  0  0  0  0  0  0  0  0  0
    6.5497  -14.7334   20.7488 N   0  0  0  0  0  0  0  0  0  0  0  0
    8.5804  -14.5910   21.9529 C   0  0  0  0  0  0  0  0  0  0  0  0
    8.8842  -13.5264   22.6154 O   0  0  0  0  0  0  0  0  0  0  0  0
    8.8558  -15.8160   22.6061 N   0  0  0  0  0  0  0  0  0  0  0  0
    9.7722  -15.8824   23.7561 C   0  0  1  0  0  0  0  0  0  0  0  0
    9.0439  -16.3612   24.9601 C   0  0  0  0  0  0  0  0  0  0  0  0
    7.8775  -15.5541   25.3198 C   0  0  0  0  0  0  0  0  0  0  0  0
    6.5624  -15.8918   25.0224 C   0  0  0  0  0  0  0  0  0  0  0  0
    5.7585  -14.9378   25.4937 N   0  0  0  0  0  0  0  0  0  0  0  0
    6.4629  -13.9697   26.0963 C   0  0  0  0  0  0  0  0  0  0  0  0
    6.0934  -12.7994   26.7251 C   0  0  0  0  0  0  0  0  0  0  0  0
    7.0693  -11.9867   27.2618 C   0  0  0  0  0  0  0  0  0  0  0  0
    8.4039  -12.3767   27.1510 C   0  0  0  0  0  0  0  0  0  0  0  0
    8.7787  -13.5465   26.5233 C   0  0  0  0  0  0  0  0  0  0  0  0
    7.8019  -14.3617   25.9849 C   0  0  0  0  0  0  0  0  0  0  0  0
   10.9289  -16.8039   23.4695 C   0  0  0  0  0  0  0  0  0  0  0  0
   11.0038  -17.4294   22.3874 O   0  0  0  0  0  0  0  0  0  0  0  0
   13.5247  -16.1107   17.7182 O   0  0  0  0  0  0  0  0  0  0  0  0
   13.5283  -16.0167   19.0870 C   0  0  0  0  0  0  0  0  0  0  0  0
   13.3108  -17.1370   19.8627 C   0  0  0  0  0  0  0  0  0  0  0  0
   13.3168  -17.0295   21.2278 C   0  0  0  0  0  0  0  0  0  0  0  0
   13.5405  -15.7998   21.7988 C   0  0  0  0  0  0  0  0  0  0  0  0
   13.5457  -15.6431   23.2539 C   0  0  0  0  0  0  0  0  0  0  0  0
   13.3992  -16.9346   24.0273 C   0  0  2  0  0  0  0  0  0  0  0  0
   11.9776  -17.0089   24.3993 N   0  0  0  0  0  0  0  0  0  0  0  0
   14.2553  -16.9737   25.2320 C   0  0  0  0  0  0  0  0  0  0  0  0
   13.9053  -16.6021   26.3669 O   0  0  0  0  0  0  0  0  0  0  0  0
   13.7600  -14.6696   21.0258 C   0  0  0  0  0  0  0  0  0  0  0  0
   13.7526  -14.7862   19.6526 C   0  0  0  0  0  0  0  0  0  0  0  0
   15.5477  -17.4598   25.0990 O   0  0  0  0  0  0  0  0  0  0  0  0
  2  1  1  6
  2  3  1  0
  4  2  1  0
  4  5  1  1
  6  4  1  0
  6  8  1  0
  7  6  2  0
  9  8  1  0
  9 20  1  0
  9 10  1  1
 11 19  1  0
 11 10  1  0
 12 11  2  0
 13 12  1  0
 13 14  1  0
 14 15  1  0
 14 19  2  0
 15 16  2  0
 16 17  1  0
 18 17  2  0
 19 18  1  0
 20 29  1  0
 21 20  2  0
 22 23  1  0
 23 24  2  0
 23 33  1  0
 24 25  1  0
 25 26  2  0
 26 27  1  0
 28 27  1  1
 28 30  1  0
 29 28  1  0
 30 31  2  0
 30 34  1  0
 32 26  1  0
 33 32  2  0
M  END
$$$$
