VWY.pdb
     RDKit          3D

 34 36  0  0  1  0  0  0  0  0999 V2000
    7.8834  -18.0644   18.3881 C   0  0  0  0  0  0  0  0  0  0  0  0
    9.3410  -18.5725   18.5728 C   0  0  2  0  0  0  0  0  0  0  0  0
    9.2450  -20.0437   18.2251 C   0  0  0  0  0  0  0  0  0  0  0  0
    9.7450  -18.3121   19.9934 C   0  0  2  0  0  0  0  0  0  0  0  0
    8.8295  -19.1427   20.8050 N   0  0  0  0  0  0  0  0  0  0  0  0
    9.6485  -16.9483   20.4776 C   0  0  0  0  0  0  0  0  0  0  0  0
   10.5003  -16.0795   20.0485 O   0  0  0  0  0  0  0  0  0  0  0  0
    8.6873  -16.4597   21.3943 N   0  0  0  0  0  0  0  0  0  0  0  0
    8.7399  -15.0769   21.8961 C   0  0  1  0  0  0  0  0  0  0  0  0
    7.3754  -14.6173   22.2654 C   0  0  0  0  0  0  0  0  0  0  0  0
    7.0738  -14.7110   23.6943 C   0  0  0  0  0  0  0  0  0  0  0  0
    6.6964  -15.8792   24.3459 C   0  0  0  0  0  0  0  0  0  0  0  0
    6.4999  -15.6052   25.6362 N   0  0  0  0  0  0  0  0  0  0  0  0
    6.7253  -14.3090   25.8923 C   0  0  0  0  0  0  0  0  0  0  0  0
    6.6567  -13.5597   27.0479 C   0  0  0  0  0  0  0  0  0  0  0  0
    6.9530  -12.2142   26.9961 C   0  0  0  0  0  0  0  0  0  0  0  0
    7.3142  -11.6527   25.7715 C   0  0  0  0  0  0  0  0  0  0  0  0
    7.3846  -12.3978   24.6128 C   0  0  0  0  0  0  0  0  0  0  0  0
    7.0879  -13.7461   24.6631 C   0  0  0  0  0  0  0  0  0  0  0  0
    9.6459  -14.9740   23.0951 C   0  0  0  0  0  0  0  0  0  0  0  0
    9.7591  -13.9000   23.7290 O   0  0  0  0  0  0  0  0  0  0  0  0
   11.4920  -15.2555   31.1545 O   0  0  0  0  0  0  0  0  0  0  0  0
   11.0906  -15.3893   29.8493 C   0  0  0  0  0  0  0  0  0  0  0  0
   10.5442  -16.5766   29.4069 C   0  0  0  0  0  0  0  0  0  0  0  0
   10.1478  -16.6970   28.1017 C   0  0  0  0  0  0  0  0  0  0  0  0
   10.3042  -15.6255   27.2558 C   0  0  0  0  0  0  0  0  0  0  0  0
    9.9007  -15.7185   25.8520 C   0  0  0  0  0  0  0  0  0  0  0  0
   11.0089  -16.1163   24.9028 C   0  0  2  0  0  0  0  0  0  0  0  0
   10.4086  -16.0731   23.5602 N   0  0  0  0  0  0  0  0  0  0  0  0
   11.5449  -17.4638   25.1905 C   0  0  0  0  0  0  0  0  0  0  0  0
   11.0164  -18.5319   24.8321 O   0  0  0  0  0  0  0  0  0  0  0  0
   10.8523  -14.4291   27.6933 C   0  0  0  0  0  0  0  0  0  0  0  0
   11.2486  -14.3159   29.0083 C   0  0  0  0  0  0  0  0  0  0  0  0
   12.7253  -17.5563   25.9131 O   0  0  0  0  0  0  0  0  0  0  0  0
  2  1  1  1
  2  3  1  0
  4  2  1  0
  4  5  1  1
  6  4  1  0
  6  8  1  0
  7  6  2  0
  9  8  1  0
  9 20  1  0
  9 10  1  1
 11 19  1  0
 11 10  1  0
 12 11  2  0
 13 12  1  0
 13 14  1  0
 14 15  1  0
 14 19  2  0
 15 16  2  0
 16 17  1  0
 18 17  2  0
 19 18  1  0
 20 29  1  0
 21 20  2  0
 22 23  1  0
 23 24  2  0
 23 33  1  0
 24 25  1  0
 25 26  2  0
 26 27  1  0
 28 27  1  1
 28 30  1  0
 29 28  1  0
 30 31  2  0
 30 34  1  0
 32 26  1  0
 33 32  2  0
M  END
$$$$
