VWY.pdb
     RDKit          3D

 34 36  0  0  1  0  0  0  0  0999 V2000
    7.1544  -14.0137   18.0271 C   0  0  0  0  0  0  0  0  0  0  0  0
    8.0309  -13.9013   19.3061 C   0  0  2  0  0  0  0  0  0  0  0  0
    9.3477  -14.5189   18.8828 C   0  0  0  0  0  0  0  0  0  0  0  0
    7.3394  -14.6480   20.4077 C   0  0  2  0  0  0  0  0  0  0  0  0
    6.0505  -13.9459   20.5891 N   0  0  0  0  0  0  0  0  0  0  0  0
    7.9987  -14.6988   21.6986 C   0  0  0  0  0  0  0  0  0  0  0  0
    8.1724  -13.5967   22.3465 O   0  0  0  0  0  0  0  0  0  0  0  0
    8.4806  -15.8656   22.3384 N   0  0  0  0  0  0  0  0  0  0  0  0
    9.3100  -15.7875   23.5520 C   0  0  1  0  0  0  0  0  0  0  0  0
    8.5461  -16.2905   24.7236 C   0  0  0  0  0  0  0  0  0  0  0  0
    7.5320  -15.3625   25.2256 C   0  0  0  0  0  0  0  0  0  0  0  0
    6.1682  -15.6283   25.2618 C   0  0  0  0  0  0  0  0  0  0  0  0
    5.5395  -14.5706   25.7761 N   0  0  0  0  0  0  0  0  0  0  0  0
    6.4091  -13.6004   26.0907 C   0  0  0  0  0  0  0  0  0  0  0  0
    6.2495  -12.3446   26.6377 C   0  0  0  0  0  0  0  0  0  0  0  0
    7.3607  -11.5563   26.8488 C   0  0  0  0  0  0  0  0  0  0  0  0
    8.6152  -12.0570   26.5011 C   0  0  0  0  0  0  0  0  0  0  0  0
    8.7804  -13.3125   25.9541 C   0  0  0  0  0  0  0  0  0  0  0  0
    7.6677  -14.1035   25.7418 C   0  0  0  0  0  0  0  0  0  0  0  0
   10.5731  -16.5928   23.3930 C   0  0  0  0  0  0  0  0  0  0  0  0
   10.5563  -17.7198   22.8475 O   0  0  0  0  0  0  0  0  0  0  0  0
   14.1009  -14.4168   18.0651 O   0  0  0  0  0  0  0  0  0  0  0  0
   14.1016  -14.7844   19.3869 C   0  0  0  0  0  0  0  0  0  0  0  0
   13.5119  -13.9741   20.3355 C   0  0  0  0  0  0  0  0  0  0  0  0
   13.5196  -14.3527   21.6515 C   0  0  0  0  0  0  0  0  0  0  0  0
   14.1187  -15.5390   22.0006 C   0  0  0  0  0  0  0  0  0  0  0  0
   14.1551  -15.9733   23.3977 C   0  0  0  0  0  0  0  0  0  0  0  0
   13.0545  -16.9347   23.7876 C   0  0  2  0  0  0  0  0  0  0  0  0
   11.8291  -16.1228   23.8486 N   0  0  0  0  0  0  0  0  0  0  0  0
   13.3097  -17.5909   25.0876 C   0  0  0  0  0  0  0  0  0  0  0  0
   12.6245  -17.4289   26.1138 O   0  0  0  0  0  0  0  0  0  0  0  0
   14.7132  -16.3585   21.0529 C   0  0  0  0  0  0  0  0  0  0  0  0
   14.7010  -15.9706   19.7305 C   0  0  0  0  0  0  0  0  0  0  0  0
   14.3912  -18.4544   25.1820 O   0  0  0  0  0  0  0  0  0  0  0  0
  2  1  1  6
  2  3  1  0
  4  2  1  0
  4  5  1  1
  6  4  1  0
  6  8  1  0
  7  6  2  0
  9  8  1  0
  9 20  1  0
  9 10  1  1
 11 19  1  0
 11 10  1  0
 12 11  2  0
 13 12  1  0
 13 14  1  0
 14 15  1  0
 14 19  2  0
 15 16  2  0
 16 17  1  0
 18 17  2  0
 19 18  1  0
 20 29  1  0
 21 20  2  0
 22 23  1  0
 23 24  2  0
 23 33  1  0
 24 25  1  0
 25 26  2  0
 26 27  1  0
 28 27  1  1
 28 30  1  0
 29 28  1  0
 30 31  2  0
 30 34  1  0
 32 26  1  0
 33 32  2  0
M  END
$$$$
