VWY.pdb
     RDKit          3D

 34 36  0  0  1  0  0  0  0  0999 V2000
    8.2934  -16.3542   17.8874 C   0  0  0  0  0  0  0  0  0  0  0  0
    9.8316  -16.5347   17.7527 C   0  0  2  0  0  0  0  0  0  0  0  0
    9.9745  -17.4123   16.5263 C   0  0  0  0  0  0  0  0  0  0  0  0
   10.3349  -17.1714   19.0138 C   0  0  2  0  0  0  0  0  0  0  0  0
    9.6143  -18.4600   19.1002 N   0  0  0  0  0  0  0  0  0  0  0  0
   10.1141  -16.4590   20.2577 C   0  0  0  0  0  0  0  0  0  0  0  0
   10.8610  -15.4421   20.5273 O   0  0  0  0  0  0  0  0  0  0  0  0
    9.1343  -16.7717   21.2301 N   0  0  0  0  0  0  0  0  0  0  0  0
    9.0460  -16.0269   22.4966 C   0  0  1  0  0  0  0  0  0  0  0  0
    7.6322  -15.9606   22.9504 C   0  0  0  0  0  0  0  0  0  0  0  0
    7.1590  -14.6095   23.2538 C   0  0  0  0  0  0  0  0  0  0  0  0
    6.7333  -13.6904   22.3021 C   0  0  0  0  0  0  0  0  0  0  0  0
    6.3734  -12.5665   22.9234 N   0  0  0  0  0  0  0  0  0  0  0  0
    6.5337  -12.6776   24.2494 C   0  0  0  0  0  0  0  0  0  0  0  0
    6.3053  -11.8067   25.2939 C   0  0  0  0  0  0  0  0  0  0  0  0
    6.5733  -12.2165   26.5827 C   0  0  0  0  0  0  0  0  0  0  0  0
    7.0684  -13.5040   26.7888 C   0  0  0  0  0  0  0  0  0  0  0  0
    7.2983  -14.3792   25.7476 C   0  0  0  0  0  0  0  0  0  0  0  0
    7.0304  -13.9698   24.4556 C   0  0  0  0  0  0  0  0  0  0  0  0
    9.8858  -16.6788   23.5638 C   0  0  0  0  0  0  0  0  0  0  0  0
    9.9547  -17.9254   23.6598 O   0  0  0  0  0  0  0  0  0  0  0  0
   12.1173  -16.8652   31.9747 O   0  0  0  0  0  0  0  0  0  0  0  0
   11.9136  -16.4723   30.6761 C   0  0  0  0  0  0  0  0  0  0  0  0
   10.9801  -15.4999   30.3808 C   0  0  0  0  0  0  0  0  0  0  0  0
   10.7865  -15.1170   29.0804 C   0  0  0  0  0  0  0  0  0  0  0  0
   11.5309  -15.7139   28.0916 C   0  0  0  0  0  0  0  0  0  0  0  0
   11.3463  -15.3379   26.6893 C   0  0  0  0  0  0  0  0  0  0  0  0
   11.1725  -16.5039   25.7418 C   0  0  2  0  0  0  0  0  0  0  0  0
   10.6301  -15.9241   24.5031 N   0  0  0  0  0  0  0  0  0  0  0  0
   10.2601  -17.5371   26.2763 C   0  0  0  0  0  0  0  0  0  0  0  0
    9.0229  -17.4252   26.3506 O   0  0  0  0  0  0  0  0  0  0  0  0
   12.4708  -16.6917   28.3807 C   0  0  0  0  0  0  0  0  0  0  0  0
   12.6599  -17.0714   29.6919 C   0  0  0  0  0  0  0  0  0  0  0  0
   10.8137  -18.7247   26.7315 O   0  0  0  0  0  0  0  0  0  0  0  0
  2  1  1  1
  2  3  1  0
  4  2  1  0
  4  5  1  1
  6  4  1  0
  6  8  1  0
  7  6  2  0
  9  8  1  0
  9 20  1  0
  9 10  1  1
 11 19  1  0
 11 10  1  0
 12 11  2  0
 13 12  1  0
 13 14  1  0
 14 15  1  0
 14 19  2  0
 15 16  2  0
 16 17  1  0
 18 17  2  0
 19 18  1  0
 20 29  1  0
 21 20  2  0
 22 23  1  0
 23 24  2  0
 23 33  1  0
 24 25  1  0
 25 26  2  0
 26 27  1  0
 28 27  1  1
 28 30  1  0
 29 28  1  0
 30 31  2  0
 30 34  1  0
 32 26  1  0
 33 32  2  0
M  END
$$$$
