VWY.pdb
     RDKit          3D

 34 36  0  0  1  0  0  0  0  0999 V2000
    6.9694  -16.2667   18.3184 C   0  0  0  0  0  0  0  0  0  0  0  0
    7.9887  -15.7511   19.3728 C   0  0  2  0  0  0  0  0  0  0  0  0
    9.0627  -16.8195   19.3722 C   0  0  0  0  0  0  0  0  0  0  0  0
    7.2709  -15.6162   20.6827 C   0  0  2  0  0  0  0  0  0  0  0  0
    6.3303  -14.4925   20.4842 N   0  0  0  0  0  0  0  0  0  0  0  0
    8.0698  -15.3199   21.8564 C   0  0  0  0  0  0  0  0  0  0  0  0
    8.5486  -14.1295   21.9924 O   0  0  0  0  0  0  0  0  0  0  0  0
    8.3829  -16.2265   22.8971 N   0  0  0  0  0  0  0  0  0  0  0  0
    9.2831  -15.8481   23.9985 C   0  0  1  0  0  0  0  0  0  0  0  0
    8.6302  -16.1202   25.3058 C   0  0  0  0  0  0  0  0  0  0  0  0
    7.5600  -15.1839   25.6517 C   0  0  0  0  0  0  0  0  0  0  0  0
    6.2060  -15.4975   25.6485 C   0  0  0  0  0  0  0  0  0  0  0  0
    5.5154  -14.4159   26.0117 N   0  0  0  0  0  0  0  0  0  0  0  0
    6.3338  -13.3842   26.2612 C   0  0  0  0  0  0  0  0  0  0  0  0
    6.1030  -12.0840   26.6585 C   0  0  0  0  0  0  0  0  0  0  0  0
    7.1742  -11.2347   26.8372 C   0  0  0  0  0  0  0  0  0  0  0  0
    8.4617  -11.7205   26.6097 C   0  0  0  0  0  0  0  0  0  0  0  0
    8.6980  -13.0202   26.2125 C   0  0  0  0  0  0  0  0  0  0  0  0
    7.6255  -13.8723   26.0328 C   0  0  0  0  0  0  0  0  0  0  0  0
   10.5811  -16.6084   23.9177 C   0  0  0  0  0  0  0  0  0  0  0  0
   10.5942  -17.8452   23.7232 O   0  0  0  0  0  0  0  0  0  0  0  0
   19.2606  -17.4566   22.4489 O   0  0  0  0  0  0  0  0  0  0  0  0
   17.9861  -17.0255   22.7178 C   0  0  0  0  0  0  0  0  0  0  0  0
   16.9364  -17.9210   22.7321 C   0  0  0  0  0  0  0  0  0  0  0  0
   15.6692  -17.4776   23.0018 C   0  0  0  0  0  0  0  0  0  0  0  0
   15.4696  -16.1416   23.2535 C   0  0  0  0  0  0  0  0  0  0  0  0
   14.1287  -15.6283   23.5370 C   0  0  0  0  0  0  0  0  0  0  0  0
   13.1157  -16.6861   23.9139 C   0  0  2  0  0  0  0  0  0  0  0  0
   11.8380  -15.9708   24.0578 N   0  0  0  0  0  0  0  0  0  0  0  0
   13.4658  -17.3843   25.1691 C   0  0  0  0  0  0  0  0  0  0  0  0
   13.2356  -16.9515   26.3129 O   0  0  0  0  0  0  0  0  0  0  0  0
   16.5197  -15.2358   23.2410 C   0  0  0  0  0  0  0  0  0  0  0  0
   17.7921  -15.6899   22.9690 C   0  0  0  0  0  0  0  0  0  0  0  0
   14.0985  -18.6153   25.0769 O   0  0  0  0  0  0  0  0  0  0  0  0
  2  1  1  6
  2  3  1  0
  4  2  1  0
  4  5  1  6
  6  4  1  0
  6  8  1  0
  7  6  2  0
  9  8  1  0
  9 20  1  0
  9 10  1  1
 11 19  1  0
 11 10  1  0
 12 11  2  0
 13 12  1  0
 13 14  1  0
 14 15  1  0
 14 19  2  0
 15 16  2  0
 16 17  1  0
 18 17  2  0
 19 18  1  0
 20 29  1  0
 21 20  2  0
 22 23  1  0
 23 24  2  0
 23 33  1  0
 24 25  1  0
 25 26  2  0
 26 27  1  0
 28 27  1  1
 28 30  1  0
 29 28  1  0
 30 31  2  0
 30 34  1  0
 32 26  1  0
 33 32  2  0
M  END
$$$$
