VWY.pdb
     RDKit          3D

 34 36  0  0  1  0  0  0  0  0999 V2000
    6.9665  -13.1990   18.8863 C   0  0  0  0  0  0  0  0  0  0  0  0
    8.3945  -13.2985   18.2799 C   0  0  2  0  0  0  0  0  0  0  0  0
    8.1334  -13.5996   16.8184 C   0  0  0  0  0  0  0  0  0  0  0  0
    9.1279  -14.3903   19.0005 C   0  0  2  0  0  0  0  0  0  0  0  0
    8.4714  -15.6404   18.5612 N   0  0  0  0  0  0  0  0  0  0  0  0
    9.1063  -14.3673   20.4505 C   0  0  0  0  0  0  0  0  0  0  0  0
    9.7989  -13.4679   21.0638 O   0  0  0  0  0  0  0  0  0  0  0  0
    8.3807  -15.2522   21.2833 N   0  0  0  0  0  0  0  0  0  0  0  0
    8.4567  -15.1600   22.7504 C   0  0  1  0  0  0  0  0  0  0  0  0
    7.1070  -15.3513   23.3429 C   0  0  0  0  0  0  0  0  0  0  0  0
    7.0313  -15.0636   24.7758 C   0  0  0  0  0  0  0  0  0  0  0  0
    6.8520  -16.0237   25.7647 C   0  0  0  0  0  0  0  0  0  0  0  0
    6.8292  -15.4162   26.9517 N   0  0  0  0  0  0  0  0  0  0  0  0
    6.9843  -14.0917   26.8172 C   0  0  0  0  0  0  0  0  0  0  0  0
    7.0287  -13.0591   27.7301 C   0  0  0  0  0  0  0  0  0  0  0  0
    7.2035  -11.7684   27.2782 C   0  0  0  0  0  0  0  0  0  0  0  0
    7.3304  -11.5483   25.9068 C   0  0  0  0  0  0  0  0  0  0  0  0
    7.2870  -12.5776   24.9895 C   0  0  0  0  0  0  0  0  0  0  0  0
    7.1118  -13.8716   25.4408 C   0  0  0  0  0  0  0  0  0  0  0  0
    9.4002  -16.1945   23.3062 C   0  0  0  0  0  0  0  0  0  0  0  0
    9.2610  -17.4086   23.0335 O   0  0  0  0  0  0  0  0  0  0  0  0
   13.6999  -14.9053   18.9328 O   0  0  0  0  0  0  0  0  0  0  0  0
   13.4882  -15.2326   20.2483 C   0  0  0  0  0  0  0  0  0  0  0  0
   13.4030  -16.5553   20.6319 C   0  0  0  0  0  0  0  0  0  0  0  0
   13.1913  -16.8683   21.9481 C   0  0  0  0  0  0  0  0  0  0  0  0
   13.0674  -15.8513   22.8638 C   0  0  0  0  0  0  0  0  0  0  0  0
   12.8317  -16.1457   24.2779 C   0  0  0  0  0  0  0  0  0  0  0  0
   11.5086  -16.8177   24.5698 C   0  0  2  0  0  0  0  0  0  0  0  0
   10.4792  -15.8509   24.1570 N   0  0  0  0  0  0  0  0  0  0  0  0
   11.3529  -17.1660   25.9981 C   0  0  0  0  0  0  0  0  0  0  0  0
   10.4604  -16.7257   26.7454 O   0  0  0  0  0  0  0  0  0  0  0  0
   13.1520  -14.5198   22.4857 C   0  0  0  0  0  0  0  0  0  0  0  0
   13.3654  -14.2130   21.1592 C   0  0  0  0  0  0  0  0  0  0  0  0
   12.2642  -18.0494   26.5578 O   0  0  0  0  0  0  0  0  0  0  0  0
  2  1  1  1
  2  3  1  0
  4  2  1  0
  4  5  1  6
  6  4  1  0
  6  8  1  0
  7  6  2  0
  9  8  1  0
  9 20  1  0
  9 10  1  1
 11 19  1  0
 11 10  1  0
 12 11  2  0
 13 12  1  0
 13 14  1  0
 14 15  1  0
 14 19  2  0
 15 16  2  0
 16 17  1  0
 18 17  2  0
 19 18  1  0
 20 29  1  0
 21 20  2  0
 22 23  1  0
 23 24  2  0
 23 33  1  0
 24 25  1  0
 25 26  2  0
 26 27  1  0
 28 27  1  1
 28 30  1  0
 29 28  1  0
 30 31  2  0
 30 34  1  0
 32 26  1  0
 33 32  2  0
M  END
$$$$
