FWE.pdb
     RDKit          3D

 35 37  0  0  1  0  0  0  0  0999 V2000
   25.9180  -21.0623  -15.1528 N   0  0  0  0  0  0  0  0  0  0  0  0
   25.1289  -20.1864  -14.3450 C   0  0  1  0  0  0  0  0  0  0  0  0
   23.8560  -19.7472  -15.0002 C   0  0  0  0  0  0  0  0  0  0  0  0
   24.0726  -18.9782  -16.2381 C   0  0  0  0  0  0  0  0  0  0  0  0
   23.8630  -19.6376  -17.4408 C   0  0  0  0  0  0  0  0  0  0  0  0
   24.0449  -18.9820  -18.6403 C   0  0  0  0  0  0  0  0  0  0  0  0
   24.4417  -17.6490  -18.6118 C   0  0  0  0  0  0  0  0  0  0  0  0
   24.6477  -17.0019  -17.4103 C   0  0  0  0  0  0  0  0  0  0  0  0
   24.4686  -17.6480  -16.2200 C   0  0  0  0  0  0  0  0  0  0  0  0
   24.7796  -20.8306  -13.0485 C   0  0  0  0  0  0  0  0  0  0  0  0
   24.3016  -22.0035  -13.0043 O   0  0  0  0  0  0  0  0  0  0  0  0
   24.9553  -20.1822  -11.7839 N   0  0  0  0  0  0  0  0  0  0  0  0
   24.5421  -20.8105  -10.5765 C   0  0  1  0  0  0  0  0  0  0  0  0
   25.1543  -20.2376   -9.3177 C   0  0  0  0  0  0  0  0  0  0  0  0
   26.6042  -20.5257   -9.1952 C   0  0  0  0  0  0  0  0  0  0  0  0
   27.3859  -21.3073  -10.0329 C   0  0  0  0  0  0  0  0  0  0  0  0
   28.6602  -21.3049   -9.5984 N   0  0  0  0  0  0  0  0  0  0  0  0
   28.7629  -20.5452   -8.4912 C   0  0  0  0  0  0  0  0  0  0  0  0
   29.8056  -20.2094   -7.6565 C   0  0  0  0  0  0  0  0  0  0  0  0
   29.6549  -19.3996   -6.5557 C   0  0  0  0  0  0  0  0  0  0  0  0
   28.3946  -18.9091   -6.2883 C   0  0  0  0  0  0  0  0  0  0  0  0
   27.3315  -19.2447   -7.1301 C   0  0  0  0  0  0  0  0  0  0  0  0
   27.4833  -20.0564   -8.2345 C   0  0  0  0  0  0  0  0  0  0  0  0
   23.0700  -20.8235  -10.3744 C   0  0  0  0  0  0  0  0  0  0  0  0
   22.4772  -19.7313  -10.4462 O   0  0  0  0  0  0  0  0  0  0  0  0
   22.3106  -21.9767  -10.1109 N   0  0  0  0  0  0  0  0  0  0  0  0
   20.8424  -21.8637   -9.9417 C   0  0  1  0  0  0  0  0  0  0  0  0
   20.2206  -22.4295  -11.1916 C   0  0  0  0  0  0  0  0  0  0  0  0
   18.7311  -22.4441  -11.0887 C   0  0  0  0  0  0  0  0  0  0  0  0
   18.2045  -22.8255  -12.4437 C   0  0  0  0  0  0  0  0  0  0  0  0
   18.9951  -22.8453  -13.3975 O   0  0  0  0  0  0  0  0  0  0  0  0
   20.4274  -22.5549   -8.7108 C   0  0  0  0  0  0  0  0  0  0  0  0
   21.2837  -23.2006   -7.8498 O   0  0  0  0  0  0  0  0  0  0  0  0
   16.8876  -23.1500  -12.6553 O   0  0  0  0  0  0  0  0  0  0  0  0
   19.1900  -22.5740   -8.3948 O   0  0  0  0  0  0  0  0  0  0  0  0
  2  1  1  6
  2  3  1  0
  3  4  1  0
  4  9  2  0
  5  6  2  0
  5  4  1  0
  6  7  1  0
  7  8  2  0
  9  8  1  0
 10  2  1  0
 11 10  2  0
 12 10  1  0
 13 12  1  0
 14 15  1  0
 13 14  1  1
 15 23  1  0
 16 17  1  0
 16 15  2  0
 17 18  1  0
 18 23  2  0
 18 19  1  0
 19 20  2  0
 20 21  1  0
 22 21  2  0
 23 22  1  0
 24 13  1  0
 24 25  2  0
 26 24  1  0
 27 26  1  0
 27 28  1  6
 28 29  1  0
 29 30  1  0
 30 34  1  0
 30 31  2  0
 32 27  1  0
 33 32  1  0
 35 32  2  0
M  END
$$$$
