FWE.pdb
     RDKit          3D

 35 37  0  0  1  0  0  0  0  0999 V2000
   27.3885  -21.6783  -15.1192 N   0  0  0  0  0  0  0  0  0  0  0  0
   27.3710  -20.5449  -14.2490 C   0  0  1  0  0  0  0  0  0  0  0  0
   26.5683  -19.3952  -14.7747 C   0  0  0  0  0  0  0  0  0  0  0  0
   27.1817  -18.7423  -15.9444 C   0  0  0  0  0  0  0  0  0  0  0  0
   28.2338  -17.8696  -15.7060 C   0  0  0  0  0  0  0  0  0  0  0  0
   28.8580  -17.2225  -16.7517 C   0  0  0  0  0  0  0  0  0  0  0  0
   28.4071  -17.4675  -18.0446 C   0  0  0  0  0  0  0  0  0  0  0  0
   27.3598  -18.3372  -18.2713 C   0  0  0  0  0  0  0  0  0  0  0  0
   26.7387  -18.9801  -17.2381 C   0  0  0  0  0  0  0  0  0  0  0  0
   26.8278  -20.9108  -12.9114 C   0  0  0  0  0  0  0  0  0  0  0  0
   25.7817  -21.6170  -12.7969 O   0  0  0  0  0  0  0  0  0  0  0  0
   27.4375  -20.4978  -11.6833 N   0  0  0  0  0  0  0  0  0  0  0  0
   26.7723  -20.6805  -10.4393 C   0  0  1  0  0  0  0  0  0  0  0  0
   27.5533  -20.2271   -9.2261 C   0  0  0  0  0  0  0  0  0  0  0  0
   26.8512  -20.5017   -7.9487 C   0  0  0  0  0  0  0  0  0  0  0  0
   25.6224  -21.1207   -7.7740 C   0  0  0  0  0  0  0  0  0  0  0  0
   25.3385  -21.2047   -6.4607 N   0  0  0  0  0  0  0  0  0  0  0  0
   26.3389  -20.6601   -5.7422 C   0  0  0  0  0  0  0  0  0  0  0  0
   26.5591  -20.4800   -4.3947 C   0  0  0  0  0  0  0  0  0  0  0  0
   27.6870  -19.8749   -3.8928 C   0  0  0  0  0  0  0  0  0  0  0  0
   28.6323  -19.4329   -4.7936 C   0  0  0  0  0  0  0  0  0  0  0  0
   28.4169  -19.6119   -6.1622 C   0  0  0  0  0  0  0  0  0  0  0  0
   27.2858  -20.2196   -6.6651 C   0  0  0  0  0  0  0  0  0  0  0  0
   25.4395  -20.0278  -10.3645 C   0  0  0  0  0  0  0  0  0  0  0  0
   25.4168  -18.7834  -10.3434 O   0  0  0  0  0  0  0  0  0  0  0  0
   24.2150  -20.7165  -10.3173 N   0  0  0  0  0  0  0  0  0  0  0  0
   22.9443  -19.9565  -10.3880 C   0  0  1  0  0  0  0  0  0  0  0  0
   22.7475  -19.5814  -11.8335 C   0  0  0  0  0  0  0  0  0  0  0  0
   22.2052  -20.7319  -12.6157 C   0  0  0  0  0  0  0  0  0  0  0  0
   22.6581  -20.5447  -14.0365 C   0  0  0  0  0  0  0  0  0  0  0  0
   22.3124  -21.3846  -14.8792 O   0  0  0  0  0  0  0  0  0  0  0  0
   21.8475  -20.7656   -9.8334 C   0  0  0  0  0  0  0  0  0  0  0  0
   20.6166  -20.2709   -9.4710 O   0  0  0  0  0  0  0  0  0  0  0  0
   23.4349  -19.4820  -14.4258 O   0  0  0  0  0  0  0  0  0  0  0  0
   22.0232  -22.0194   -9.6642 O   0  0  0  0  0  0  0  0  0  0  0  0
  2  1  1  6
  2  3  1  0
  3  4  1  0
  4  9  2  0
  5  6  2  0
  5  4  1  0
  6  7  1  0
  7  8  2  0
  9  8  1  0
 10  2  1  0
 11 10  2  0
 12 10  1  0
 13 12  1  0
 14 15  1  0
 13 14  1  1
 15 23  1  0
 16 17  1  0
 16 15  2  0
 17 18  1  0
 18 23  2  0
 18 19  1  0
 19 20  2  0
 20 21  1  0
 22 21  2  0
 23 22  1  0
 24 13  1  0
 24 25  2  0
 26 24  1  0
 27 26  1  0
 27 28  1  6
 28 29  1  0
 29 30  1  0
 30 34  1  0
 30 31  2  0
 32 27  1  0
 33 32  1  0
 35 32  2  0
M  END
$$$$
