FWE.pdb
     RDKit          3D

 35 37  0  0  1  0  0  0  0  0999 V2000
   23.0681  -19.2674  -20.2373 N   0  0  0  0  0  0  0  0  0  0  0  0
   22.2048  -18.5640  -19.3418 C   0  0  1  0  0  0  0  0  0  0  0  0
   20.8442  -18.2936  -19.9058 C   0  0  0  0  0  0  0  0  0  0  0  0
   20.8565  -17.3342  -21.0238 C   0  0  0  0  0  0  0  0  0  0  0  0
   20.8197  -15.9846  -20.7035 C   0  0  0  0  0  0  0  0  0  0  0  0
   20.8296  -15.0282  -21.6969 C   0  0  0  0  0  0  0  0  0  0  0  0
   20.8776  -15.4508  -23.0213 C   0  0  0  0  0  0  0  0  0  0  0  0
   20.9138  -16.7955  -23.3297 C   0  0  0  0  0  0  0  0  0  0  0  0
   20.9040  -17.7461  -22.3485 C   0  0  0  0  0  0  0  0  0  0  0  0
   22.0329  -19.3172  -18.0685 C   0  0  0  0  0  0  0  0  0  0  0  0
   21.9234  -20.5798  -18.0607 O   0  0  0  0  0  0  0  0  0  0  0  0
   21.9795  -18.6799  -16.7873 N   0  0  0  0  0  0  0  0  0  0  0  0
   21.8084  -19.4418  -15.5984 C   0  0  1  0  0  0  0  0  0  0  0  0
   22.3088  -18.7752  -14.3363 C   0  0  0  0  0  0  0  0  0  0  0  0
   22.2337  -19.6570  -13.1460 C   0  0  0  0  0  0  0  0  0  0  0  0
   22.8974  -20.8570  -12.9381 C   0  0  0  0  0  0  0  0  0  0  0  0
   22.5846  -21.3447  -11.7228 N   0  0  0  0  0  0  0  0  0  0  0  0
   21.7284  -20.5100  -11.1032 C   0  0  0  0  0  0  0  0  0  0  0  0
   21.0995  -20.5233   -9.8780 C   0  0  0  0  0  0  0  0  0  0  0  0
   20.2420  -19.5317   -9.4638 C   0  0  0  0  0  0  0  0  0  0  0  0
   20.0109  -18.4820  -10.3269 C   0  0  0  0  0  0  0  0  0  0  0  0
   20.6449  -18.4607  -11.5715 C   0  0  0  0  0  0  0  0  0  0  0  0
   21.5055  -19.4551  -11.9862 C   0  0  0  0  0  0  0  0  0  0  0  0
   20.4045  -19.8554  -15.3418 C   0  0  0  0  0  0  0  0  0  0  0  0
   19.5244  -18.9833  -15.4625 O   0  0  0  0  0  0  0  0  0  0  0  0
   20.0089  -21.1538  -14.9761 N   0  0  0  0  0  0  0  0  0  0  0  0
   18.5692  -21.4572  -14.7965 C   0  0  1  0  0  0  0  0  0  0  0  0
   18.3932  -22.9169  -15.1242 C   0  0  0  0  0  0  0  0  0  0  0  0
   16.9491  -23.2966  -15.1164 C   0  0  0  0  0  0  0  0  0  0  0  0
   16.8639  -24.6966  -15.6565 C   0  0  0  0  0  0  0  0  0  0  0  0
   16.1640  -24.8985  -16.6586 O   0  0  0  0  0  0  0  0  0  0  0  0
   18.1516  -21.1042  -13.4304 C   0  0  0  0  0  0  0  0  0  0  0  0
   16.8685  -20.7677  -13.0673 O   0  0  0  0  0  0  0  0  0  0  0  0
   17.5315  -25.7482  -15.0797 O   0  0  0  0  0  0  0  0  0  0  0  0
   19.0215  -21.1005  -12.4952 O   0  0  0  0  0  0  0  0  0  0  0  0
  2  1  1  6
  2  3  1  0
  3  4  1  0
  4  9  2  0
  5  6  2  0
  5  4  1  0
  6  7  1  0
  7  8  2  0
  9  8  1  0
 10  2  1  0
 11 10  2  0
 12 10  1  0
 13 12  1  0
 14 15  1  0
 13 14  1  1
 15 23  1  0
 16 17  1  0
 16 15  2  0
 17 18  1  0
 18 23  2  0
 18 19  1  0
 19 20  2  0
 20 21  1  0
 22 21  2  0
 23 22  1  0
 24 13  1  0
 24 25  2  0
 26 24  1  0
 27 26  1  0
 27 28  1  1
 28 29  1  0
 29 30  1  0
 30 34  1  0
 30 31  2  0
 32 27  1  0
 33 32  1  0
 35 32  2  0
M  END
$$$$
