FWE.pdb
     RDKit          3D

 35 37  0  0  1  0  0  0  0  0999 V2000
   27.7123  -21.1964  -15.0140 N   0  0  0  0  0  0  0  0  0  0  0  0
   27.5604  -20.1504  -14.0522 C   0  0  1  0  0  0  0  0  0  0  0  0
   26.6041  -19.0785  -14.4750 C   0  0  0  0  0  0  0  0  0  0  0  0
   27.1008  -18.2634  -15.5972 C   0  0  0  0  0  0  0  0  0  0  0  0
   26.5392  -18.4911  -16.8455 C   0  0  0  0  0  0  0  0  0  0  0  0
   26.9531  -17.7658  -17.9429 C   0  0  0  0  0  0  0  0  0  0  0  0
   27.9429  -16.8047  -17.7654 C   0  0  0  0  0  0  0  0  0  0  0  0
   28.4953  -16.5857  -16.5197 C   0  0  0  0  0  0  0  0  0  0  0  0
   28.0882  -17.3022  -15.4302 C   0  0  0  0  0  0  0  0  0  0  0  0
   27.0935  -20.6936  -12.7464 C   0  0  0  0  0  0  0  0  0  0  0  0
   26.2408  -21.6295  -12.6902 O   0  0  0  0  0  0  0  0  0  0  0  0
   27.5659  -20.2054  -11.4858 N   0  0  0  0  0  0  0  0  0  0  0  0
   26.9749  -20.6382  -10.2664 C   0  0  1  0  0  0  0  0  0  0  0  0
   27.7724  -20.3167   -9.0221 C   0  0  0  0  0  0  0  0  0  0  0  0
   27.0120  -20.5492   -7.7700 C   0  0  0  0  0  0  0  0  0  0  0  0
   25.7788  -21.1686   -7.6309 C   0  0  0  0  0  0  0  0  0  0  0  0
   25.4336  -21.2069   -6.3301 N   0  0  0  0  0  0  0  0  0  0  0  0
   26.3969  -20.6311   -5.5857 C   0  0  0  0  0  0  0  0  0  0  0  0
   26.5526  -20.4013   -4.2368 C   0  0  0  0  0  0  0  0  0  0  0  0
   27.6531  -19.7720   -3.7047 C   0  0  0  0  0  0  0  0  0  0  0  0
   28.6380  -19.3573   -4.5756 C   0  0  0  0  0  0  0  0  0  0  0  0
   28.4881  -19.5868   -5.9453 C   0  0  0  0  0  0  0  0  0  0  0  0
   27.3844  -20.2186   -6.4784 C   0  0  0  0  0  0  0  0  0  0  0  0
   25.5994  -20.1220  -10.0441 C   0  0  0  0  0  0  0  0  0  0  0  0
   25.4628  -18.8876   -9.9599 O   0  0  0  0  0  0  0  0  0  0  0  0
   24.4540  -20.9280   -9.9246 N   0  0  0  0  0  0  0  0  0  0  0  0
   23.1105  -20.3051   -9.9890 C   0  0  1  0  0  0  0  0  0  0  0  0
   22.8018  -20.0985  -11.4488 C   0  0  0  0  0  0  0  0  0  0  0  0
   22.8215  -21.3955  -12.1885 C   0  0  0  0  0  0  0  0  0  0  0  0
   22.4357  -21.0926  -13.6091 C   0  0  0  0  0  0  0  0  0  0  0  0
   22.4392  -22.0207  -14.4299 O   0  0  0  0  0  0  0  0  0  0  0  0
   22.1322  -21.1560   -9.2933 C   0  0  0  0  0  0  0  0  0  0  0  0
   22.4105  -22.3934   -8.7614 O   0  0  0  0  0  0  0  0  0  0  0  0
   22.0824  -19.8319  -14.0214 O   0  0  0  0  0  0  0  0  0  0  0  0
   20.9311  -20.7424   -9.1601 O   0  0  0  0  0  0  0  0  0  0  0  0
  2  1  1  6
  2  3  1  0
  3  4  1  0
  4  9  2  0
  5  6  2  0
  5  4  1  0
  6  7  1  0
  7  8  2  0
  9  8  1  0
 10  2  1  0
 11 10  2  0
 12 10  1  0
 13 12  1  0
 14 15  1  0
 13 14  1  1
 15 23  1  0
 16 17  1  0
 16 15  2  0
 17 18  1  0
 18 23  2  0
 18 19  1  0
 19 20  2  0
 20 21  1  0
 22 21  2  0
 23 22  1  0
 24 13  1  0
 24 25  2  0
 26 24  1  0
 27 26  1  0
 27 28  1  6
 28 29  1  0
 29 30  1  0
 30 34  1  0
 30 31  2  0
 32 27  1  0
 33 32  1  0
 35 32  2  0
M  END
$$$$
