FWE.pdb
     RDKit          3D

 35 37  0  0  1  0  0  0  0  0999 V2000
   25.4500  -17.9532  -18.5189 N   0  0  0  0  0  0  0  0  0  0  0  0
   25.2268  -17.4150  -17.2140 C   0  0  1  0  0  0  0  0  0  0  0  0
   23.8201  -16.9552  -16.9853 C   0  0  0  0  0  0  0  0  0  0  0  0
   23.4676  -15.7509  -17.7574 C   0  0  0  0  0  0  0  0  0  0  0  0
   22.8873  -15.9420  -19.0033 C   0  0  0  0  0  0  0  0  0  0  0  0
   22.5295  -14.8621  -19.7827 C   0  0  0  0  0  0  0  0  0  0  0  0
   22.7643  -13.5832  -19.2885 C   0  0  0  0  0  0  0  0  0  0  0  0
   23.3421  -13.4035  -18.0481 C   0  0  0  0  0  0  0  0  0  0  0  0
   23.6981  -14.4707  -17.2730 C   0  0  0  0  0  0  0  0  0  0  0  0
   25.5594  -18.4161  -16.1627 C   0  0  0  0  0  0  0  0  0  0  0  0
   25.1639  -19.6170  -16.2491 O   0  0  0  0  0  0  0  0  0  0  0  0
   26.3346  -18.0982  -15.0014 N   0  0  0  0  0  0  0  0  0  0  0  0
   26.5119  -19.0488  -13.9581 C   0  0  1  0  0  0  0  0  0  0  0  0
   27.4473  -18.6143  -12.8519 C   0  0  0  0  0  0  0  0  0  0  0  0
   27.7445  -19.6987  -11.8845 C   0  0  0  0  0  0  0  0  0  0  0  0
   28.4440  -20.8734  -12.1180 C   0  0  0  0  0  0  0  0  0  0  0  0
   28.5211  -21.5901  -10.9809 N   0  0  0  0  0  0  0  0  0  0  0  0
   27.8938  -20.9347   -9.9856 C   0  0  0  0  0  0  0  0  0  0  0  0
   27.6716  -21.2068   -8.6539 C   0  0  0  0  0  0  0  0  0  0  0  0
   26.9794  -20.3606   -7.8203 C   0  0  0  0  0  0  0  0  0  0  0  0
   26.4908  -19.1889   -8.3579 C   0  0  0  0  0  0  0  0  0  0  0  0
   26.7120  -18.9052   -9.7077 C   0  0  0  0  0  0  0  0  0  0  0  0
   27.4069  -19.7539  -10.5432 C   0  0  0  0  0  0  0  0  0  0  0  0
   25.2459  -19.4791  -13.3101 C   0  0  0  0  0  0  0  0  0  0  0  0
   24.4132  -18.5923  -13.0459 O   0  0  0  0  0  0  0  0  0  0  0  0
   24.9297  -20.8083  -12.9799 N   0  0  0  0  0  0  0  0  0  0  0  0
   23.7262  -21.0934  -12.1630 C   0  0  1  0  0  0  0  0  0  0  0  0
   22.9009  -22.0826  -12.9436 C   0  0  0  0  0  0  0  0  0  0  0  0
   21.7403  -22.5649  -12.1375 C   0  0  0  0  0  0  0  0  0  0  0  0
   20.5367  -21.7940  -12.6022 C   0  0  0  0  0  0  0  0  0  0  0  0
   20.4413  -21.5232  -13.8075 O   0  0  0  0  0  0  0  0  0  0  0  0
   24.1292  -21.5795  -10.8338 C   0  0  0  0  0  0  0  0  0  0  0  0
   23.4430  -21.3293   -9.6686 O   0  0  0  0  0  0  0  0  0  0  0  0
   19.5490  -21.3851  -11.7411 O   0  0  0  0  0  0  0  0  0  0  0  0
   25.1881  -22.2852  -10.7241 O   0  0  0  0  0  0  0  0  0  0  0  0
  2  1  1  6
  2  3  1  0
  3  4  1  0
  4  9  2  0
  5  6  2  0
  5  4  1  0
  6  7  1  0
  7  8  2  0
  9  8  1  0
 10  2  1  0
 11 10  2  0
 12 10  1  0
 13 12  1  0
 14 15  1  0
 13 14  1  1
 15 23  1  0
 16 17  1  0
 16 15  2  0
 17 18  1  0
 18 23  2  0
 18 19  1  0
 19 20  2  0
 20 21  1  0
 22 21  2  0
 23 22  1  0
 24 13  1  0
 24 25  2  0
 26 24  1  0
 27 26  1  0
 27 28  1  6
 28 29  1  0
 29 30  1  0
 30 34  1  0
 30 31  2  0
 32 27  1  0
 33 32  1  0
 35 32  2  0
M  END
$$$$
