FWE.pdb
     RDKit          3D

 35 37  0  0  1  0  0  0  0  0999 V2000
   32.2737  -27.0132  -21.8143 N   0  0  0  0  0  0  0  0  0  0  0  0
   30.9917  -26.5144  -21.4273 C   0  0  1  0  0  0  0  0  0  0  0  0
   30.1813  -25.9865  -22.5706 C   0  0  0  0  0  0  0  0  0  0  0  0
   30.6642  -24.6904  -23.0780 C   0  0  0  0  0  0  0  0  0  0  0  0
   31.1071  -24.6476  -24.3924 C   0  0  0  0  0  0  0  0  0  0  0  0
   31.5723  -23.4692  -24.9370 C   0  0  0  0  0  0  0  0  0  0  0  0
   31.5851  -22.3309  -24.1375 C   0  0  0  0  0  0  0  0  0  0  0  0
   31.1425  -22.3837  -22.8314 C   0  0  0  0  0  0  0  0  0  0  0  0
   30.6811  -23.5491  -22.2882 C   0  0  0  0  0  0  0  0  0  0  0  0
   30.1931  -27.5725  -20.7483 C   0  0  0  0  0  0  0  0  0  0  0  0
   30.1825  -28.7653  -21.1765 O   0  0  0  0  0  0  0  0  0  0  0  0
   29.3954  -27.3213  -19.5859 N   0  0  0  0  0  0  0  0  0  0  0  0
   28.6128  -28.3542  -18.9993 C   0  0  1  0  0  0  0  0  0  0  0  0
   28.1491  -28.0783  -17.5864 C   0  0  0  0  0  0  0  0  0  0  0  0
   27.5301  -29.2602  -16.9382 C   0  0  0  0  0  0  0  0  0  0  0  0
   28.1089  -30.4992  -16.7069 C   0  0  0  0  0  0  0  0  0  0  0  0
   27.2310  -31.3000  -16.0740 N   0  0  0  0  0  0  0  0  0  0  0  0
   26.0753  -30.6390  -15.8711 C   0  0  0  0  0  0  0  0  0  0  0  0
   24.8728  -30.9738  -15.2892 C   0  0  0  0  0  0  0  0  0  0  0  0
   23.8116  -30.1037  -15.2052 C   0  0  0  0  0  0  0  0  0  0  0  0
   23.9747  -28.8407  -15.7331 C   0  0  0  0  0  0  0  0  0  0  0  0
   25.1913  -28.4929  -16.3248 C   0  0  0  0  0  0  0  0  0  0  0  0
   26.2557  -29.3657  -16.4082 C   0  0  0  0  0  0  0  0  0  0  0  0
   27.4071  -28.7209  -19.7865 C   0  0  0  0  0  0  0  0  0  0  0  0
   26.7633  -27.7906  -20.3057 O   0  0  0  0  0  0  0  0  0  0  0  0
   26.9510  -30.0360  -19.9820 N   0  0  0  0  0  0  0  0  0  0  0  0
   25.6891  -30.2707  -20.7235 C   0  0  1  0  0  0  0  0  0  0  0  0
   25.4375  -31.7554  -20.6850 C   0  0  0  0  0  0  0  0  0  0  0  0
   24.2784  -32.1241  -21.5512 C   0  0  0  0  0  0  0  0  0  0  0  0
   24.0766  -33.6058  -21.4014 C   0  0  0  0  0  0  0  0  0  0  0  0
   24.9046  -34.2481  -20.7404 O   0  0  0  0  0  0  0  0  0  0  0  0
   24.6053  -29.4725  -20.1290 C   0  0  0  0  0  0  0  0  0  0  0  0
   24.3961  -29.3211  -18.7782 O   0  0  0  0  0  0  0  0  0  0  0  0
   23.0132  -34.2633  -21.9682 O   0  0  0  0  0  0  0  0  0  0  0  0
   23.7845  -28.8672  -20.8979 O   0  0  0  0  0  0  0  0  0  0  0  0
  2  1  1  6
  2  3  1  0
  3  4  1  0
  4  9  2  0
  5  6  2  0
  5  4  1  0
  6  7  1  0
  7  8  2  0
  9  8  1  0
 10  2  1  0
 11 10  2  0
 12 10  1  0
 13 12  1  0
 14 15  1  0
 13 14  1  1
 15 23  1  0
 16 17  1  0
 16 15  2  0
 17 18  1  0
 18 23  2  0
 18 19  1  0
 19 20  2  0
 20 21  1  0
 22 21  2  0
 23 22  1  0
 24 13  1  0
 24 25  2  0
 26 24  1  0
 27 26  1  0
 27 28  1  1
 28 29  1  0
 29 30  1  0
 30 34  1  0
 30 31  2  0
 32 27  1  0
 33 32  1  0
 35 32  2  0
M  END
$$$$
