FWE.pdb
     RDKit          3D

 35 37  0  0  1  0  0  0  0  0999 V2000
   27.3161  -22.4603  -19.5687 N   0  0  0  0  0  0  0  0  0  0  0  0
   27.6994  -22.9892  -18.2977 C   0  0  1  0  0  0  0  0  0  0  0  0
   27.4299  -22.0613  -17.1538 C   0  0  0  0  0  0  0  0  0  0  0  0
   28.0540  -20.7368  -17.3178 C   0  0  0  0  0  0  0  0  0  0  0  0
   27.2188  -19.6299  -17.2662 C   0  0  0  0  0  0  0  0  0  0  0  0
   27.7315  -18.3580  -17.4105 C   0  0  0  0  0  0  0  0  0  0  0  0
   29.1012  -18.2155  -17.6077 C   0  0  0  0  0  0  0  0  0  0  0  0
   29.9235  -19.3227  -17.6576 C   0  0  0  0  0  0  0  0  0  0  0  0
   29.4194  -20.5844  -17.5152 C   0  0  0  0  0  0  0  0  0  0  0  0
   26.9966  -24.2732  -18.0231 C   0  0  0  0  0  0  0  0  0  0  0  0
   25.7664  -24.4200  -18.2899 O   0  0  0  0  0  0  0  0  0  0  0  0
   27.6488  -25.4111  -17.4483 N   0  0  0  0  0  0  0  0  0  0  0  0
   26.9660  -26.6510  -17.3068 C   0  0  1  0  0  0  0  0  0  0  0  0
   27.8452  -27.8241  -16.9350 C   0  0  0  0  0  0  0  0  0  0  0  0
   27.1251  -29.1206  -16.9649 C   0  0  0  0  0  0  0  0  0  0  0  0
   26.0003  -29.4474  -17.7075 C   0  0  0  0  0  0  0  0  0  0  0  0
   25.6609  -30.7299  -17.4778 N   0  0  0  0  0  0  0  0  0  0  0  0
   26.5229  -31.2795  -16.6012 C   0  0  0  0  0  0  0  0  0  0  0  0
   26.6376  -32.5267  -16.0284 C   0  0  0  0  0  0  0  0  0  0  0  0
   27.6278  -32.8528  -15.1320 C   0  0  0  0  0  0  0  0  0  0  0  0
   28.5407  -31.8743  -14.8011 C   0  0  0  0  0  0  0  0  0  0  0  0
   28.4317  -30.6067  -15.3778 C   0  0  0  0  0  0  0  0  0  0  0  0
   27.4388  -30.2803  -16.2773 C   0  0  0  0  0  0  0  0  0  0  0  0
   25.8502  -26.6186  -16.3261 C   0  0  0  0  0  0  0  0  0  0  0  0
   26.1362  -26.3295  -15.1497 O   0  0  0  0  0  0  0  0  0  0  0  0
   24.5063  -26.8895  -16.6368 N   0  0  0  0  0  0  0  0  0  0  0  0
   23.4878  -26.8711  -15.5600 C   0  0  1  0  0  0  0  0  0  0  0  0
   22.5152  -25.7744  -15.9067 C   0  0  0  0  0  0  0  0  0  0  0  0
   23.0982  -24.4308  -15.6160 C   0  0  0  0  0  0  0  0  0  0  0  0
   22.0845  -23.4118  -16.0554 C   0  0  0  0  0  0  0  0  0  0  0  0
   21.0526  -23.8114  -16.6126 O   0  0  0  0  0  0  0  0  0  0  0  0
   22.8634  -28.1983  -15.4412 C   0  0  0  0  0  0  0  0  0  0  0  0
   22.9540  -29.1926  -16.3870 O   0  0  0  0  0  0  0  0  0  0  0  0
   22.2646  -22.0651  -15.8598 O   0  0  0  0  0  0  0  0  0  0  0  0
   22.1818  -28.4740  -14.3969 O   0  0  0  0  0  0  0  0  0  0  0  0
  2  1  1  6
  2  3  1  0
  3  4  1  0
  4  9  2  0
  5  6  2  0
  5  4  1  0
  6  7  1  0
  7  8  2  0
  9  8  1  0
 10  2  1  0
 11 10  2  0
 12 10  1  0
 13 12  1  0
 14 15  1  0
 13 14  1  1
 15 23  1  0
 16 17  1  0
 16 15  2  0
 17 18  1  0
 18 23  2  0
 18 19  1  0
 19 20  2  0
 20 21  1  0
 22 21  2  0
 23 22  1  0
 24 13  1  0
 24 25  2  0
 26 24  1  0
 27 26  1  0
 27 28  1  6
 28 29  1  0
 29 30  1  0
 30 34  1  0
 30 31  2  0
 32 27  1  0
 33 32  1  0
 35 32  2  0
M  END
$$$$
