FWE.pdb
     RDKit          3D

 35 37  0  0  1  0  0  0  0  0999 V2000
   26.0259  -20.8323   -9.9551 N   0  0  0  0  0  0  0  0  0  0  0  0
   26.9216  -20.4561  -11.0031 C   0  0  1  0  0  0  0  0  0  0  0  0
   27.6383  -21.6137  -11.6266 C   0  0  0  0  0  0  0  0  0  0  0  0
   28.9931  -21.8204  -11.0859 C   0  0  0  0  0  0  0  0  0  0  0  0
   29.1678  -22.8674  -10.1921 C   0  0  0  0  0  0  0  0  0  0  0  0
   30.4079  -23.1224   -9.6454 C   0  0  0  0  0  0  0  0  0  0  0  0
   31.4729  -22.3064  -10.0125 C   0  0  0  0  0  0  0  0  0  0  0  0
   31.2890  -21.2675  -10.9022 C   0  0  0  0  0  0  0  0  0  0  0  0
   30.0621  -21.0116  -11.4459 C   0  0  0  0  0  0  0  0  0  0  0  0
   26.1994  -19.7276  -12.0829 C   0  0  0  0  0  0  0  0  0  0  0  0
   24.9333  -19.7205  -12.1387 O   0  0  0  0  0  0  0  0  0  0  0  0
   26.8720  -18.9979  -13.1152 N   0  0  0  0  0  0  0  0  0  0  0  0
   26.1589  -18.1059  -13.9633 C   0  0  1  0  0  0  0  0  0  0  0  0
   27.0231  -17.2763  -14.8866 C   0  0  0  0  0  0  0  0  0  0  0  0
   26.2427  -16.3130  -15.7011 C   0  0  0  0  0  0  0  0  0  0  0  0
   25.7351  -15.0848  -15.3041 C   0  0  0  0  0  0  0  0  0  0  0  0
   25.1045  -14.4979  -16.3388 N   0  0  0  0  0  0  0  0  0  0  0  0
   25.1703  -15.2934  -17.4234 C   0  0  0  0  0  0  0  0  0  0  0  0
   24.7020  -15.1892  -18.7144 C   0  0  0  0  0  0  0  0  0  0  0  0
   24.8970  -16.1636  -19.6644 C   0  0  0  0  0  0  0  0  0  0  0  0
   25.5957  -17.2920  -19.2916 C   0  0  0  0  0  0  0  0  0  0  0  0
   26.0744  -17.4055  -17.9842 C   0  0  0  0  0  0  0  0  0  0  0  0
   25.8792  -16.4276  -17.0318 C   0  0  0  0  0  0  0  0  0  0  0  0
   25.1320  -18.7670  -14.8098 C   0  0  0  0  0  0  0  0  0  0  0  0
   25.2739  -19.9842  -15.0283 O   0  0  0  0  0  0  0  0  0  0  0  0
   24.0217  -18.1148  -15.3735 N   0  0  0  0  0  0  0  0  0  0  0  0
   22.8913  -18.9161  -15.8998 C   0  0  1  0  0  0  0  0  0  0  0  0
   22.3548  -19.7157  -14.7414 C   0  0  0  0  0  0  0  0  0  0  0  0
   22.9067  -21.1032  -14.7481 C   0  0  0  0  0  0  0  0  0  0  0  0
   21.7487  -22.0313  -14.9860 C   0  0  0  0  0  0  0  0  0  0  0  0
   20.6070  -21.5512  -15.0163 O   0  0  0  0  0  0  0  0  0  0  0  0
   21.8937  -18.0269  -16.5159 C   0  0  0  0  0  0  0  0  0  0  0  0
   21.1993  -18.3104  -17.6686 O   0  0  0  0  0  0  0  0  0  0  0  0
   21.9154  -23.3815  -15.1696 O   0  0  0  0  0  0  0  0  0  0  0  0
   21.6347  -16.9048  -15.9633 O   0  0  0  0  0  0  0  0  0  0  0  0
  2  1  1  1
  2  3  1  0
  3  4  1  0
  4  9  2  0
  5  6  2  0
  5  4  1  0
  6  7  1  0
  7  8  2  0
  9  8  1  0
 10  2  1  0
 11 10  2  0
 12 10  1  0
 13 12  1  0
 14 15  1  0
 13 14  1  6
 15 23  1  0
 16 17  1  0
 16 15  2  0
 17 18  1  0
 18 23  2  0
 18 19  1  0
 19 20  2  0
 20 21  1  0
 22 21  2  0
 23 22  1  0
 24 13  1  0
 24 25  2  0
 26 24  1  0
 27 26  1  0
 27 28  1  1
 28 29  1  0
 29 30  1  0
 30 34  1  0
 30 31  2  0
 32 27  1  0
 33 32  1  0
 35 32  2  0
M  END
$$$$
