FWE.pdb
     RDKit          3D

 35 37  0  0  1  0  0  0  0  0999 V2000
   26.3620   -5.4412  -21.5874 N   0  0  0  0  0  0  0  0  0  0  0  0
   24.9651   -5.1913  -21.4190 C   0  0  1  0  0  0  0  0  0  0  0  0
   24.1357   -5.5910  -22.6000 C   0  0  0  0  0  0  0  0  0  0  0  0
   24.4674   -4.8433  -23.8253 C   0  0  0  0  0  0  0  0  0  0  0  0
   24.7751   -5.5836  -24.9579 C   0  0  0  0  0  0  0  0  0  0  0  0
   25.0946   -4.9528  -26.1419 C   0  0  0  0  0  0  0  0  0  0  0  0
   25.0995   -3.5621  -26.1699 C   0  0  0  0  0  0  0  0  0  0  0  0
   24.7920   -2.8347  -25.0380 C   0  0  0  0  0  0  0  0  0  0  0  0
   24.4752   -3.4558  -23.8632 C   0  0  0  0  0  0  0  0  0  0  0  0
   24.4379   -5.9072  -20.2241 C   0  0  0  0  0  0  0  0  0  0  0  0
   23.1934   -6.0751  -20.0539 O   0  0  0  0  0  0  0  0  0  0  0  0
   25.2842   -6.4457  -19.2022 N   0  0  0  0  0  0  0  0  0  0  0  0
   24.7318   -7.0506  -18.0392 C   0  0  1  0  0  0  0  0  0  0  0  0
   25.6732   -7.9657  -17.2883 C   0  0  0  0  0  0  0  0  0  0  0  0
   24.9671   -8.9238  -16.4030 C   0  0  0  0  0  0  0  0  0  0  0  0
   23.6683   -8.8352  -15.9245 C   0  0  0  0  0  0  0  0  0  0  0  0
   23.3879   -9.9135  -15.1686 N   0  0  0  0  0  0  0  0  0  0  0  0
   24.4593  -10.7282  -15.1216 C   0  0  0  0  0  0  0  0  0  0  0  0
   24.7172  -11.9325  -14.5052 C   0  0  0  0  0  0  0  0  0  0  0  0
   25.9241  -12.5833  -14.6049 C   0  0  0  0  0  0  0  0  0  0  0  0
   26.9123  -11.9895  -15.3607 C   0  0  0  0  0  0  0  0  0  0  0  0
   26.6588  -10.7681  -15.9895 C   0  0  0  0  0  0  0  0  0  0  0  0
   25.4479  -10.1160  -15.8898 C   0  0  0  0  0  0  0  0  0  0  0  0
   24.1916   -6.0808  -17.0514 C   0  0  0  0  0  0  0  0  0  0  0  0
   24.9835   -5.2371  -16.5924 O   0  0  0  0  0  0  0  0  0  0  0  0
   22.8585   -6.0535  -16.6066 N   0  0  0  0  0  0  0  0  0  0  0  0
   22.4268   -5.0057  -15.6511 C   0  0  1  0  0  0  0  0  0  0  0  0
   21.0882   -4.5101  -16.1321 C   0  0  0  0  0  0  0  0  0  0  0  0
   20.5445   -3.4638  -15.2160 C   0  0  0  0  0  0  0  0  0  0  0  0
   19.2041   -3.0598  -15.7630 C   0  0  0  0  0  0  0  0  0  0  0  0
   18.5951   -2.1368  -15.2044 O   0  0  0  0  0  0  0  0  0  0  0  0
   22.3972   -5.5562  -14.2868 C   0  0  0  0  0  0  0  0  0  0  0  0
   22.6740   -4.8377  -13.1473 O   0  0  0  0  0  0  0  0  0  0  0  0
   18.6395   -3.6756  -16.8522 O   0  0  0  0  0  0  0  0  0  0  0  0
   22.0975   -6.7864  -14.1186 O   0  0  0  0  0  0  0  0  0  0  0  0
  2  1  1  6
  2  3  1  0
  3  4  1  0
  4  9  2  0
  5  6  2  0
  5  4  1  0
  6  7  1  0
  7  8  2  0
  9  8  1  0
 10  2  1  0
 11 10  2  0
 12 10  1  0
 13 12  1  0
 14 15  1  0
 13 14  1  1
 15 23  1  0
 16 17  1  0
 16 15  2  0
 17 18  1  0
 18 23  2  0
 18 19  1  0
 19 20  2  0
 20 21  1  0
 22 21  2  0
 23 22  1  0
 24 13  1  0
 24 25  2  0
 26 24  1  0
 27 26  1  0
 27 28  1  6
 28 29  1  0
 29 30  1  0
 30 34  1  0
 30 31  2  0
 32 27  1  0
 33 32  1  0
 35 32  2  0
M  END
$$$$
