FWE.pdb
     RDKit          3D

 35 37  0  0  1  0  0  0  0  0999 V2000
   26.8224  -24.5956  -16.2925 N   0  0  0  0  0  0  0  0  0  0  0  0
   26.1045  -23.3749  -16.4841 C   0  0  1  0  0  0  0  0  0  0  0  0
   25.4399  -23.2713  -17.8220 C   0  0  0  0  0  0  0  0  0  0  0  0
   26.3935  -23.2009  -18.9429 C   0  0  0  0  0  0  0  0  0  0  0  0
   26.9507  -21.9621  -19.2263 C   0  0  0  0  0  0  0  0  0  0  0  0
   27.8520  -21.8193  -20.2603 C   0  0  0  0  0  0  0  0  0  0  0  0
   28.1857  -22.9445  -21.0069 C   0  0  0  0  0  0  0  0  0  0  0  0
   27.6259  -24.1723  -20.7171 C   0  0  0  0  0  0  0  0  0  0  0  0
   26.7326  -24.3179  -19.6938 C   0  0  0  0  0  0  0  0  0  0  0  0
   25.0590  -23.2039  -15.4374 C   0  0  0  0  0  0  0  0  0  0  0  0
   24.6941  -24.1735  -14.7074 O   0  0  0  0  0  0  0  0  0  0  0  0
   24.4039  -21.9554  -15.1870 N   0  0  0  0  0  0  0  0  0  0  0  0
   23.5090  -21.8062  -14.0914 C   0  0  1  0  0  0  0  0  0  0  0  0
   23.6840  -20.5329  -13.2942 C   0  0  0  0  0  0  0  0  0  0  0  0
   24.8357  -20.5867  -12.3611 C   0  0  0  0  0  0  0  0  0  0  0  0
   26.1854  -20.5832  -12.6809 C   0  0  0  0  0  0  0  0  0  0  0  0
   26.9197  -20.6191  -11.5530 N   0  0  0  0  0  0  0  0  0  0  0  0
   26.1063  -20.6474  -10.4801 C   0  0  0  0  0  0  0  0  0  0  0  0
   26.3199  -20.6924   -9.1203 C   0  0  0  0  0  0  0  0  0  0  0  0
   25.2983  -20.7203   -8.2006 C   0  0  0  0  0  0  0  0  0  0  0  0
   24.0052  -20.7020   -8.6779 C   0  0  0  0  0  0  0  0  0  0  0  0
   23.7797  -20.6560  -10.0557 C   0  0  0  0  0  0  0  0  0  0  0  0
   24.8047  -20.6274  -10.9778 C   0  0  0  0  0  0  0  0  0  0  0  0
   22.0737  -21.8876  -14.4672 C   0  0  0  0  0  0  0  0  0  0  0  0
   21.7358  -21.3508  -15.5382 O   0  0  0  0  0  0  0  0  0  0  0  0
   21.0828  -22.5252  -13.7007 N   0  0  0  0  0  0  0  0  0  0  0  0
   19.6790  -22.5295  -14.1765 C   0  0  1  0  0  0  0  0  0  0  0  0
   19.0639  -23.8156  -13.6900 C   0  0  0  0  0  0  0  0  0  0  0  0
   17.6050  -23.8634  -14.0045 C   0  0  0  0  0  0  0  0  0  0  0  0
   17.4323  -24.8546  -15.1210 C   0  0  0  0  0  0  0  0  0  0  0  0
   17.7564  -26.0328  -14.9165 O   0  0  0  0  0  0  0  0  0  0  0  0
   18.9854  -21.3242  -13.6952 C   0  0  0  0  0  0  0  0  0  0  0  0
   17.8898  -20.7573  -14.3029 O   0  0  0  0  0  0  0  0  0  0  0  0
   16.9310  -24.4985  -16.3482 O   0  0  0  0  0  0  0  0  0  0  0  0
   19.4100  -20.7412  -12.6410 O   0  0  0  0  0  0  0  0  0  0  0  0
  2  1  1  1
  2  3  1  0
  3  4  1  0
  4  9  2  0
  5  6  2  0
  5  4  1  0
  6  7  1  0
  7  8  2  0
  9  8  1  0
 10  2  1  0
 11 10  2  0
 12 10  1  0
 13 12  1  0
 14 15  1  0
 13 14  1  6
 15 23  1  0
 16 17  1  0
 16 15  2  0
 17 18  1  0
 18 23  2  0
 18 19  1  0
 19 20  2  0
 20 21  1  0
 22 21  2  0
 23 22  1  0
 24 13  1  0
 24 25  2  0
 26 24  1  0
 27 26  1  0
 27 28  1  1
 28 29  1  0
 29 30  1  0
 30 34  1  0
 30 31  2  0
 32 27  1  0
 33 32  1  0
 35 32  2  0
M  END
$$$$
