FWE.pdb
     RDKit          3D

 35 37  0  0  1  0  0  0  0  0999 V2000
   28.9698  -20.7261  -16.1352 N   0  0  0  0  0  0  0  0  0  0  0  0
   27.5468  -20.7981  -16.2451 C   0  0  1  0  0  0  0  0  0  0  0  0
   27.0716  -21.7723  -17.2783 C   0  0  0  0  0  0  0  0  0  0  0  0
   27.6514  -21.5368  -18.6121 C   0  0  0  0  0  0  0  0  0  0  0  0
   28.7170  -22.3398  -18.9927 C   0  0  0  0  0  0  0  0  0  0  0  0
   29.3102  -22.1783  -20.2271 C   0  0  0  0  0  0  0  0  0  0  0  0
   28.8138  -21.1942  -21.0757 C   0  0  0  0  0  0  0  0  0  0  0  0
   27.7534  -20.4005  -20.6878 C   0  0  0  0  0  0  0  0  0  0  0  0
   27.1632  -20.5573  -19.4658 C   0  0  0  0  0  0  0  0  0  0  0  0
   26.9321  -21.1744  -14.9418 C   0  0  0  0  0  0  0  0  0  0  0  0
   25.7768  -21.6924  -14.8845 O   0  0  0  0  0  0  0  0  0  0  0  0
   27.5903  -20.9807  -13.6849 N   0  0  0  0  0  0  0  0  0  0  0  0
   26.9148  -21.2349  -12.4591 C   0  0  1  0  0  0  0  0  0  0  0  0
   27.7320  -20.9706  -11.2142 C   0  0  0  0  0  0  0  0  0  0  0  0
   26.8969  -20.7524  -10.0080 C   0  0  0  0  0  0  0  0  0  0  0  0
   25.5633  -21.0892   -9.8292 C   0  0  0  0  0  0  0  0  0  0  0  0
   25.1710  -20.7479   -8.5873 N   0  0  0  0  0  0  0  0  0  0  0  0
   26.1999  -20.1898   -7.9214 C   0  0  0  0  0  0  0  0  0  0  0  0
   26.3487  -19.6706   -6.6545 C   0  0  0  0  0  0  0  0  0  0  0  0
   27.5301  -19.1376   -6.1958 C   0  0  0  0  0  0  0  0  0  0  0  0
   28.6068  -19.1295   -7.0565 C   0  0  0  0  0  0  0  0  0  0  0  0
   28.4645  -19.6544   -8.3432 C   0  0  0  0  0  0  0  0  0  0  0  0
   27.2796  -20.1896   -8.8026 C   0  0  0  0  0  0  0  0  0  0  0  0
   25.6389  -20.4890  -12.3055 C   0  0  0  0  0  0  0  0  0  0  0  0
   25.7136  -19.2504  -12.2058 O   0  0  0  0  0  0  0  0  0  0  0  0
   24.3661  -21.0841  -12.2666 N   0  0  0  0  0  0  0  0  0  0  0  0
   23.1568  -20.2348  -12.3826 C   0  0  1  0  0  0  0  0  0  0  0  0
   22.7614  -20.2457  -13.8361 C   0  0  0  0  0  0  0  0  0  0  0  0
   21.4759  -19.5157  -14.0462 C   0  0  0  0  0  0  0  0  0  0  0  0
   21.6295  -18.7182  -15.3108 C   0  0  0  0  0  0  0  0  0  0  0  0
   22.1141  -19.2784  -16.3040 O   0  0  0  0  0  0  0  0  0  0  0  0
   22.1071  -20.7356  -11.4813 C   0  0  0  0  0  0  0  0  0  0  0  0
   21.1933  -19.9421  -10.8279 O   0  0  0  0  0  0  0  0  0  0  0  0
   21.2527  -17.4012  -15.3989 O   0  0  0  0  0  0  0  0  0  0  0  0
   22.0149  -21.9920  -11.2709 O   0  0  0  0  0  0  0  0  0  0  0  0
  2  1  1  1
  2  3  1  0
  3  4  1  0
  4  9  2  0
  5  6  2  0
  5  4  1  0
  6  7  1  0
  7  8  2  0
  9  8  1  0
 10  2  1  0
 11 10  2  0
 12 10  1  0
 13 12  1  0
 14 15  1  0
 13 14  1  1
 15 23  1  0
 16 17  1  0
 16 15  2  0
 17 18  1  0
 18 23  2  0
 18 19  1  0
 19 20  2  0
 20 21  1  0
 22 21  2  0
 23 22  1  0
 24 13  1  0
 24 25  2  0
 26 24  1  0
 27 26  1  0
 27 28  1  6
 28 29  1  0
 29 30  1  0
 30 34  1  0
 30 31  2  0
 32 27  1  0
 33 32  1  0
 35 32  2  0
M  END
$$$$
