FWE.pdb
     RDKit          3D

 35 37  0  0  1  0  0  0  0  0999 V2000
   28.3540  -21.2837  -15.4234 N   0  0  0  0  0  0  0  0  0  0  0  0
   27.7026  -20.2435  -14.6916 C   0  0  1  0  0  0  0  0  0  0  0  0
   26.9700  -19.2661  -15.5580 C   0  0  0  0  0  0  0  0  0  0  0  0
   27.8619  -18.4549  -16.4047 C   0  0  0  0  0  0  0  0  0  0  0  0
   27.9560  -18.8028  -17.7447 C   0  0  0  0  0  0  0  0  0  0  0  0
   28.7700  -18.0886  -18.5986 C   0  0  0  0  0  0  0  0  0  0  0  0
   29.4899  -17.0158  -18.0830 C   0  0  0  0  0  0  0  0  0  0  0  0
   29.3896  -16.6778  -16.7487 C   0  0  0  0  0  0  0  0  0  0  0  0
   28.5845  -17.3828  -15.8996 C   0  0  0  0  0  0  0  0  0  0  0  0
   26.7310  -20.8096  -13.7150 C   0  0  0  0  0  0  0  0  0  0  0  0
   26.1270  -21.8998  -13.9445 O   0  0  0  0  0  0  0  0  0  0  0  0
   26.4163  -20.1736  -12.4711 N   0  0  0  0  0  0  0  0  0  0  0  0
   25.4961  -20.7635  -11.5608 C   0  0  1  0  0  0  0  0  0  0  0  0
   25.6592  -20.3321  -10.1203 C   0  0  0  0  0  0  0  0  0  0  0  0
   26.9733  -20.7117   -9.5467 C   0  0  0  0  0  0  0  0  0  0  0  0
   27.9407  -21.5280  -10.1137 C   0  0  0  0  0  0  0  0  0  0  0  0
   29.0038  -21.6113   -9.2917 N   0  0  0  0  0  0  0  0  0  0  0  0
   28.7833  -20.8757   -8.1854 C   0  0  0  0  0  0  0  0  0  0  0  0
   29.5160  -20.6176   -7.0482 C   0  0  0  0  0  0  0  0  0  0  0  0
   29.0610  -19.8161   -6.0280 C   0  0  0  0  0  0  0  0  0  0  0  0
   27.8105  -19.2521   -6.1647 C   0  0  0  0  0  0  0  0  0  0  0  0
   27.0609  -19.5086   -7.3152 C   0  0  0  0  0  0  0  0  0  0  0  0
   27.5180  -20.3120   -8.3385 C   0  0  0  0  0  0  0  0  0  0  0  0
   24.0699  -20.5485  -11.9180 C   0  0  0  0  0  0  0  0  0  0  0  0
   23.7226  -19.3854  -12.1938 O   0  0  0  0  0  0  0  0  0  0  0  0
   23.0973  -21.5623  -11.9651 N   0  0  0  0  0  0  0  0  0  0  0  0
   21.7375  -21.2497  -12.4657 C   0  0  1  0  0  0  0  0  0  0  0  0
   21.1066  -22.5636  -12.8459 C   0  0  0  0  0  0  0  0  0  0  0  0
   19.7187  -22.3620  -13.3585 C   0  0  0  0  0  0  0  0  0  0  0  0
   19.1106  -23.7272  -13.5177 C   0  0  0  0  0  0  0  0  0  0  0  0
   19.8544  -24.7150  -13.4388 O   0  0  0  0  0  0  0  0  0  0  0  0
   20.9864  -20.5089  -11.4399 C   0  0  0  0  0  0  0  0  0  0  0  0
   19.9825  -19.6069  -11.7046 O   0  0  0  0  0  0  0  0  0  0  0  0
   17.7695  -23.9119  -13.7451 O   0  0  0  0  0  0  0  0  0  0  0  0
   21.2659  -20.6957  -10.2077 O   0  0  0  0  0  0  0  0  0  0  0  0
  2  1  1  6
  2  3  1  0
  3  4  1  0
  4  9  2  0
  5  6  2  0
  5  4  1  0
  6  7  1  0
  7  8  2  0
  9  8  1  0
 10  2  1  0
 11 10  2  0
 12 10  1  0
 13 12  1  0
 14 15  1  0
 13 14  1  1
 15 23  1  0
 16 17  1  0
 16 15  2  0
 17 18  1  0
 18 23  2  0
 18 19  1  0
 19 20  2  0
 20 21  1  0
 22 21  2  0
 23 22  1  0
 24 13  1  0
 24 25  2  0
 26 24  1  0
 27 26  1  0
 27 28  1  1
 28 29  1  0
 29 30  1  0
 30 34  1  0
 30 31  2  0
 32 27  1  0
 33 32  1  0
 35 32  2  0
M  END
$$$$
