MKN.pdb
     RDKit          3D

 26 25  0  0  1  0  0  0  0  0999 V2000
    6.2128  -11.2011   26.7706 C   0  0  0  0  0  0  0  0  0  0  0  0
    6.8957  -12.4254   27.9309 S   0  0  0  0  0  0  0  0  0  0  0  0
    6.3702  -14.0828   27.3616 C   0  0  0  0  0  0  0  0  0  0  0  0
    7.1088  -14.4121   26.1041 C   0  0  0  0  0  0  0  0  0  0  0  0
    6.6972  -15.7204   25.4779 C   0  0  2  0  0  0  0  0  0  0  0  0
    6.9214  -16.8261   26.3668 N   0  0  0  0  0  0  0  0  0  0  0  0
    7.4144  -15.8726   24.1884 C   0  0  0  0  0  0  0  0  0  0  0  0
    8.1410  -16.8650   23.9784 O   0  0  0  0  0  0  0  0  0  0  0  0
    7.3062  -14.8896   23.1312 N   0  0  0  0  0  0  0  0  0  0  0  0
    8.0058  -15.0462   21.8990 C   0  0  1  0  0  0  0  0  0  0  0  0
    7.6947  -14.1623   20.7686 C   0  0  0  0  0  0  0  0  0  0  0  0
    8.2282  -14.3851   19.4232 C   0  0  0  0  0  0  0  0  0  0  0  0
    7.7141  -13.5180   18.3275 C   0  0  0  0  0  0  0  0  0  0  0  0
    8.3006  -13.9818   16.9909 C   0  0  0  0  0  0  0  0  0  0  0  0
    7.7194  -13.2015   15.9053 N   0  0  0  0  0  0  0  0  0  0  0  0
    9.4907  -15.1682   22.1394 C   0  0  0  0  0  0  0  0  0  0  0  0
   10.0404  -14.6214   23.1389 O   0  0  0  0  0  0  0  0  0  0  0  0
   13.3949  -17.5292   24.6580 N   0  0  0  0  0  0  0  0  0  0  0  0
   12.8688  -16.6422   23.6838 C   0  0  0  0  0  0  0  0  0  0  0  0
   13.4476  -15.5408   23.5228 O   0  0  0  0  0  0  0  0  0  0  0  0
   11.6783  -17.0669   22.9226 C   0  0  0  0  0  0  0  0  0  0  0  0
   11.6548  -16.3701   21.6045 C   0  0  2  0  0  0  0  0  0  0  0  0
   10.3206  -15.8948   21.2618 N   0  0  0  0  0  0  0  0  0  0  0  0
   12.1534  -17.1851   20.4897 C   0  0  0  0  0  0  0  0  0  0  0  0
   13.3643  -16.9065   19.8952 O   0  0  0  0  0  0  0  0  0  0  0  0
   11.4780  -18.1463   20.0654 O   0  0  0  0  0  0  0  0  0  0  0  0
  2  1  1  0
  3  2  1  0
  4  3  1  0
  4  5  1  0
  5  7  1  0
  5  6  1  1
  7  8  2  0
  9 10  1  0
  9  7  1  0
 10 11  1  6
 12 11  1  0
 13 14  1  0
 13 12  1  0
 15 14  1  0
 16 17  2  0
 16 10  1  0
 18 19  1  0
 19 21  1  0
 20 19  2  0
 22 21  1  1
 22 23  1  0
 22 24  1  0
 23 16  1  0
 24 25  1  0
 26 24  2  0
M  END
$$$$
