MKN.pdb
     RDKit          3D

 26 25  0  0  1  0  0  0  0  0999 V2000
    8.1328  -12.3904   28.2716 C   0  0  0  0  0  0  0  0  0  0  0  0
    6.8552  -12.1720   26.9943 S   0  0  0  0  0  0  0  0  0  0  0  0
    5.8429  -13.6955   26.9560 C   0  0  0  0  0  0  0  0  0  0  0  0
    6.4729  -14.6637   26.0067 C   0  0  0  0  0  0  0  0  0  0  0  0
    7.4469  -14.0314   25.0451 C   0  0  2  0  0  0  0  0  0  0  0  0
    6.8296  -12.9860   24.2777 N   0  0  0  0  0  0  0  0  0  0  0  0
    8.0266  -15.0973   24.1917 C   0  0  0  0  0  0  0  0  0  0  0  0
    8.0032  -16.2893   24.5596 O   0  0  0  0  0  0  0  0  0  0  0  0
    8.6384  -14.8061   22.9123 N   0  0  0  0  0  0  0  0  0  0  0  0
    9.1610  -15.8444   22.0872 C   0  0  1  0  0  0  0  0  0  0  0  0
    9.2344  -15.6508   20.6336 C   0  0  0  0  0  0  0  0  0  0  0  0
    8.3588  -14.7214   19.9166 C   0  0  0  0  0  0  0  0  0  0  0  0
    8.7095  -14.3955   18.5068 C   0  0  0  0  0  0  0  0  0  0  0  0
    7.7452  -13.3319   17.9733 C   0  0  0  0  0  0  0  0  0  0  0  0
    8.1614  -12.9212   16.6378 N   0  0  0  0  0  0  0  0  0  0  0  0
   10.4490  -16.3842   22.6593 C   0  0  0  0  0  0  0  0  0  0  0  0
   11.2441  -15.6394   23.3022 O   0  0  0  0  0  0  0  0  0  0  0  0
   12.2005  -19.7045   25.7019 N   0  0  0  0  0  0  0  0  0  0  0  0
   11.3917  -20.0113   24.5775 C   0  0  0  0  0  0  0  0  0  0  0  0
   10.2430  -20.4685   24.7909 O   0  0  0  0  0  0  0  0  0  0  0  0
   11.9479  -19.7750   23.2315 C   0  0  0  0  0  0  0  0  0  0  0  0
   12.0625  -18.3081   22.9900 C   0  0  2  0  0  0  0  0  0  0  0  0
   10.8150  -17.7361   22.5002 N   0  0  0  0  0  0  0  0  0  0  0  0
   13.1353  -17.9387   22.0581 C   0  0  0  0  0  0  0  0  0  0  0  0
   14.4136  -17.6962   22.5104 O   0  0  0  0  0  0  0  0  0  0  0  0
   12.8968  -17.8390   20.8362 O   0  0  0  0  0  0  0  0  0  0  0  0
  2  1  1  0
  3  2  1  0
  4  3  1  0
  4  5  1  0
  5  7  1  0
  5  6  1  6
  7  8  2  0
  9 10  1  0
  9  7  1  0
 10 11  1  6
 12 11  1  0
 13 14  1  0
 13 12  1  0
 15 14  1  0
 16 17  2  0
 16 10  1  0
 18 19  1  0
 19 21  1  0
 20 19  2  0
 22 21  1  6
 22 23  1  0
 22 24  1  0
 23 16  1  0
 24 25  1  0
 26 24  2  0
M  END
$$$$
