MKN.pdb
     RDKit          3D

 26 25  0  0  1  0  0  0  0  0999 V2000
    6.9347  -11.1367   26.2053 C   0  0  0  0  0  0  0  0  0  0  0  0
    6.9670  -12.4889   27.4227 S   0  0  0  0  0  0  0  0  0  0  0  0
    6.3053  -13.9864   26.6062 C   0  0  0  0  0  0  0  0  0  0  0  0
    7.2624  -14.4108   25.5389 C   0  0  0  0  0  0  0  0  0  0  0  0
    6.8077  -15.6144   24.7529 C   0  0  2  0  0  0  0  0  0  0  0  0
    6.5871  -16.7498   25.6044 N   0  0  0  0  0  0  0  0  0  0  0  0
    7.8040  -15.8867   23.6882 C   0  0  0  0  0  0  0  0  0  0  0  0
    8.3236  -17.0156   23.5775 O   0  0  0  0  0  0  0  0  0  0  0  0
    8.2135  -14.8686   22.7440 N   0  0  0  0  0  0  0  0  0  0  0  0
    9.0689  -15.1770   21.6461 C   0  0  1  0  0  0  0  0  0  0  0  0
    9.0371  -14.3380   20.4414 C   0  0  0  0  0  0  0  0  0  0  0  0
    7.8229  -14.1468   19.6455 C   0  0  0  0  0  0  0  0  0  0  0  0
    7.9557  -13.4197   18.3529 C   0  0  0  0  0  0  0  0  0  0  0  0
    6.5841  -13.3212   17.6788 C   0  0  0  0  0  0  0  0  0  0  0  0
    6.7050  -12.5756   16.4319 N   0  0  0  0  0  0  0  0  0  0  0  0
   10.4759  -15.4421   22.1230 C   0  0  0  0  0  0  0  0  0  0  0  0
   11.2627  -14.4925   22.4049 O   0  0  0  0  0  0  0  0  0  0  0  0
   14.0625  -16.6657   25.5440 N   0  0  0  0  0  0  0  0  0  0  0  0
   12.7573  -17.2202   25.5049 C   0  0  0  0  0  0  0  0  0  0  0  0
   12.5097  -18.1868   26.2655 O   0  0  0  0  0  0  0  0  0  0  0  0
   11.7747  -16.6293   24.5763 C   0  0  0  0  0  0  0  0  0  0  0  0
   12.0308  -17.1293   23.1951 C   0  0  2  0  0  0  0  0  0  0  0  0
   10.9668  -16.7549   22.2726 N   0  0  0  0  0  0  0  0  0  0  0  0
   12.2212  -18.5828   23.1124 C   0  0  0  0  0  0  0  0  0  0  0  0
   11.2051  -19.4065   22.6806 O   0  0  0  0  0  0  0  0  0  0  0  0
   13.3153  -19.0906   23.4366 O   0  0  0  0  0  0  0  0  0  0  0  0
  2  1  1  0
  3  2  1  0
  4  3  1  0
  4  5  1  0
  5  7  1  0
  5  6  1  1
  7  8  2  0
  9 10  1  0
  9  7  1  0
 10 11  1  6
 12 11  1  0
 13 14  1  0
 13 12  1  0
 15 14  1  0
 16 17  2  0
 16 10  1  0
 18 19  1  0
 19 21  1  0
 20 19  2  0
 22 21  1  1
 22 23  1  0
 22 24  1  0
 23 16  1  0
 24 25  1  0
 26 24  2  0
M  END
$$$$
