MKN.pdb
     RDKit          3D

 26 25  0  0  1  0  0  0  0  0999 V2000
    7.4253  -11.9055   27.8252 C   0  0  0  0  0  0  0  0  0  0  0  0
    6.2360  -12.4016   26.5404 S   0  0  0  0  0  0  0  0  0  0  0  0
    5.6116  -14.0654   26.9751 C   0  0  0  0  0  0  0  0  0  0  0  0
    5.9141  -14.9988   25.8469 C   0  0  0  0  0  0  0  0  0  0  0  0
    7.3867  -15.2375   25.6289 C   0  0  2  0  0  0  0  0  0  0  0  0
    8.1738  -14.1151   26.0573 N   0  0  0  0  0  0  0  0  0  0  0  0
    7.6041  -15.5726   24.2003 C   0  0  0  0  0  0  0  0  0  0  0  0
    7.2837  -16.6930   23.7543 O   0  0  0  0  0  0  0  0  0  0  0  0
    8.1908  -14.6285   23.2728 N   0  0  0  0  0  0  0  0  0  0  0  0
    8.5132  -15.0054   21.9363 C   0  0  1  0  0  0  0  0  0  0  0  0
    8.1587  -14.1148   20.8240 C   0  0  0  0  0  0  0  0  0  0  0  0
    8.4275  -14.4548   19.4252 C   0  0  0  0  0  0  0  0  0  0  0  0
    8.0807  -13.4400   18.3924 C   0  0  0  0  0  0  0  0  0  0  0  0
    8.4070  -13.9937   17.0022 C   0  0  0  0  0  0  0  0  0  0  0  0
    8.0759  -12.9983   15.9898 N   0  0  0  0  0  0  0  0  0  0  0  0
    9.9385  -15.4935   21.8478 C   0  0  0  0  0  0  0  0  0  0  0  0
   10.8053  -15.1447   22.7005 O   0  0  0  0  0  0  0  0  0  0  0  0
   13.8049  -18.2180   23.0477 N   0  0  0  0  0  0  0  0  0  0  0  0
   12.7986  -18.7906   22.2278 C   0  0  0  0  0  0  0  0  0  0  0  0
   13.0611  -19.8728   21.6499 O   0  0  0  0  0  0  0  0  0  0  0  0
   11.5104  -18.0818   22.1050 C   0  0  0  0  0  0  0  0  0  0  0  0
   11.5326  -17.2140   20.8926 C   0  0  2  0  0  0  0  0  0  0  0  0
   10.3581  -16.3551   20.8142 N   0  0  0  0  0  0  0  0  0  0  0  0
   11.6457  -17.9552   19.6303 C   0  0  0  0  0  0  0  0  0  0  0  0
   10.6138  -17.9613   18.7179 O   0  0  0  0  0  0  0  0  0  0  0  0
   12.6872  -18.5936   19.3700 O   0  0  0  0  0  0  0  0  0  0  0  0
  2  1  1  0
  3  2  1  0
  4  3  1  0
  4  5  1  0
  5  7  1  0
  5  6  1  6
  7  8  2  0
  9 10  1  0
  9  7  1  0
 10 11  1  6
 12 11  1  0
 13 14  1  0
 13 12  1  0
 15 14  1  0
 16 17  2  0
 16 10  1  0
 18 19  1  0
 19 21  1  0
 20 19  2  0
 22 21  1  1
 22 23  1  0
 22 24  1  0
 23 16  1  0
 24 25  1  0
 26 24  2  0
M  END
$$$$
