MKN.pdb
     RDKit          3D

 26 25  0  0  1  0  0  0  0  0999 V2000
    6.4327  -10.8531   27.3285 C   0  0  0  0  0  0  0  0  0  0  0  0
    7.1986  -12.4660   26.9770 S   0  0  0  0  0  0  0  0  0  0  0  0
    5.8551  -13.6446   26.5855 C   0  0  0  0  0  0  0  0  0  0  0  0
    6.4378  -14.8026   25.8406 C   0  0  0  0  0  0  0  0  0  0  0  0
    7.7692  -14.5084   25.1973 C   0  0  2  0  0  0  0  0  0  0  0  0
    7.8789  -13.1282   24.8155 N   0  0  0  0  0  0  0  0  0  0  0  0
    7.9540  -15.4322   24.0515 C   0  0  0  0  0  0  0  0  0  0  0  0
    7.7814  -16.6600   24.1906 O   0  0  0  0  0  0  0  0  0  0  0  0
    8.3390  -14.9572   22.7392 N   0  0  0  0  0  0  0  0  0  0  0  0
    8.6313  -15.8643   21.6790 C   0  0  1  0  0  0  0  0  0  0  0  0
    8.4994  -15.4209   20.2855 C   0  0  0  0  0  0  0  0  0  0  0  0
    8.7915  -16.2963   19.1485 C   0  0  0  0  0  0  0  0  0  0  0  0
    7.7255  -17.2423   18.7176 C   0  0  0  0  0  0  0  0  0  0  0  0
    8.1759  -17.9776   17.4519 C   0  0  0  0  0  0  0  0  0  0  0  0
    7.0498  -18.7103   16.8858 N   0  0  0  0  0  0  0  0  0  0  0  0
    9.9360  -16.5793   21.9320 C   0  0  0  0  0  0  0  0  0  0  0  0
   10.2438  -17.6275   21.2944 O   0  0  0  0  0  0  0  0  0  0  0  0
   15.1321  -16.0267   24.5718 N   0  0  0  0  0  0  0  0  0  0  0  0
   14.5578  -15.8212   23.2909 C   0  0  0  0  0  0  0  0  0  0  0  0
   15.2728  -16.0512   22.2859 O   0  0  0  0  0  0  0  0  0  0  0  0
   13.1609  -15.3516   23.2188 C   0  0  0  0  0  0  0  0  0  0  0  0
   12.2612  -16.5058   22.9331 C   0  0  2  0  0  0  0  0  0  0  0  0
   10.8603  -16.1077   22.8861 N   0  0  0  0  0  0  0  0  0  0  0  0
   12.3926  -17.6150   23.8860 C   0  0  0  0  0  0  0  0  0  0  0  0
   11.5966  -17.6824   25.0082 O   0  0  0  0  0  0  0  0  0  0  0  0
   13.2354  -18.5151   23.6872 O   0  0  0  0  0  0  0  0  0  0  0  0
  2  1  1  0
  3  2  1  0
  4  3  1  0
  4  5  1  0
  5  7  1  0
  5  6  1  6
  7  8  2  0
  9 10  1  0
  9  7  1  0
 10 11  1  6
 12 11  1  0
 13 14  1  0
 13 12  1  0
 15 14  1  0
 16 17  2  0
 16 10  1  0
 18 19  1  0
 19 21  1  0
 20 19  2  0
 22 21  1  1
 22 23  1  0
 22 24  1  0
 23 16  1  0
 24 25  1  0
 26 24  2  0
M  END
$$$$
