MKN.pdb
     RDKit          3D

 26 25  0  0  1  0  0  0  0  0999 V2000
    6.4135  -10.9378   26.2521 C   0  0  0  0  0  0  0  0  0  0  0  0
    6.6984  -12.0687   27.6490 S   0  0  0  0  0  0  0  0  0  0  0  0
    6.2162  -13.7491   27.1097 C   0  0  0  0  0  0  0  0  0  0  0  0
    7.1481  -14.1887   26.0262 C   0  0  0  0  0  0  0  0  0  0  0  0
    6.7687  -15.5011   25.3885 C   0  0  2  0  0  0  0  0  0  0  0  0
    6.6590  -16.5506   26.3629 N   0  0  0  0  0  0  0  0  0  0  0  0
    7.7559  -15.8123   24.3260 C   0  0  0  0  0  0  0  0  0  0  0  0
    8.2580  -16.9511   24.2385 O   0  0  0  0  0  0  0  0  0  0  0  0
    8.1763  -14.8219   23.3573 N   0  0  0  0  0  0  0  0  0  0  0  0
    8.1194  -15.0838   21.9572 C   0  0  1  0  0  0  0  0  0  0  0  0
    7.4605  -14.1227   21.0638 C   0  0  0  0  0  0  0  0  0  0  0  0
    7.3260  -14.3493   19.6233 C   0  0  0  0  0  0  0  0  0  0  0  0
    7.5778  -13.1935   18.7192 C   0  0  0  0  0  0  0  0  0  0  0  0
    8.0256  -13.7061   17.3472 C   0  0  0  0  0  0  0  0  0  0  0  0
    8.3738  -12.5767   16.4935 N   0  0  0  0  0  0  0  0  0  0  0  0
    9.4695  -15.5154   21.4391 C   0  0  0  0  0  0  0  0  0  0  0  0
    9.5761  -16.2224   20.3956 O   0  0  0  0  0  0  0  0  0  0  0  0
   12.4740  -17.8211   25.5204 N   0  0  0  0  0  0  0  0  0  0  0  0
   11.9133  -17.9424   24.2229 C   0  0  0  0  0  0  0  0  0  0  0  0
   12.2530  -18.9312   23.5294 O   0  0  0  0  0  0  0  0  0  0  0  0
   10.9691  -16.9031   23.7700 C   0  0  0  0  0  0  0  0  0  0  0  0
   11.5972  -16.0987   22.6828 C   0  0  2  0  0  0  0  0  0  0  0  0
   10.6613  -15.1483   22.0962 N   0  0  0  0  0  0  0  0  0  0  0  0
   12.1730  -16.9058   21.5998 C   0  0  0  0  0  0  0  0  0  0  0  0
   12.9295  -18.0235   21.8752 O   0  0  0  0  0  0  0  0  0  0  0  0
   11.9816  -16.5831   20.4085 O   0  0  0  0  0  0  0  0  0  0  0  0
  2  1  1  0
  3  2  1  0
  4  3  1  0
  4  5  1  0
  5  7  1  0
  5  6  1  1
  7  8  2  0
  9 10  1  0
  9  7  1  0
 10 11  1  6
 12 11  1  0
 13 14  1  0
 13 12  1  0
 15 14  1  0
 16 17  2  0
 16 10  1  0
 18 19  1  0
 19 21  1  0
 20 19  2  0
 22 21  1  1
 22 23  1  0
 22 24  1  0
 23 16  1  0
 24 25  1  0
 26 24  2  0
M  END
$$$$
