MKN.pdb
     RDKit          3D

 26 25  0  0  1  0  0  0  0  0999 V2000
    8.7255  -11.7635   20.4725 C   0  0  0  0  0  0  0  0  0  0  0  0
    7.8985  -12.2702   18.9328 S   0  0  0  0  0  0  0  0  0  0  0  0
    7.7254  -14.0912   18.9695 C   0  0  0  0  0  0  0  0  0  0  0  0
    7.8277  -14.5522   20.3881 C   0  0  0  0  0  0  0  0  0  0  0  0
    7.7940  -16.0509   20.5481 C   0  0  2  0  0  0  0  0  0  0  0  0
    6.5831  -16.6125   20.0178 N   0  0  0  0  0  0  0  0  0  0  0  0
    7.9924  -16.3771   21.9815 C   0  0  0  0  0  0  0  0  0  0  0  0
    7.0578  -16.2484   22.7980 O   0  0  0  0  0  0  0  0  0  0  0  0
    9.2621  -16.8512   22.4905 N   0  0  0  0  0  0  0  0  0  0  0  0
    9.4628  -17.0820   23.8828 C   0  0  1  0  0  0  0  0  0  0  0  0
   10.3051  -18.2024   24.3202 C   0  0  0  0  0  0  0  0  0  0  0  0
   10.5373  -18.5096   25.7331 C   0  0  0  0  0  0  0  0  0  0  0  0
   11.3622  -19.7081   26.0493 C   0  0  0  0  0  0  0  0  0  0  0  0
   12.4430  -19.3306   27.0666 C   0  0  0  0  0  0  0  0  0  0  0  0
   12.0871  -19.8612   28.3771 N   0  0  0  0  0  0  0  0  0  0  0  0
    9.8056  -15.7956   24.5936 C   0  0  0  0  0  0  0  0  0  0  0  0
   10.8299  -15.1243   24.2772 O   0  0  0  0  0  0  0  0  0  0  0  0
    5.7592  -12.6969   26.3109 N   0  0  0  0  0  0  0  0  0  0  0  0
    6.8558  -13.5841   26.1595 C   0  0  0  0  0  0  0  0  0  0  0  0
    6.6213  -14.8159   26.2006 O   0  0  0  0  0  0  0  0  0  0  0  0
    8.1995  -13.0069   25.9637 C   0  0  0  0  0  0  0  0  0  0  0  0
    9.2339  -14.0235   26.3102 C   0  0  2  0  0  0  0  0  0  0  0  0
    8.9994  -15.2933   25.6351 N   0  0  0  0  0  0  0  0  0  0  0  0
    9.3563  -14.2835   27.7501 C   0  0  0  0  0  0  0  0  0  0  0  0
    9.2787  -15.5659   28.2470 O   0  0  0  0  0  0  0  0  0  0  0  0
    9.5323  -13.3363   28.5449 O   0  0  0  0  0  0  0  0  0  0  0  0
  2  1  1  0
  3  2  1  0
  4  3  1  0
  4  5  1  0
  5  7  1  0
  5  6  1  1
  7  8  2  0
  9 10  1  0
  9  7  1  0
 10 11  1  6
 12 11  1  0
 13 14  1  0
 13 12  1  0
 15 14  1  0
 16 17  2  0
 16 10  1  0
 18 19  1  0
 19 21  1  0
 20 19  2  0
 22 21  1  1
 22 23  1  0
 22 24  1  0
 23 16  1  0
 24 25  1  0
 26 24  2  0
M  END
$$$$
