MKN.pdb
     RDKit          3D

 26 25  0  0  1  0  0  0  0  0999 V2000
    7.7296  -12.0383   21.0409 C   0  0  0  0  0  0  0  0  0  0  0  0
    8.0081  -12.2040   19.2502 S   0  0  0  0  0  0  0  0  0  0  0  0
    7.5321  -13.9040   18.7698 C   0  0  0  0  0  0  0  0  0  0  0  0
    7.6663  -14.7931   19.9643 C   0  0  0  0  0  0  0  0  0  0  0  0
    8.4459  -16.0566   19.7018 C   0  0  2  0  0  0  0  0  0  0  0  0
    7.9263  -16.7736   18.5710 N   0  0  0  0  0  0  0  0  0  0  0  0
    8.4513  -16.8735   20.9399 C   0  0  0  0  0  0  0  0  0  0  0  0
    8.9859  -16.4443   21.9824 O   0  0  0  0  0  0  0  0  0  0  0  0
    7.8465  -18.1878   20.9930 N   0  0  0  0  0  0  0  0  0  0  0  0
    8.0309  -19.0436   22.1180 C   0  0  1  0  0  0  0  0  0  0  0  0
    7.2972  -20.3132   22.1939 C   0  0  0  0  0  0  0  0  0  0  0  0
    6.4374  -20.6606   23.3273 C   0  0  0  0  0  0  0  0  0  0  0  0
    5.7324  -21.9711   23.2790 C   0  0  0  0  0  0  0  0  0  0  0  0
    4.8640  -22.1306   24.5304 C   0  0  0  0  0  0  0  0  0  0  0  0
    4.1156  -23.3791   24.4498 N   0  0  0  0  0  0  0  0  0  0  0  0
    9.4985  -19.2103   22.4277 C   0  0  0  0  0  0  0  0  0  0  0  0
   10.3142  -19.6055   21.5453 O   0  0  0  0  0  0  0  0  0  0  0  0
   13.5316  -15.6218   23.2987 N   0  0  0  0  0  0  0  0  0  0  0  0
   13.1879  -16.9957   23.3821 C   0  0  0  0  0  0  0  0  0  0  0  0
   14.0868  -17.8038   23.7183 O   0  0  0  0  0  0  0  0  0  0  0  0
   11.8006  -17.3891   23.0698 C   0  0  0  0  0  0  0  0  0  0  0  0
   11.3873  -18.5097   23.9625 C   0  0  2  0  0  0  0  0  0  0  0  0
   10.0161  -18.9326   23.7090 N   0  0  0  0  0  0  0  0  0  0  0  0
   11.5200  -18.2122   25.3941 C   0  0  0  0  0  0  0  0  0  0  0  0
   12.7370  -18.3211   26.0300 O   0  0  0  0  0  0  0  0  0  0  0  0
   10.5218  -17.8556   26.0549 O   0  0  0  0  0  0  0  0  0  0  0  0
  2  1  1  0
  3  2  1  0
  4  3  1  0
  4  5  1  0
  5  7  1  0
  5  6  1  6
  7  8  2  0
  9 10  1  0
  9  7  1  0
 10 11  1  6
 12 11  1  0
 13 14  1  0
 13 12  1  0
 15 14  1  0
 16 17  2  0
 16 10  1  0
 18 19  1  0
 19 21  1  0
 20 19  2  0
 22 21  1  6
 22 23  1  0
 22 24  1  0
 23 16  1  0
 24 25  1  0
 26 24  2  0
M  END
$$$$
