MKN.pdb
     RDKit          3D

 26 25  0  0  1  0  0  0  0  0999 V2000
    8.8010  -12.7921   28.5845 C   0  0  0  0  0  0  0  0  0  0  0  0
    7.4805  -11.7366   27.9109 S   0  0  0  0  0  0  0  0  0  0  0  0
    6.2157  -12.8334   27.1729 C   0  0  0  0  0  0  0  0  0  0  0  0
    6.9043  -13.8496   26.3194 C   0  0  0  0  0  0  0  0  0  0  0  0
    6.9777  -13.4747   24.8609 C   0  0  2  0  0  0  0  0  0  0  0  0
    5.7046  -13.0338   24.3633 N   0  0  0  0  0  0  0  0  0  0  0  0
    7.5154  -14.6309   24.1029 C   0  0  0  0  0  0  0  0  0  0  0  0
    8.0128  -15.6068   24.7004 O   0  0  0  0  0  0  0  0  0  0  0  0
    7.4890  -14.6774   22.6562 N   0  0  0  0  0  0  0  0  0  0  0  0
    8.1129  -15.7385   21.9373 C   0  0  1  0  0  0  0  0  0  0  0  0
    7.9246  -15.8421   20.4847 C   0  0  0  0  0  0  0  0  0  0  0  0
    7.5929  -14.6867   19.6483 C   0  0  0  0  0  0  0  0  0  0  0  0
    8.3397  -14.5265   18.3702 C   0  0  0  0  0  0  0  0  0  0  0  0
    7.7986  -13.3113   17.6112 C   0  0  0  0  0  0  0  0  0  0  0  0
    8.5954  -13.0909   16.4103 N   0  0  0  0  0  0  0  0  0  0  0  0
    9.5610  -15.8770   22.3388 C   0  0  0  0  0  0  0  0  0  0  0  0
   10.2071  -14.8976   22.8115 O   0  0  0  0  0  0  0  0  0  0  0  0
   13.4788  -18.4034   24.3717 N   0  0  0  0  0  0  0  0  0  0  0  0
   12.2123  -18.7475   24.9102 C   0  0  0  0  0  0  0  0  0  0  0  0
   12.1902  -19.4442   25.9534 O   0  0  0  0  0  0  0  0  0  0  0  0
   11.0033  -18.2673   24.2140 C   0  0  0  0  0  0  0  0  0  0  0  0
   11.4002  -17.4840   23.0089 C   0  0  2  0  0  0  0  0  0  0  0  0
   10.2482  -17.1002   22.2032 N   0  0  0  0  0  0  0  0  0  0  0  0
   12.3610  -18.1735   22.1388 C   0  0  0  0  0  0  0  0  0  0  0  0
   11.9309  -18.9929   21.1185 O   0  0  0  0  0  0  0  0  0  0  0  0
   13.5879  -18.0233   22.3177 O   0  0  0  0  0  0  0  0  0  0  0  0
  2  1  1  0
  3  2  1  0
  4  3  1  0
  4  5  1  0
  5  7  1  0
  5  6  1  6
  7  8  2  0
  9 10  1  0
  9  7  1  0
 10 11  1  6
 12 11  1  0
 13 14  1  0
 13 12  1  0
 15 14  1  0
 16 17  2  0
 16 10  1  0
 18 19  1  0
 19 21  1  0
 20 19  2  0
 22 21  1  1
 22 23  1  0
 22 24  1  0
 23 16  1  0
 24 25  1  0
 26 24  2  0
M  END
$$$$
