MKN.pdb
     RDKit          3D

 26 25  0  0  1  0  0  0  0  0999 V2000
    5.8591  -11.1653   25.2194 C   0  0  0  0  0  0  0  0  0  0  0  0
    6.7343  -12.1535   26.4720 S   0  0  0  0  0  0  0  0  0  0  0  0
    5.7615  -13.6767   26.7560 C   0  0  0  0  0  0  0  0  0  0  0  0
    6.3536  -14.7806   25.9399 C   0  0  0  0  0  0  0  0  0  0  0  0
    7.7167  -14.4633   25.3793 C   0  0  2  0  0  0  0  0  0  0  0  0
    7.6630  -13.3780   24.4401 N   0  0  0  0  0  0  0  0  0  0  0  0
    8.2833  -15.7000   24.7878 C   0  0  0  0  0  0  0  0  0  0  0  0
    8.2568  -16.7762   25.4186 O   0  0  0  0  0  0  0  0  0  0  0  0
    8.8854  -15.7132   23.4714 N   0  0  0  0  0  0  0  0  0  0  0  0
    9.5604  -16.8672   22.9766 C   0  0  1  0  0  0  0  0  0  0  0  0
    9.9678  -16.9229   21.5670 C   0  0  0  0  0  0  0  0  0  0  0  0
   10.6241  -18.0938   20.9815 C   0  0  0  0  0  0  0  0  0  0  0  0
    9.9373  -18.7712   19.8474 C   0  0  0  0  0  0  0  0  0  0  0  0
   10.7670  -19.9761   19.3939 C   0  0  0  0  0  0  0  0  0  0  0  0
   10.1117  -20.6228   18.2635 N   0  0  0  0  0  0  0  0  0  0  0  0
   10.6718  -17.2779   23.9111 C   0  0  0  0  0  0  0  0  0  0  0  0
   11.4685  -16.4243   24.3978 O   0  0  0  0  0  0  0  0  0  0  0  0
    9.3803  -19.5109   27.5431 N   0  0  0  0  0  0  0  0  0  0  0  0
   10.7705  -19.3443   27.3146 C   0  0  0  0  0  0  0  0  0  0  0  0
   11.4042  -18.5893   28.0909 O   0  0  0  0  0  0  0  0  0  0  0  0
   11.3839  -20.0656   26.1831 C   0  0  0  0  0  0  0  0  0  0  0  0
   11.9048  -19.0834   25.1895 C   0  0  2  0  0  0  0  0  0  0  0  0
   10.8648  -18.6253   24.2774 N   0  0  0  0  0  0  0  0  0  0  0  0
   13.0305  -19.5830   24.3901 C   0  0  0  0  0  0  0  0  0  0  0  0
   14.3086  -19.6049   24.9033 O   0  0  0  0  0  0  0  0  0  0  0  0
   12.8384  -19.9954   23.2269 O   0  0  0  0  0  0  0  0  0  0  0  0
  2  1  1  0
  3  2  1  0
  4  3  1  0
  4  5  1  0
  5  7  1  0
  5  6  1  6
  7  8  2  0
  9 10  1  0
  9  7  1  0
 10 11  1  6
 12 11  1  0
 13 14  1  0
 13 12  1  0
 15 14  1  0
 16 17  2  0
 16 10  1  0
 18 19  1  0
 19 21  1  0
 20 19  2  0
 22 21  1  1
 22 23  1  0
 22 24  1  0
 23 16  1  0
 24 25  1  0
 26 24  2  0
M  END
$$$$
