MKN.pdb
     RDKit          3D

 26 25  0  0  1  0  0  0  0  0999 V2000
    7.9121  -11.4051   20.5664 C   0  0  0  0  0  0  0  0  0  0  0  0
    8.8992  -12.9252   20.4042 S   0  0  0  0  0  0  0  0  0  0  0  0
    7.7455  -14.3010   20.0531 C   0  0  0  0  0  0  0  0  0  0  0  0
    7.4660  -15.0274   21.3297 C   0  0  0  0  0  0  0  0  0  0  0  0
    6.5046  -16.1791   21.1802 C   0  0  2  0  0  0  0  0  0  0  0  0
    5.2127  -15.7356   20.7360 N   0  0  0  0  0  0  0  0  0  0  0  0
    6.4426  -16.9123   22.4682 C   0  0  0  0  0  0  0  0  0  0  0  0
    6.0162  -16.3524   23.4985 O   0  0  0  0  0  0  0  0  0  0  0  0
    6.8695  -18.2906   22.5862 N   0  0  0  0  0  0  0  0  0  0  0  0
    6.7285  -19.0079   23.8100 C   0  0  1  0  0  0  0  0  0  0  0  0
    6.2942  -20.4104   23.7850 C   0  0  0  0  0  0  0  0  0  0  0  0
    6.0350  -21.1774   25.0051 C   0  0  0  0  0  0  0  0  0  0  0  0
    5.6676  -22.6120   24.8502 C   0  0  0  0  0  0  0  0  0  0  0  0
    5.5097  -23.2512   26.2329 C   0  0  0  0  0  0  0  0  0  0  0  0
    5.2659  -24.6810   26.0852 N   0  0  0  0  0  0  0  0  0  0  0  0
    7.9323  -18.7964   24.6951 C   0  0  0  0  0  0  0  0  0  0  0  0
    9.0907  -18.6606   24.2053 O   0  0  0  0  0  0  0  0  0  0  0  0
    9.5400  -17.8651   30.4582 N   0  0  0  0  0  0  0  0  0  0  0  0
    9.7773  -17.6509   29.0760 C   0  0  0  0  0  0  0  0  0  0  0  0
   10.9580  -17.4319   28.7126 O   0  0  0  0  0  0  0  0  0  0  0  0
    8.6264  -17.6983   28.1540 C   0  0  0  0  0  0  0  0  0  0  0  0
    8.9414  -18.6011   27.0098 C   0  0  2  0  0  0  0  0  0  0  0  0
    7.8130  -18.7418   26.0985 N   0  0  0  0  0  0  0  0  0  0  0  0
    9.3784  -19.9439   27.4118 C   0  0  0  0  0  0  0  0  0  0  0  0
    8.5130  -20.8112   28.0412 O   0  0  0  0  0  0  0  0  0  0  0  0
   10.5494  -20.3152   27.1861 O   0  0  0  0  0  0  0  0  0  0  0  0
  2  1  1  0
  3  2  1  0
  4  3  1  0
  4  5  1  0
  5  7  1  0
  5  6  1  1
  7  8  2  0
  9 10  1  0
  9  7  1  0
 10 11  1  6
 12 11  1  0
 13 14  1  0
 13 12  1  0
 15 14  1  0
 16 17  2  0
 16 10  1  0
 18 19  1  0
 19 21  1  0
 20 19  2  0
 22 21  1  1
 22 23  1  0
 22 24  1  0
 23 16  1  0
 24 25  1  0
 26 24  2  0
M  END
$$$$
