MKN.pdb
     RDKit          3D

 26 25  0  0  1  0  0  0  0  0999 V2000
    7.3556  -12.3031   28.2899 C   0  0  0  0  0  0  0  0  0  0  0  0
    6.9874  -11.7355   26.6007 S   0  0  0  0  0  0  0  0  0  0  0  0
    5.7882  -12.9086   25.8703 C   0  0  0  0  0  0  0  0  0  0  0  0
    6.5177  -14.1518   25.4733 C   0  0  0  0  0  0  0  0  0  0  0  0
    7.6169  -13.9212   24.4675 C   0  0  2  0  0  0  0  0  0  0  0  0
    7.1275  -13.2563   23.2922 N   0  0  0  0  0  0  0  0  0  0  0  0
    8.2559  -15.2240   24.1597 C   0  0  0  0  0  0  0  0  0  0  0  0
    8.3868  -16.0928   25.0456 O   0  0  0  0  0  0  0  0  0  0  0  0
    8.7506  -15.5408   22.8366 N   0  0  0  0  0  0  0  0  0  0  0  0
    9.5051  -16.7251   22.5913 C   0  0  1  0  0  0  0  0  0  0  0  0
    9.6176  -17.2455   21.2229 C   0  0  0  0  0  0  0  0  0  0  0  0
    8.4492  -17.5003   20.3777 C   0  0  0  0  0  0  0  0  0  0  0  0
    8.6963  -17.8747   18.9580 C   0  0  0  0  0  0  0  0  0  0  0  0
    7.3706  -18.2537   18.2913 C   0  0  0  0  0  0  0  0  0  0  0  0
    7.5934  -18.5151   16.8744 N   0  0  0  0  0  0  0  0  0  0  0  0
   10.8401  -16.6629   23.2923 C   0  0  0  0  0  0  0  0  0  0  0  0
   11.3005  -15.5691   23.7304 O   0  0  0  0  0  0  0  0  0  0  0  0
   12.2836  -20.2356   26.9303 N   0  0  0  0  0  0  0  0  0  0  0  0
   11.4594  -19.0825   26.9910 C   0  0  0  0  0  0  0  0  0  0  0  0
   11.2122  -18.5995   28.1222 O   0  0  0  0  0  0  0  0  0  0  0  0
   10.9454  -18.5239   25.7258 C   0  0  0  0  0  0  0  0  0  0  0  0
   12.0801  -18.2877   24.7878 C   0  0  2  0  0  0  0  0  0  0  0  0
   11.6239  -17.8183   23.4859 N   0  0  0  0  0  0  0  0  0  0  0  0
   12.9364  -19.4621   24.5794 C   0  0  0  0  0  0  0  0  0  0  0  0
   14.0094  -19.7115   25.4062 O   0  0  0  0  0  0  0  0  0  0  0  0
   12.6986  -20.2521   23.6416 O   0  0  0  0  0  0  0  0  0  0  0  0
  2  1  1  0
  3  2  1  0
  4  3  1  0
  4  5  1  0
  5  7  1  0
  5  6  1  6
  7  8  2  0
  9 10  1  0
  9  7  1  0
 10 11  1  6
 12 11  1  0
 13 14  1  0
 13 12  1  0
 15 14  1  0
 16 17  2  0
 16 10  1  0
 18 19  1  0
 19 21  1  0
 20 19  2  0
 22 21  1  1
 22 23  1  0
 22 24  1  0
 23 16  1  0
 24 25  1  0
 26 24  2  0
M  END
$$$$
