MKN.pdb
     RDKit          3D

 26 25  0  0  1  0  0  0  0  0999 V2000
    7.6283  -22.4320   25.8011 C   0  0  0  0  0  0  0  0  0  0  0  0
    5.9879  -21.7054   25.4971 S   0  0  0  0  0  0  0  0  0  0  0  0
    5.6896  -21.7443   23.6925 C   0  0  0  0  0  0  0  0  0  0  0  0
    6.6556  -20.8160   23.0287 C   0  0  0  0  0  0  0  0  0  0  0  0
    6.3840  -19.3573   23.2960 C   0  0  2  0  0  0  0  0  0  0  0  0
    5.1289  -18.9413   22.7352 N   0  0  0  0  0  0  0  0  0  0  0  0
    7.5272  -18.5629   22.7838 C   0  0  0  0  0  0  0  0  0  0  0  0
    8.6642  -19.0690   22.6956 O   0  0  0  0  0  0  0  0  0  0  0  0
    7.3773  -17.1835   22.3704 N   0  0  0  0  0  0  0  0  0  0  0  0
    8.4783  -16.4416   21.8511 C   0  0  1  0  0  0  0  0  0  0  0  0
    8.2384  -15.1570   21.1817 C   0  0  0  0  0  0  0  0  0  0  0  0
    7.9278  -15.0576   19.7540 C   0  0  0  0  0  0  0  0  0  0  0  0
    7.7553  -13.6941   19.1814 C   0  0  0  0  0  0  0  0  0  0  0  0
    7.4501  -13.8034   17.6846 C   0  0  0  0  0  0  0  0  0  0  0  0
    7.3135  -12.4684   17.1151 N   0  0  0  0  0  0  0  0  0  0  0  0
    9.5934  -16.3603   22.8647 C   0  0  0  0  0  0  0  0  0  0  0  0
    9.3880  -15.9177   24.0317 O   0  0  0  0  0  0  0  0  0  0  0  0
   13.6274  -16.6279   25.7779 N   0  0  0  0  0  0  0  0  0  0  0  0
   13.3509  -17.8673   25.1454 C   0  0  0  0  0  0  0  0  0  0  0  0
   14.1395  -18.8201   25.3563 O   0  0  0  0  0  0  0  0  0  0  0  0
   12.1582  -17.9601   24.2817 C   0  0  0  0  0  0  0  0  0  0  0  0
   12.0252  -16.7101   23.4797 C   0  0  2  0  0  0  0  0  0  0  0  0
   10.9040  -16.7737   22.5511 N   0  0  0  0  0  0  0  0  0  0  0  0
   13.2315  -16.3565   22.7211 C   0  0  0  0  0  0  0  0  0  0  0  0
   14.0026  -15.2735   23.0818 O   0  0  0  0  0  0  0  0  0  0  0  0
   13.5722  -17.0394   21.7324 O   0  0  0  0  0  0  0  0  0  0  0  0
  2  1  1  0
  3  2  1  0
  4  3  1  0
  4  5  1  0
  5  7  1  0
  5  6  1  6
  7  8  2  0
  9 10  1  0
  9  7  1  0
 10 11  1  1
 12 11  1  0
 13 14  1  0
 13 12  1  0
 15 14  1  0
 16 17  2  0
 16 10  1  0
 18 19  1  0
 19 21  1  0
 20 19  2  0
 22 21  1  6
 22 23  1  0
 22 24  1  0
 23 16  1  0
 24 25  1  0
 26 24  2  0
M  END
$$$$
