MKN.pdb
     RDKit          3D

 26 25  0  0  1  0  0  0  0  0999 V2000
    9.1943  -11.9541   19.4065 C   0  0  0  0  0  0  0  0  0  0  0  0
    7.4134  -11.8871   19.7745 S   0  0  0  0  0  0  0  0  0  0  0  0
    6.7404  -13.5758   19.5678 C   0  0  0  0  0  0  0  0  0  0  0  0
    7.7064  -14.5508   20.1608 C   0  0  0  0  0  0  0  0  0  0  0  0
    7.3254  -15.9942   19.9502 C   0  0  2  0  0  0  0  0  0  0  0  0
    6.0560  -16.2991   20.5491 N   0  0  0  0  0  0  0  0  0  0  0  0
    8.4195  -16.8515   20.4683 C   0  0  0  0  0  0  0  0  0  0  0  0
    8.5738  -17.0126   21.6959 O   0  0  0  0  0  0  0  0  0  0  0  0
    9.3453  -17.5289   19.5852 N   0  0  0  0  0  0  0  0  0  0  0  0
   10.4249  -18.3057   20.0980 C   0  0  1  0  0  0  0  0  0  0  0  0
   11.1690  -19.1985   19.2005 C   0  0  0  0  0  0  0  0  0  0  0  0
   12.2058  -20.1143   19.6810 C   0  0  0  0  0  0  0  0  0  0  0  0
   11.7954  -21.5084   20.0045 C   0  0  0  0  0  0  0  0  0  0  0  0
   13.0160  -22.3039   20.4765 C   0  0  0  0  0  0  0  0  0  0  0  0
   12.6188  -23.6732   20.7812 N   0  0  0  0  0  0  0  0  0  0  0  0
   11.3381  -17.4562   20.9476 C   0  0  0  0  0  0  0  0  0  0  0  0
   11.5768  -16.2501   20.6501 O   0  0  0  0  0  0  0  0  0  0  0  0
   10.9070  -15.3455   23.7158 N   0  0  0  0  0  0  0  0  0  0  0  0
   11.1760  -16.3142   24.7168 C   0  0  0  0  0  0  0  0  0  0  0  0
   10.5135  -16.2551   25.7806 O   0  0  0  0  0  0  0  0  0  0  0  0
   12.2139  -17.3277   24.4472 C   0  0  0  0  0  0  0  0  0  0  0  0
   12.7165  -17.1675   23.0525 C   0  0  2  0  0  0  0  0  0  0  0  0
   11.9588  -17.9724   22.1031 N   0  0  0  0  0  0  0  0  0  0  0  0
   14.1409  -17.4853   22.8914 C   0  0  0  0  0  0  0  0  0  0  0  0
   14.5503  -18.4917   22.0447 O   0  0  0  0  0  0  0  0  0  0  0  0
   15.0021  -16.8413   23.5267 O   0  0  0  0  0  0  0  0  0  0  0  0
  2  1  1  0
  3  2  1  0
  4  3  1  0
  4  5  1  0
  5  7  1  0
  5  6  1  1
  7  8  2  0
  9 10  1  0
  9  7  1  0
 10 11  1  6
 12 11  1  0
 13 14  1  0
 13 12  1  0
 15 14  1  0
 16 17  2  0
 16 10  1  0
 18 19  1  0
 19 21  1  0
 20 19  2  0
 22 21  1  1
 22 23  1  0
 22 24  1  0
 23 16  1  0
 24 25  1  0
 26 24  2  0
M  END
$$$$
