MKN.pdb
     RDKit          3D

 26 25  0  0  1  0  0  0  0  0999 V2000
    7.9236  -11.0527   19.3697 C   0  0  0  0  0  0  0  0  0  0  0  0
    8.4620  -12.4919   20.3445 S   0  0  0  0  0  0  0  0  0  0  0  0
    6.9677  -13.2662   21.0622 C   0  0  0  0  0  0  0  0  0  0  0  0
    7.3948  -14.3490   22.0005 C   0  0  0  0  0  0  0  0  0  0  0  0
    7.8639  -15.6054   21.3115 C   0  0  2  0  0  0  0  0  0  0  0  0
    6.8094  -16.2179   20.5527 N   0  0  0  0  0  0  0  0  0  0  0  0
    8.4347  -16.5182   22.3320 C   0  0  0  0  0  0  0  0  0  0  0  0
    7.7041  -17.0384   23.1994 O   0  0  0  0  0  0  0  0  0  0  0  0
    9.8456  -16.8406   22.3677 N   0  0  0  0  0  0  0  0  0  0  0  0
   10.3894  -17.6757   23.3870 C   0  0  1  0  0  0  0  0  0  0  0  0
   11.3622  -18.7168   23.0322 C   0  0  0  0  0  0  0  0  0  0  0  0
   11.0496  -19.8042   22.1026 C   0  0  0  0  0  0  0  0  0  0  0  0
   12.1351  -20.7739   21.7891 C   0  0  0  0  0  0  0  0  0  0  0  0
   11.5890  -21.8738   20.8739 C   0  0  0  0  0  0  0  0  0  0  0  0
   12.6522  -22.8209   20.5603 N   0  0  0  0  0  0  0  0  0  0  0  0
   10.8369  -16.8524   24.5700 C   0  0  0  0  0  0  0  0  0  0  0  0
   11.6973  -15.9340   24.4421 O   0  0  0  0  0  0  0  0  0  0  0  0
    9.9483  -13.7288   29.0324 N   0  0  0  0  0  0  0  0  0  0  0  0
    9.8906  -15.1462   29.0233 C   0  0  0  0  0  0  0  0  0  0  0  0
   10.2033  -15.7508   30.0773 O   0  0  0  0  0  0  0  0  0  0  0  0
    9.4685  -15.8203   27.7806 C   0  0  0  0  0  0  0  0  0  0  0  0
   10.6715  -16.2864   27.0330 C   0  0  2  0  0  0  0  0  0  0  0  0
   10.3145  -17.0742   25.8603 N   0  0  0  0  0  0  0  0  0  0  0  0
   11.6122  -17.0692   27.8443 C   0  0  0  0  0  0  0  0  0  0  0  0
   12.6332  -16.4544   28.5349 O   0  0  0  0  0  0  0  0  0  0  0  0
   11.4951  -18.3106   27.9157 O   0  0  0  0  0  0  0  0  0  0  0  0
  2  1  1  0
  3  2  1  0
  4  3  1  0
  4  5  1  0
  5  7  1  0
  5  6  1  1
  7  8  2  0
  9 10  1  0
  9  7  1  0
 10 11  1  6
 12 11  1  0
 13 14  1  0
 13 12  1  0
 15 14  1  0
 16 17  2  0
 16 10  1  0
 18 19  1  0
 19 21  1  0
 20 19  2  0
 22 21  1  1
 22 23  1  0
 22 24  1  0
 23 16  1  0
 24 25  1  0
 26 24  2  0
M  END
$$$$
