WCW.pdb
     RDKit          3D

 35 38  0  0  1  0  0  0  0  0999 V2000
   21.4228  -22.7656  -17.8776 N   0  0  0  0  0  0  0  0  0  0  0  0
   20.2020  -21.9596  -17.6370 C   0  0  1  0  0  0  0  0  0  0  0  0
   19.0666  -22.6560  -18.3046 C   0  0  0  0  0  0  0  0  0  0  0  0
   19.2135  -22.8214  -19.7583 C   0  0  0  0  0  0  0  0  0  0  0  0
   19.4661  -23.9885  -20.4576 C   0  0  0  0  0  0  0  0  0  0  0  0
   19.4625  -23.7643  -21.7758 N   0  0  0  0  0  0  0  0  0  0  0  0
   19.2098  -22.4513  -21.9603 C   0  0  0  0  0  0  0  0  0  0  0  0
   19.1062  -21.7273  -23.1384 C   0  0  0  0  0  0  0  0  0  0  0  0
   18.8499  -20.3752  -23.1037 C   0  0  0  0  0  0  0  0  0  0  0  0
   18.6987  -19.7718  -21.8718 C   0  0  0  0  0  0  0  0  0  0  0  0
   18.8020  -20.5068  -20.7228 C   0  0  0  0  0  0  0  0  0  0  0  0
   19.0565  -21.8629  -20.7143 C   0  0  0  0  0  0  0  0  0  0  0  0
   20.0910  -21.5921  -16.2322 C   0  0  0  0  0  0  0  0  0  0  0  0
   20.7302  -22.2841  -15.3815 O   0  0  0  0  0  0  0  0  0  0  0  0
   19.3170  -20.5221  -15.7348 N   0  0  0  0  0  0  0  0  0  0  0  0
   19.0698  -20.0985  -14.4088 C   0  0  1  0  0  0  0  0  0  0  0  0
   19.8925  -18.9437  -13.8770 C   0  0  0  0  0  0  0  0  0  0  0  0
   19.2369  -18.4381  -12.2901 S   0  0  0  0  0  0  0  0  0  0  0  0
   17.6452  -19.9776  -14.0688 C   0  0  0  0  0  0  0  0  0  0  0  0
   16.8897  -19.2325  -14.7942 O   0  0  0  0  0  0  0  0  0  0  0  0
   16.9727  -20.6045  -12.9920 N   0  0  0  0  0  0  0  0  0  0  0  0
   15.5670  -20.7634  -12.8626 C   0  0  1  0  0  0  0  0  0  0  0  0
   14.8549  -21.6191  -13.8408 C   0  0  0  0  0  0  0  0  0  0  0  0
   14.5780  -22.9555  -13.2737 C   0  0  0  0  0  0  0  0  0  0  0  0
   14.0081  -23.2071  -12.0513 C   0  0  0  0  0  0  0  0  0  0  0  0
   13.9294  -24.5579  -11.8806 N   0  0  0  0  0  0  0  0  0  0  0  0
   14.4476  -25.1374  -12.9910 C   0  0  0  0  0  0  0  0  0  0  0  0
   14.6079  -26.4638  -13.3328 C   0  0  0  0  0  0  0  0  0  0  0  0
   15.1731  -26.8157  -14.5467 C   0  0  0  0  0  0  0  0  0  0  0  0
   15.5928  -25.8604  -15.4481 C   0  0  0  0  0  0  0  0  0  0  0  0
   15.4269  -24.5348  -15.0915 C   0  0  0  0  0  0  0  0  0  0  0  0
   14.8654  -24.1787  -13.8860 C   0  0  0  0  0  0  0  0  0  0  0  0
   15.2612  -21.0872  -11.4350 C   0  0  0  0  0  0  0  0  0  0  0  0
   16.1268  -21.5065  -10.6338 O   0  0  0  0  0  0  0  0  0  0  0  0
   13.9739  -20.9199  -10.9862 O   0  0  0  0  0  0  0  0  0  0  0  0
  2  3  1  0
  2  1  1  1
  4  3  1  0
  5  4  2  0
  6  7  1  0
  6  5  1  0
  7 12  2  0
  8  7  1  0
  8  9  2  0
  9 10  1  0
 10 11  2  0
 12  4  1  0
 12 11  1  0
 13  2  1  0
 13 15  1  0
 14 13  2  0
 16 15  1  0
 16 17  1  6
 17 18  1  0
 19 20  2  0
 19 16  1  0
 21 19  1  0
 22 21  1  0
 22 33  1  0
 22 23  1  6
 24 23  1  0
 25 24  2  0
 26 27  1  0
 26 25  1  0
 27 32  2  0
 28 29  2  0
 28 27  1  0
 29 30  1  0
 30 31  2  0
 32 24  1  0
 32 31  1  0
 33 35  1  0
 34 33  2  0
M  END
$$$$
