WCW.pdb
     RDKit          3D

 35 38  0  0  1  0  0  0  0  0999 V2000
   23.0532  -20.5517  -13.0599 N   0  0  0  0  0  0  0  0  0  0  0  0
   24.4806  -20.2375  -13.3086 C   0  0  1  0  0  0  0  0  0  0  0  0
   25.2949  -21.1499  -12.4576 C   0  0  0  0  0  0  0  0  0  0  0  0
   25.0536  -21.0247  -11.0125 C   0  0  0  0  0  0  0  0  0  0  0  0
   23.9315  -21.4154  -10.3032 C   0  0  0  0  0  0  0  0  0  0  0  0
   24.1000  -21.2082   -8.9930 N   0  0  0  0  0  0  0  0  0  0  0  0
   25.3301  -20.6790   -8.8240 C   0  0  0  0  0  0  0  0  0  0  0  0
   25.9722  -20.2872   -7.6589 C   0  0  0  0  0  0  0  0  0  0  0  0
   27.2402  -19.7537   -7.7092 C   0  0  0  0  0  0  0  0  0  0  0  0
   27.8450  -19.6256   -8.9430 C   0  0  0  0  0  0  0  0  0  0  0  0
   27.1936  -20.0217  -10.0786 C   0  0  0  0  0  0  0  0  0  0  0  0
   25.9239  -20.5619  -10.0713 C   0  0  0  0  0  0  0  0  0  0  0  0
   24.7531  -20.1561  -14.7368 C   0  0  0  0  0  0  0  0  0  0  0  0
   24.0939  -20.9120  -15.5147 O   0  0  0  0  0  0  0  0  0  0  0  0
   25.7053  -19.3007  -15.3310 N   0  0  0  0  0  0  0  0  0  0  0  0
   26.5362  -19.4852  -16.4598 C   0  0  1  0  0  0  0  0  0  0  0  0
   26.2145  -18.6859  -17.7052 C   0  0  0  0  0  0  0  0  0  0  0  0
   25.0534  -17.3896  -17.2866 S   0  0  0  0  0  0  0  0  0  0  0  0
   27.9740  -19.4986  -16.1561 C   0  0  0  0  0  0  0  0  0  0  0  0
   28.4289  -18.7126  -15.2465 O   0  0  0  0  0  0  0  0  0  0  0  0
   28.9645  -20.3024  -16.7705 N   0  0  0  0  0  0  0  0  0  0  0  0
   29.4536  -21.5444  -16.2845 C   0  0  1  0  0  0  0  0  0  0  0  0
   28.7373  -22.2026  -15.1665 C   0  0  0  0  0  0  0  0  0  0  0  0
   29.1620  -21.6471  -13.8644 C   0  0  0  0  0  0  0  0  0  0  0  0
   28.5231  -20.6522  -13.1686 C   0  0  0  0  0  0  0  0  0  0  0  0
   29.2225  -20.4074  -12.0236 N   0  0  0  0  0  0  0  0  0  0  0  0
   30.2871  -21.2462  -12.0121 C   0  0  0  0  0  0  0  0  0  0  0  0
   31.3030  -21.4121  -11.0943 C   0  0  0  0  0  0  0  0  0  0  0  0
   32.2973  -22.3521  -11.3054 C   0  0  0  0  0  0  0  0  0  0  0  0
   32.3071  -23.1476  -12.4315 C   0  0  0  0  0  0  0  0  0  0  0  0
   31.2832  -22.9695  -13.3434 C   0  0  0  0  0  0  0  0  0  0  0  0
   30.2916  -22.0366  -13.1390 C   0  0  0  0  0  0  0  0  0  0  0  0
   29.7067  -22.4393  -17.4556 C   0  0  0  0  0  0  0  0  0  0  0  0
   28.8629  -22.6270  -18.3611 O   0  0  0  0  0  0  0  0  0  0  0  0
   30.9163  -23.0848  -17.5381 O   0  0  0  0  0  0  0  0  0  0  0  0
  2  3  1  0
  2  1  1  6
  4  3  1  0
  5  4  2  0
  6  7  1  0
  6  5  1  0
  7 12  2  0
  8  7  1  0
  8  9  2  0
  9 10  1  0
 10 11  2  0
 12  4  1  0
 12 11  1  0
 13  2  1  0
 13 15  1  0
 14 13  2  0
 16 15  1  0
 16 17  1  6
 17 18  1  0
 19 20  2  0
 19 16  1  0
 21 19  1  0
 22 21  1  0
 22 33  1  0
 22 23  1  1
 24 23  1  0
 25 24  2  0
 26 27  1  0
 26 25  1  0
 27 32  2  0
 28 29  2  0
 28 27  1  0
 29 30  1  0
 30 31  2  0
 32 24  1  0
 32 31  1  0
 33 35  1  0
 34 33  2  0
M  END
$$$$
