WCW.pdb
     RDKit          3D

 35 38  0  0  1  0  0  0  0  0999 V2000
   24.0396  -20.1895  -11.0764 N   0  0  0  0  0  0  0  0  0  0  0  0
   25.3499  -20.5446  -11.6721 C   0  0  1  0  0  0  0  0  0  0  0  0
   25.9783  -21.5706  -10.7932 C   0  0  0  0  0  0  0  0  0  0  0  0
   26.3676  -21.0863   -9.4606 C   0  0  0  0  0  0  0  0  0  0  0  0
   25.5376  -20.7111   -8.4189 C   0  0  0  0  0  0  0  0  0  0  0  0
   26.2499  -20.3928   -7.3330 N   0  0  0  0  0  0  0  0  0  0  0  0
   27.5533  -20.5524   -7.6454 C   0  0  0  0  0  0  0  0  0  0  0  0
   28.6814  -20.3487   -6.8651 C   0  0  0  0  0  0  0  0  0  0  0  0
   29.9367  -20.5629   -7.3880 C   0  0  0  0  0  0  0  0  0  0  0  0
   30.0338  -20.9845   -8.6984 C   0  0  0  0  0  0  0  0  0  0  0  0
   28.9069  -21.1819   -9.4482 C   0  0  0  0  0  0  0  0  0  0  0  0
   27.6315  -20.9800   -8.9619 C   0  0  0  0  0  0  0  0  0  0  0  0
   25.2178  -20.8067  -13.0985 C   0  0  0  0  0  0  0  0  0  0  0  0
   24.7870  -21.9449  -13.4593 O   0  0  0  0  0  0  0  0  0  0  0  0
   25.5396  -19.8905  -14.1224 N   0  0  0  0  0  0  0  0  0  0  0  0
   25.2895  -19.9336  -15.5132 C   0  0  1  0  0  0  0  0  0  0  0  0
   24.8658  -18.6464  -16.1894 C   0  0  0  0  0  0  0  0  0  0  0  0
   24.4881  -18.9825  -17.9063 S   0  0  0  0  0  0  0  0  0  0  0  0
   26.3002  -20.6686  -16.2864 C   0  0  0  0  0  0  0  0  0  0  0  0
   27.5172  -20.2551  -16.2785 O   0  0  0  0  0  0  0  0  0  0  0  0
   26.0900  -21.8244  -17.0767 N   0  0  0  0  0  0  0  0  0  0  0  0
   27.0751  -22.5062  -17.8403 C   0  0  1  0  0  0  0  0  0  0  0  0
   27.6135  -23.7872  -17.3251 C   0  0  0  0  0  0  0  0  0  0  0  0
   28.9895  -23.6167  -16.8136 C   0  0  0  0  0  0  0  0  0  0  0  0
   29.6251  -22.4196  -16.6013 C   0  0  0  0  0  0  0  0  0  0  0  0
   30.8828  -22.6736  -16.1389 N   0  0  0  0  0  0  0  0  0  0  0  0
   31.0233  -24.0197  -16.0659 C   0  0  0  0  0  0  0  0  0  0  0  0
   32.0865  -24.8017  -15.6660 C   0  0  0  0  0  0  0  0  0  0  0  0
   31.9898  -26.1828  -15.6779 C   0  0  0  0  0  0  0  0  0  0  0  0
   30.8373  -26.8191  -16.0877 C   0  0  0  0  0  0  0  0  0  0  0  0
   29.7800  -26.0225  -16.4870 C   0  0  0  0  0  0  0  0  0  0  0  0
   29.8701  -24.6488  -16.4771 C   0  0  0  0  0  0  0  0  0  0  0  0
   26.6077  -22.5694  -19.2594 C   0  0  0  0  0  0  0  0  0  0  0  0
   25.4041  -22.7142  -19.5716 O   0  0  0  0  0  0  0  0  0  0  0  0
   27.5408  -22.4673  -20.2621 O   0  0  0  0  0  0  0  0  0  0  0  0
  2  3  1  0
  2  1  1  1
  4  3  1  0
  5  4  2  0
  6  7  1  0
  6  5  1  0
  7 12  2  0
  8  7  1  0
  8  9  2  0
  9 10  1  0
 10 11  2  0
 12  4  1  0
 12 11  1  0
 13  2  1  0
 13 15  1  0
 14 13  2  0
 16 15  1  0
 16 17  1  6
 17 18  1  0
 19 20  2  0
 19 16  1  0
 21 19  1  0
 22 21  1  0
 22 33  1  0
 22 23  1  1
 24 23  1  0
 25 24  2  0
 26 27  1  0
 26 25  1  0
 27 32  2  0
 28 29  2  0
 28 27  1  0
 29 30  1  0
 30 31  2  0
 32 24  1  0
 32 31  1  0
 33 35  1  0
 34 33  2  0
M  END
$$$$
