WCW.pdb
     RDKit          3D

 35 38  0  0  1  0  0  0  0  0999 V2000
   26.7171  -21.4386  -16.6126 N   0  0  0  0  0  0  0  0  0  0  0  0
   26.5486  -20.6389  -15.3757 C   0  0  1  0  0  0  0  0  0  0  0  0
   26.0362  -19.2982  -15.7754 C   0  0  0  0  0  0  0  0  0  0  0  0
   26.8771  -18.5803  -16.7446 C   0  0  0  0  0  0  0  0  0  0  0  0
   26.4704  -17.8926  -17.8745 C   0  0  0  0  0  0  0  0  0  0  0  0
   27.5107  -17.3048  -18.4747 N   0  0  0  0  0  0  0  0  0  0  0  0
   28.6116  -17.5982  -17.7511 C   0  0  0  0  0  0  0  0  0  0  0  0
   29.9318  -17.2283  -17.9594 C   0  0  0  0  0  0  0  0  0  0  0  0
   30.9169  -17.6498  -17.0951 C   0  0  0  0  0  0  0  0  0  0  0  0
   30.5508  -18.4413  -16.0255 C   0  0  0  0  0  0  0  0  0  0  0  0
   29.2418  -18.7911  -15.8383 C   0  0  0  0  0  0  0  0  0  0  0  0
   28.2249  -18.3889  -16.6799 C   0  0  0  0  0  0  0  0  0  0  0  0
   25.8415  -21.4018  -14.3565 C   0  0  0  0  0  0  0  0  0  0  0  0
   25.0517  -22.3194  -14.7379 O   0  0  0  0  0  0  0  0  0  0  0  0
   25.9596  -21.1967  -12.9654 N   0  0  0  0  0  0  0  0  0  0  0  0
   25.0167  -21.3572  -11.9242 C   0  0  1  0  0  0  0  0  0  0  0  0
   25.5383  -21.3738  -10.5026 C   0  0  0  0  0  0  0  0  0  0  0  0
   26.1745  -19.7519  -10.0922 S   0  0  0  0  0  0  0  0  0  0  0  0
   23.8089  -20.5329  -12.0705 C   0  0  0  0  0  0  0  0  0  0  0  0
   23.9167  -19.3433  -12.5453 O   0  0  0  0  0  0  0  0  0  0  0  0
   22.4835  -20.9011  -11.7351 N   0  0  0  0  0  0  0  0  0  0  0  0
   21.3262  -20.0918  -11.8890 C   0  0  1  0  0  0  0  0  0  0  0  0
   21.0491  -19.4918  -13.2155 C   0  0  0  0  0  0  0  0  0  0  0  0
   21.2188  -20.4879  -14.2940 C   0  0  0  0  0  0  0  0  0  0  0  0
   20.9918  -21.8365  -14.1850 C   0  0  0  0  0  0  0  0  0  0  0  0
   21.2704  -22.4205  -15.3856 N   0  0  0  0  0  0  0  0  0  0  0  0
   21.6672  -21.4384  -16.2313 C   0  0  0  0  0  0  0  0  0  0  0  0
   22.0602  -21.4812  -17.5525 C   0  0  0  0  0  0  0  0  0  0  0  0
   22.4265  -20.3232  -18.2170 C   0  0  0  0  0  0  0  0  0  0  0  0
   22.4125  -19.0973  -17.5861 C   0  0  0  0  0  0  0  0  0  0  0  0
   22.0174  -19.0697  -16.2613 C   0  0  0  0  0  0  0  0  0  0  0  0
   21.6518  -20.2177  -15.5953 C   0  0  0  0  0  0  0  0  0  0  0  0
   20.1625  -20.8198  -11.2956 C   0  0  0  0  0  0  0  0  0  0  0  0
   20.2264  -22.0140  -10.9253 O   0  0  0  0  0  0  0  0  0  0  0  0
   18.9723  -20.1490  -11.1545 O   0  0  0  0  0  0  0  0  0  0  0  0
  2  3  1  0
  2  1  1  6
  4  3  1  0
  5  4  2  0
  6  7  1  0
  6  5  1  0
  7 12  2  0
  8  7  1  0
  8  9  2  0
  9 10  1  0
 10 11  2  0
 12  4  1  0
 12 11  1  0
 13  2  1  0
 13 15  1  0
 14 13  2  0
 16 15  1  0
 16 17  1  1
 17 18  1  0
 19 20  2  0
 19 16  1  0
 21 19  1  0
 22 21  1  0
 22 33  1  0
 22 23  1  6
 24 23  1  0
 25 24  2  0
 26 27  1  0
 26 25  1  0
 27 32  2  0
 28 29  2  0
 28 27  1  0
 29 30  1  0
 30 31  2  0
 32 24  1  0
 32 31  1  0
 33 35  1  0
 34 33  2  0
M  END
$$$$
