WCW.pdb
     RDKit          3D

 35 38  0  0  1  0  0  0  0  0999 V2000
   25.7501  -18.8712  -11.2331 N   0  0  0  0  0  0  0  0  0  0  0  0
   26.6232  -20.0222  -11.5659 C   0  0  1  0  0  0  0  0  0  0  0  0
   26.3033  -21.1186  -10.6091 C   0  0  0  0  0  0  0  0  0  0  0  0
   26.3327  -20.7286   -9.1917 C   0  0  0  0  0  0  0  0  0  0  0  0
   25.2594  -20.4192   -8.3749 C   0  0  0  0  0  0  0  0  0  0  0  0
   25.6661  -20.1803   -7.1238 N   0  0  0  0  0  0  0  0  0  0  0  0
   27.0076  -20.3274   -7.1014 C   0  0  0  0  0  0  0  0  0  0  0  0
   27.8958  -20.1850   -6.0460 C   0  0  0  0  0  0  0  0  0  0  0  0
   29.2454  -20.3719   -6.2427 C   0  0  0  0  0  0  0  0  0  0  0  0
   29.6797  -20.7043   -7.5097 C   0  0  0  0  0  0  0  0  0  0  0  0
   28.7849  -20.8425   -8.5349 C   0  0  0  0  0  0  0  0  0  0  0  0
   27.4253  -20.6652   -8.3796 C   0  0  0  0  0  0  0  0  0  0  0  0
   26.6044  -20.2915  -12.9969 C   0  0  0  0  0  0  0  0  0  0  0  0
   25.4830  -20.5161  -13.5477 O   0  0  0  0  0  0  0  0  0  0  0  0
   27.7443  -20.3299  -13.8278 N   0  0  0  0  0  0  0  0  0  0  0  0
   27.8647  -20.5213  -15.2234 C   0  0  1  0  0  0  0  0  0  0  0  0
   29.1608  -20.0945  -15.8802 C   0  0  0  0  0  0  0  0  0  0  0  0
   29.3822  -18.3332  -15.6513 S   0  0  0  0  0  0  0  0  0  0  0  0
   27.4003  -21.8331  -15.6956 C   0  0  0  0  0  0  0  0  0  0  0  0
   28.0878  -22.8807  -15.4093 O   0  0  0  0  0  0  0  0  0  0  0  0
   26.2407  -22.0976  -16.4638 N   0  0  0  0  0  0  0  0  0  0  0  0
   25.1052  -22.8369  -16.0368 C   0  0  1  0  0  0  0  0  0  0  0  0
   24.6503  -22.6945  -14.6336 C   0  0  0  0  0  0  0  0  0  0  0  0
   23.1765  -22.7602  -14.5446 C   0  0  0  0  0  0  0  0  0  0  0  0
   22.4422  -23.8583  -14.1740 C   0  0  0  0  0  0  0  0  0  0  0  0
   21.1191  -23.5314  -14.2260 N   0  0  0  0  0  0  0  0  0  0  0  0
   21.0365  -22.2391  -14.6264 C   0  0  0  0  0  0  0  0  0  0  0  0
   19.9462  -21.4224  -14.8403 C   0  0  0  0  0  0  0  0  0  0  0  0
   20.1170  -20.1125  -15.2548 C   0  0  0  0  0  0  0  0  0  0  0  0
   21.3725  -19.5837  -15.4674 C   0  0  0  0  0  0  0  0  0  0  0  0
   22.4562  -20.4144  -15.2502 C   0  0  0  0  0  0  0  0  0  0  0  0
   22.2927  -21.7177  -14.8379 C   0  0  0  0  0  0  0  0  0  0  0  0
   24.0200  -22.6559  -17.0496 C   0  0  0  0  0  0  0  0  0  0  0  0
   23.7773  -21.5555  -17.5949 O   0  0  0  0  0  0  0  0  0  0  0  0
   23.2553  -23.7441  -17.3926 O   0  0  0  0  0  0  0  0  0  0  0  0
  2  3  1  0
  2  1  1  6
  4  3  1  0
  5  4  2  0
  6  7  1  0
  6  5  1  0
  7 12  2  0
  8  7  1  0
  8  9  2  0
  9 10  1  0
 10 11  2  0
 12  4  1  0
 12 11  1  0
 13  2  1  0
 13 15  1  0
 14 13  2  0
 16 15  1  0
 16 17  1  1
 17 18  1  0
 19 20  2  0
 19 16  1  0
 21 19  1  0
 22 21  1  0
 22 33  1  0
 22 23  1  1
 24 23  1  0
 25 24  2  0
 26 27  1  0
 26 25  1  0
 27 32  2  0
 28 29  2  0
 28 27  1  0
 29 30  1  0
 30 31  2  0
 32 24  1  0
 32 31  1  0
 33 35  1  0
 34 33  2  0
M  END
$$$$
