WCW.pdb
     RDKit          3D

 35 38  0  0  1  0  0  0  0  0999 V2000
   23.2586  -19.5393  -17.1714 N   0  0  0  0  0  0  0  0  0  0  0  0
   23.8876  -19.0615  -15.9169 C   0  0  1  0  0  0  0  0  0  0  0  0
   22.8494  -19.1082  -14.8492 C   0  0  0  0  0  0  0  0  0  0  0  0
   21.5931  -18.4195  -15.1800 C   0  0  0  0  0  0  0  0  0  0  0  0
   20.3402  -18.9797  -15.3574 C   0  0  0  0  0  0  0  0  0  0  0  0
   19.4221  -18.0331  -15.5785 N   0  0  0  0  0  0  0  0  0  0  0  0
   20.0567  -16.8422  -15.5510 C   0  0  0  0  0  0  0  0  0  0  0  0
   19.5479  -15.5643  -15.7274 C   0  0  0  0  0  0  0  0  0  0  0  0
   20.3811  -14.4699  -15.6702 C   0  0  0  0  0  0  0  0  0  0  0  0
   21.7234  -14.6843  -15.4318 C   0  0  0  0  0  0  0  0  0  0  0  0
   22.2023  -15.9537  -15.2579 C   0  0  0  0  0  0  0  0  0  0  0  0
   21.4012  -17.0761  -15.3063 C   0  0  0  0  0  0  0  0  0  0  0  0
   25.1707  -19.7146  -15.6979 C   0  0  0  0  0  0  0  0  0  0  0  0
   25.2454  -20.9661  -15.8962 O   0  0  0  0  0  0  0  0  0  0  0  0
   26.3477  -19.0629  -15.2722 N   0  0  0  0  0  0  0  0  0  0  0  0
   27.5534  -19.5822  -14.7474 C   0  0  1  0  0  0  0  0  0  0  0  0
   28.6592  -18.5986  -14.4264 C   0  0  0  0  0  0  0  0  0  0  0  0
   28.6750  -17.3084  -15.6668 S   0  0  0  0  0  0  0  0  0  0  0  0
   27.3693  -20.5861  -13.6901 C   0  0  0  0  0  0  0  0  0  0  0  0
   28.2062  -21.5573  -13.5965 O   0  0  0  0  0  0  0  0  0  0  0  0
   26.3373  -20.6200  -12.7213 N   0  0  0  0  0  0  0  0  0  0  0  0
   26.1883  -21.5870  -11.6914 C   0  0  1  0  0  0  0  0  0  0  0  0
   27.2437  -21.6921  -10.6563 C   0  0  0  0  0  0  0  0  0  0  0  0
   27.0939  -20.6328   -9.6366 C   0  0  0  0  0  0  0  0  0  0  0  0
   26.0742  -19.7172   -9.5733 C   0  0  0  0  0  0  0  0  0  0  0  0
   26.2922  -18.9003   -8.5031 N   0  0  0  0  0  0  0  0  0  0  0  0
   27.4399  -19.3089   -7.9089 C   0  0  0  0  0  0  0  0  0  0  0  0
   28.1078  -18.8334   -6.8000 C   0  0  0  0  0  0  0  0  0  0  0  0
   29.2845  -19.4279   -6.3770 C   0  0  0  0  0  0  0  0  0  0  0  0
   29.8255  -20.5061   -7.0446 C   0  0  0  0  0  0  0  0  0  0  0  0
   29.1458  -20.9712   -8.1552 C   0  0  0  0  0  0  0  0  0  0  0  0
   27.9753  -20.3845   -8.5805 C   0  0  0  0  0  0  0  0  0  0  0  0
   24.8033  -21.4738  -11.1388 C   0  0  0  0  0  0  0  0  0  0  0  0
   24.0201  -20.5497  -11.4544 O   0  0  0  0  0  0  0  0  0  0  0  0
   24.3750  -22.4237  -10.2439 O   0  0  0  0  0  0  0  0  0  0  0  0
  2  3  1  0
  2  1  1  6
  4  3  1  0
  5  4  2  0
  6  7  1  0
  6  5  1  0
  7 12  2  0
  8  7  1  0
  8  9  2  0
  9 10  1  0
 10 11  2  0
 12  4  1  0
 12 11  1  0
 13  2  1  0
 13 15  1  0
 14 13  2  0
 16 15  1  0
 16 17  1  1
 17 18  1  0
 19 20  2  0
 19 16  1  0
 21 19  1  0
 22 21  1  0
 22 33  1  0
 22 23  1  1
 24 23  1  0
 25 24  2  0
 26 27  1  0
 26 25  1  0
 27 32  2  0
 28 29  2  0
 28 27  1  0
 29 30  1  0
 30 31  2  0
 32 24  1  0
 32 31  1  0
 33 35  1  0
 34 33  2  0
M  END
$$$$
