WCW.pdb
     RDKit          3D

 35 38  0  0  1  0  0  0  0  0999 V2000
   24.3507  -18.7846  -15.4310 N   0  0  0  0  0  0  0  0  0  0  0  0
   25.6656  -18.6859  -14.7535 C   0  0  1  0  0  0  0  0  0  0  0  0
   25.6883  -17.3980  -14.0048 C   0  0  0  0  0  0  0  0  0  0  0  0
   25.9052  -16.2049  -14.8364 C   0  0  0  0  0  0  0  0  0  0  0  0
   25.1629  -15.0371  -14.8537 C   0  0  0  0  0  0  0  0  0  0  0  0
   25.7019  -14.1423  -15.6884 N   0  0  0  0  0  0  0  0  0  0  0  0
   26.8009  -14.7082  -16.2303 C   0  0  0  0  0  0  0  0  0  0  0  0
   27.6990  -14.1914  -17.1519 C   0  0  0  0  0  0  0  0  0  0  0  0
   28.7621  -14.9497  -17.5878 C   0  0  0  0  0  0  0  0  0  0  0  0
   28.9040  -16.2254  -17.0811 C   0  0  0  0  0  0  0  0  0  0  0  0
   28.0074  -16.7131  -16.1704 C   0  0  0  0  0  0  0  0  0  0  0  0
   26.9302  -15.9856  -15.7073 C   0  0  0  0  0  0  0  0  0  0  0  0
   25.9858  -19.9248  -14.0583 C   0  0  0  0  0  0  0  0  0  0  0  0
   25.0245  -20.6407  -13.6402 O   0  0  0  0  0  0  0  0  0  0  0  0
   27.2916  -20.3951  -13.8033 N   0  0  0  0  0  0  0  0  0  0  0  0
   27.7677  -21.3352  -12.8608 C   0  0  1  0  0  0  0  0  0  0  0  0
   29.1379  -21.9345  -13.0994 C   0  0  0  0  0  0  0  0  0  0  0  0
   29.3078  -22.3375  -14.8350 S   0  0  0  0  0  0  0  0  0  0  0  0
   27.5616  -20.9434  -11.4595 C   0  0  0  0  0  0  0  0  0  0  0  0
   28.5811  -20.8288  -10.6852 O   0  0  0  0  0  0  0  0  0  0  0  0
   26.3248  -20.6681  -10.8276 N   0  0  0  0  0  0  0  0  0  0  0  0
   25.6503  -21.5123   -9.9055 C   0  0  1  0  0  0  0  0  0  0  0  0
   26.3212  -21.8493   -8.6277 C   0  0  0  0  0  0  0  0  0  0  0  0
   26.7555  -20.6275   -7.9184 C   0  0  0  0  0  0  0  0  0  0  0  0
   26.4725  -19.3382   -8.2922 C   0  0  0  0  0  0  0  0  0  0  0  0
   27.0558  -18.4905   -7.3970 N   0  0  0  0  0  0  0  0  0  0  0  0
   27.6953  -19.2517   -6.4758 C   0  0  0  0  0  0  0  0  0  0  0  0
   28.4357  -18.9035   -5.3656 C   0  0  0  0  0  0  0  0  0  0  0  0
   29.0006  -19.8782   -4.5608 C   0  0  0  0  0  0  0  0  0  0  0  0
   28.8449  -21.2195   -4.8395 C   0  0  0  0  0  0  0  0  0  0  0  0
   28.1012  -21.5537   -5.9562 C   0  0  0  0  0  0  0  0  0  0  0  0
   27.5369  -20.5891   -6.7601 C   0  0  0  0  0  0  0  0  0  0  0  0
   24.2519  -21.0077   -9.7439 C   0  0  0  0  0  0  0  0  0  0  0  0
   23.8126  -20.0148  -10.3669 O   0  0  0  0  0  0  0  0  0  0  0  0
   23.4160  -21.6611   -8.8716 O   0  0  0  0  0  0  0  0  0  0  0  0
  2  3  1  0
  2  1  1  1
  4  3  1  0
  5  4  2  0
  6  7  1  0
  6  5  1  0
  7 12  2  0
  8  7  1  0
  8  9  2  0
  9 10  1  0
 10 11  2  0
 12  4  1  0
 12 11  1  0
 13  2  1  0
 13 15  1  0
 14 13  2  0
 16 15  1  0
 16 17  1  1
 17 18  1  0
 19 20  2  0
 19 16  1  0
 21 19  1  0
 22 21  1  0
 22 33  1  0
 22 23  1  1
 24 23  1  0
 25 24  2  0
 26 27  1  0
 26 25  1  0
 27 32  2  0
 28 29  2  0
 28 27  1  0
 29 30  1  0
 30 31  2  0
 32 24  1  0
 32 31  1  0
 33 35  1  0
 34 33  2  0
M  END
$$$$
