WCW.pdb
     RDKit          3D

 35 38  0  0  1  0  0  0  0  0999 V2000
   19.2794  -23.4835  -15.1241 N   0  0  0  0  0  0  0  0  0  0  0  0
   20.2029  -22.3266  -15.0438 C   0  0  1  0  0  0  0  0  0  0  0  0
   19.4097  -21.1510  -14.5871 C   0  0  0  0  0  0  0  0  0  0  0  0
   18.2143  -20.8627  -15.3933 C   0  0  0  0  0  0  0  0  0  0  0  0
   16.8929  -20.8685  -14.9825 C   0  0  0  0  0  0  0  0  0  0  0  0
   16.0834  -20.4864  -15.9759 N   0  0  0  0  0  0  0  0  0  0  0  0
   16.8587  -20.2266  -17.0497 C   0  0  0  0  0  0  0  0  0  0  0  0
   16.4977  -19.8033  -18.3200 C   0  0  0  0  0  0  0  0  0  0  0  0
   17.4580  -19.6051  -19.2862 C   0  0  0  0  0  0  0  0  0  0  0  0
   18.7767  -19.8364  -18.9518 C   0  0  0  0  0  0  0  0  0  0  0  0
   19.1096  -20.2506  -17.6914 C   0  0  0  0  0  0  0  0  0  0  0  0
   18.1785  -20.4596  -16.6947 C   0  0  0  0  0  0  0  0  0  0  0  0
   21.4244  -22.6854  -14.3367 C   0  0  0  0  0  0  0  0  0  0  0  0
   21.3454  -22.9282  -13.0933 O   0  0  0  0  0  0  0  0  0  0  0  0
   22.7028  -22.7793  -14.9268 N   0  0  0  0  0  0  0  0  0  0  0  0
   23.9837  -22.9050  -14.3419 C   0  0  1  0  0  0  0  0  0  0  0  0
   25.1356  -23.2799  -15.2508 C   0  0  0  0  0  0  0  0  0  0  0  0
   25.8879  -21.7872  -15.8906 S   0  0  0  0  0  0  0  0  0  0  0  0
   24.3316  -21.8228  -13.4106 C   0  0  0  0  0  0  0  0  0  0  0  0
   23.4159  -21.3273  -12.6566 O   0  0  0  0  0  0  0  0  0  0  0  0
   25.6051  -21.2294  -13.2355 N   0  0  0  0  0  0  0  0  0  0  0  0
   26.1721  -20.8149  -12.0007 C   0  0  1  0  0  0  0  0  0  0  0  0
   26.1872  -21.7709  -10.8684 C   0  0  0  0  0  0  0  0  0  0  0  0
   26.6263  -21.1095   -9.6217 C   0  0  0  0  0  0  0  0  0  0  0  0
   25.8358  -20.3576   -8.7899 C   0  0  0  0  0  0  0  0  0  0  0  0
   26.6019  -19.9079   -7.7550 N   0  0  0  0  0  0  0  0  0  0  0  0
   27.8583  -20.3792   -7.9465 C   0  0  0  0  0  0  0  0  0  0  0  0
   29.0099  -20.2234   -7.2039 C   0  0  0  0  0  0  0  0  0  0  0  0
   30.1952  -20.8130   -7.6092 C   0  0  0  0  0  0  0  0  0  0  0  0
   30.2653  -21.5691   -8.7600 C   0  0  0  0  0  0  0  0  0  0  0  0
   29.1033  -21.7157   -9.4950 C   0  0  0  0  0  0  0  0  0  0  0  0
   27.9217  -21.1320   -9.0971 C   0  0  0  0  0  0  0  0  0  0  0  0
   27.4985  -20.1840  -12.2821 C   0  0  0  0  0  0  0  0  0  0  0  0
   27.7613  -18.9962  -11.9869 O   0  0  0  0  0  0  0  0  0  0  0  0
   28.4678  -20.9409  -12.8938 O   0  0  0  0  0  0  0  0  0  0  0  0
  2  3  1  0
  2  1  1  1
  4  3  1  0
  5  4  2  0
  6  7  1  0
  6  5  1  0
  7 12  2  0
  8  7  1  0
  8  9  2  0
  9 10  1  0
 10 11  2  0
 12  4  1  0
 12 11  1  0
 13  2  1  0
 13 15  1  0
 14 13  2  0
 16 15  1  0
 16 17  1  6
 17 18  1  0
 19 20  2  0
 19 16  1  0
 21 19  1  0
 22 21  1  0
 22 33  1  0
 22 23  1  1
 24 23  1  0
 25 24  2  0
 26 27  1  0
 26 25  1  0
 27 32  2  0
 28 29  2  0
 28 27  1  0
 29 30  1  0
 30 31  2  0
 32 24  1  0
 32 31  1  0
 33 35  1  0
 34 33  2  0
M  END
$$$$
