WCW.pdb
     RDKit          3D

 35 38  0  0  1  0  0  0  0  0999 V2000
   22.7600  -26.5040  -21.0367 N   0  0  0  0  0  0  0  0  0  0  0  0
   22.0896  -25.2021  -21.2679 C   0  0  1  0  0  0  0  0  0  0  0  0
   20.9317  -25.4488  -22.1726 C   0  0  0  0  0  0  0  0  0  0  0  0
   21.2921  -25.8646  -23.5361 C   0  0  0  0  0  0  0  0  0  0  0  0
   21.5931  -27.1395  -23.9821 C   0  0  0  0  0  0  0  0  0  0  0  0
   21.8027  -27.1451  -25.3027 N   0  0  0  0  0  0  0  0  0  0  0  0
   21.6443  -25.8784  -25.7410 C   0  0  0  0  0  0  0  0  0  0  0  0
   21.7575  -25.3657  -27.0245 C   0  0  0  0  0  0  0  0  0  0  0  0
   21.5637  -24.0227  -27.2566 C   0  0  0  0  0  0  0  0  0  0  0  0
   21.2541  -23.2136  -26.1824 C   0  0  0  0  0  0  0  0  0  0  0  0
   21.1446  -23.7421  -24.9256 C   0  0  0  0  0  0  0  0  0  0  0  0
   21.3297  -25.0816  -24.6510 C   0  0  0  0  0  0  0  0  0  0  0  0
   21.8798  -24.4958  -20.0117 C   0  0  0  0  0  0  0  0  0  0  0  0
   21.7835  -25.1831  -18.9489 O   0  0  0  0  0  0  0  0  0  0  0  0
   21.7672  -23.0953  -19.8803 N   0  0  0  0  0  0  0  0  0  0  0  0
   21.5538  -22.2884  -18.7392 C   0  0  1  0  0  0  0  0  0  0  0  0
   22.6708  -21.3546  -18.3223 C   0  0  0  0  0  0  0  0  0  0  0  0
   22.7750  -20.0049  -19.4932 S   0  0  0  0  0  0  0  0  0  0  0  0
   20.2346  -21.6425  -18.6939 C   0  0  0  0  0  0  0  0  0  0  0  0
   19.6527  -21.3296  -19.7965 O   0  0  0  0  0  0  0  0  0  0  0  0
   19.4940  -21.3038  -17.5357 N   0  0  0  0  0  0  0  0  0  0  0  0
   18.2095  -20.6977  -17.5118 C   0  0  1  0  0  0  0  0  0  0  0  0
   17.0840  -21.3895  -18.1834 C   0  0  0  0  0  0  0  0  0  0  0  0
   16.6452  -22.5670  -17.4054 C   0  0  0  0  0  0  0  0  0  0  0  0
   16.8866  -22.7846  -16.0725 C   0  0  0  0  0  0  0  0  0  0  0  0
   16.3358  -23.9823  -15.7231 N   0  0  0  0  0  0  0  0  0  0  0  0
   15.7575  -24.5016  -16.8336 C   0  0  0  0  0  0  0  0  0  0  0  0
   15.0696  -25.6800  -17.0330 C   0  0  0  0  0  0  0  0  0  0  0  0
   14.5618  -25.9974  -18.2814 C   0  0  0  0  0  0  0  0  0  0  0  0
   14.7258  -25.1540  -19.3597 C   0  0  0  0  0  0  0  0  0  0  0  0
   15.4185  -23.9767  -19.1452 C   0  0  0  0  0  0  0  0  0  0  0  0
   15.9256  -23.6556  -17.9063 C   0  0  0  0  0  0  0  0  0  0  0  0
   17.9147  -20.2787  -16.1069 C   0  0  0  0  0  0  0  0  0  0  0  0
   18.6425  -20.5930  -15.1381 O   0  0  0  0  0  0  0  0  0  0  0  0
   16.7950  -19.5190  -15.8706 O   0  0  0  0  0  0  0  0  0  0  0  0
  2  3  1  0
  2  1  1  1
  4  3  1  0
  5  4  2  0
  6  7  1  0
  6  5  1  0
  7 12  2  0
  8  7  1  0
  8  9  2  0
  9 10  1  0
 10 11  2  0
 12  4  1  0
 12 11  1  0
 13  2  1  0
 13 15  1  0
 14 13  2  0
 16 15  1  0
 16 17  1  6
 17 18  1  0
 19 20  2  0
 19 16  1  0
 21 19  1  0
 22 21  1  0
 22 33  1  0
 22 23  1  1
 24 23  1  0
 25 24  2  0
 26 27  1  0
 26 25  1  0
 27 32  2  0
 28 29  2  0
 28 27  1  0
 29 30  1  0
 30 31  2  0
 32 24  1  0
 32 31  1  0
 33 35  1  0
 34 33  2  0
M  END
$$$$
