WCW.pdb
     RDKit          3D

 35 38  0  0  1  0  0  0  0  0999 V2000
   24.4801  -18.8548  -18.2021 N   0  0  0  0  0  0  0  0  0  0  0  0
   25.9195  -18.5461  -18.0273 C   0  0  1  0  0  0  0  0  0  0  0  0
   26.2782  -17.5010  -19.0268 C   0  0  0  0  0  0  0  0  0  0  0  0
   25.7597  -17.7396  -20.3818 C   0  0  0  0  0  0  0  0  0  0  0  0
   24.7572  -17.0491  -21.0399 C   0  0  0  0  0  0  0  0  0  0  0  0
   24.6056  -17.5039  -22.2882 N   0  0  0  0  0  0  0  0  0  0  0  0
   25.5022  -18.4969  -22.4665 C   0  0  0  0  0  0  0  0  0  0  0  0
   25.7396  -19.2845  -23.5829 C   0  0  0  0  0  0  0  0  0  0  0  0
   26.7074  -20.2630  -23.5508 C   0  0  0  0  0  0  0  0  0  0  0  0
   27.4268  -20.4303  -22.3851 C   0  0  0  0  0  0  0  0  0  0  0  0
   27.1773  -19.6395  -21.2973 C   0  0  0  0  0  0  0  0  0  0  0  0
   26.2179  -18.6478  -21.2888 C   0  0  0  0  0  0  0  0  0  0  0  0
   26.2380  -18.3335  -16.6223 C   0  0  0  0  0  0  0  0  0  0  0  0
   26.4029  -17.1406  -16.2211 O   0  0  0  0  0  0  0  0  0  0  0  0
   26.3863  -19.3574  -15.6626 N   0  0  0  0  0  0  0  0  0  0  0  0
   25.9038  -19.4590  -14.3376 C   0  0  1  0  0  0  0  0  0  0  0  0
   24.4514  -19.1078  -14.0916 C   0  0  0  0  0  0  0  0  0  0  0  0
   23.4213  -20.4780  -14.6065 S   0  0  0  0  0  0  0  0  0  0  0  0
   26.3121  -20.6853  -13.6382 C   0  0  0  0  0  0  0  0  0  0  0  0
   26.4024  -21.7831  -14.3007 O   0  0  0  0  0  0  0  0  0  0  0  0
   26.6286  -20.8142  -12.2642 N   0  0  0  0  0  0  0  0  0  0  0  0
   26.0472  -21.7380  -11.3550 C   0  0  1  0  0  0  0  0  0  0  0  0
   26.7395  -22.0048  -10.0721 C   0  0  0  0  0  0  0  0  0  0  0  0
   26.7645  -20.7964   -9.2216 C   0  0  0  0  0  0  0  0  0  0  0  0
   25.8346  -19.7878   -9.2314 C   0  0  0  0  0  0  0  0  0  0  0  0
   26.2086  -18.8457   -8.3188 N   0  0  0  0  0  0  0  0  0  0  0  0
   27.3628  -19.2699   -7.7487 C   0  0  0  0  0  0  0  0  0  0  0  0
   28.1578  -18.7014   -6.7758 C   0  0  0  0  0  0  0  0  0  0  0  0
   29.3109  -19.3368   -6.3474 C   0  0  0  0  0  0  0  0  0  0  0  0
   29.7019  -20.5492   -6.8749 C   0  0  0  0  0  0  0  0  0  0  0  0
   28.8958  -21.1067   -7.8502 C   0  0  0  0  0  0  0  0  0  0  0  0
   27.7480  -20.4798   -8.2801 C   0  0  0  0  0  0  0  0  0  0  0  0
   24.5981  -21.4000  -11.2055 C   0  0  0  0  0  0  0  0  0  0  0  0
   24.1064  -20.3244  -11.6158 O   0  0  0  0  0  0  0  0  0  0  0  0
   23.7734  -22.3086  -10.5883 O   0  0  0  0  0  0  0  0  0  0  0  0
  2  3  1  0
  2  1  1  1
  4  3  1  0
  5  4  2  0
  6  7  1  0
  6  5  1  0
  7 12  2  0
  8  7  1  0
  8  9  2  0
  9 10  1  0
 10 11  2  0
 12  4  1  0
 12 11  1  0
 13  2  1  0
 13 15  1  0
 14 13  2  0
 16 15  1  0
 16 17  1  6
 17 18  1  0
 19 20  2  0
 19 16  1  0
 21 19  1  0
 22 21  1  0
 22 33  1  0
 22 23  1  1
 24 23  1  0
 25 24  2  0
 26 27  1  0
 26 25  1  0
 27 32  2  0
 28 29  2  0
 28 27  1  0
 29 30  1  0
 30 31  2  0
 32 24  1  0
 32 31  1  0
 33 35  1  0
 34 33  2  0
M  END
$$$$
