WCW.pdb
     RDKit          3D

 35 38  0  0  1  0  0  0  0  0999 V2000
   27.7528  -21.3670   -9.4653 N   0  0  0  0  0  0  0  0  0  0  0  0
   26.4000  -20.8704   -9.1172 C   0  0  1  0  0  0  0  0  0  0  0  0
   26.5590  -19.5089   -8.5335 C   0  0  0  0  0  0  0  0  0  0  0  0
   27.5108  -19.4243   -7.4159 C   0  0  0  0  0  0  0  0  0  0  0  0
   28.7374  -18.7840   -7.3934 C   0  0  0  0  0  0  0  0  0  0  0  0
   29.2918  -18.8590   -6.1789 N   0  0  0  0  0  0  0  0  0  0  0  0
   28.4410  -19.5483   -5.3898 C   0  0  0  0  0  0  0  0  0  0  0  0
   28.5588  -19.8946   -4.0521 C   0  0  0  0  0  0  0  0  0  0  0  0
   27.5668  -20.6198   -3.4315 C   0  0  0  0  0  0  0  0  0  0  0  0
   26.4631  -20.9843   -4.1754 C   0  0  0  0  0  0  0  0  0  0  0  0
   26.3671  -20.6288   -5.4927 C   0  0  0  0  0  0  0  0  0  0  0  0
   27.3377  -19.9018   -6.1513 C   0  0  0  0  0  0  0  0  0  0  0  0
   25.4725  -21.0729  -10.2215 C   0  0  0  0  0  0  0  0  0  0  0  0
   25.9343  -21.0386  -11.4034 O   0  0  0  0  0  0  0  0  0  0  0  0
   24.0866  -21.2998  -10.0826 N   0  0  0  0  0  0  0  0  0  0  0  0
   23.0735  -21.4555  -11.0563 C   0  0  1  0  0  0  0  0  0  0  0  0
   21.6705  -21.7488  -10.5673 C   0  0  0  0  0  0  0  0  0  0  0  0
   21.3336  -20.7520   -9.1193 S   0  0  0  0  0  0  0  0  0  0  0  0
   23.0977  -20.4428  -12.1209 C   0  0  0  0  0  0  0  0  0  0  0  0
   23.5482  -19.2681  -11.8572 O   0  0  0  0  0  0  0  0  0  0  0  0
   22.6640  -20.6062  -13.4587 N   0  0  0  0  0  0  0  0  0  0  0  0
   22.7630  -19.6387  -14.4942 C   0  0  1  0  0  0  0  0  0  0  0  0
   24.0778  -19.0059  -14.7531 C   0  0  0  0  0  0  0  0  0  0  0  0
   25.1578  -20.0147  -14.7695 C   0  0  0  0  0  0  0  0  0  0  0  0
   25.0494  -21.3001  -15.2364 C   0  0  0  0  0  0  0  0  0  0  0  0
   26.2514  -21.9231  -15.0715 N   0  0  0  0  0  0  0  0  0  0  0  0
   27.0974  -21.0277  -14.5060 C   0  0  0  0  0  0  0  0  0  0  0  0
   28.4198  -21.1390  -14.1310 C   0  0  0  0  0  0  0  0  0  0  0  0
   29.0844  -20.0653  -13.5632 C   0  0  0  0  0  0  0  0  0  0  0  0
   28.4523  -18.8580  -13.3535 C   0  0  0  0  0  0  0  0  0  0  0  0
   27.1263  -18.7614  -13.7332 C   0  0  0  0  0  0  0  0  0  0  0  0
   26.4602  -19.8254  -14.2985 C   0  0  0  0  0  0  0  0  0  0  0  0
   22.1024  -20.1911  -15.7168 C   0  0  0  0  0  0  0  0  0  0  0  0
   21.9297  -19.5177  -16.7578 O   0  0  0  0  0  0  0  0  0  0  0  0
   21.6639  -21.4926  -15.6936 O   0  0  0  0  0  0  0  0  0  0  0  0
  2  3  1  0
  2  1  1  6
  4  3  1  0
  5  4  2  0
  6  7  1  0
  6  5  1  0
  7 12  2  0
  8  7  1  0
  8  9  2  0
  9 10  1  0
 10 11  2  0
 12  4  1  0
 12 11  1  0
 13  2  1  0
 13 15  1  0
 14 13  2  0
 16 15  1  0
 16 17  1  1
 17 18  1  0
 19 20  2  0
 19 16  1  0
 21 19  1  0
 22 21  1  0
 22 33  1  0
 22 23  1  6
 24 23  1  0
 25 24  2  0
 26 27  1  0
 26 25  1  0
 27 32  2  0
 28 29  2  0
 28 27  1  0
 29 30  1  0
 30 31  2  0
 32 24  1  0
 32 31  1  0
 33 35  1  0
 34 33  2  0
M  END
$$$$
