PEN.pdb
     RDKit          3D

 25 25  0  0  1  0  0  0  0  0999 V2000
   16.8433  -10.6722  -16.3087 N   0  0  0  0  0  0  0  0  0  0  0  0
   17.4977  -11.8620  -16.7947 C   0  0  0  0  0  0  0  0  0  0  0  0
   17.3091  -12.7960  -15.5964 C   0  0  0  0  0  0  0  0  0  0  0  0
   17.5561  -11.8665  -14.4237 C   0  0  0  0  0  0  0  0  0  0  0  0
   17.3555  -10.5019  -14.9902 C   0  0  1  0  0  0  0  0  0  0  0  0
   18.6486   -9.7364  -14.9528 C   0  0  0  0  0  0  0  0  0  0  0  0
   19.2581   -9.6855  -13.8344 O   0  0  0  0  0  0  0  0  0  0  0  0
   19.2197   -9.0831  -16.0517 N   0  0  0  0  0  0  0  0  0  0  0  0
   20.4425   -8.3278  -15.8770 C   0  0  1  0  0  0  0  0  0  0  0  0
   21.4554   -8.5740  -16.9506 C   0  0  0  0  0  0  0  0  0  0  0  0
   22.2403   -9.8422  -16.7821 C   0  0  0  0  0  0  0  0  0  0  0  0
   23.2055   -9.9269  -17.9109 C   0  0  0  0  0  0  0  0  0  0  0  0
   24.3967   -9.4935  -17.7958 O   0  0  0  0  0  0  0  0  0  0  0  0
   20.0803   -6.8723  -15.9569 C   0  0  0  0  0  0  0  0  0  0  0  0
   19.0847   -6.5313  -16.6080 O   0  0  0  0  0  0  0  0  0  0  0  0
   22.8884  -10.4732  -19.1492 O   0  0  0  0  0  0  0  0  0  0  0  0
   21.4910   -1.3156  -14.2137 N   0  0  0  0  0  0  0  0  0  0  0  0
   20.4986   -2.3174  -14.1882 C   0  0  0  0  0  0  0  0  0  0  0  0
   19.2940   -1.9292  -14.1467 O   0  0  0  0  0  0  0  0  0  0  0  0
   20.7516   -3.7469  -14.2070 C   0  0  0  0  0  0  0  0  0  0  0  0
   20.4439   -4.4768  -15.4667 C   0  0  2  0  0  0  0  0  0  0  0  0
   20.8366   -5.8739  -15.3135 N   0  0  0  0  0  0  0  0  0  0  0  0
   21.0788   -3.9499  -16.6789 C   0  0  0  0  0  0  0  0  0  0  0  0
   22.2929   -4.3623  -17.1953 O   0  0  0  0  0  0  0  0  0  0  0  0
   20.4906   -3.0414  -17.3272 O   0  0  0  0  0  0  0  0  0  0  0  0
  2  1  1  0
  3  4  1  0
  3  2  1  0
  4  5  1  0
  5  1  1  0
  5  6  1  6
  7  6  2  0
  8  6  1  0
  9  8  1  0
  9 14  1  0
  9 10  1  6
 11 10  1  0
 12 11  1  0
 13 12  2  0
 14 15  2  0
 14 22  1  0
 16 12  1  0
 18 19  2  0
 18 17  1  0
 20 18  1  0
 21 20  1  1
 21 23  1  0
 22 21  1  0
 23 25  2  0
 23 24  1  0
M  END
$$$$
