PEN.pdb
     RDKit          3D

 25 25  0  0  1  0  0  0  0  0999 V2000
   19.0783  -11.4886  -17.5393 N   0  0  0  0  0  0  0  0  0  0  0  0
   19.8002  -12.4287  -18.3610 C   0  0  0  0  0  0  0  0  0  0  0  0
   19.8216  -13.6500  -17.4381 C   0  0  0  0  0  0  0  0  0  0  0  0
   20.0841  -13.0228  -16.0825 C   0  0  0  0  0  0  0  0  0  0  0  0
   19.6938  -11.5945  -16.2588 C   0  0  1  0  0  0  0  0  0  0  0  0
   20.9008  -10.7112  -16.1085 C   0  0  0  0  0  0  0  0  0  0  0  0
   21.5324  -10.7787  -15.0033 O   0  0  0  0  0  0  0  0  0  0  0  0
   21.3703   -9.8298  -17.0899 N   0  0  0  0  0  0  0  0  0  0  0  0
   22.4669   -8.9361  -16.7815 C   0  0  1  0  0  0  0  0  0  0  0  0
   23.4922   -8.8514  -17.8681 C   0  0  0  0  0  0  0  0  0  0  0  0
   24.6667   -7.9749  -17.5440 C   0  0  0  0  0  0  0  0  0  0  0  0
   25.5999   -8.0274  -18.7014 C   0  0  0  0  0  0  0  0  0  0  0  0
   25.3597   -8.7642  -19.7111 O   0  0  0  0  0  0  0  0  0  0  0  0
   21.8879   -7.5584  -16.6319 C   0  0  0  0  0  0  0  0  0  0  0  0
   21.0612   -7.1561  -17.4605 O   0  0  0  0  0  0  0  0  0  0  0  0
   26.7782   -7.2930  -18.7679 O   0  0  0  0  0  0  0  0  0  0  0  0
   19.6441   -3.2659  -14.7777 N   0  0  0  0  0  0  0  0  0  0  0  0
   19.2199   -4.6020  -14.9322 C   0  0  0  0  0  0  0  0  0  0  0  0
   17.9814   -4.8287  -14.7975 O   0  0  0  0  0  0  0  0  0  0  0  0
   20.0879   -5.7264  -15.2322 C   0  0  0  0  0  0  0  0  0  0  0  0
   21.5378   -5.4403  -15.4063 C   0  0  2  0  0  0  0  0  0  0  0  0
   22.2530   -6.7010  -15.5763 N   0  0  0  0  0  0  0  0  0  0  0  0
   22.1743   -4.6927  -14.3171 C   0  0  0  0  0  0  0  0  0  0  0  0
   21.8076   -3.4319  -13.8851 O   0  0  0  0  0  0  0  0  0  0  0  0
   23.1426   -5.2195  -13.7033 O   0  0  0  0  0  0  0  0  0  0  0  0
  2  1  1  0
  3  4  1  0
  3  2  1  0
  4  5  1  0
  5  1  1  0
  5  6  1  6
  7  6  2  0
  8  6  1  0
  9  8  1  0
  9 14  1  0
  9 10  1  6
 11 10  1  0
 12 11  1  0
 13 12  2  0
 14 15  2  0
 14 22  1  0
 16 12  1  0
 18 19  2  0
 18 17  1  0
 20 18  1  0
 21 20  1  1
 21 23  1  0
 22 21  1  0
 23 25  2  0
 23 24  1  0
M  END
$$$$
