PEN.pdb
     RDKit          3D

 25 25  0  0  1  0  0  0  0  0999 V2000
   20.3422  -11.6227  -18.6624 N   0  0  0  0  0  0  0  0  0  0  0  0
   21.2796  -12.7101  -18.8002 C   0  0  0  0  0  0  0  0  0  0  0  0
   20.7198  -13.6958  -17.7712 C   0  0  0  0  0  0  0  0  0  0  0  0
   20.3360  -12.7793  -16.6254 C   0  0  0  0  0  0  0  0  0  0  0  0
   20.2278  -11.4321  -17.2552 C   0  0  1  0  0  0  0  0  0  0  0  0
   21.2818  -10.5185  -16.6950 C   0  0  0  0  0  0  0  0  0  0  0  0
   21.2532  -10.3048  -15.4387 O   0  0  0  0  0  0  0  0  0  0  0  0
   22.2798   -9.8940  -17.4532 N   0  0  0  0  0  0  0  0  0  0  0  0
   23.2245   -9.0114  -16.8015 C   0  0  1  0  0  0  0  0  0  0  0  0
   24.5229   -8.8805  -17.5339 C   0  0  0  0  0  0  0  0  0  0  0  0
   25.4717  -10.0239  -17.3210 C   0  0  0  0  0  0  0  0  0  0  0  0
   26.7125   -9.7269  -18.0861 C   0  0  0  0  0  0  0  0  0  0  0  0
   27.5092   -8.8040  -17.7207 O   0  0  0  0  0  0  0  0  0  0  0  0
   22.6080   -7.6421  -16.7764 C   0  0  0  0  0  0  0  0  0  0  0  0
   22.3702   -7.0658  -17.8456 O   0  0  0  0  0  0  0  0  0  0  0  0
   27.0885  -10.4182  -19.2319 O   0  0  0  0  0  0  0  0  0  0  0  0
   20.1344   -3.1590  -15.5766 N   0  0  0  0  0  0  0  0  0  0  0  0
   19.5426   -4.4390  -15.5961 C   0  0  0  0  0  0  0  0  0  0  0  0
   18.2781   -4.4860  -15.5479 O   0  0  0  0  0  0  0  0  0  0  0  0
   20.2671   -5.6951  -15.6679 C   0  0  0  0  0  0  0  0  0  0  0  0
   21.7531   -5.6279  -15.6262 C   0  0  2  0  0  0  0  0  0  0  0  0
   22.2880   -6.9846  -15.5731 N   0  0  0  0  0  0  0  0  0  0  0  0
   22.3246   -4.8633  -14.5131 C   0  0  0  0  0  0  0  0  0  0  0  0
   23.1641   -5.3680  -13.5377 O   0  0  0  0  0  0  0  0  0  0  0  0
   22.0438   -3.6376  -14.4104 O   0  0  0  0  0  0  0  0  0  0  0  0
  2  1  1  0
  3  4  1  0
  3  2  1  0
  4  5  1  0
  5  1  1  0
  5  6  1  1
  7  6  2  0
  8  6  1  0
  9  8  1  0
  9 14  1  0
  9 10  1  6
 11 10  1  0
 12 11  1  0
 13 12  2  0
 14 15  2  0
 14 22  1  0
 16 12  1  0
 18 19  2  0
 18 17  1  0
 20 18  1  0
 21 20  1  1
 21 23  1  0
 22 21  1  0
 23 25  2  0
 23 24  1  0
M  END
$$$$
