PEN.pdb
     RDKit          3D

 25 25  0  0  1  0  0  0  0  0999 V2000
   16.8634  -12.5865  -14.2212 N   0  0  0  0  0  0  0  0  0  0  0  0
   15.5293  -13.1186  -14.3532 C   0  0  0  0  0  0  0  0  0  0  0  0
   15.3525  -13.0601  -15.8728 C   0  0  0  0  0  0  0  0  0  0  0  0
   15.9908  -11.7286  -16.2187 C   0  0  0  0  0  0  0  0  0  0  0  0
   16.8637  -11.4264  -15.0481 C   0  0  1  0  0  0  0  0  0  0  0  0
   16.3654  -10.1969  -14.3413 C   0  0  0  0  0  0  0  0  0  0  0  0
   16.3110   -9.1207  -15.0224 O   0  0  0  0  0  0  0  0  0  0  0  0
   15.9632  -10.1564  -13.0007 N   0  0  0  0  0  0  0  0  0  0  0  0
   15.4734   -8.9151  -12.4393 C   0  0  1  0  0  0  0  0  0  0  0  0
   14.1638   -9.0562  -11.7291 C   0  0  0  0  0  0  0  0  0  0  0  0
   14.1563  -10.0940  -10.6448 C   0  0  0  0  0  0  0  0  0  0  0  0
   12.7820  -10.1413  -10.0772 C   0  0  0  0  0  0  0  0  0  0  0  0
   11.7707  -10.3767  -10.8132 O   0  0  0  0  0  0  0  0  0  0  0  0
   16.4719   -8.4691  -11.4098 C   0  0  0  0  0  0  0  0  0  0  0  0
   17.3380   -9.2639  -11.0227 O   0  0  0  0  0  0  0  0  0  0  0  0
   12.5030   -9.9368   -8.7308 O   0  0  0  0  0  0  0  0  0  0  0  0
   20.0854   -5.8929   -8.7417 N   0  0  0  0  0  0  0  0  0  0  0  0
   20.0269   -6.3618  -10.0705 C   0  0  0  0  0  0  0  0  0  0  0  0
   21.1041   -6.3343  -10.7354 O   0  0  0  0  0  0  0  0  0  0  0  0
   18.8358   -6.8699  -10.7270 C   0  0  0  0  0  0  0  0  0  0  0  0
   17.5499   -6.7597   -9.9862 C   0  0  2  0  0  0  0  0  0  0  0  0
   16.4596   -7.1708  -10.8647 N   0  0  0  0  0  0  0  0  0  0  0  0
   17.2351   -5.4308   -9.4520 C   0  0  0  0  0  0  0  0  0  0  0  0
   17.6343   -4.9432   -8.2217 O   0  0  0  0  0  0  0  0  0  0  0  0
   16.5417   -4.6431  -10.1522 O   0  0  0  0  0  0  0  0  0  0  0  0
  2  1  1  0
  3  4  1  0
  3  2  1  0
  4  5  1  0
  5  1  1  0
  5  6  1  1
  7  6  2  0
  8  6  1  0
  9  8  1  0
  9 14  1  0
  9 10  1  1
 11 10  1  0
 12 11  1  0
 13 12  2  0
 14 15  2  0
 14 22  1  0
 16 12  1  0
 18 19  2  0
 18 17  1  0
 20 18  1  0
 21 20  1  6
 21 23  1  0
 22 21  1  0
 23 25  2  0
 23 24  1  0
M  END
$$$$
