PEN.pdb
     RDKit          3D

 25 25  0  0  1  0  0  0  0  0999 V2000
   25.2322   -9.7800  -17.1383 N   0  0  0  0  0  0  0  0  0  0  0  0
   25.9777   -9.1588  -16.0713 C   0  0  0  0  0  0  0  0  0  0  0  0
   25.8994  -10.2507  -15.0011 C   0  0  0  0  0  0  0  0  0  0  0  0
   24.4682  -10.7330  -15.1394 C   0  0  0  0  0  0  0  0  0  0  0  0
   24.0618  -10.2857  -16.5026 C   0  0  1  0  0  0  0  0  0  0  0  0
   22.9587   -9.2697  -16.4008 C   0  0  0  0  0  0  0  0  0  0  0  0
   21.8739   -9.6477  -15.8484 O   0  0  0  0  0  0  0  0  0  0  0  0
   23.0432   -7.9524  -16.8679 N   0  0  0  0  0  0  0  0  0  0  0  0
   21.8712   -7.1035  -16.8264 C   0  0  1  0  0  0  0  0  0  0  0  0
   21.5998   -6.5254  -15.4731 C   0  0  0  0  0  0  0  0  0  0  0  0
   22.8064   -5.9453  -14.7945 C   0  0  0  0  0  0  0  0  0  0  0  0
   22.3574   -5.3587  -13.5032 C   0  0  0  0  0  0  0  0  0  0  0  0
   23.0699   -5.4499  -12.4526 O   0  0  0  0  0  0  0  0  0  0  0  0
   22.1316   -5.9423  -17.7428 C   0  0  0  0  0  0  0  0  0  0  0  0
   23.2997   -5.6216  -17.9962 O   0  0  0  0  0  0  0  0  0  0  0  0
   21.1533   -4.6815  -13.3483 O   0  0  0  0  0  0  0  0  0  0  0  0
   19.3910   -2.5699  -22.1355 N   0  0  0  0  0  0  0  0  0  0  0  0
   20.4079   -2.9644  -21.2414 C   0  0  0  0  0  0  0  0  0  0  0  0
   21.5796   -2.5529  -21.4891 O   0  0  0  0  0  0  0  0  0  0  0  0
   20.2142   -3.7981  -20.0687 C   0  0  0  0  0  0  0  0  0  0  0  0
   21.4187   -4.1235  -19.2576 C   0  0  2  0  0  0  0  0  0  0  0  0
   21.0886   -5.1996  -18.3288 N   0  0  0  0  0  0  0  0  0  0  0  0
   21.9890   -3.0115  -18.4906 C   0  0  0  0  0  0  0  0  0  0  0  0
   23.1282   -2.3038  -18.8256 O   0  0  0  0  0  0  0  0  0  0  0  0
   21.4128   -2.6469  -17.4291 O   0  0  0  0  0  0  0  0  0  0  0  0
  2  1  1  0
  3  4  1  0
  3  2  1  0
  4  5  1  0
  5  1  1  0
  5  6  1  1
  7  6  2  0
  8  6  1  0
  9  8  1  0
  9 14  1  0
  9 10  1  1
 11 10  1  0
 12 11  1  0
 13 12  2  0
 14 15  2  0
 14 22  1  0
 16 12  1  0
 18 19  2  0
 18 17  1  0
 20 18  1  0
 21 20  1  1
 21 23  1  0
 22 21  1  0
 23 25  2  0
 23 24  1  0
M  END
$$$$
