PEN.pdb
     RDKit          3D

 25 25  0  0  1  0  0  0  0  0999 V2000
   18.8323  -24.9877   -9.6152 N   0  0  0  0  0  0  0  0  0  0  0  0
   18.0977  -24.0330  -10.4083 C   0  0  0  0  0  0  0  0  0  0  0  0
   18.6694  -22.7197   -9.8680 C   0  0  0  0  0  0  0  0  0  0  0  0
   18.7620  -22.9985   -8.3802 C   0  0  0  0  0  0  0  0  0  0  0  0
   18.7397  -24.4864   -8.2849 C   0  0  1  0  0  0  0  0  0  0  0  0
   17.4963  -24.9354   -7.5694 C   0  0  0  0  0  0  0  0  0  0  0  0
   16.3926  -24.8105   -8.1947 O   0  0  0  0  0  0  0  0  0  0  0  0
   17.4712  -25.4741   -6.2772 N   0  0  0  0  0  0  0  0  0  0  0  0
   16.2057  -25.8583   -5.6881 C   0  0  1  0  0  0  0  0  0  0  0  0
   15.9599  -27.3342   -5.7104 C   0  0  0  0  0  0  0  0  0  0  0  0
   17.0352  -28.1306   -6.3903 C   0  0  0  0  0  0  0  0  0  0  0  0
   16.7145  -29.5711   -6.2027 C   0  0  0  0  0  0  0  0  0  0  0  0
   16.4452  -30.0438   -5.0520 O   0  0  0  0  0  0  0  0  0  0  0  0
   16.2483  -25.4539   -4.2423 C   0  0  0  0  0  0  0  0  0  0  0  0
   17.3445  -25.3092   -3.6864 O   0  0  0  0  0  0  0  0  0  0  0  0
   16.6847  -30.4902   -7.2451 O   0  0  0  0  0  0  0  0  0  0  0  0
   15.5464  -21.8124   -2.1084 N   0  0  0  0  0  0  0  0  0  0  0  0
   14.2920  -22.4160   -1.8823 C   0  0  0  0  0  0  0  0  0  0  0  0
   13.3042  -21.6405   -1.7200 O   0  0  0  0  0  0  0  0  0  0  0  0
   14.0498  -23.8463   -1.8231 C   0  0  0  0  0  0  0  0  0  0  0  0
   15.1986  -24.7446   -2.1195 C   0  0  2  0  0  0  0  0  0  0  0  0
   15.0789  -25.2313   -3.4901 N   0  0  0  0  0  0  0  0  0  0  0  0
   15.3476  -25.9016   -1.2310 C   0  0  0  0  0  0  0  0  0  0  0  0
   15.9461  -25.8874    0.0149 O   0  0  0  0  0  0  0  0  0  0  0  0
   14.9014  -27.0195   -1.6092 O   0  0  0  0  0  0  0  0  0  0  0  0
  2  1  1  0
  3  4  1  0
  3  2  1  0
  4  5  1  0
  5  1  1  0
  5  6  1  6
  7  6  2  0
  8  6  1  0
  9  8  1  0
  9 14  1  0
  9 10  1  1
 11 10  1  0
 12 11  1  0
 13 12  2  0
 14 15  2  0
 14 22  1  0
 16 12  1  0
 18 19  2  0
 18 17  1  0
 20 18  1  0
 21 20  1  1
 21 23  1  0
 22 21  1  0
 23 25  2  0
 23 24  1  0
M  END
$$$$
