PEN.pdb
     RDKit          3D

 25 25  0  0  1  0  0  0  0  0999 V2000
   23.7241  -11.9809  -17.3212 N   0  0  0  0  0  0  0  0  0  0  0  0
   23.0024  -13.0445  -17.9756 C   0  0  0  0  0  0  0  0  0  0  0  0
   23.4106  -12.8067  -19.4318 C   0  0  0  0  0  0  0  0  0  0  0  0
   23.3710  -11.2940  -19.5328 C   0  0  0  0  0  0  0  0  0  0  0  0
   23.4559  -10.8307  -18.1180 C   0  0  1  0  0  0  0  0  0  0  0  0
   22.1846  -10.1277  -17.7319 C   0  0  0  0  0  0  0  0  0  0  0  0
   21.8096   -9.1621  -18.4747 O   0  0  0  0  0  0  0  0  0  0  0  0
   21.3959  -10.4592  -16.6234 N   0  0  0  0  0  0  0  0  0  0  0  0
   20.2365   -9.6527  -16.3051 C   0  0  1  0  0  0  0  0  0  0  0  0
   19.1607  -10.4086  -15.5906 C   0  0  0  0  0  0  0  0  0  0  0  0
   18.3827  -11.3508  -16.4623 C   0  0  0  0  0  0  0  0  0  0  0  0
   17.4079  -12.0648  -15.5946 C   0  0  0  0  0  0  0  0  0  0  0  0
   16.4180  -12.6927  -16.0904 O   0  0  0  0  0  0  0  0  0  0  0  0
   20.6923   -8.5703  -15.3689 C   0  0  0  0  0  0  0  0  0  0  0  0
   21.7556   -8.7122  -14.7516 O   0  0  0  0  0  0  0  0  0  0  0  0
   17.5009  -12.1006  -14.2081 O   0  0  0  0  0  0  0  0  0  0  0  0
   22.2026   -3.8368  -13.9275 N   0  0  0  0  0  0  0  0  0  0  0  0
   22.5734   -4.7295  -14.9544 C   0  0  0  0  0  0  0  0  0  0  0  0
   23.6222   -4.4487  -15.6062 O   0  0  0  0  0  0  0  0  0  0  0  0
   21.8507   -5.9355  -15.3167 C   0  0  0  0  0  0  0  0  0  0  0  0
   20.6044   -6.2357  -14.5610 C   0  0  2  0  0  0  0  0  0  0  0  0
   19.9497   -7.3913  -15.1658 N   0  0  0  0  0  0  0  0  0  0  0  0
   19.6295   -5.1431  -14.4815 C   0  0  0  0  0  0  0  0  0  0  0  0
   18.7578   -4.7681  -15.4867 O   0  0  0  0  0  0  0  0  0  0  0  0
   19.5572   -4.4696  -13.4173 O   0  0  0  0  0  0  0  0  0  0  0  0
  2  1  1  0
  3  4  1  0
  3  2  1  0
  4  5  1  0
  5  1  1  0
  5  6  1  1
  7  6  2  0
  8  6  1  0
  9  8  1  0
  9 14  1  0
  9 10  1  1
 11 10  1  0
 12 11  1  0
 13 12  2  0
 14 15  2  0
 14 22  1  0
 16 12  1  0
 18 19  2  0
 18 17  1  0
 20 18  1  0
 21 20  1  6
 21 23  1  0
 22 21  1  0
 23 25  2  0
 23 24  1  0
M  END
$$$$
