PEN.pdb
     RDKit          3D

 25 25  0  0  1  0  0  0  0  0999 V2000
   21.9902  -21.8450  -14.1807 N   0  0  0  0  0  0  0  0  0  0  0  0
   21.2935  -21.4843  -15.3910 C   0  0  0  0  0  0  0  0  0  0  0  0
   21.7839  -20.0463  -15.5796 C   0  0  0  0  0  0  0  0  0  0  0  0
   21.7672  -19.5132  -14.1600 C   0  0  0  0  0  0  0  0  0  0  0  0
   21.7794  -20.7378  -13.3093 C   0  0  1  0  0  0  0  0  0  0  0  0
   20.4968  -20.8340  -12.5313 C   0  0  0  0  0  0  0  0  0  0  0  0
   20.2247  -19.8693  -11.7439 O   0  0  0  0  0  0  0  0  0  0  0  0
   19.5934  -21.9007  -12.6131 N   0  0  0  0  0  0  0  0  0  0  0  0
   18.3646  -21.8560  -11.8489 C   0  0  1  0  0  0  0  0  0  0  0  0
   17.1656  -21.4903  -12.6662 C   0  0  0  0  0  0  0  0  0  0  0  0
   16.7920  -20.0381  -12.6017 C   0  0  0  0  0  0  0  0  0  0  0  0
   15.5473  -19.8584  -13.3966 C   0  0  0  0  0  0  0  0  0  0  0  0
   14.4311  -20.3139  -12.9886 O   0  0  0  0  0  0  0  0  0  0  0  0
   18.1177  -23.2414  -11.3240 C   0  0  0  0  0  0  0  0  0  0  0  0
   18.2768  -24.2109  -12.0767 O   0  0  0  0  0  0  0  0  0  0  0  0
   15.5085  -19.1946  -14.6173 O   0  0  0  0  0  0  0  0  0  0  0  0
   19.7545  -24.1180   -6.6183 N   0  0  0  0  0  0  0  0  0  0  0  0
   19.2631  -24.8224   -7.7370 C   0  0  0  0  0  0  0  0  0  0  0  0
   20.1189  -25.3930   -8.4756 O   0  0  0  0  0  0  0  0  0  0  0  0
   17.8629  -24.9422   -8.1018 C   0  0  0  0  0  0  0  0  0  0  0  0
   17.5261  -24.8566   -9.5487 C   0  0  2  0  0  0  0  0  0  0  0  0
   17.7093  -23.4803   -9.9978 N   0  0  0  0  0  0  0  0  0  0  0  0
   16.1714  -25.2838   -9.9132 C   0  0  0  0  0  0  0  0  0  0  0  0
   15.7779  -26.5853  -10.1620 O   0  0  0  0  0  0  0  0  0  0  0  0
   15.2663  -24.4110  -10.0166 O   0  0  0  0  0  0  0  0  0  0  0  0
  2  1  1  0
  3  4  1  0
  3  2  1  0
  4  5  1  0
  5  1  1  0
  5  6  1  6
  7  6  2  0
  8  6  1  0
  9  8  1  0
  9 14  1  0
  9 10  1  6
 11 10  1  0
 12 11  1  0
 13 12  2  0
 14 15  2  0
 14 22  1  0
 16 12  1  0
 18 19  2  0
 18 17  1  0
 20 18  1  0
 21 20  1  1
 21 23  1  0
 22 21  1  0
 23 25  2  0
 23 24  1  0
M  END
$$$$
