PEN.pdb
     RDKit          3D

 25 25  0  0  1  0  0  0  0  0999 V2000
   18.4561  -11.9108  -15.6336 N   0  0  0  0  0  0  0  0  0  0  0  0
   17.6546  -12.5230  -14.6026 C   0  0  0  0  0  0  0  0  0  0  0  0
   16.3677  -12.8104  -15.3806 C   0  0  0  0  0  0  0  0  0  0  0  0
   16.2165  -11.5588  -16.2235 C   0  0  0  0  0  0  0  0  0  0  0  0
   17.5835  -10.9634  -16.2424 C   0  0  1  0  0  0  0  0  0  0  0  0
   17.5730   -9.6338  -15.5413 C   0  0  0  0  0  0  0  0  0  0  0  0
   16.8567   -8.7140  -16.0570 O   0  0  0  0  0  0  0  0  0  0  0  0
   18.2899   -9.3428  -14.3742 N   0  0  0  0  0  0  0  0  0  0  0  0
   18.1973   -8.0214  -13.7901 C   0  0  1  0  0  0  0  0  0  0  0  0
   18.0460   -8.0355  -12.3014 C   0  0  0  0  0  0  0  0  0  0  0  0
   17.6496   -6.7155  -11.7069 C   0  0  0  0  0  0  0  0  0  0  0  0
   17.5570   -6.8959  -10.2331 C   0  0  0  0  0  0  0  0  0  0  0  0
   17.7928   -8.0221   -9.6890 O   0  0  0  0  0  0  0  0  0  0  0  0
   19.4906   -7.3156  -14.0815 C   0  0  0  0  0  0  0  0  0  0  0  0
   20.5266   -7.9801  -14.2117 O   0  0  0  0  0  0  0  0  0  0  0  0
   17.2140   -5.8723   -9.3573 O   0  0  0  0  0  0  0  0  0  0  0  0
   23.1188   -3.6396  -15.4349 N   0  0  0  0  0  0  0  0  0  0  0  0
   21.7919   -3.3701  -15.8296 C   0  0  0  0  0  0  0  0  0  0  0  0
   21.6126   -2.3774  -16.5949 O   0  0  0  0  0  0  0  0  0  0  0  0
   20.6270   -4.1387  -15.4291 C   0  0  0  0  0  0  0  0  0  0  0  0
   20.8551   -5.3043  -14.5326 C   0  0  2  0  0  0  0  0  0  0  0  0
   19.5692   -5.9159  -14.2134 N   0  0  0  0  0  0  0  0  0  0  0  0
   21.5518   -5.0136  -13.2755 C   0  0  0  0  0  0  0  0  0  0  0  0
   21.0554   -5.2503  -12.0073 O   0  0  0  0  0  0  0  0  0  0  0  0
   22.7045   -4.5030  -13.3236 O   0  0  0  0  0  0  0  0  0  0  0  0
  2  1  1  0
  3  4  1  0
  3  2  1  0
  4  5  1  0
  5  1  1  0
  5  6  1  1
  7  6  2  0
  8  6  1  0
  9  8  1  0
  9 14  1  0
  9 10  1  1
 11 10  1  0
 12 11  1  0
 13 12  2  0
 14 15  2  0
 14 22  1  0
 16 12  1  0
 18 19  2  0
 18 17  1  0
 20 18  1  0
 21 20  1  1
 21 23  1  0
 22 21  1  0
 23 25  2  0
 23 24  1  0
M  END
$$$$
