PEN.pdb
     RDKit          3D

 25 25  0  0  1  0  0  0  0  0999 V2000
   21.9630  -13.2585  -16.6251 N   0  0  0  0  0  0  0  0  0  0  0  0
   20.9448  -14.2284  -16.9457 C   0  0  0  0  0  0  0  0  0  0  0  0
   21.2250  -14.4482  -18.4347 C   0  0  0  0  0  0  0  0  0  0  0  0
   21.5235  -13.0413  -18.9158 C   0  0  0  0  0  0  0  0  0  0  0  0
   21.8764  -12.2970  -17.6728 C   0  0  1  0  0  0  0  0  0  0  0  0
   20.8547  -11.2263  -17.4093 C   0  0  0  0  0  0  0  0  0  0  0  0
   20.7122  -10.3304  -18.3047 O   0  0  0  0  0  0  0  0  0  0  0  0
   20.0602  -11.1490  -16.2589 N   0  0  0  0  0  0  0  0  0  0  0  0
   19.0608  -10.1072  -16.1500 C   0  0  1  0  0  0  0  0  0  0  0  0
   17.7979  -10.5578  -15.4858 C   0  0  0  0  0  0  0  0  0  0  0  0
   16.8654  -11.3202  -16.3815 C   0  0  0  0  0  0  0  0  0  0  0  0
   15.7284  -11.7943  -15.5475 C   0  0  0  0  0  0  0  0  0  0  0  0
   15.4914  -13.0358  -15.3977 O   0  0  0  0  0  0  0  0  0  0  0  0
   19.6387   -9.0270  -15.2810 C   0  0  0  0  0  0  0  0  0  0  0  0
   20.5684   -9.3018  -14.5118 O   0  0  0  0  0  0  0  0  0  0  0  0
   14.8578  -10.9382  -14.8832 O   0  0  0  0  0  0  0  0  0  0  0  0
   22.0833   -5.1865  -12.9236 N   0  0  0  0  0  0  0  0  0  0  0  0
   22.0664   -5.5942  -14.2736 C   0  0  0  0  0  0  0  0  0  0  0  0
   22.8058   -4.9509  -15.0753 O   0  0  0  0  0  0  0  0  0  0  0  0
   21.2733   -6.6865  -14.8082 C   0  0  0  0  0  0  0  0  0  0  0  0
   19.8194   -6.6916  -14.4910 C   0  0  2  0  0  0  0  0  0  0  0  0
   19.1589   -7.7035  -15.3093 N   0  0  0  0  0  0  0  0  0  0  0  0
   19.1216   -5.4163  -14.6831 C   0  0  0  0  0  0  0  0  0  0  0  0
   19.0533   -4.3896  -13.7600 O   0  0  0  0  0  0  0  0  0  0  0  0
   18.5226   -5.2096  -15.7741 O   0  0  0  0  0  0  0  0  0  0  0  0
  2  1  1  0
  3  4  1  0
  3  2  1  0
  4  5  1  0
  5  1  1  0
  5  6  1  1
  7  6  2  0
  8  6  1  0
  9  8  1  0
  9 14  1  0
  9 10  1  1
 11 10  1  0
 12 11  1  0
 13 12  2  0
 14 15  2  0
 14 22  1  0
 16 12  1  0
 18 19  2  0
 18 17  1  0
 20 18  1  0
 21 20  1  6
 21 23  1  0
 22 21  1  0
 23 25  2  0
 23 24  1  0
M  END
$$$$
