PEN.pdb
     RDKit          3D

 25 25  0  0  1  0  0  0  0  0999 V2000
   27.0003  -19.1205  -15.9616 N   0  0  0  0  0  0  0  0  0  0  0  0
   27.8570  -18.7368  -14.8665 C   0  0  0  0  0  0  0  0  0  0  0  0
   29.0603  -19.6492  -15.1181 C   0  0  0  0  0  0  0  0  0  0  0  0
   28.3963  -20.9504  -15.5255 C   0  0  0  0  0  0  0  0  0  0  0  0
   27.0242  -20.5449  -15.9455 C   0  0  1  0  0  0  0  0  0  0  0  0
   26.0060  -21.1425  -15.0151 C   0  0  0  0  0  0  0  0  0  0  0  0
   25.9723  -22.4142  -14.9349 O   0  0  0  0  0  0  0  0  0  0  0  0
   25.1029  -20.4033  -14.2413 N   0  0  0  0  0  0  0  0  0  0  0  0
   24.2198  -21.0909  -13.3229 C   0  0  1  0  0  0  0  0  0  0  0  0
   24.3245  -20.6002  -11.9131 C   0  0  0  0  0  0  0  0  0  0  0  0
   25.4771  -21.1742  -11.1418 C   0  0  0  0  0  0  0  0  0  0  0  0
   25.4217  -20.6119   -9.7656 C   0  0  0  0  0  0  0  0  0  0  0  0
   24.4666  -19.8546   -9.3991 O   0  0  0  0  0  0  0  0  0  0  0  0
   22.8126  -20.8134  -13.7686 C   0  0  0  0  0  0  0  0  0  0  0  0
   22.5380  -19.7080  -14.2527 O   0  0  0  0  0  0  0  0  0  0  0  0
   26.3859  -20.8644   -8.7967 O   0  0  0  0  0  0  0  0  0  0  0  0
   17.6252  -21.2700  -14.9633 N   0  0  0  0  0  0  0  0  0  0  0  0
   18.2716  -22.5005  -14.7243 C   0  0  0  0  0  0  0  0  0  0  0  0
   17.6025  -23.5519  -14.9485 O   0  0  0  0  0  0  0  0  0  0  0  0
   19.6341  -22.6512  -14.2460 C   0  0  0  0  0  0  0  0  0  0  0  0
   20.4305  -21.4087  -14.0552 C   0  0  2  0  0  0  0  0  0  0  0  0
   21.7866  -21.7711  -13.6558 N   0  0  0  0  0  0  0  0  0  0  0  0
   19.9000  -20.4570  -13.0738 C   0  0  0  0  0  0  0  0  0  0  0  0
   19.0598  -19.3960  -13.3549 O   0  0  0  0  0  0  0  0  0  0  0  0
   20.2207  -20.5925  -11.8611 O   0  0  0  0  0  0  0  0  0  0  0  0
  2  1  1  0
  3  4  1  0
  3  2  1  0
  4  5  1  0
  5  1  1  0
  5  6  1  1
  7  6  2  0
  8  6  1  0
  9  8  1  0
  9 14  1  0
  9 10  1  1
 11 10  1  0
 12 11  1  0
 13 12  2  0
 14 15  2  0
 14 22  1  0
 16 12  1  0
 18 19  2  0
 18 17  1  0
 20 18  1  0
 21 20  1  1
 21 23  1  0
 22 21  1  0
 23 25  2  0
 23 24  1  0
M  END
$$$$
