PEN.pdb
     RDKit          3D

 25 25  0  0  1  0  0  0  0  0999 V2000
   20.1068  -13.2697  -15.7370 N   0  0  0  0  0  0  0  0  0  0  0  0
   18.9445  -14.1058  -15.9104 C   0  0  0  0  0  0  0  0  0  0  0  0
   19.1767  -14.6182  -17.3343 C   0  0  0  0  0  0  0  0  0  0  0  0
   19.6938  -13.3795  -18.0402 C   0  0  0  0  0  0  0  0  0  0  0  0
   20.1689  -12.4997  -16.9341 C   0  0  1  0  0  0  0  0  0  0  0  0
   19.3337  -11.2513  -16.8776 C   0  0  0  0  0  0  0  0  0  0  0  0
   19.3703  -10.4847  -17.8955 O   0  0  0  0  0  0  0  0  0  0  0  0
   18.5290  -10.8793  -15.7937 N   0  0  0  0  0  0  0  0  0  0  0  0
   17.8223   -9.6163  -15.8294 C   0  0  1  0  0  0  0  0  0  0  0  0
   16.4467   -9.6846  -15.2441 C   0  0  0  0  0  0  0  0  0  0  0  0
   15.3571   -9.9184  -16.2496 C   0  0  0  0  0  0  0  0  0  0  0  0
   14.0892  -10.1236  -15.4990 C   0  0  0  0  0  0  0  0  0  0  0  0
   13.4525  -11.2237  -15.5656 O   0  0  0  0  0  0  0  0  0  0  0  0
   18.5992   -8.6490  -14.9829 C   0  0  0  0  0  0  0  0  0  0  0  0
   19.0586   -9.0277  -13.8979 O   0  0  0  0  0  0  0  0  0  0  0  0
   13.5157   -9.1527  -14.6862 O   0  0  0  0  0  0  0  0  0  0  0  0
   22.7956   -4.8164  -14.6387 N   0  0  0  0  0  0  0  0  0  0  0  0
   21.9423   -5.7522  -14.0180 C   0  0  0  0  0  0  0  0  0  0  0  0
   21.9819   -5.8128  -12.7538 O   0  0  0  0  0  0  0  0  0  0  0  0
   21.0296   -6.6423  -14.7127 C   0  0  0  0  0  0  0  0  0  0  0  0
   19.5729   -6.4298  -14.4950 C   0  0  2  0  0  0  0  0  0  0  0  0
   18.8265   -7.3175  -15.3807 N   0  0  0  0  0  0  0  0  0  0  0  0
   19.0915   -5.0603  -14.7025 C   0  0  0  0  0  0  0  0  0  0  0  0
   19.0726   -4.0609  -13.7477 O   0  0  0  0  0  0  0  0  0  0  0  0
   18.6503   -4.7371  -15.8394 O   0  0  0  0  0  0  0  0  0  0  0  0
  2  1  1  0
  3  4  1  0
  3  2  1  0
  4  5  1  0
  5  1  1  0
  5  6  1  1
  7  6  2  0
  8  6  1  0
  9  8  1  0
  9 14  1  0
  9 10  1  1
 11 10  1  0
 12 11  1  0
 13 12  2  0
 14 15  2  0
 14 22  1  0
 16 12  1  0
 18 19  2  0
 18 17  1  0
 20 18  1  0
 21 20  1  6
 21 23  1  0
 22 21  1  0
 23 25  2  0
 23 24  1  0
M  END
$$$$
