VMD.pdb
     RDKit          3D

 24 23  0  0  1  0  0  0  0  0999 V2000
   17.7399  -20.1754  -12.6319 C   0  0  0  0  0  0  0  0  0  0  0  0
   19.1451  -19.6540  -12.8213 C   0  0  1  0  0  0  0  0  0  0  0  0
   19.8267  -19.6723  -11.4603 C   0  0  0  0  0  0  0  0  0  0  0  0
   19.9198  -20.5396  -13.7835 C   0  0  2  0  0  0  0  0  0  0  0  0
   19.9314  -21.9069  -13.2798 N   0  0  0  0  0  0  0  0  0  0  0  0
   21.3044  -20.0383  -13.9767 C   0  0  0  0  0  0  0  0  0  0  0  0
   21.5236  -18.9957  -14.6111 O   0  0  0  0  0  0  0  0  0  0  0  0
   28.7047  -21.1035  -11.7140 C   0  0  0  0  0  0  0  0  0  0  0  0
   26.9849  -21.6568  -11.5188 S   0  0  0  0  0  0  0  0  0  0  0  0
   26.0050  -20.8688  -12.8018 C   0  0  0  0  0  0  0  0  0  0  0  0
   24.5538  -21.2750  -12.6275 C   0  0  0  0  0  0  0  0  0  0  0  0
   23.7668  -20.4940  -13.6773 C   0  0  2  0  0  0  0  0  0  0  0  0
   22.3757  -20.7491  -13.4382 N   0  0  0  0  0  0  0  0  0  0  0  0
   24.2136  -20.7244  -15.0419 C   0  0  0  0  0  0  0  0  0  0  0  0
   23.5314  -21.4675  -15.7963 O   0  0  0  0  0  0  0  0  0  0  0  0
   25.3817  -20.1524  -15.5662 N   0  0  0  0  0  0  0  0  0  0  0  0
   25.5886  -19.8692  -16.9889 C   0  0  1  0  0  0  0  0  0  0  0  0
   24.4370  -19.0582  -17.5277 C   0  0  0  0  0  0  0  0  0  0  0  0
   23.6675  -19.7669  -18.5609 C   0  0  0  0  0  0  0  0  0  0  0  0
   23.9538  -20.9571  -18.9103 O   0  0  0  0  0  0  0  0  0  0  0  0
   26.9127  -19.2422  -17.1906 C   0  0  0  0  0  0  0  0  0  0  0  0
   27.3706  -18.4537  -16.2872 O   0  0  0  0  0  0  0  0  0  0  0  0
   22.5951  -19.1605  -19.2010 O   0  0  0  0  0  0  0  0  0  0  0  0
   27.7023  -19.4358  -18.2772 O   0  0  0  0  0  0  0  0  0  0  0  0
  2  4  1  0
  2  1  1  1
  3  2  1  0
  4  5  1  1
  6  4  1  0
  6 13  1  0
  7  6  2  0
  9  8  1  0
 10  9  1  0
 11 10  1  0
 12 11  1  1
 12 13  1  0
 14 16  1  0
 14 12  1  0
 15 14  2  0
 17 16  1  0
 17 21  1  0
 17 18  1  1
 19 18  1  0
 19 20  2  0
 21 22  2  0
 21 24  1  0
 23 19  1  0
M  END
$$$$
