VMD.pdb
     RDKit          3D

 24 23  0  0  1  0  0  0  0  0999 V2000
   17.5066  -13.5401  -17.2676 C   0  0  0  0  0  0  0  0  0  0  0  0
   18.3822  -12.7604  -16.3147 C   0  0  1  0  0  0  0  0  0  0  0  0
   19.5943  -13.6247  -15.9969 C   0  0  0  0  0  0  0  0  0  0  0  0
   18.8448  -11.4613  -16.9536 C   0  0  2  0  0  0  0  0  0  0  0  0
   19.5537  -11.7568  -18.1920 N   0  0  0  0  0  0  0  0  0  0  0  0
   19.7069  -10.6851  -16.0263 C   0  0  0  0  0  0  0  0  0  0  0  0
   19.2789  -10.2994  -14.9283 O   0  0  0  0  0  0  0  0  0  0  0  0
   25.0238  -13.9094  -14.9699 C   0  0  0  0  0  0  0  0  0  0  0  0
   24.9794  -12.2605  -15.7321 S   0  0  0  0  0  0  0  0  0  0  0  0
   23.4097  -11.4990  -15.3036 C   0  0  0  0  0  0  0  0  0  0  0  0
   23.3426  -10.1245  -15.9422 C   0  0  0  0  0  0  0  0  0  0  0  0
   21.9449   -9.5871  -15.6438 C   0  0  2  0  0  0  0  0  0  0  0  0
   21.0173  -10.3838  -16.3936 N   0  0  0  0  0  0  0  0  0  0  0  0
   21.8145   -8.1499  -15.8235 C   0  0  0  0  0  0  0  0  0  0  0  0
   21.5346   -7.6948  -16.9643 O   0  0  0  0  0  0  0  0  0  0  0  0
   21.9871   -7.2339  -14.7759 N   0  0  0  0  0  0  0  0  0  0  0  0
   21.8176   -5.7854  -14.9173 C   0  0  1  0  0  0  0  0  0  0  0  0
   20.4557   -5.4770  -15.4867 C   0  0  0  0  0  0  0  0  0  0  0  0
   20.1726   -4.0357  -15.5538 C   0  0  0  0  0  0  0  0  0  0  0  0
   19.3305   -3.4821  -14.7761 O   0  0  0  0  0  0  0  0  0  0  0  0
   22.0963   -5.1171  -13.6278 C   0  0  0  0  0  0  0  0  0  0  0  0
   22.2950   -5.8383  -12.5848 O   0  0  0  0  0  0  0  0  0  0  0  0
   20.8143   -3.2193  -16.4753 O   0  0  0  0  0  0  0  0  0  0  0  0
   22.1607   -3.7731  -13.4515 O   0  0  0  0  0  0  0  0  0  0  0  0
  2  4  1  0
  2  1  1  6
  3  2  1  0
  4  5  1  6
  6  4  1  0
  6 13  1  0
  7  6  2  0
  9  8  1  0
 10  9  1  0
 11 10  1  0
 12 11  1  6
 12 13  1  0
 14 16  1  0
 14 12  1  0
 15 14  2  0
 17 16  1  0
 17 21  1  0
 17 18  1  1
 19 18  1  0
 19 20  2  0
 21 22  2  0
 21 24  1  0
 23 19  1  0
M  END
$$$$
