VMD.pdb
     RDKit          3D

 24 23  0  0  1  0  0  0  0  0999 V2000
   11.2464  -12.2340  -12.5923 C   0  0  0  0  0  0  0  0  0  0  0  0
   12.4616  -11.5406  -12.0221 C   0  0  1  0  0  0  0  0  0  0  0  0
   12.4567  -11.7735  -10.5178 C   0  0  0  0  0  0  0  0  0  0  0  0
   13.7357  -12.1183  -12.6162 C   0  0  2  0  0  0  0  0  0  0  0  0
   13.8000  -13.5453  -12.3285 N   0  0  0  0  0  0  0  0  0  0  0  0
   14.9366  -11.4208  -12.0898 C   0  0  0  0  0  0  0  0  0  0  0  0
   15.7570  -12.0137  -11.3736 O   0  0  0  0  0  0  0  0  0  0  0  0
   21.4292   -8.4802  -13.4506 C   0  0  0  0  0  0  0  0  0  0  0  0
   19.8366   -9.0817  -14.0863 S   0  0  0  0  0  0  0  0  0  0  0  0
   18.6188   -8.8998  -12.7782 C   0  0  0  0  0  0  0  0  0  0  0  0
   17.3328   -9.5794  -13.2095 C   0  0  0  0  0  0  0  0  0  0  0  0
   16.3197   -9.3119  -12.0988 C   0  0  2  0  0  0  0  0  0  0  0  0
   15.1468  -10.0790  -12.4037 N   0  0  0  0  0  0  0  0  0  0  0  0
   16.0871   -7.8999  -11.8399 C   0  0  0  0  0  0  0  0  0  0  0  0
   15.5364   -7.1939  -12.7259 O   0  0  0  0  0  0  0  0  0  0  0  0
   16.4501   -7.2777  -10.6368 N   0  0  0  0  0  0  0  0  0  0  0  0
   16.2733   -5.8483  -10.3673 C   0  0  1  0  0  0  0  0  0  0  0  0
   16.4247   -5.5775   -8.8916 C   0  0  0  0  0  0  0  0  0  0  0  0
   15.1808   -5.7892   -8.1368 C   0  0  0  0  0  0  0  0  0  0  0  0
   14.0993   -6.1351   -8.7124 O   0  0  0  0  0  0  0  0  0  0  0  0
   17.1862   -5.0579  -11.2212 C   0  0  0  0  0  0  0  0  0  0  0  0
   16.7186   -4.0502  -11.8641 O   0  0  0  0  0  0  0  0  0  0  0  0
   15.1371   -5.6158   -6.7600 O   0  0  0  0  0  0  0  0  0  0  0  0
   18.5085   -5.3157  -11.3853 O   0  0  0  0  0  0  0  0  0  0  0  0
  2  4  1  0
  2  1  1  6
  3  2  1  0
  4  5  1  1
  6  4  1  0
  6 13  1  0
  7  6  2  0
  9  8  1  0
 10  9  1  0
 11 10  1  0
 12 11  1  6
 12 13  1  0
 14 16  1  0
 14 12  1  0
 15 14  2  0
 17 16  1  0
 17 21  1  0
 17 18  1  1
 19 18  1  0
 19 20  2  0
 21 22  2  0
 21 24  1  0
 23 19  1  0
M  END
$$$$
