VMD.pdb
     RDKit          3D

 24 23  0  0  1  0  0  0  0  0999 V2000
   28.1080  -19.9477  -17.2555 C   0  0  0  0  0  0  0  0  0  0  0  0
   28.2838  -18.9347  -16.1485 C   0  0  1  0  0  0  0  0  0  0  0  0
   29.0807  -17.7693  -16.7177 C   0  0  0  0  0  0  0  0  0  0  0  0
   26.9340  -18.4316  -15.6637 C   0  0  2  0  0  0  0  0  0  0  0  0
   27.1308  -17.2753  -14.7992 N   0  0  0  0  0  0  0  0  0  0  0  0
   26.1880  -19.5002  -14.9515 C   0  0  0  0  0  0  0  0  0  0  0  0
   25.7164  -20.4684  -15.5661 O   0  0  0  0  0  0  0  0  0  0  0  0
   26.8649  -20.2901   -8.6940 C   0  0  0  0  0  0  0  0  0  0  0  0
   25.1200  -20.7928   -8.7627 S   0  0  0  0  0  0  0  0  0  0  0  0
   24.6550  -20.9292  -10.4926 C   0  0  0  0  0  0  0  0  0  0  0  0
   25.5583  -20.0288  -11.3141 C   0  0  0  0  0  0  0  0  0  0  0  0
   25.1642  -20.2511  -12.7724 C   0  0  2  0  0  0  0  0  0  0  0  0
   26.0134  -19.4156  -13.5711 N   0  0  0  0  0  0  0  0  0  0  0  0
   23.7393  -20.1102  -13.0266 C   0  0  0  0  0  0  0  0  0  0  0  0
   23.1906  -18.9896  -12.8532 O   0  0  0  0  0  0  0  0  0  0  0  0
   22.9356  -21.1740  -13.4611 N   0  0  0  0  0  0  0  0  0  0  0  0
   21.4902  -21.0734  -13.6795 C   0  0  1  0  0  0  0  0  0  0  0  0
   21.0482  -22.0961  -14.6957 C   0  0  0  0  0  0  0  0  0  0  0  0
   21.3212  -21.6864  -16.0812 C   0  0  0  0  0  0  0  0  0  0  0  0
   21.7954  -20.5381  -16.3584 O   0  0  0  0  0  0  0  0  0  0  0  0
   20.7778  -21.1626  -12.3866 C   0  0  0  0  0  0  0  0  0  0  0  0
   21.1842  -22.0082  -11.5106 O   0  0  0  0  0  0  0  0  0  0  0  0
   21.0676  -22.5400  -17.1464 O   0  0  0  0  0  0  0  0  0  0  0  0
   19.7048  -20.4069  -12.0414 O   0  0  0  0  0  0  0  0  0  0  0  0
  2  4  1  0
  2  1  1  6
  3  2  1  0
  4  5  1  1
  6  4  1  0
  6 13  1  0
  7  6  2  0
  9  8  1  0
 10  9  1  0
 11 10  1  0
 12 11  1  1
 12 13  1  0
 14 16  1  0
 14 12  1  0
 15 14  2  0
 17 16  1  0
 17 21  1  0
 17 18  1  6
 19 18  1  0
 19 20  2  0
 21 22  2  0
 21 24  1  0
 23 19  1  0
M  END
$$$$
