VMD.pdb
     RDKit          3D

 24 23  0  0  1  0  0  0  0  0999 V2000
   15.5117  -11.3120  -12.9941 C   0  0  0  0  0  0  0  0  0  0  0  0
   16.2953  -11.6324  -11.7428 C   0  0  1  0  0  0  0  0  0  0  0  0
   17.2174  -12.7993  -12.0672 C   0  0  0  0  0  0  0  0  0  0  0  0
   17.1294  -10.4370  -11.3125 C   0  0  2  0  0  0  0  0  0  0  0  0
   17.8245  -10.7535  -10.0716 N   0  0  0  0  0  0  0  0  0  0  0  0
   16.2857   -9.2258  -11.1488 C   0  0  0  0  0  0  0  0  0  0  0  0
   15.6522   -8.7546  -12.1049 O   0  0  0  0  0  0  0  0  0  0  0  0
   11.7314   -5.5756   -6.1586 C   0  0  0  0  0  0  0  0  0  0  0  0
   12.8121   -6.9978   -6.4925 S   0  0  0  0  0  0  0  0  0  0  0  0
   13.7475   -6.6392   -7.9837 C   0  0  0  0  0  0  0  0  0  0  0  0
   14.7310   -7.7683   -8.2273 C   0  0  0  0  0  0  0  0  0  0  0  0
   15.3901   -7.4726   -9.5724 C   0  0  2  0  0  0  0  0  0  0  0  0
   16.2034   -8.6070   -9.9024 N   0  0  0  0  0  0  0  0  0  0  0  0
   16.0676   -6.1870   -9.6276 C   0  0  0  0  0  0  0  0  0  0  0  0
   17.1220   -6.0173   -8.9596 O   0  0  0  0  0  0  0  0  0  0  0  0
   15.5990   -5.1130  -10.3979 N   0  0  0  0  0  0  0  0  0  0  0  0
   16.2819   -3.8210  -10.5043 C   0  0  1  0  0  0  0  0  0  0  0  0
   16.9128   -3.6799  -11.8667 C   0  0  0  0  0  0  0  0  0  0  0  0
   17.4717   -2.3413  -12.1065 C   0  0  0  0  0  0  0  0  0  0  0  0
   17.4379   -1.4325  -11.2158 O   0  0  0  0  0  0  0  0  0  0  0  0
   15.3485   -2.7276  -10.1571 C   0  0  0  0  0  0  0  0  0  0  0  0
   14.0917   -2.8979  -10.3538 O   0  0  0  0  0  0  0  0  0  0  0  0
   18.0582   -2.0144  -13.3217 O   0  0  0  0  0  0  0  0  0  0  0  0
   15.7195   -1.5309   -9.6356 O   0  0  0  0  0  0  0  0  0  0  0  0
  2  4  1  0
  2  1  1  6
  3  2  1  0
  4  5  1  1
  6  4  1  0
  6 13  1  0
  7  6  2  0
  9  8  1  0
 10  9  1  0
 11 10  1  0
 12 11  1  1
 12 13  1  0
 14 16  1  0
 14 12  1  0
 15 14  2  0
 17 16  1  0
 17 21  1  0
 17 18  1  6
 19 18  1  0
 19 20  2  0
 21 22  2  0
 21 24  1  0
 23 19  1  0
M  END
$$$$
