VMD.pdb
     RDKit          3D

 24 23  0  0  1  0  0  0  0  0999 V2000
   17.2888  -10.5619  -15.6174 C   0  0  0  0  0  0  0  0  0  0  0  0
   17.5897  -12.0417  -15.5709 C   0  0  1  0  0  0  0  0  0  0  0  0
   16.2653  -12.7815  -15.6954 C   0  0  0  0  0  0  0  0  0  0  0  0
   18.4982  -12.4398  -16.7226 C   0  0  2  0  0  0  0  0  0  0  0  0
   18.5951  -13.8925  -16.7824 N   0  0  0  0  0  0  0  0  0  0  0  0
   19.8439  -11.8281  -16.5799 C   0  0  0  0  0  0  0  0  0  0  0  0
   20.8552  -12.5331  -16.4465 O   0  0  0  0  0  0  0  0  0  0  0  0
   25.4943   -9.4648  -20.0254 C   0  0  0  0  0  0  0  0  0  0  0  0
   23.8798  -10.2758  -19.8308 S   0  0  0  0  0  0  0  0  0  0  0  0
   23.1134   -9.6244  -18.3423 C   0  0  0  0  0  0  0  0  0  0  0  0
   21.7433  -10.2558  -18.1815 C   0  0  0  0  0  0  0  0  0  0  0  0
   21.1749   -9.7064  -16.8751 C   0  0  2  0  0  0  0  0  0  0  0  0
   19.9749  -10.4404  -16.5952 N   0  0  0  0  0  0  0  0  0  0  0  0
   21.0353   -8.2590  -16.8550 C   0  0  0  0  0  0  0  0  0  0  0  0
   20.2258   -7.7073  -17.6469 O   0  0  0  0  0  0  0  0  0  0  0  0
   21.7666   -7.4366  -15.9860 N   0  0  0  0  0  0  0  0  0  0  0  0
   21.5859   -5.9861  -15.8838 C   0  0  1  0  0  0  0  0  0  0  0  0
   21.9861   -5.5105  -14.5099 C   0  0  0  0  0  0  0  0  0  0  0  0
   21.7161   -4.0813  -14.2941 C   0  0  0  0  0  0  0  0  0  0  0  0
   21.1919   -3.3552  -15.1988 O   0  0  0  0  0  0  0  0  0  0  0  0
   22.3021   -5.3101  -16.9871 C   0  0  0  0  0  0  0  0  0  0  0  0
   23.5491   -5.5583  -17.1622 O   0  0  0  0  0  0  0  0  0  0  0  0
   22.0273   -3.4649  -13.0896 O   0  0  0  0  0  0  0  0  0  0  0  0
   21.7368   -4.4282  -17.8499 O   0  0  0  0  0  0  0  0  0  0  0  0
  2  4  1  0
  2  1  1  6
  3  2  1  0
  4  5  1  1
  6  4  1  0
  6 13  1  0
  7  6  2  0
  9  8  1  0
 10  9  1  0
 11 10  1  0
 12 11  1  6
 12 13  1  0
 14 16  1  0
 14 12  1  0
 15 14  2  0
 17 16  1  0
 17 21  1  0
 17 18  1  1
 19 18  1  0
 19 20  2  0
 21 22  2  0
 21 24  1  0
 23 19  1  0
M  END
$$$$
