VMD.pdb
     RDKit          3D

 24 23  0  0  1  0  0  0  0  0999 V2000
   21.1021  -13.7759  -21.7868 C   0  0  0  0  0  0  0  0  0  0  0  0
   21.2175  -12.7924  -20.6457 C   0  0  1  0  0  0  0  0  0  0  0  0
   19.8062  -12.3719  -20.2602 C   0  0  0  0  0  0  0  0  0  0  0  0
   21.8942  -13.4389  -19.4480 C   0  0  2  0  0  0  0  0  0  0  0  0
   21.1012  -14.5763  -19.0000 N   0  0  0  0  0  0  0  0  0  0  0  0
   22.0814  -12.4612  -18.3459 C   0  0  0  0  0  0  0  0  0  0  0  0
   21.2564  -12.3715  -17.4245 O   0  0  0  0  0  0  0  0  0  0  0  0
   26.9211  -11.5978  -14.7761 C   0  0  0  0  0  0  0  0  0  0  0  0
   26.7602   -9.8386  -15.2021 S   0  0  0  0  0  0  0  0  0  0  0  0
   25.1471   -9.6011  -15.9563 C   0  0  0  0  0  0  0  0  0  0  0  0
   24.9105  -10.7103  -16.9640 C   0  0  0  0  0  0  0  0  0  0  0  0
   23.4617  -10.5628  -17.4231 C   0  0  2  0  0  0  0  0  0  0  0  0
   23.2005  -11.6301  -18.3451 N   0  0  0  0  0  0  0  0  0  0  0  0
   23.1280   -9.2319  -17.9047 C   0  0  0  0  0  0  0  0  0  0  0  0
   23.5588   -8.8572  -19.0275 O   0  0  0  0  0  0  0  0  0  0  0  0
   22.3397   -8.3334  -17.1713 N   0  0  0  0  0  0  0  0  0  0  0  0
   21.9751   -6.9931  -17.6378 C   0  0  1  0  0  0  0  0  0  0  0  0
   20.5191   -6.7241  -17.3517 C   0  0  0  0  0  0  0  0  0  0  0  0
   20.1021   -5.3629  -17.7192 C   0  0  0  0  0  0  0  0  0  0  0  0
   20.0976   -4.9680  -18.9293 O   0  0  0  0  0  0  0  0  0  0  0  0
   22.8970   -5.9907  -17.0613 C   0  0  0  0  0  0  0  0  0  0  0  0
   23.3651   -6.1833  -15.8819 O   0  0  0  0  0  0  0  0  0  0  0  0
   19.6980   -4.4499  -16.7545 O   0  0  0  0  0  0  0  0  0  0  0  0
   23.2983   -4.8573  -17.6906 O   0  0  0  0  0  0  0  0  0  0  0  0
  2  4  1  0
  2  1  1  6
  3  2  1  0
  4  5  1  1
  6  4  1  0
  6 13  1  0
  7  6  2  0
  9  8  1  0
 10  9  1  0
 11 10  1  0
 12 11  1  6
 12 13  1  0
 14 16  1  0
 14 12  1  0
 15 14  2  0
 17 16  1  0
 17 21  1  0
 17 18  1  1
 19 18  1  0
 19 20  2  0
 21 22  2  0
 21 24  1  0
 23 19  1  0
M  END
$$$$
