VMD.pdb
     RDKit          3D

 24 23  0  0  1  0  0  0  0  0999 V2000
   19.3550  -11.0678  -18.9292 C   0  0  0  0  0  0  0  0  0  0  0  0
   19.5413  -12.2472  -18.0035 C   0  0  1  0  0  0  0  0  0  0  0  0
   19.3684  -13.5114  -18.8336 C   0  0  0  0  0  0  0  0  0  0  0  0
   20.9327  -12.2336  -17.3921 C   0  0  2  0  0  0  0  0  0  0  0  0
   21.1481  -13.4703  -16.6522 N   0  0  0  0  0  0  0  0  0  0  0  0
   21.1191  -11.0534  -16.5100 C   0  0  0  0  0  0  0  0  0  0  0  0
   20.5167  -10.9616  -15.4301 O   0  0  0  0  0  0  0  0  0  0  0  0
   26.8424  -11.0436  -14.3726 C   0  0  0  0  0  0  0  0  0  0  0  0
   26.1757   -9.6445  -15.3214 S   0  0  0  0  0  0  0  0  0  0  0  0
   24.3883   -9.8173  -15.3729 C   0  0  0  0  0  0  0  0  0  0  0  0
   23.8101   -8.6769  -16.1894 C   0  0  0  0  0  0  0  0  0  0  0  0
   22.2939   -8.8516  -16.1461 C   0  0  2  0  0  0  0  0  0  0  0  0
   21.9833  -10.0316  -16.9000 N   0  0  0  0  0  0  0  0  0  0  0  0
   21.5515   -7.6602  -16.5256 C   0  0  0  0  0  0  0  0  0  0  0  0
   21.4503   -7.3599  -17.7448 O   0  0  0  0  0  0  0  0  0  0  0  0
   20.9345   -6.8182  -15.5892 N   0  0  0  0  0  0  0  0  0  0  0  0
   20.2911   -5.5465  -15.9290 C   0  0  1  0  0  0  0  0  0  0  0  0
   18.9196   -5.4778  -15.3058 C   0  0  0  0  0  0  0  0  0  0  0  0
   18.2442   -4.1930  -15.5406 C   0  0  0  0  0  0  0  0  0  0  0  0
   18.3394   -3.5801  -16.6522 O   0  0  0  0  0  0  0  0  0  0  0  0
   21.1762   -4.4199  -15.5619 C   0  0  0  0  0  0  0  0  0  0  0  0
   21.8078   -3.7983  -16.4904 O   0  0  0  0  0  0  0  0  0  0  0  0
   17.4750   -3.5941  -14.5520 O   0  0  0  0  0  0  0  0  0  0  0  0
   21.3809   -3.9787  -14.2950 O   0  0  0  0  0  0  0  0  0  0  0  0
  2  4  1  0
  2  1  1  6
  3  2  1  0
  4  5  1  1
  6  4  1  0
  6 13  1  0
  7  6  2  0
  9  8  1  0
 10  9  1  0
 11 10  1  0
 12 11  1  6
 12 13  1  0
 14 16  1  0
 14 12  1  0
 15 14  2  0
 17 16  1  0
 17 21  1  0
 17 18  1  1
 19 18  1  0
 19 20  2  0
 21 22  2  0
 21 24  1  0
 23 19  1  0
M  END
$$$$
