VMD.pdb
     RDKit          3D

 24 23  0  0  1  0  0  0  0  0999 V2000
   18.5650  -13.4653  -18.8387 C   0  0  0  0  0  0  0  0  0  0  0  0
   19.2845  -12.7095  -17.7461 C   0  0  1  0  0  0  0  0  0  0  0  0
   20.4764  -13.5529  -17.3157 C   0  0  0  0  0  0  0  0  0  0  0  0
   19.7779  -11.3667  -18.2595 C   0  0  2  0  0  0  0  0  0  0  0  0
   20.6110  -11.5754  -19.4366 N   0  0  0  0  0  0  0  0  0  0  0  0
   20.5273  -10.6334  -17.2077 C   0  0  0  0  0  0  0  0  0  0  0  0
   19.9744  -10.2870  -16.1533 O   0  0  0  0  0  0  0  0  0  0  0  0
   26.8085  -11.7120  -15.1588 C   0  0  0  0  0  0  0  0  0  0  0  0
   26.6926  -10.0300  -15.8366 S   0  0  0  0  0  0  0  0  0  0  0  0
   24.9948   -9.4754  -15.6435 C   0  0  0  0  0  0  0  0  0  0  0  0
   24.1472  -10.1078  -16.7313 C   0  0  0  0  0  0  0  0  0  0  0  0
   22.7218   -9.6124  -16.4989 C   0  0  2  0  0  0  0  0  0  0  0  0
   21.8728  -10.3282  -17.4067 N   0  0  0  0  0  0  0  0  0  0  0  0
   22.5870   -8.1648  -16.5347 C   0  0  0  0  0  0  0  0  0  0  0  0
   22.9418   -7.5387  -17.5686 O   0  0  0  0  0  0  0  0  0  0  0  0
   22.0748   -7.4221  -15.4612 N   0  0  0  0  0  0  0  0  0  0  0  0
   21.8711   -5.9714  -15.4913 C   0  0  1  0  0  0  0  0  0  0  0  0
   20.4743   -5.6548  -15.9633 C   0  0  0  0  0  0  0  0  0  0  0  0
   20.1685   -4.2169  -15.9333 C   0  0  0  0  0  0  0  0  0  0  0  0
   21.0043   -3.3463  -16.3382 O   0  0  0  0  0  0  0  0  0  0  0  0
   22.2085   -5.3877  -14.1751 C   0  0  0  0  0  0  0  0  0  0  0  0
   22.4006   -6.1731  -13.1782 O   0  0  0  0  0  0  0  0  0  0  0  0
   18.9507   -3.7508  -15.4564 O   0  0  0  0  0  0  0  0  0  0  0  0
   22.3347   -4.0593  -13.9279 O   0  0  0  0  0  0  0  0  0  0  0  0
  2  4  1  0
  2  1  1  6
  3  2  1  0
  4  5  1  6
  6  4  1  0
  6 13  1  0
  7  6  2  0
  9  8  1  0
 10  9  1  0
 11 10  1  0
 12 11  1  6
 12 13  1  0
 14 16  1  0
 14 12  1  0
 15 14  2  0
 17 16  1  0
 17 21  1  0
 17 18  1  1
 19 18  1  0
 19 20  2  0
 21 22  2  0
 21 24  1  0
 23 19  1  0
M  END
$$$$
