VMD.pdb
     RDKit          3D

 24 23  0  0  1  0  0  0  0  0999 V2000
   15.6339   -9.7286  -15.1474 C   0  0  0  0  0  0  0  0  0  0  0  0
   16.6520  -10.5082  -15.9463 C   0  0  1  0  0  0  0  0  0  0  0  0
   15.8872  -11.4122  -16.9029 C   0  0  0  0  0  0  0  0  0  0  0  0
   17.5400   -9.5680  -16.7448 C   0  0  2  0  0  0  0  0  0  0  0  0
   18.2369  -10.3223  -17.7786 N   0  0  0  0  0  0  0  0  0  0  0  0
   18.5074   -8.8664  -15.8630 C   0  0  0  0  0  0  0  0  0  0  0  0
   18.1192   -8.1949  -14.8955 O   0  0  0  0  0  0  0  0  0  0  0  0
   24.7423  -10.8725  -14.4198 C   0  0  0  0  0  0  0  0  0  0  0  0
   24.8598   -9.2304  -15.1892 S   0  0  0  0  0  0  0  0  0  0  0  0
   23.3049   -8.3771  -14.9032 C   0  0  0  0  0  0  0  0  0  0  0  0
   22.2202   -9.0494  -15.7235 C   0  0  0  0  0  0  0  0  0  0  0  0
   20.9231   -8.3150  -15.3928 C   0  0  2  0  0  0  0  0  0  0  0  0
   19.8731   -8.9621  -16.1250 N   0  0  0  0  0  0  0  0  0  0  0  0
   21.0012   -6.8730  -15.5646 C   0  0  0  0  0  0  0  0  0  0  0  0
   21.0987   -6.3956  -16.7261 O   0  0  0  0  0  0  0  0  0  0  0  0
   20.9726   -5.9763  -14.4869 N   0  0  0  0  0  0  0  0  0  0  0  0
   21.1553   -4.5286  -14.6200 C   0  0  1  0  0  0  0  0  0  0  0  0
   19.9645   -3.8020  -14.0471 C   0  0  0  0  0  0  0  0  0  0  0  0
   18.8222   -3.7506  -14.9714 C   0  0  0  0  0  0  0  0  0  0  0  0
   18.9746   -3.8587  -16.2306 O   0  0  0  0  0  0  0  0  0  0  0  0
   22.4486   -4.1271  -14.0256 C   0  0  0  0  0  0  0  0  0  0  0  0
   22.8293   -2.9061  -14.1334 O   0  0  0  0  0  0  0  0  0  0  0  0
   17.5264   -3.5778  -14.5037 O   0  0  0  0  0  0  0  0  0  0  0  0
   23.2860   -4.9623  -13.3600 O   0  0  0  0  0  0  0  0  0  0  0  0
  2  4  1  0
  2  1  1  6
  3  2  1  0
  4  5  1  6
  6  4  1  0
  6 13  1  0
  7  6  2  0
  9  8  1  0
 10  9  1  0
 11 10  1  0
 12 11  1  6
 12 13  1  0
 14 16  1  0
 14 12  1  0
 15 14  2  0
 17 16  1  0
 17 21  1  0
 17 18  1  1
 19 18  1  0
 19 20  2  0
 21 22  2  0
 21 24  1  0
 23 19  1  0
M  END
$$$$
