VMD.pdb
     RDKit          3D

 24 23  0  0  1  0  0  0  0  0999 V2000
   22.8051  -18.0170  -16.3393 C   0  0  0  0  0  0  0  0  0  0  0  0
   23.9685  -18.7519  -16.9628 C   0  0  1  0  0  0  0  0  0  0  0  0
   24.6806  -17.7773  -17.8903 C   0  0  0  0  0  0  0  0  0  0  0  0
   24.9377  -19.2265  -15.8925 C   0  0  2  0  0  0  0  0  0  0  0  0
   26.1194  -19.7951  -16.5277 N   0  0  0  0  0  0  0  0  0  0  0  0
   24.2970  -20.2174  -14.9906 C   0  0  0  0  0  0  0  0  0  0  0  0
   24.0267  -21.3607  -15.3869 O   0  0  0  0  0  0  0  0  0  0  0  0
   24.7510  -20.7276   -8.3792 C   0  0  0  0  0  0  0  0  0  0  0  0
   26.0185  -20.4263   -9.6459 S   0  0  0  0  0  0  0  0  0  0  0  0
   25.3143  -20.8574  -11.2414 C   0  0  0  0  0  0  0  0  0  0  0  0
   23.9171  -20.2733  -11.3330 C   0  0  0  0  0  0  0  0  0  0  0  0
   23.3701  -20.6962  -12.6945 C   0  0  2  0  0  0  0  0  0  0  0  0
   23.9933  -19.8588  -13.6782 N   0  0  0  0  0  0  0  0  0  0  0  0
   21.9182  -20.7501  -12.7561 C   0  0  0  0  0  0  0  0  0  0  0  0
   21.2663  -19.6781  -12.8685 O   0  0  0  0  0  0  0  0  0  0  0  0
   21.1988  -21.9522  -12.6961 N   0  0  0  0  0  0  0  0  0  0  0  0
   19.7367  -22.0358  -12.7437 C   0  0  1  0  0  0  0  0  0  0  0  0
   19.3066  -23.4675  -12.9426 C   0  0  0  0  0  0  0  0  0  0  0  0
   17.8481  -23.6210  -13.0482 C   0  0  0  0  0  0  0  0  0  0  0  0
   17.0627  -22.6221  -12.9727 O   0  0  0  0  0  0  0  0  0  0  0  0
   19.1559  -21.3939  -11.5446 C   0  0  0  0  0  0  0  0  0  0  0  0
   19.5961  -21.7284  -10.3863 O   0  0  0  0  0  0  0  0  0  0  0  0
   17.2682  -24.8690  -13.2323 O   0  0  0  0  0  0  0  0  0  0  0  0
   18.1729  -20.4585  -11.5680 O   0  0  0  0  0  0  0  0  0  0  0  0
  2  4  1  0
  2  1  1  1
  3  2  1  0
  4  5  1  6
  6  4  1  0
  6 13  1  0
  7  6  2  0
  9  8  1  0
 10  9  1  0
 11 10  1  0
 12 11  1  1
 12 13  1  0
 14 16  1  0
 14 12  1  0
 15 14  2  0
 17 16  1  0
 17 21  1  0
 17 18  1  1
 19 18  1  0
 19 20  2  0
 21 22  2  0
 21 24  1  0
 23 19  1  0
M  END
$$$$
