VMD.pdb
     RDKit          3D

 24 23  0  0  1  0  0  0  0  0999 V2000
   18.7453  -13.7697  -21.5222 C   0  0  0  0  0  0  0  0  0  0  0  0
   19.2447  -12.9477  -20.3571 C   0  0  1  0  0  0  0  0  0  0  0  0
   18.0271  -12.3648  -19.6538 C   0  0  0  0  0  0  0  0  0  0  0  0
   20.0203  -13.8175  -19.3815 C   0  0  2  0  0  0  0  0  0  0  0  0
   19.1767  -14.9210  -18.9411 N   0  0  0  0  0  0  0  0  0  0  0  0
   20.4987  -13.0249  -18.2202 C   0  0  0  0  0  0  0  0  0  0  0  0
   19.7765  -12.8453  -17.2284 O   0  0  0  0  0  0  0  0  0  0  0  0
   26.8413  -10.4173  -14.5855 C   0  0  0  0  0  0  0  0  0  0  0  0
   26.2054  -11.3030  -16.0392 S   0  0  0  0  0  0  0  0  0  0  0  0
   24.4230  -11.0824  -16.0809 C   0  0  0  0  0  0  0  0  0  0  0  0
   23.8552  -11.9044  -17.2226 C   0  0  0  0  0  0  0  0  0  0  0  0
   22.3538  -11.6270  -17.2379 C   0  0  2  0  0  0  0  0  0  0  0  0
   21.7785  -12.4730  -18.2432 N   0  0  0  0  0  0  0  0  0  0  0  0
   22.0154  -10.2168  -17.3464 C   0  0  0  0  0  0  0  0  0  0  0  0
   22.2360   -9.6121  -18.4292 O   0  0  0  0  0  0  0  0  0  0  0  0
   21.4481   -9.4876  -16.2915 N   0  0  0  0  0  0  0  0  0  0  0  0
   21.0250   -8.0887  -16.3962 C   0  0  1  0  0  0  0  0  0  0  0  0
   19.5201   -7.9995  -16.3614 C   0  0  0  0  0  0  0  0  0  0  0  0
   19.0257   -6.6148  -16.3435 C   0  0  0  0  0  0  0  0  0  0  0  0
   19.6112   -5.6868  -16.9887 O   0  0  0  0  0  0  0  0  0  0  0  0
   21.7002   -7.2790  -15.3592 C   0  0  0  0  0  0  0  0  0  0  0  0
   22.2712   -7.8776  -14.3779 O   0  0  0  0  0  0  0  0  0  0  0  0
   17.8969   -6.2640  -15.6153 O   0  0  0  0  0  0  0  0  0  0  0  0
   21.7676   -5.9236  -15.3589 O   0  0  0  0  0  0  0  0  0  0  0  0
  2  4  1  0
  2  1  1  6
  3  2  1  0
  4  5  1  1
  6  4  1  0
  6 13  1  0
  7  6  2  0
  9  8  1  0
 10  9  1  0
 11 10  1  0
 12 11  1  6
 12 13  1  0
 14 16  1  0
 14 12  1  0
 15 14  2  0
 17 16  1  0
 17 21  1  0
 17 18  1  1
 19 18  1  0
 19 20  2  0
 21 22  2  0
 21 24  1  0
 23 19  1  0
M  END
$$$$
