RAQ.pdb
     RDKit          3D

 26 25  0  0  1  0  0  0  0  0999 V2000
   12.9096  -13.5979  -11.7358 N   0  0  0  0  0  0  0  0  0  0  0  0
   12.4864  -13.3714  -10.3946 C   0  0  0  0  0  0  0  0  0  0  0  0
   12.0657  -14.3710   -9.7174 N   0  0  0  0  0  0  0  0  0  0  0  0
   12.5461  -12.0587   -9.8644 N   0  0  0  0  0  0  0  0  0  0  0  0
   13.7122  -11.2216  -10.1922 C   0  0  0  0  0  0  0  0  0  0  0  0
   13.5660   -9.9123   -9.5037 C   0  0  0  0  0  0  0  0  0  0  0  0
   14.6063   -8.9127   -9.8140 C   0  0  0  0  0  0  0  0  0  0  0  0
   14.4439   -7.6340   -9.0750 C   0  0  2  0  0  0  0  0  0  0  0  0
   13.1134   -7.0859   -9.0691 N   0  0  0  0  0  0  0  0  0  0  0  0
   15.3683   -6.6085   -9.6355 C   0  0  0  0  0  0  0  0  0  0  0  0
   15.3019   -6.2223  -10.8281 O   0  0  0  0  0  0  0  0  0  0  0  0
   11.9787  -15.3370  -10.0910 C   0  0  0  0  0  0  0  0  0  0  0  0
   17.4774   -3.9193   -8.3133 C   0  0  1  0  0  0  0  0  0  0  0  0
   17.2991   -5.0585   -9.2956 N   0  0  0  0  0  0  0  0  0  0  0  0
   16.3605   -6.0445   -8.7987 C   0  0  0  0  0  0  0  0  0  0  0  0
   18.5599   -5.7113   -9.6469 O   0  0  0  0  0  0  0  0  0  0  0  0
   19.1454   -6.4540   -8.7857 N   0  0  0  0  0  0  0  0  0  0  0  0
   19.1387   -9.9560  -13.4551 C   0  0  0  0  0  0  0  0  0  0  0  0
   19.1839   -8.6467  -14.0603 O   0  0  0  0  0  0  0  0  0  0  0  0
   18.8114   -8.5653  -15.2491 C   0  0  0  0  0  0  0  0  0  0  0  0
   19.6425   -7.4780  -13.3311 C   0  0  0  0  0  0  0  0  0  0  0  0
   20.0500   -7.5737  -11.9312 C   0  0  1  0  0  0  0  0  0  0  0  0
   20.4663   -6.3327  -11.2051 N   0  0  0  0  0  0  0  0  0  0  0  0
   19.2196   -5.5987  -10.8898 C   0  0  0  0  0  0  0  0  0  0  0  0
   21.3894   -5.4412  -11.9169 O   0  0  0  0  0  0  0  0  0  0  0  0
   22.6115   -5.7097  -12.0766 O   0  0  0  0  0  0  0  0  0  0  0  0
  2  1  1  0
  3  2  2  0
  4  2  1  0
  5  6  1  0
  5  4  1  0
  6  7  1  0
  7  8  1  0
  8  9  1  6
 10  8  1  0
 11 10  2  0
 13 12  1  6
 13 15  1  0
 13 14  1  0
 14 10  1  0
 15 23  1  0
 16 15  2  0
 18 19  2  0
 18 17  1  0
 20 18  1  0
 22 21  1  1
 21 20  1  0
 22 24  1  0
 23 22  1  0
 24 25  2  0
 24 26  1  0
M  END
$$$$
