RAQ.pdb
     RDKit          3D

 26 25  0  0  1  0  0  0  0  0999 V2000
   29.3323  -19.4838  -18.1240 N   0  0  0  0  0  0  0  0  0  0  0  0
   29.2347  -20.3248  -19.2696 C   0  0  0  0  0  0  0  0  0  0  0  0
   30.2756  -20.4787  -19.9959 N   0  0  0  0  0  0  0  0  0  0  0  0
   27.9989  -20.9544  -19.5603 N   0  0  0  0  0  0  0  0  0  0  0  0
   26.9175  -20.8717  -18.5645 C   0  0  0  0  0  0  0  0  0  0  0  0
   27.2752  -21.7269  -17.4024 C   0  0  0  0  0  0  0  0  0  0  0  0
   26.2218  -21.8814  -16.3805 C   0  0  0  0  0  0  0  0  0  0  0  0
   26.6302  -22.7224  -15.2256 C   0  0  2  0  0  0  0  0  0  0  0  0
   26.9366  -24.0939  -15.5350 N   0  0  0  0  0  0  0  0  0  0  0  0
   25.5604  -22.7060  -14.1885 C   0  0  0  0  0  0  0  0  0  0  0  0
   24.5174  -23.3976  -14.2864 O   0  0  0  0  0  0  0  0  0  0  0  0
   30.2859  -20.9790  -20.9068 C   0  0  0  0  0  0  0  0  0  0  0  0
   25.0966  -20.8754  -10.9042 C   0  0  1  0  0  0  0  0  0  0  0  0
   24.6435  -21.6942  -12.0954 N   0  0  0  0  0  0  0  0  0  0  0  0
   25.7187  -21.8828  -13.0484 C   0  0  0  0  0  0  0  0  0  0  0  0
   23.4799  -21.1217  -12.7718 O   0  0  0  0  0  0  0  0  0  0  0  0
   23.6541  -20.3043  -13.7400 N   0  0  0  0  0  0  0  0  0  0  0  0
   19.0508  -23.7573  -15.7845 C   0  0  0  0  0  0  0  0  0  0  0  0
   18.5335  -22.4185  -15.6336 O   0  0  0  0  0  0  0  0  0  0  0  0
   17.5131  -22.1338  -16.2942 C   0  0  0  0  0  0  0  0  0  0  0  0
   19.1650  -21.4439  -14.7621 C   0  0  0  0  0  0  0  0  0  0  0  0
   20.3656  -21.7791  -13.9999 C   0  0  1  0  0  0  0  0  0  0  0  0
   20.9967  -20.7337  -13.1341 N   0  0  0  0  0  0  0  0  0  0  0  0
   22.1325  -21.3924  -12.4496 C   0  0  0  0  0  0  0  0  0  0  0  0
   20.1256  -20.1035  -12.1353 O   0  0  0  0  0  0  0  0  0  0  0  0
   20.1178  -20.4470  -10.9216 O   0  0  0  0  0  0  0  0  0  0  0  0
  2  1  1  0
  3  2  2  0
  4  2  1  0
  5  6  1  0
  5  4  1  0
  6  7  1  0
  7  8  1  0
  8  9  1  6
 10  8  1  0
 11 10  2  0
 13 12  1  1
 13 15  1  0
 13 14  1  0
 14 10  1  0
 15 23  1  0
 16 15  2  0
 18 19  2  0
 18 17  1  0
 20 18  1  0
 22 21  1  6
 21 20  1  0
 22 24  1  0
 23 22  1  0
 24 25  2  0
 24 26  1  0
M  END
$$$$
