RAQ.pdb
     RDKit          3D

 26 25  0  0  1  0  0  0  0  0999 V2000
   26.6025  -23.4363  -21.3374 N   0  0  0  0  0  0  0  0  0  0  0  0
   27.8799  -23.1787  -21.9129 C   0  0  0  0  0  0  0  0  0  0  0  0
   28.1193  -23.6389  -23.0815 N   0  0  0  0  0  0  0  0  0  0  0  0
   28.8304  -22.4291  -21.1763 N   0  0  0  0  0  0  0  0  0  0  0  0
   28.6426  -22.2929  -19.7222 C   0  0  0  0  0  0  0  0  0  0  0  0
   28.3988  -23.6413  -19.1461 C   0  0  0  0  0  0  0  0  0  0  0  0
   28.1178  -23.6710  -17.6977 C   0  0  0  0  0  0  0  0  0  0  0  0
   29.1129  -22.9279  -16.8820 C   0  0  2  0  0  0  0  0  0  0  0  0
   29.9686  -23.7392  -16.0573 N   0  0  0  0  0  0  0  0  0  0  0  0
   28.4128  -21.9476  -16.0050 C   0  0  0  0  0  0  0  0  0  0  0  0
   28.1375  -22.1944  -14.8053 O   0  0  0  0  0  0  0  0  0  0  0  0
   29.0262  -23.5343  -23.5781 C   0  0  0  0  0  0  0  0  0  0  0  0
   27.4555  -18.3155  -16.4023 C   0  0  1  0  0  0  0  0  0  0  0  0
   27.4520  -19.6601  -15.7048 N   0  0  0  0  0  0  0  0  0  0  0  0
   28.0411  -20.6900  -16.5368 C   0  0  0  0  0  0  0  0  0  0  0  0
   26.1173  -20.0767  -15.2755 O   0  0  0  0  0  0  0  0  0  0  0  0
   25.4369  -20.8679  -16.0151 N   0  0  0  0  0  0  0  0  0  0  0  0
   26.4495  -20.0390  -10.3168 C   0  0  0  0  0  0  0  0  0  0  0  0
   25.5436  -21.1594  -10.3983 O   0  0  0  0  0  0  0  0  0  0  0  0
   25.8128  -22.1509   -9.6889 C   0  0  0  0  0  0  0  0  0  0  0  0
   24.3775  -21.1441  -11.2630 C   0  0  0  0  0  0  0  0  0  0  0  0
   24.1165  -20.0192  -12.1583 C   0  0  2  0  0  0  0  0  0  0  0  0
   24.1825  -20.2329  -13.6383 N   0  0  0  0  0  0  0  0  0  0  0  0
   25.4817  -19.6768  -14.0802 C   0  0  0  0  0  0  0  0  0  0  0  0
   23.1020  -19.6346  -14.4309 O   0  0  0  0  0  0  0  0  0  0  0  0
   21.9215  -20.0788  -14.4216 O   0  0  0  0  0  0  0  0  0  0  0  0
  2  1  1  0
  3  2  2  0
  4  2  1  0
  5  6  1  0
  5  4  1  0
  6  7  1  0
  7  8  1  0
  8  9  1  1
 10  8  1  0
 11 10  2  0
 13 12  1  1
 13 15  1  0
 13 14  1  0
 14 10  1  0
 15 23  1  0
 16 15  2  0
 18 19  2  0
 18 17  1  0
 20 18  1  0
 22 21  1  1
 21 20  1  0
 22 24  1  0
 23 22  1  0
 24 25  2  0
 24 26  1  0
M  END
$$$$
