RAQ.pdb
     RDKit          3D

 26 25  0  0  1  0  0  0  0  0999 V2000
   22.8362  -20.7639  -10.5697 N   0  0  0  0  0  0  0  0  0  0  0  0
   23.3029  -21.0191   -9.2483 C   0  0  0  0  0  0  0  0  0  0  0  0
   22.5435  -21.6756   -8.4562 N   0  0  0  0  0  0  0  0  0  0  0  0
   24.5797  -20.5406   -8.8627 N   0  0  0  0  0  0  0  0  0  0  0  0
   25.7314  -20.8348   -9.7315 C   0  0  0  0  0  0  0  0  0  0  0  0
   25.6497  -19.9703  -10.9380 C   0  0  0  0  0  0  0  0  0  0  0  0
   26.6952  -20.1988  -11.9541 C   0  0  0  0  0  0  0  0  0  0  0  0
   26.3559  -21.2678  -12.9288 C   0  0  2  0  0  0  0  0  0  0  0  0
   27.4360  -21.7006  -13.7754 N   0  0  0  0  0  0  0  0  0  0  0  0
   25.2332  -20.8172  -13.7987 C   0  0  0  0  0  0  0  0  0  0  0  0
   25.3169  -19.8035  -14.5345 O   0  0  0  0  0  0  0  0  0  0  0  0
   22.7815  -21.9028   -7.4704 C   0  0  0  0  0  0  0  0  0  0  0  0
   22.3570  -22.6504  -15.2205 C   0  0  1  0  0  0  0  0  0  0  0  0
   23.0133  -21.3460  -14.8177 N   0  0  0  0  0  0  0  0  0  0  0  0
   24.0249  -21.5537  -13.8010 C   0  0  0  0  0  0  0  0  0  0  0  0
   22.0534  -20.3418  -14.3600 O   0  0  0  0  0  0  0  0  0  0  0  0
   21.7492  -20.2816  -13.1192 N   0  0  0  0  0  0  0  0  0  0  0  0
   20.4609  -15.1948  -17.7647 C   0  0  0  0  0  0  0  0  0  0  0  0
   21.5130  -15.3256  -16.7857 O   0  0  0  0  0  0  0  0  0  0  0  0
   22.4385  -14.4894  -16.8420 C   0  0  0  0  0  0  0  0  0  0  0  0
   21.5054  -16.3769  -15.7844 C   0  0  0  0  0  0  0  0  0  0  0  0
   20.3799  -17.3017  -15.6697 C   0  0  2  0  0  0  0  0  0  0  0  0
   20.4401  -18.4036  -14.6584 N   0  0  0  0  0  0  0  0  0  0  0  0
   21.4048  -19.3965  -15.1837 C   0  0  0  0  0  0  0  0  0  0  0  0
   19.1714  -19.0736  -14.3500 O   0  0  0  0  0  0  0  0  0  0  0  0
   18.7540  -20.0754  -14.9928 O   0  0  0  0  0  0  0  0  0  0  0  0
  2  1  1  0
  3  2  2  0
  4  2  1  0
  5  6  1  0
  5  4  1  0
  6  7  1  0
  7  8  1  0
  8  9  1  6
 10  8  1  0
 11 10  2  0
 13 12  1  6
 13 15  1  0
 13 14  1  0
 14 10  1  0
 15 23  1  0
 16 15  2  0
 18 19  2  0
 18 17  1  0
 20 18  1  0
 22 21  1  1
 21 20  1  0
 22 24  1  0
 23 22  1  0
 24 25  2  0
 24 26  1  0
M  END
$$$$
