RAQ.pdb
     RDKit          3D

 26 25  0  0  1  0  0  0  0  0999 V2000
   29.1356  -22.6479  -18.1873 N   0  0  0  0  0  0  0  0  0  0  0  0
   29.3107  -23.5349  -17.0865 C   0  0  0  0  0  0  0  0  0  0  0  0
   29.9839  -24.6055  -17.2752 N   0  0  0  0  0  0  0  0  0  0  0  0
   28.7378  -23.2021  -15.8340 N   0  0  0  0  0  0  0  0  0  0  0  0
   27.9539  -21.9602  -15.7284 C   0  0  0  0  0  0  0  0  0  0  0  0
   26.5696  -22.2306  -16.1981 C   0  0  0  0  0  0  0  0  0  0  0  0
   25.6248  -21.1043  -16.0695 C   0  0  0  0  0  0  0  0  0  0  0  0
   25.5116  -20.5761  -14.6852 C   0  0  2  0  0  0  0  0  0  0  0  0
   24.8403  -21.4358  -13.7466 N   0  0  0  0  0  0  0  0  0  0  0  0
   24.8052  -19.2643  -14.7039 C   0  0  0  0  0  0  0  0  0  0  0  0
   23.5829  -19.1541  -14.4401 O   0  0  0  0  0  0  0  0  0  0  0  0
   30.0955  -25.3597  -16.5688 C   0  0  0  0  0  0  0  0  0  0  0  0
   25.8746  -15.6949  -15.3803 C   0  0  1  0  0  0  0  0  0  0  0  0
   24.8720  -16.8170  -15.2063 N   0  0  0  0  0  0  0  0  0  0  0  0
   25.5324  -18.0949  -15.0302 C   0  0  0  0  0  0  0  0  0  0  0  0
   23.9160  -16.9040  -16.3097 O   0  0  0  0  0  0  0  0  0  0  0  0
   23.8185  -17.9930  -16.9735 N   0  0  0  0  0  0  0  0  0  0  0  0
   19.9761  -19.4086  -14.7252 C   0  0  0  0  0  0  0  0  0  0  0  0
   19.2115  -18.7514  -15.7578 O   0  0  0  0  0  0  0  0  0  0  0  0
   18.0274  -19.1206  -15.8997 C   0  0  0  0  0  0  0  0  0  0  0  0
   19.7848  -17.7145  -16.5970 C   0  0  0  0  0  0  0  0  0  0  0  0
   21.1753  -17.2956  -16.4353 C   0  0  1  0  0  0  0  0  0  0  0  0
   21.6744  -16.1094  -17.1998 N   0  0  0  0  0  0  0  0  0  0  0  0
   23.0574  -15.8655  -16.7306 C   0  0  0  0  0  0  0  0  0  0  0  0
   20.8914  -14.8752  -17.0697 O   0  0  0  0  0  0  0  0  0  0  0  0
   20.9184  -14.1549  -16.0345 O   0  0  0  0  0  0  0  0  0  0  0  0
  2  1  1  0
  3  2  2  0
  4  2  1  0
  5  6  1  0
  5  4  1  0
  6  7  1  0
  7  8  1  0
  8  9  1  1
 10  8  1  0
 11 10  2  0
 13 12  1  1
 13 15  1  0
 13 14  1  0
 14 10  1  0
 15 23  1  0
 16 15  2  0
 18 19  2  0
 18 17  1  0
 20 18  1  0
 22 21  1  6
 21 20  1  0
 22 24  1  0
 23 22  1  0
 24 25  2  0
 24 26  1  0
M  END
$$$$
