RAQ.pdb
     RDKit          3D

 26 25  0  0  1  0  0  0  0  0999 V2000
   18.1242  -22.1777  -16.6590 N   0  0  0  0  0  0  0  0  0  0  0  0
   17.0784  -21.2199  -16.5235 C   0  0  0  0  0  0  0  0  0  0  0  0
   15.8826  -21.6485  -16.3781 N   0  0  0  0  0  0  0  0  0  0  0  0
   17.3981  -19.8398  -16.5549 N   0  0  0  0  0  0  0  0  0  0  0  0
   18.6572  -19.4253  -17.1958 C   0  0  0  0  0  0  0  0  0  0  0  0
   18.3862  -18.2429  -18.0551 C   0  0  0  0  0  0  0  0  0  0  0  0
   19.1624  -17.0308  -17.7293 C   0  0  0  0  0  0  0  0  0  0  0  0
   20.6295  -17.2004  -17.8929 C   0  0  2  0  0  0  0  0  0  0  0  0
   21.2320  -18.2153  -17.0697 N   0  0  0  0  0  0  0  0  0  0  0  0
   21.3186  -15.9079  -17.6190 C   0  0  0  0  0  0  0  0  0  0  0  0
   21.5739  -15.5147  -16.4545 O   0  0  0  0  0  0  0  0  0  0  0  0
   15.0416  -21.0388  -16.3444 C   0  0  0  0  0  0  0  0  0  0  0  0
   23.2389  -13.5196  -19.7925 C   0  0  1  0  0  0  0  0  0  0  0  0
   22.5273  -13.9121  -18.5142 N   0  0  0  0  0  0  0  0  0  0  0  0
   21.7025  -15.0879  -18.7066 C   0  0  0  0  0  0  0  0  0  0  0  0
   21.7187  -12.8287  -17.9558 O   0  0  0  0  0  0  0  0  0  0  0  0
   20.4822  -12.7396  -18.2708 N   0  0  0  0  0  0  0  0  0  0  0  0
   23.2323   -9.1047  -12.8839 C   0  0  0  0  0  0  0  0  0  0  0  0
   22.0076   -8.5612  -13.4198 O   0  0  0  0  0  0  0  0  0  0  0  0
   21.5198   -7.5806  -12.8205 C   0  0  0  0  0  0  0  0  0  0  0  0
   21.3661   -9.1235  -14.5946 C   0  0  0  0  0  0  0  0  0  0  0  0
   21.9256  -10.2896  -15.2747 C   0  0  1  0  0  0  0  0  0  0  0  0
   21.3253  -10.7370  -16.5709 N   0  0  0  0  0  0  0  0  0  0  0  0
   22.1856  -11.8340  -17.0697 C   0  0  0  0  0  0  0  0  0  0  0  0
   21.1896   -9.7126  -17.6129 O   0  0  0  0  0  0  0  0  0  0  0  0
   22.0913   -9.4798  -18.4636 O   0  0  0  0  0  0  0  0  0  0  0  0
  2  1  1  0
  3  2  2  0
  4  2  1  0
  5  6  1  0
  5  4  1  0
  6  7  1  0
  7  8  1  0
  8  9  1  1
 10  8  1  0
 11 10  2  0
 13 12  1  1
 13 15  1  0
 13 14  1  0
 14 10  1  0
 15 23  1  0
 16 15  2  0
 18 19  2  0
 18 17  1  0
 20 18  1  0
 22 21  1  1
 21 20  1  0
 22 24  1  0
 23 22  1  0
 24 25  2  0
 24 26  1  0
M  END
$$$$
