RAQ.pdb
     RDKit          3D

 26 25  0  0  1  0  0  0  0  0999 V2000
   22.7037  -25.5584  -15.1838 N   0  0  0  0  0  0  0  0  0  0  0  0
   23.7349  -26.2991  -15.8297 C   0  0  0  0  0  0  0  0  0  0  0  0
   23.4894  -27.5078  -16.1667 N   0  0  0  0  0  0  0  0  0  0  0  0
   24.9839  -25.6756  -16.0729 N   0  0  0  0  0  0  0  0  0  0  0  0
   25.2040  -24.3170  -15.5497 C   0  0  0  0  0  0  0  0  0  0  0  0
   26.5448  -23.8497  -15.9896 C   0  0  0  0  0  0  0  0  0  0  0  0
   26.9480  -22.5202  -15.4919 C   0  0  0  0  0  0  0  0  0  0  0  0
   25.9688  -21.4460  -15.8003 C   0  0  2  0  0  0  0  0  0  0  0  0
   26.3691  -20.5176  -16.8242 N   0  0  0  0  0  0  0  0  0  0  0  0
   25.6641  -20.6732  -14.5632 C   0  0  0  0  0  0  0  0  0  0  0  0
   26.3920  -19.7331  -14.1604 O   0  0  0  0  0  0  0  0  0  0  0  0
   24.1838  -28.1477  -16.6007 C   0  0  0  0  0  0  0  0  0  0  0  0
   22.5831  -20.1116  -12.5952 C   0  0  1  0  0  0  0  0  0  0  0  0
   24.0928  -20.2046  -12.6772 N   0  0  0  0  0  0  0  0  0  0  0  0
   24.5135  -21.0054  -13.8093 C   0  0  0  0  0  0  0  0  0  0  0  0
   24.6996  -20.7250  -11.4524 O   0  0  0  0  0  0  0  0  0  0  0  0
   24.8432  -21.9878  -11.3088 N   0  0  0  0  0  0  0  0  0  0  0  0
   28.2434  -17.5656   -7.0466 C   0  0  0  0  0  0  0  0  0  0  0  0
   27.8731  -18.8181   -6.4327 O   0  0  0  0  0  0  0  0  0  0  0  0
   28.3480  -19.0503   -5.3017 C   0  0  0  0  0  0  0  0  0  0  0  0
   26.9957  -19.7681   -7.0927 C   0  0  0  0  0  0  0  0  0  0  0  0
   26.4716  -19.5074   -8.4315 C   0  0  1  0  0  0  0  0  0  0  0  0
   25.5925  -20.5285   -9.0834 N   0  0  0  0  0  0  0  0  0  0  0  0
   25.1602  -19.9416  -10.3722 C   0  0  0  0  0  0  0  0  0  0  0  0
   24.4122  -20.9526   -8.3213 O   0  0  0  0  0  0  0  0  0  0  0  0
   23.2972  -20.3692   -8.4080 O   0  0  0  0  0  0  0  0  0  0  0  0
  2  1  1  0
  3  2  2  0
  4  2  1  0
  5  6  1  0
  5  4  1  0
  6  7  1  0
  7  8  1  0
  8  9  1  6
 10  8  1  0
 11 10  2  0
 13 12  1  6
 13 15  1  0
 13 14  1  0
 14 10  1  0
 15 23  1  0
 16 15  2  0
 18 19  2  0
 18 17  1  0
 20 18  1  0
 22 21  1  6
 21 20  1  0
 22 24  1  0
 23 22  1  0
 24 25  2  0
 24 26  1  0
M  END
$$$$
