RAQ.pdb
     RDKit          3D

 26 25  0  0  1  0  0  0  0  0999 V2000
   23.6297  -21.8007   -7.3941 N   0  0  0  0  0  0  0  0  0  0  0  0
   22.8131  -21.4592   -8.5102 C   0  0  0  0  0  0  0  0  0  0  0  0
   21.5657  -21.7338   -8.4520 N   0  0  0  0  0  0  0  0  0  0  0  0
   23.4072  -20.8337   -9.6344 N   0  0  0  0  0  0  0  0  0  0  0  0
   24.8666  -20.6388   -9.6395 C   0  0  0  0  0  0  0  0  0  0  0  0
   25.3844  -20.9616  -10.9950 C   0  0  0  0  0  0  0  0  0  0  0  0
   24.6011  -20.4152  -12.1200 C   0  0  0  0  0  0  0  0  0  0  0  0
   25.1782  -20.7238  -13.4540 C   0  0  2  0  0  0  0  0  0  0  0  0
   26.3829  -21.5107  -13.4413 N   0  0  0  0  0  0  0  0  0  0  0  0
   25.4566  -19.4566  -14.1867 C   0  0  0  0  0  0  0  0  0  0  0  0
   24.5986  -18.5488  -14.3115 O   0  0  0  0  0  0  0  0  0  0  0  0
   20.9017  -21.6138   -9.2424 C   0  0  0  0  0  0  0  0  0  0  0  0
   28.5337  -17.7450  -15.4413 C   0  0  2  0  0  0  0  0  0  0  0  0
   27.0529  -18.0577  -15.5060 N   0  0  0  0  0  0  0  0  0  0  0  0
   26.7329  -19.2619  -14.7662 C   0  0  0  0  0  0  0  0  0  0  0  0
   26.5537  -18.1734  -16.8759 O   0  0  0  0  0  0  0  0  0  0  0  0
   26.6607  -19.2889  -17.4925 N   0  0  0  0  0  0  0  0  0  0  0  0
   21.6693  -19.9514  -17.5618 C   0  0  0  0  0  0  0  0  0  0  0  0
   21.8235  -19.4744  -18.9151 O   0  0  0  0  0  0  0  0  0  0  0  0
   20.9261  -19.7860  -19.7252 C   0  0  0  0  0  0  0  0  0  0  0  0
   22.9646  -18.6750  -19.3233 C   0  0  0  0  0  0  0  0  0  0  0  0
   23.9962  -18.2869  -18.3639 C   0  0  1  0  0  0  0  0  0  0  0  0
   25.1070  -17.3879  -18.8094 N   0  0  0  0  0  0  0  0  0  0  0  0
   25.9422  -17.1363  -17.6129 C   0  0  0  0  0  0  0  0  0  0  0  0
   24.7084  -16.1065  -19.4032 O   0  0  0  0  0  0  0  0  0  0  0  0
   24.5932  -15.0472  -18.7281 O   0  0  0  0  0  0  0  0  0  0  0  0
  2  1  1  0
  3  2  2  0
  4  2  1  0
  5  6  1  0
  5  4  1  0
  6  7  1  0
  7  8  1  0
  8  9  1  1
 10  8  1  0
 11 10  2  0
 13 12  1  1
 13 15  1  0
 13 14  1  0
 14 10  1  0
 15 23  1  0
 16 15  2  0
 18 19  2  0
 18 17  1  0
 20 18  1  0
 22 21  1  6
 21 20  1  0
 22 24  1  0
 23 22  1  0
 24 25  2  0
 24 26  1  0
M  END
$$$$
