RAQ.pdb
     RDKit          3D

 26 25  0  0  1  0  0  0  0  0999 V2000
   24.9593  -25.2988  -16.1294 N   0  0  0  0  0  0  0  0  0  0  0  0
   26.3267  -24.9141  -16.2360 C   0  0  0  0  0  0  0  0  0  0  0  0
   27.1298  -25.7020  -16.8435 N   0  0  0  0  0  0  0  0  0  0  0  0
   26.7438  -23.6838  -15.6699 N   0  0  0  0  0  0  0  0  0  0  0  0
   25.7175  -22.7732  -15.1357 C   0  0  0  0  0  0  0  0  0  0  0  0
   25.0015  -22.1429  -16.2758 C   0  0  0  0  0  0  0  0  0  0  0  0
   23.8855  -21.2500  -15.9083 C   0  0  0  0  0  0  0  0  0  0  0  0
   24.0728  -20.5683  -14.6014 C   0  0  2  0  0  0  0  0  0  0  0  0
   25.2630  -20.9302  -13.8783 N   0  0  0  0  0  0  0  0  0  0  0  0
   22.8967  -20.8302  -13.7247 C   0  0  0  0  0  0  0  0  0  0  0  0
   22.6076  -21.9799  -13.3118 O   0  0  0  0  0  0  0  0  0  0  0  0
   28.1558  -25.5526  -16.9142 C   0  0  0  0  0  0  0  0  0  0  0  0
   20.2948  -18.6328  -12.0729 C   0  0  2  0  0  0  0  0  0  0  0  0
   20.8862  -19.9508  -12.5288 N   0  0  0  0  0  0  0  0  0  0  0  0
   22.0702  -19.7480  -13.3392 C   0  0  0  0  0  0  0  0  0  0  0  0
   19.9288  -20.7850  -13.2547 O   0  0  0  0  0  0  0  0  0  0  0  0
   20.0304  -20.8999  -14.5245 N   0  0  0  0  0  0  0  0  0  0  0  0
   19.2674  -26.5013  -13.7054 C   0  0  0  0  0  0  0  0  0  0  0  0
   18.0311  -26.0613  -14.3060 O   0  0  0  0  0  0  0  0  0  0  0  0
   17.3481  -26.9313  -14.8849 C   0  0  0  0  0  0  0  0  0  0  0  0
   17.5982  -24.6767  -14.2479 C   0  0  0  0  0  0  0  0  0  0  0  0
   18.3628  -23.6773  -13.5052 C   0  0  2  0  0  0  0  0  0  0  0  0
   17.8749  -22.2626  -13.4693 N   0  0  0  0  0  0  0  0  0  0  0  0
   18.8633  -21.5031  -12.6702 C   0  0  0  0  0  0  0  0  0  0  0  0
   16.5334  -22.0510  -12.9133 O   0  0  0  0  0  0  0  0  0  0  0  0
   16.3385  -21.6491  -11.7336 O   0  0  0  0  0  0  0  0  0  0  0  0
  2  1  1  0
  3  2  2  0
  4  2  1  0
  5  6  1  0
  5  4  1  0
  6  7  1  0
  7  8  1  0
  8  9  1  1
 10  8  1  0
 11 10  2  0
 13 12  1  1
 13 15  1  0
 13 14  1  0
 14 10  1  0
 15 23  1  0
 16 15  2  0
 18 19  2  0
 18 17  1  0
 20 18  1  0
 22 21  1  6
 21 20  1  0
 22 24  1  0
 23 22  1  0
 24 25  2  0
 24 26  1  0
M  END
$$$$
