VSD.pdb
     RDKit          3D

 22 21  0  0  1  0  0  0  0  0999 V2000
    6.8947  -16.1835   19.0033 C   0  0  0  0  0  0  0  0  0  0  0  0
    7.5817  -14.9510   18.4597 C   0  0  2  0  0  0  0  0  0  0  0  0
    8.9936  -15.3185   18.0861 C   0  0  0  0  0  0  0  0  0  0  0  0
    7.5126  -13.7836   19.3932 C   0  0  2  0  0  0  0  0  0  0  0  0
    8.0035  -12.6127   18.7006 N   0  0  0  0  0  0  0  0  0  0  0  0
    8.2483  -13.9614   20.6446 C   0  0  0  0  0  0  0  0  0  0  0  0
    9.5070  -13.8470   20.7455 O   0  0  0  0  0  0  0  0  0  0  0  0
    6.4627  -15.6070   24.1051 O   0  0  0  0  0  0  0  0  0  0  0  0
    7.3885  -14.6070   24.3068 C   0  0  0  0  0  0  0  0  0  0  0  0
    8.2863  -14.5237   23.1034 C   0  0  2  0  0  0  0  0  0  0  0  0
    7.5802  -14.2861   21.8787 N   0  0  0  0  0  0  0  0  0  0  0  0
    9.1627  -15.7137   23.0487 C   0  0  0  0  0  0  0  0  0  0  0  0
    9.0881  -16.4895   22.0645 O   0  0  0  0  0  0  0  0  0  0  0  0
   10.0957  -16.0232   24.0700 N   0  0  0  0  0  0  0  0  0  0  0  0
   11.0457  -17.0887   24.0356 C   0  0  1  0  0  0  0  0  0  0  0  0
   12.1989  -16.7302   23.1375 C   0  0  0  0  0  0  0  0  0  0  0  0
   13.2531  -17.7670   23.1416 C   0  0  0  0  0  0  0  0  0  0  0  0
   12.9889  -18.9707   23.3874 O   0  0  0  0  0  0  0  0  0  0  0  0
   11.4687  -17.5395   25.3775 C   0  0  0  0  0  0  0  0  0  0  0  0
   12.2001  -18.5252   25.5459 O   0  0  0  0  0  0  0  0  0  0  0  0
   14.5555  -17.3725   22.8638 O   0  0  0  0  0  0  0  0  0  0  0  0
   11.0274  -16.8278   26.4966 O   0  0  0  0  0  0  0  0  0  0  0  0
  2  1  1  1
  2  3  1  0
  2  4  1  0
  4  6  1  0
  4  5  1  6
  6  7  2  0
  8  9  1  0
 10  9  1  1
 10 12  1  0
 11  6  1  0
 11 10  1  0
 12 13  2  0
 12 14  1  0
 14 15  1  0
 15 16  1  6
 16 17  1  0
 17 21  1  0
 18 17  2  0
 19 15  1  0
 19 22  1  0
 20 19  2  0
M  END
$$$$
