VSD.pdb
     RDKit          3D

 22 21  0  0  1  0  0  0  0  0999 V2000
    7.3024  -12.3236   20.1203 C   0  0  0  0  0  0  0  0  0  0  0  0
    8.1233  -13.2096   19.2106 C   0  0  2  0  0  0  0  0  0  0  0  0
    7.5476  -13.1295   17.8213 C   0  0  0  0  0  0  0  0  0  0  0  0
    8.2388  -14.6148   19.7118 C   0  0  2  0  0  0  0  0  0  0  0  0
    6.9589  -15.2676   19.5461 N   0  0  0  0  0  0  0  0  0  0  0  0
    8.6753  -14.7303   21.1028 C   0  0  0  0  0  0  0  0  0  0  0  0
    8.4398  -13.8567   21.9910 O   0  0  0  0  0  0  0  0  0  0  0  0
    8.8527  -17.9132   23.2511 O   0  0  0  0  0  0  0  0  0  0  0  0
    9.2568  -16.7464   23.8620 C   0  0  0  0  0  0  0  0  0  0  0  0
   10.0267  -15.9182   22.8707 C   0  0  2  0  0  0  0  0  0  0  0  0
    9.4202  -15.8701   21.5728 N   0  0  0  0  0  0  0  0  0  0  0  0
   11.4379  -16.3595   22.8380 C   0  0  0  0  0  0  0  0  0  0  0  0
   11.9325  -16.7633   21.7572 O   0  0  0  0  0  0  0  0  0  0  0  0
   12.2691  -16.3474   23.9862 N   0  0  0  0  0  0  0  0  0  0  0  0
   13.5988  -16.8631   24.0575 C   0  0  1  0  0  0  0  0  0  0  0  0
   14.5987  -15.7543   23.8683 C   0  0  0  0  0  0  0  0  0  0  0  0
   15.9850  -16.2615   23.7817 C   0  0  0  0  0  0  0  0  0  0  0  0
   16.2885  -17.2161   23.0229 O   0  0  0  0  0  0  0  0  0  0  0  0
   13.8480  -17.6743   25.2670 C   0  0  0  0  0  0  0  0  0  0  0  0
   13.1994  -17.5235   26.3118 O   0  0  0  0  0  0  0  0  0  0  0  0
   16.9525  -15.6497   24.5682 O   0  0  0  0  0  0  0  0  0  0  0  0
   14.8518  -18.6462   25.2303 O   0  0  0  0  0  0  0  0  0  0  0  0
  2  1  1  1
  2  3  1  0
  2  4  1  0
  4  6  1  0
  4  5  1  1
  6  7  2  0
  8  9  1  0
 10  9  1  1
 10 12  1  0
 11  6  1  0
 11 10  1  0
 12 13  2  0
 12 14  1  0
 14 15  1  0
 15 16  1  1
 16 17  1  0
 17 21  1  0
 18 17  2  0
 19 15  1  0
 19 22  1  0
 20 19  2  0
M  END
$$$$
