VSD.pdb
     RDKit          3D

 22 21  0  0  1  0  0  0  0  0999 V2000
    7.4978  -11.3457   25.1469 C   0  0  0  0  0  0  0  0  0  0  0  0
    6.8529  -12.1206   26.2739 C   0  0  2  0  0  0  0  0  0  0  0  0
    7.9122  -12.4503   27.2923 C   0  0  0  0  0  0  0  0  0  0  0  0
    6.1056  -13.3275   25.8008 C   0  0  2  0  0  0  0  0  0  0  0  0
    5.4004  -13.9007   26.9260 N   0  0  0  0  0  0  0  0  0  0  0  0
    6.9389  -14.3493   25.1682 C   0  0  0  0  0  0  0  0  0  0  0  0
    7.3938  -15.3646   25.7763 O   0  0  0  0  0  0  0  0  0  0  0  0
    7.1959  -14.8880   20.9654 O   0  0  0  0  0  0  0  0  0  0  0  0
    8.3685  -14.9911   21.6810 C   0  0  0  0  0  0  0  0  0  0  0  0
    8.0394  -15.3121   23.1127 C   0  0  2  0  0  0  0  0  0  0  0  0
    7.3100  -14.2731   23.7785 N   0  0  0  0  0  0  0  0  0  0  0  0
    9.2682  -15.7133   23.8315 C   0  0  0  0  0  0  0  0  0  0  0  0
    9.6913  -15.0005   24.7743 O   0  0  0  0  0  0  0  0  0  0  0  0
   10.0002  -16.8812   23.5006 N   0  0  0  0  0  0  0  0  0  0  0  0
   11.1103  -17.4036   24.2313 C   0  0  1  0  0  0  0  0  0  0  0  0
   12.4016  -17.0345   23.5521 C   0  0  0  0  0  0  0  0  0  0  0  0
   12.3502  -17.2647   22.0923 C   0  0  0  0  0  0  0  0  0  0  0  0
   11.5169  -18.0543   21.5812 O   0  0  0  0  0  0  0  0  0  0  0  0
   11.0840  -17.0526   25.6662 C   0  0  0  0  0  0  0  0  0  0  0  0
   10.6060  -15.9869   26.0795 O   0  0  0  0  0  0  0  0  0  0  0  0
   13.2555  -16.5790   21.2928 O   0  0  0  0  0  0  0  0  0  0  0  0
   11.6177  -17.9558   26.5898 O   0  0  0  0  0  0  0  0  0  0  0  0
  2  1  1  6
  2  3  1  0
  2  4  1  0
  4  6  1  0
  4  5  1  1
  6  7  2  0
  8  9  1  0
 10  9  1  6
 10 12  1  0
 11  6  1  0
 11 10  1  0
 12 13  2  0
 12 14  1  0
 14 15  1  0
 15 16  1  6
 16 17  1  0
 17 21  1  0
 18 17  2  0
 19 15  1  0
 19 22  1  0
 20 19  2  0
M  END
$$$$
