VSD.pdb
     RDKit          3D

 22 21  0  0  1  0  0  0  0  0999 V2000
    9.4829  -11.8436   19.0475 C   0  0  0  0  0  0  0  0  0  0  0  0
    8.3264  -12.8066   19.1952 C   0  0  2  0  0  0  0  0  0  0  0  0
    8.0548  -13.0029   20.6635 C   0  0  0  0  0  0  0  0  0  0  0  0
    8.5423  -14.0956   18.4666 C   0  0  2  0  0  0  0  0  0  0  0  0
    7.3428  -14.8951   18.5835 N   0  0  0  0  0  0  0  0  0  0  0  0
    9.6966  -14.8676   18.9255 C   0  0  0  0  0  0  0  0  0  0  0  0
    9.6724  -15.6450   19.9268 O   0  0  0  0  0  0  0  0  0  0  0  0
   12.8354  -14.9265   16.5114 O   0  0  0  0  0  0  0  0  0  0  0  0
   13.0366  -15.8801   17.4851 C   0  0  0  0  0  0  0  0  0  0  0  0
   12.0822  -15.6278   18.6194 C   0  0  2  0  0  0  0  0  0  0  0  0
   10.9708  -14.7979   18.2576 N   0  0  0  0  0  0  0  0  0  0  0  0
   12.8242  -15.1267   19.7965 C   0  0  0  0  0  0  0  0  0  0  0  0
   12.8818  -13.8907   20.0085 O   0  0  0  0  0  0  0  0  0  0  0  0
   13.4824  -15.9892   20.7089 N   0  0  0  0  0  0  0  0  0  0  0  0
   14.2690  -15.5757   21.8266 C   0  0  1  0  0  0  0  0  0  0  0  0
   14.3362  -16.6753   22.8520 C   0  0  0  0  0  0  0  0  0  0  0  0
   12.9959  -17.0692   23.3368 C   0  0  0  0  0  0  0  0  0  0  0  0
   12.1111  -16.2132   23.5881 O   0  0  0  0  0  0  0  0  0  0  0  0
   15.5964  -15.0502   21.4459 C   0  0  0  0  0  0  0  0  0  0  0  0
   16.0255  -15.1107   20.2852 O   0  0  0  0  0  0  0  0  0  0  0  0
   12.7377  -18.4230   23.5087 O   0  0  0  0  0  0  0  0  0  0  0  0
   16.3959  -14.4639   22.4311 O   0  0  0  0  0  0  0  0  0  0  0  0
  2  1  1  1
  2  3  1  0
  2  4  1  0
  4  6  1  0
  4  5  1  1
  6  7  2  0
  8  9  1  0
 10  9  1  6
 10 12  1  0
 11  6  1  0
 11 10  1  0
 12 13  2  0
 12 14  1  0
 14 15  1  0
 15 16  1  1
 16 17  1  0
 17 21  1  0
 18 17  2  0
 19 15  1  0
 19 22  1  0
 20 19  2  0
M  END
$$$$
