VSD.pdb
     RDKit          3D

 22 21  0  0  1  0  0  0  0  0999 V2000
    7.2615  -12.1362   19.1113 C   0  0  0  0  0  0  0  0  0  0  0  0
    8.2969  -12.9991   19.7968 C   0  0  2  0  0  0  0  0  0  0  0  0
    9.6431  -12.6987   19.1921 C   0  0  0  0  0  0  0  0  0  0  0  0
    7.9575  -14.4561   19.7651 C   0  0  2  0  0  0  0  0  0  0  0  0
    6.6380  -14.6322   20.3304 N   0  0  0  0  0  0  0  0  0  0  0  0
    8.9118  -15.3181   20.4614 C   0  0  0  0  0  0  0  0  0  0  0  0
    9.0078  -15.3890   21.7237 O   0  0  0  0  0  0  0  0  0  0  0  0
   11.3481  -18.1110   18.4004 O   0  0  0  0  0  0  0  0  0  0  0  0
   10.9115  -18.3716   19.6808 C   0  0  0  0  0  0  0  0  0  0  0  0
   10.7274  -17.0684   20.4080 C   0  0  2  0  0  0  0  0  0  0  0  0
    9.8307  -16.1665   19.7468 N   0  0  0  0  0  0  0  0  0  0  0  0
   12.0467  -16.4674   20.7010 C   0  0  0  0  0  0  0  0  0  0  0  0
   12.4613  -15.5162   19.9943 O   0  0  0  0  0  0  0  0  0  0  0  0
   12.8758  -16.9218   21.7571 N   0  0  0  0  0  0  0  0  0  0  0  0
   14.1960  -16.4563   22.0391 C   0  0  1  0  0  0  0  0  0  0  0  0
   14.4322  -16.4275   23.5251 C   0  0  0  0  0  0  0  0  0  0  0  0
   15.8002  -15.9801   23.8644 C   0  0  0  0  0  0  0  0  0  0  0  0
   16.6234  -15.6520   22.9734 O   0  0  0  0  0  0  0  0  0  0  0  0
   15.2447  -17.1839   21.2949 C   0  0  0  0  0  0  0  0  0  0  0  0
   16.2471  -16.6175   20.8373 O   0  0  0  0  0  0  0  0  0  0  0  0
   16.1553  -15.9314   25.2062 O   0  0  0  0  0  0  0  0  0  0  0  0
   15.0999  -18.5604   21.1008 O   0  0  0  0  0  0  0  0  0  0  0  0
  2  1  1  6
  2  3  1  0
  2  4  1  0
  4  6  1  0
  4  5  1  1
  6  7  2  0
  8  9  1  0
 10  9  1  6
 10 12  1  0
 11  6  1  0
 11 10  1  0
 12 13  2  0
 12 14  1  0
 14 15  1  0
 15 16  1  1
 16 17  1  0
 17 21  1  0
 18 17  2  0
 19 15  1  0
 19 22  1  0
 20 19  2  0
M  END
$$$$
