VSD.pdb
     RDKit          3D

 22 21  0  0  1  0  0  0  0  0999 V2000
    8.1403  -19.2460   15.8719 C   0  0  0  0  0  0  0  0  0  0  0  0
    8.6549  -18.6224   17.1497 C   0  0  2  0  0  0  0  0  0  0  0  0
    8.5083  -19.6267   18.2624 C   0  0  0  0  0  0  0  0  0  0  0  0
    8.0073  -17.3101   17.4620 C   0  0  2  0  0  0  0  0  0  0  0  0
    8.1172  -16.4562   16.2999 N   0  0  0  0  0  0  0  0  0  0  0  0
    8.5554  -16.6246   18.6318 C   0  0  0  0  0  0  0  0  0  0  0  0
    9.7917  -16.4021   18.8040 O   0  0  0  0  0  0  0  0  0  0  0  0
    6.3724  -16.0280   22.2666 O   0  0  0  0  0  0  0  0  0  0  0  0
    7.1754  -15.0076   21.8064 C   0  0  0  0  0  0  0  0  0  0  0  0
    8.2332  -15.5868   20.9082 C   0  0  2  0  0  0  0  0  0  0  0  0
    7.7110  -16.1429   19.6946 N   0  0  0  0  0  0  0  0  0  0  0  0
    9.0723  -16.5368   21.6702 C   0  0  0  0  0  0  0  0  0  0  0  0
    9.2970  -17.6776   21.1969 O   0  0  0  0  0  0  0  0  0  0  0  0
    9.6424  -16.2145   22.9274 N   0  0  0  0  0  0  0  0  0  0  0  0
   10.9403  -16.6035   23.3779 C   0  0  1  0  0  0  0  0  0  0  0  0
   11.9857  -16.1857   22.3791 C   0  0  0  0  0  0  0  0  0  0  0  0
   13.3518  -16.5423   22.8185 C   0  0  0  0  0  0  0  0  0  0  0  0
   13.5774  -17.5885   23.4769 O   0  0  0  0  0  0  0  0  0  0  0  0
   11.2389  -16.1608   24.7556 C   0  0  0  0  0  0  0  0  0  0  0  0
   12.0711  -16.7357   25.4711 O   0  0  0  0  0  0  0  0  0  0  0  0
   14.3894  -15.6827   22.4813 O   0  0  0  0  0  0  0  0  0  0  0  0
   10.5575  -15.0538   25.2692 O   0  0  0  0  0  0  0  0  0  0  0  0
  2  1  1  6
  2  3  1  0
  2  4  1  0
  4  6  1  0
  4  5  1  6
  6  7  2  0
  8  9  1  0
 10  9  1  1
 10 12  1  0
 11  6  1  0
 11 10  1  0
 12 13  2  0
 12 14  1  0
 14 15  1  0
 15 16  1  6
 16 17  1  0
 17 21  1  0
 18 17  2  0
 19 15  1  0
 19 22  1  0
 20 19  2  0
M  END
$$$$
