VSD.pdb
     RDKit          3D

 22 21  0  0  1  0  0  0  0  0999 V2000
    8.7434  -12.4353   18.8807 C   0  0  0  0  0  0  0  0  0  0  0  0
    7.8760  -13.6392   19.1720 C   0  0  2  0  0  0  0  0  0  0  0  0
    6.8439  -13.2459   20.1958 C   0  0  0  0  0  0  0  0  0  0  0  0
    8.6654  -14.8445   19.5758 C   0  0  2  0  0  0  0  0  0  0  0  0
    7.7679  -15.9760   19.6527 N   0  0  0  0  0  0  0  0  0  0  0  0
    9.3895  -14.7022   20.8384 C   0  0  0  0  0  0  0  0  0  0  0  0
   10.3985  -13.9500   20.9920 O   0  0  0  0  0  0  0  0  0  0  0  0
    8.1520  -16.6727   24.3697 O   0  0  0  0  0  0  0  0  0  0  0  0
    8.8780  -15.5066   24.4753 C   0  0  0  0  0  0  0  0  0  0  0  0
    9.7366  -15.3541   23.2503 C   0  0  2  0  0  0  0  0  0  0  0  0
    8.9990  -15.4225   22.0231 N   0  0  0  0  0  0  0  0  0  0  0  0
   10.8637  -16.3100   23.3063 C   0  0  0  0  0  0  0  0  0  0  0  0
   10.7559  -17.4241   22.7379 O   0  0  0  0  0  0  0  0  0  0  0  0
   12.0767  -16.0225   23.9811 N   0  0  0  0  0  0  0  0  0  0  0  0
   13.1917  -16.9062   24.1035 C   0  0  1  0  0  0  0  0  0  0  0  0
   14.4703  -16.1201   24.2129 C   0  0  0  0  0  0  0  0  0  0  0  0
   15.2996  -16.2304   22.9936 C   0  0  0  0  0  0  0  0  0  0  0  0
   14.9412  -16.9362   22.0177 O   0  0  0  0  0  0  0  0  0  0  0  0
   13.0289  -17.9090   25.1763 C   0  0  0  0  0  0  0  0  0  0  0  0
   12.2855  -17.7236   26.1500 O   0  0  0  0  0  0  0  0  0  0  0  0
   16.4964  -15.5268   22.9542 O   0  0  0  0  0  0  0  0  0  0  0  0
   13.7394  -19.1094   25.0888 O   0  0  0  0  0  0  0  0  0  0  0  0
  2  1  1  1
  2  3  1  0
  2  4  1  0
  4  6  1  0
  4  5  1  1
  6  7  2  0
  8  9  1  0
 10  9  1  1
 10 12  1  0
 11  6  1  0
 11 10  1  0
 12 13  2  0
 12 14  1  0
 14 15  1  0
 15 16  1  1
 16 17  1  0
 17 21  1  0
 18 17  2  0
 19 15  1  0
 19 22  1  0
 20 19  2  0
M  END
$$$$
