VSD.pdb
     RDKit          3D

 22 21  0  0  1  0  0  0  0  0999 V2000
    9.3607  -19.6576   19.4929 C   0  0  0  0  0  0  0  0  0  0  0  0
    8.0545  -18.9719   19.1608 C   0  0  2  0  0  0  0  0  0  0  0  0
    7.2949  -19.8384   18.1911 C   0  0  0  0  0  0  0  0  0  0  0  0
    8.2383  -17.5711   18.6679 C   0  0  2  0  0  0  0  0  0  0  0  0
    8.8667  -17.6215   17.3663 N   0  0  0  0  0  0  0  0  0  0  0  0
    9.0160  -16.7103   19.5584 C   0  0  0  0  0  0  0  0  0  0  0  0
   10.2745  -16.5739   19.4861 O   0  0  0  0  0  0  0  0  0  0  0  0
    7.2451  -14.8589   22.9225 O   0  0  0  0  0  0  0  0  0  0  0  0
    8.3326  -14.2250   22.3625 C   0  0  0  0  0  0  0  0  0  0  0  0
    9.1457  -15.2341   21.5997 C   0  0  2  0  0  0  0  0  0  0  0  0
    8.3936  -15.9393   20.6038 N   0  0  0  0  0  0  0  0  0  0  0  0
    9.8455  -16.1312   22.5446 C   0  0  0  0  0  0  0  0  0  0  0  0
    9.3382  -17.2438   22.8288 O   0  0  0  0  0  0  0  0  0  0  0  0
   11.0792  -15.7882   23.1525 N   0  0  0  0  0  0  0  0  0  0  0  0
   11.7661  -16.5613   24.1372 C   0  0  1  0  0  0  0  0  0  0  0  0
   13.2050  -16.1296   24.2284 C   0  0  0  0  0  0  0  0  0  0  0  0
   13.9501  -16.4029   22.9808 C   0  0  0  0  0  0  0  0  0  0  0  0
   13.7551  -17.4514   22.3161 O   0  0  0  0  0  0  0  0  0  0  0  0
   11.0798  -16.5864   25.4454 C   0  0  0  0  0  0  0  0  0  0  0  0
   10.1101  -15.8583   25.6994 O   0  0  0  0  0  0  0  0  0  0  0  0
   14.8801  -15.4619   22.5582 O   0  0  0  0  0  0  0  0  0  0  0  0
   11.5417  -17.4632   26.4309 O   0  0  0  0  0  0  0  0  0  0  0  0
  2  1  1  6
  2  3  1  0
  2  4  1  0
  4  6  1  0
  4  5  1  6
  6  7  2  0
  8  9  1  0
 10  9  1  1
 10 12  1  0
 11  6  1  0
 11 10  1  0
 12 13  2  0
 12 14  1  0
 14 15  1  0
 15 16  1  1
 16 17  1  0
 17 21  1  0
 18 17  2  0
 19 15  1  0
 19 22  1  0
 20 19  2  0
M  END
$$$$
