VSD.pdb
     RDKit          3D

 22 21  0  0  1  0  0  0  0  0999 V2000
   10.6130  -20.3281   19.7107 C   0  0  0  0  0  0  0  0  0  0  0  0
   10.4034  -19.5805   18.4132 C   0  0  2  0  0  0  0  0  0  0  0  0
   11.7427  -19.3908   17.7511 C   0  0  0  0  0  0  0  0  0  0  0  0
    9.6565  -18.2963   18.5924 C   0  0  2  0  0  0  0  0  0  0  0  0
    9.4117  -17.7221   17.2877 N   0  0  0  0  0  0  0  0  0  0  0  0
   10.3282  -17.3161   19.4449 C   0  0  0  0  0  0  0  0  0  0  0  0
   11.4047  -16.7258   19.1282 O   0  0  0  0  0  0  0  0  0  0  0  0
    8.8777  -16.2678   23.3117 O   0  0  0  0  0  0  0  0  0  0  0  0
    9.5539  -15.3270   22.5663 C   0  0  0  0  0  0  0  0  0  0  0  0
   10.4766  -16.0327   21.6113 C   0  0  2  0  0  0  0  0  0  0  0  0
    9.8027  -16.9435   20.7332 N   0  0  0  0  0  0  0  0  0  0  0  0
   11.5879  -16.6595   22.3593 C   0  0  0  0  0  0  0  0  0  0  0  0
   11.5440  -17.8881   22.6136 O   0  0  0  0  0  0  0  0  0  0  0  0
   12.7155  -15.9273   22.8084 N   0  0  0  0  0  0  0  0  0  0  0  0
   13.7563  -16.4313   23.6462 C   0  0  1  0  0  0  0  0  0  0  0  0
   14.9309  -15.4904   23.6415 C   0  0  0  0  0  0  0  0  0  0  0  0
   16.2060  -16.1879   23.9134 C   0  0  0  0  0  0  0  0  0  0  0  0
   16.3655  -17.4005   23.6248 O   0  0  0  0  0  0  0  0  0  0  0  0
   13.2952  -16.7833   25.0051 C   0  0  0  0  0  0  0  0  0  0  0  0
   13.7939  -17.7132   25.6544 O   0  0  0  0  0  0  0  0  0  0  0  0
   17.2331  -15.4612   24.5017 O   0  0  0  0  0  0  0  0  0  0  0  0
   12.2593  -16.0400   25.5777 O   0  0  0  0  0  0  0  0  0  0  0  0
  2  1  1  1
  2  3  1  0
  2  4  1  0
  4  6  1  0
  4  5  1  6
  6  7  2  0
  8  9  1  0
 10  9  1  1
 10 12  1  0
 11  6  1  0
 11 10  1  0
 12 13  2  0
 12 14  1  0
 14 15  1  0
 15 16  1  1
 16 17  1  0
 17 21  1  0
 18 17  2  0
 19 15  1  0
 19 22  1  0
 20 19  2  0
M  END
$$$$
