VSD.pdb
     RDKit          3D

 22 21  0  0  1  0  0  0  0  0999 V2000
    7.3716  -15.3677   19.2112 C   0  0  0  0  0  0  0  0  0  0  0  0
    6.3462  -15.9337   20.1676 C   0  0  2  0  0  0  0  0  0  0  0  0
    5.6631  -14.7877   20.8663 C   0  0  0  0  0  0  0  0  0  0  0  0
    6.9237  -16.9335   21.1194 C   0  0  2  0  0  0  0  0  0  0  0  0
    5.8358  -17.6447   21.7537 N   0  0  0  0  0  0  0  0  0  0  0  0
    7.8027  -16.3641   22.1401 C   0  0  0  0  0  0  0  0  0  0  0  0
    8.9658  -15.9194   21.9012 O   0  0  0  0  0  0  0  0  0  0  0  0
    6.3218  -15.5051   25.8865 O   0  0  0  0  0  0  0  0  0  0  0  0
    7.4606  -14.8273   25.5102 C   0  0  0  0  0  0  0  0  0  0  0  0
    8.2268  -15.6690   24.5275 C   0  0  2  0  0  0  0  0  0  0  0  0
    7.4005  -16.2659   23.5197 N   0  0  0  0  0  0  0  0  0  0  0  0
    9.0616  -16.6510   25.2529 C   0  0  0  0  0  0  0  0  0  0  0  0
    8.5862  -17.7795   25.5291 O   0  0  0  0  0  0  0  0  0  0  0  0
   10.3919  -16.3731   25.6562 N   0  0  0  0  0  0  0  0  0  0  0  0
   11.2503  -17.2653   26.3676 C   0  0  1  0  0  0  0  0  0  0  0  0
   12.6916  -16.9470   26.0738 C   0  0  0  0  0  0  0  0  0  0  0  0
   13.0108  -17.0793   24.6361 C   0  0  0  0  0  0  0  0  0  0  0  0
   12.4356  -17.9298   23.9116 O   0  0  0  0  0  0  0  0  0  0  0  0
   10.9510  -17.3381   27.8126 C   0  0  0  0  0  0  0  0  0  0  0  0
   10.1319  -16.5860   28.3588 O   0  0  0  0  0  0  0  0  0  0  0  0
   13.9721  -16.2311   24.1017 O   0  0  0  0  0  0  0  0  0  0  0  0
   11.6162  -18.2900   28.5904 O   0  0  0  0  0  0  0  0  0  0  0  0
  2  1  1  1
  2  3  1  0
  2  4  1  0
  4  6  1  0
  4  5  1  1
  6  7  2  0
  8  9  1  0
 10  9  1  1
 10 12  1  0
 11  6  1  0
 11 10  1  0
 12 13  2  0
 12 14  1  0
 14 15  1  0
 15 16  1  1
 16 17  1  0
 17 21  1  0
 18 17  2  0
 19 15  1  0
 19 22  1  0
 20 19  2  0
M  END
$$$$
