VSD.pdb
     RDKit          3D

 22 21  0  0  1  0  0  0  0  0999 V2000
    7.8572  -15.2155   16.0545 C   0  0  0  0  0  0  0  0  0  0  0  0
    8.5340  -15.1512   17.4052 C   0  0  2  0  0  0  0  0  0  0  0  0
    8.6155  -16.5474   17.9639 C   0  0  0  0  0  0  0  0  0  0  0  0
    7.8775  -14.1874   18.3428 C   0  0  2  0  0  0  0  0  0  0  0  0
    7.8257  -12.8903   17.7052 N   0  0  0  0  0  0  0  0  0  0  0  0
    8.5273  -14.0703   19.6477 C   0  0  0  0  0  0  0  0  0  0  0  0
    9.7383  -13.7291   19.8048 O   0  0  0  0  0  0  0  0  0  0  0  0
    6.6496  -15.3535   23.2187 O   0  0  0  0  0  0  0  0  0  0  0  0
    7.4853  -14.2618   23.3065 C   0  0  0  0  0  0  0  0  0  0  0  0
    8.4563  -14.2975   22.1589 C   0  0  2  0  0  0  0  0  0  0  0  0
    7.8219  -14.3400   20.8743 N   0  0  0  0  0  0  0  0  0  0  0  0
    9.4328  -15.3895   22.3626 C   0  0  0  0  0  0  0  0  0  0  0  0
    9.2659  -16.4839   21.7707 O   0  0  0  0  0  0  0  0  0  0  0  0
   10.5637  -15.2557   23.2067 N   0  0  0  0  0  0  0  0  0  0  0  0
   11.5560  -16.2569   23.4349 C   0  0  1  0  0  0  0  0  0  0  0  0
   12.9299  -15.6952   23.1865 C   0  0  0  0  0  0  0  0  0  0  0  0
   13.9859  -16.7210   23.3254 C   0  0  0  0  0  0  0  0  0  0  0  0
   13.8980  -17.8354   22.7513 O   0  0  0  0  0  0  0  0  0  0  0  0
   11.4254  -16.9221   24.7477 C   0  0  0  0  0  0  0  0  0  0  0  0
   10.7990  -16.4149   25.6886 O   0  0  0  0  0  0  0  0  0  0  0  0
   15.0882  -16.4181   24.1142 O   0  0  0  0  0  0  0  0  0  0  0  0
   12.0306  -18.1682   24.9338 O   0  0  0  0  0  0  0  0  0  0  0  0
  2  1  1  6
  2  3  1  0
  2  4  1  0
  4  6  1  0
  4  5  1  6
  6  7  2  0
  8  9  1  0
 10  9  1  1
 10 12  1  0
 11  6  1  0
 11 10  1  0
 12 13  2  0
 12 14  1  0
 14 15  1  0
 15 16  1  1
 16 17  1  0
 17 21  1  0
 18 17  2  0
 19 15  1  0
 19 22  1  0
 20 19  2  0
M  END
$$$$
