CSP.pdb
     RDKit          3D

 20 20  0  0  1  0  0  0  0  0999 V2000
   17.7329  -13.0288  -17.7071 N   0  0  0  0  0  0  0  0  0  0  0  0
   17.5728  -11.8736  -16.8449 C   0  0  1  0  0  0  0  0  0  0  0  0
   16.9371  -12.3675  -15.5616 C   0  0  0  0  0  0  0  0  0  0  0  0
   15.1656  -12.6151  -15.9173 S   0  0  0  0  0  0  0  0  0  0  0  0
   18.8913  -11.2442  -16.5739 C   0  0  0  0  0  0  0  0  0  0  0  0
   19.9212  -11.9460  -16.6811 O   0  0  0  0  0  0  0  0  0  0  0  0
   21.6865   -8.4575  -18.1198 O   0  0  0  0  0  0  0  0  0  0  0  0
   20.4748   -9.1493  -17.9119 C   0  0  0  0  0  0  0  0  0  0  0  0
   20.3067   -9.1434  -16.3767 C   0  0  2  0  0  0  0  0  0  0  0  0
   19.0506   -9.9001  -16.2022 N   0  0  0  0  0  0  0  0  0  0  0  0
   20.1563   -7.7621  -15.9269 C   0  0  0  0  0  0  0  0  0  0  0  0
   19.2398   -7.0773  -16.4955 O   0  0  0  0  0  0  0  0  0  0  0  0
   20.9331   -7.1430  -14.9285 N   0  0  0  0  0  0  0  0  0  0  0  0
   21.9816   -7.7144  -14.1130 C   0  0  0  0  0  0  0  0  0  0  0  0
   22.9254   -6.5119  -14.0082 C   0  0  0  0  0  0  0  0  0  0  0  0
   21.9104   -5.4426  -13.5950 C   0  0  0  0  0  0  0  0  0  0  0  0
   20.7778   -5.7220  -14.5537 C   0  0  1  0  0  0  0  0  0  0  0  0
   20.9732   -4.8898  -15.7786 C   0  0  0  0  0  0  0  0  0  0  0  0
   21.6047   -5.4085  -16.8922 O   0  0  0  0  0  0  0  0  0  0  0  0
   20.5694   -3.7022  -15.8254 O   0  0  0  0  0  0  0  0  0  0  0  0
  2  5  1  0
  2  1  1  6
  3  2  1  0
  4  3  1  0
  5  6  2  0
  7  8  1  0
  9  8  1  6
 10  9  1  0
 10  5  1  0
 11 12  2  0
 11  9  1  0
 13 11  1  0
 14 13  1  0
 15 14  1  0
 16 15  1  0
 16 17  1  0
 17 18  1  6
 17 13  1  0
 18 19  1  0
 20 18  2  0
M  END
$$$$
