CSP.pdb
     RDKit          3D

 20 20  0  0  1  0  0  0  0  0999 V2000
   24.3356  -13.6055  -15.5292 N   0  0  0  0  0  0  0  0  0  0  0  0
   24.2701  -12.2972  -16.1518 C   0  0  1  0  0  0  0  0  0  0  0  0
   24.5785  -12.4939  -17.6218 C   0  0  0  0  0  0  0  0  0  0  0  0
   26.3219  -13.0193  -17.7245 S   0  0  0  0  0  0  0  0  0  0  0  0
   22.9195  -11.7050  -15.9694 C   0  0  0  0  0  0  0  0  0  0  0  0
   21.9345  -12.4732  -15.9042 O   0  0  0  0  0  0  0  0  0  0  0  0
   22.4619   -9.2988  -13.6287 O   0  0  0  0  0  0  0  0  0  0  0  0
   21.2342   -9.8218  -14.0861 C   0  0  0  0  0  0  0  0  0  0  0  0
   21.3488   -9.7379  -15.6239 C   0  0  2  0  0  0  0  0  0  0  0  0
   22.6820  -10.3256  -15.8652 N   0  0  0  0  0  0  0  0  0  0  0  0
   21.3128   -8.3329  -16.0207 C   0  0  0  0  0  0  0  0  0  0  0  0
   22.3377   -7.6322  -15.7193 O   0  0  0  0  0  0  0  0  0  0  0  0
   20.2502   -7.7071  -16.7009 N   0  0  0  0  0  0  0  0  0  0  0  0
   19.0224   -8.2905  -17.1939 C   0  0  0  0  0  0  0  0  0  0  0  0
   18.0534   -7.1311  -16.9396 C   0  0  0  0  0  0  0  0  0  0  0  0
   18.8603   -5.9968  -17.5772 C   0  0  0  0  0  0  0  0  0  0  0  0
   20.2389   -6.2648  -17.0224 C   0  0  1  0  0  0  0  0  0  0  0  0
   20.3981   -5.4992  -15.7497 C   0  0  0  0  0  0  0  0  0  0  0  0
   20.3513   -6.1418  -14.5279 O   0  0  0  0  0  0  0  0  0  0  0  0
   20.5778   -4.2570  -15.7598 O   0  0  0  0  0  0  0  0  0  0  0  0
  2  5  1  0
  2  1  1  1
  3  2  1  0
  4  3  1  0
  5  6  2  0
  7  8  1  0
  9  8  1  1
 10  9  1  0
 10  5  1  0
 11 12  2  0
 11  9  1  0
 13 11  1  0
 14 13  1  0
 15 14  1  0
 16 15  1  0
 16 17  1  0
 17 18  1  1
 17 13  1  0
 18 19  1  0
 20 18  2  0
M  END
$$$$
