CSP.pdb
     RDKit          3D

 20 20  0  0  1  0  0  0  0  0999 V2000
   27.4623  -34.1940   -4.5305 N   0  0  0  0  0  0  0  0  0  0  0  0
   26.2115  -33.9724   -3.8306 C   0  0  1  0  0  0  0  0  0  0  0  0
   25.5176  -35.3155   -3.7343 C   0  0  0  0  0  0  0  0  0  0  0  0
   23.8962  -35.0117   -2.9565 S   0  0  0  0  0  0  0  0  0  0  0  0
   26.4680  -33.4115   -2.4787 C   0  0  0  0  0  0  0  0  0  0  0  0
   27.4449  -33.8443   -1.8281 O   0  0  0  0  0  0  0  0  0  0  0  0
   23.7884  -31.2490   -1.1515 O   0  0  0  0  0  0  0  0  0  0  0  0
   24.9040  -30.6896   -0.4938 C   0  0  0  0  0  0  0  0  0  0  0  0
   25.9749  -31.7991   -0.5779 C   0  0  2  0  0  0  0  0  0  0  0  0
   25.6740  -32.4183   -1.8845 N   0  0  0  0  0  0  0  0  0  0  0  0
   25.7585  -32.7435    0.5149 C   0  0  0  0  0  0  0  0  0  0  0  0
   24.7480  -33.5173    0.4037 O   0  0  0  0  0  0  0  0  0  0  0  0
   26.5697  -32.8617    1.6601 N   0  0  0  0  0  0  0  0  0  0  0  0
   27.7191  -32.0712    2.0408 C   0  0  0  0  0  0  0  0  0  0  0  0
   27.5290  -32.0359    3.5607 C   0  0  0  0  0  0  0  0  0  0  0  0
   27.3091  -33.5301    3.8121 C   0  0  0  0  0  0  0  0  0  0  0  0
   26.3389  -33.8774    2.7083 C   0  0  1  0  0  0  0  0  0  0  0  0
   24.9477  -33.7098    3.2257 C   0  0  0  0  0  0  0  0  0  0  0  0
   24.4377  -34.5741    4.1748 O   0  0  0  0  0  0  0  0  0  0  0  0
   24.2106  -32.7820    2.8117 O   0  0  0  0  0  0  0  0  0  0  0  0
  2  5  1  0
  2  1  1  1
  3  2  1  0
  4  3  1  0
  5  6  2  0
  7  8  1  0
  9  8  1  1
 10  9  1  0
 10  5  1  0
 11 12  2  0
 11  9  1  0
 13 11  1  0
 14 13  1  0
 15 14  1  0
 16 15  1  0
 16 17  1  0
 17 18  1  1
 17 13  1  0
 18 19  1  0
 20 18  2  0
M  END
$$$$
