CSP.pdb
     RDKit          3D

 20 20  0  0  1  0  0  0  0  0999 V2000
   18.6244  -12.7597  -17.8477 N   0  0  0  0  0  0  0  0  0  0  0  0
   18.2373  -11.6716  -16.9704 C   0  0  1  0  0  0  0  0  0  0  0  0
   17.4286  -12.2816  -15.8439 C   0  0  0  0  0  0  0  0  0  0  0  0
   16.9382  -10.9079  -14.7491 S   0  0  0  0  0  0  0  0  0  0  0  0
   19.4417  -10.9798  -16.4424 C   0  0  0  0  0  0  0  0  0  0  0  0
   20.4917  -11.6422  -16.2892 O   0  0  0  0  0  0  0  0  0  0  0  0
   21.8685   -7.6726  -17.4858 O   0  0  0  0  0  0  0  0  0  0  0  0
   21.4472   -8.9895  -17.2059 C   0  0  0  0  0  0  0  0  0  0  0  0
   20.7144   -8.8613  -15.8525 C   0  0  2  0  0  0  0  0  0  0  0  0
   19.4713   -9.6181  -16.1033 N   0  0  0  0  0  0  0  0  0  0  0  0
   20.4311   -7.4502  -15.6046 C   0  0  0  0  0  0  0  0  0  0  0  0
   19.6836   -6.8635  -16.4587 O   0  0  0  0  0  0  0  0  0  0  0  0
   20.9119   -6.7042  -14.5111 N   0  0  0  0  0  0  0  0  0  0  0  0
   21.7775   -7.1314  -13.4344 C   0  0  0  0  0  0  0  0  0  0  0  0
   22.5895   -5.8501  -13.2185 C   0  0  0  0  0  0  0  0  0  0  0  0
   21.4379   -4.8444  -13.1366 C   0  0  0  0  0  0  0  0  0  0  0  0
   20.5801   -5.2797  -14.3006 C   0  0  1  0  0  0  0  0  0  0  0  0
   20.9994   -4.5162  -15.5140 C   0  0  0  0  0  0  0  0  0  0  0  0
   20.4931   -3.2560  -15.7661 O   0  0  0  0  0  0  0  0  0  0  0  0
   21.8197   -5.0000  -16.3317 O   0  0  0  0  0  0  0  0  0  0  0  0
  2  5  1  0
  2  1  1  6
  3  2  1  0
  4  3  1  0
  5  6  2  0
  7  8  1  0
  9  8  1  6
 10  9  1  0
 10  5  1  0
 11 12  2  0
 11  9  1  0
 13 11  1  0
 14 13  1  0
 15 14  1  0
 16 15  1  0
 16 17  1  0
 17 18  1  6
 17 13  1  0
 18 19  1  0
 20 18  2  0
M  END
$$$$
