CSP.pdb
     RDKit          3D

 20 20  0  0  1  0  0  0  0  0999 V2000
   20.5406  -20.8595  -12.0305 N   0  0  0  0  0  0  0  0  0  0  0  0
   21.6240  -21.5522  -12.7013 C   0  0  1  0  0  0  0  0  0  0  0  0
   21.1491  -21.8532  -14.1080 C   0  0  0  0  0  0  0  0  0  0  0  0
   22.4464  -22.8674  -14.8919 S   0  0  0  0  0  0  0  0  0  0  0  0
   22.8437  -20.7038  -12.7250 C   0  0  0  0  0  0  0  0  0  0  0  0
   22.7229  -19.4923  -13.0119 O   0  0  0  0  0  0  0  0  0  0  0  0
   26.0407  -22.5045  -11.9346 O   0  0  0  0  0  0  0  0  0  0  0  0
   26.3665  -21.1486  -11.7216 C   0  0  0  0  0  0  0  0  0  0  0  0
   25.3619  -20.3848  -12.6115 C   0  0  2  0  0  0  0  0  0  0  0  0
   24.1318  -21.1845  -12.4427 N   0  0  0  0  0  0  0  0  0  0  0  0
   25.8326  -20.4278  -13.9934 C   0  0  0  0  0  0  0  0  0  0  0  0
   25.7412  -21.5546  -14.5886 O   0  0  0  0  0  0  0  0  0  0  0  0
   26.3681  -19.3363  -14.7043 N   0  0  0  0  0  0  0  0  0  0  0  0
   26.5687  -17.9757  -14.2577 C   0  0  0  0  0  0  0  0  0  0  0  0
   27.8730  -17.6426  -14.9895 C   0  0  0  0  0  0  0  0  0  0  0  0
   27.4870  -18.1075  -16.3963 C   0  0  0  0  0  0  0  0  0  0  0  0
   26.8381  -19.4387  -16.1016 C   0  0  1  0  0  0  0  0  0  0  0  0
   27.8830  -20.5040  -16.1682 C   0  0  0  0  0  0  0  0  0  0  0  0
   28.3080  -21.0022  -17.3844 O   0  0  0  0  0  0  0  0  0  0  0  0
   28.3987  -20.9709  -15.1234 O   0  0  0  0  0  0  0  0  0  0  0  0
  2  5  1  0
  2  1  1  1
  3  2  1  0
  4  3  1  0
  5  6  2  0
  7  8  1  0
  9  8  1  1
 10  9  1  0
 10  5  1  0
 11 12  2  0
 11  9  1  0
 13 11  1  0
 14 13  1  0
 15 14  1  0
 16 15  1  0
 16 17  1  0
 17 18  1  1
 17 13  1  0
 18 19  1  0
 20 18  2  0
M  END
$$$$
