CSP.pdb
     RDKit          3D

 20 20  0  0  1  0  0  0  0  0999 V2000
   26.4199  -21.9678  -19.0828 N   0  0  0  0  0  0  0  0  0  0  0  0
   26.6410  -22.4921  -17.7487 C   0  0  1  0  0  0  0  0  0  0  0  0
   28.0707  -22.9909  -17.7038 C   0  0  0  0  0  0  0  0  0  0  0  0
   28.3963  -23.4900  -15.9801 S   0  0  0  0  0  0  0  0  0  0  0  0
   26.4191  -21.4305  -16.7328 C   0  0  0  0  0  0  0  0  0  0  0  0
   26.8936  -20.2927  -16.9447 O   0  0  0  0  0  0  0  0  0  0  0  0
   23.7585  -18.7342  -14.8132 O   0  0  0  0  0  0  0  0  0  0  0  0
   24.1912  -19.8344  -15.5828 C   0  0  0  0  0  0  0  0  0  0  0  0
   25.2281  -20.5325  -14.6759 C   0  0  2  0  0  0  0  0  0  0  0  0
   25.7039  -21.6303  -15.5418 N   0  0  0  0  0  0  0  0  0  0  0  0
   24.5436  -21.0521  -13.4950 C   0  0  0  0  0  0  0  0  0  0  0  0
   23.4717  -21.7143  -13.7065 O   0  0  0  0  0  0  0  0  0  0  0  0
   24.9734  -20.8804  -12.1649 N   0  0  0  0  0  0  0  0  0  0  0  0
   26.1510  -20.1994  -11.6747 C   0  0  0  0  0  0  0  0  0  0  0  0
   25.5925  -19.5936  -10.3829 C   0  0  0  0  0  0  0  0  0  0  0  0
   24.9342  -20.8441   -9.7938 C   0  0  0  0  0  0  0  0  0  0  0  0
   24.2247  -21.4041  -11.0034 C   0  0  1  0  0  0  0  0  0  0  0  0
   22.8406  -20.8440  -11.0463 C   0  0  0  0  0  0  0  0  0  0  0  0
   22.5409  -19.7612  -11.8499 O   0  0  0  0  0  0  0  0  0  0  0  0
   21.9190  -21.3425  -10.3551 O   0  0  0  0  0  0  0  0  0  0  0  0
  2  5  1  0
  2  1  1  6
  3  2  1  0
  4  3  1  0
  5  6  2  0
  7  8  1  0
  9  8  1  6
 10  9  1  0
 10  5  1  0
 11 12  2  0
 11  9  1  0
 13 11  1  0
 14 13  1  0
 15 14  1  0
 16 15  1  0
 16 17  1  0
 17 18  1  6
 17 13  1  0
 18 19  1  0
 20 18  2  0
M  END
$$$$
