CSP.pdb
     RDKit          3D

 20 20  0  0  1  0  0  0  0  0999 V2000
   19.9845  -17.2014  -16.8028 N   0  0  0  0  0  0  0  0  0  0  0  0
   21.3903  -17.2927  -16.4583 C   0  0  1  0  0  0  0  0  0  0  0  0
   21.8887  -15.8751  -16.2659 C   0  0  0  0  0  0  0  0  0  0  0  0
   22.4096  -15.2766  -17.9080 S   0  0  0  0  0  0  0  0  0  0  0  0
   21.5676  -18.0888  -15.2163 C   0  0  0  0  0  0  0  0  0  0  0  0
   21.1066  -17.6355  -14.1455 O   0  0  0  0  0  0  0  0  0  0  0  0
   23.1165  -22.2702  -14.3923 O   0  0  0  0  0  0  0  0  0  0  0  0
   21.9467  -21.4879  -14.2954 C   0  0  0  0  0  0  0  0  0  0  0  0
   22.4731  -20.0832  -13.9284 C   0  0  2  0  0  0  0  0  0  0  0  0
   22.2262  -19.3276  -15.1731 N   0  0  0  0  0  0  0  0  0  0  0  0
   23.9026  -20.1776  -13.6444 C   0  0  0  0  0  0  0  0  0  0  0  0
   24.6770  -20.2665  -14.6566 O   0  0  0  0  0  0  0  0  0  0  0  0
   24.4780  -20.1757  -12.3590 N   0  0  0  0  0  0  0  0  0  0  0  0
   23.8253  -20.0463  -11.0752 C   0  0  0  0  0  0  0  0  0  0  0  0
   24.6995  -20.9824  -10.2342 C   0  0  0  0  0  0  0  0  0  0  0  0
   26.0782  -20.4467  -10.6297 C   0  0  0  0  0  0  0  0  0  0  0  0
   25.9301  -20.3222  -12.1272 C   0  0  1  0  0  0  0  0  0  0  0  0
   26.3795  -21.5990  -12.7589 C   0  0  0  0  0  0  0  0  0  0  0  0
   27.6992  -21.7806  -13.1241 O   0  0  0  0  0  0  0  0  0  0  0  0
   25.5710  -22.5350  -12.9725 O   0  0  0  0  0  0  0  0  0  0  0  0
  2  5  1  0
  2  1  1  1
  3  2  1  0
  4  3  1  0
  5  6  2  0
  7  8  1  0
  9  8  1  6
 10  9  1  0
 10  5  1  0
 11 12  2  0
 11  9  1  0
 13 11  1  0
 14 13  1  0
 15 14  1  0
 16 15  1  0
 16 17  1  0
 17 18  1  6
 17 13  1  0
 18 19  1  0
 20 18  2  0
M  END
$$$$
