CSP.pdb
     RDKit          3D

 20 20  0  0  1  0  0  0  0  0999 V2000
   19.3749  -16.0325  -18.3885 N   0  0  0  0  0  0  0  0  0  0  0  0
   19.3057  -14.9784  -17.3948 C   0  0  1  0  0  0  0  0  0  0  0  0
   19.0649  -15.6494  -16.0582 C   0  0  0  0  0  0  0  0  0  0  0  0
   19.1427  -14.3379  -14.7932 S   0  0  0  0  0  0  0  0  0  0  0  0
   20.5723  -14.2017  -17.3761 C   0  0  0  0  0  0  0  0  0  0  0  0
   21.6558  -14.8266  -17.3620 O   0  0  0  0  0  0  0  0  0  0  0  0
   22.3645  -11.6141  -19.6593 O   0  0  0  0  0  0  0  0  0  0  0  0
   21.6205  -11.0591  -18.5970 C   0  0  0  0  0  0  0  0  0  0  0  0
   21.8822  -12.0250  -17.4208 C   0  0  2  0  0  0  0  0  0  0  0  0
   20.6254  -12.7991  -17.3734 N   0  0  0  0  0  0  0  0  0  0  0  0
   22.0642  -11.2410  -16.2020 C   0  0  0  0  0  0  0  0  0  0  0  0
   21.0139  -10.7042  -15.7111 O   0  0  0  0  0  0  0  0  0  0  0  0
   23.2910  -11.0397  -15.5403 N   0  0  0  0  0  0  0  0  0  0  0  0
   24.5859  -11.6086  -15.8413 C   0  0  0  0  0  0  0  0  0  0  0  0
   25.4890  -10.4232  -15.4851 C   0  0  0  0  0  0  0  0  0  0  0  0
   24.9219  -10.0937  -14.1016 C   0  0  0  0  0  0  0  0  0  0  0  0
   23.4367  -10.1522  -14.3678 C   0  0  1  0  0  0  0  0  0  0  0  0
   22.9667   -8.7872  -14.7515 C   0  0  0  0  0  0  0  0  0  0  0  0
   22.9311   -8.3985  -16.0765 O   0  0  0  0  0  0  0  0  0  0  0  0
   22.5937   -7.9628  -13.8816 O   0  0  0  0  0  0  0  0  0  0  0  0
  2  5  1  0
  2  1  1  6
  3  2  1  0
  4  3  1  0
  5  6  2  0
  7  8  1  0
  9  8  1  6
 10  9  1  0
 10  5  1  0
 11 12  2  0
 11  9  1  0
 13 11  1  0
 14 13  1  0
 15 14  1  0
 16 15  1  0
 16 17  1  0
 17 18  1  6
 17 13  1  0
 18 19  1  0
 20 18  2  0
M  END
$$$$
