CSP.pdb
     RDKit          3D

 20 20  0  0  1  0  0  0  0  0999 V2000
   16.5643  -11.9437  -15.9142 N   0  0  0  0  0  0  0  0  0  0  0  0
   16.8373  -10.6071  -16.4067 C   0  0  1  0  0  0  0  0  0  0  0  0
   15.6674   -9.7384  -15.9927 C   0  0  0  0  0  0  0  0  0  0  0  0
   14.4727   -9.7791  -17.3700 S   0  0  0  0  0  0  0  0  0  0  0  0
   18.1073  -10.0936  -15.8310 C   0  0  0  0  0  0  0  0  0  0  0  0
   18.3263  -10.2731  -14.6126 O   0  0  0  0  0  0  0  0  0  0  0  0
   20.5528   -8.9759  -18.3027 O   0  0  0  0  0  0  0  0  0  0  0  0
   21.3336   -9.0372  -17.1295 C   0  0  0  0  0  0  0  0  0  0  0  0
   20.3075   -8.8331  -15.9936 C   0  0  2  0  0  0  0  0  0  0  0  0
   19.0822   -9.4144  -16.5783 N   0  0  0  0  0  0  0  0  0  0  0  0
   20.1496   -7.4008  -15.7562 C   0  0  0  0  0  0  0  0  0  0  0  0
   19.4442   -6.7595  -16.6068 O   0  0  0  0  0  0  0  0  0  0  0  0
   20.7068   -6.6893  -14.6760 N   0  0  0  0  0  0  0  0  0  0  0  0
   21.4552   -7.1968  -13.5476 C   0  0  0  0  0  0  0  0  0  0  0  0
   22.4552   -6.0524  -13.3523 C   0  0  0  0  0  0  0  0  0  0  0  0
   21.4785   -4.8733  -13.3603 C   0  0  0  0  0  0  0  0  0  0  0  0
   20.6019   -5.2217  -14.5393 C   0  0  1  0  0  0  0  0  0  0  0  0
   21.1797   -4.5939  -15.7654 C   0  0  0  0  0  0  0  0  0  0  0  0
   22.0171   -5.3101  -16.5985 O   0  0  0  0  0  0  0  0  0  0  0  0
   20.9191   -3.4038  -16.0675 O   0  0  0  0  0  0  0  0  0  0  0  0
  2  5  1  0
  2  1  1  1
  3  2  1  0
  4  3  1  0
  5  6  2  0
  7  8  1  0
  9  8  1  6
 10  9  1  0
 10  5  1  0
 11 12  2  0
 11  9  1  0
 13 11  1  0
 14 13  1  0
 15 14  1  0
 16 15  1  0
 16 17  1  0
 17 18  1  6
 17 13  1  0
 18 19  1  0
 20 18  2  0
M  END
$$$$
