QHC.pdb
     RDKit          3D

 26 26  0  0  1  0  0  0  0  0999 V2000
   27.4177  -32.9460  -13.8507 N   0  0  0  0  0  0  0  0  0  0  0  0
   26.7216  -32.4003  -14.9677 C   0  0  0  0  0  0  0  0  0  0  0  0
   25.5512  -32.0216  -14.7753 O   0  0  0  0  0  0  0  0  0  0  0  0
   27.4265  -32.3211  -16.2564 C   0  0  0  0  0  0  0  0  0  0  0  0
   27.8131  -30.9174  -16.5565 C   0  0  0  0  0  0  0  0  0  0  0  0
   28.3793  -30.8007  -17.9259 C   0  0  2  0  0  0  0  0  0  0  0  0
   29.8061  -31.0607  -17.9526 N   0  0  0  0  0  0  0  0  0  0  0  0
   28.1072  -29.3894  -18.3867 C   0  0  0  0  0  0  0  0  0  0  0  0
   29.0908  -28.7178  -18.7826 O   0  0  0  0  0  0  0  0  0  0  0  0
   26.8249  -28.8163  -18.3878 N   0  0  0  0  0  0  0  0  0  0  0  0
   26.6519  -27.4917  -18.9532 C   0  0  1  0  0  0  0  0  0  0  0  0
   25.3471  -27.4567  -19.6945 C   0  0  0  0  0  0  0  0  0  0  0  0
   25.5228  -28.0477  -21.0565 C   0  0  0  0  0  0  0  0  0  0  0  0
   26.7077  -28.0398  -21.7644 C   0  0  0  0  0  0  0  0  0  0  0  0
   26.4695  -28.6609  -22.9372 N   0  0  0  0  0  0  0  0  0  0  0  0
   25.1970  -29.0549  -22.9954 C   0  0  0  0  0  0  0  0  0  0  0  0
   24.6236  -28.6720  -21.8319 N   0  0  0  0  0  0  0  0  0  0  0  0
   26.6706  -26.4722  -17.8457 C   0  0  0  0  0  0  0  0  0  0  0  0
   26.3149  -26.7493  -16.6741 O   0  0  0  0  0  0  0  0  0  0  0  0
   27.0994  -25.1473  -18.1056 N   0  0  0  0  0  0  0  0  0  0  0  0
   27.0383  -24.1770  -17.0349 C   0  0  1  0  0  0  0  0  0  0  0  0
   27.8244  -22.9533  -17.4552 C   0  0  0  0  0  0  0  0  0  0  0  0
   27.7042  -21.6294  -16.2194 S   0  0  0  0  0  0  0  0  0  0  0  0
   25.6054  -23.8512  -16.8160 C   0  0  0  0  0  0  0  0  0  0  0  0
   24.7976  -23.6856  -17.7558 O   0  0  0  0  0  0  0  0  0  0  0  0
   25.1283  -23.7221  -15.5212 O   0  0  0  0  0  0  0  0  0  0  0  0
  2  1  1  0
  2  4  1  0
  3  2  2  0
  5  4  1  0
  5  6  1  0
  6  8  1  0
  6  7  1  1
  8 10  1  0
  9  8  2  0
 10 11  1  0
 11 18  1  0
 11 12  1  1
 13 12  1  0
 13 14  2  0
 15 14  1  0
 16 17  2  0
 16 15  1  0
 17 13  1  0
 18 20  1  0
 19 18  2  0
 20 21  1  0
 21 24  1  0
 21 22  1  6
 22 23  1  0
 24 25  2  0
 24 26  1  0
M  END
$$$$
