QHC.pdb
     RDKit          3D

 26 26  0  0  1  0  0  0  0  0999 V2000
   17.5753  -14.6249  -15.0684 N   0  0  0  0  0  0  0  0  0  0  0  0
   16.4892  -13.7947  -15.4702 C   0  0  0  0  0  0  0  0  0  0  0  0
   15.3570  -14.3125  -15.4864 O   0  0  0  0  0  0  0  0  0  0  0  0
   16.7771  -12.3984  -15.8324 C   0  0  0  0  0  0  0  0  0  0  0  0
   18.2317  -12.1156  -15.7127 C   0  0  0  0  0  0  0  0  0  0  0  0
   18.8620  -11.9847  -17.0525 C   0  0  2  0  0  0  0  0  0  0  0  0
   19.6590  -13.1462  -17.3988 N   0  0  0  0  0  0  0  0  0  0  0  0
   19.7405  -10.7586  -16.9982 C   0  0  0  0  0  0  0  0  0  0  0  0
   20.8698  -10.8876  -16.4659 O   0  0  0  0  0  0  0  0  0  0  0  0
   19.3484   -9.5104  -17.5095 N   0  0  0  0  0  0  0  0  0  0  0  0
   20.3163   -8.4303  -17.5346 C   0  0  1  0  0  0  0  0  0  0  0  0
   20.0109   -7.5440  -18.7071 C   0  0  0  0  0  0  0  0  0  0  0  0
   20.6007   -8.1283  -19.9504 C   0  0  0  0  0  0  0  0  0  0  0  0
   21.6200   -9.0589  -19.9687 C   0  0  0  0  0  0  0  0  0  0  0  0
   21.8739   -9.3388  -21.2630 N   0  0  0  0  0  0  0  0  0  0  0  0
   21.0649   -8.6300  -22.0510 C   0  0  0  0  0  0  0  0  0  0  0  0
   20.2852   -7.8882  -21.2319 N   0  0  0  0  0  0  0  0  0  0  0  0
   20.2372   -7.6618  -16.2425 C   0  0  0  0  0  0  0  0  0  0  0  0
   19.2311   -7.7127  -15.4934 O   0  0  0  0  0  0  0  0  0  0  0  0
   21.3201   -6.8455  -15.8329 N   0  0  0  0  0  0  0  0  0  0  0  0
   21.2294   -6.1612  -14.5619 C   0  0  1  0  0  0  0  0  0  0  0  0
   21.3262   -7.1923  -13.4576 C   0  0  0  0  0  0  0  0  0  0  0  0
   21.6392   -6.4146  -11.8478 S   0  0  0  0  0  0  0  0  0  0  0  0
   22.3557   -5.1943  -14.5002 C   0  0  0  0  0  0  0  0  0  0  0  0
   22.4067   -4.2670  -13.6631 O   0  0  0  0  0  0  0  0  0  0  0  0
   23.4019   -5.3116  -15.4017 O   0  0  0  0  0  0  0  0  0  0  0  0
  2  1  1  0
  2  4  1  0
  3  2  2  0
  5  4  1  0
  5  6  1  0
  6  8  1  0
  6  7  1  1
  8 10  1  0
  9  8  2  0
 10 11  1  0
 11 18  1  0
 11 12  1  6
 13 12  1  0
 13 14  2  0
 15 14  1  0
 16 17  2  0
 16 15  1  0
 17 13  1  0
 18 20  1  0
 19 18  2  0
 20 21  1  0
 21 24  1  0
 21 22  1  1
 22 23  1  0
 24 25  2  0
 24 26  1  0
M  END
$$$$
