QHC.pdb
     RDKit          3D

 26 26  0  0  1  0  0  0  0  0999 V2000
   23.9074  -24.9650  -19.0508 N   0  0  0  0  0  0  0  0  0  0  0  0
   25.3080  -24.8243  -19.2714 C   0  0  0  0  0  0  0  0  0  0  0  0
   25.9382  -25.8525  -19.5812 O   0  0  0  0  0  0  0  0  0  0  0  0
   25.9058  -23.4887  -19.1213 C   0  0  0  0  0  0  0  0  0  0  0  0
   26.6279  -23.3806  -17.8264 C   0  0  0  0  0  0  0  0  0  0  0  0
   25.6751  -23.3300  -16.6865 C   0  0  2  0  0  0  0  0  0  0  0  0
   24.3807  -22.8050  -17.0775 N   0  0  0  0  0  0  0  0  0  0  0  0
   26.2973  -22.4339  -15.6434 C   0  0  0  0  0  0  0  0  0  0  0  0
   27.4396  -22.7475  -15.2283 O   0  0  0  0  0  0  0  0  0  0  0  0
   25.6591  -21.2910  -15.1342 N   0  0  0  0  0  0  0  0  0  0  0  0
   26.3037  -20.5469  -14.0688 C   0  0  1  0  0  0  0  0  0  0  0  0
   26.0128  -19.0872  -14.2635 C   0  0  0  0  0  0  0  0  0  0  0  0
   26.8839  -18.5377  -15.3473 C   0  0  0  0  0  0  0  0  0  0  0  0
   27.8898  -19.2446  -15.9746 C   0  0  0  0  0  0  0  0  0  0  0  0
   28.4428  -18.4179  -16.8850 N   0  0  0  0  0  0  0  0  0  0  0  0
   27.8325  -17.2328  -16.8562 C   0  0  0  0  0  0  0  0  0  0  0  0
   26.8743  -17.3180  -15.9056 N   0  0  0  0  0  0  0  0  0  0  0  0
   25.7829  -21.0283  -12.7409 C   0  0  0  0  0  0  0  0  0  0  0  0
   24.6754  -21.6081  -12.6260 O   0  0  0  0  0  0  0  0  0  0  0  0
   26.5474  -20.8338  -11.5641 N   0  0  0  0  0  0  0  0  0  0  0  0
   25.9529  -21.1685  -10.2889 C   0  0  1  0  0  0  0  0  0  0  0  0
   26.8742  -20.6812   -9.1909 C   0  0  0  0  0  0  0  0  0  0  0  0
   26.0747  -20.7706   -7.5640 S   0  0  0  0  0  0  0  0  0  0  0  0
   24.6315  -20.4920  -10.2271 C   0  0  0  0  0  0  0  0  0  0  0  0
   24.4372  -19.3435  -10.6811 O   0  0  0  0  0  0  0  0  0  0  0  0
   23.5589  -21.1486   -9.6445 O   0  0  0  0  0  0  0  0  0  0  0  0
  2  1  1  0
  2  4  1  0
  3  2  2  0
  5  4  1  0
  5  6  1  0
  6  8  1  0
  6  7  1  6
  8 10  1  0
  9  8  2  0
 10 11  1  0
 11 18  1  0
 11 12  1  6
 13 12  1  0
 13 14  2  0
 15 14  1  0
 16 17  2  0
 16 15  1  0
 17 13  1  0
 18 20  1  0
 19 18  2  0
 20 21  1  0
 21 24  1  0
 21 22  1  1
 22 23  1  0
 24 25  2  0
 24 26  1  0
M  END
$$$$
