QHC.pdb
     RDKit          3D

 26 26  0  0  1  0  0  0  0  0999 V2000
   33.5121  -37.0377   -5.7581 N   0  0  0  0  0  0  0  0  0  0  0  0
   33.2020  -36.1672   -6.8426 C   0  0  0  0  0  0  0  0  0  0  0  0
   33.6335  -36.4867   -7.9660 O   0  0  0  0  0  0  0  0  0  0  0  0
   32.4009  -34.9654   -6.5637 C   0  0  0  0  0  0  0  0  0  0  0  0
   31.9722  -34.9406   -5.1404 C   0  0  0  0  0  0  0  0  0  0  0  0
   30.4989  -35.0997   -5.0238 C   0  0  2  0  0  0  0  0  0  0  0  0
   29.7845  -33.9088   -5.4425 N   0  0  0  0  0  0  0  0  0  0  0  0
   30.2094  -35.3862   -3.5705 C   0  0  0  0  0  0  0  0  0  0  0  0
   30.2553  -34.4153   -2.7763 O   0  0  0  0  0  0  0  0  0  0  0  0
   29.8985  -36.6682   -3.0881 N   0  0  0  0  0  0  0  0  0  0  0  0
   29.5212  -36.8184   -1.6956 C   0  0  1  0  0  0  0  0  0  0  0  0
   28.7088  -38.0729   -1.5546 C   0  0  0  0  0  0  0  0  0  0  0  0
   28.2400  -38.2163   -0.1422 C   0  0  0  0  0  0  0  0  0  0  0  0
   27.2222  -37.4742    0.4220 C   0  0  0  0  0  0  0  0  0  0  0  0
   27.0943  -37.8885    1.6987 N   0  0  0  0  0  0  0  0  0  0  0  0
   27.9805  -38.8505    1.9578 C   0  0  0  0  0  0  0  0  0  0  0  0
   28.6806  -39.0441    0.8170 N   0  0  0  0  0  0  0  0  0  0  0  0
   30.7637  -36.8824   -0.8481 C   0  0  0  0  0  0  0  0  0  0  0  0
   31.7519  -37.5907   -1.1605 O   0  0  0  0  0  0  0  0  0  0  0  0
   30.8485  -36.1281    0.3481 N   0  0  0  0  0  0  0  0  0  0  0  0
   32.0738  -36.1809    1.1146 C   0  0  1  0  0  0  0  0  0  0  0  0
   32.6880  -34.7972    1.1274 C   0  0  0  0  0  0  0  0  0  0  0  0
   34.1306  -34.7205    2.2262 S   0  0  0  0  0  0  0  0  0  0  0  0
   31.7173  -36.6278    2.4860 C   0  0  0  0  0  0  0  0  0  0  0  0
   30.5705  -36.4927    2.9652 O   0  0  0  0  0  0  0  0  0  0  0  0
   32.6857  -37.2214    3.2802 O   0  0  0  0  0  0  0  0  0  0  0  0
  2  1  1  0
  2  4  1  0
  3  2  2  0
  5  4  1  0
  5  6  1  0
  6  8  1  0
  6  7  1  1
  8 10  1  0
  9  8  2  0
 10 11  1  0
 11 18  1  0
 11 12  1  6
 13 12  1  0
 13 14  2  0
 15 14  1  0
 16 17  2  0
 16 15  1  0
 17 13  1  0
 18 20  1  0
 19 18  2  0
 20 21  1  0
 21 24  1  0
 21 22  1  1
 22 23  1  0
 24 25  2  0
 24 26  1  0
M  END
$$$$
