QHC.pdb
     RDKit          3D

 26 26  0  0  1  0  0  0  0  0999 V2000
   11.5785  -10.1134   -9.6212 N   0  0  0  0  0  0  0  0  0  0  0  0
   11.2594  -11.3995  -10.1447 C   0  0  0  0  0  0  0  0  0  0  0  0
   10.1139  -11.8333   -9.9211 O   0  0  0  0  0  0  0  0  0  0  0  0
   12.2932  -12.1173  -10.9063 C   0  0  0  0  0  0  0  0  0  0  0  0
   13.5360  -11.3065  -10.9948 C   0  0  0  0  0  0  0  0  0  0  0  0
   14.5930  -12.0302  -11.7489 C   0  0  2  0  0  0  0  0  0  0  0  0
   14.9401  -13.2946  -11.1286 N   0  0  0  0  0  0  0  0  0  0  0  0
   15.8002  -11.1249  -11.7765 C   0  0  0  0  0  0  0  0  0  0  0  0
   16.5991  -11.2077  -10.8120 O   0  0  0  0  0  0  0  0  0  0  0  0
   16.0544  -10.2162  -12.8171 N   0  0  0  0  0  0  0  0  0  0  0  0
   17.2854   -9.4494  -12.7901 C   0  0  1  0  0  0  0  0  0  0  0  0
   17.8894   -9.4692  -14.1642 C   0  0  0  0  0  0  0  0  0  0  0  0
   19.2629   -8.8804  -14.1219 C   0  0  0  0  0  0  0  0  0  0  0  0
   19.8789   -8.4166  -12.9771 C   0  0  0  0  0  0  0  0  0  0  0  0
   21.0966   -7.9658  -13.3406 N   0  0  0  0  0  0  0  0  0  0  0  0
   21.2698   -8.1254  -14.6531 C   0  0  0  0  0  0  0  0  0  0  0  0
   20.1343   -8.6895  -15.1238 N   0  0  0  0  0  0  0  0  0  0  0  0
   16.9839   -8.0405  -12.3537 C   0  0  0  0  0  0  0  0  0  0  0  0
   15.9985   -7.3993  -12.7940 O   0  0  0  0  0  0  0  0  0  0  0  0
   17.8236   -7.3913  -11.4155 N   0  0  0  0  0  0  0  0  0  0  0  0
   17.4881   -6.0473  -10.9996 C   0  0  1  0  0  0  0  0  0  0  0  0
   17.7142   -5.9400   -9.5065 C   0  0  0  0  0  0  0  0  0  0  0  0
   16.5193   -6.9438   -8.5796 S   0  0  0  0  0  0  0  0  0  0  0  0
   18.3738   -5.1196  -11.7495 C   0  0  0  0  0  0  0  0  0  0  0  0
   19.3169   -5.5166  -12.4680 O   0  0  0  0  0  0  0  0  0  0  0  0
   18.1587   -3.7534  -11.6591 O   0  0  0  0  0  0  0  0  0  0  0  0
  2  1  1  0
  2  4  1  0
  3  2  2  0
  5  4  1  0
  5  6  1  0
  6  8  1  0
  6  7  1  1
  8 10  1  0
  9  8  2  0
 10 11  1  0
 11 18  1  0
 11 12  1  6
 13 12  1  0
 13 14  2  0
 15 14  1  0
 16 17  2  0
 16 15  1  0
 17 13  1  0
 18 20  1  0
 19 18  2  0
 20 21  1  0
 21 24  1  0
 21 22  1  1
 22 23  1  0
 24 25  2  0
 24 26  1  0
M  END
$$$$
