QHC.pdb
     RDKit          3D

 26 26  0  0  1  0  0  0  0  0999 V2000
   19.2641  -13.6190  -15.8101 N   0  0  0  0  0  0  0  0  0  0  0  0
   18.0445  -14.0139  -15.1883 C   0  0  0  0  0  0  0  0  0  0  0  0
   17.9731  -15.1869  -14.7767 O   0  0  0  0  0  0  0  0  0  0  0  0
   16.9667  -13.0193  -15.0750 C   0  0  0  0  0  0  0  0  0  0  0  0
   17.4172  -11.6984  -15.5874 C   0  0  0  0  0  0  0  0  0  0  0  0
   16.3668  -10.6645  -15.3943 C   0  0  2  0  0  0  0  0  0  0  0  0
   15.2312  -10.8664  -16.2739 N   0  0  0  0  0  0  0  0  0  0  0  0
   17.0127   -9.3327  -15.6895 C   0  0  0  0  0  0  0  0  0  0  0  0
   17.2608   -9.0717  -16.8918 O   0  0  0  0  0  0  0  0  0  0  0  0
   17.3374   -8.3993  -14.6913 N   0  0  0  0  0  0  0  0  0  0  0  0
   17.9093   -7.1257  -15.0850 C   0  0  1  0  0  0  0  0  0  0  0  0
   17.0217   -6.0272  -14.5762 C   0  0  0  0  0  0  0  0  0  0  0  0
   15.8644   -5.8409  -15.5042 C   0  0  0  0  0  0  0  0  0  0  0  0
   15.6923   -6.5318  -16.6866 C   0  0  0  0  0  0  0  0  0  0  0  0
   14.5428   -6.0908  -17.2363 N   0  0  0  0  0  0  0  0  0  0  0  0
   13.9908   -5.1607  -16.4564 C   0  0  0  0  0  0  0  0  0  0  0  0
   14.8132   -5.0150  -15.3927 N   0  0  0  0  0  0  0  0  0  0  0  0
   19.2970   -7.0061  -14.5138 C   0  0  0  0  0  0  0  0  0  0  0  0
   19.5695   -7.3517  -13.3382 O   0  0  0  0  0  0  0  0  0  0  0  0
   20.3508   -6.4893  -15.3072 N   0  0  0  0  0  0  0  0  0  0  0  0
   21.6764   -6.4140  -14.7339 C   0  0  1  0  0  0  0  0  0  0  0  0
   22.6849   -6.7017  -15.8258 C   0  0  0  0  0  0  0  0  0  0  0  0
   24.3769   -6.3343  -15.2815 S   0  0  0  0  0  0  0  0  0  0  0  0
   21.8444   -5.0419  -14.1895 C   0  0  0  0  0  0  0  0  0  0  0  0
   21.3825   -4.0276  -14.7561 O   0  0  0  0  0  0  0  0  0  0  0  0
   22.5401   -4.8618  -13.0044 O   0  0  0  0  0  0  0  0  0  0  0  0
  2  1  1  0
  2  4  1  0
  3  2  2  0
  5  4  1  0
  5  6  1  0
  6  8  1  0
  6  7  1  6
  8 10  1  0
  9  8  2  0
 10 11  1  0
 11 18  1  0
 11 12  1  1
 13 12  1  0
 13 14  2  0
 15 14  1  0
 16 17  2  0
 16 15  1  0
 17 13  1  0
 18 20  1  0
 19 18  2  0
 20 21  1  0
 21 24  1  0
 21 22  1  6
 22 23  1  0
 24 25  2  0
 24 26  1  0
M  END
$$$$
