QHC.pdb
     RDKit          3D

 26 26  0  0  1  0  0  0  0  0999 V2000
   33.2867   -8.6190  -19.1361 N   0  0  0  0  0  0  0  0  0  0  0  0
   33.0056   -9.9760  -19.4670 C   0  0  0  0  0  0  0  0  0  0  0  0
   33.8525  -10.5785  -20.1527 O   0  0  0  0  0  0  0  0  0  0  0  0
   31.7492  -10.5656  -18.9796 C   0  0  0  0  0  0  0  0  0  0  0  0
   30.9108   -9.5346  -18.3133 C   0  0  0  0  0  0  0  0  0  0  0  0
   29.6471  -10.1247  -17.7990 C   0  0  2  0  0  0  0  0  0  0  0  0
   29.2081  -11.2563  -18.5933 N   0  0  0  0  0  0  0  0  0  0  0  0
   28.6084   -9.0308  -17.8484 C   0  0  0  0  0  0  0  0  0  0  0  0
   28.8184   -8.0111  -17.1472 O   0  0  0  0  0  0  0  0  0  0  0  0
   27.4450   -9.1120  -18.6313 N   0  0  0  0  0  0  0  0  0  0  0  0
   26.5293   -7.9870  -18.6408 C   0  0  1  0  0  0  0  0  0  0  0  0
   26.3338   -7.5439  -20.0617 C   0  0  0  0  0  0  0  0  0  0  0  0
   27.5181   -6.7503  -20.5119 C   0  0  0  0  0  0  0  0  0  0  0  0
   27.7213   -5.4166  -20.2200 C   0  0  0  0  0  0  0  0  0  0  0  0
   28.8880   -5.0613  -20.7949 N   0  0  0  0  0  0  0  0  0  0  0  0
   29.4212   -6.1057  -21.4297 C   0  0  0  0  0  0  0  0  0  0  0  0
   28.5691   -7.1402  -21.2486 N   0  0  0  0  0  0  0  0  0  0  0  0
   25.2224   -8.4047  -18.0214 C   0  0  0  0  0  0  0  0  0  0  0  0
   24.5735   -9.3978  -18.4320 O   0  0  0  0  0  0  0  0  0  0  0  0
   24.6824   -7.6706  -16.9368 N   0  0  0  0  0  0  0  0  0  0  0  0
   23.4623   -8.1426  -16.3202 C   0  0  1  0  0  0  0  0  0  0  0  0
   23.7052   -8.2881  -14.8330 C   0  0  0  0  0  0  0  0  0  0  0  0
   24.8712   -9.6332  -14.4785 S   0  0  0  0  0  0  0  0  0  0  0  0
   22.4077   -7.1343  -16.6005 C   0  0  0  0  0  0  0  0  0  0  0  0
   22.6241   -6.0934  -17.2585 O   0  0  0  0  0  0  0  0  0  0  0  0
   21.1246   -7.3417  -16.1193 O   0  0  0  0  0  0  0  0  0  0  0  0
  2  1  1  0
  2  4  1  0
  3  2  2  0
  5  4  1  0
  5  6  1  0
  6  8  1  0
  6  7  1  6
  8 10  1  0
  9  8  2  0
 10 11  1  0
 11 18  1  0
 11 12  1  6
 13 12  1  0
 13 14  2  0
 15 14  1  0
 16 17  2  0
 16 15  1  0
 17 13  1  0
 18 20  1  0
 19 18  2  0
 20 21  1  0
 21 24  1  0
 21 22  1  1
 22 23  1  0
 24 25  2  0
 24 26  1  0
M  END
$$$$
