QHC.pdb
     RDKit          3D

 26 26  0  0  1  0  0  0  0  0999 V2000
   17.1695  -11.3461  -13.9497 N   0  0  0  0  0  0  0  0  0  0  0  0
   16.7473  -12.3645  -14.8523 C   0  0  0  0  0  0  0  0  0  0  0  0
   15.7270  -13.0075  -14.5430 O   0  0  0  0  0  0  0  0  0  0  0  0
   17.5363  -12.5823  -16.0746 C   0  0  0  0  0  0  0  0  0  0  0  0
   18.6726  -11.6261  -16.1417 C   0  0  0  0  0  0  0  0  0  0  0  0
   19.4592  -11.8184  -17.3883 C   0  0  2  0  0  0  0  0  0  0  0  0
   20.2658  -13.0232  -17.3465 N   0  0  0  0  0  0  0  0  0  0  0  0
   20.3517  -10.6091  -17.5263 C   0  0  0  0  0  0  0  0  0  0  0  0
   21.5768  -10.7752  -17.3100 O   0  0  0  0  0  0  0  0  0  0  0  0
   19.8715   -9.3372  -17.8793 N   0  0  0  0  0  0  0  0  0  0  0  0
   20.8093   -8.2334  -17.9587 C   0  0  1  0  0  0  0  0  0  0  0  0
   20.6583   -7.5754  -19.2995 C   0  0  0  0  0  0  0  0  0  0  0  0
   21.2554   -8.4441  -20.3597 C   0  0  0  0  0  0  0  0  0  0  0  0
   20.5241   -9.1939  -21.2586 C   0  0  0  0  0  0  0  0  0  0  0  0
   21.4093   -9.8357  -22.0476 N   0  0  0  0  0  0  0  0  0  0  0  0
   22.6541   -9.5236  -21.6857 C   0  0  0  0  0  0  0  0  0  0  0  0
   22.5472   -8.6660  -20.6454 N   0  0  0  0  0  0  0  0  0  0  0  0
   20.5270   -7.2602  -16.8454 C   0  0  0  0  0  0  0  0  0  0  0  0
   19.3600   -6.9995  -16.4634 O   0  0  0  0  0  0  0  0  0  0  0  0
   21.5954   -6.6015  -16.1885 N   0  0  0  0  0  0  0  0  0  0  0  0
   21.2910   -5.7246  -15.0794 C   0  0  1  0  0  0  0  0  0  0  0  0
   22.2697   -6.0133  -13.9610 C   0  0  0  0  0  0  0  0  0  0  0  0
   22.1596   -4.7694  -12.6439 S   0  0  0  0  0  0  0  0  0  0  0  0
   21.4262   -4.3289  -15.5704 C   0  0  0  0  0  0  0  0  0  0  0  0
   22.2572   -3.9960  -16.4432 O   0  0  0  0  0  0  0  0  0  0  0  0
   20.6038   -3.3427  -15.0490 O   0  0  0  0  0  0  0  0  0  0  0  0
  2  1  1  0
  2  4  1  0
  3  2  2  0
  5  4  1  0
  5  6  1  0
  6  8  1  0
  6  7  1  1
  8 10  1  0
  9  8  2  0
 10 11  1  0
 11 18  1  0
 11 12  1  6
 13 12  1  0
 13 14  2  0
 15 14  1  0
 16 17  2  0
 16 15  1  0
 17 13  1  0
 18 20  1  0
 19 18  2  0
 20 21  1  0
 21 24  1  0
 21 22  1  1
 22 23  1  0
 24 25  2  0
 24 26  1  0
M  END
$$$$
