QHC.pdb
     RDKit          3D

 26 26  0  0  1  0  0  0  0  0999 V2000
   28.5485  -22.4098  -15.3559 N   0  0  0  0  0  0  0  0  0  0  0  0
   28.9603  -21.5321  -16.4000 C   0  0  0  0  0  0  0  0  0  0  0  0
   29.5487  -22.0440  -17.3706 O   0  0  0  0  0  0  0  0  0  0  0  0
   28.6634  -20.0981  -16.2616 C   0  0  0  0  0  0  0  0  0  0  0  0
   27.9363  -19.8339  -14.9921 C   0  0  0  0  0  0  0  0  0  0  0  0
   26.5107  -20.2411  -15.0988 C   0  0  2  0  0  0  0  0  0  0  0  0
   25.8037  -19.4969  -16.1237 N   0  0  0  0  0  0  0  0  0  0  0  0
   25.8846  -19.9778  -13.7510 C   0  0  0  0  0  0  0  0  0  0  0  0
   25.6407  -18.7820  -13.4578 O   0  0  0  0  0  0  0  0  0  0  0  0
   25.5734  -20.9979  -12.8369 N   0  0  0  0  0  0  0  0  0  0  0  0
   24.9165  -20.6448  -11.5927 C   0  0  1  0  0  0  0  0  0  0  0  0
   23.7191  -21.5331  -11.4173 C   0  0  0  0  0  0  0  0  0  0  0  0
   22.5905  -21.0337  -12.2611 C   0  0  0  0  0  0  0  0  0  0  0  0
   22.6414  -19.8946  -13.0389 C   0  0  0  0  0  0  0  0  0  0  0  0
   21.4424  -19.7778  -13.6445 N   0  0  0  0  0  0  0  0  0  0  0  0
   20.6480  -20.7860  -13.2834 C   0  0  0  0  0  0  0  0  0  0  0  0
   21.3654  -21.5530  -12.4313 N   0  0  0  0  0  0  0  0  0  0  0  0
   25.8856  -20.8146  -10.4533 C   0  0  0  0  0  0  0  0  0  0  0  0
   26.5729  -21.8550  -10.3079 O   0  0  0  0  0  0  0  0  0  0  0  0
   26.0480  -19.7815   -9.4977 N   0  0  0  0  0  0  0  0  0  0  0  0
   26.8280  -20.0529   -8.3104 C   0  0  1  0  0  0  0  0  0  0  0  0
   27.2373  -18.7309   -7.6966 C   0  0  0  0  0  0  0  0  0  0  0  0
   27.9706  -18.9602   -6.0522 S   0  0  0  0  0  0  0  0  0  0  0  0
   25.9671  -20.8355   -7.3863 C   0  0  0  0  0  0  0  0  0  0  0  0
   24.7262  -20.9114   -7.5184 O   0  0  0  0  0  0  0  0  0  0  0  0
   26.5490  -21.5158   -6.3284 O   0  0  0  0  0  0  0  0  0  0  0  0
  2  1  1  0
  2  4  1  0
  3  2  2  0
  5  4  1  0
  5  6  1  0
  6  8  1  0
  6  7  1  6
  8 10  1  0
  9  8  2  0
 10 11  1  0
 11 18  1  0
 11 12  1  1
 13 12  1  0
 13 14  2  0
 15 14  1  0
 16 17  2  0
 16 15  1  0
 17 13  1  0
 18 20  1  0
 19 18  2  0
 20 21  1  0
 21 24  1  0
 21 22  1  1
 22 23  1  0
 24 25  2  0
 24 26  1  0
M  END
$$$$
