QHC.pdb
     RDKit          3D

 26 26  0  0  1  0  0  0  0  0999 V2000
   19.1986  -20.2870  -14.7800 N   0  0  0  0  0  0  0  0  0  0  0  0
   19.4571  -21.6237  -14.3598 C   0  0  0  0  0  0  0  0  0  0  0  0
   18.9203  -21.9977  -13.3004 O   0  0  0  0  0  0  0  0  0  0  0  0
   20.3290  -22.4608  -15.1981 C   0  0  0  0  0  0  0  0  0  0  0  0
   20.8245  -21.6915  -16.3697 C   0  0  0  0  0  0  0  0  0  0  0  0
   22.2920  -21.4712  -16.2818 C   0  0  2  0  0  0  0  0  0  0  0  0
   22.7143  -21.1248  -14.9381 N   0  0  0  0  0  0  0  0  0  0  0  0
   22.6161  -20.3408  -17.2279 C   0  0  0  0  0  0  0  0  0  0  0  0
   22.3683  -20.5246  -18.4445 O   0  0  0  0  0  0  0  0  0  0  0  0
   23.1711  -19.1216  -16.8052 N   0  0  0  0  0  0  0  0  0  0  0  0
   23.5151  -18.1270  -17.8034 C   0  0  1  0  0  0  0  0  0  0  0  0
   22.6930  -16.8962  -17.5528 C   0  0  0  0  0  0  0  0  0  0  0  0
   21.2846  -17.1292  -17.9969 C   0  0  0  0  0  0  0  0  0  0  0  0
   20.2395  -17.4384  -17.1499 C   0  0  0  0  0  0  0  0  0  0  0  0
   19.1383  -17.5720  -17.9163 N   0  0  0  0  0  0  0  0  0  0  0  0
   19.4446  -17.3619  -19.1969 C   0  0  0  0  0  0  0  0  0  0  0  0
   20.7689  -17.0901  -19.2347 N   0  0  0  0  0  0  0  0  0  0  0  0
   24.9862  -17.8205  -17.7135 C   0  0  0  0  0  0  0  0  0  0  0  0
   25.6096  -17.8424  -16.6241 O   0  0  0  0  0  0  0  0  0  0  0  0
   25.7174  -17.4930  -18.8819 N   0  0  0  0  0  0  0  0  0  0  0  0
   27.1567  -17.3856  -18.7907 C   0  0  1  0  0  0  0  0  0  0  0  0
   27.7218  -18.7650  -18.5261 C   0  0  0  0  0  0  0  0  0  0  0  0
   29.5314  -18.7798  -18.6653 S   0  0  0  0  0  0  0  0  0  0  0  0
   27.6414  -16.8411  -20.0853 C   0  0  0  0  0  0  0  0  0  0  0  0
   27.0017  -16.9625  -21.1527 O   0  0  0  0  0  0  0  0  0  0  0  0
   28.8518  -16.1674  -20.1283 O   0  0  0  0  0  0  0  0  0  0  0  0
  2  1  1  0
  2  4  1  0
  3  2  2  0
  5  4  1  0
  5  6  1  0
  6  8  1  0
  6  7  1  1
  8 10  1  0
  9  8  2  0
 10 11  1  0
 11 18  1  0
 11 12  1  1
 13 12  1  0
 13 14  2  0
 15 14  1  0
 16 17  2  0
 16 15  1  0
 17 13  1  0
 18 20  1  0
 19 18  2  0
 20 21  1  0
 21 24  1  0
 21 22  1  6
 22 23  1  0
 24 25  2  0
 24 26  1  0
M  END
$$$$
