QHC.pdb
     RDKit          3D

 26 26  0  0  1  0  0  0  0  0999 V2000
   13.9266  -19.4411    2.2980 N   0  0  0  0  0  0  0  0  0  0  0  0
   12.8629  -18.5761    2.6856 C   0  0  0  0  0  0  0  0  0  0  0  0
   11.7071  -18.9332    2.3910 O   0  0  0  0  0  0  0  0  0  0  0  0
   13.1997  -17.3355    3.4007 C   0  0  0  0  0  0  0  0  0  0  0  0
   14.6728  -17.1980    3.5454 C   0  0  0  0  0  0  0  0  0  0  0  0
   15.0221  -15.9700    4.3068 C   0  0  2  0  0  0  0  0  0  0  0  0
   14.8044  -14.7640    3.5308 N   0  0  0  0  0  0  0  0  0  0  0  0
   16.4822  -16.0883    4.6705 C   0  0  0  0  0  0  0  0  0  0  0  0
   17.3132  -16.0059    3.7334 O   0  0  0  0  0  0  0  0  0  0  0  0
   16.9318  -16.2824    5.9870 N   0  0  0  0  0  0  0  0  0  0  0  0
   18.3587  -16.3718    6.2320 C   0  0  1  0  0  0  0  0  0  0  0  0
   18.7297  -15.3484    7.2657 C   0  0  0  0  0  0  0  0  0  0  0  0
   19.0455  -14.0477    6.5997 C   0  0  0  0  0  0  0  0  0  0  0  0
   18.9380  -13.8187    5.2428 C   0  0  0  0  0  0  0  0  0  0  0  0
   19.3067  -12.5395    5.0293 N   0  0  0  0  0  0  0  0  0  0  0  0
   19.6380  -11.9607    6.1839 C   0  0  0  0  0  0  0  0  0  0  0  0
   19.4734  -12.8988    7.1441 N   0  0  0  0  0  0  0  0  0  0  0  0
   18.6961  -17.7612    6.7032 C   0  0  0  0  0  0  0  0  0  0  0  0
   17.8363  -18.5252    7.2059 O   0  0  0  0  0  0  0  0  0  0  0  0
   20.0209  -18.2495    6.5876 N   0  0  0  0  0  0  0  0  0  0  0  0
   20.3031  -19.5975    7.0290 C   0  0  1  0  0  0  0  0  0  0  0  0
   20.9525  -20.3474    5.8853 C   0  0  0  0  0  0  0  0  0  0  0  0
   21.3439  -22.0579    6.3494 S   0  0  0  0  0  0  0  0  0  0  0  0
   21.2148  -19.4972    8.1978 C   0  0  0  0  0  0  0  0  0  0  0  0
   22.1531  -18.6729    8.2556 O   0  0  0  0  0  0  0  0  0  0  0  0
   21.0306  -20.3461    9.2777 O   0  0  0  0  0  0  0  0  0  0  0  0
  2  1  1  0
  2  4  1  0
  3  2  2  0
  5  4  1  0
  5  6  1  0
  6  8  1  0
  6  7  1  6
  8 10  1  0
  9  8  2  0
 10 11  1  0
 11 18  1  0
 11 12  1  1
 13 12  1  0
 13 14  2  0
 15 14  1  0
 16 17  2  0
 16 15  1  0
 17 13  1  0
 18 20  1  0
 19 18  2  0
 20 21  1  0
 21 24  1  0
 21 22  1  6
 22 23  1  0
 24 25  2  0
 24 26  1  0
M  END
$$$$
