YND.pdb
     RDKit          3D

 29 29  0  0  1  0  0  0  0  0999 V2000
    5.8460  -11.1904   28.4286 O   0  0  0  0  0  0  0  0  0  0  0  0
    6.4354  -11.9849   27.4681 C   0  0  0  0  0  0  0  0  0  0  0  0
    6.9340  -13.2304   27.7709 C   0  0  0  0  0  0  0  0  0  0  0  0
    7.5264  -14.0453   26.8359 C   0  0  0  0  0  0  0  0  0  0  0  0
    7.6439  -13.6237   25.5171 C   0  0  0  0  0  0  0  0  0  0  0  0
    8.2916  -14.5246   24.5514 C   0  0  0  0  0  0  0  0  0  0  0  0
    7.2458  -15.2229   23.6671 C   0  0  2  0  0  0  0  0  0  0  0  0
    6.5077  -16.1717   24.4636 N   0  0  0  0  0  0  0  0  0  0  0  0
    7.9820  -15.7928   22.5401 C   0  0  0  0  0  0  0  0  0  0  0  0
    8.1324  -17.0564   22.5528 O   0  0  0  0  0  0  0  0  0  0  0  0
    7.1463  -12.3788   25.2099 C   0  0  0  0  0  0  0  0  0  0  0  0
    6.5527  -11.5617   26.1446 C   0  0  0  0  0  0  0  0  0  0  0  0
    7.9313  -12.7903   19.0574 N   0  0  0  0  0  0  0  0  0  0  0  0
    7.8667  -14.2109   18.9308 C   0  0  0  0  0  0  0  0  0  0  0  0
    6.7849  -14.7850   18.6930 O   0  0  0  0  0  0  0  0  0  0  0  0
    9.1336  -14.9590   19.0930 C   0  0  0  0  0  0  0  0  0  0  0  0
    9.1513  -15.7751   20.3846 C   0  0  2  0  0  0  0  0  0  0  0  0
    8.5274  -15.0506   21.4583 N   0  0  0  0  0  0  0  0  0  0  0  0
   10.5305  -16.1705   20.6576 C   0  0  0  0  0  0  0  0  0  0  0  0
   11.4288  -16.2106   19.7833 O   0  0  0  0  0  0  0  0  0  0  0  0
   10.9053  -16.5367   21.9806 N   0  0  0  0  0  0  0  0  0  0  0  0
   12.2529  -16.9908   22.2979 C   0  0  1  0  0  0  0  0  0  0  0  0
   13.2461  -15.8852   21.9472 C   0  0  0  0  0  0  0  0  0  0  0  0
   14.6018  -16.4033   22.2260 C   0  0  0  0  0  0  0  0  0  0  0  0
   14.7977  -17.6025   22.5590 O   0  0  0  0  0  0  0  0  0  0  0  0
   12.3583  -17.2525   23.7466 C   0  0  0  0  0  0  0  0  0  0  0  0
   13.4344  -17.6725   24.2275 O   0  0  0  0  0  0  0  0  0  0  0  0
   15.7500  -15.6165   22.1427 O   0  0  0  0  0  0  0  0  0  0  0  0
   11.3002  -17.0510   24.6207 O   0  0  0  0  0  0  0  0  0  0  0  0
  2  1  1  0
  3  2  2  0
  4  3  1  0
  5 11  1  0
  5  4  2  0
  6  5  1  0
  7  6  1  0
  7  8  1  1
  9 18  1  0
  9  7  1  0
 10  9  2  0
 11 12  2  0
 12  2  1  0
 13 14  1  0
 14 15  2  0
 16 14  1  0
 17 16  1  6
 17 18  1  0
 19 21  1  0
 19 17  1  0
 20 19  2  0
 22 21  1  0
 22 26  1  0
 23 24  1  0
 22 23  1  1
 24 25  2  0
 26 29  1  0
 27 26  2  0
 28 24  1  0
M  END
$$$$
