YND.pdb
     RDKit          3D

 29 29  0  0  1  0  0  0  0  0999 V2000
    7.4993  -13.3826   14.6157 O   0  0  0  0  0  0  0  0  0  0  0  0
    8.0579  -13.9126   15.7594 C   0  0  0  0  0  0  0  0  0  0  0  0
    8.4849  -15.2189   15.8133 C   0  0  0  0  0  0  0  0  0  0  0  0
    9.0455  -15.7756   16.9379 C   0  0  0  0  0  0  0  0  0  0  0  0
    9.2026  -15.0139   18.0895 C   0  0  0  0  0  0  0  0  0  0  0  0
    9.8002  -15.6522   19.2723 C   0  0  0  0  0  0  0  0  0  0  0  0
   10.7514  -14.6845   19.9951 C   0  0  2  0  0  0  0  0  0  0  0  0
   12.0080  -14.6381   19.2893 N   0  0  0  0  0  0  0  0  0  0  0  0
   10.8293  -15.1493   21.3789 C   0  0  0  0  0  0  0  0  0  0  0  0
   11.9909  -15.1644   21.8984 O   0  0  0  0  0  0  0  0  0  0  0  0
    8.7771  -13.7069   18.0399 C   0  0  0  0  0  0  0  0  0  0  0  0
    8.2158  -13.1478   16.9147 C   0  0  0  0  0  0  0  0  0  0  0  0
    7.2282  -13.8171   23.6393 N   0  0  0  0  0  0  0  0  0  0  0  0
    8.3824  -14.1986   24.3881 C   0  0  0  0  0  0  0  0  0  0  0  0
    9.0566  -13.3489   25.0045 O   0  0  0  0  0  0  0  0  0  0  0  0
    8.7336  -15.6364   24.3968 C   0  0  0  0  0  0  0  0  0  0  0  0
    9.9628  -15.9273   23.5370 C   0  0  2  0  0  0  0  0  0  0  0  0
    9.7241  -15.5743   22.1639 N   0  0  0  0  0  0  0  0  0  0  0  0
   10.3394  -17.3246   23.7342 C   0  0  0  0  0  0  0  0  0  0  0  0
    9.6335  -18.2939   23.3665 O   0  0  0  0  0  0  0  0  0  0  0  0
   11.5705  -17.6340   24.3772 N   0  0  0  0  0  0  0  0  0  0  0  0
   11.9724  -19.0091   24.6427 C   0  0  1  0  0  0  0  0  0  0  0  0
   13.4959  -19.1006   24.5947 C   0  0  0  0  0  0  0  0  0  0  0  0
   13.8602  -20.5207   24.7808 C   0  0  0  0  0  0  0  0  0  0  0  0
   13.0108  -21.4438   24.6635 O   0  0  0  0  0  0  0  0  0  0  0  0
   11.5370  -19.3987   25.9981 C   0  0  0  0  0  0  0  0  0  0  0  0
   11.2894  -18.5171   26.8507 O   0  0  0  0  0  0  0  0  0  0  0  0
   15.1521  -20.9407   25.0953 O   0  0  0  0  0  0  0  0  0  0  0  0
   11.3850  -20.7231   26.3817 O   0  0  0  0  0  0  0  0  0  0  0  0
  2  1  1  0
  3  2  2  0
  4  3  1  0
  5 11  1  0
  5  4  2  0
  6  5  1  0
  7  6  1  0
  7  8  1  6
  9 18  1  0
  9  7  1  0
 10  9  2  0
 11 12  2  0
 12  2  1  0
 13 14  1  0
 14 15  2  0
 16 14  1  0
 17 16  1  1
 17 18  1  0
 19 21  1  0
 19 17  1  0
 20 19  2  0
 22 21  1  0
 22 26  1  0
 23 24  1  0
 22 23  1  1
 24 25  2  0
 26 29  1  0
 27 26  2  0
 28 24  1  0
M  END
$$$$
