YND.pdb
     RDKit          3D

 29 29  0  0  1  0  0  0  0  0999 V2000
    7.6088  -12.5835   17.3880 O   0  0  0  0  0  0  0  0  0  0  0  0
    7.6220  -13.0425   18.6882 C   0  0  0  0  0  0  0  0  0  0  0  0
    8.7939  -13.3982   19.3141 C   0  0  0  0  0  0  0  0  0  0  0  0
    8.8394  -13.8586   20.6084 C   0  0  0  0  0  0  0  0  0  0  0  0
    7.6686  -13.9832   21.3463 C   0  0  0  0  0  0  0  0  0  0  0  0
    7.7628  -14.4872   22.7250 C   0  0  0  0  0  0  0  0  0  0  0  0
    8.9772  -15.4159   22.8869 C   0  0  2  0  0  0  0  0  0  0  0  0
    8.9511  -16.4170   21.8494 N   0  0  0  0  0  0  0  0  0  0  0  0
    8.9152  -15.9313   24.2535 C   0  0  0  0  0  0  0  0  0  0  0  0
    8.1316  -15.3180   25.0466 O   0  0  0  0  0  0  0  0  0  0  0  0
    6.4943  -13.6284   20.7242 C   0  0  0  0  0  0  0  0  0  0  0  0
    6.4468  -13.1670   19.4285 C   0  0  0  0  0  0  0  0  0  0  0  0
    6.7186  -18.5961   27.6426 N   0  0  0  0  0  0  0  0  0  0  0  0
    7.0919  -19.2231   26.4155 C   0  0  0  0  0  0  0  0  0  0  0  0
    6.9146  -20.4455   26.2401 O   0  0  0  0  0  0  0  0  0  0  0  0
    7.6918  -18.3593   25.3739 C   0  0  0  0  0  0  0  0  0  0  0  0
    9.0659  -17.8365   25.7901 C   0  0  2  0  0  0  0  0  0  0  0  0
    9.6516  -17.0428   24.7441 N   0  0  0  0  0  0  0  0  0  0  0  0
    9.8838  -18.9747   26.2008 C   0  0  0  0  0  0  0  0  0  0  0  0
    9.6283  -19.6911   27.1981 O   0  0  0  0  0  0  0  0  0  0  0  0
   11.0420  -19.3132   25.4466 N   0  0  0  0  0  0  0  0  0  0  0  0
   12.3784  -18.9246   25.8778 C   0  0  1  0  0  0  0  0  0  0  0  0
   12.6797  -17.5201   25.3598 C   0  0  0  0  0  0  0  0  0  0  0  0
   13.8756  -17.6138   24.4966 C   0  0  0  0  0  0  0  0  0  0  0  0
   13.9610  -18.4658   23.5724 O   0  0  0  0  0  0  0  0  0  0  0  0
   12.4304  -18.8851   27.3523 C   0  0  0  0  0  0  0  0  0  0  0  0
   11.5160  -18.3207   27.9934 O   0  0  0  0  0  0  0  0  0  0  0  0
   14.9836  -16.7789   24.6370 O   0  0  0  0  0  0  0  0  0  0  0  0
   13.4654  -19.4558   28.0785 O   0  0  0  0  0  0  0  0  0  0  0  0
  2  1  1  0
  3  2  2  0
  4  3  1  0
  5 11  1  0
  5  4  2  0
  6  5  1  0
  7  6  1  0
  7  8  1  6
  9 18  1  0
  9  7  1  0
 10  9  2  0
 11 12  2  0
 12  2  1  0
 13 14  1  0
 14 15  2  0
 16 14  1  0
 17 16  1  6
 17 18  1  0
 19 21  1  0
 19 17  1  0
 20 19  2  0
 22 21  1  0
 22 26  1  0
 23 24  1  0
 22 23  1  6
 24 25  2  0
 26 29  1  0
 27 26  2  0
 28 24  1  0
M  END
$$$$
