YND.pdb
     RDKit          3D

 29 29  0  0  1  0  0  0  0  0999 V2000
    7.9668  -12.4835   17.9236 O   0  0  0  0  0  0  0  0  0  0  0  0
    7.8809  -13.0066   19.1964 C   0  0  0  0  0  0  0  0  0  0  0  0
    6.9017  -13.9097   19.5389 C   0  0  0  0  0  0  0  0  0  0  0  0
    6.7904  -14.4487   20.7984 C   0  0  0  0  0  0  0  0  0  0  0  0
    7.6896  -14.0872   21.7942 C   0  0  0  0  0  0  0  0  0  0  0  0
    7.5287  -14.6826   23.1296 C   0  0  0  0  0  0  0  0  0  0  0  0
    8.7387  -15.5610   23.4871 C   0  0  2  0  0  0  0  0  0  0  0  0
    9.1915  -16.2498   22.3040 N   0  0  0  0  0  0  0  0  0  0  0  0
    8.3042  -16.4239   24.5842 C   0  0  0  0  0  0  0  0  0  0  0  0
    7.8390  -15.8317   25.6100 O   0  0  0  0  0  0  0  0  0  0  0  0
    8.6706  -13.1844   21.4559 C   0  0  0  0  0  0  0  0  0  0  0  0
    8.7837  -12.6439   20.1954 C   0  0  0  0  0  0  0  0  0  0  0  0
    5.3617  -20.1141   27.1640 N   0  0  0  0  0  0  0  0  0  0  0  0
    6.6179  -20.4878   26.5978 C   0  0  0  0  0  0  0  0  0  0  0  0
    7.3011  -21.4028   27.1004 O   0  0  0  0  0  0  0  0  0  0  0  0
    7.0627  -19.7442   25.3978 C   0  0  0  0  0  0  0  0  0  0  0  0
    7.9318  -18.5417   25.7631 C   0  0  2  0  0  0  0  0  0  0  0  0
    8.3642  -17.8434   24.5831 N   0  0  0  0  0  0  0  0  0  0  0  0
    9.0254  -19.0079   26.6115 C   0  0  0  0  0  0  0  0  0  0  0  0
    8.8558  -19.6595   27.6697 O   0  0  0  0  0  0  0  0  0  0  0  0
   10.3694  -18.7211   26.2423 N   0  0  0  0  0  0  0  0  0  0  0  0
   11.5006  -19.2721   26.9770 C   0  0  1  0  0  0  0  0  0  0  0  0
   12.7963  -18.7455   26.3641 C   0  0  0  0  0  0  0  0  0  0  0  0
   12.6123  -18.7155   24.8981 C   0  0  0  0  0  0  0  0  0  0  0  0
   12.8453  -17.6784   24.2218 O   0  0  0  0  0  0  0  0  0  0  0  0
   11.4461  -18.8197   28.3809 C   0  0  0  0  0  0  0  0  0  0  0  0
   10.5321  -18.0505   28.7529 O   0  0  0  0  0  0  0  0  0  0  0  0
   12.1737  -19.8161   24.1628 O   0  0  0  0  0  0  0  0  0  0  0  0
   12.3786  -19.2142   29.3292 O   0  0  0  0  0  0  0  0  0  0  0  0
  2  1  1  0
  3  2  2  0
  4  3  1  0
  5 11  1  0
  5  4  2  0
  6  5  1  0
  7  6  1  0
  7  8  1  6
  9 18  1  0
  9  7  1  0
 10  9  2  0
 11 12  2  0
 12  2  1  0
 13 14  1  0
 14 15  2  0
 16 14  1  0
 17 16  1  6
 17 18  1  0
 19 21  1  0
 19 17  1  0
 20 19  2  0
 22 21  1  0
 22 26  1  0
 23 24  1  0
 22 23  1  6
 24 25  2  0
 26 29  1  0
 27 26  2  0
 28 24  1  0
M  END
$$$$
