YND.pdb
     RDKit          3D

 29 29  0  0  1  0  0  0  0  0999 V2000
    8.3312  -11.3986   22.4206 O   0  0  0  0  0  0  0  0  0  0  0  0
    8.3334  -12.3289   21.4029 C   0  0  0  0  0  0  0  0  0  0  0  0
    8.1038  -13.6629   21.6467 C   0  0  0  0  0  0  0  0  0  0  0  0
    8.0994  -14.6135   20.6539 C   0  0  0  0  0  0  0  0  0  0  0  0
    8.3340  -14.2458   19.3346 C   0  0  0  0  0  0  0  0  0  0  0  0
    8.3277  -15.2968   18.3055 C   0  0  0  0  0  0  0  0  0  0  0  0
    9.0285  -16.5667   18.8151 C   0  0  2  0  0  0  0  0  0  0  0  0
    8.5759  -16.8542   20.1537 N   0  0  0  0  0  0  0  0  0  0  0  0
   10.4632  -16.3208   18.6805 C   0  0  0  0  0  0  0  0  0  0  0  0
   10.8861  -16.1146   17.4981 O   0  0  0  0  0  0  0  0  0  0  0  0
    8.5639  -12.9126   19.0864 C   0  0  0  0  0  0  0  0  0  0  0  0
    8.5684  -11.9595   20.0790 C   0  0  0  0  0  0  0  0  0  0  0  0
   14.7135  -15.1829   16.9901 N   0  0  0  0  0  0  0  0  0  0  0  0
   14.3142  -14.5284   18.1944 C   0  0  0  0  0  0  0  0  0  0  0  0
   15.1127  -13.8096   18.8287 O   0  0  0  0  0  0  0  0  0  0  0  0
   12.9211  -14.7424   18.6463 C   0  0  0  0  0  0  0  0  0  0  0  0
   12.7749  -16.0351   19.4476 C   0  0  2  0  0  0  0  0  0  0  0  0
   11.3945  -16.2964   19.7532 N   0  0  0  0  0  0  0  0  0  0  0  0
   13.6367  -15.9450   20.6234 C   0  0  0  0  0  0  0  0  0  0  0  0
   14.2590  -14.9068   20.9519 O   0  0  0  0  0  0  0  0  0  0  0  0
   13.7990  -17.0834   21.4616 N   0  0  0  0  0  0  0  0  0  0  0  0
   14.6896  -17.0658   22.6146 C   0  0  1  0  0  0  0  0  0  0  0  0
   14.5573  -18.3886   23.3659 C   0  0  0  0  0  0  0  0  0  0  0  0
   13.2350  -18.3926   24.0259 C   0  0  0  0  0  0  0  0  0  0  0  0
   12.5047  -17.3663   24.0532 O   0  0  0  0  0  0  0  0  0  0  0  0
   16.0876  -16.9413   22.1578 C   0  0  0  0  0  0  0  0  0  0  0  0
   16.4628  -17.5445   21.1278 O   0  0  0  0  0  0  0  0  0  0  0  0
   12.7029  -19.5154   24.6587 O   0  0  0  0  0  0  0  0  0  0  0  0
   17.0265  -16.1714   22.8287 O   0  0  0  0  0  0  0  0  0  0  0  0
  2  1  1  0
  3  2  2  0
  4  3  1  0
  5 11  1  0
  5  4  2  0
  6  5  1  0
  7  6  1  0
  7  8  1  1
  9 18  1  0
  9  7  1  0
 10  9  2  0
 11 12  2  0
 12  2  1  0
 13 14  1  0
 14 15  2  0
 16 14  1  0
 17 16  1  1
 17 18  1  0
 19 21  1  0
 19 17  1  0
 20 19  2  0
 22 21  1  0
 22 26  1  0
 23 24  1  0
 22 23  1  6
 24 25  2  0
 26 29  1  0
 27 26  2  0
 28 24  1  0
M  END
$$$$
