YND.pdb
     RDKit          3D

 29 29  0  0  1  0  0  0  0  0999 V2000
    6.3661  -13.9055   16.5235 O   0  0  0  0  0  0  0  0  0  0  0  0
    7.3893  -13.6663   17.4163 C   0  0  0  0  0  0  0  0  0  0  0  0
    7.1568  -13.5695   18.7684 C   0  0  0  0  0  0  0  0  0  0  0  0
    8.1552  -13.3321   19.6827 C   0  0  0  0  0  0  0  0  0  0  0  0
    9.4689  -13.1775   19.2571 C   0  0  0  0  0  0  0  0  0  0  0  0
   10.5043  -12.9173   20.2690 C   0  0  0  0  0  0  0  0  0  0  0  0
   11.5974  -13.9974   20.2246 C   0  0  2  0  0  0  0  0  0  0  0  0
   12.0795  -14.1298   18.8720 N   0  0  0  0  0  0  0  0  0  0  0  0
   11.0003  -15.2034   20.7955 C   0  0  0  0  0  0  0  0  0  0  0  0
   10.2024  -15.8436   20.0387 O   0  0  0  0  0  0  0  0  0  0  0  0
    9.7059  -13.2737   17.9057 C   0  0  0  0  0  0  0  0  0  0  0  0
    8.7076  -13.5116   16.9888 C   0  0  0  0  0  0  0  0  0  0  0  0
    9.4952  -17.4608   20.0966 N   0  0  0  0  0  0  0  0  0  0  0  0
   10.7158  -18.1921   20.2128 C   0  0  0  0  0  0  0  0  0  0  0  0
   11.1209  -18.9159   19.2809 O   0  0  0  0  0  0  0  0  0  0  0  0
   11.4679  -18.0488   21.4796 C   0  0  0  0  0  0  0  0  0  0  0  0
   10.8156  -17.0337   22.4170 C   0  0  2  0  0  0  0  0  0  0  0  0
   11.2443  -15.6973   22.1051 N   0  0  0  0  0  0  0  0  0  0  0  0
   11.0894  -17.4393   23.7932 C   0  0  0  0  0  0  0  0  0  0  0  0
   11.1983  -16.6328   24.7475 O   0  0  0  0  0  0  0  0  0  0  0  0
   11.2468  -18.8202   24.0981 N   0  0  0  0  0  0  0  0  0  0  0  0
   12.3906  -19.3129   24.8543 C   0  0  1  0  0  0  0  0  0  0  0  0
   13.5524  -18.3351   24.6931 C   0  0  0  0  0  0  0  0  0  0  0  0
   14.7877  -19.1345   24.5541 C   0  0  0  0  0  0  0  0  0  0  0  0
   14.7638  -20.3940   24.5375 O   0  0  0  0  0  0  0  0  0  0  0  0
   12.0458  -19.3753   26.2881 C   0  0  0  0  0  0  0  0  0  0  0  0
   12.8123  -19.9558   27.0888 O   0  0  0  0  0  0  0  0  0  0  0  0
   16.0542  -18.5642   24.4322 O   0  0  0  0  0  0  0  0  0  0  0  0
   10.8887  -18.8094   26.8031 O   0  0  0  0  0  0  0  0  0  0  0  0
  2  1  1  0
  3  2  2  0
  4  3  1  0
  5 11  1  0
  5  4  2  0
  6  5  1  0
  7  6  1  0
  7  8  1  6
  9 18  1  0
  9  7  1  0
 10  9  2  0
 11 12  2  0
 12  2  1  0
 13 14  1  0
 14 15  2  0
 16 14  1  0
 17 16  1  6
 17 18  1  0
 19 21  1  0
 19 17  1  0
 20 19  2  0
 22 21  1  0
 22 26  1  0
 23 24  1  0
 22 23  1  1
 24 25  2  0
 26 29  1  0
 27 26  2  0
 28 24  1  0
M  END
$$$$
