YND.pdb
     RDKit          3D

 29 29  0  0  1  0  0  0  0  0999 V2000
   16.3549  -13.3340    7.9982 O   0  0  0  0  0  0  0  0  0  0  0  0
   16.4312  -13.4132    9.3727 C   0  0  0  0  0  0  0  0  0  0  0  0
   17.3142  -12.6406   10.0903 C   0  0  0  0  0  0  0  0  0  0  0  0
   17.4134  -12.6968   11.4600 C   0  0  0  0  0  0  0  0  0  0  0  0
   16.6013  -13.5614   12.1836 C   0  0  0  0  0  0  0  0  0  0  0  0
   16.7463  -13.5945   13.6470 C   0  0  0  0  0  0  0  0  0  0  0  0
   15.4796  -13.0604   14.3352 C   0  0  2  0  0  0  0  0  0  0  0  0
   15.3717  -11.6423   14.0970 N   0  0  0  0  0  0  0  0  0  0  0  0
   15.5848  -13.4513   15.7399 C   0  0  0  0  0  0  0  0  0  0  0  0
   16.2786  -12.6852   16.4823 O   0  0  0  0  0  0  0  0  0  0  0  0
   15.7165  -14.3357   11.4699 C   0  0  0  0  0  0  0  0  0  0  0  0
   15.6156  -14.2807   10.0985 C   0  0  0  0  0  0  0  0  0  0  0  0
   12.9690  -13.3782   18.2750 N   0  0  0  0  0  0  0  0  0  0  0  0
   12.8174  -14.7780   18.5114 C   0  0  0  0  0  0  0  0  0  0  0  0
   11.7202  -15.2531   18.8675 O   0  0  0  0  0  0  0  0  0  0  0  0
   14.0136  -15.6269   18.3135 C   0  0  0  0  0  0  0  0  0  0  0  0
   15.1804  -14.8374   17.7220 C   0  0  2  0  0  0  0  0  0  0  0  0
   14.9801  -14.5994   16.3183 N   0  0  0  0  0  0  0  0  0  0  0  0
   16.4183  -15.5473   18.0333 C   0  0  0  0  0  0  0  0  0  0  0  0
   17.2704  -15.8707   17.1716 O   0  0  0  0  0  0  0  0  0  0  0  0
   16.7001  -15.9056   19.3812 N   0  0  0  0  0  0  0  0  0  0  0  0
   18.0660  -16.0037   19.8790 C   0  0  1  0  0  0  0  0  0  0  0  0
   18.7316  -14.6330   19.7799 C   0  0  0  0  0  0  0  0  0  0  0  0
   20.1479  -14.7995   20.1679 C   0  0  0  0  0  0  0  0  0  0  0  0
   20.6324  -15.9306   20.4386 O   0  0  0  0  0  0  0  0  0  0  0  0
   18.0469  -16.3970   21.3015 C   0  0  0  0  0  0  0  0  0  0  0  0
   17.3228  -15.7750   22.1105 O   0  0  0  0  0  0  0  0  0  0  0  0
   21.0422  -13.7339   20.2622 O   0  0  0  0  0  0  0  0  0  0  0  0
   18.8085  -17.4454   21.7966 O   0  0  0  0  0  0  0  0  0  0  0  0
  2  1  1  0
  3  2  2  0
  4  3  1  0
  5 11  1  0
  5  4  2  0
  6  5  1  0
  7  6  1  0
  7  8  1  1
  9 18  1  0
  9  7  1  0
 10  9  2  0
 11 12  2  0
 12  2  1  0
 13 14  1  0
 14 15  2  0
 16 14  1  0
 17 16  1  6
 17 18  1  0
 19 21  1  0
 19 17  1  0
 20 19  2  0
 22 21  1  0
 22 26  1  0
 23 24  1  0
 22 23  1  1
 24 25  2  0
 26 29  1  0
 27 26  2  0
 28 24  1  0
M  END
$$$$
