YND.pdb
     RDKit          3D

 29 29  0  0  1  0  0  0  0  0999 V2000
    6.0988  -12.6222   19.9651 O   0  0  0  0  0  0  0  0  0  0  0  0
    7.4248  -12.9956   19.9069 C   0  0  0  0  0  0  0  0  0  0  0  0
    8.0296  -13.6674   20.9435 C   0  0  0  0  0  0  0  0  0  0  0  0
    9.3486  -14.0529   20.9149 C   0  0  0  0  0  0  0  0  0  0  0  0
   10.1353  -13.7673   19.8058 C   0  0  0  0  0  0  0  0  0  0  0  0
   11.5436  -14.1916   19.8210 C   0  0  0  0  0  0  0  0  0  0  0  0
   12.0047  -14.6107   18.4156 C   0  0  2  0  0  0  0  0  0  0  0  0
   11.0560  -15.5461   17.8639 N   0  0  0  0  0  0  0  0  0  0  0  0
   13.3662  -15.1200   18.5697 C   0  0  0  0  0  0  0  0  0  0  0  0
   13.4764  -16.3755   18.7451 O   0  0  0  0  0  0  0  0  0  0  0  0
    9.5343  -13.0957   18.7667 C   0  0  0  0  0  0  0  0  0  0  0  0
    8.2139  -12.7092   18.7934 C   0  0  0  0  0  0  0  0  0  0  0  0
   16.7976  -12.4815   16.4215 N   0  0  0  0  0  0  0  0  0  0  0  0
   16.8543  -13.8509   16.8212 C   0  0  0  0  0  0  0  0  0  0  0  0
   16.8118  -14.7679   15.9763 O   0  0  0  0  0  0  0  0  0  0  0  0
   16.9660  -14.1243   18.2716 C   0  0  0  0  0  0  0  0  0  0  0  0
   15.8052  -14.9773   18.7811 C   0  0  2  0  0  0  0  0  0  0  0  0
   14.5456  -14.3284   18.5374 N   0  0  0  0  0  0  0  0  0  0  0  0
   16.0497  -15.2909   20.1864 C   0  0  0  0  0  0  0  0  0  0  0  0
   16.1452  -14.4228   21.0866 O   0  0  0  0  0  0  0  0  0  0  0  0
   16.1924  -16.6490   20.5863 N   0  0  0  0  0  0  0  0  0  0  0  0
   16.2569  -17.0321   21.9906 C   0  0  1  0  0  0  0  0  0  0  0  0
   14.9333  -16.6779   22.6645 C   0  0  0  0  0  0  0  0  0  0  0  0
   15.0890  -16.9393   24.1108 C   0  0  0  0  0  0  0  0  0  0  0  0
   14.1004  -16.9555   24.8916 O   0  0  0  0  0  0  0  0  0  0  0  0
   16.4435  -18.4924   22.0968 C   0  0  0  0  0  0  0  0  0  0  0  0
   15.8446  -19.2564   21.3074 O   0  0  0  0  0  0  0  0  0  0  0  0
   16.3230  -17.1843   24.7119 O   0  0  0  0  0  0  0  0  0  0  0  0
   17.2685  -19.0724   23.0494 O   0  0  0  0  0  0  0  0  0  0  0  0
  2  1  1  0
  3  2  2  0
  4  3  1  0
  5 11  1  0
  5  4  2  0
  6  5  1  0
  7  6  1  0
  7  8  1  1
  9 18  1  0
  9  7  1  0
 10  9  2  0
 11 12  2  0
 12  2  1  0
 13 14  1  0
 14 15  2  0
 16 14  1  0
 17 16  1  1
 17 18  1  0
 19 21  1  0
 19 17  1  0
 20 19  2  0
 22 21  1  0
 22 26  1  0
 23 24  1  0
 22 23  1  1
 24 25  2  0
 26 29  1  0
 27 26  2  0
 28 24  1  0
M  END
$$$$
