YND.pdb
     RDKit          3D

 29 29  0  0  1  0  0  0  0  0999 V2000
    8.6287  -11.9017   17.6748 O   0  0  0  0  0  0  0  0  0  0  0  0
    8.3398  -12.5748   18.8430 C   0  0  0  0  0  0  0  0  0  0  0  0
    9.2577  -12.6740   19.8624 C   0  0  0  0  0  0  0  0  0  0  0  0
    8.9994  -13.3375   21.0381 C   0  0  0  0  0  0  0  0  0  0  0  0
    7.7669  -13.9470   21.2391 C   0  0  0  0  0  0  0  0  0  0  0  0
    7.5362  -14.6527   22.5089 C   0  0  0  0  0  0  0  0  0  0  0  0
    8.3083  -15.9815   22.5453 C   0  0  2  0  0  0  0  0  0  0  0  0
    8.0345  -16.7230   21.3392 N   0  0  0  0  0  0  0  0  0  0  0  0
    7.9175  -16.6446   23.7881 C   0  0  0  0  0  0  0  0  0  0  0  0
    6.7622  -16.3553   24.2361 O   0  0  0  0  0  0  0  0  0  0  0  0
    6.8459  -13.8500   20.2222 C   0  0  0  0  0  0  0  0  0  0  0  0
    7.1027  -13.1859   19.0446 C   0  0  0  0  0  0  0  0  0  0  0  0
    5.4937  -18.1895   24.5270 N   0  0  0  0  0  0  0  0  0  0  0  0
    6.0393  -19.2276   23.7130 C   0  0  0  0  0  0  0  0  0  0  0  0
    5.3403  -19.8045   22.8556 O   0  0  0  0  0  0  0  0  0  0  0  0
    7.4598  -19.5798   23.9344 C   0  0  0  0  0  0  0  0  0  0  0  0
    8.0870  -18.7419   25.0476 C   0  0  2  0  0  0  0  0  0  0  0  0
    8.7197  -17.5673   24.5117 N   0  0  0  0  0  0  0  0  0  0  0  0
    8.9834  -19.6005   25.8174 C   0  0  0  0  0  0  0  0  0  0  0  0
    9.4683  -20.6709   25.3789 O   0  0  0  0  0  0  0  0  0  0  0  0
    9.3439  -19.2275   27.1423 N   0  0  0  0  0  0  0  0  0  0  0  0
   10.7260  -19.2702   27.6017 C   0  0  1  0  0  0  0  0  0  0  0  0
   11.5402  -18.2365   26.8271 C   0  0  0  0  0  0  0  0  0  0  0  0
   12.3901  -18.9715   25.8670 C   0  0  0  0  0  0  0  0  0  0  0  0
   12.5106  -18.6003   24.6691 O   0  0  0  0  0  0  0  0  0  0  0  0
   10.7827  -18.9128   29.0327 C   0  0  0  0  0  0  0  0  0  0  0  0
   11.8724  -18.9649   29.6454 O   0  0  0  0  0  0  0  0  0  0  0  0
   13.1124  -20.1141   26.2087 O   0  0  0  0  0  0  0  0  0  0  0  0
    9.6631  -18.5129   29.7474 O   0  0  0  0  0  0  0  0  0  0  0  0
  2  1  1  0
  3  2  2  0
  4  3  1  0
  5 11  1  0
  5  4  2  0
  6  5  1  0
  7  6  1  0
  7  8  1  6
  9 18  1  0
  9  7  1  0
 10  9  2  0
 11 12  2  0
 12  2  1  0
 13 14  1  0
 14 15  2  0
 16 14  1  0
 17 16  1  6
 17 18  1  0
 19 21  1  0
 19 17  1  0
 20 19  2  0
 22 21  1  0
 22 26  1  0
 23 24  1  0
 22 23  1  6
 24 25  2  0
 26 29  1  0
 27 26  2  0
 28 24  1  0
M  END
$$$$
