YND.pdb
     RDKit          3D

 29 29  0  0  1  0  0  0  0  0999 V2000
    8.9325  -12.2138   18.0333 O   0  0  0  0  0  0  0  0  0  0  0  0
    8.3952  -12.8882   19.1093 C   0  0  0  0  0  0  0  0  0  0  0  0
    8.3402  -12.3199   20.3605 C   0  0  0  0  0  0  0  0  0  0  0  0
    7.8108  -12.9664   21.4517 C   0  0  0  0  0  0  0  0  0  0  0  0
    7.3002  -14.2521   21.3213 C   0  0  0  0  0  0  0  0  0  0  0  0
    6.7504  -14.9094   22.5169 C   0  0  0  0  0  0  0  0  0  0  0  0
    7.8500  -15.6641   23.2816 C   0  0  2  0  0  0  0  0  0  0  0  0
    8.6566  -16.4059   22.3444 N   0  0  0  0  0  0  0  0  0  0  0  0
    7.1637  -16.4702   24.2896 C   0  0  0  0  0  0  0  0  0  0  0  0
    5.9011  -16.3262   24.3551 O   0  0  0  0  0  0  0  0  0  0  0  0
    7.3531  -14.8242   20.0716 C   0  0  0  0  0  0  0  0  0  0  0  0
    7.8825  -14.1783   18.9778 C   0  0  0  0  0  0  0  0  0  0  0  0
    5.2422  -18.9773   23.4815 N   0  0  0  0  0  0  0  0  0  0  0  0
    6.4938  -19.2635   22.8571 C   0  0  0  0  0  0  0  0  0  0  0  0
    6.5716  -19.4296   21.6230 O   0  0  0  0  0  0  0  0  0  0  0  0
    7.6804  -19.3508   23.7375 C   0  0  0  0  0  0  0  0  0  0  0  0
    7.4065  -18.7642   25.1216 C   0  0  2  0  0  0  0  0  0  0  0  0
    7.7946  -17.3811   25.1789 N   0  0  0  0  0  0  0  0  0  0  0  0
    8.0658  -19.6077   26.1151 C   0  0  0  0  0  0  0  0  0  0  0  0
    7.8903  -20.8465   26.2026 O   0  0  0  0  0  0  0  0  0  0  0  0
    8.9625  -19.0186   27.0498 N   0  0  0  0  0  0  0  0  0  0  0  0
   10.3306  -19.4951   27.2049 C   0  0  1  0  0  0  0  0  0  0  0  0
   10.9366  -19.7272   25.8226 C   0  0  0  0  0  0  0  0  0  0  0  0
   12.3440  -20.1334   26.0188 C   0  0  0  0  0  0  0  0  0  0  0  0
   12.7326  -20.6845   27.0830 O   0  0  0  0  0  0  0  0  0  0  0  0
   11.1385  -18.4655   27.8873 C   0  0  0  0  0  0  0  0  0  0  0  0
   12.3124  -18.7237   28.2352 O   0  0  0  0  0  0  0  0  0  0  0  0
   13.3336  -19.9410   25.0556 O   0  0  0  0  0  0  0  0  0  0  0  0
   10.6501  -17.1979   28.1680 O   0  0  0  0  0  0  0  0  0  0  0  0
  2  1  1  0
  3  2  2  0
  4  3  1  0
  5 11  1  0
  5  4  2  0
  6  5  1  0
  7  6  1  0
  7  8  1  6
  9 18  1  0
  9  7  1  0
 10  9  2  0
 11 12  2  0
 12  2  1  0
 13 14  1  0
 14 15  2  0
 16 14  1  0
 17 16  1  6
 17 18  1  0
 19 21  1  0
 19 17  1  0
 20 19  2  0
 22 21  1  0
 22 26  1  0
 23 24  1  0
 22 23  1  6
 24 25  2  0
 26 29  1  0
 27 26  2  0
 28 24  1  0
M  END
$$$$
