YND.pdb
     RDKit          3D

 29 29  0  0  1  0  0  0  0  0999 V2000
    7.4019  -14.9518   23.1552 O   0  0  0  0  0  0  0  0  0  0  0  0
    7.8682  -14.4840   21.9448 C   0  0  0  0  0  0  0  0  0  0  0  0
    8.8410  -13.5144   21.8744 C   0  0  0  0  0  0  0  0  0  0  0  0
    9.3260  -13.0283   20.6837 C   0  0  0  0  0  0  0  0  0  0  0  0
    8.8340  -13.5152   19.4789 C   0  0  0  0  0  0  0  0  0  0  0  0
    9.3761  -12.9612   18.2287 C   0  0  0  0  0  0  0  0  0  0  0  0
    9.7816  -14.0856   17.2618 C   0  0  2  0  0  0  0  0  0  0  0  0
    8.6366  -14.9218   16.9989 N   0  0  0  0  0  0  0  0  0  0  0  0
   10.9202  -14.7624   17.8804 C   0  0  0  0  0  0  0  0  0  0  0  0
   10.7425  -15.9834   18.1914 O   0  0  0  0  0  0  0  0  0  0  0  0
    7.8611  -14.4852   19.5448 C   0  0  0  0  0  0  0  0  0  0  0  0
    7.3745  -14.9733   20.7360 C   0  0  0  0  0  0  0  0  0  0  0  0
   15.7060  -13.6881   16.3691 N   0  0  0  0  0  0  0  0  0  0  0  0
   15.0350  -14.7251   17.0850 C   0  0  0  0  0  0  0  0  0  0  0  0
   14.8381  -15.8410   16.5629 O   0  0  0  0  0  0  0  0  0  0  0  0
   14.5912  -14.4133   18.4622 C   0  0  0  0  0  0  0  0  0  0  0  0
   13.2015  -14.9777   18.7538 C   0  0  2  0  0  0  0  0  0  0  0  0
   12.1804  -14.1647   18.1509 N   0  0  0  0  0  0  0  0  0  0  0  0
   13.0631  -15.1296   20.1998 C   0  0  0  0  0  0  0  0  0  0  0  0
   12.4656  -14.3049   20.9320 O   0  0  0  0  0  0  0  0  0  0  0  0
   13.6281  -16.2669   20.8418 N   0  0  0  0  0  0  0  0  0  0  0  0
   13.2963  -16.6146   22.2172 C   0  0  1  0  0  0  0  0  0  0  0  0
   11.8140  -16.9729   22.2964 C   0  0  0  0  0  0  0  0  0  0  0  0
   11.5260  -17.3593   23.6935 C   0  0  0  0  0  0  0  0  0  0  0  0
   12.1256  -16.8274   24.6654 O   0  0  0  0  0  0  0  0  0  0  0  0
   14.0723  -17.8009   22.6283 C   0  0  0  0  0  0  0  0  0  0  0  0
   14.1754  -18.7777   21.8531 O   0  0  0  0  0  0  0  0  0  0  0  0
   10.5829  -18.3272   24.0370 O   0  0  0  0  0  0  0  0  0  0  0  0
   14.7072  -17.8883   23.8586 O   0  0  0  0  0  0  0  0  0  0  0  0
  2  1  1  0
  3  2  2  0
  4  3  1  0
  5 11  1  0
  5  4  2  0
  6  5  1  0
  7  6  1  0
  7  8  1  1
  9 18  1  0
  9  7  1  0
 10  9  2  0
 11 12  2  0
 12  2  1  0
 13 14  1  0
 14 15  2  0
 16 14  1  0
 17 16  1  1
 17 18  1  0
 19 21  1  0
 19 17  1  0
 20 19  2  0
 22 21  1  0
 22 26  1  0
 23 24  1  0
 22 23  1  6
 24 25  2  0
 26 29  1  0
 27 26  2  0
 28 24  1  0
M  END
$$$$
