KMF.pdb
     RDKit          3D

 29 29  0  0  1  0  0  0  0  0999 V2000
   25.2242  -23.8589  -15.3548 N   0  0  0  0  0  0  0  0  0  0  0  0
   24.4945  -23.0228  -16.1839 C   0  0  1  0  0  0  0  0  0  0  0  0
   23.1092  -23.2096  -16.5684 C   0  0  0  0  0  0  0  0  0  0  0  0
   22.3946  -24.4552  -16.5396 C   0  0  0  0  0  0  0  0  0  0  0  0
   21.7960  -25.1573  -17.6307 C   0  0  0  0  0  0  0  0  0  0  0  0
   21.0715  -26.4131  -17.5953 C   0  0  0  0  0  0  0  0  0  0  0  0
   20.2093  -26.7062  -16.5263 N   0  0  0  0  0  0  0  0  0  0  0  0
   24.6416  -21.5708  -15.6925 C   0  0  0  0  0  0  0  0  0  0  0  0
   23.6342  -20.9984  -15.2322 O   0  0  0  0  0  0  0  0  0  0  0  0
   26.7000  -20.9774  -10.0081 C   0  0  0  0  0  0  0  0  0  0  0  0
   27.3696  -20.0820  -11.4192 S   0  0  0  0  0  0  0  0  0  0  0  0
   26.2447  -20.2328  -12.8466 C   0  0  0  0  0  0  0  0  0  0  0  0
   26.8894  -19.5146  -13.9964 C   0  0  0  0  0  0  0  0  0  0  0  0
   26.0458  -19.5310  -15.2510 C   0  0  2  0  0  0  0  0  0  0  0  0
   25.8646  -20.8888  -15.7498 N   0  0  0  0  0  0  0  0  0  0  0  0
   26.6077  -18.7187  -16.3303 C   0  0  0  0  0  0  0  0  0  0  0  0
   27.4134  -19.1937  -17.1628 O   0  0  0  0  0  0  0  0  0  0  0  0
   26.2421  -17.3545  -16.4535 N   0  0  0  0  0  0  0  0  0  0  0  0
   26.7154  -16.5118  -17.5505 C   0  0  1  0  0  0  0  0  0  0  0  0
   26.3121  -17.1370  -18.8445 C   0  0  0  0  0  0  0  0  0  0  0  0
   26.6542  -16.3627  -20.0481 C   0  0  0  0  0  0  0  0  0  0  0  0
   25.7487  -15.4574  -20.5735 C   0  0  0  0  0  0  0  0  0  0  0  0
   25.9954  -14.6925  -21.6903 C   0  0  0  0  0  0  0  0  0  0  0  0
   27.2103  -14.8311  -22.3260 C   0  0  0  0  0  0  0  0  0  0  0  0
   28.1337  -15.7312  -21.8193 C   0  0  0  0  0  0  0  0  0  0  0  0
   27.8690  -16.4887  -20.6997 C   0  0  0  0  0  0  0  0  0  0  0  0
   26.1661  -15.1457  -17.4045 C   0  0  0  0  0  0  0  0  0  0  0  0
   26.8017  -14.0396  -17.9236 O   0  0  0  0  0  0  0  0  0  0  0  0
   25.0823  -14.9724  -16.7866 O   0  0  0  0  0  0  0  0  0  0  0  0
  2  1  1  1
  3  2  1  0
  4  3  1  0
  5  4  1  0
  6  5  1  0
  7  6  1  0
  8 15  1  0
  8  2  1  0
  9  8  2  0
 10 11  1  0
 11 12  1  0
 13 12  1  0
 14 13  1  1
 14 15  1  0
 16 18  1  0
 16 14  1  0
 17 16  2  0
 19 18  1  0
 19 27  1  0
 19 20  1  6
 21 22  2  0
 21 20  1  0
 23 22  1  0
 24 23  2  0
 25 24  1  0
 25 26  2  0
 26 21  1  0
 27 28  1  0
 29 27  2  0
M  END
$$$$
