KMF.pdb
     RDKit          3D

 29 29  0  0  1  0  0  0  0  0999 V2000
   22.4895  -17.6777  -13.6964 N   0  0  0  0  0  0  0  0  0  0  0  0
   22.4864  -18.6726  -12.7324 C   0  0  1  0  0  0  0  0  0  0  0  0
   21.7542  -19.9215  -12.8065 C   0  0  0  0  0  0  0  0  0  0  0  0
   20.3349  -20.0692  -12.6423 C   0  0  0  0  0  0  0  0  0  0  0  0
   19.6325  -20.8304  -11.6579 C   0  0  0  0  0  0  0  0  0  0  0  0
   18.2026  -21.0455  -11.5475 C   0  0  0  0  0  0  0  0  0  0  0  0
   17.6852  -22.3475  -11.4515 N   0  0  0  0  0  0  0  0  0  0  0  0
   23.9398  -19.0154  -12.3563 C   0  0  0  0  0  0  0  0  0  0  0  0
   24.7466  -19.2563  -13.2759 O   0  0  0  0  0  0  0  0  0  0  0  0
   27.4159  -18.2363   -6.7595 C   0  0  0  0  0  0  0  0  0  0  0  0
   27.1744  -20.0177   -6.8575 S   0  0  0  0  0  0  0  0  0  0  0  0
   26.8936  -20.5165   -8.5890 C   0  0  0  0  0  0  0  0  0  0  0  0
   25.6995  -19.7519   -9.0821 C   0  0  0  0  0  0  0  0  0  0  0  0
   25.5050  -19.8601  -10.5774 C   0  0  2  0  0  0  0  0  0  0  0  0
   24.3697  -19.0615  -11.0232 N   0  0  0  0  0  0  0  0  0  0  0  0
   25.3021  -21.2362  -11.0311 C   0  0  0  0  0  0  0  0  0  0  0  0
   24.3540  -21.9369  -10.6095 O   0  0  0  0  0  0  0  0  0  0  0  0
   26.1927  -21.8095  -11.9734 N   0  0  0  0  0  0  0  0  0  0  0  0
   25.9640  -23.1251  -12.5688 C   0  0  1  0  0  0  0  0  0  0  0  0
   24.5977  -23.1492  -13.1694 C   0  0  0  0  0  0  0  0  0  0  0  0
   24.4418  -22.3636  -14.4039 C   0  0  0  0  0  0  0  0  0  0  0  0
   24.9428  -22.8435  -15.6015 C   0  0  0  0  0  0  0  0  0  0  0  0
   24.8325  -22.1729  -16.7979 C   0  0  0  0  0  0  0  0  0  0  0  0
   24.1883  -20.9547  -16.8110 C   0  0  0  0  0  0  0  0  0  0  0  0
   23.6782  -20.4528  -15.6246 C   0  0  0  0  0  0  0  0  0  0  0  0
   23.7982  -21.1386  -14.4361 C   0  0  0  0  0  0  0  0  0  0  0  0
   27.0121  -23.4079  -13.5743 C   0  0  0  0  0  0  0  0  0  0  0  0
   28.0240  -22.5153  -13.8505 O   0  0  0  0  0  0  0  0  0  0  0  0
   26.9911  -24.4964  -14.2075 O   0  0  0  0  0  0  0  0  0  0  0  0
  2  1  1  6
  3  2  1  0
  4  3  1  0
  5  4  1  0
  6  5  1  0
  7  6  1  0
  8 15  1  0
  8  2  1  0
  9  8  2  0
 10 11  1  0
 11 12  1  0
 13 12  1  0
 14 13  1  1
 14 15  1  0
 16 18  1  0
 16 14  1  0
 17 16  2  0
 19 18  1  0
 19 27  1  0
 19 20  1  6
 21 22  2  0
 21 20  1  0
 23 22  1  0
 24 23  2  0
 25 24  1  0
 25 26  2  0
 26 21  1  0
 27 28  1  0
 29 27  2  0
M  END
$$$$
