KMF.pdb
     RDKit          3D

 29 29  0  0  1  0  0  0  0  0999 V2000
   25.8070  -18.3520  -15.9372 N   0  0  0  0  0  0  0  0  0  0  0  0
   24.6755  -18.1244  -15.1711 C   0  0  1  0  0  0  0  0  0  0  0  0
   23.3848  -17.6956  -15.6731 C   0  0  0  0  0  0  0  0  0  0  0  0
   23.1661  -16.6401  -16.6224 C   0  0  0  0  0  0  0  0  0  0  0  0
   24.0346  -15.5552  -16.9551 C   0  0  0  0  0  0  0  0  0  0  0  0
   23.6898  -14.1587  -17.1392 C   0  0  0  0  0  0  0  0  0  0  0  0
   23.3656  -13.6690  -18.4149 N   0  0  0  0  0  0  0  0  0  0  0  0
   24.4309  -19.3405  -14.2585 C   0  0  0  0  0  0  0  0  0  0  0  0
   23.3246  -19.4405  -13.6921 O   0  0  0  0  0  0  0  0  0  0  0  0
   26.6569  -24.9907  -15.5337 C   0  0  0  0  0  0  0  0  0  0  0  0
   24.9647  -24.5740  -15.9855 S   0  0  0  0  0  0  0  0  0  0  0  0
   24.4333  -23.0704  -15.1007 C   0  0  0  0  0  0  0  0  0  0  0  0
   25.4781  -22.7740  -14.0643 C   0  0  0  0  0  0  0  0  0  0  0  0
   25.1792  -21.5265  -13.2642 C   0  0  2  0  0  0  0  0  0  0  0  0
   25.4092  -20.3228  -14.0537 N   0  0  0  0  0  0  0  0  0  0  0  0
   25.9722  -21.4278  -12.0386 C   0  0  0  0  0  0  0  0  0  0  0  0
   27.2237  -21.3992  -12.0630 O   0  0  0  0  0  0  0  0  0  0  0  0
   25.3241  -21.3615  -10.7795 N   0  0  0  0  0  0  0  0  0  0  0  0
   26.0627  -21.3316   -9.5180 C   0  0  1  0  0  0  0  0  0  0  0  0
   26.9954  -20.1663   -9.5355 C   0  0  0  0  0  0  0  0  0  0  0  0
   27.6606  -19.8768   -8.2552 C   0  0  0  0  0  0  0  0  0  0  0  0
   28.7959  -20.5776   -7.8872 C   0  0  0  0  0  0  0  0  0  0  0  0
   29.4777  -20.3622   -6.7117 C   0  0  0  0  0  0  0  0  0  0  0  0
   29.0089  -19.3959   -5.8481 C   0  0  0  0  0  0  0  0  0  0  0  0
   27.8738  -18.6808   -6.1940 C   0  0  0  0  0  0  0  0  0  0  0  0
   27.2041  -18.9104   -7.3756 C   0  0  0  0  0  0  0  0  0  0  0  0
   25.1139  -21.2601   -8.3848 C   0  0  0  0  0  0  0  0  0  0  0  0
   25.4221  -21.7557   -7.1373 O   0  0  0  0  0  0  0  0  0  0  0  0
   23.9826  -20.7322   -8.5513 O   0  0  0  0  0  0  0  0  0  0  0  0
  2  1  1  6
  3  2  1  0
  4  3  1  0
  5  4  1  0
  6  5  1  0
  7  6  1  0
  8 15  1  0
  8  2  1  0
  9  8  2  0
 10 11  1  0
 11 12  1  0
 13 12  1  0
 14 13  1  6
 14 15  1  0
 16 18  1  0
 16 14  1  0
 17 16  2  0
 19 18  1  0
 19 27  1  0
 19 20  1  6
 21 22  2  0
 21 20  1  0
 23 22  1  0
 24 23  2  0
 25 24  1  0
 25 26  2  0
 26 21  1  0
 27 28  1  0
 29 27  2  0
M  END
$$$$
