KMF.pdb
     RDKit          3D

 29 29  0  0  1  0  0  0  0  0999 V2000
   25.9807  -24.6557  -15.0936 N   0  0  0  0  0  0  0  0  0  0  0  0
   26.8017  -23.6737  -15.6233 C   0  0  1  0  0  0  0  0  0  0  0  0
   26.8321  -23.2522  -17.0101 C   0  0  0  0  0  0  0  0  0  0  0  0
   26.0370  -23.8071  -18.0697 C   0  0  0  0  0  0  0  0  0  0  0  0
   24.9304  -24.7054  -17.9684 C   0  0  0  0  0  0  0  0  0  0  0  0
   24.1554  -25.2933  -19.0439 C   0  0  0  0  0  0  0  0  0  0  0  0
   23.1378  -26.2194  -18.7626 N   0  0  0  0  0  0  0  0  0  0  0  0
   26.6899  -22.4029  -14.7607 C   0  0  0  0  0  0  0  0  0  0  0  0
   27.2750  -21.3726  -15.1488 O   0  0  0  0  0  0  0  0  0  0  0  0
   21.5270  -20.1014  -14.0603 C   0  0  0  0  0  0  0  0  0  0  0  0
   22.0582  -19.2094  -12.5894 S   0  0  0  0  0  0  0  0  0  0  0  0
   23.8306  -19.5093  -12.2822 C   0  0  0  0  0  0  0  0  0  0  0  0
   24.2252  -20.7062  -13.0979 C   0  0  0  0  0  0  0  0  0  0  0  0
   25.6475  -21.1513  -12.8438 C   0  0  2  0  0  0  0  0  0  0  0  0
   25.9556  -22.3789  -13.5672 N   0  0  0  0  0  0  0  0  0  0  0  0
   25.9347  -21.3718  -11.4262 C   0  0  0  0  0  0  0  0  0  0  0  0
   25.4973  -22.3714  -10.8121 O   0  0  0  0  0  0  0  0  0  0  0  0
   26.7280  -20.4394  -10.7114 N   0  0  0  0  0  0  0  0  0  0  0  0
   26.9457  -20.5382   -9.2690 C   0  0  1  0  0  0  0  0  0  0  0  0
   28.1563  -19.7420   -8.9106 C   0  0  0  0  0  0  0  0  0  0  0  0
   28.4867  -19.7150   -7.4768 C   0  0  0  0  0  0  0  0  0  0  0  0
   29.2681  -20.7147   -6.9242 C   0  0  0  0  0  0  0  0  0  0  0  0
   29.6253  -20.7574   -5.5961 C   0  0  0  0  0  0  0  0  0  0  0  0
   29.1833  -19.7514   -4.7644 C   0  0  0  0  0  0  0  0  0  0  0  0
   28.3993  -18.7392   -5.2940 C   0  0  0  0  0  0  0  0  0  0  0  0
   28.0517  -18.7130   -6.6266 C   0  0  0  0  0  0  0  0  0  0  0  0
   25.7429  -20.0656   -8.5483 C   0  0  0  0  0  0  0  0  0  0  0  0
   25.3077  -20.6541   -7.3817 O   0  0  0  0  0  0  0  0  0  0  0  0
   25.0840  -19.0942   -9.0052 O   0  0  0  0  0  0  0  0  0  0  0  0
  2  1  1  6
  3  2  1  0
  4  3  1  0
  5  4  1  0
  6  5  1  0
  7  6  1  0
  8 15  1  0
  8  2  1  0
  9  8  2  0
 10 11  1  0
 11 12  1  0
 13 12  1  0
 14 13  1  1
 14 15  1  0
 16 18  1  0
 16 14  1  0
 17 16  2  0
 19 18  1  0
 19 27  1  0
 19 20  1  1
 21 22  2  0
 21 20  1  0
 23 22  1  0
 24 23  2  0
 25 24  1  0
 25 26  2  0
 26 21  1  0
 27 28  1  0
 29 27  2  0
M  END
$$$$
