KMF.pdb
     RDKit          3D

 29 29  0  0  1  0  0  0  0  0999 V2000
   28.6172  -21.1812  -15.3088 N   0  0  0  0  0  0  0  0  0  0  0  0
   27.8058  -20.1954  -14.7713 C   0  0  1  0  0  0  0  0  0  0  0  0
   26.9875  -19.2670  -15.5264 C   0  0  0  0  0  0  0  0  0  0  0  0
   26.7501  -19.3224  -16.9418 C   0  0  0  0  0  0  0  0  0  0  0  0
   27.4467  -18.6357  -17.9835 C   0  0  0  0  0  0  0  0  0  0  0  0
   27.2137  -18.7085  -19.4130 C   0  0  0  0  0  0  0  0  0  0  0  0
   27.9720  -17.9243  -20.2974 N   0  0  0  0  0  0  0  0  0  0  0  0
   26.9092  -20.8167  -13.6843 C   0  0  0  0  0  0  0  0  0  0  0  0
   26.0679  -21.6697  -14.0294 O   0  0  0  0  0  0  0  0  0  0  0  0
   27.8314  -20.7872   -6.9103 C   0  0  0  0  0  0  0  0  0  0  0  0
   26.1921  -20.1472   -7.2902 S   0  0  0  0  0  0  0  0  0  0  0  0
   25.5829  -20.8733   -8.8483 C   0  0  0  0  0  0  0  0  0  0  0  0
   26.4462  -20.3382   -9.9536 C   0  0  0  0  0  0  0  0  0  0  0  0
   26.0769  -20.8903  -11.3117 C   0  0  2  0  0  0  0  0  0  0  0  0
   27.0167  -20.4506  -12.3358 N   0  0  0  0  0  0  0  0  0  0  0  0
   24.7285  -20.5135  -11.7365 C   0  0  0  0  0  0  0  0  0  0  0  0
   24.4927  -19.4121  -12.2833 O   0  0  0  0  0  0  0  0  0  0  0  0
   23.6465  -21.4063  -11.5318 N   0  0  0  0  0  0  0  0  0  0  0  0
   22.2864  -21.1046  -11.9753 C   0  0  1  0  0  0  0  0  0  0  0  0
   21.9285  -22.0305  -13.0901 C   0  0  0  0  0  0  0  0  0  0  0  0
   20.5367  -21.9383  -13.5590 C   0  0  0  0  0  0  0  0  0  0  0  0
   19.5414  -22.6666  -12.9309 C   0  0  0  0  0  0  0  0  0  0  0  0
   18.2178  -22.6302  -13.3050 C   0  0  0  0  0  0  0  0  0  0  0  0
   17.8566  -21.8254  -14.3638 C   0  0  0  0  0  0  0  0  0  0  0  0
   18.8350  -21.0865  -15.0091 C   0  0  0  0  0  0  0  0  0  0  0  0
   20.1555  -21.1357  -14.6204 C   0  0  0  0  0  0  0  0  0  0  0  0
   21.3502  -21.2273  -10.8359 C   0  0  0  0  0  0  0  0  0  0  0  0
   21.5920  -22.0716   -9.7750 O   0  0  0  0  0  0  0  0  0  0  0  0
   20.2923  -20.5440  -10.8220 O   0  0  0  0  0  0  0  0  0  0  0  0
  2  1  1  6
  3  2  1  0
  4  3  1  0
  5  4  1  0
  6  5  1  0
  7  6  1  0
  8 15  1  0
  8  2  1  0
  9  8  2  0
 10 11  1  0
 11 12  1  0
 13 12  1  0
 14 13  1  1
 14 15  1  0
 16 18  1  0
 16 14  1  0
 17 16  2  0
 19 18  1  0
 19 27  1  0
 19 20  1  6
 21 22  2  0
 21 20  1  0
 23 22  1  0
 24 23  2  0
 25 24  1  0
 25 26  2  0
 26 21  1  0
 27 28  1  0
 29 27  2  0
M  END
$$$$
