KMF.pdb
     RDKit          3D

 29 29  0  0  1  0  0  0  0  0999 V2000
   22.2443  -21.4313  -14.2332 N   0  0  0  0  0  0  0  0  0  0  0  0
   22.8908  -22.6558  -14.2719 C   0  0  1  0  0  0  0  0  0  0  0  0
   23.0332  -23.5020  -15.4404 C   0  0  0  0  0  0  0  0  0  0  0  0
   21.9849  -23.8343  -16.3643 C   0  0  0  0  0  0  0  0  0  0  0  0
   20.6970  -23.2294  -16.4961 C   0  0  0  0  0  0  0  0  0  0  0  0
   19.3980  -23.8714  -16.4371 C   0  0  0  0  0  0  0  0  0  0  0  0
   19.2925  -25.2698  -16.5111 N   0  0  0  0  0  0  0  0  0  0  0  0
   24.2873  -22.5094  -13.6396 C   0  0  0  0  0  0  0  0  0  0  0  0
   25.0415  -23.5022  -13.6375 O   0  0  0  0  0  0  0  0  0  0  0  0
   29.2261  -18.3264  -13.9780 C   0  0  0  0  0  0  0  0  0  0  0  0
   28.0073  -18.8240  -15.2061 S   0  0  0  0  0  0  0  0  0  0  0  0
   27.0391  -20.2405  -14.5882 C   0  0  0  0  0  0  0  0  0  0  0  0
   26.8084  -20.0135  -13.1223 C   0  0  0  0  0  0  0  0  0  0  0  0
   26.0365  -21.1351  -12.4651 C   0  0  2  0  0  0  0  0  0  0  0  0
   24.7231  -21.3029  -13.0752 N   0  0  0  0  0  0  0  0  0  0  0  0
   25.8507  -20.9376  -11.0273 C   0  0  0  0  0  0  0  0  0  0  0  0
   24.7627  -20.5416  -10.5509 O   0  0  0  0  0  0  0  0  0  0  0  0
   26.9202  -21.1964  -10.1334 N   0  0  0  0  0  0  0  0  0  0  0  0
   26.8453  -20.8782   -8.7083 C   0  0  1  0  0  0  0  0  0  0  0  0
   28.2284  -20.8599   -8.1473 C   0  0  0  0  0  0  0  0  0  0  0  0
   28.3388  -20.3574   -6.7686 C   0  0  0  0  0  0  0  0  0  0  0  0
   28.6655  -19.0330   -6.5351 C   0  0  0  0  0  0  0  0  0  0  0  0
   28.7821  -18.4862   -5.2779 C   0  0  0  0  0  0  0  0  0  0  0  0
   28.5625  -19.2977   -4.1858 C   0  0  0  0  0  0  0  0  0  0  0  0
   28.2343  -20.6276   -4.3936 C   0  0  0  0  0  0  0  0  0  0  0  0
   28.1221  -21.1576   -5.6600 C   0  0  0  0  0  0  0  0  0  0  0  0
   26.1583  -19.5811   -8.5211 C   0  0  0  0  0  0  0  0  0  0  0  0
   26.5536  -18.4391   -9.1819 O   0  0  0  0  0  0  0  0  0  0  0  0
   25.1784  -19.5026   -7.7338 O   0  0  0  0  0  0  0  0  0  0  0  0
  2  1  1  6
  3  2  1  0
  4  3  1  0
  5  4  1  0
  6  5  1  0
  7  6  1  0
  8 15  1  0
  8  2  1  0
  9  8  2  0
 10 11  1  0
 11 12  1  0
 13 12  1  0
 14 13  1  6
 14 15  1  0
 16 18  1  0
 16 14  1  0
 17 16  2  0
 19 18  1  0
 19 27  1  0
 19 20  1  6
 21 22  2  0
 21 20  1  0
 23 22  1  0
 24 23  2  0
 25 24  1  0
 25 26  2  0
 26 21  1  0
 27 28  1  0
 29 27  2  0
M  END
$$$$
