KMF.pdb
     RDKit          3D

 29 29  0  0  1  0  0  0  0  0999 V2000
   19.5113  -13.6149  -18.1648 N   0  0  0  0  0  0  0  0  0  0  0  0
   20.6053  -12.8693  -17.7573 C   0  0  1  0  0  0  0  0  0  0  0  0
   21.8581  -12.7413  -18.4755 C   0  0  0  0  0  0  0  0  0  0  0  0
   22.0465  -12.9881  -19.8779 C   0  0  0  0  0  0  0  0  0  0  0  0
   22.6640  -14.1150  -20.5029 C   0  0  0  0  0  0  0  0  0  0  0  0
   22.8822  -14.3435  -21.9183 C   0  0  0  0  0  0  0  0  0  0  0  0
   21.9967  -13.8103  -22.8690 N   0  0  0  0  0  0  0  0  0  0  0  0
   20.1395  -11.4476  -17.3922 C   0  0  0  0  0  0  0  0  0  0  0  0
   20.1215  -10.5833  -18.2906 O   0  0  0  0  0  0  0  0  0  0  0  0
   15.1165  -12.6532  -14.4587 C   0  0  0  0  0  0  0  0  0  0  0  0
   16.6470  -11.8349  -13.9798 S   0  0  0  0  0  0  0  0  0  0  0  0
   16.9890  -10.4406  -15.1044 C   0  0  0  0  0  0  0  0  0  0  0  0
   18.2634   -9.7983  -14.6386 C   0  0  0  0  0  0  0  0  0  0  0  0
   19.3323   -9.7634  -15.7072 C   0  0  2  0  0  0  0  0  0  0  0  0
   19.7408  -11.1088  -16.0921 N   0  0  0  0  0  0  0  0  0  0  0  0
   20.5261   -9.0220  -15.3000 C   0  0  0  0  0  0  0  0  0  0  0  0
   21.6786   -9.4774  -15.4791 O   0  0  0  0  0  0  0  0  0  0  0  0
   20.3948   -7.7518  -14.6842 N   0  0  0  0  0  0  0  0  0  0  0  0
   21.5217   -6.8322  -14.5358 C   0  0  1  0  0  0  0  0  0  0  0  0
   22.0967   -6.5559  -15.8853 C   0  0  0  0  0  0  0  0  0  0  0  0
   23.1886   -5.5697  -15.9114 C   0  0  0  0  0  0  0  0  0  0  0  0
   22.9056   -4.2167  -15.8427 C   0  0  0  0  0  0  0  0  0  0  0  0
   23.8688   -3.2343  -15.8554 C   0  0  0  0  0  0  0  0  0  0  0  0
   25.1913   -3.6123  -15.9412 C   0  0  0  0  0  0  0  0  0  0  0  0
   25.5003   -4.9611  -16.0112 C   0  0  0  0  0  0  0  0  0  0  0  0
   24.5221   -5.9308  -15.9973 C   0  0  0  0  0  0  0  0  0  0  0  0
   21.0704   -5.5926  -13.8656 C   0  0  0  0  0  0  0  0  0  0  0  0
   21.8656   -4.9105  -12.9715 O   0  0  0  0  0  0  0  0  0  0  0  0
   19.9231   -5.1340  -14.1099 O   0  0  0  0  0  0  0  0  0  0  0  0
  2  1  1  6
  3  2  1  0
  4  3  1  0
  5  4  1  0
  6  5  1  0
  7  6  1  0
  8 15  1  0
  8  2  1  0
  9  8  2  0
 10 11  1  0
 11 12  1  0
 13 12  1  0
 14 13  1  1
 14 15  1  0
 16 18  1  0
 16 14  1  0
 17 16  2  0
 19 18  1  0
 19 27  1  0
 19 20  1  6
 21 22  2  0
 21 20  1  0
 23 22  1  0
 24 23  2  0
 25 24  1  0
 25 26  2  0
 26 21  1  0
 27 28  1  0
 29 27  2  0
M  END
$$$$
