KMF.pdb
     RDKit          3D

 29 29  0  0  1  0  0  0  0  0999 V2000
   35.2075  -27.5511    9.4484 N   0  0  0  0  0  0  0  0  0  0  0  0
   34.0487  -27.0476    8.8803 C   0  0  1  0  0  0  0  0  0  0  0  0
   32.6988  -27.3006    9.3443 C   0  0  0  0  0  0  0  0  0  0  0  0
   31.9321  -28.4857    9.0785 C   0  0  0  0  0  0  0  0  0  0  0  0
   30.9033  -28.6742    8.1048 C   0  0  0  0  0  0  0  0  0  0  0  0
   30.0868  -29.8522    7.8842 C   0  0  0  0  0  0  0  0  0  0  0  0
   29.1817  -29.8987    6.8115 N   0  0  0  0  0  0  0  0  0  0  0  0
   34.1941  -25.5249    8.7024 C   0  0  0  0  0  0  0  0  0  0  0  0
   34.5850  -24.8514    9.6761 O   0  0  0  0  0  0  0  0  0  0  0  0
   33.3718  -19.5247    3.5277 C   0  0  0  0  0  0  0  0  0  0  0  0
   33.4303  -21.2912    3.8703 S   0  0  0  0  0  0  0  0  0  0  0  0
   33.7455  -21.5741    5.6441 C   0  0  0  0  0  0  0  0  0  0  0  0
   33.7360  -23.0590    5.8643 C   0  0  0  0  0  0  0  0  0  0  0  0
   33.9663  -23.4436    7.3082 C   0  0  2  0  0  0  0  0  0  0  0  0
   33.9017  -24.8888    7.4883 N   0  0  0  0  0  0  0  0  0  0  0  0
   33.0090  -22.8254    8.2258 C   0  0  0  0  0  0  0  0  0  0  0  0
   31.8428  -23.2622    8.3555 O   0  0  0  0  0  0  0  0  0  0  0  0
   33.3937  -21.7002    8.9977 N   0  0  0  0  0  0  0  0  0  0  0  0
   32.4316  -20.9071    9.7612 C   0  0  1  0  0  0  0  0  0  0  0  0
   31.6462  -21.8220   10.6411 C   0  0  0  0  0  0  0  0  0  0  0  0
   30.2598  -22.0663   10.2125 C   0  0  0  0  0  0  0  0  0  0  0  0
   29.7858  -23.3614   10.0960 C   0  0  0  0  0  0  0  0  0  0  0  0
   28.5029  -23.6722    9.7078 C   0  0  0  0  0  0  0  0  0  0  0  0
   27.6365  -22.6406    9.4173 C   0  0  0  0  0  0  0  0  0  0  0  0
   28.0875  -21.3351    9.5264 C   0  0  0  0  0  0  0  0  0  0  0  0
   29.3758  -21.0430    9.9166 C   0  0  0  0  0  0  0  0  0  0  0  0
   33.1445  -19.8712   10.5410 C   0  0  0  0  0  0  0  0  0  0  0  0
   34.5186  -19.7777   10.5531 O   0  0  0  0  0  0  0  0  0  0  0  0
   32.4867  -19.0408   11.2222 O   0  0  0  0  0  0  0  0  0  0  0  0
  2  1  1  1
  3  2  1  0
  4  3  1  0
  5  4  1  0
  6  5  1  0
  7  6  1  0
  8 15  1  0
  8  2  1  0
  9  8  2  0
 10 11  1  0
 11 12  1  0
 13 12  1  0
 14 13  1  6
 14 15  1  0
 16 18  1  0
 16 14  1  0
 17 16  2  0
 19 18  1  0
 19 27  1  0
 19 20  1  1
 21 22  2  0
 21 20  1  0
 23 22  1  0
 24 23  2  0
 25 24  1  0
 25 26  2  0
 26 21  1  0
 27 28  1  0
 29 27  2  0
M  END
$$$$
