KMF.pdb
     RDKit          3D

 29 29  0  0  1  0  0  0  0  0999 V2000
   28.0536  -19.3033  -13.4691 N   0  0  0  0  0  0  0  0  0  0  0  0
   27.3338  -20.3964  -13.9229 C   0  0  1  0  0  0  0  0  0  0  0  0
   27.8734  -21.5145  -14.6715 C   0  0  0  0  0  0  0  0  0  0  0  0
   28.4661  -21.4375  -15.9775 C   0  0  0  0  0  0  0  0  0  0  0  0
   28.9675  -22.5038  -16.7859 C   0  0  0  0  0  0  0  0  0  0  0  0
   29.6744  -22.4115  -18.0487 C   0  0  0  0  0  0  0  0  0  0  0  0
   30.0893  -23.5745  -18.7176 N   0  0  0  0  0  0  0  0  0  0  0  0
   26.5126  -20.9790  -12.7577 C   0  0  0  0  0  0  0  0  0  0  0  0
   25.8681  -22.0277  -12.9560 O   0  0  0  0  0  0  0  0  0  0  0  0
   26.4845  -20.1387   -6.0111 C   0  0  0  0  0  0  0  0  0  0  0  0
   27.8614  -20.1472   -7.1710 S   0  0  0  0  0  0  0  0  0  0  0  0
   27.3421  -20.8914   -8.7528 C   0  0  0  0  0  0  0  0  0  0  0  0
   25.9981  -20.3157   -9.0931 C   0  0  0  0  0  0  0  0  0  0  0  0
   25.5105  -20.7242  -10.4646 C   0  0  2  0  0  0  0  0  0  0  0  0
   26.4744  -20.3660  -11.4980 N   0  0  0  0  0  0  0  0  0  0  0  0
   24.2212  -20.1282  -10.8157 C   0  0  0  0  0  0  0  0  0  0  0  0
   24.1324  -18.9588  -11.2540 O   0  0  0  0  0  0  0  0  0  0  0  0
   23.0288  -20.8796  -10.6623 N   0  0  0  0  0  0  0  0  0  0  0  0
   21.8691  -20.6964  -11.5336 C   0  0  1  0  0  0  0  0  0  0  0  0
   22.2748  -20.9879  -12.9402 C   0  0  0  0  0  0  0  0  0  0  0  0
   22.0234  -19.9033  -13.9024 C   0  0  0  0  0  0  0  0  0  0  0  0
   20.8493  -19.1735  -13.8368 C   0  0  0  0  0  0  0  0  0  0  0  0
   20.5432  -18.1421  -14.6945 C   0  0  0  0  0  0  0  0  0  0  0  0
   21.4525  -17.8125  -15.6762 C   0  0  0  0  0  0  0  0  0  0  0  0
   22.6354  -18.5286  -15.7626 C   0  0  0  0  0  0  0  0  0  0  0  0
   22.9248  -19.5583  -14.8948 C   0  0  0  0  0  0  0  0  0  0  0  0
   20.7644  -21.5734  -11.0865 C   0  0  0  0  0  0  0  0  0  0  0  0
   19.4452  -21.1831  -11.1515 O   0  0  0  0  0  0  0  0  0  0  0  0
   21.0233  -22.7176  -10.6279 O   0  0  0  0  0  0  0  0  0  0  0  0
  2  1  1  1
  3  2  1  0
  4  3  1  0
  5  4  1  0
  6  5  1  0
  7  6  1  0
  8 15  1  0
  8  2  1  0
  9  8  2  0
 10 11  1  0
 11 12  1  0
 13 12  1  0
 14 13  1  1
 14 15  1  0
 16 18  1  0
 16 14  1  0
 17 16  2  0
 19 18  1  0
 19 27  1  0
 19 20  1  6
 21 22  2  0
 21 20  1  0
 23 22  1  0
 24 23  2  0
 25 24  1  0
 25 26  2  0
 26 21  1  0
 27 28  1  0
 29 27  2  0
M  END
$$$$
