KMF.pdb
     RDKit          3D

 29 29  0  0  1  0  0  0  0  0999 V2000
   25.4425  -23.1504  -16.2581 N   0  0  0  0  0  0  0  0  0  0  0  0
   24.9952  -23.1329  -14.9472 C   0  0  1  0  0  0  0  0  0  0  0  0
   24.5480  -24.2850  -14.1893 C   0  0  0  0  0  0  0  0  0  0  0  0
   23.2217  -24.8358  -14.2107 C   0  0  0  0  0  0  0  0  0  0  0  0
   21.9973  -24.1818  -14.5500 C   0  0  0  0  0  0  0  0  0  0  0  0
   20.8060  -24.0373  -13.7359 C   0  0  0  0  0  0  0  0  0  0  0  0
   20.2837  -25.1390  -13.0390 N   0  0  0  0  0  0  0  0  0  0  0  0
   26.0168  -22.3796  -14.0753 C   0  0  0  0  0  0  0  0  0  0  0  0
   27.2014  -22.7686  -14.0844 O   0  0  0  0  0  0  0  0  0  0  0  0
   27.4073  -16.5003  -16.0847 C   0  0  0  0  0  0  0  0  0  0  0  0
   26.9435  -16.9437  -14.4026 S   0  0  0  0  0  0  0  0  0  0  0  0
   27.0731  -18.7482  -14.1730 C   0  0  0  0  0  0  0  0  0  0  0  0
   26.5591  -19.0577  -12.7970 C   0  0  0  0  0  0  0  0  0  0  0  0
   26.5992  -20.5331  -12.4694 C   0  0  2  0  0  0  0  0  0  0  0  0
   25.6504  -21.2826  -13.2839 N   0  0  0  0  0  0  0  0  0  0  0  0
   26.3166  -20.8157  -11.0619 C   0  0  0  0  0  0  0  0  0  0  0  0
   25.1455  -20.8776  -10.6236 O   0  0  0  0  0  0  0  0  0  0  0  0
   27.3848  -21.0282  -10.1544 N   0  0  0  0  0  0  0  0  0  0  0  0
   27.2001  -20.9948   -8.7044 C   0  0  1  0  0  0  0  0  0  0  0  0
   28.3874  -20.3359   -8.0844 C   0  0  0  0  0  0  0  0  0  0  0  0
   28.2824  -20.0886   -6.6376 C   0  0  0  0  0  0  0  0  0  0  0  0
   28.7841  -21.0111   -5.7361 C   0  0  0  0  0  0  0  0  0  0  0  0
   28.7302  -20.8506   -4.3707 C   0  0  0  0  0  0  0  0  0  0  0  0
   28.1451  -19.7094   -3.8661 C   0  0  0  0  0  0  0  0  0  0  0  0
   27.6352  -18.7707   -4.7485 C   0  0  0  0  0  0  0  0  0  0  0  0
   27.6982  -18.9486   -6.1129 C   0  0  0  0  0  0  0  0  0  0  0  0
   25.9435  -20.2856   -8.3767 C   0  0  0  0  0  0  0  0  0  0  0  0
   25.6251  -19.0640   -8.9273 O   0  0  0  0  0  0  0  0  0  0  0  0
   25.1282  -20.8032   -7.5682 O   0  0  0  0  0  0  0  0  0  0  0  0
  2  1  1  6
  3  2  1  0
  4  3  1  0
  5  4  1  0
  6  5  1  0
  7  6  1  0
  8 15  1  0
  8  2  1  0
  9  8  2  0
 10 11  1  0
 11 12  1  0
 13 12  1  0
 14 13  1  1
 14 15  1  0
 16 18  1  0
 16 14  1  0
 17 16  2  0
 19 18  1  0
 19 27  1  0
 19 20  1  1
 21 22  2  0
 21 20  1  0
 23 22  1  0
 24 23  2  0
 25 24  1  0
 25 26  2  0
 26 21  1  0
 27 28  1  0
 29 27  2  0
M  END
$$$$
