KMF.pdb
     RDKit          3D

 29 29  0  0  1  0  0  0  0  0999 V2000
   27.6318  -21.9645  -15.6825 N   0  0  0  0  0  0  0  0  0  0  0  0
   27.2677  -20.9351  -14.8300 C   0  0  1  0  0  0  0  0  0  0  0  0
   26.8061  -19.6222  -15.2361 C   0  0  0  0  0  0  0  0  0  0  0  0
   27.4498  -18.7701  -16.1965 C   0  0  0  0  0  0  0  0  0  0  0  0
   28.5400  -17.8696  -15.9902 C   0  0  0  0  0  0  0  0  0  0  0  0
   29.1381  -16.9570  -16.9454 C   0  0  0  0  0  0  0  0  0  0  0  0
   29.2914  -17.3348  -18.2893 N   0  0  0  0  0  0  0  0  0  0  0  0
   26.2666  -21.4712  -13.7900 C   0  0  0  0  0  0  0  0  0  0  0  0
   25.2734  -22.1046  -14.1984 O   0  0  0  0  0  0  0  0  0  0  0  0
   25.6258  -20.5169   -6.7352 C   0  0  0  0  0  0  0  0  0  0  0  0
   27.0071  -20.2945   -7.8682 S   0  0  0  0  0  0  0  0  0  0  0  0
   26.3933  -20.1256   -9.5772 C   0  0  0  0  0  0  0  0  0  0  0  0
   25.9470  -21.4874  -10.0241 C   0  0  0  0  0  0  0  0  0  0  0  0
   25.3936  -21.4955  -11.4310 C   0  0  2  0  0  0  0  0  0  0  0  0
   26.4445  -21.2664  -12.4150 N   0  0  0  0  0  0  0  0  0  0  0  0
   24.3454  -20.4964  -11.6406 C   0  0  0  0  0  0  0  0  0  0  0  0
   24.6032  -19.2728  -11.7027 O   0  0  0  0  0  0  0  0  0  0  0  0
   22.9952  -20.9055  -11.7794 N   0  0  0  0  0  0  0  0  0  0  0  0
   21.9098  -19.9571  -12.0241 C   0  0  1  0  0  0  0  0  0  0  0  0
   22.1965  -19.2148  -13.2870 C   0  0  0  0  0  0  0  0  0  0  0  0
   22.0087  -19.9881  -14.5248 C   0  0  0  0  0  0  0  0  0  0  0  0
   23.0935  -20.5840  -15.1440 C   0  0  0  0  0  0  0  0  0  0  0  0
   22.9998  -21.3268  -16.2984 C   0  0  0  0  0  0  0  0  0  0  0  0
   21.7589  -21.4902  -16.8753 C   0  0  0  0  0  0  0  0  0  0  0  0
   20.6572  -20.9030  -16.2743 C   0  0  0  0  0  0  0  0  0  0  0  0
   20.7704  -20.1626  -15.1184 C   0  0  0  0  0  0  0  0  0  0  0  0
   20.6201  -20.6795  -12.0911 C   0  0  0  0  0  0  0  0  0  0  0  0
   19.4164  -20.0222  -12.2175 O   0  0  0  0  0  0  0  0  0  0  0  0
   20.6064  -21.9374  -12.0307 O   0  0  0  0  0  0  0  0  0  0  0  0
  2  1  1  6
  3  2  1  0
  4  3  1  0
  5  4  1  0
  6  5  1  0
  7  6  1  0
  8 15  1  0
  8  2  1  0
  9  8  2  0
 10 11  1  0
 11 12  1  0
 13 12  1  0
 14 13  1  1
 14 15  1  0
 16 18  1  0
 16 14  1  0
 17 16  2  0
 19 18  1  0
 19 27  1  0
 19 20  1  6
 21 22  2  0
 21 20  1  0
 23 22  1  0
 24 23  2  0
 25 24  1  0
 25 26  2  0
 26 21  1  0
 27 28  1  0
 29 27  2  0
M  END
$$$$
