YIC.pdb
     RDKit          3D

 27 27  0  0  1  0  0  0  0  0999 V2000
    6.9676  -23.6605   29.7870 O   0  0  0  0  0  0  0  0  0  0  0  0
    7.1103  -22.6414   28.8815 C   0  0  0  0  0  0  0  0  0  0  0  0
    6.3107  -21.5332   28.9645 C   0  0  0  0  0  0  0  0  0  0  0  0
    6.4364  -20.4909   28.0611 C   0  0  0  0  0  0  0  0  0  0  0  0
    7.3786  -20.5638   27.0610 C   0  0  0  0  0  0  0  0  0  0  0  0
    7.4839  -19.4320   26.1149 C   0  0  0  0  0  0  0  0  0  0  0  0
    6.1761  -19.1458   25.4210 C   0  0  2  0  0  0  0  0  0  0  0  0
    5.7619  -20.2429   24.6054 N   0  0  0  0  0  0  0  0  0  0  0  0
    6.4127  -17.9048   24.5886 C   0  0  0  0  0  0  0  0  0  0  0  0
    6.4394  -18.0026   23.3582 O   0  0  0  0  0  0  0  0  0  0  0  0
    8.2012  -21.6714   26.9518 C   0  0  0  0  0  0  0  0  0  0  0  0
    8.0508  -22.6875   27.8636 C   0  0  0  0  0  0  0  0  0  0  0  0
    6.8261  -11.7819   25.7239 C   0  0  0  0  0  0  0  0  0  0  0  0
    7.1982  -12.9667   24.8649 C   0  0  0  0  0  0  0  0  0  0  0  0
    6.7161  -14.2732   25.5181 C   0  0  2  0  0  0  0  0  0  0  0  0
    7.4735  -14.3041   26.8308 C   0  0  0  0  0  0  0  0  0  0  0  0
    7.1546  -15.4577   24.6965 C   0  0  2  0  0  0  0  0  0  0  0  0
    6.5920  -16.6959   25.2363 N   0  0  0  0  0  0  0  0  0  0  0  0
    8.5943  -15.5512   24.5678 C   0  0  0  0  0  0  0  0  0  0  0  0
    9.3123  -15.9050   25.6082 O   0  0  0  0  0  0  0  0  0  0  0  0
    9.3598  -15.3123   23.4309 N   0  0  0  0  0  0  0  0  0  0  0  0
   10.6144  -15.9945   23.1422 C   0  0  1  0  0  0  0  0  0  0  0  0
   10.8727  -16.0752   21.6555 C   0  0  0  0  0  0  0  0  0  0  0  0
   10.4595  -14.4479   20.9551 S   0  0  0  0  0  0  0  0  0  0  0  0
   11.7168  -15.2169   23.7251 C   0  0  0  0  0  0  0  0  0  0  0  0
   11.5082  -14.1038   24.2487 O   0  0  0  0  0  0  0  0  0  0  0  0
   12.9949  -15.7061   23.7013 O   0  0  0  0  0  0  0  0  0  0  0  0
  2  1  1  0
  3  2  2  0
  4  3  1  0
  5 11  1  0
  5  4  2  0
  6  7  1  0
  6  5  1  0
  7  8  1  6
  9 10  2  0
  9  7  1  0
 11 12  2  0
 12  2  1  0
 14 13  1  0
 14 15  1  0
 15 17  1  0
 15 16  1  1
 17 18  1  1
 18  9  1  0
 19 17  1  0
 20 19  2  0
 21 19  1  0
 22 21  1  0
 22 23  1  6
 23 24  1  0
 25 27  1  0
 25 22  1  0
 26 25  2  0
M  END
$$$$
