YIC.pdb
     RDKit          3D

 27 27  0  0  1  0  0  0  0  0999 V2000
    3.2797  -22.5231   21.7592 O   0  0  0  0  0  0  0  0  0  0  0  0
    4.1103  -21.5686   22.2863 C   0  0  0  0  0  0  0  0  0  0  0  0
    5.4073  -21.4758   21.8580 C   0  0  0  0  0  0  0  0  0  0  0  0
    6.2652  -20.5197   22.3758 C   0  0  0  0  0  0  0  0  0  0  0  0
    5.8130  -19.6452   23.3371 C   0  0  0  0  0  0  0  0  0  0  0  0
    6.7573  -18.6378   23.8666 C   0  0  0  0  0  0  0  0  0  0  0  0
    6.6851  -17.3357   23.1096 C   0  0  2  0  0  0  0  0  0  0  0  0
    7.0117  -17.5102   21.7300 N   0  0  0  0  0  0  0  0  0  0  0  0
    7.6663  -16.4068   23.7903 C   0  0  0  0  0  0  0  0  0  0  0  0
    8.8171  -16.3222   23.3514 O   0  0  0  0  0  0  0  0  0  0  0  0
    4.5070  -19.7147   23.7897 C   0  0  0  0  0  0  0  0  0  0  0  0
    3.6821  -20.6743   23.2558 C   0  0  0  0  0  0  0  0  0  0  0  0
    5.2470  -12.3233   26.4812 C   0  0  0  0  0  0  0  0  0  0  0  0
    6.3363  -13.0097   25.6923 C   0  0  0  0  0  0  0  0  0  0  0  0
    7.1482  -13.9454   26.6039 C   0  0  2  0  0  0  0  0  0  0  0  0
    8.0304  -12.9901   27.3831 C   0  0  0  0  0  0  0  0  0  0  0  0
    8.0386  -14.8346   25.7752 C   0  0  2  0  0  0  0  0  0  0  0  0
    7.2399  -15.6796   24.8868 N   0  0  0  0  0  0  0  0  0  0  0  0
    8.9434  -15.6308   26.5785 C   0  0  0  0  0  0  0  0  0  0  0  0
    8.4541  -16.4386   27.4902 O   0  0  0  0  0  0  0  0  0  0  0  0
   10.3325  -15.6640   26.5073 N   0  0  0  0  0  0  0  0  0  0  0  0
   11.1527  -16.6704   27.1685 C   0  0  1  0  0  0  0  0  0  0  0  0
   12.4786  -16.8537   26.4673 C   0  0  0  0  0  0  0  0  0  0  0  0
   13.1648  -15.1927   26.1852 S   0  0  0  0  0  0  0  0  0  0  0  0
   11.4513  -16.2109   28.5321 C   0  0  0  0  0  0  0  0  0  0  0  0
   12.1070  -16.9236   29.3187 O   0  0  0  0  0  0  0  0  0  0  0  0
   11.0113  -14.9875   28.9604 O   0  0  0  0  0  0  0  0  0  0  0  0
  2  1  1  0
  3  2  2  0
  4  3  1  0
  5 11  1  0
  5  4  2  0
  6  7  1  0
  6  5  1  0
  7  8  1  6
  9 10  2  0
  9  7  1  0
 11 12  2  0
 12  2  1  0
 14 13  1  0
 14 15  1  0
 15 17  1  0
 15 16  1  1
 17 18  1  1
 18  9  1  0
 19 17  1  0
 20 19  2  0
 21 19  1  0
 22 21  1  0
 22 23  1  6
 23 24  1  0
 25 27  1  0
 25 22  1  0
 26 25  2  0
M  END
$$$$
