YIC.pdb
     RDKit          3D

 27 27  0  0  1  0  0  0  0  0999 V2000
    5.2340  -20.7513   13.3582 O   0  0  0  0  0  0  0  0  0  0  0  0
    5.9409  -20.1785   14.3834 C   0  0  0  0  0  0  0  0  0  0  0  0
    5.3631  -19.2072   15.1561 C   0  0  0  0  0  0  0  0  0  0  0  0
    6.0574  -18.6140   16.1974 C   0  0  0  0  0  0  0  0  0  0  0  0
    7.3499  -19.0025   16.4653 C   0  0  0  0  0  0  0  0  0  0  0  0
    8.0600  -18.3471   17.5848 C   0  0  0  0  0  0  0  0  0  0  0  0
    8.5386  -16.9635   17.2238 C   0  0  2  0  0  0  0  0  0  0  0  0
    9.4911  -16.9970   16.1598 N   0  0  0  0  0  0  0  0  0  0  0  0
    9.1490  -16.3947   18.4860 C   0  0  0  0  0  0  0  0  0  0  0  0
   10.3537  -16.5611   18.6986 O   0  0  0  0  0  0  0  0  0  0  0  0
    7.9605  -19.9819   15.7015 C   0  0  0  0  0  0  0  0  0  0  0  0
    7.2444  -20.5500   14.6764 C   0  0  0  0  0  0  0  0  0  0  0  0
    7.0273  -13.1300   18.8769 C   0  0  0  0  0  0  0  0  0  0  0  0
    7.5771  -12.8507   20.2552 C   0  0  0  0  0  0  0  0  0  0  0  0
    7.6027  -14.1409   21.0923 C   0  0  2  0  0  0  0  0  0  0  0  0
    7.9625  -13.6466   22.4795 C   0  0  0  0  0  0  0  0  0  0  0  0
    8.7085  -15.0472   20.6168 C   0  0  2  0  0  0  0  0  0  0  0  0
    8.3336  -15.7040   19.3641 N   0  0  0  0  0  0  0  0  0  0  0  0
    9.1095  -16.0171   21.6149 C   0  0  0  0  0  0  0  0  0  0  0  0
    8.2657  -16.9551   21.9771 O   0  0  0  0  0  0  0  0  0  0  0  0
   10.3335  -16.0997   22.2713 N   0  0  0  0  0  0  0  0  0  0  0  0
   10.7203  -17.2154   23.1247 C   0  0  1  0  0  0  0  0  0  0  0  0
   12.2080  -17.4726   23.0613 C   0  0  0  0  0  0  0  0  0  0  0  0
   13.0350  -15.8676   23.2831 S   0  0  0  0  0  0  0  0  0  0  0  0
   10.4060  -16.8713   24.5185 C   0  0  0  0  0  0  0  0  0  0  0  0
   10.0216  -15.7244   24.8238 O   0  0  0  0  0  0  0  0  0  0  0  0
   10.5314  -17.8103   25.5066 O   0  0  0  0  0  0  0  0  0  0  0  0
  2  1  1  0
  3  2  2  0
  4  3  1  0
  5 11  1  0
  5  4  2  0
  6  7  1  0
  6  5  1  0
  7  8  1  6
  9 10  2  0
  9  7  1  0
 11 12  2  0
 12  2  1  0
 14 13  1  0
 14 15  1  0
 15 17  1  0
 15 16  1  1
 17 18  1  6
 18  9  1  0
 19 17  1  0
 20 19  2  0
 21 19  1  0
 22 21  1  0
 22 23  1  1
 23 24  1  0
 25 27  1  0
 25 22  1  0
 26 25  2  0
M  END
$$$$
