YIC.pdb
     RDKit          3D

 27 27  0  0  1  0  0  0  0  0999 V2000
   11.8455  -16.0303   32.3184 O   0  0  0  0  0  0  0  0  0  0  0  0
   11.3296  -16.3131   31.0804 C   0  0  0  0  0  0  0  0  0  0  0  0
   11.3160  -17.6028   30.6213 C   0  0  0  0  0  0  0  0  0  0  0  0
   10.8001  -17.9130   29.3740 C   0  0  0  0  0  0  0  0  0  0  0  0
   10.2909  -16.9130   28.5775 C   0  0  0  0  0  0  0  0  0  0  0  0
    9.7485  -17.2818   27.2521 C   0  0  0  0  0  0  0  0  0  0  0  0
    8.2418  -17.3434   27.2502 C   0  0  2  0  0  0  0  0  0  0  0  0
    7.7692  -18.6733   27.4705 N   0  0  0  0  0  0  0  0  0  0  0  0
    7.8087  -16.8268   25.8957 C   0  0  0  0  0  0  0  0  0  0  0  0
    7.4971  -17.6350   25.0160 O   0  0  0  0  0  0  0  0  0  0  0  0
   10.2911  -15.5999   29.0146 C   0  0  0  0  0  0  0  0  0  0  0  0
   10.8100  -15.3262   30.2564 C   0  0  0  0  0  0  0  0  0  0  0  0
    6.1704  -11.7518   26.2530 C   0  0  0  0  0  0  0  0  0  0  0  0
    6.0829  -13.0399   25.4700 C   0  0  0  0  0  0  0  0  0  0  0  0
    7.3798  -13.2723   24.6761 C   0  0  2  0  0  0  0  0  0  0  0  0
    7.0965  -12.6021   23.3462 C   0  0  0  0  0  0  0  0  0  0  0  0
    7.5790  -14.7446   24.4254 C   0  0  2  0  0  0  0  0  0  0  0  0
    7.7759  -15.4600   25.6866 N   0  0  0  0  0  0  0  0  0  0  0  0
    8.6573  -15.0166   23.4974 C   0  0  0  0  0  0  0  0  0  0  0  0
    9.8574  -14.5484   23.7494 O   0  0  0  0  0  0  0  0  0  0  0  0
    8.5935  -15.7510   22.3174 N   0  0  0  0  0  0  0  0  0  0  0  0
    9.7114  -15.8984   21.3948 C   0  0  1  0  0  0  0  0  0  0  0  0
   10.4443  -17.2014   21.6150 C   0  0  0  0  0  0  0  0  0  0  0  0
    9.2290  -18.3928   22.2577 S   0  0  0  0  0  0  0  0  0  0  0  0
    9.1866  -15.9309   20.0225 C   0  0  0  0  0  0  0  0  0  0  0  0
    7.9579  -15.9212   19.8065 O   0  0  0  0  0  0  0  0  0  0  0  0
   10.0439  -15.9724   18.9562 O   0  0  0  0  0  0  0  0  0  0  0  0
  2  1  1  0
  3  2  2  0
  4  3  1  0
  5 11  1  0
  5  4  2  0
  6  7  1  0
  6  5  1  0
  7  8  1  6
  9 10  2  0
  9  7  1  0
 11 12  2  0
 12  2  1  0
 14 13  1  0
 14 15  1  0
 15 17  1  0
 15 16  1  6
 17 18  1  1
 18  9  1  0
 19 17  1  0
 20 19  2  0
 21 19  1  0
 22 21  1  0
 22 23  1  1
 23 24  1  0
 25 27  1  0
 25 22  1  0
 26 25  2  0
M  END
$$$$
