YIC.pdb
     RDKit          3D

 27 27  0  0  1  0  0  0  0  0999 V2000
   12.5781  -17.7108   32.0194 O   0  0  0  0  0  0  0  0  0  0  0  0
   11.9127  -17.6737   30.8216 C   0  0  0  0  0  0  0  0  0  0  0  0
   11.8894  -18.7800   30.0155 C   0  0  0  0  0  0  0  0  0  0  0  0
   11.2237  -18.7665   28.8010 C   0  0  0  0  0  0  0  0  0  0  0  0
   10.5728  -17.6255   28.3915 C   0  0  0  0  0  0  0  0  0  0  0  0
    9.8728  -17.6482   27.0890 C   0  0  0  0  0  0  0  0  0  0  0  0
    8.4035  -17.9530   27.2371 C   0  0  2  0  0  0  0  0  0  0  0  0
    8.1458  -19.3554   27.1526 N   0  0  0  0  0  0  0  0  0  0  0  0
    7.7110  -17.2018   26.1213 C   0  0  0  0  0  0  0  0  0  0  0  0
    6.8711  -17.7889   25.4327 O   0  0  0  0  0  0  0  0  0  0  0  0
   10.5790  -16.4916   29.1850 C   0  0  0  0  0  0  0  0  0  0  0  0
   11.2483  -16.5381   30.3834 C   0  0  0  0  0  0  0  0  0  0  0  0
    5.7787  -11.4895   25.7185 C   0  0  0  0  0  0  0  0  0  0  0  0
    6.2195  -12.6944   24.9224 C   0  0  0  0  0  0  0  0  0  0  0  0
    7.0136  -13.6636   25.8148 C   0  0  2  0  0  0  0  0  0  0  0  0
    8.2921  -12.9013   26.1018 C   0  0  0  0  0  0  0  0  0  0  0  0
    7.3727  -14.9061   25.0418 C   0  0  2  0  0  0  0  0  0  0  0  0
    8.0430  -15.8762   25.9082 N   0  0  0  0  0  0  0  0  0  0  0  0
    8.1646  -14.6255   23.8619 C   0  0  0  0  0  0  0  0  0  0  0  0
    9.4161  -14.2541   23.9995 O   0  0  0  0  0  0  0  0  0  0  0  0
    7.7615  -14.7073   22.5328 N   0  0  0  0  0  0  0  0  0  0  0  0
    8.6701  -14.9805   21.4271 C   0  0  1  0  0  0  0  0  0  0  0  0
    8.8179  -16.4646   21.1844 C   0  0  0  0  0  0  0  0  0  0  0  0
    9.7446  -17.1442   22.5947 S   0  0  0  0  0  0  0  0  0  0  0  0
    8.1043  -14.4020   20.2004 C   0  0  0  0  0  0  0  0  0  0  0  0
    6.9642  -13.8952   20.1982 O   0  0  0  0  0  0  0  0  0  0  0  0
    8.8247  -14.4113   19.0366 O   0  0  0  0  0  0  0  0  0  0  0  0
  2  1  1  0
  3  2  2  0
  4  3  1  0
  5 11  1  0
  5  4  2  0
  6  7  1  0
  6  5  1  0
  7  8  1  6
  9 10  2  0
  9  7  1  0
 11 12  2  0
 12  2  1  0
 14 13  1  0
 14 15  1  0
 15 17  1  0
 15 16  1  6
 17 18  1  1
 18  9  1  0
 19 17  1  0
 20 19  2  0
 21 19  1  0
 22 21  1  0
 22 23  1  6
 23 24  1  0
 25 27  1  0
 25 22  1  0
 26 25  2  0
M  END
$$$$
