YIC.pdb
     RDKit          3D

 27 27  0  0  1  0  0  0  0  0999 V2000
    8.0272  -12.3725   17.8599 O   0  0  0  0  0  0  0  0  0  0  0  0
    8.0611  -13.4617   18.6913 C   0  0  0  0  0  0  0  0  0  0  0  0
    6.9695  -13.7754   19.4557 C   0  0  0  0  0  0  0  0  0  0  0  0
    6.9802  -14.8709   20.3030 C   0  0  0  0  0  0  0  0  0  0  0  0
    8.1034  -15.6617   20.3829 C   0  0  0  0  0  0  0  0  0  0  0  0
    8.0782  -16.8229   21.2983 C   0  0  0  0  0  0  0  0  0  0  0  0
    7.3055  -16.5363   22.5610 C   0  0  2  0  0  0  0  0  0  0  0  0
    6.0431  -15.9300   22.2794 N   0  0  0  0  0  0  0  0  0  0  0  0
    8.1822  -15.6167   23.3825 C   0  0  0  0  0  0  0  0  0  0  0  0
    9.1700  -15.0979   22.8541 O   0  0  0  0  0  0  0  0  0  0  0  0
    9.2222  -15.3696   19.6223 C   0  0  0  0  0  0  0  0  0  0  0  0
    9.1789  -14.2762   18.7922 C   0  0  0  0  0  0  0  0  0  0  0  0
    5.8048  -11.9539   26.0347 C   0  0  0  0  0  0  0  0  0  0  0  0
    6.9239  -12.7219   25.3731 C   0  0  0  0  0  0  0  0  0  0  0  0
    7.6207  -13.6376   26.3939 C   0  0  2  0  0  0  0  0  0  0  0  0
    8.4467  -12.6708   27.2191 C   0  0  0  0  0  0  0  0  0  0  0  0
    8.5647  -14.5774   25.6898 C   0  0  2  0  0  0  0  0  0  0  0  0
    7.8468  -15.3865   24.7044 N   0  0  0  0  0  0  0  0  0  0  0  0
    9.3136  -15.4132   26.6054 C   0  0  0  0  0  0  0  0  0  0  0  0
    8.6794  -16.3099   27.3243 O   0  0  0  0  0  0  0  0  0  0  0  0
   10.6860  -15.4004   26.8337 N   0  0  0  0  0  0  0  0  0  0  0  0
   11.3279  -16.0912   27.9443 C   0  0  1  0  0  0  0  0  0  0  0  0
   10.7194  -15.6958   29.2698 C   0  0  0  0  0  0  0  0  0  0  0  0
   11.0176  -13.9138   29.4811 S   0  0  0  0  0  0  0  0  0  0  0  0
   11.1087  -17.5360   27.7883 C   0  0  0  0  0  0  0  0  0  0  0  0
   11.6231  -18.3509   28.5807 O   0  0  0  0  0  0  0  0  0  0  0  0
   10.3324  -18.0101   26.7655 O   0  0  0  0  0  0  0  0  0  0  0  0
  2  1  1  0
  3  2  2  0
  4  3  1  0
  5 11  1  0
  5  4  2  0
  6  7  1  0
  6  5  1  0
  7  8  1  6
  9 10  2  0
  9  7  1  0
 11 12  2  0
 12  2  1  0
 14 13  1  0
 14 15  1  0
 15 17  1  0
 15 16  1  1
 17 18  1  6
 18  9  1  0
 19 17  1  0
 20 19  2  0
 21 19  1  0
 22 21  1  0
 22 23  1  1
 23 24  1  0
 25 27  1  0
 25 22  1  0
 26 25  2  0
M  END
$$$$
