YIC.pdb
     RDKit          3D

 27 27  0  0  1  0  0  0  0  0999 V2000
    1.3063  -19.7507   19.9858 O   0  0  0  0  0  0  0  0  0  0  0  0
    2.3096  -19.2425   20.7694 C   0  0  0  0  0  0  0  0  0  0  0  0
    2.5947  -17.9039   20.7360 C   0  0  0  0  0  0  0  0  0  0  0  0
    3.6036  -17.3674   21.5186 C   0  0  0  0  0  0  0  0  0  0  0  0
    4.3357  -18.1878   22.3460 C   0  0  0  0  0  0  0  0  0  0  0  0
    5.4049  -17.5797   23.1669 C   0  0  0  0  0  0  0  0  0  0  0  0
    6.2714  -16.6391   22.3680 C   0  0  2  0  0  0  0  0  0  0  0  0
    6.7795  -17.2650   21.1888 N   0  0  0  0  0  0  0  0  0  0  0  0
    7.3940  -16.2244   23.2936 C   0  0  0  0  0  0  0  0  0  0  0  0
    8.5168  -16.7117   23.1323 O   0  0  0  0  0  0  0  0  0  0  0  0
    4.0705  -19.5450   22.4011 C   0  0  0  0  0  0  0  0  0  0  0  0
    3.0635  -20.0451   21.6123 C   0  0  0  0  0  0  0  0  0  0  0  0
    6.0038  -11.6558   25.9900 C   0  0  0  0  0  0  0  0  0  0  0  0
    6.8906  -12.6164   25.2345 C   0  0  0  0  0  0  0  0  0  0  0  0
    7.3610  -13.7510   26.1605 C   0  0  2  0  0  0  0  0  0  0  0  0
    8.4259  -13.0858   27.0099 C   0  0  0  0  0  0  0  0  0  0  0  0
    8.0184  -14.8410   25.3544 C   0  0  2  0  0  0  0  0  0  0  0  0
    7.1244  -15.3088   24.2946 N   0  0  0  0  0  0  0  0  0  0  0  0
    8.4812  -15.9439   26.1713 C   0  0  0  0  0  0  0  0  0  0  0  0
    7.6036  -16.7091   26.7773 O   0  0  0  0  0  0  0  0  0  0  0  0
    9.7974  -16.3280   26.4080 N   0  0  0  0  0  0  0  0  0  0  0  0
   10.1698  -17.5164   27.1641 C   0  0  1  0  0  0  0  0  0  0  0  0
   10.8192  -18.5556   26.2798 C   0  0  0  0  0  0  0  0  0  0  0  0
   11.3798  -19.9027   27.3662 S   0  0  0  0  0  0  0  0  0  0  0  0
   11.1647  -17.1361   28.1767 C   0  0  0  0  0  0  0  0  0  0  0  0
   11.9441  -16.1816   27.9816 O   0  0  0  0  0  0  0  0  0  0  0  0
   11.2502  -17.8280   29.3546 O   0  0  0  0  0  0  0  0  0  0  0  0
  2  1  1  0
  3  2  2  0
  4  3  1  0
  5 11  1  0
  5  4  2  0
  6  7  1  0
  6  5  1  0
  7  8  1  6
  9 10  2  0
  9  7  1  0
 11 12  2  0
 12  2  1  0
 14 13  1  0
 14 15  1  0
 15 17  1  0
 15 16  1  1
 17 18  1  6
 18  9  1  0
 19 17  1  0
 20 19  2  0
 21 19  1  0
 22 21  1  0
 22 23  1  6
 23 24  1  0
 25 27  1  0
 25 22  1  0
 26 25  2  0
M  END
$$$$
