YIC.pdb
     RDKit          3D

 27 27  0  0  1  0  0  0  0  0999 V2000
    6.9954  -13.7812   15.5449 O   0  0  0  0  0  0  0  0  0  0  0  0
    7.1614  -14.0017   16.8875 C   0  0  0  0  0  0  0  0  0  0  0  0
    7.0373  -15.2670   17.3953 C   0  0  0  0  0  0  0  0  0  0  0  0
    7.2006  -15.5143   18.7482 C   0  0  0  0  0  0  0  0  0  0  0  0
    7.4927  -14.4755   19.6020 C   0  0  0  0  0  0  0  0  0  0  0  0
    7.6601  -14.7774   21.0400 C   0  0  0  0  0  0  0  0  0  0  0  0
    8.9619  -14.2469   21.5858 C   0  0  2  0  0  0  0  0  0  0  0  0
   10.0811  -14.7337   20.8436 N   0  0  0  0  0  0  0  0  0  0  0  0
    9.0221  -14.7025   23.0272 C   0  0  0  0  0  0  0  0  0  0  0  0
    9.8884  -15.5146   23.3650 O   0  0  0  0  0  0  0  0  0  0  0  0
    7.6243  -13.1857   19.1179 C   0  0  0  0  0  0  0  0  0  0  0  0
    7.4561  -12.9745   17.7712 C   0  0  0  0  0  0  0  0  0  0  0  0
    5.9932  -11.1996   26.0403 C   0  0  0  0  0  0  0  0  0  0  0  0
    7.1738  -12.0217   25.5815 C   0  0  0  0  0  0  0  0  0  0  0  0
    6.9876  -13.4950   25.9825 C   0  0  2  0  0  0  0  0  0  0  0  0
    7.1856  -13.4727   27.4852 C   0  0  0  0  0  0  0  0  0  0  0  0
    8.0795  -14.3399   25.3789 C   0  0  2  0  0  0  0  0  0  0  0  0
    8.1005  -14.1919   23.9233 N   0  0  0  0  0  0  0  0  0  0  0  0
    7.9881  -15.7342   25.7604 C   0  0  0  0  0  0  0  0  0  0  0  0
    6.9822  -16.4564   25.3250 O   0  0  0  0  0  0  0  0  0  0  0  0
    8.8707  -16.4523   26.5610 N   0  0  0  0  0  0  0  0  0  0  0  0
    8.8281  -17.9005   26.7149 C   0  0  1  0  0  0  0  0  0  0  0  0
    9.6317  -18.5964   25.6409 C   0  0  0  0  0  0  0  0  0  0  0  0
    8.6561  -18.5112   24.1078 S   0  0  0  0  0  0  0  0  0  0  0  0
    9.4412  -18.2541   28.0028 C   0  0  0  0  0  0  0  0  0  0  0  0
    9.9784  -17.3834   28.7167 O   0  0  0  0  0  0  0  0  0  0  0  0
    9.4310  -19.5514   28.4393 O   0  0  0  0  0  0  0  0  0  0  0  0
  2  1  1  0
  3  2  2  0
  4  3  1  0
  5 11  1  0
  5  4  2  0
  6  7  1  0
  6  5  1  0
  7  8  1  6
  9 10  2  0
  9  7  1  0
 11 12  2  0
 12  2  1  0
 14 13  1  0
 14 15  1  0
 15 17  1  0
 15 16  1  1
 17 18  1  6
 18  9  1  0
 19 17  1  0
 20 19  2  0
 21 19  1  0
 22 21  1  0
 22 23  1  6
 23 24  1  0
 25 27  1  0
 25 22  1  0
 26 25  2  0
M  END
$$$$
