YIC.pdb
     RDKit          3D

 27 27  0  0  1  0  0  0  0  0999 V2000
    0.9471  -20.7768   21.8366 O   0  0  0  0  0  0  0  0  0  0  0  0
    2.0776  -20.1483   22.2900 C   0  0  0  0  0  0  0  0  0  0  0  0
    1.9736  -19.0244   23.0648 C   0  0  0  0  0  0  0  0  0  0  0  0
    3.1014  -18.3721   23.5345 C   0  0  0  0  0  0  0  0  0  0  0  0
    4.3507  -18.8564   23.2212 C   0  0  0  0  0  0  0  0  0  0  0  0
    5.5320  -18.1339   23.7404 C   0  0  0  0  0  0  0  0  0  0  0  0
    5.7801  -16.8427   23.0020 C   0  0  2  0  0  0  0  0  0  0  0  0
    5.9891  -17.0662   21.6067 N   0  0  0  0  0  0  0  0  0  0  0  0
    7.0027  -16.2267   23.6460 C   0  0  0  0  0  0  0  0  0  0  0  0
    8.1072  -16.3930   23.1199 O   0  0  0  0  0  0  0  0  0  0  0  0
    4.4875  -19.9905   22.4399 C   0  0  0  0  0  0  0  0  0  0  0  0
    3.3491  -20.6136   21.9902 C   0  0  0  0  0  0  0  0  0  0  0  0
    6.0618  -11.6323   26.3763 C   0  0  0  0  0  0  0  0  0  0  0  0
    6.8769  -12.6299   25.5887 C   0  0  0  0  0  0  0  0  0  0  0  0
    7.3193  -13.7924   26.4937 C   0  0  2  0  0  0  0  0  0  0  0  0
    8.4533  -13.1913   27.3003 C   0  0  0  0  0  0  0  0  0  0  0  0
    7.8812  -14.9151   25.6604 C   0  0  2  0  0  0  0  0  0  0  0  0
    6.8423  -15.4940   24.8080 N   0  0  0  0  0  0  0  0  0  0  0  0
    8.5317  -15.9354   26.4564 C   0  0  0  0  0  0  0  0  0  0  0  0
    7.8229  -16.6337   27.3125 O   0  0  0  0  0  0  0  0  0  0  0  0
    9.8739  -16.3011   26.4310 N   0  0  0  0  0  0  0  0  0  0  0  0
   10.4264  -17.4053   27.2044 C   0  0  1  0  0  0  0  0  0  0  0  0
   11.7263  -17.9003   26.6140 C   0  0  0  0  0  0  0  0  0  0  0  0
   11.4175  -18.2335   24.8525 S   0  0  0  0  0  0  0  0  0  0  0  0
   10.7292  -16.9242   28.5596 C   0  0  0  0  0  0  0  0  0  0  0  0
   10.5810  -15.7225   28.8604 O   0  0  0  0  0  0  0  0  0  0  0  0
   11.1806  -17.7932   29.5160 O   0  0  0  0  0  0  0  0  0  0  0  0
  2  1  1  0
  3  2  2  0
  4  3  1  0
  5 11  1  0
  5  4  2  0
  6  7  1  0
  6  5  1  0
  7  8  1  6
  9 10  2  0
  9  7  1  0
 11 12  2  0
 12  2  1  0
 14 13  1  0
 14 15  1  0
 15 17  1  0
 15 16  1  1
 17 18  1  1
 18  9  1  0
 19 17  1  0
 20 19  2  0
 21 19  1  0
 22 21  1  0
 22 23  1  6
 23 24  1  0
 25 27  1  0
 25 22  1  0
 26 25  2  0
M  END
$$$$
