YIC.pdb
     RDKit          3D

 27 27  0  0  1  0  0  0  0  0999 V2000
   11.5116  -15.6889   32.1067 O   0  0  0  0  0  0  0  0  0  0  0  0
   11.0477  -16.0841   30.8789 C   0  0  0  0  0  0  0  0  0  0  0  0
   10.5860  -15.1529   29.9879 C   0  0  0  0  0  0  0  0  0  0  0  0
   10.1124  -15.5281   28.7416 C   0  0  0  0  0  0  0  0  0  0  0  0
   10.1029  -16.8575   28.3865 C   0  0  0  0  0  0  0  0  0  0  0  0
    9.5901  -17.2206   27.0477 C   0  0  0  0  0  0  0  0  0  0  0  0
    8.0876  -17.3464   27.0280 C   0  0  2  0  0  0  0  0  0  0  0  0
    7.6719  -18.7085   27.1392 N   0  0  0  0  0  0  0  0  0  0  0  0
    7.6395  -16.7437   25.7146 C   0  0  0  0  0  0  0  0  0  0  0  0
    7.1878  -17.4848   24.8366 O   0  0  0  0  0  0  0  0  0  0  0  0
   10.5633  -17.8217   29.2661 C   0  0  0  0  0  0  0  0  0  0  0  0
   11.0262  -17.4161   30.4940 C   0  0  0  0  0  0  0  0  0  0  0  0
    6.3795  -11.6224   26.4129 C   0  0  0  0  0  0  0  0  0  0  0  0
    6.1779  -12.9020   25.6370 C   0  0  0  0  0  0  0  0  0  0  0  0
    7.3507  -13.1304   24.6682 C   0  0  2  0  0  0  0  0  0  0  0  0
    6.9132  -12.3967   23.4159 C   0  0  0  0  0  0  0  0  0  0  0  0
    7.4719  -14.5947   24.3347 C   0  0  2  0  0  0  0  0  0  0  0  0
    7.7513  -15.3763   25.5398 N   0  0  0  0  0  0  0  0  0  0  0  0
    8.4538  -14.8575   23.3030 C   0  0  0  0  0  0  0  0  0  0  0  0
    9.7032  -14.5052   23.4982 O   0  0  0  0  0  0  0  0  0  0  0  0
    8.2447  -15.4712   22.0719 N   0  0  0  0  0  0  0  0  0  0  0  0
    9.3124  -15.7780   21.1291 C   0  0  1  0  0  0  0  0  0  0  0  0
    9.4981  -17.2688   20.9673 C   0  0  0  0  0  0  0  0  0  0  0  0
    9.8903  -17.9374   22.6131 S   0  0  0  0  0  0  0  0  0  0  0  0
    8.9400  -15.2488   19.8096 C   0  0  0  0  0  0  0  0  0  0  0  0
    9.7330  -15.3096   18.8484 O   0  0  0  0  0  0  0  0  0  0  0  0
    7.7107  -14.6788   19.6161 O   0  0  0  0  0  0  0  0  0  0  0  0
  2  1  1  0
  3  2  2  0
  4  3  1  0
  5 11  1  0
  5  4  2  0
  6  7  1  0
  6  5  1  0
  7  8  1  6
  9 10  2  0
  9  7  1  0
 11 12  2  0
 12  2  1  0
 14 13  1  0
 14 15  1  0
 15 17  1  0
 15 16  1  6
 17 18  1  1
 18  9  1  0
 19 17  1  0
 20 19  2  0
 21 19  1  0
 22 21  1  0
 22 23  1  6
 23 24  1  0
 25 27  1  0
 25 22  1  0
 26 25  2  0
M  END
$$$$
