YIC.pdb
     RDKit          3D

 27 27  0  0  1  0  0  0  0  0999 V2000
   12.6798  -16.1782   31.9887 O   0  0  0  0  0  0  0  0  0  0  0  0
   11.9986  -16.3635   30.8138 C   0  0  0  0  0  0  0  0  0  0  0  0
   11.9342  -17.6082   30.2473 C   0  0  0  0  0  0  0  0  0  0  0  0
   11.2519  -17.8200   29.0609 C   0  0  0  0  0  0  0  0  0  0  0  0
   10.6259  -16.7662   28.4355 C   0  0  0  0  0  0  0  0  0  0  0  0
    9.9070  -17.0302   27.1704 C   0  0  0  0  0  0  0  0  0  0  0  0
    8.4134  -17.0958   27.3668 C   0  0  2  0  0  0  0  0  0  0  0  0
    7.9949  -18.3940   27.7911 N   0  0  0  0  0  0  0  0  0  0  0  0
    7.8043  -16.7352   26.0296 C   0  0  0  0  0  0  0  0  0  0  0  0
    7.2714  -17.6203   25.3538 O   0  0  0  0  0  0  0  0  0  0  0  0
   10.6735  -15.4966   28.9842 C   0  0  0  0  0  0  0  0  0  0  0  0
   11.3584  -15.3205   30.1616 C   0  0  0  0  0  0  0  0  0  0  0  0
    6.1892  -11.7090   25.9850 C   0  0  0  0  0  0  0  0  0  0  0  0
    6.0264  -13.0650   25.3409 C   0  0  0  0  0  0  0  0  0  0  0  0
    7.2296  -13.3740   24.4337 C   0  0  2  0  0  0  0  0  0  0  0  0
    6.7839  -12.8583   23.0797 C   0  0  0  0  0  0  0  0  0  0  0  0
    7.4296  -14.8634   24.3249 C   0  0  2  0  0  0  0  0  0  0  0  0
    7.8649  -15.4199   25.6063 N   0  0  0  0  0  0  0  0  0  0  0  0
    8.3389  -15.2327   23.2597 C   0  0  0  0  0  0  0  0  0  0  0  0
    9.6213  -14.9859   23.3931 O   0  0  0  0  0  0  0  0  0  0  0  0
    8.0239  -15.8525   22.0546 N   0  0  0  0  0  0  0  0  0  0  0  0
    9.0160  -16.4352   21.1608 C   0  0  1  0  0  0  0  0  0  0  0  0
    8.3959  -17.4523   20.2312 C   0  0  0  0  0  0  0  0  0  0  0  0
    9.7056  -18.0019   19.0946 S   0  0  0  0  0  0  0  0  0  0  0  0
    9.5713  -15.3683   20.3163 C   0  0  0  0  0  0  0  0  0  0  0  0
    8.8219  -14.5820   19.7026 O   0  0  0  0  0  0  0  0  0  0  0  0
   10.9265  -15.2219   20.1908 O   0  0  0  0  0  0  0  0  0  0  0  0
  2  1  1  0
  3  2  2  0
  4  3  1  0
  5 11  1  0
  5  4  2  0
  6  7  1  0
  6  5  1  0
  7  8  1  6
  9 10  2  0
  9  7  1  0
 11 12  2  0
 12  2  1  0
 14 13  1  0
 14 15  1  0
 15 17  1  0
 15 16  1  6
 17 18  1  1
 18  9  1  0
 19 17  1  0
 20 19  2  0
 21 19  1  0
 22 21  1  0
 22 23  1  6
 23 24  1  0
 25 27  1  0
 25 22  1  0
 26 25  2  0
M  END
$$$$
