YIC.pdb
     RDKit          3D

 27 27  0  0  1  0  0  0  0  0999 V2000
   12.8168  -17.9758   32.4569 O   0  0  0  0  0  0  0  0  0  0  0  0
   12.2559  -17.6885   31.2397 C   0  0  0  0  0  0  0  0  0  0  0  0
   11.4954  -16.5608   31.0839 C   0  0  0  0  0  0  0  0  0  0  0  0
   10.9185  -16.2496   29.8639 C   0  0  0  0  0  0  0  0  0  0  0  0
   11.1087  -17.0834   28.7859 C   0  0  0  0  0  0  0  0  0  0  0  0
   10.4775  -16.7189   27.4992 C   0  0  0  0  0  0  0  0  0  0  0  0
    9.0229  -17.1128   27.4464 C   0  0  2  0  0  0  0  0  0  0  0  0
    8.8515  -18.5191   27.6296 N   0  0  0  0  0  0  0  0  0  0  0  0
    8.5249  -16.6741   26.0868 C   0  0  0  0  0  0  0  0  0  0  0  0
    8.3851  -17.5183   25.1969 O   0  0  0  0  0  0  0  0  0  0  0  0
   11.8725  -18.2305   28.9128 C   0  0  0  0  0  0  0  0  0  0  0  0
   12.4305  -18.5101   30.1363 C   0  0  0  0  0  0  0  0  0  0  0  0
    6.1705  -11.9506   26.6580 C   0  0  0  0  0  0  0  0  0  0  0  0
    6.2332  -13.2716   25.9294 C   0  0  0  0  0  0  0  0  0  0  0  0
    7.3853  -13.2661   24.9103 C   0  0  2  0  0  0  0  0  0  0  0  0
    6.7307  -12.7351   23.6504 C   0  0  0  0  0  0  0  0  0  0  0  0
    7.8469  -14.6747   24.6400 C   0  0  2  0  0  0  0  0  0  0  0  0
    8.2413  -15.3356   25.8846 N   0  0  0  0  0  0  0  0  0  0  0  0
    8.9074  -14.7402   23.6556 C   0  0  0  0  0  0  0  0  0  0  0  0
   10.1266  -14.3951   23.9985 O   0  0  0  0  0  0  0  0  0  0  0  0
    8.8071  -15.1474   22.3290 N   0  0  0  0  0  0  0  0  0  0  0  0
    9.8736  -15.8316   21.6098 C   0  0  1  0  0  0  0  0  0  0  0  0
   10.3076  -17.0893   22.3261 C   0  0  0  0  0  0  0  0  0  0  0  0
   11.5017  -17.9326   21.2434 S   0  0  0  0  0  0  0  0  0  0  0  0
    9.3636  -16.2441   20.2947 C   0  0  0  0  0  0  0  0  0  0  0  0
   10.0343  -16.0550   19.2598 O   0  0  0  0  0  0  0  0  0  0  0  0
    8.1385  -16.8450   20.1867 O   0  0  0  0  0  0  0  0  0  0  0  0
  2  1  1  0
  3  2  2  0
  4  3  1  0
  5 11  1  0
  5  4  2  0
  6  7  1  0
  6  5  1  0
  7  8  1  6
  9 10  2  0
  9  7  1  0
 11 12  2  0
 12  2  1  0
 14 13  1  0
 14 15  1  0
 15 17  1  0
 15 16  1  6
 17 18  1  1
 18  9  1  0
 19 17  1  0
 20 19  2  0
 21 19  1  0
 22 21  1  0
 22 23  1  1
 23 24  1  0
 25 27  1  0
 25 22  1  0
 26 25  2  0
M  END
$$$$
