YIC.pdb
     RDKit          3D

 27 27  0  0  1  0  0  0  0  0999 V2000
    5.4636  -19.6879   17.1988 O   0  0  0  0  0  0  0  0  0  0  0  0
    6.0202  -19.0724   18.2897 C   0  0  0  0  0  0  0  0  0  0  0  0
    7.1076  -19.6270   18.9095 C   0  0  0  0  0  0  0  0  0  0  0  0
    7.6872  -19.0236   20.0132 C   0  0  0  0  0  0  0  0  0  0  0  0
    7.1664  -17.8468   20.5004 C   0  0  0  0  0  0  0  0  0  0  0  0
    7.8114  -17.2314   21.6804 C   0  0  0  0  0  0  0  0  0  0  0  0
    7.9144  -15.7321   21.5562 C   0  0  2  0  0  0  0  0  0  0  0  0
    8.6336  -15.3493   20.3829 N   0  0  0  0  0  0  0  0  0  0  0  0
    8.6210  -15.2613   22.8084 C   0  0  0  0  0  0  0  0  0  0  0  0
    9.8495  -15.1396   22.7953 O   0  0  0  0  0  0  0  0  0  0  0  0
    6.0676  -17.2624   19.8949 C   0  0  0  0  0  0  0  0  0  0  0  0
    5.5167  -17.8864   18.8024 C   0  0  0  0  0  0  0  0  0  0  0  0
    6.0925  -11.5483   25.6519 C   0  0  0  0  0  0  0  0  0  0  0  0
    7.2105  -12.4013   25.1019 C   0  0  0  0  0  0  0  0  0  0  0  0
    7.3674  -13.6822   25.9391 C   0  0  2  0  0  0  0  0  0  0  0  0
    8.0059  -13.1826   27.2200 C   0  0  0  0  0  0  0  0  0  0  0  0
    8.3343  -14.6248   25.2707 C   0  0  2  0  0  0  0  0  0  0  0  0
    7.8642  -14.9813   23.9317 N   0  0  0  0  0  0  0  0  0  0  0  0
    8.6041  -15.8080   26.0613 C   0  0  0  0  0  0  0  0  0  0  0  0
    7.8619  -16.8776   25.8937 O   0  0  0  0  0  0  0  0  0  0  0  0
    9.5993  -15.9776   27.0188 N   0  0  0  0  0  0  0  0  0  0  0  0
   10.2772  -17.2434   27.2657 C   0  0  1  0  0  0  0  0  0  0  0  0
   11.2017  -17.6087   26.1277 C   0  0  0  0  0  0  0  0  0  0  0  0
   11.9720  -19.1995   26.5583 S   0  0  0  0  0  0  0  0  0  0  0  0
   11.1133  -17.1019   28.4660 C   0  0  0  0  0  0  0  0  0  0  0  0
   11.7252  -16.0398   28.6985 O   0  0  0  0  0  0  0  0  0  0  0  0
   11.2328  -18.1397   29.3504 O   0  0  0  0  0  0  0  0  0  0  0  0
  2  1  1  0
  3  2  2  0
  4  3  1  0
  5 11  1  0
  5  4  2  0
  6  7  1  0
  6  5  1  0
  7  8  1  6
  9 10  2  0
  9  7  1  0
 11 12  2  0
 12  2  1  0
 14 13  1  0
 14 15  1  0
 15 17  1  0
 15 16  1  1
 17 18  1  6
 18  9  1  0
 19 17  1  0
 20 19  2  0
 21 19  1  0
 22 21  1  0
 22 23  1  6
 23 24  1  0
 25 27  1  0
 25 22  1  0
 26 25  2  0
M  END
$$$$
