YIC.pdb
     RDKit          3D

 27 27  0  0  1  0  0  0  0  0999 V2000
    8.4219  -12.9365   15.3567 O   0  0  0  0  0  0  0  0  0  0  0  0
    8.1439  -13.4368   16.6022 C   0  0  0  0  0  0  0  0  0  0  0  0
    8.7108  -12.8691   17.7116 C   0  0  0  0  0  0  0  0  0  0  0  0
    8.4450  -13.3570   18.9802 C   0  0  0  0  0  0  0  0  0  0  0  0
    7.5978  -14.4301   19.1356 C   0  0  0  0  0  0  0  0  0  0  0  0
    7.3374  -14.9237   20.5051 C   0  0  0  0  0  0  0  0  0  0  0  0
    8.0991  -16.1891   20.8091 C   0  0  2  0  0  0  0  0  0  0  0  0
    7.6122  -17.2931   20.0445 N   0  0  0  0  0  0  0  0  0  0  0  0
    7.9231  -16.4314   22.2921 C   0  0  0  0  0  0  0  0  0  0  0  0
    6.8640  -16.9172   22.7000 O   0  0  0  0  0  0  0  0  0  0  0  0
    7.0098  -15.0248   18.0329 C   0  0  0  0  0  0  0  0  0  0  0  0
    7.2943  -14.5167   16.7890 C   0  0  0  0  0  0  0  0  0  0  0  0
   11.8009  -18.6739   24.7701 C   0  0  0  0  0  0  0  0  0  0  0  0
   10.3644  -18.2117   24.7197 C   0  0  0  0  0  0  0  0  0  0  0  0
   10.2662  -16.7273   25.1111 C   0  0  2  0  0  0  0  0  0  0  0  0
   10.2067  -16.7716   26.6252 C   0  0  0  0  0  0  0  0  0  0  0  0
    8.9720  -16.1417   24.6086 C   0  0  2  0  0  0  0  0  0  0  0  0
    8.9592  -16.0992   23.1460 N   0  0  0  0  0  0  0  0  0  0  0  0
    8.6886  -14.8375   25.1711 C   0  0  0  0  0  0  0  0  0  0  0  0
    9.4706  -13.8252   24.8762 O   0  0  0  0  0  0  0  0  0  0  0  0
    7.6419  -14.4908   26.0196 N   0  0  0  0  0  0  0  0  0  0  0  0
    7.4546  -13.1545   26.5692 C   0  0  1  0  0  0  0  0  0  0  0  0
    5.9987  -12.7497   26.5594 C   0  0  0  0  0  0  0  0  0  0  0  0
    5.8909  -11.1332   27.3868 S   0  0  0  0  0  0  0  0  0  0  0  0
    7.8864  -13.1598   27.9739 C   0  0  0  0  0  0  0  0  0  0  0  0
    7.8944  -14.2164   28.6374 O   0  0  0  0  0  0  0  0  0  0  0  0
    8.2881  -11.9986   28.5772 O   0  0  0  0  0  0  0  0  0  0  0  0
  2  1  1  0
  3  2  2  0
  4  3  1  0
  5 11  1  0
  5  4  2  0
  6  7  1  0
  6  5  1  0
  7  8  1  6
  9 10  2  0
  9  7  1  0
 11 12  2  0
 12  2  1  0
 14 13  1  0
 14 15  1  0
 15 17  1  0
 15 16  1  1
 17 18  1  6
 18  9  1  0
 19 17  1  0
 20 19  2  0
 21 19  1  0
 22 21  1  0
 22 23  1  1
 23 24  1  0
 25 27  1  0
 25 22  1  0
 26 25  2  0
M  END
$$$$
