YIC.pdb
     RDKit          3D

 27 27  0  0  1  0  0  0  0  0999 V2000
    5.9440  -24.1074   25.1603 O   0  0  0  0  0  0  0  0  0  0  0  0
    6.4185  -22.8234   25.0897 C   0  0  0  0  0  0  0  0  0  0  0  0
    5.5784  -21.7679   25.3230 C   0  0  0  0  0  0  0  0  0  0  0  0
    6.0349  -20.4620   25.2574 C   0  0  0  0  0  0  0  0  0  0  0  0
    7.3537  -20.2138   24.9531 C   0  0  0  0  0  0  0  0  0  0  0  0
    7.8051  -18.8069   24.8920 C   0  0  0  0  0  0  0  0  0  0  0  0
    7.1249  -18.0377   23.7877 C   0  0  2  0  0  0  0  0  0  0  0  0
    7.3029  -18.6697   22.5191 N   0  0  0  0  0  0  0  0  0  0  0  0
    7.7448  -16.6577   23.8026 C   0  0  0  0  0  0  0  0  0  0  0  0
    8.7571  -16.4464   23.1282 O   0  0  0  0  0  0  0  0  0  0  0  0
    8.2267  -21.2604   24.7122 C   0  0  0  0  0  0  0  0  0  0  0  0
    7.7421  -22.5435   24.7853 C   0  0  0  0  0  0  0  0  0  0  0  0
    6.0670  -11.2015   26.3789 C   0  0  0  0  0  0  0  0  0  0  0  0
    7.0765  -12.0292   25.6201 C   0  0  0  0  0  0  0  0  0  0  0  0
    6.5950  -13.4855   25.5038 C   0  0  2  0  0  0  0  0  0  0  0  0
    6.4237  -13.9100   26.9489 C   0  0  0  0  0  0  0  0  0  0  0  0
    7.6717  -14.3415   24.8888 C   0  0  2  0  0  0  0  0  0  0  0  0
    7.1544  -15.6737   24.5747 N   0  0  0  0  0  0  0  0  0  0  0  0
    8.8622  -14.4241   25.7097 C   0  0  0  0  0  0  0  0  0  0  0  0
    9.5748  -13.3423   25.9216 O   0  0  0  0  0  0  0  0  0  0  0  0
    9.3766  -15.5506   26.3439 N   0  0  0  0  0  0  0  0  0  0  0  0
   10.5561  -15.5299   27.1989 C   0  0  1  0  0  0  0  0  0  0  0  0
   10.1914  -15.7276   28.6520 C   0  0  0  0  0  0  0  0  0  0  0  0
    9.4486  -14.1709   29.2302 S   0  0  0  0  0  0  0  0  0  0  0  0
   11.4291  -16.6505   26.8220 C   0  0  0  0  0  0  0  0  0  0  0  0
   11.1207  -17.4155   25.8860 O   0  0  0  0  0  0  0  0  0  0  0  0
   12.5993  -16.8713   27.4968 O   0  0  0  0  0  0  0  0  0  0  0  0
  2  1  1  0
  3  2  2  0
  4  3  1  0
  5 11  1  0
  5  4  2  0
  6  7  1  0
  6  5  1  0
  7  8  1  6
  9 10  2  0
  9  7  1  0
 11 12  2  0
 12  2  1  0
 14 13  1  0
 14 15  1  0
 15 17  1  0
 15 16  1  1
 17 18  1  1
 18  9  1  0
 19 17  1  0
 20 19  2  0
 21 19  1  0
 22 21  1  0
 22 23  1  1
 23 24  1  0
 25 27  1  0
 25 22  1  0
 26 25  2  0
M  END
$$$$
