YIC.pdb
     RDKit          3D

 27 27  0  0  1  0  0  0  0  0999 V2000
    4.7314  -23.2701   15.9717 O   0  0  0  0  0  0  0  0  0  0  0  0
    5.4200  -22.3254   16.6875 C   0  0  0  0  0  0  0  0  0  0  0  0
    6.7183  -22.5557   17.0558 C   0  0  0  0  0  0  0  0  0  0  0  0
    7.4342  -21.6164   17.7792 C   0  0  0  0  0  0  0  0  0  0  0  0
    6.8368  -20.4296   18.1371 C   0  0  0  0  0  0  0  0  0  0  0  0
    7.6320  -19.4506   18.9091 C   0  0  0  0  0  0  0  0  0  0  0  0
    7.9223  -18.2009   18.1168 C   0  0  2  0  0  0  0  0  0  0  0  0
    8.6562  -18.4912   16.9261 N   0  0  0  0  0  0  0  0  0  0  0  0
    8.7131  -17.3003   19.0402 C   0  0  0  0  0  0  0  0  0  0  0  0
    9.9466  -17.3401   19.0072 O   0  0  0  0  0  0  0  0  0  0  0  0
    5.5256  -20.1685   17.7791 C   0  0  0  0  0  0  0  0  0  0  0  0
    4.8437  -21.1210   17.0619 C   0  0  0  0  0  0  0  0  0  0  0  0
    6.7819  -12.2984   19.5900 C   0  0  0  0  0  0  0  0  0  0  0  0
    7.7667  -13.4429   19.5717 C   0  0  0  0  0  0  0  0  0  0  0  0
    7.6725  -14.2504   20.8776 C   0  0  2  0  0  0  0  0  0  0  0  0
    8.2363  -13.2991   21.9145 C   0  0  0  0  0  0  0  0  0  0  0  0
    8.5735  -15.4561   20.8093 C   0  0  2  0  0  0  0  0  0  0  0  0
    8.0250  -16.4581   19.8948 N   0  0  0  0  0  0  0  0  0  0  0  0
    8.8445  -16.0305   22.1110 C   0  0  0  0  0  0  0  0  0  0  0  0
    7.9392  -16.7918   22.6802 O   0  0  0  0  0  0  0  0  0  0  0  0
    9.9963  -15.8842   22.8777 N   0  0  0  0  0  0  0  0  0  0  0  0
   10.4368  -16.8561   23.8697 C   0  0  1  0  0  0  0  0  0  0  0  0
   10.6948  -18.2079   23.2455 C   0  0  0  0  0  0  0  0  0  0  0  0
   11.2415  -19.3148   24.5817 S   0  0  0  0  0  0  0  0  0  0  0  0
   11.7116  -16.3996   24.4406 C   0  0  0  0  0  0  0  0  0  0  0  0
   12.6119  -15.9390   23.7100 O   0  0  0  0  0  0  0  0  0  0  0  0
   11.9300  -16.4739   25.7899 O   0  0  0  0  0  0  0  0  0  0  0  0
  2  1  1  0
  3  2  2  0
  4  3  1  0
  5 11  1  0
  5  4  2  0
  6  7  1  0
  6  5  1  0
  7  8  1  6
  9 10  2  0
  9  7  1  0
 11 12  2  0
 12  2  1  0
 14 13  1  0
 14 15  1  0
 15 17  1  0
 15 16  1  1
 17 18  1  6
 18  9  1  0
 19 17  1  0
 20 19  2  0
 21 19  1  0
 22 21  1  0
 22 23  1  6
 23 24  1  0
 25 27  1  0
 25 22  1  0
 26 25  2  0
M  END
$$$$
