YIC.pdb
     RDKit          3D

 27 27  0  0  1  0  0  0  0  0999 V2000
   13.9923  -23.5857   19.6346 O   0  0  0  0  0  0  0  0  0  0  0  0
   13.7417  -22.3432   20.1564 C   0  0  0  0  0  0  0  0  0  0  0  0
   14.4758  -21.2645   19.7421 C   0  0  0  0  0  0  0  0  0  0  0  0
   14.2409  -19.9995   20.2549 C   0  0  0  0  0  0  0  0  0  0  0  0
   13.2546  -19.8166   21.1968 C   0  0  0  0  0  0  0  0  0  0  0  0
   13.0323  -18.4520   21.7215 C   0  0  0  0  0  0  0  0  0  0  0  0
   11.9529  -17.7195   20.9651 C   0  0  2  0  0  0  0  0  0  0  0  0
   12.3958  -17.3257   19.6654 N   0  0  0  0  0  0  0  0  0  0  0  0
   11.6001  -16.5154   21.8104 C   0  0  0  0  0  0  0  0  0  0  0  0
   12.2098  -15.4567   21.6322 O   0  0  0  0  0  0  0  0  0  0  0  0
   12.4961  -20.8881   21.6350 C   0  0  0  0  0  0  0  0  0  0  0  0
   12.7545  -22.1292   21.1065 C   0  0  0  0  0  0  0  0  0  0  0  0
    6.7174  -13.6577   23.4264 C   0  0  0  0  0  0  0  0  0  0  0  0
    8.0581  -14.0918   23.9687 C   0  0  0  0  0  0  0  0  0  0  0  0
    8.6471  -15.2169   23.1008 C   0  0  2  0  0  0  0  0  0  0  0  0
    7.7136  -16.3819   23.3638 C   0  0  0  0  0  0  0  0  0  0  0  0
   10.0183  -15.5939   23.5989 C   0  0  2  0  0  0  0  0  0  0  0  0
   10.6017  -16.6407   22.7593 N   0  0  0  0  0  0  0  0  0  0  0  0
   10.0231  -15.9811   24.9946 C   0  0  0  0  0  0  0  0  0  0  0  0
    9.9877  -17.2548   25.3097 O   0  0  0  0  0  0  0  0  0  0  0  0
   10.0704  -15.1442   26.1051 N   0  0  0  0  0  0  0  0  0  0  0  0
   10.2540  -15.6203   27.4697 C   0  0  1  0  0  0  0  0  0  0  0  0
   10.0564  -14.5103   28.4758 C   0  0  0  0  0  0  0  0  0  0  0  0
   11.1186  -13.1275   27.9574 S   0  0  0  0  0  0  0  0  0  0  0  0
    9.2336  -16.6393   27.7528 C   0  0  0  0  0  0  0  0  0  0  0  0
    8.2453  -16.7809   27.0047 O   0  0  0  0  0  0  0  0  0  0  0  0
    9.3543  -17.4518   28.8478 O   0  0  0  0  0  0  0  0  0  0  0  0
  2  1  1  0
  3  2  2  0
  4  3  1  0
  5 11  1  0
  5  4  2  0
  6  7  1  0
  6  5  1  0
  7  8  1  6
  9 10  2  0
  9  7  1  0
 11 12  2  0
 12  2  1  0
 14 13  1  0
 14 15  1  0
 15 17  1  0
 15 16  1  1
 17 18  1  6
 18  9  1  0
 19 17  1  0
 20 19  2  0
 21 19  1  0
 22 21  1  0
 22 23  1  1
 23 24  1  0
 25 27  1  0
 25 22  1  0
 26 25  2  0
M  END
$$$$
