SYY.pdb
     RDKit          3D

 31 32  0  0  1  0  0  0  0  0999 V2000
   10.5174  -20.3825   21.0524 O   0  0  0  0  0  0  0  0  0  0  0  0
    9.8224  -19.2754   21.5072 C   0  0  0  0  0  0  0  0  0  0  0  0
    9.4559  -18.3354   20.3649 C   0  0  2  0  0  0  0  0  0  0  0  0
   10.2248  -18.6549   19.2011 N   0  0  0  0  0  0  0  0  0  0  0  0
    9.6721  -16.9421   20.8009 C   0  0  0  0  0  0  0  0  0  0  0  0
   10.6849  -16.2979   20.3809 O   0  0  0  0  0  0  0  0  0  0  0  0
    6.5133  -13.7690   16.3097 O   0  0  0  0  0  0  0  0  0  0  0  0
    6.8184  -13.8319   17.6686 C   0  0  0  0  0  0  0  0  0  0  0  0
    7.6680  -12.9119   18.2691 C   0  0  0  0  0  0  0  0  0  0  0  0
    7.9860  -12.9495   19.6035 C   0  0  0  0  0  0  0  0  0  0  0  0
    7.4418  -13.9445   20.3980 C   0  0  0  0  0  0  0  0  0  0  0  0
    7.7420  -14.0426   21.8481 C   0  0  0  0  0  0  0  0  0  0  0  0
    9.0169  -14.8464   21.9821 C   0  0  2  0  0  0  0  0  0  0  0  0
    8.8124  -16.2407   21.6799 N   0  0  0  0  0  0  0  0  0  0  0  0
    9.5360  -14.7747   23.3967 C   0  0  0  0  0  0  0  0  0  0  0  0
    9.5504  -13.6835   24.0222 O   0  0  0  0  0  0  0  0  0  0  0  0
    6.5820  -14.8939   19.8433 C   0  0  0  0  0  0  0  0  0  0  0  0
    6.2982  -14.8063   18.4951 C   0  0  0  0  0  0  0  0  0  0  0  0
   10.8082  -15.3382   31.7517 O   0  0  0  0  0  0  0  0  0  0  0  0
   10.4305  -15.3464   30.4085 C   0  0  0  0  0  0  0  0  0  0  0  0
   10.0556  -16.5194   29.7889 C   0  0  0  0  0  0  0  0  0  0  0  0
    9.6810  -16.5316   28.4598 C   0  0  0  0  0  0  0  0  0  0  0  0
    9.6557  -15.3993   27.6746 C   0  0  0  0  0  0  0  0  0  0  0  0
    9.2627  -15.4064   26.2485 C   0  0  0  0  0  0  0  0  0  0  0  0
   10.4742  -15.8420   25.4174 C   0  0  2  0  0  0  0  0  0  0  0  0
   10.0154  -15.9441   24.0383 N   0  0  0  0  0  0  0  0  0  0  0  0
   11.0772  -17.0956   25.8807 C   0  0  0  0  0  0  0  0  0  0  0  0
   10.5580  -18.3241   25.4460 O   0  0  0  0  0  0  0  0  0  0  0  0
   10.0392  -14.2151   28.3183 C   0  0  0  0  0  0  0  0  0  0  0  0
   10.4132  -14.1997   29.6446 C   0  0  0  0  0  0  0  0  0  0  0  0
   12.0550  -17.1315   26.6632 O   0  0  0  0  0  0  0  0  0  0  0  0
  2  1  1  0
  3  5  1  0
  3  2  1  0
  3  4  1  6
  5  6  2  0
  8  7  1  0
  8  9  2  0
 10  9  1  0
 11 10  2  0
 12 11  1  0
 13 12  1  1
 14 13  1  0
 14  5  1  0
 15 16  2  0
 15 13  1  0
 17 18  2  0
 17 11  1  0
 18  8  1  0
 19 20  1  0
 20 30  2  0
 21 22  2  0
 21 20  1  0
 22 23  1  0
 23 24  1  0
 23 29  2  0
 25 24  1  1
 25 27  1  0
 25 26  1  0
 26 15  1  0
 27 28  1  0
 30 29  1  0
 31 27  2  0
M  END
$$$$
