SYY.pdb
     RDKit          3D

 31 32  0  0  1  0  0  0  0  0999 V2000
    7.9589  -20.8018   21.4662 O   0  0  0  0  0  0  0  0  0  0  0  0
    8.1458  -19.5329   21.9865 C   0  0  0  0  0  0  0  0  0  0  0  0
    8.2720  -18.4879   20.8843 C   0  0  2  0  0  0  0  0  0  0  0  0
    8.9605  -19.0426   19.7592 N   0  0  0  0  0  0  0  0  0  0  0  0
    8.9660  -17.3023   21.4234 C   0  0  0  0  0  0  0  0  0  0  0  0
   10.1950  -17.1133   21.1569 O   0  0  0  0  0  0  0  0  0  0  0  0
    7.4838  -13.1191   16.9475 O   0  0  0  0  0  0  0  0  0  0  0  0
    7.6659  -13.3114   18.3163 C   0  0  0  0  0  0  0  0  0  0  0  0
    6.7492  -14.0198   19.0821 C   0  0  0  0  0  0  0  0  0  0  0  0
    6.9025  -14.2244   20.4304 C   0  0  0  0  0  0  0  0  0  0  0  0
    8.0173  -13.7064   21.0679 C   0  0  0  0  0  0  0  0  0  0  0  0
    8.2461  -13.8920   22.5225 C   0  0  0  0  0  0  0  0  0  0  0  0
    9.0666  -15.1531   22.6834 C   0  0  2  0  0  0  0  0  0  0  0  0
    8.3518  -16.3243   22.2419 N   0  0  0  0  0  0  0  0  0  0  0  0
    9.4139  -15.3713   24.1351 C   0  0  0  0  0  0  0  0  0  0  0  0
   10.2769  -14.6552   24.7049 O   0  0  0  0  0  0  0  0  0  0  0  0
    8.9689  -12.9866   20.3436 C   0  0  0  0  0  0  0  0  0  0  0  0
    8.7617  -12.8124   18.9899 C   0  0  0  0  0  0  0  0  0  0  0  0
    6.5138  -10.7287   26.7518 O   0  0  0  0  0  0  0  0  0  0  0  0
    6.8306  -12.0855   26.8276 C   0  0  0  0  0  0  0  0  0  0  0  0
    5.9337  -13.0434   26.4053 C   0  0  0  0  0  0  0  0  0  0  0  0
    6.2435  -14.3870   26.4785 C   0  0  0  0  0  0  0  0  0  0  0  0
    7.4430  -14.8572   26.9678 C   0  0  0  0  0  0  0  0  0  0  0  0
    7.7785  -16.2952   27.0559 C   0  0  0  0  0  0  0  0  0  0  0  0
    9.0845  -16.5328   26.2903 C   0  0  2  0  0  0  0  0  0  0  0  0
    8.7667  -16.3921   24.8754 N   0  0  0  0  0  0  0  0  0  0  0  0
    9.7004  -17.8316   26.5796 C   0  0  0  0  0  0  0  0  0  0  0  0
    9.9359  -18.7414   25.5381 O   0  0  0  0  0  0  0  0  0  0  0  0
    8.3442  -13.8719   27.3929 C   0  0  0  0  0  0  0  0  0  0  0  0
    8.0379  -12.5301   27.3208 C   0  0  0  0  0  0  0  0  0  0  0  0
   10.0363  -18.1830   27.7343 O   0  0  0  0  0  0  0  0  0  0  0  0
  2  1  1  0
  3  5  1  0
  3  2  1  0
  3  4  1  6
  5  6  2  0
  8  7  1  0
  8  9  2  0
 10  9  1  0
 11 10  2  0
 12 11  1  0
 13 12  1  1
 14 13  1  0
 14  5  1  0
 15 16  2  0
 15 13  1  0
 17 18  2  0
 17 11  1  0
 18  8  1  0
 19 20  1  0
 20 30  2  0
 21 22  2  0
 21 20  1  0
 22 23  1  0
 23 24  1  0
 23 29  2  0
 25 24  1  1
 25 27  1  0
 25 26  1  0
 26 15  1  0
 27 28  1  0
 30 29  1  0
 31 27  2  0
M  END
$$$$
