SYY.pdb
     RDKit          3D

 31 32  0  0  1  0  0  0  0  0999 V2000
   10.5449  -18.6728   15.4695 O   0  0  0  0  0  0  0  0  0  0  0  0
   11.1213  -18.0660   14.3671 C   0  0  0  0  0  0  0  0  0  0  0  0
   10.5150  -16.6931   14.1019 C   0  0  2  0  0  0  0  0  0  0  0  0
   11.3035  -15.9865   13.1394 N   0  0  0  0  0  0  0  0  0  0  0  0
   10.4152  -15.9573   15.3773 C   0  0  0  0  0  0  0  0  0  0  0  0
   11.4628  -15.4747   15.9126 O   0  0  0  0  0  0  0  0  0  0  0  0
    8.0405  -12.4530   22.9584 O   0  0  0  0  0  0  0  0  0  0  0  0
    7.9766  -12.9718   21.6659 C   0  0  0  0  0  0  0  0  0  0  0  0
    8.2709  -12.1956   20.5526 C   0  0  0  0  0  0  0  0  0  0  0  0
    8.2163  -12.6795   19.2695 C   0  0  0  0  0  0  0  0  0  0  0  0
    7.8527  -13.9994   19.0622 C   0  0  0  0  0  0  0  0  0  0  0  0
    7.7752  -14.5874   17.7017 C   0  0  0  0  0  0  0  0  0  0  0  0
    9.1752  -15.0237   17.3286 C   0  0  2  0  0  0  0  0  0  0  0  0
    9.2044  -15.7381   16.0771 N   0  0  0  0  0  0  0  0  0  0  0  0
    9.7322  -15.9529   18.3782 C   0  0  0  0  0  0  0  0  0  0  0  0
    9.5588  -17.1960   18.2945 O   0  0  0  0  0  0  0  0  0  0  0  0
    7.5469  -14.8220   20.1476 C   0  0  0  0  0  0  0  0  0  0  0  0
    7.6190  -14.2805   21.4155 C   0  0  0  0  0  0  0  0  0  0  0  0
   16.2730  -13.7752   18.3568 O   0  0  0  0  0  0  0  0  0  0  0  0
   15.2251  -14.6098   18.7470 C   0  0  0  0  0  0  0  0  0  0  0  0
   15.1822  -15.9256   18.3381 C   0  0  0  0  0  0  0  0  0  0  0  0
   14.1470  -16.7547   18.7222 C   0  0  0  0  0  0  0  0  0  0  0  0
   13.1059  -16.3372   19.5229 C   0  0  0  0  0  0  0  0  0  0  0  0
   11.9900  -17.2179   19.9321 C   0  0  0  0  0  0  0  0  0  0  0  0
   10.8816  -16.3447   20.5295 C   0  0  2  0  0  0  0  0  0  0  0  0
   10.4611  -15.4305   19.4758 N   0  0  0  0  0  0  0  0  0  0  0  0
   11.2962  -15.6237   21.7371 C   0  0  0  0  0  0  0  0  0  0  0  0
   11.2118  -14.2241   21.7797 O   0  0  0  0  0  0  0  0  0  0  0  0
   13.1634  -14.9977   19.9306 C   0  0  0  0  0  0  0  0  0  0  0  0
   14.1954  -14.1679   19.5490 C   0  0  0  0  0  0  0  0  0  0  0  0
   11.7328  -16.2028   22.7587 O   0  0  0  0  0  0  0  0  0  0  0  0
  2  1  1  0
  3  5  1  0
  3  2  1  0
  3  4  1  6
  5  6  2  0
  8  7  1  0
  8  9  2  0
 10  9  1  0
 11 10  2  0
 12 11  1  0
 13 12  1  1
 14 13  1  0
 14  5  1  0
 15 16  2  0
 15 13  1  0
 17 18  2  0
 17 11  1  0
 18  8  1  0
 19 20  1  0
 20 30  2  0
 21 22  2  0
 21 20  1  0
 22 23  1  0
 23 24  1  0
 23 29  2  0
 25 24  1  6
 25 27  1  0
 25 26  1  0
 26 15  1  0
 27 28  1  0
 30 29  1  0
 31 27  2  0
M  END
$$$$
