SYY.pdb
     RDKit          3D

 31 32  0  0  1  0  0  0  0  0999 V2000
    9.0162  -19.9879   22.6316 O   0  0  0  0  0  0  0  0  0  0  0  0
    7.8435  -19.5327   22.0543 C   0  0  0  0  0  0  0  0  0  0  0  0
    8.1213  -18.6115   20.8723 C   0  0  2  0  0  0  0  0  0  0  0  0
    8.8765  -19.3069   19.8754 N   0  0  0  0  0  0  0  0  0  0  0  0
    8.8262  -17.4085   21.3559 C   0  0  0  0  0  0  0  0  0  0  0  0
   10.0508  -17.2321   21.0622 O   0  0  0  0  0  0  0  0  0  0  0  0
    7.3921  -13.3639   16.7583 O   0  0  0  0  0  0  0  0  0  0  0  0
    7.5862  -13.5072   18.1315 C   0  0  0  0  0  0  0  0  0  0  0  0
    8.6766  -12.9392   18.7775 C   0  0  0  0  0  0  0  0  0  0  0  0
    8.8929  -13.0639   20.1270 C   0  0  0  0  0  0  0  0  0  0  0  0
    7.9907  -13.7859   20.8900 C   0  0  0  0  0  0  0  0  0  0  0  0
    8.1630  -13.9586   22.3540 C   0  0  0  0  0  0  0  0  0  0  0  0
    8.9602  -15.2283   22.5583 C   0  0  2  0  0  0  0  0  0  0  0  0
    8.2275  -16.3998   22.1483 N   0  0  0  0  0  0  0  0  0  0  0  0
    9.2955  -15.4080   24.0180 C   0  0  0  0  0  0  0  0  0  0  0  0
   10.0699  -14.6082   24.6035 O   0  0  0  0  0  0  0  0  0  0  0  0
    6.8781  -14.3768   20.2891 C   0  0  0  0  0  0  0  0  0  0  0  0
    6.7122  -14.2179   18.9278 C   0  0  0  0  0  0  0  0  0  0  0  0
    6.2076  -10.8668   26.8116 O   0  0  0  0  0  0  0  0  0  0  0  0
    6.5470  -12.2202   26.8245 C   0  0  0  0  0  0  0  0  0  0  0  0
    7.7590  -12.6382   27.3311 C   0  0  0  0  0  0  0  0  0  0  0  0
    8.0985  -13.9766   27.3457 C   0  0  0  0  0  0  0  0  0  0  0  0
    7.2705  -14.9683   26.8660 C   0  0  0  0  0  0  0  0  0  0  0  0
    7.6308  -16.4030   26.8718 C   0  0  0  0  0  0  0  0  0  0  0  0
    8.9896  -16.5610   26.1813 C   0  0  2  0  0  0  0  0  0  0  0  0
    8.7372  -16.4869   24.7482 N   0  0  0  0  0  0  0  0  0  0  0  0
    9.6861  -17.7991   26.5442 C   0  0  0  0  0  0  0  0  0  0  0  0
   10.0167  -18.7327   25.5508 O   0  0  0  0  0  0  0  0  0  0  0  0
    6.0423  -14.5281   26.3546 C   0  0  0  0  0  0  0  0  0  0  0  0
    5.7006  -13.1931   26.3388 C   0  0  0  0  0  0  0  0  0  0  0  0
   10.0105  -18.0768   27.7221 O   0  0  0  0  0  0  0  0  0  0  0  0
  2  1  1  0
  3  5  1  0
  3  2  1  0
  3  4  1  6
  5  6  2  0
  8  7  1  0
  8  9  2  0
 10  9  1  0
 11 10  2  0
 12 11  1  0
 13 12  1  1
 14 13  1  0
 14  5  1  0
 15 16  2  0
 15 13  1  0
 17 18  2  0
 17 11  1  0
 18  8  1  0
 19 20  1  0
 20 30  2  0
 21 22  2  0
 21 20  1  0
 22 23  1  0
 23 24  1  0
 23 29  2  0
 25 24  1  1
 25 27  1  0
 25 26  1  0
 26 15  1  0
 27 28  1  0
 30 29  1  0
 31 27  2  0
M  END
$$$$
