SYY.pdb
     RDKit          3D

 31 32  0  0  1  0  0  0  0  0999 V2000
   12.8867  -19.3880   20.7014 O   0  0  0  0  0  0  0  0  0  0  0  0
   11.8225  -18.9438   21.4667 C   0  0  0  0  0  0  0  0  0  0  0  0
   11.2749  -17.6186   20.9500 C   0  0  2  0  0  0  0  0  0  0  0  0
   12.3462  -16.7969   20.4759 N   0  0  0  0  0  0  0  0  0  0  0  0
   10.5132  -16.9600   22.0290 C   0  0  0  0  0  0  0  0  0  0  0  0
   11.0533  -16.0301   22.7077 O   0  0  0  0  0  0  0  0  0  0  0  0
    7.5683  -12.3999   18.7914 O   0  0  0  0  0  0  0  0  0  0  0  0
    7.4438  -13.3389   19.8145 C   0  0  0  0  0  0  0  0  0  0  0  0
    7.1941  -14.6789   19.5488 C   0  0  0  0  0  0  0  0  0  0  0  0
    7.0668  -15.6246   20.5351 C   0  0  0  0  0  0  0  0  0  0  0  0
    7.1909  -15.2381   21.8589 C   0  0  0  0  0  0  0  0  0  0  0  0
    7.0663  -16.2089   22.9746 C   0  0  0  0  0  0  0  0  0  0  0  0
    8.4712  -16.5696   23.4053 C   0  0  2  0  0  0  0  0  0  0  0  0
    9.1830  -17.2920   22.3812 N   0  0  0  0  0  0  0  0  0  0  0  0
    8.4344  -17.4572   24.6245 C   0  0  0  0  0  0  0  0  0  0  0  0
    8.8083  -18.6565   24.5588 O   0  0  0  0  0  0  0  0  0  0  0  0
    7.4420  -13.9030   22.1798 C   0  0  0  0  0  0  0  0  0  0  0  0
    7.5604  -12.9961   21.1457 C   0  0  0  0  0  0  0  0  0  0  0  0
   12.2126  -13.4806   28.7893 O   0  0  0  0  0  0  0  0  0  0  0  0
   11.1078  -14.3224   28.6556 C   0  0  0  0  0  0  0  0  0  0  0  0
   11.2067  -15.6665   28.9452 C   0  0  0  0  0  0  0  0  0  0  0  0
   10.1157  -16.5028   28.8142 C   0  0  0  0  0  0  0  0  0  0  0  0
    8.8782  -16.0653   28.3941 C   0  0  0  0  0  0  0  0  0  0  0  0
    7.7074  -16.9569   28.2445 C   0  0  0  0  0  0  0  0  0  0  0  0
    7.9290  -17.8401   27.0121 C   0  0  2  0  0  0  0  0  0  0  0  0
    7.9753  -16.9447   25.8636 N   0  0  0  0  0  0  0  0  0  0  0  0
    6.9057  -18.8773   26.8480 C   0  0  0  0  0  0  0  0  0  0  0  0
    6.9146  -20.0065   27.6802 O   0  0  0  0  0  0  0  0  0  0  0  0
    8.7933  -14.6970   28.1038 C   0  0  0  0  0  0  0  0  0  0  0  0
    9.8803  -13.8599   28.2337 C   0  0  0  0  0  0  0  0  0  0  0  0
    6.0009  -18.8094   25.9840 O   0  0  0  0  0  0  0  0  0  0  0  0
  2  1  1  0
  3  5  1  0
  3  2  1  0
  3  4  1  1
  5  6  2  0
  8  7  1  0
  8  9  2  0
 10  9  1  0
 11 10  2  0
 12 11  1  0
 13 12  1  6
 14 13  1  0
 14  5  1  0
 15 16  2  0
 15 13  1  0
 17 18  2  0
 17 11  1  0
 18  8  1  0
 19 20  1  0
 20 30  2  0
 21 22  2  0
 21 20  1  0
 22 23  1  0
 23 24  1  0
 23 29  2  0
 25 24  1  1
 25 27  1  0
 25 26  1  0
 26 15  1  0
 27 28  1  0
 30 29  1  0
 31 27  2  0
M  END
$$$$
