SYY.pdb
     RDKit          3D

 31 32  0  0  1  0  0  0  0  0999 V2000
    7.1589  -20.0687   21.7399 O   0  0  0  0  0  0  0  0  0  0  0  0
    5.8859  -19.9673   21.2062 C   0  0  0  0  0  0  0  0  0  0  0  0
    4.8934  -19.4178   22.2240 C   0  0  2  0  0  0  0  0  0  0  0  0
    3.6026  -19.2758   21.6230 N   0  0  0  0  0  0  0  0  0  0  0  0
    5.4011  -18.1339   22.7455 C   0  0  0  0  0  0  0  0  0  0  0  0
    5.2219  -17.0656   22.0795 O   0  0  0  0  0  0  0  0  0  0  0  0
    7.8875  -11.1941   27.1554 O   0  0  0  0  0  0  0  0  0  0  0  0
    7.5245  -12.5053   26.8507 C   0  0  0  0  0  0  0  0  0  0  0  0
    6.2557  -12.8213   26.3828 C   0  0  0  0  0  0  0  0  0  0  0  0
    5.8709  -14.1022   26.0752 C   0  0  0  0  0  0  0  0  0  0  0  0
    6.7794  -15.1350   26.2341 C   0  0  0  0  0  0  0  0  0  0  0  0
    6.4301  -16.5425   25.9186 C   0  0  0  0  0  0  0  0  0  0  0  0
    6.5740  -16.7087   24.4216 C   0  0  2  0  0  0  0  0  0  0  0  0
    6.0958  -17.9913   23.9705 N   0  0  0  0  0  0  0  0  0  0  0  0
    8.0252  -16.6147   24.0205 C   0  0  0  0  0  0  0  0  0  0  0  0
    8.7892  -17.6078   24.1320 O   0  0  0  0  0  0  0  0  0  0  0  0
    8.0679  -14.8708   26.7012 C   0  0  0  0  0  0  0  0  0  0  0  0
    8.3986  -13.5629   26.9946 C   0  0  0  0  0  0  0  0  0  0  0  0
    7.1048  -14.2710   17.4838 O   0  0  0  0  0  0  0  0  0  0  0  0
    7.8468  -14.2217   18.6645 C   0  0  0  0  0  0  0  0  0  0  0  0
    7.4644  -13.4003   19.7035 C   0  0  0  0  0  0  0  0  0  0  0  0
    8.1960  -13.3488   20.8735 C   0  0  0  0  0  0  0  0  0  0  0  0
    9.3346  -14.0965   21.0827 C   0  0  0  0  0  0  0  0  0  0  0  0
   10.1271  -14.0407   22.3305 C   0  0  0  0  0  0  0  0  0  0  0  0
    9.9366  -15.3628   23.0815 C   0  0  2  0  0  0  0  0  0  0  0  0
    8.5447  -15.3985   23.5109 N   0  0  0  0  0  0  0  0  0  0  0  0
   10.8555  -15.5273   24.2121 C   0  0  0  0  0  0  0  0  0  0  0  0
   12.2366  -15.6185   23.9834 O   0  0  0  0  0  0  0  0  0  0  0  0
    9.7105  -14.9264   20.0179 C   0  0  0  0  0  0  0  0  0  0  0  0
    8.9823  -14.9801   18.8492 C   0  0  0  0  0  0  0  0  0  0  0  0
   10.4662  -15.5927   25.4011 O   0  0  0  0  0  0  0  0  0  0  0  0
  2  1  1  0
  3  5  1  0
  3  2  1  0
  3  4  1  6
  5  6  2  0
  8  7  1  0
  8  9  2  0
 10  9  1  0
 11 10  2  0
 12 11  1  0
 13 12  1  1
 14 13  1  0
 14  5  1  0
 15 16  2  0
 15 13  1  0
 17 18  2  0
 17 11  1  0
 18  8  1  0
 19 20  1  0
 20 30  2  0
 21 22  2  0
 21 20  1  0
 22 23  1  0
 23 24  1  0
 23 29  2  0
 25 24  1  1
 25 27  1  0
 25 26  1  0
 26 15  1  0
 27 28  1  0
 30 29  1  0
 31 27  2  0
M  END
$$$$
