SYY.pdb
     RDKit          3D

 31 32  0  0  1  0  0  0  0  0999 V2000
   13.4276  -17.7372   20.0033 O   0  0  0  0  0  0  0  0  0  0  0  0
   13.8998  -16.6173   19.3411 C   0  0  0  0  0  0  0  0  0  0  0  0
   12.7618  -15.7006   18.9082 C   0  0  2  0  0  0  0  0  0  0  0  0
   13.2832  -14.5753   18.1944 N   0  0  0  0  0  0  0  0  0  0  0  0
   11.9966  -15.2883   20.1009 C   0  0  0  0  0  0  0  0  0  0  0  0
   12.3980  -14.3058   20.8013 O   0  0  0  0  0  0  0  0  0  0  0  0
    7.9272  -12.0216   17.0413 O   0  0  0  0  0  0  0  0  0  0  0  0
    8.1072  -12.8446   18.1522 C   0  0  0  0  0  0  0  0  0  0  0  0
    8.1667  -14.2271   18.0342 C   0  0  0  0  0  0  0  0  0  0  0  0
    8.3428  -15.0614   19.1095 C   0  0  0  0  0  0  0  0  0  0  0  0
    8.4683  -14.5124   20.3745 C   0  0  0  0  0  0  0  0  0  0  0  0
    8.6626  -15.3560   21.5801 C   0  0  0  0  0  0  0  0  0  0  0  0
   10.1548  -15.5259   21.7646 C   0  0  2  0  0  0  0  0  0  0  0  0
   10.8101  -15.9210   20.5431 N   0  0  0  0  0  0  0  0  0  0  0  0
   10.4383  -16.6016   22.7833 C   0  0  0  0  0  0  0  0  0  0  0  0
   10.2274  -17.8126   22.5160 O   0  0  0  0  0  0  0  0  0  0  0  0
    8.4154  -13.1284   20.5475 C   0  0  0  0  0  0  0  0  0  0  0  0
    8.2363  -12.3389   19.4292 C   0  0  0  0  0  0  0  0  0  0  0  0
   16.9767  -15.3204   23.3976 O   0  0  0  0  0  0  0  0  0  0  0  0
   15.8115  -16.0457   23.6487 C   0  0  0  0  0  0  0  0  0  0  0  0
   14.7364  -15.4563   24.2791 C   0  0  0  0  0  0  0  0  0  0  0  0
   13.5815  -16.1707   24.5293 C   0  0  0  0  0  0  0  0  0  0  0  0
   13.4232  -17.4933   24.1760 C   0  0  0  0  0  0  0  0  0  0  0  0
   12.1918  -18.2666   24.4475 C   0  0  0  0  0  0  0  0  0  0  0  0
   11.1466  -17.3153   25.0398 C   0  0  2  0  0  0  0  0  0  0  0  0
   10.9483  -16.2556   24.0597 N   0  0  0  0  0  0  0  0  0  0  0  0
   11.5264  -16.7763   26.3494 C   0  0  0  0  0  0  0  0  0  0  0  0
   11.8471  -17.6499   27.3990 O   0  0  0  0  0  0  0  0  0  0  0  0
   14.5242  -18.0785   23.5361 C   0  0  0  0  0  0  0  0  0  0  0  0
   15.6780  -17.3680   23.2849 C   0  0  0  0  0  0  0  0  0  0  0  0
   11.5817  -15.5478   26.5892 O   0  0  0  0  0  0  0  0  0  0  0  0
  2  1  1  0
  3  5  1  0
  3  2  1  0
  3  4  1  1
  5  6  2  0
  8  7  1  0
  8  9  2  0
 10  9  1  0
 11 10  2  0
 12 11  1  0
 13 12  1  6
 14 13  1  0
 14  5  1  0
 15 16  2  0
 15 13  1  0
 17 18  2  0
 17 11  1  0
 18  8  1  0
 19 20  1  0
 20 30  2  0
 21 22  2  0
 21 20  1  0
 22 23  1  0
 23 24  1  0
 23 29  2  0
 25 24  1  6
 25 27  1  0
 25 26  1  0
 26 15  1  0
 27 28  1  0
 30 29  1  0
 31 27  2  0
M  END
$$$$
