SYY.pdb
     RDKit          3D

 31 32  0  0  1  0  0  0  0  0999 V2000
   12.3203  -15.8983   19.0319 O   0  0  0  0  0  0  0  0  0  0  0  0
   12.4103  -17.1766   18.5088 C   0  0  0  0  0  0  0  0  0  0  0  0
   11.0350  -17.7475   18.1840 C   0  0  2  0  0  0  0  0  0  0  0  0
   10.3540  -16.8912   17.2616 N   0  0  0  0  0  0  0  0  0  0  0  0
   10.2766  -17.9174   19.4386 C   0  0  0  0  0  0  0  0  0  0  0  0
    9.1744  -17.3039   19.5994 O   0  0  0  0  0  0  0  0  0  0  0  0
    6.3650  -20.9417   26.5212 O   0  0  0  0  0  0  0  0  0  0  0  0
    7.2003  -20.8213   25.4114 C   0  0  0  0  0  0  0  0  0  0  0  0
    6.6915  -20.6702   24.1280 C   0  0  0  0  0  0  0  0  0  0  0  0
    7.4894  -20.5496   23.0180 C   0  0  0  0  0  0  0  0  0  0  0  0
    8.8653  -20.5782   23.1710 C   0  0  0  0  0  0  0  0  0  0  0  0
    9.7862  -20.4514   22.0140 C   0  0  0  0  0  0  0  0  0  0  0  0
    9.8378  -18.9838   21.6492 C   0  0  2  0  0  0  0  0  0  0  0  0
   10.6923  -18.7374   20.5150 N   0  0  0  0  0  0  0  0  0  0  0  0
   10.3889  -18.1768   22.7984 C   0  0  0  0  0  0  0  0  0  0  0  0
   11.6298  -18.0824   22.9816 O   0  0  0  0  0  0  0  0  0  0  0  0
    9.4275  -20.7280   24.4398 C   0  0  0  0  0  0  0  0  0  0  0  0
    8.5754  -20.8448   25.5197 C   0  0  0  0  0  0  0  0  0  0  0  0
   10.9572  -14.1652   30.5557 O   0  0  0  0  0  0  0  0  0  0  0  0
   10.4553  -14.7050   29.3709 C   0  0  0  0  0  0  0  0  0  0  0  0
   10.3051  -13.9209   28.2471 C   0  0  0  0  0  0  0  0  0  0  0  0
    9.8090  -14.4514   27.0727 C   0  0  0  0  0  0  0  0  0  0  0  0
    9.4363  -15.7717   26.9417 C   0  0  0  0  0  0  0  0  0  0  0  0
    8.8972  -16.3448   25.6891 C   0  0  0  0  0  0  0  0  0  0  0  0
   10.0761  -16.7818   24.8130 C   0  0  2  0  0  0  0  0  0  0  0  0
    9.5077  -17.5130   23.6882 N   0  0  0  0  0  0  0  0  0  0  0  0
   11.0698  -17.5844   25.5329 C   0  0  0  0  0  0  0  0  0  0  0  0
   10.7346  -18.8679   25.9891 O   0  0  0  0  0  0  0  0  0  0  0  0
    9.5949  -16.5560   28.0922 C   0  0  0  0  0  0  0  0  0  0  0  0
   10.0899  -16.0294   29.2655 C   0  0  0  0  0  0  0  0  0  0  0  0
   12.2308  -17.1773   25.7694 O   0  0  0  0  0  0  0  0  0  0  0  0
  2  1  1  0
  3  5  1  0
  3  2  1  0
  3  4  1  6
  5  6  2  0
  8  7  1  0
  8  9  2  0
 10  9  1  0
 11 10  2  0
 12 11  1  0
 13 12  1  1
 14 13  1  0
 14  5  1  0
 15 16  2  0
 15 13  1  0
 17 18  2  0
 17 11  1  0
 18  8  1  0
 19 20  1  0
 20 30  2  0
 21 22  2  0
 21 20  1  0
 22 23  1  0
 23 24  1  0
 23 29  2  0
 25 24  1  1
 25 27  1  0
 25 26  1  0
 26 15  1  0
 27 28  1  0
 30 29  1  0
 31 27  2  0
M  END
$$$$
