SYY.pdb
     RDKit          3D

 31 32  0  0  1  0  0  0  0  0999 V2000
   10.9184  -18.7925   21.3829 O   0  0  0  0  0  0  0  0  0  0  0  0
    9.9802  -18.2295   20.5353 C   0  0  0  0  0  0  0  0  0  0  0  0
   10.2310  -16.7400   20.3316 C   0  0  2  0  0  0  0  0  0  0  0  0
   11.5625  -16.5280   19.8522 N   0  0  0  0  0  0  0  0  0  0  0  0
    9.9859  -16.0331   21.6038 C   0  0  0  0  0  0  0  0  0  0  0  0
   10.9647  -15.7250   22.3549 O   0  0  0  0  0  0  0  0  0  0  0  0
    6.8946  -11.6976   28.4419 O   0  0  0  0  0  0  0  0  0  0  0  0
    6.9540  -12.3467   27.2094 C   0  0  0  0  0  0  0  0  0  0  0  0
    6.4564  -13.6317   27.0367 C   0  0  0  0  0  0  0  0  0  0  0  0
    6.5015  -14.2946   25.8359 C   0  0  0  0  0  0  0  0  0  0  0  0
    7.0658  -13.6647   24.7394 C   0  0  0  0  0  0  0  0  0  0  0  0
    7.1453  -14.3229   23.4116 C   0  0  0  0  0  0  0  0  0  0  0  0
    8.5353  -14.9084   23.2912 C   0  0  2  0  0  0  0  0  0  0  0  0
    8.7037  -15.6573   22.0712 N   0  0  0  0  0  0  0  0  0  0  0  0
    8.8046  -15.8589   24.4312 C   0  0  0  0  0  0  0  0  0  0  0  0
    8.3239  -17.0213   24.4270 O   0  0  0  0  0  0  0  0  0  0  0  0
    7.5804  -12.3729   24.8599 C   0  0  0  0  0  0  0  0  0  0  0  0
    7.5075  -11.7554   26.0926 C   0  0  0  0  0  0  0  0  0  0  0  0
   15.5688  -15.9030   23.8925 O   0  0  0  0  0  0  0  0  0  0  0  0
   14.3405  -16.3222   24.4046 C   0  0  0  0  0  0  0  0  0  0  0  0
   13.7344  -15.6345   25.4343 C   0  0  0  0  0  0  0  0  0  0  0  0
   12.5188  -16.0462   25.9438 C   0  0  0  0  0  0  0  0  0  0  0  0
   11.8393  -17.1483   25.4718 C   0  0  0  0  0  0  0  0  0  0  0  0
   10.5405  -17.5992   26.0178 C   0  0  0  0  0  0  0  0  0  0  0  0
    9.8236  -16.3856   26.6190 C   0  0  2  0  0  0  0  0  0  0  0  0
    9.6072  -15.4482   25.5248 N   0  0  0  0  0  0  0  0  0  0  0  0
   10.5588  -15.7648   27.7254 C   0  0  0  0  0  0  0  0  0  0  0  0
   10.9013  -16.5268   28.8523 O   0  0  0  0  0  0  0  0  0  0  0  0
   12.4677  -17.8368   24.4254 C   0  0  0  0  0  0  0  0  0  0  0  0
   13.6807  -17.4282   23.9146 C   0  0  0  0  0  0  0  0  0  0  0  0
   10.9067  -14.5613   27.7202 O   0  0  0  0  0  0  0  0  0  0  0  0
  2  1  1  0
  3  5  1  0
  3  2  1  0
  3  4  1  1
  5  6  2  0
  8  7  1  0
  8  9  2  0
 10  9  1  0
 11 10  2  0
 12 11  1  0
 13 12  1  1
 14 13  1  0
 14  5  1  0
 15 16  2  0
 15 13  1  0
 17 18  2  0
 17 11  1  0
 18  8  1  0
 19 20  1  0
 20 30  2  0
 21 22  2  0
 21 20  1  0
 22 23  1  0
 23 24  1  0
 23 29  2  0
 25 24  1  6
 25 27  1  0
 25 26  1  0
 26 15  1  0
 27 28  1  0
 30 29  1  0
 31 27  2  0
M  END
$$$$
