SYY.pdb
     RDKit          3D

 31 32  0  0  1  0  0  0  0  0999 V2000
   12.9538  -18.2293   16.0040 O   0  0  0  0  0  0  0  0  0  0  0  0
   11.6747  -17.8063   15.6871 C   0  0  0  0  0  0  0  0  0  0  0  0
   11.5311  -16.2961   15.8339 C   0  0  2  0  0  0  0  0  0  0  0  0
   12.4748  -15.6295   14.9897 N   0  0  0  0  0  0  0  0  0  0  0  0
   11.7100  -15.9320   17.2529 C   0  0  0  0  0  0  0  0  0  0  0  0
   12.8365  -15.5039   17.6587 O   0  0  0  0  0  0  0  0  0  0  0  0
    6.2089  -11.9601   17.9378 O   0  0  0  0  0  0  0  0  0  0  0  0
    7.0556  -12.8798   18.5551 C   0  0  0  0  0  0  0  0  0  0  0  0
    6.6051  -13.7265   19.5596 C   0  0  0  0  0  0  0  0  0  0  0  0
    7.4155  -14.6408   20.1845 C   0  0  0  0  0  0  0  0  0  0  0  0
    8.7441  -14.7333   19.8056 C   0  0  0  0  0  0  0  0  0  0  0  0
    9.6748  -15.7009   20.4384 C   0  0  0  0  0  0  0  0  0  0  0  0
   10.9434  -15.6976   19.6138 C   0  0  2  0  0  0  0  0  0  0  0  0
   10.6925  -16.0243   18.2326 N   0  0  0  0  0  0  0  0  0  0  0  0
   11.9134  -16.7264   20.1395 C   0  0  0  0  0  0  0  0  0  0  0  0
   12.5604  -17.4627   19.3512 O   0  0  0  0  0  0  0  0  0  0  0  0
    9.2468  -13.9050   18.8009 C   0  0  0  0  0  0  0  0  0  0  0  0
    8.3849  -13.0042   18.2079 C   0  0  0  0  0  0  0  0  0  0  0  0
   17.2232  -14.7245   17.3484 O   0  0  0  0  0  0  0  0  0  0  0  0
   16.3393  -14.8033   18.4252 C   0  0  0  0  0  0  0  0  0  0  0  0
   15.5835  -13.7124   18.7980 C   0  0  0  0  0  0  0  0  0  0  0  0
   14.7076  -13.7865   19.8630 C   0  0  0  0  0  0  0  0  0  0  0  0
   14.5298  -14.9288   20.6131 C   0  0  0  0  0  0  0  0  0  0  0  0
   13.5989  -15.0129   21.7597 C   0  0  0  0  0  0  0  0  0  0  0  0
   13.3921  -16.4916   22.1045 C   0  0  2  0  0  0  0  0  0  0  0  0
   12.1061  -16.8736   21.5360 N   0  0  0  0  0  0  0  0  0  0  0  0
   13.4503  -16.7671   23.5434 C   0  0  0  0  0  0  0  0  0  0  0  0
   12.3337  -16.5057   24.3514 O   0  0  0  0  0  0  0  0  0  0  0  0
   15.3046  -16.0290   20.2221 C   0  0  0  0  0  0  0  0  0  0  0  0
   16.1794  -15.9582   19.1595 C   0  0  0  0  0  0  0  0  0  0  0  0
   14.4676  -17.2345   24.1058 O   0  0  0  0  0  0  0  0  0  0  0  0
  2  1  1  0
  3  5  1  0
  3  2  1  0
  3  4  1  6
  5  6  2  0
  8  7  1  0
  8  9  2  0
 10  9  1  0
 11 10  2  0
 12 11  1  0
 13 12  1  1
 14 13  1  0
 14  5  1  0
 15 16  2  0
 15 13  1  0
 17 18  2  0
 17 11  1  0
 18  8  1  0
 19 20  1  0
 20 30  2  0
 21 22  2  0
 21 20  1  0
 22 23  1  0
 23 24  1  0
 23 29  2  0
 25 24  1  1
 25 27  1  0
 25 26  1  0
 26 15  1  0
 27 28  1  0
 30 29  1  0
 31 27  2  0
M  END
$$$$
