SYY.pdb
     RDKit          3D

 31 32  0  0  1  0  0  0  0  0999 V2000
    6.4223  -19.0157   19.0242 O   0  0  0  0  0  0  0  0  0  0  0  0
    7.6006  -19.5958   19.4610 C   0  0  0  0  0  0  0  0  0  0  0  0
    7.9700  -19.1271   20.8634 C   0  0  2  0  0  0  0  0  0  0  0  0
    6.8237  -19.1858   21.7179 N   0  0  0  0  0  0  0  0  0  0  0  0
    8.5263  -17.7625   20.7831 C   0  0  0  0  0  0  0  0  0  0  0  0
    9.5248  -17.5298   20.0307 O   0  0  0  0  0  0  0  0  0  0  0  0
    6.5215  -14.0486   27.1633 O   0  0  0  0  0  0  0  0  0  0  0  0
    6.7714  -14.1036   25.7928 C   0  0  0  0  0  0  0  0  0  0  0  0
    6.6079  -15.2768   25.0677 C   0  0  0  0  0  0  0  0  0  0  0  0
    6.8464  -15.3602   23.7188 C   0  0  0  0  0  0  0  0  0  0  0  0
    7.2694  -14.2308   23.0385 C   0  0  0  0  0  0  0  0  0  0  0  0
    7.5436  -14.2503   21.5800 C   0  0  0  0  0  0  0  0  0  0  0  0
    8.5734  -15.3323   21.3384 C   0  0  2  0  0  0  0  0  0  0  0  0
    8.0198  -16.6530   21.5016 N   0  0  0  0  0  0  0  0  0  0  0  0
    9.7078  -15.2063   22.3247 C   0  0  0  0  0  0  0  0  0  0  0  0
   10.4338  -14.1792   22.3426 O   0  0  0  0  0  0  0  0  0  0  0  0
    7.4492  -13.0265   23.7208 C   0  0  0  0  0  0  0  0  0  0  0  0
    7.1940  -13.0024   25.0773 C   0  0  0  0  0  0  0  0  0  0  0  0
   10.6314  -15.9055   30.7431 O   0  0  0  0  0  0  0  0  0  0  0  0
   10.5295  -15.6317   29.3787 C   0  0  0  0  0  0  0  0  0  0  0  0
   10.7515  -16.6196   28.4431 C   0  0  0  0  0  0  0  0  0  0  0  0
   10.6516  -16.3527   27.0920 C   0  0  0  0  0  0  0  0  0  0  0  0
   10.3307  -15.1091   26.5922 C   0  0  0  0  0  0  0  0  0  0  0  0
   10.2292  -14.8144   25.1462 C   0  0  0  0  0  0  0  0  0  0  0  0
   10.8527  -15.9807   24.3721 C   0  0  2  0  0  0  0  0  0  0  0  0
    9.9680  -16.2510   23.2465 N   0  0  0  0  0  0  0  0  0  0  0  0
   11.0639  -17.1770   25.1932 C   0  0  0  0  0  0  0  0  0  0  0  0
   12.2135  -17.2845   25.9899 O   0  0  0  0  0  0  0  0  0  0  0  0
   10.1078  -14.1156   27.5551 C   0  0  0  0  0  0  0  0  0  0  0  0
   10.2066  -14.3791   28.9042 C   0  0  0  0  0  0  0  0  0  0  0  0
   10.2544  -18.1328   25.2234 O   0  0  0  0  0  0  0  0  0  0  0  0
  2  1  1  0
  3  5  1  0
  3  2  1  0
  3  4  1  1
  5  6  2  0
  8  7  1  0
  8  9  2  0
 10  9  1  0
 11 10  2  0
 12 11  1  0
 13 12  1  1
 14 13  1  0
 14  5  1  0
 15 16  2  0
 15 13  1  0
 17 18  2  0
 17 11  1  0
 18  8  1  0
 19 20  1  0
 20 30  2  0
 21 22  2  0
 21 20  1  0
 22 23  1  0
 23 24  1  0
 23 29  2  0
 25 24  1  1
 25 27  1  0
 25 26  1  0
 26 15  1  0
 27 28  1  0
 30 29  1  0
 31 27  2  0
M  END
$$$$
