SYY.pdb
     RDKit          3D

 31 32  0  0  1  0  0  0  0  0999 V2000
    7.6913  -21.5842   22.6287 O   0  0  0  0  0  0  0  0  0  0  0  0
    8.3403  -20.3669   22.7407 C   0  0  0  0  0  0  0  0  0  0  0  0
    8.3307  -19.6030   21.4219 C   0  0  2  0  0  0  0  0  0  0  0  0
    8.9734  -20.3753   20.4031 N   0  0  0  0  0  0  0  0  0  0  0  0
    8.9886  -18.2966   21.6185 C   0  0  0  0  0  0  0  0  0  0  0  0
   10.2460  -18.1915   21.4599 O   0  0  0  0  0  0  0  0  0  0  0  0
    7.8276  -12.5602   16.9516 O   0  0  0  0  0  0  0  0  0  0  0  0
    7.8791  -13.0802   18.2442 C   0  0  0  0  0  0  0  0  0  0  0  0
    6.7362  -13.2199   19.0207 C   0  0  0  0  0  0  0  0  0  0  0  0
    6.7570  -13.7282   20.2952 C   0  0  0  0  0  0  0  0  0  0  0  0
    7.9657  -14.1233   20.8432 C   0  0  0  0  0  0  0  0  0  0  0  0
    8.0597  -14.6827   22.2147 C   0  0  0  0  0  0  0  0  0  0  0  0
    9.0076  -15.8601   22.1476 C   0  0  2  0  0  0  0  0  0  0  0  0
    8.3084  -17.1096   21.9821 N   0  0  0  0  0  0  0  0  0  0  0  0
    9.8025  -15.9671   23.4252 C   0  0  0  0  0  0  0  0  0  0  0  0
   11.0324  -15.7037   23.4418 O   0  0  0  0  0  0  0  0  0  0  0  0
    9.1439  -14.0037   20.1044 C   0  0  0  0  0  0  0  0  0  0  0  0
    9.0618  -13.4854   18.8275 C   0  0  0  0  0  0  0  0  0  0  0  0
    5.4372  -12.0578   27.2826 O   0  0  0  0  0  0  0  0  0  0  0  0
    6.6160  -12.7456   26.9925 C   0  0  0  0  0  0  0  0  0  0  0  0
    7.5694  -12.9524   27.9665 C   0  0  0  0  0  0  0  0  0  0  0  0
    8.7372  -13.6328   27.6834 C   0  0  0  0  0  0  0  0  0  0  0  0
    9.0280  -14.1421   26.4364 C   0  0  0  0  0  0  0  0  0  0  0  0
   10.2801  -14.8653   26.1243 C   0  0  0  0  0  0  0  0  0  0  0  0
    9.9350  -16.3355   25.8643 C   0  0  2  0  0  0  0  0  0  0  0  0
    9.1666  -16.3681   24.6268 N   0  0  0  0  0  0  0  0  0  0  0  0
    9.2067  -16.9664   26.9696 C   0  0  0  0  0  0  0  0  0  0  0  0
    7.9512  -17.5477   26.7383 O   0  0  0  0  0  0  0  0  0  0  0  0
    8.0496  -13.9242   25.4571 C   0  0  0  0  0  0  0  0  0  0  0  0
    6.8831  -13.2458   25.7366 C   0  0  0  0  0  0  0  0  0  0  0  0
    9.6546  -17.0162   28.1386 O   0  0  0  0  0  0  0  0  0  0  0  0
  2  1  1  0
  3  5  1  0
  3  2  1  0
  3  4  1  6
  5  6  2  0
  8  7  1  0
  8  9  2  0
 10  9  1  0
 11 10  2  0
 12 11  1  0
 13 12  1  1
 14 13  1  0
 14  5  1  0
 15 16  2  0
 15 13  1  0
 17 18  2  0
 17 11  1  0
 18  8  1  0
 19 20  1  0
 20 30  2  0
 21 22  2  0
 21 20  1  0
 22 23  1  0
 23 24  1  0
 23 29  2  0
 25 24  1  1
 25 27  1  0
 25 26  1  0
 26 15  1  0
 27 28  1  0
 30 29  1  0
 31 27  2  0
M  END
$$$$
