SYY.pdb
     RDKit          3D

 31 32  0  0  1  0  0  0  0  0999 V2000
   11.6523  -18.3224   14.8781 O   0  0  0  0  0  0  0  0  0  0  0  0
   10.9184  -17.5173   14.0244 C   0  0  0  0  0  0  0  0  0  0  0  0
   11.3558  -16.0601   14.1138 C   0  0  2  0  0  0  0  0  0  0  0  0
   12.7380  -15.9406   13.7631 N   0  0  0  0  0  0  0  0  0  0  0  0
   11.0896  -15.5612   15.4770 C   0  0  0  0  0  0  0  0  0  0  0  0
   12.0588  -15.3401   16.2700 O   0  0  0  0  0  0  0  0  0  0  0  0
    7.5589  -12.7414   22.9028 O   0  0  0  0  0  0  0  0  0  0  0  0
    7.7225  -13.0728   21.5585 C   0  0  0  0  0  0  0  0  0  0  0  0
    7.3473  -14.3144   21.0621 C   0  0  0  0  0  0  0  0  0  0  0  0
    7.4967  -14.6679   19.7445 C   0  0  0  0  0  0  0  0  0  0  0  0
    8.0448  -13.7544   18.8599 C   0  0  0  0  0  0  0  0  0  0  0  0
    8.2329  -14.0705   17.4220 C   0  0  0  0  0  0  0  0  0  0  0  0
    9.6074  -14.6872   17.2814 C   0  0  2  0  0  0  0  0  0  0  0  0
    9.7967  -15.2998   15.9905 N   0  0  0  0  0  0  0  0  0  0  0  0
    9.8053  -15.7686   18.3144 C   0  0  0  0  0  0  0  0  0  0  0  0
    9.8593  -16.9790   17.9765 O   0  0  0  0  0  0  0  0  0  0  0  0
    8.4384  -12.4925   19.3082 C   0  0  0  0  0  0  0  0  0  0  0  0
    8.2642  -12.1927   20.6445 C   0  0  0  0  0  0  0  0  0  0  0  0
   17.2727  -15.9515   22.2079 O   0  0  0  0  0  0  0  0  0  0  0  0
   16.0537  -15.7000   21.5773 C   0  0  0  0  0  0  0  0  0  0  0  0
   15.2560  -14.6498   21.9786 C   0  0  0  0  0  0  0  0  0  0  0  0
   14.0490  -14.3976   21.3570 C   0  0  0  0  0  0  0  0  0  0  0  0
   13.5651  -15.1594   20.3155 C   0  0  0  0  0  0  0  0  0  0  0  0
   12.2698  -14.8995   19.6501 C   0  0  0  0  0  0  0  0  0  0  0  0
   11.1901  -15.7235   20.3596 C   0  0  2  0  0  0  0  0  0  0  0  0
    9.9332  -15.4283   19.6843 N   0  0  0  0  0  0  0  0  0  0  0  0
   11.1063  -15.4563   21.7988 C   0  0  0  0  0  0  0  0  0  0  0  0
   11.8635  -16.2222   22.6976 O   0  0  0  0  0  0  0  0  0  0  0  0
   14.3870  -16.2229   19.9189 C   0  0  0  0  0  0  0  0  0  0  0  0
   15.5922  -16.4769   20.5371 C   0  0  0  0  0  0  0  0  0  0  0  0
   10.3775  -14.5595   22.2828 O   0  0  0  0  0  0  0  0  0  0  0  0
  2  1  1  0
  3  5  1  0
  3  2  1  0
  3  4  1  1
  5  6  2  0
  8  7  1  0
  8  9  2  0
 10  9  1  0
 11 10  2  0
 12 11  1  0
 13 12  1  6
 14 13  1  0
 14  5  1  0
 15 16  2  0
 15 13  1  0
 17 18  2  0
 17 11  1  0
 18  8  1  0
 19 20  1  0
 20 30  2  0
 21 22  2  0
 21 20  1  0
 22 23  1  0
 23 24  1  0
 23 29  2  0
 25 24  1  6
 25 27  1  0
 25 26  1  0
 26 15  1  0
 27 28  1  0
 30 29  1  0
 31 27  2  0
M  END
$$$$
