IGH.pdb
     RDKit          3D

 23 23  0  0  1  0  0  0  0  0999 V2000
   27.6983  -15.8249  -16.1145 C   0  0  0  0  0  0  0  0  0  0  0  0
   28.1231  -17.2909  -16.0200 C   0  0  0  0  0  0  0  0  0  0  0  0
   27.0863  -18.0309  -15.2262 C   0  0  2  0  0  0  0  0  0  0  0  0
   26.8914  -17.3733  -13.8770 C   0  0  0  0  0  0  0  0  0  0  0  0
   27.2525  -19.4907  -15.1304 C   0  0  2  0  0  0  0  0  0  0  0  0
   27.7850  -20.1477  -16.3143 N   0  0  0  0  0  0  0  0  0  0  0  0
   26.2272  -20.3051  -14.4996 C   0  0  0  0  0  0  0  0  0  0  0  0
   25.2484  -20.7470  -15.1888 O   0  0  0  0  0  0  0  0  0  0  0  0
   26.2414  -20.6448  -13.1312 N   0  0  0  0  0  0  0  0  0  0  0  0
   25.1980  -21.5277  -12.5916 C   0  0  0  0  0  0  0  0  0  0  0  0
   23.8856  -20.8594  -12.5881 C   0  0  0  0  0  0  0  0  0  0  0  0
   23.6709  -19.8468  -11.8793 O   0  0  0  0  0  0  0  0  0  0  0  0
   22.8419  -21.3587  -13.3935 N   0  0  0  0  0  0  0  0  0  0  0  0
   21.5183  -20.7193  -13.4478 C   0  0  1  0  0  0  0  0  0  0  0  0
   21.2204  -20.3597  -14.8801 C   0  0  0  0  0  0  0  0  0  0  0  0
   21.8105  -19.0535  -15.2209 C   0  0  0  0  0  0  0  0  0  0  0  0
   22.3549  -18.1148  -14.3566 C   0  0  0  0  0  0  0  0  0  0  0  0
   22.7767  -17.0738  -15.0753 N   0  0  0  0  0  0  0  0  0  0  0  0
   22.5245  -17.3068  -16.3702 C   0  0  0  0  0  0  0  0  0  0  0  0
   21.9453  -18.4980  -16.4377 N   0  0  0  0  0  0  0  0  0  0  0  0
   20.4892  -21.6679  -12.9634 C   0  0  0  0  0  0  0  0  0  0  0  0
   19.2013  -21.3073  -12.6178 O   0  0  0  0  0  0  0  0  0  0  0  0
   20.8249  -22.8864  -12.8628 O   0  0  0  0  0  0  0  0  0  0  0  0
  1  2  1  0
  2  3  1  0
  3  5  1  0
  3  4  1  1
  5  7  1  0
  5  6  1  6
  7  9  1  0
  7  8  2  0
  9 10  1  0
 10 11  1  0
 11 12  2  0
 13 14  1  0
 13 11  1  0
 14 15  1  6
 16 17  2  0
 16 15  1  0
 18 17  1  0
 19 20  2  0
 19 18  1  0
 20 16  1  0
 21 22  1  0
 21 14  1  0
 23 21  2  0
M  END
$$$$
