IGH.pdb
     RDKit          3D

 23 23  0  0  1  0  0  0  0  0999 V2000
   30.2209  -14.2970  -16.9275 C   0  0  0  0  0  0  0  0  0  0  0  0
   28.8257  -13.9414  -17.4432 C   0  0  0  0  0  0  0  0  0  0  0  0
   28.3813  -12.6784  -16.7650 C   0  0  2  0  0  0  0  0  0  0  0  0
   28.3557  -12.8708  -15.2639 C   0  0  0  0  0  0  0  0  0  0  0  0
   27.1513  -12.0550  -17.2811 C   0  0  2  0  0  0  0  0  0  0  0  0
   27.0916  -11.8678  -18.7227 N   0  0  0  0  0  0  0  0  0  0  0  0
   26.5527  -10.9287  -16.5844 C   0  0  0  0  0  0  0  0  0  0  0  0
   26.0554  -11.0887  -15.4201 O   0  0  0  0  0  0  0  0  0  0  0  0
   26.4785   -9.6310  -17.1307 N   0  0  0  0  0  0  0  0  0  0  0  0
   25.8072   -8.5632  -16.3768 C   0  0  0  0  0  0  0  0  0  0  0  0
   24.3930   -8.4429  -16.7703 C   0  0  0  0  0  0  0  0  0  0  0  0
   24.0525   -8.4051  -17.9771 O   0  0  0  0  0  0  0  0  0  0  0  0
   23.3930   -8.3679  -15.7794 N   0  0  0  0  0  0  0  0  0  0  0  0
   21.9730   -8.1748  -16.1111 C   0  0  1  0  0  0  0  0  0  0  0  0
   21.2832   -9.5129  -16.0534 C   0  0  0  0  0  0  0  0  0  0  0  0
   19.8567   -9.3766  -16.3952 C   0  0  0  0  0  0  0  0  0  0  0  0
   19.2857   -8.5419  -17.3448 C   0  0  0  0  0  0  0  0  0  0  0  0
   17.9657   -8.7302  -17.3333 N   0  0  0  0  0  0  0  0  0  0  0  0
   17.6649   -9.6550  -16.4119 C   0  0  0  0  0  0  0  0  0  0  0  0
   18.8110  -10.0305  -15.8601 N   0  0  0  0  0  0  0  0  0  0  0  0
   21.3513   -7.2673  -15.1194 C   0  0  0  0  0  0  0  0  0  0  0  0
   20.3221   -6.3915  -15.4057 O   0  0  0  0  0  0  0  0  0  0  0  0
   21.8025   -7.3054  -13.9351 O   0  0  0  0  0  0  0  0  0  0  0  0
  1  2  1  0
  2  3  1  0
  3  5  1  0
  3  4  1  1
  5  7  1  0
  5  6  1  6
  7  9  1  0
  7  8  2  0
  9 10  1  0
 10 11  1  0
 11 12  2  0
 13 14  1  0
 13 11  1  0
 14 15  1  1
 16 17  2  0
 16 15  1  0
 18 17  1  0
 19 20  2  0
 19 18  1  0
 20 16  1  0
 21 22  1  0
 21 14  1  0
 23 21  2  0
M  END
$$$$
