IGH.pdb
     RDKit          3D

 23 23  0  0  1  0  0  0  0  0999 V2000
   26.4760  -19.8676   -7.2710 C   0  0  0  0  0  0  0  0  0  0  0  0
   26.7173  -20.9362   -8.3380 C   0  0  0  0  0  0  0  0  0  0  0  0
   26.0986  -20.4668   -9.6223 C   0  0  2  0  0  0  0  0  0  0  0  0
   24.6076  -20.2749   -9.4462 C   0  0  0  0  0  0  0  0  0  0  0  0
   26.4358  -21.2357  -10.8318 C   0  0  2  0  0  0  0  0  0  0  0  0
   27.7187  -21.9214  -10.8107 N   0  0  0  0  0  0  0  0  0  0  0  0
   26.1601  -20.6872  -12.1492 C   0  0  0  0  0  0  0  0  0  0  0  0
   27.1220  -20.4178  -12.9433 O   0  0  0  0  0  0  0  0  0  0  0  0
   24.8581  -20.4200  -12.6198 N   0  0  0  0  0  0  0  0  0  0  0  0
   24.6676  -19.9400  -13.9955 C   0  0  0  0  0  0  0  0  0  0  0  0
   23.2643  -19.5643  -14.2380 C   0  0  0  0  0  0  0  0  0  0  0  0
   22.9303  -18.9104  -15.2552 O   0  0  0  0  0  0  0  0  0  0  0  0
   22.2675  -19.9416  -13.3153 N   0  0  0  0  0  0  0  0  0  0  0  0
   21.0184  -20.5961  -13.7338 C   0  0  1  0  0  0  0  0  0  0  0  0
   21.3293  -22.0212  -14.1105 C   0  0  0  0  0  0  0  0  0  0  0  0
   20.1250  -22.6969  -14.6238 C   0  0  0  0  0  0  0  0  0  0  0  0
   19.2398  -22.2401  -15.5893 C   0  0  0  0  0  0  0  0  0  0  0  0
   18.2879  -23.1585  -15.7578 N   0  0  0  0  0  0  0  0  0  0  0  0
   18.5267  -24.1899  -14.9369 C   0  0  0  0  0  0  0  0  0  0  0  0
   19.6317  -23.8951  -14.2654 N   0  0  0  0  0  0  0  0  0  0  0  0
   20.0557  -20.5927  -12.6083 C   0  0  0  0  0  0  0  0  0  0  0  0
   18.6934  -20.4142  -12.7516 O   0  0  0  0  0  0  0  0  0  0  0  0
   20.5249  -20.7643  -11.4430 O   0  0  0  0  0  0  0  0  0  0  0  0
  1  2  1  0
  2  3  1  0
  3  5  1  0
  3  4  1  1
  5  7  1  0
  5  6  1  6
  7  9  1  0
  7  8  2  0
  9 10  1  0
 10 11  1  0
 11 12  2  0
 13 14  1  0
 13 11  1  0
 14 15  1  1
 16 17  2  0
 16 15  1  0
 18 17  1  0
 19 20  2  0
 19 18  1  0
 20 16  1  0
 21 22  1  0
 21 14  1  0
 23 21  2  0
M  END
$$$$
