IGH.pdb
     RDKit          3D

 23 23  0  0  1  0  0  0  0  0999 V2000
   17.8480  -11.3398  -23.3078 C   0  0  0  0  0  0  0  0  0  0  0  0
   18.7943  -11.6161  -22.1388 C   0  0  0  0  0  0  0  0  0  0  0  0
   18.2351  -10.9532  -20.9138 C   0  0  2  0  0  0  0  0  0  0  0  0
   17.9851   -9.4845  -21.1808 C   0  0  0  0  0  0  0  0  0  0  0  0
   18.9580  -11.1887  -19.6531 C   0  0  2  0  0  0  0  0  0  0  0  0
   19.4700  -12.5364  -19.4573 N   0  0  0  0  0  0  0  0  0  0  0  0
   18.4555  -10.6364  -18.4061 C   0  0  0  0  0  0  0  0  0  0  0  0
   17.8447  -11.3875  -17.5747 O   0  0  0  0  0  0  0  0  0  0  0  0
   18.5989   -9.2806  -18.0464 N   0  0  0  0  0  0  0  0  0  0  0  0
   18.0170   -8.7985  -16.7861 C   0  0  0  0  0  0  0  0  0  0  0  0
   18.8697   -7.7701  -16.1660 C   0  0  0  0  0  0  0  0  0  0  0  0
   18.5239   -7.1846  -15.1117 O   0  0  0  0  0  0  0  0  0  0  0  0
   20.1016   -7.4284  -16.7602 N   0  0  0  0  0  0  0  0  0  0  0  0
   20.9643   -6.3657  -16.2216 C   0  0  1  0  0  0  0  0  0  0  0  0
   22.2464   -6.9913  -15.7374 C   0  0  0  0  0  0  0  0  0  0  0  0
   21.9809   -7.9327  -14.6357 C   0  0  0  0  0  0  0  0  0  0  0  0
   20.7582   -8.2430  -14.0582 C   0  0  0  0  0  0  0  0  0  0  0  0
   20.9626   -9.1409  -13.0939 N   0  0  0  0  0  0  0  0  0  0  0  0
   22.2711   -9.4207  -13.0285 C   0  0  0  0  0  0  0  0  0  0  0  0
   22.8651   -8.6871  -13.9600 N   0  0  0  0  0  0  0  0  0  0  0  0
   21.2763   -5.3904  -17.2917 C   0  0  0  0  0  0  0  0  0  0  0  0
   22.0280   -4.2466  -17.1053 O   0  0  0  0  0  0  0  0  0  0  0  0
   20.8170   -5.6318  -18.4485 O   0  0  0  0  0  0  0  0  0  0  0  0
  1  2  1  0
  2  3  1  0
  3  5  1  0
  3  4  1  6
  5  7  1  0
  5  6  1  1
  7  9  1  0
  7  8  2  0
  9 10  1  0
 10 11  1  0
 11 12  2  0
 13 14  1  0
 13 11  1  0
 14 15  1  6
 16 17  2  0
 16 15  1  0
 18 17  1  0
 19 20  2  0
 19 18  1  0
 20 16  1  0
 21 22  1  0
 21 14  1  0
 23 21  2  0
M  END
$$$$
