IGH.pdb
     RDKit          3D

 23 23  0  0  1  0  0  0  0  0999 V2000
   26.6614  -16.3698  -15.4109 C   0  0  0  0  0  0  0  0  0  0  0  0
   26.5487  -14.8454  -15.3641 C   0  0  0  0  0  0  0  0  0  0  0  0
   25.5766  -14.4127  -16.4226 C   0  0  2  0  0  0  0  0  0  0  0  0
   25.9540  -15.0157  -17.7585 C   0  0  0  0  0  0  0  0  0  0  0  0
   25.2983  -12.9694  -16.5065 C   0  0  2  0  0  0  0  0  0  0  0  0
   25.2325  -12.2610  -15.2374 N   0  0  0  0  0  0  0  0  0  0  0  0
   24.2982  -12.4688  -17.4348 C   0  0  0  0  0  0  0  0  0  0  0  0
   24.2145  -12.9597  -18.6097 O   0  0  0  0  0  0  0  0  0  0  0  0
   23.3893  -11.4400  -17.1132 N   0  0  0  0  0  0  0  0  0  0  0  0
   22.3995  -11.0080  -18.1096 C   0  0  0  0  0  0  0  0  0  0  0  0
   21.4415  -10.0526  -17.5277 C   0  0  0  0  0  0  0  0  0  0  0  0
   20.4905   -9.5895  -18.2023 O   0  0  0  0  0  0  0  0  0  0  0  0
   21.5860   -9.6429  -16.1866 N   0  0  0  0  0  0  0  0  0  0  0  0
   20.6457   -8.7111  -15.5454 C   0  0  1  0  0  0  0  0  0  0  0  0
   20.1647   -9.3288  -14.2582 C   0  0  0  0  0  0  0  0  0  0  0  0
   19.2193  -10.4253  -14.5303 C   0  0  0  0  0  0  0  0  0  0  0  0
   18.8258  -10.9225  -15.7642 C   0  0  0  0  0  0  0  0  0  0  0  0
   17.9570  -11.9137  -15.5624 N   0  0  0  0  0  0  0  0  0  0  0  0
   17.7760  -12.0737  -14.2447 C   0  0  0  0  0  0  0  0  0  0  0  0
   18.5407  -11.1729  -13.6425 N   0  0  0  0  0  0  0  0  0  0  0  0
   21.3391   -7.4382  -15.2412 C   0  0  0  0  0  0  0  0  0  0  0  0
   20.7168   -6.3190  -14.7231 O   0  0  0  0  0  0  0  0  0  0  0  0
   22.5837   -7.3847  -15.4772 O   0  0  0  0  0  0  0  0  0  0  0  0
  1  2  1  0
  2  3  1  0
  3  5  1  0
  3  4  1  6
  5  7  1  0
  5  6  1  1
  7  9  1  0
  7  8  2  0
  9 10  1  0
 10 11  1  0
 11 12  2  0
 13 14  1  0
 13 11  1  0
 14 15  1  1
 16 17  2  0
 16 15  1  0
 18 17  1  0
 19 20  2  0
 19 18  1  0
 20 16  1  0
 21 22  1  0
 21 14  1  0
 23 21  2  0
M  END
$$$$
