IGH.pdb
     RDKit          3D

 23 23  0  0  1  0  0  0  0  0999 V2000
   21.8803  -13.3754  -19.9816 C   0  0  0  0  0  0  0  0  0  0  0  0
   21.7999  -13.6213  -18.4743 C   0  0  0  0  0  0  0  0  0  0  0  0
   22.2674  -12.3813  -17.7697 C   0  0  2  0  0  0  0  0  0  0  0  0
   23.6693  -12.0233  -18.2138 C   0  0  0  0  0  0  0  0  0  0  0  0
   22.1099  -12.3602  -16.3060 C   0  0  2  0  0  0  0  0  0  0  0  0
   20.8488  -12.8761  -15.7960 N   0  0  0  0  0  0  0  0  0  0  0  0
   22.5494  -11.2070  -15.5383 C   0  0  0  0  0  0  0  0  0  0  0  0
   23.7052  -10.7060  -15.7428 O   0  0  0  0  0  0  0  0  0  0  0  0
   21.7591  -10.5895  -14.5473 N   0  0  0  0  0  0  0  0  0  0  0  0
   22.2700   -9.4039  -13.8456 C   0  0  0  0  0  0  0  0  0  0  0  0
   21.4831   -8.2058  -14.1837 C   0  0  0  0  0  0  0  0  0  0  0  0
   21.7026   -7.1027  -13.6280 O   0  0  0  0  0  0  0  0  0  0  0  0
   20.4598   -8.2881  -15.1500 N   0  0  0  0  0  0  0  0  0  0  0  0
   19.6343   -7.1280  -15.5190 C   0  0  1  0  0  0  0  0  0  0  0  0
   19.4664   -7.1186  -17.0162 C   0  0  0  0  0  0  0  0  0  0  0  0
   20.6514   -6.5339  -17.6677 C   0  0  0  0  0  0  0  0  0  0  0  0
   21.7554   -5.9526  -17.0612 C   0  0  0  0  0  0  0  0  0  0  0  0
   22.5979   -5.5516  -18.0136 N   0  0  0  0  0  0  0  0  0  0  0  0
   22.0781   -5.8528  -19.2111 C   0  0  0  0  0  0  0  0  0  0  0  0
   20.9114   -6.4409  -18.9834 N   0  0  0  0  0  0  0  0  0  0  0  0
   18.3015   -7.2457  -14.8839 C   0  0  0  0  0  0  0  0  0  0  0  0
   17.9044   -8.3140  -14.1033 O   0  0  0  0  0  0  0  0  0  0  0  0
   17.4808   -6.2988  -15.0777 O   0  0  0  0  0  0  0  0  0  0  0  0
  1  2  1  0
  2  3  1  0
  3  5  1  0
  3  4  1  1
  5  7  1  0
  5  6  1  6
  7  9  1  0
  7  8  2  0
  9 10  1  0
 10 11  1  0
 11 12  2  0
 13 14  1  0
 13 11  1  0
 14 15  1  6
 16 17  2  0
 16 15  1  0
 18 17  1  0
 19 20  2  0
 19 18  1  0
 20 16  1  0
 21 22  1  0
 21 14  1  0
 23 21  2  0
M  END
$$$$
