IGH.pdb
     RDKit          3D

 23 23  0  0  1  0  0  0  0  0999 V2000
   27.4984  -12.1448  -17.1852 C   0  0  0  0  0  0  0  0  0  0  0  0
   26.1679  -12.5708  -16.5632 C   0  0  0  0  0  0  0  0  0  0  0  0
   25.4296  -11.3347  -16.1393 C   0  0  2  0  0  0  0  0  0  0  0  0
   26.2758  -10.5206  -15.1843 C   0  0  0  0  0  0  0  0  0  0  0  0
   24.0514  -11.5269  -15.6582 C   0  0  2  0  0  0  0  0  0  0  0  0
   23.1914  -12.3399  -16.5044 N   0  0  0  0  0  0  0  0  0  0  0  0
   23.3143  -10.4142  -15.0829 C   0  0  0  0  0  0  0  0  0  0  0  0
   23.5858  -10.0095  -13.9035 O   0  0  0  0  0  0  0  0  0  0  0  0
   22.2825   -9.7348  -15.7625 N   0  0  0  0  0  0  0  0  0  0  0  0
   21.5574   -8.6513  -15.0847 C   0  0  0  0  0  0  0  0  0  0  0  0
   22.0570   -7.3318  -15.5071 C   0  0  0  0  0  0  0  0  0  0  0  0
   23.0470   -7.2225  -16.2699 O   0  0  0  0  0  0  0  0  0  0  0  0
   21.4179   -6.1608  -15.0513 N   0  0  0  0  0  0  0  0  0  0  0  0
   21.8097   -4.8215  -15.5165 C   0  0  1  0  0  0  0  0  0  0  0  0
   20.5675   -3.9793  -15.6470 C   0  0  0  0  0  0  0  0  0  0  0  0
   19.8070   -4.3591  -16.8503 C   0  0  0  0  0  0  0  0  0  0  0  0
   20.1357   -5.3191  -17.7963 C   0  0  0  0  0  0  0  0  0  0  0  0
   19.1768   -5.3448  -18.7224 N   0  0  0  0  0  0  0  0  0  0  0  0
   18.2426   -4.4373  -18.4086 C   0  0  0  0  0  0  0  0  0  0  0  0
   18.6377   -3.8566  -17.2836 N   0  0  0  0  0  0  0  0  0  0  0  0
   22.7150   -4.1972  -14.5243 C   0  0  0  0  0  0  0  0  0  0  0  0
   23.7494   -3.3406  -14.8473 O   0  0  0  0  0  0  0  0  0  0  0  0
   22.5180   -4.4760  -13.3032 O   0  0  0  0  0  0  0  0  0  0  0  0
  1  2  1  0
  2  3  1  0
  3  5  1  0
  3  4  1  1
  5  7  1  0
  5  6  1  6
  7  9  1  0
  7  8  2  0
  9 10  1  0
 10 11  1  0
 11 12  2  0
 13 14  1  0
 13 11  1  0
 14 15  1  1
 16 17  2  0
 16 15  1  0
 18 17  1  0
 19 20  2  0
 19 18  1  0
 20 16  1  0
 21 22  1  0
 21 14  1  0
 23 21  2  0
M  END
$$$$
