IGH.pdb
     RDKit          3D

 23 23  0  0  1  0  0  0  0  0999 V2000
   27.6176  -19.8337   -6.4649 C   0  0  0  0  0  0  0  0  0  0  0  0
   26.4185  -20.4136   -7.2162 C   0  0  0  0  0  0  0  0  0  0  0  0
   26.4338  -19.8725   -8.6160 C   0  0  2  0  0  0  0  0  0  0  0  0
   26.6025  -18.3685   -8.5945 C   0  0  0  0  0  0  0  0  0  0  0  0
   25.3417  -20.3113   -9.5005 C   0  0  2  0  0  0  0  0  0  0  0  0
   24.9811  -21.7181   -9.4136 N   0  0  0  0  0  0  0  0  0  0  0  0
   25.2777  -19.8413  -10.8744 C   0  0  0  0  0  0  0  0  0  0  0  0
   25.9094  -18.7875  -11.2192 O   0  0  0  0  0  0  0  0  0  0  0  0
   24.5352  -20.4914  -11.8814 N   0  0  0  0  0  0  0  0  0  0  0  0
   24.4723  -19.9075  -13.2284 C   0  0  0  0  0  0  0  0  0  0  0  0
   23.5047  -20.6263  -14.0747 C   0  0  0  0  0  0  0  0  0  0  0  0
   23.8544  -21.1652  -15.1523 O   0  0  0  0  0  0  0  0  0  0  0  0
   22.1556  -20.7173  -13.6760 N   0  0  0  0  0  0  0  0  0  0  0  0
   21.2918  -21.8370  -14.0807 C   0  0  1  0  0  0  0  0  0  0  0  0
   21.7413  -23.0750  -13.3494 C   0  0  0  0  0  0  0  0  0  0  0  0
   22.9501  -23.6377  -13.9759 C   0  0  0  0  0  0  0  0  0  0  0  0
   24.0920  -24.1117  -13.3466 C   0  0  0  0  0  0  0  0  0  0  0  0
   24.9453  -24.5321  -14.2810 N   0  0  0  0  0  0  0  0  0  0  0  0
   24.3959  -24.3467  -15.4887 C   0  0  0  0  0  0  0  0  0  0  0  0
   23.2004  -23.8099  -15.2855 N   0  0  0  0  0  0  0  0  0  0  0  0
   19.8888  -21.5396  -13.7108 C   0  0  0  0  0  0  0  0  0  0  0  0
   18.8067  -22.3140  -14.0817 O   0  0  0  0  0  0  0  0  0  0  0  0
   19.6808  -20.5041  -13.0094 O   0  0  0  0  0  0  0  0  0  0  0  0
  1  2  1  0
  2  3  1  0
  3  5  1  0
  3  4  1  1
  5  7  1  0
  5  6  1  6
  7  9  1  0
  7  8  2  0
  9 10  1  0
 10 11  1  0
 11 12  2  0
 13 14  1  0
 13 11  1  0
 14 15  1  1
 16 17  2  0
 16 15  1  0
 18 17  1  0
 19 20  2  0
 19 18  1  0
 20 16  1  0
 21 22  1  0
 21 14  1  0
 23 21  2  0
M  END
$$$$
