IGH.pdb
     RDKit          3D

 23 23  0  0  1  0  0  0  0  0999 V2000
   14.6488  -15.6778  -16.4097 C   0  0  0  0  0  0  0  0  0  0  0  0
   16.0053  -15.0791  -16.7839 C   0  0  0  0  0  0  0  0  0  0  0  0
   16.1320  -13.7437  -16.1106 C   0  0  2  0  0  0  0  0  0  0  0  0
   15.0212  -12.8210  -16.5639 C   0  0  0  0  0  0  0  0  0  0  0  0
   17.4586  -13.1072  -16.1615 C   0  0  2  0  0  0  0  0  0  0  0  0
   18.5952  -13.9918  -15.9561 N   0  0  0  0  0  0  0  0  0  0  0  0
   17.6786  -11.8200  -15.5234 C   0  0  0  0  0  0  0  0  0  0  0  0
   17.8676  -11.7556  -14.2630 O   0  0  0  0  0  0  0  0  0  0  0  0
   17.6920  -10.5987  -16.2279 N   0  0  0  0  0  0  0  0  0  0  0  0
   17.8148   -9.3351  -15.4880 C   0  0  0  0  0  0  0  0  0  0  0  0
   19.1344   -8.7181  -15.7048 C   0  0  0  0  0  0  0  0  0  0  0  0
   20.0622   -9.3441  -16.2716 O   0  0  0  0  0  0  0  0  0  0  0  0
   19.3715   -7.3979  -15.2710 N   0  0  0  0  0  0  0  0  0  0  0  0
   20.6377   -6.6993  -15.5398 C   0  0  1  0  0  0  0  0  0  0  0  0
   20.3496   -5.5108  -16.4196 C   0  0  0  0  0  0  0  0  0  0  0  0
   21.5999   -4.8289  -16.7966 C   0  0  0  0  0  0  0  0  0  0  0  0
   22.5821   -5.2746  -17.6691 C   0  0  0  0  0  0  0  0  0  0  0  0
   23.5448   -4.3539  -17.7270 N   0  0  0  0  0  0  0  0  0  0  0  0
   23.2197   -3.3317  -16.9244 C   0  0  0  0  0  0  0  0  0  0  0  0
   22.0510   -3.6344  -16.3755 N   0  0  0  0  0  0  0  0  0  0  0  0
   21.2233   -6.2259  -14.2644 C   0  0  0  0  0  0  0  0  0  0  0  0
   22.5743   -6.0267  -14.0563 O   0  0  0  0  0  0  0  0  0  0  0  0
   20.4224   -5.9933  -13.3093 O   0  0  0  0  0  0  0  0  0  0  0  0
  1  2  1  0
  2  3  1  0
  3  5  1  0
  3  4  1  6
  5  7  1  0
  5  6  1  1
  7  9  1  0
  7  8  2  0
  9 10  1  0
 10 11  1  0
 11 12  2  0
 13 14  1  0
 13 11  1  0
 14 15  1  6
 16 17  2  0
 16 15  1  0
 18 17  1  0
 19 20  2  0
 19 18  1  0
 20 16  1  0
 21 22  1  0
 21 14  1  0
 23 21  2  0
M  END
$$$$
