IGH.pdb
     RDKit          3D

 23 23  0  0  1  0  0  0  0  0999 V2000
   26.6293  -18.7487   -7.5831 C   0  0  0  0  0  0  0  0  0  0  0  0
   26.8559  -19.4715   -8.9116 C   0  0  0  0  0  0  0  0  0  0  0  0
   25.6245  -20.2685   -9.2296 C   0  0  2  0  0  0  0  0  0  0  0  0
   25.3897  -21.3175   -8.1640 C   0  0  0  0  0  0  0  0  0  0  0  0
   25.5292  -20.8111  -10.5949 C   0  0  2  0  0  0  0  0  0  0  0  0
   26.6058  -21.7018  -11.0003 N   0  0  0  0  0  0  0  0  0  0  0  0
   25.1180  -19.9563  -11.6961 C   0  0  0  0  0  0  0  0  0  0  0  0
   23.9432  -19.4582  -11.7141 O   0  0  0  0  0  0  0  0  0  0  0  0
   25.9573  -19.6357  -12.7827 N   0  0  0  0  0  0  0  0  0  0  0  0
   25.4977  -18.6769  -13.7969 C   0  0  0  0  0  0  0  0  0  0  0  0
   24.5423  -19.3033  -14.7264 C   0  0  0  0  0  0  0  0  0  0  0  0
   24.8409  -19.5110  -15.9271 O   0  0  0  0  0  0  0  0  0  0  0  0
   23.2636  -19.6814  -14.2691 N   0  0  0  0  0  0  0  0  0  0  0  0
   22.2840  -20.3476  -15.1409 C   0  0  1  0  0  0  0  0  0  0  0  0
   21.9475  -21.6889  -14.5431 C   0  0  0  0  0  0  0  0  0  0  0  0
   23.1076  -22.5943  -14.6136 C   0  0  0  0  0  0  0  0  0  0  0  0
   24.3583  -22.3334  -15.1540 C   0  0  0  0  0  0  0  0  0  0  0  0
   25.1147  -23.4224  -15.0127 N   0  0  0  0  0  0  0  0  0  0  0  0
   24.3981  -24.3750  -14.4015 C   0  0  0  0  0  0  0  0  0  0  0  0
   23.1980  -23.8603  -14.1702 N   0  0  0  0  0  0  0  0  0  0  0  0
   21.0516  -19.5297  -15.2176 C   0  0  0  0  0  0  0  0  0  0  0  0
   20.0619  -19.7029  -16.1656 O   0  0  0  0  0  0  0  0  0  0  0  0
   20.9083  -18.6140  -14.3524 O   0  0  0  0  0  0  0  0  0  0  0  0
  1  2  1  0
  2  3  1  0
  3  5  1  0
  3  4  1  1
  5  7  1  0
  5  6  1  6
  7  9  1  0
  7  8  2  0
  9 10  1  0
 10 11  1  0
 11 12  2  0
 13 14  1  0
 13 11  1  0
 14 15  1  1
 16 17  2  0
 16 15  1  0
 18 17  1  0
 19 20  2  0
 19 18  1  0
 20 16  1  0
 21 22  1  0
 21 14  1  0
 23 21  2  0
M  END
$$$$
