IGH.pdb
     RDKit          3D

 23 23  0  0  1  0  0  0  0  0999 V2000
   20.3634  -13.5779  -18.3786 C   0  0  0  0  0  0  0  0  0  0  0  0
   18.8518  -13.3676  -18.4756 C   0  0  0  0  0  0  0  0  0  0  0  0
   18.5211  -12.0393  -17.8600 C   0  0  2  0  0  0  0  0  0  0  0  0
   19.3124  -10.9384  -18.5328 C   0  0  0  0  0  0  0  0  0  0  0  0
   18.5772  -11.9657  -16.3906 C   0  0  2  0  0  0  0  0  0  0  0  0
   18.0113  -13.0998  -15.6763 N   0  0  0  0  0  0  0  0  0  0  0  0
   18.2780  -10.7182  -15.7075 C   0  0  0  0  0  0  0  0  0  0  0  0
   17.1501  -10.1478  -15.8836 O   0  0  0  0  0  0  0  0  0  0  0  0
   19.1836  -10.0741  -14.8396 N   0  0  0  0  0  0  0  0  0  0  0  0
   18.8305   -8.7714  -14.2586 C   0  0  0  0  0  0  0  0  0  0  0  0
   19.7777   -7.7261  -14.6820 C   0  0  0  0  0  0  0  0  0  0  0  0
   20.7234   -7.9812  -15.4658 O   0  0  0  0  0  0  0  0  0  0  0  0
   19.6285   -6.4085  -14.2033 N   0  0  0  0  0  0  0  0  0  0  0  0
   20.4793   -5.3033  -14.6702 C   0  0  1  0  0  0  0  0  0  0  0  0
   19.8179   -4.0018  -14.2982 C   0  0  0  0  0  0  0  0  0  0  0  0
   20.6039   -2.8594  -14.7956 C   0  0  0  0  0  0  0  0  0  0  0  0
   21.4355   -2.8180  -15.9053 C   0  0  0  0  0  0  0  0  0  0  0  0
   21.9544   -1.5932  -15.9985 N   0  0  0  0  0  0  0  0  0  0  0  0
   21.4883   -0.8440  -14.9905 C   0  0  0  0  0  0  0  0  0  0  0  0
   20.6805   -1.6200  -14.2803 N   0  0  0  0  0  0  0  0  0  0  0  0
   21.8012   -5.3808  -14.0066 C   0  0  0  0  0  0  0  0  0  0  0  0
   23.0076   -5.1990  -14.6544 O   0  0  0  0  0  0  0  0  0  0  0  0
   21.8126   -5.6320  -12.7639 O   0  0  0  0  0  0  0  0  0  0  0  0
  1  2  1  0
  2  3  1  0
  3  5  1  0
  3  4  1  6
  5  7  1  0
  5  6  1  1
  7  9  1  0
  7  8  2  0
  9 10  1  0
 10 11  1  0
 11 12  2  0
 13 14  1  0
 13 11  1  0
 14 15  1  1
 16 17  2  0
 16 15  1  0
 18 17  1  0
 19 20  2  0
 19 18  1  0
 20 16  1  0
 21 22  1  0
 21 14  1  0
 23 21  2  0
M  END
$$$$
