LGS.pdb
     RDKit          3D

 19 18  0  0  1  0  0  0  0  0999 V2000
    7.7809  -12.0024   19.2480 C   0  0  0  0  0  0  0  0  0  0  0  0
    8.1207  -13.4474   19.3948 C   0  0  2  0  0  0  0  0  0  0  0  0
    7.3624  -14.3070   18.3817 C   0  0  0  0  0  0  0  0  0  0  0  0
    7.9723  -13.9605   20.7718 C   0  0  0  0  0  0  0  0  0  0  0  0
    9.0984  -14.7205   21.3033 C   0  0  2  0  0  0  0  0  0  0  0  0
    9.3087  -15.9543   20.4985 N   0  0  0  0  0  0  0  0  0  0  0  0
    9.0795  -15.1574   22.6966 C   0  0  0  0  0  0  0  0  0  0  0  0
    8.7927  -14.2520   23.4953 O   0  0  0  0  0  0  0  0  0  0  0  0
    9.3562  -16.5024   23.1139 N   0  0  0  0  0  0  0  0  0  0  0  0
    9.3582  -16.6703   24.5080 C   0  0  0  0  0  0  0  0  0  0  0  0
   10.0817  -16.0868   25.5874 C   0  0  0  0  0  0  0  0  0  0  0  0
   11.3420  -15.9833   25.3583 O   0  0  0  0  0  0  0  0  0  0  0  0
    8.7624  -13.8046   28.5174 O   0  0  0  0  0  0  0  0  0  0  0  0
   10.1045  -13.6378   28.1672 C   0  0  0  0  0  0  0  0  0  0  0  0
   10.6419  -14.9830   27.7851 C   0  0  2  0  0  0  0  0  0  0  0  0
    9.7354  -15.6076   26.8236 N   0  0  0  0  0  0  0  0  0  0  0  0
   10.8439  -15.8852   28.9093 C   0  0  0  0  0  0  0  0  0  0  0  0
   11.7163  -15.5882   29.9307 O   0  0  0  0  0  0  0  0  0  0  0  0
   10.1920  -16.9851   28.9484 O   0  0  0  0  0  0  0  0  0  0  0  0
  2  1  1  1
  2  3  1  0
  4  2  1  0
  5  4  1  0
  5  6  1  6
  7  5  1  0
  8  7  2  0
  9  7  1  0
 10  9  1  0
 11 10  1  0
 11 16  1  0
 12 11  2  0
 14 13  1  0
 15 17  1  0
 15 16  1  0
 15 14  1  1
 17 18  1  0
 19 17  2  0
M  END
$$$$
