LGS.pdb
     RDKit          3D

 19 18  0  0  1  0  0  0  0  0999 V2000
   11.3088  -14.8110   28.7154 C   0  0  0  0  0  0  0  0  0  0  0  0
    9.9748  -14.2188   28.4078 C   0  0  2  0  0  0  0  0  0  0  0  0
    8.8620  -14.8988   29.2076 C   0  0  0  0  0  0  0  0  0  0  0  0
    9.6615  -14.1652   26.9654 C   0  0  0  0  0  0  0  0  0  0  0  0
    9.2096  -15.4109   26.3553 C   0  0  2  0  0  0  0  0  0  0  0  0
   10.2837  -16.4379   26.4328 N   0  0  0  0  0  0  0  0  0  0  0  0
    8.7632  -15.4119   24.9649 C   0  0  0  0  0  0  0  0  0  0  0  0
    9.6846  -15.5719   24.1494 O   0  0  0  0  0  0  0  0  0  0  0  0
    7.3933  -15.2524   24.5677 N   0  0  0  0  0  0  0  0  0  0  0  0
    7.2362  -14.8939   23.2191 C   0  0  0  0  0  0  0  0  0  0  0  0
    7.6209  -15.4734   21.9760 C   0  0  0  0  0  0  0  0  0  0  0  0
    8.6217  -16.2734   22.0754 O   0  0  0  0  0  0  0  0  0  0  0  0
    8.0751  -12.3934   18.8396 O   0  0  0  0  0  0  0  0  0  0  0  0
    7.4346  -13.1277   19.8408 C   0  0  0  0  0  0  0  0  0  0  0  0
    7.7681  -14.5722   19.6248 C   0  0  2  0  0  0  0  0  0  0  0  0
    7.1619  -15.3699   20.6890 N   0  0  0  0  0  0  0  0  0  0  0  0
    9.1953  -14.8524   19.5693 C   0  0  0  0  0  0  0  0  0  0  0  0
    9.7988  -15.3226   18.4260 O   0  0  0  0  0  0  0  0  0  0  0  0
    9.9082  -14.6558   20.6131 O   0  0  0  0  0  0  0  0  0  0  0  0
  2  1  1  6
  2  3  1  0
  4  2  1  0
  5  4  1  0
  5  6  1  6
  7  5  1  0
  8  7  2  0
  9  7  1  0
 10  9  1  0
 11 10  1  0
 11 16  1  0
 12 11  2  0
 14 13  1  0
 15 17  1  0
 15 16  1  0
 15 14  1  1
 17 18  1  0
 19 17  2  0
M  END
$$$$
