LGS.pdb
     RDKit          3D

 19 18  0  0  1  0  0  0  0  0999 V2000
    9.0367  -13.7173   19.6529 C   0  0  0  0  0  0  0  0  0  0  0  0
    7.6927  -13.4078   20.2210 C   0  0  2  0  0  0  0  0  0  0  0  0
    7.3197  -11.9393   20.0100 C   0  0  0  0  0  0  0  0  0  0  0  0
    7.5287  -13.8200   21.6298 C   0  0  0  0  0  0  0  0  0  0  0  0
    7.7805  -15.2262   21.9255 C   0  0  2  0  0  0  0  0  0  0  0  0
    6.8157  -16.0853   21.1868 N   0  0  0  0  0  0  0  0  0  0  0  0
    7.7411  -15.6898   23.3097 C   0  0  0  0  0  0  0  0  0  0  0  0
    8.5433  -15.1017   24.0516 O   0  0  0  0  0  0  0  0  0  0  0  0
    6.8592  -16.7195   23.7805 N   0  0  0  0  0  0  0  0  0  0  0  0
    7.0146  -17.0137   25.1447 C   0  0  0  0  0  0  0  0  0  0  0  0
    7.9582  -17.7587   25.9089 C   0  0  0  0  0  0  0  0  0  0  0  0
    7.6656  -19.0065   26.0022 O   0  0  0  0  0  0  0  0  0  0  0  0
   11.5848  -16.5354   26.9493 O   0  0  0  0  0  0  0  0  0  0  0  0
   11.4909  -17.8628   26.5243 C   0  0  0  0  0  0  0  0  0  0  0  0
   10.1593  -18.3861   26.9686 C   0  0  2  0  0  0  0  0  0  0  0  0
    9.1154  -17.4434   26.5716 N   0  0  0  0  0  0  0  0  0  0  0  0
   10.0634  -18.6326   28.3999 C   0  0  0  0  0  0  0  0  0  0  0  0
   10.8655  -19.5536   29.0332 O   0  0  0  0  0  0  0  0  0  0  0  0
    9.2094  -17.9744   29.0881 O   0  0  0  0  0  0  0  0  0  0  0  0
  2  1  1  1
  2  3  1  0
  4  2  1  0
  5  4  1  0
  5  6  1  6
  7  5  1  0
  8  7  2  0
  9  7  1  0
 10  9  1  0
 11 10  1  0
 11 16  1  0
 12 11  2  0
 14 13  1  0
 15 17  1  0
 15 16  1  0
 15 14  1  1
 17 18  1  0
 19 17  2  0
M  END
$$$$
