LGS.pdb
     RDKit          3D

 19 18  0  0  1  0  0  0  0  0999 V2000
    8.1485  -14.2584   19.4313 C   0  0  0  0  0  0  0  0  0  0  0  0
    7.4239  -13.5887   20.5500 C   0  0  2  0  0  0  0  0  0  0  0  0
    7.3088  -12.0807   20.3199 C   0  0  0  0  0  0  0  0  0  0  0  0
    7.9673  -13.9012   21.8874 C   0  0  0  0  0  0  0  0  0  0  0  0
    8.1575  -15.3147   22.1939 C   0  0  2  0  0  0  0  0  0  0  0  0
    6.8533  -15.9444   22.5356 N   0  0  0  0  0  0  0  0  0  0  0  0
    9.0745  -15.7035   23.2618 C   0  0  0  0  0  0  0  0  0  0  0  0
    8.6462  -15.4504   24.3986 O   0  0  0  0  0  0  0  0  0  0  0  0
   10.3471  -16.3260   23.0321 N   0  0  0  0  0  0  0  0  0  0  0  0
   11.2775  -16.1013   24.0596 C   0  0  0  0  0  0  0  0  0  0  0  0
   11.1972  -15.6187   25.3974 C   0  0  0  0  0  0  0  0  0  0  0  0
   12.3410  -15.5322   25.9767 O   0  0  0  0  0  0  0  0  0  0  0  0
    8.0715  -13.9091   27.4267 O   0  0  0  0  0  0  0  0  0  0  0  0
    9.3671  -13.4136   27.5923 C   0  0  0  0  0  0  0  0  0  0  0  0
   10.3085  -14.5765   27.5155 C   0  0  2  0  0  0  0  0  0  0  0  0
   10.1688  -15.2229   26.2121 N   0  0  0  0  0  0  0  0  0  0  0  0
   10.1185  -15.5673   28.5647 C   0  0  0  0  0  0  0  0  0  0  0  0
   10.3765  -15.2839   29.8859 O   0  0  0  0  0  0  0  0  0  0  0  0
    9.6999  -16.7341   28.2492 O   0  0  0  0  0  0  0  0  0  0  0  0
  2  1  1  6
  2  3  1  0
  4  2  1  0
  5  4  1  0
  5  6  1  1
  7  5  1  0
  8  7  2  0
  9  7  1  0
 10  9  1  0
 11 10  1  0
 11 16  1  0
 12 11  2  0
 14 13  1  0
 15 17  1  0
 15 16  1  0
 15 14  1  1
 17 18  1  0
 19 17  2  0
M  END
$$$$
