LGS.pdb
     RDKit          3D

 19 18  0  0  1  0  0  0  0  0999 V2000
    5.3536  -12.3144   26.1082 C   0  0  0  0  0  0  0  0  0  0  0  0
    6.6735  -12.6854   26.6956 C   0  0  2  0  0  0  0  0  0  0  0  0
    7.3607  -11.4784   27.3369 C   0  0  0  0  0  0  0  0  0  0  0  0
    7.5683  -13.3939   25.7581 C   0  0  0  0  0  0  0  0  0  0  0  0
    7.0518  -14.6299   25.1806 C   0  0  2  0  0  0  0  0  0  0  0  0
    6.7620  -15.6158   26.2569 N   0  0  0  0  0  0  0  0  0  0  0  0
    7.8474  -15.3503   24.1903 C   0  0  0  0  0  0  0  0  0  0  0  0
    8.8837  -15.8493   24.6561 O   0  0  0  0  0  0  0  0  0  0  0  0
    7.4737  -15.4823   22.8109 N   0  0  0  0  0  0  0  0  0  0  0  0
    8.5271  -15.8951   21.9793 C   0  0  0  0  0  0  0  0  0  0  0  0
    9.6540  -16.7518   22.1384 C   0  0  0  0  0  0  0  0  0  0  0  0
    9.3376  -17.9533   22.4668 O   0  0  0  0  0  0  0  0  0  0  0  0
   13.4746  -16.0228   21.3291 O   0  0  0  0  0  0  0  0  0  0  0  0
   13.1638  -17.3842   21.2879 C   0  0  0  0  0  0  0  0  0  0  0  0
   12.0221  -17.6154   22.2299 C   0  0  2  0  0  0  0  0  0  0  0  0
   11.0088  -16.5833   22.0198 N   0  0  0  0  0  0  0  0  0  0  0  0
   12.4031  -17.6342   23.6346 C   0  0  0  0  0  0  0  0  0  0  0  0
   13.1981  -18.6275   24.1578 O   0  0  0  0  0  0  0  0  0  0  0  0
   11.9868  -16.7009   24.4039 O   0  0  0  0  0  0  0  0  0  0  0  0
  2  1  1  6
  2  3  1  0
  4  2  1  0
  5  4  1  0
  5  6  1  1
  7  5  1  0
  8  7  2  0
  9  7  1  0
 10  9  1  0
 11 10  1  0
 11 16  1  0
 12 11  2  0
 14 13  1  0
 15 17  1  0
 15 16  1  0
 15 14  1  6
 17 18  1  0
 19 17  2  0
M  END
$$$$
