LGS.pdb
     RDKit          3D

 19 18  0  0  1  0  0  0  0  0999 V2000
    9.2408  -12.2365   19.1825 C   0  0  0  0  0  0  0  0  0  0  0  0
    8.3837  -13.4508   19.0565 C   0  0  2  0  0  0  0  0  0  0  0  0
    7.0215  -13.1143   18.4469 C   0  0  0  0  0  0  0  0  0  0  0  0
    8.2503  -14.2222   20.3089 C   0  0  0  0  0  0  0  0  0  0  0  0
    9.4940  -14.6493   20.9406 C   0  0  2  0  0  0  0  0  0  0  0  0
   10.2992  -15.4613   19.9884 N   0  0  0  0  0  0  0  0  0  0  0  0
    9.4449  -15.4255   22.1767 C   0  0  0  0  0  0  0  0  0  0  0  0
    9.9711  -16.5451   22.0792 O   0  0  0  0  0  0  0  0  0  0  0  0
    8.8553  -14.9477   23.3948 N   0  0  0  0  0  0  0  0  0  0  0  0
    9.0314  -15.8162   24.4841 C   0  0  0  0  0  0  0  0  0  0  0  0
    9.8967  -15.8435   25.6153 C   0  0  0  0  0  0  0  0  0  0  0  0
   11.1350  -15.9925   25.3055 O   0  0  0  0  0  0  0  0  0  0  0  0
    9.2010  -14.0680   28.9250 O   0  0  0  0  0  0  0  0  0  0  0  0
   10.5553  -14.1887   28.6042 C   0  0  0  0  0  0  0  0  0  0  0  0
   10.7508  -15.5309   27.9679 C   0  0  2  0  0  0  0  0  0  0  0  0
    9.7059  -15.7461   26.9688 N   0  0  0  0  0  0  0  0  0  0  0  0
   10.7508  -16.6418   28.9084 C   0  0  0  0  0  0  0  0  0  0  0  0
    9.8203  -17.6526   28.8377 O   0  0  0  0  0  0  0  0  0  0  0  0
   11.6409  -16.6790   29.8263 O   0  0  0  0  0  0  0  0  0  0  0  0
  2  1  1  1
  2  3  1  0
  4  2  1  0
  5  4  1  0
  5  6  1  6
  7  5  1  0
  8  7  2  0
  9  7  1  0
 10  9  1  0
 11 10  1  0
 11 16  1  0
 12 11  2  0
 14 13  1  0
 15 17  1  0
 15 16  1  0
 15 14  1  1
 17 18  1  0
 19 17  2  0
M  END
$$$$
