LGS.pdb
     RDKit          3D

 19 18  0  0  1  0  0  0  0  0999 V2000
    7.4259  -13.8540   17.7593 C   0  0  0  0  0  0  0  0  0  0  0  0
    7.5370  -13.6544   19.2333 C   0  0  2  0  0  0  0  0  0  0  0  0
    6.9843  -12.2924   19.6576 C   0  0  0  0  0  0  0  0  0  0  0  0
    8.8934  -13.8886   19.7688 C   0  0  0  0  0  0  0  0  0  0  0  0
    9.4120  -15.2464   19.6443 C   0  0  2  0  0  0  0  0  0  0  0  0
    8.3006  -16.2304   19.7486 N   0  0  0  0  0  0  0  0  0  0  0  0
   10.4397  -15.7131   20.5709 C   0  0  0  0  0  0  0  0  0  0  0  0
   11.4087  -14.9435   20.6639 O   0  0  0  0  0  0  0  0  0  0  0  0
   10.3461  -16.9373   21.3141 N   0  0  0  0  0  0  0  0  0  0  0  0
   11.2411  -17.0107   22.3935 C   0  0  0  0  0  0  0  0  0  0  0  0
   11.1433  -16.7764   23.7952 C   0  0  0  0  0  0  0  0  0  0  0  0
   12.1670  -17.1898   24.4529 O   0  0  0  0  0  0  0  0  0  0  0  0
    8.1356  -15.1612   26.0287 O   0  0  0  0  0  0  0  0  0  0  0  0
    9.4304  -14.8900   26.4777 C   0  0  0  0  0  0  0  0  0  0  0  0
   10.3035  -16.0313   26.0538 C   0  0  2  0  0  0  0  0  0  0  0  0
   10.1978  -16.2059   24.6066 N   0  0  0  0  0  0  0  0  0  0  0  0
    9.9969  -17.2926   26.7125 C   0  0  0  0  0  0  0  0  0  0  0  0
   10.3067  -17.5153   28.0342 O   0  0  0  0  0  0  0  0  0  0  0  0
    9.4234  -18.2198   26.0434 O   0  0  0  0  0  0  0  0  0  0  0  0
  2  1  1  6
  2  3  1  0
  4  2  1  0
  5  4  1  0
  5  6  1  1
  7  5  1  0
  8  7  2  0
  9  7  1  0
 10  9  1  0
 11 10  1  0
 11 16  1  0
 12 11  2  0
 14 13  1  0
 15 17  1  0
 15 16  1  0
 15 14  1  1
 17 18  1  0
 19 17  2  0
M  END
$$$$
