LGS.pdb
     RDKit          3D

 19 18  0  0  1  0  0  0  0  0999 V2000
    5.6684  -12.0862   25.7558 C   0  0  0  0  0  0  0  0  0  0  0  0
    6.6135  -12.9134   26.5606 C   0  0  2  0  0  0  0  0  0  0  0  0
    7.2107  -12.1136   27.7199 C   0  0  0  0  0  0  0  0  0  0  0  0
    7.6577  -13.5814   25.7577 C   0  0  0  0  0  0  0  0  0  0  0  0
    7.1903  -14.4921   24.7183 C   0  0  2  0  0  0  0  0  0  0  0  0
    6.2146  -15.4608   25.2875 N   0  0  0  0  0  0  0  0  0  0  0  0
    8.1575  -15.2968   23.9769 C   0  0  0  0  0  0  0  0  0  0  0  0
    9.1291  -14.6454   23.5627 O   0  0  0  0  0  0  0  0  0  0  0  0
    8.0137  -16.7065   23.7495 N   0  0  0  0  0  0  0  0  0  0  0  0
    9.0420  -17.2587   22.9689 C   0  0  0  0  0  0  0  0  0  0  0  0
   10.4048  -17.6013   23.2023 C   0  0  0  0  0  0  0  0  0  0  0  0
   10.5668  -18.8217   23.5707 O   0  0  0  0  0  0  0  0  0  0  0  0
   13.7979  -15.3945   22.7733 O   0  0  0  0  0  0  0  0  0  0  0  0
   13.9115  -16.7564   22.4836 C   0  0  0  0  0  0  0  0  0  0  0  0
   12.9206  -17.4844   23.3396 C   0  0  2  0  0  0  0  0  0  0  0  0
   11.5905  -16.9190   23.1221 N   0  0  0  0  0  0  0  0  0  0  0  0
   13.2272  -17.4551   24.7622 C   0  0  0  0  0  0  0  0  0  0  0  0
   14.3058  -18.1293   25.2862 O   0  0  0  0  0  0  0  0  0  0  0  0
   12.4725  -16.7837   25.5469 O   0  0  0  0  0  0  0  0  0  0  0  0
  2  1  1  6
  2  3  1  0
  4  2  1  0
  5  4  1  0
  5  6  1  1
  7  5  1  0
  8  7  2  0
  9  7  1  0
 10  9  1  0
 11 10  1  0
 11 16  1  0
 12 11  2  0
 14 13  1  0
 15 17  1  0
 15 16  1  0
 15 14  1  6
 17 18  1  0
 19 17  2  0
M  END
$$$$
