LGS.pdb
     RDKit          3D

 19 18  0  0  1  0  0  0  0  0999 V2000
    8.3581  -13.4293   18.4507 C   0  0  0  0  0  0  0  0  0  0  0  0
    7.6518  -13.4771   19.7636 C   0  0  2  0  0  0  0  0  0  0  0  0
    7.0780  -12.1102   20.1413 C   0  0  0  0  0  0  0  0  0  0  0  0
    8.4586  -14.0562   20.8569 C   0  0  0  0  0  0  0  0  0  0  0  0
    9.0624  -15.3581   20.5951 C   0  0  2  0  0  0  0  0  0  0  0  0
    8.0226  -16.4218   20.6344 N   0  0  0  0  0  0  0  0  0  0  0  0
   10.1462  -15.8348   21.4499 C   0  0  0  0  0  0  0  0  0  0  0  0
    9.7814  -16.1125   22.6031 O   0  0  0  0  0  0  0  0  0  0  0  0
   11.5041  -15.9802   21.0087 N   0  0  0  0  0  0  0  0  0  0  0  0
   12.4441  -15.9193   22.0501 C   0  0  0  0  0  0  0  0  0  0  0  0
   12.4837  -16.3894   23.3942 C   0  0  0  0  0  0  0  0  0  0  0  0
   13.6770  -16.5184   23.8533 O   0  0  0  0  0  0  0  0  0  0  0  0
   10.8852  -17.3082   27.8317 O   0  0  0  0  0  0  0  0  0  0  0  0
   10.5772  -16.9278   26.5233 C   0  0  0  0  0  0  0  0  0  0  0  0
   11.7841  -17.1993   25.6782 C   0  0  2  0  0  0  0  0  0  0  0  0
   11.5303  -16.7375   24.3149 N   0  0  0  0  0  0  0  0  0  0  0  0
   12.1848  -18.5982   25.6436 C   0  0  0  0  0  0  0  0  0  0  0  0
   13.2039  -19.0810   26.4315 O   0  0  0  0  0  0  0  0  0  0  0  0
   11.5720  -19.4009   24.8585 O   0  0  0  0  0  0  0  0  0  0  0  0
  2  1  1  6
  2  3  1  0
  4  2  1  0
  5  4  1  0
  5  6  1  1
  7  5  1  0
  8  7  2  0
  9  7  1  0
 10  9  1  0
 11 10  1  0
 11 16  1  0
 12 11  2  0
 14 13  1  0
 15 17  1  0
 15 16  1  0
 15 14  1  1
 17 18  1  0
 19 17  2  0
M  END
$$$$
