LGS.pdb
     RDKit          3D

 19 18  0  0  1  0  0  0  0  0999 V2000
    8.4594  -13.3835   18.7735 C   0  0  0  0  0  0  0  0  0  0  0  0
    7.5240  -13.5737   19.9198 C   0  0  2  0  0  0  0  0  0  0  0  0
    6.8181  -12.2678   20.2896 C   0  0  0  0  0  0  0  0  0  0  0  0
    8.1422  -14.2172   21.0967 C   0  0  0  0  0  0  0  0  0  0  0  0
    8.8017  -15.4971   20.8618 C   0  0  2  0  0  0  0  0  0  0  0  0
    7.8152  -16.4996   20.3759 N   0  0  0  0  0  0  0  0  0  0  0  0
    9.5204  -16.1486   21.9534 C   0  0  0  0  0  0  0  0  0  0  0  0
   10.4102  -15.4416   22.4516 O   0  0  0  0  0  0  0  0  0  0  0  0
    9.2298  -17.4745   22.4195 N   0  0  0  0  0  0  0  0  0  0  0  0
   10.1319  -17.9407   23.3893 C   0  0  0  0  0  0  0  0  0  0  0  0
   11.5447  -18.1146   23.4438 C   0  0  0  0  0  0  0  0  0  0  0  0
   11.9414  -19.2225   22.9274 O   0  0  0  0  0  0  0  0  0  0  0  0
   15.3945  -16.6282   21.9752 O   0  0  0  0  0  0  0  0  0  0  0  0
   14.5438  -16.2798   23.0271 C   0  0  0  0  0  0  0  0  0  0  0  0
   13.9975  -17.5493   23.6053 C   0  0  2  0  0  0  0  0  0  0  0  0
   12.5837  -17.3623   23.9258 N   0  0  0  0  0  0  0  0  0  0  0  0
   14.7005  -18.0144   24.7919 C   0  0  0  0  0  0  0  0  0  0  0  0
   14.1094  -18.0100   26.0342 O   0  0  0  0  0  0  0  0  0  0  0  0
   15.9015  -18.4392   24.6762 O   0  0  0  0  0  0  0  0  0  0  0  0
  2  1  1  6
  2  3  1  0
  4  2  1  0
  5  4  1  0
  5  6  1  1
  7  5  1  0
  8  7  2  0
  9  7  1  0
 10  9  1  0
 11 10  1  0
 11 16  1  0
 12 11  2  0
 14 13  1  0
 15 17  1  0
 15 16  1  0
 15 14  1  1
 17 18  1  0
 19 17  2  0
M  END
$$$$
