LGS.pdb
     RDKit          3D

 19 18  0  0  1  0  0  0  0  0999 V2000
    9.3371  -13.8186   19.7113 C   0  0  0  0  0  0  0  0  0  0  0  0
    7.9454  -13.4868   20.1329 C   0  0  2  0  0  0  0  0  0  0  0  0
    7.6039  -12.0251   19.8377 C   0  0  0  0  0  0  0  0  0  0  0  0
    7.6402  -13.8513   21.5313 C   0  0  0  0  0  0  0  0  0  0  0  0
    7.7742  -15.2626   21.8754 C   0  0  2  0  0  0  0  0  0  0  0  0
    6.8627  -16.0836   21.0331 N   0  0  0  0  0  0  0  0  0  0  0  0
    7.5366  -15.6950   23.2499 C   0  0  0  0  0  0  0  0  0  0  0  0
    8.2704  -15.1344   24.0788 O   0  0  0  0  0  0  0  0  0  0  0  0
    6.5478  -16.6671   23.6198 N   0  0  0  0  0  0  0  0  0  0  0  0
    6.5877  -17.0222   24.9778 C   0  0  0  0  0  0  0  0  0  0  0  0
    7.4392  -17.8386   25.7764 C   0  0  0  0  0  0  0  0  0  0  0  0
    6.8984  -18.9517   26.1228 O   0  0  0  0  0  0  0  0  0  0  0  0
   11.3720  -17.4282   26.0441 O   0  0  0  0  0  0  0  0  0  0  0  0
   10.8711  -18.7254   25.9104 C   0  0  0  0  0  0  0  0  0  0  0  0
    9.5893  -18.7963   26.6827 C   0  0  2  0  0  0  0  0  0  0  0  0
    8.7135  -17.7044   26.2622 N   0  0  0  0  0  0  0  0  0  0  0  0
    9.7605  -18.7443   28.1272 C   0  0  0  0  0  0  0  0  0  0  0  0
    9.1908  -17.7515   28.8903 O   0  0  0  0  0  0  0  0  0  0  0  0
   10.4603  -19.6470   28.7031 O   0  0  0  0  0  0  0  0  0  0  0  0
  2  1  1  1
  2  3  1  0
  4  2  1  0
  5  4  1  0
  5  6  1  6
  7  5  1  0
  8  7  2  0
  9  7  1  0
 10  9  1  0
 11 10  1  0
 11 16  1  0
 12 11  2  0
 14 13  1  0
 15 17  1  0
 15 16  1  0
 15 14  1  6
 17 18  1  0
 19 17  2  0
M  END
$$$$
