LGS.pdb
     RDKit          3D

 19 18  0  0  1  0  0  0  0  0999 V2000
    7.6919  -11.4934   26.7551 C   0  0  0  0  0  0  0  0  0  0  0  0
    6.4419  -11.9555   26.0851 C   0  0  2  0  0  0  0  0  0  0  0  0
    5.2276  -11.8128   27.0047 C   0  0  0  0  0  0  0  0  0  0  0  0
    6.5381  -13.3115   25.5076 C   0  0  0  0  0  0  0  0  0  0  0  0
    7.6696  -13.5573   24.6202 C   0  0  2  0  0  0  0  0  0  0  0  0
    7.6268  -12.6207   23.4647 N   0  0  0  0  0  0  0  0  0  0  0  0
    7.8580  -14.8858   24.0438 C   0  0  0  0  0  0  0  0  0  0  0  0
    7.8606  -15.7956   24.8876 O   0  0  0  0  0  0  0  0  0  0  0  0
    8.0177  -15.1294   22.6385 N   0  0  0  0  0  0  0  0  0  0  0  0
    8.4027  -16.4453   22.3353 C   0  0  0  0  0  0  0  0  0  0  0  0
    9.5286  -17.2588   22.6509 C   0  0  0  0  0  0  0  0  0  0  0  0
    9.8008  -18.1258   21.7422 O   0  0  0  0  0  0  0  0  0  0  0  0
   13.9621  -16.9524   23.2276 O   0  0  0  0  0  0  0  0  0  0  0  0
   12.6390  -16.5214   23.3517 C   0  0  0  0  0  0  0  0  0  0  0  0
   11.7980  -17.7252   23.6482 C   0  0  2  0  0  0  0  0  0  0  0  0
   10.3932  -17.3265   23.7119 N   0  0  0  0  0  0  0  0  0  0  0  0
   12.1569  -18.4143   24.8790 C   0  0  0  0  0  0  0  0  0  0  0  0
   11.5832  -18.0896   26.0865 O   0  0  0  0  0  0  0  0  0  0  0  0
   13.0303  -19.3479   24.8366 O   0  0  0  0  0  0  0  0  0  0  0  0
  2  1  1  1
  2  3  1  0
  4  2  1  0
  5  4  1  0
  5  6  1  6
  7  5  1  0
  8  7  2  0
  9  7  1  0
 10  9  1  0
 11 10  1  0
 11 16  1  0
 12 11  2  0
 14 13  1  0
 15 17  1  0
 15 16  1  0
 15 14  1  1
 17 18  1  0
 19 17  2  0
M  END
$$$$
