LGS.pdb
     RDKit          3D

 19 18  0  0  1  0  0  0  0  0999 V2000
    1.5012  -20.2344   23.1654 C   0  0  0  0  0  0  0  0  0  0  0  0
    0.1981  -20.7382   22.6429 C   0  0  2  0  0  0  0  0  0  0  0  0
   -0.5584  -19.6492   21.8799 C   0  0  0  0  0  0  0  0  0  0  0  0
   -0.6492  -21.3819   23.6672 C   0  0  0  0  0  0  0  0  0  0  0  0
   -0.0524  -22.4987   24.3913 C   0  0  2  0  0  0  0  0  0  0  0  0
    0.4518  -23.5193   23.4328 N   0  0  0  0  0  0  0  0  0  0  0  0
   -0.8520  -23.2352   25.3664 C   0  0  0  0  0  0  0  0  0  0  0  0
   -1.3077  -22.5211   26.2732 O   0  0  0  0  0  0  0  0  0  0  0  0
   -1.1007  -24.6466   25.2900 N   0  0  0  0  0  0  0  0  0  0  0  0
   -1.9022  -25.1344   26.3347 C   0  0  0  0  0  0  0  0  0  0  0  0
   -1.6486  -25.8215   27.5565 C   0  0  0  0  0  0  0  0  0  0  0  0
   -2.0588  -27.0394   27.5501 O   0  0  0  0  0  0  0  0  0  0  0  0
    0.8768  -24.8678   30.5066 O   0  0  0  0  0  0  0  0  0  0  0  0
    0.6509  -26.2260   30.2698 C   0  0  0  0  0  0  0  0  0  0  0  0
   -0.7813  -26.3804   29.8581 C   0  0  2  0  0  0  0  0  0  0  0  0
   -1.0621  -25.4751   28.7455 N   0  0  0  0  0  0  0  0  0  0  0  0
   -1.7382  -26.1368   30.9274 C   0  0  0  0  0  0  0  0  0  0  0  0
   -2.6710  -25.1285   30.8510 O   0  0  0  0  0  0  0  0  0  0  0  0
   -1.7109  -26.8812   31.9674 O   0  0  0  0  0  0  0  0  0  0  0  0
  2  1  1  1
  2  3  1  0
  4  2  1  0
  5  4  1  0
  5  6  1  6
  7  5  1  0
  8  7  2  0
  9  7  1  0
 10  9  1  0
 11 10  1  0
 11 16  1  0
 12 11  2  0
 14 13  1  0
 15 17  1  0
 15 16  1  0
 15 14  1  1
 17 18  1  0
 19 17  2  0
M  END
$$$$
