LGS.pdb
     RDKit          3D

 19 18  0  0  1  0  0  0  0  0999 V2000
    7.8325  -13.5502   18.6553 C   0  0  0  0  0  0  0  0  0  0  0  0
    7.6214  -13.3062   20.1116 C   0  0  2  0  0  0  0  0  0  0  0  0
    7.7778  -11.8248   20.4600 C   0  0  0  0  0  0  0  0  0  0  0  0
    8.4415  -14.1669   20.9880 C   0  0  0  0  0  0  0  0  0  0  0  0
    8.3480  -15.6037   20.7538 C   0  0  2  0  0  0  0  0  0  0  0  0
    6.9336  -16.0507   20.8722 N   0  0  0  0  0  0  0  0  0  0  0  0
    9.1220  -16.5213   21.5855 C   0  0  0  0  0  0  0  0  0  0  0  0
    8.5153  -16.9025   22.5986 O   0  0  0  0  0  0  0  0  0  0  0  0
   10.4532  -16.9541   21.2685 N   0  0  0  0  0  0  0  0  0  0  0  0
   11.1000  -17.6086   22.3291 C   0  0  0  0  0  0  0  0  0  0  0  0
   11.3350  -17.3051   23.7009 C   0  0  0  0  0  0  0  0  0  0  0  0
   12.5742  -17.0987   23.9714 O   0  0  0  0  0  0  0  0  0  0  0  0
    8.7726  -16.0568   26.0357 O   0  0  0  0  0  0  0  0  0  0  0  0
    9.9404  -15.9548   26.7958 C   0  0  0  0  0  0  0  0  0  0  0  0
   10.9763  -16.8238   26.1507 C   0  0  2  0  0  0  0  0  0  0  0  0
   10.5328  -17.1827   24.8051 N   0  0  0  0  0  0  0  0  0  0  0  0
   11.2829  -18.0372   26.8939 C   0  0  0  0  0  0  0  0  0  0  0  0
   11.7731  -17.9971   28.1787 O   0  0  0  0  0  0  0  0  0  0  0  0
   11.0911  -19.1725   26.3366 O   0  0  0  0  0  0  0  0  0  0  0  0
  2  1  1  6
  2  3  1  0
  4  2  1  0
  5  4  1  0
  5  6  1  1
  7  5  1  0
  8  7  2  0
  9  7  1  0
 10  9  1  0
 11 10  1  0
 11 16  1  0
 12 11  2  0
 14 13  1  0
 15 17  1  0
 15 16  1  0
 15 14  1  1
 17 18  1  0
 19 17  2  0
M  END
$$$$
