LGS.pdb
     RDKit          3D

 19 18  0  0  1  0  0  0  0  0999 V2000
    9.0821  -12.8015   19.7473 C   0  0  0  0  0  0  0  0  0  0  0  0
    7.7431  -13.4534   19.8307 C   0  0  2  0  0  0  0  0  0  0  0  0
    6.6278  -12.5003   19.3968 C   0  0  0  0  0  0  0  0  0  0  0  0
    7.4588  -14.0722   21.1413 C   0  0  0  0  0  0  0  0  0  0  0  0
    8.4909  -14.9524   21.6781 C   0  0  2  0  0  0  0  0  0  0  0  0
    8.6854  -16.1214   20.7782 N   0  0  0  0  0  0  0  0  0  0  0  0
    8.3372  -15.5090   23.0194 C   0  0  0  0  0  0  0  0  0  0  0  0
    8.2424  -14.6457   23.9057 O   0  0  0  0  0  0  0  0  0  0  0  0
    8.2908  -16.9162   23.2978 N   0  0  0  0  0  0  0  0  0  0  0  0
    8.1779  -17.2163   24.6648 C   0  0  0  0  0  0  0  0  0  0  0  0
    8.8937  -16.8385   25.8371 C   0  0  0  0  0  0  0  0  0  0  0  0
    9.7796  -17.6992   26.1919 O   0  0  0  0  0  0  0  0  0  0  0  0
   10.5856  -13.6567   29.0625 O   0  0  0  0  0  0  0  0  0  0  0  0
    9.5189  -14.0571   28.2541 C   0  0  0  0  0  0  0  0  0  0  0  0
    9.9048  -15.3514   27.6057 C   0  0  2  0  0  0  0  0  0  0  0  0
    8.8509  -15.7573   26.6778 N   0  0  0  0  0  0  0  0  0  0  0  0
   10.1610  -16.4345   28.5436 C   0  0  0  0  0  0  0  0  0  0  0  0
   11.3725  -16.5716   29.1808 O   0  0  0  0  0  0  0  0  0  0  0  0
    9.2335  -17.2827   28.7819 O   0  0  0  0  0  0  0  0  0  0  0  0
  2  1  1  1
  2  3  1  0
  4  2  1  0
  5  4  1  0
  5  6  1  6
  7  5  1  0
  8  7  2  0
  9  7  1  0
 10  9  1  0
 11 10  1  0
 11 16  1  0
 12 11  2  0
 14 13  1  0
 15 17  1  0
 15 16  1  0
 15 14  1  1
 17 18  1  0
 19 17  2  0
M  END
$$$$
