LGS.pdb
     RDKit          3D

 19 18  0  0  1  0  0  0  0  0999 V2000
    5.6758  -13.5386   25.8507 C   0  0  0  0  0  0  0  0  0  0  0  0
    6.9719  -12.8121   25.7186 C   0  0  2  0  0  0  0  0  0  0  0  0
    6.8506  -11.3603   26.1857 C   0  0  0  0  0  0  0  0  0  0  0  0
    7.5785  -12.9089   24.3755 C   0  0  0  0  0  0  0  0  0  0  0  0
    7.6414  -14.2432   23.7893 C   0  0  2  0  0  0  0  0  0  0  0  0
    6.4411  -15.0311   24.1800 N   0  0  0  0  0  0  0  0  0  0  0  0
    8.7870  -15.1026   24.0751 C   0  0  0  0  0  0  0  0  0  0  0  0
    9.8809  -14.5526   23.8735 O   0  0  0  0  0  0  0  0  0  0  0  0
    8.6721  -16.4517   24.5511 N   0  0  0  0  0  0  0  0  0  0  0  0
    9.9001  -17.0266   24.9160 C   0  0  0  0  0  0  0  0  0  0  0  0
   10.7168  -16.9912   26.0826 C   0  0  0  0  0  0  0  0  0  0  0  0
   11.9352  -17.3350   25.8614 O   0  0  0  0  0  0  0  0  0  0  0  0
   10.0153  -15.2254   29.5778 O   0  0  0  0  0  0  0  0  0  0  0  0
   11.3598  -15.3457   29.2179 C   0  0  0  0  0  0  0  0  0  0  0  0
   11.5088  -16.6227   28.4488 C   0  0  2  0  0  0  0  0  0  0  0  0
   10.4955  -16.6713   27.3965 N   0  0  0  0  0  0  0  0  0  0  0  0
   11.4108  -17.8244   29.2644 C   0  0  0  0  0  0  0  0  0  0  0  0
   12.3212  -18.1039   30.2571 O   0  0  0  0  0  0  0  0  0  0  0  0
   10.4513  -18.6432   29.0519 O   0  0  0  0  0  0  0  0  0  0  0  0
  2  1  1  6
  2  3  1  0
  4  2  1  0
  5  4  1  0
  5  6  1  1
  7  5  1  0
  8  7  2  0
  9  7  1  0
 10  9  1  0
 11 10  1  0
 11 16  1  0
 12 11  2  0
 14 13  1  0
 15 17  1  0
 15 16  1  0
 15 14  1  1
 17 18  1  0
 19 17  2  0
M  END
$$$$
