QQF.pdb
     RDKit          3D

 30 30  0  0  1  0  0  0  0  0999 V2000
    7.0147  -12.5031   18.9986 N   0  0  0  0  0  0  0  0  0  0  0  0
    8.2593  -12.7587   18.3844 C   0  0  0  0  0  0  0  0  0  0  0  0
    9.0218  -11.8073   18.1112 O   0  0  0  0  0  0  0  0  0  0  0  0
    8.6329  -14.1531   18.0742 C   0  0  0  0  0  0  0  0  0  0  0  0
    8.5688  -14.9909   19.3124 C   0  0  0  0  0  0  0  0  0  0  0  0
    8.8453  -16.4439   19.0307 C   0  0  2  0  0  0  0  0  0  0  0  0
    7.7156  -16.9525   18.2362 N   0  0  0  0  0  0  0  0  0  0  0  0
    8.9757  -17.1830   20.2973 C   0  0  0  0  0  0  0  0  0  0  0  0
    7.9221  -17.3455   20.9891 O   0  0  0  0  0  0  0  0  0  0  0  0
   12.8404  -21.6863   21.4696 N   0  0  0  0  0  0  0  0  0  0  0  0
   11.5498  -21.8071   20.9372 C   0  0  0  0  0  0  0  0  0  0  0  0
   11.2078  -22.8370   20.3301 O   0  0  0  0  0  0  0  0  0  0  0  0
   10.5735  -20.7022   21.0941 C   0  0  0  0  0  0  0  0  0  0  0  0
   11.1920  -19.5354   21.8341 C   0  0  0  0  0  0  0  0  0  0  0  0
   10.2688  -18.3806   22.0068 C   0  0  2  0  0  0  0  0  0  0  0  0
   10.2131  -17.6868   20.7308 N   0  0  0  0  0  0  0  0  0  0  0  0
   10.6466  -17.4359   23.1069 C   0  0  0  0  0  0  0  0  0  0  0  0
   11.6393  -16.6651   22.9228 O   0  0  0  0  0  0  0  0  0  0  0  0
    9.9625  -17.3680   24.3144 N   0  0  0  0  0  0  0  0  0  0  0  0
   10.2942  -16.6146   25.4899 C   0  0  1  0  0  0  0  0  0  0  0  0
    9.0904  -16.2513   26.3557 C   0  0  0  0  0  0  0  0  0  0  0  0
    9.5813  -15.4182   27.4839 C   0  0  0  0  0  0  0  0  0  0  0  0
   10.0989  -15.9237   28.6539 C   0  0  0  0  0  0  0  0  0  0  0  0
   10.5634  -15.1243   29.6671 C   0  0  0  0  0  0  0  0  0  0  0  0
   10.5252  -13.7420   29.5480 C   0  0  0  0  0  0  0  0  0  0  0  0
    9.9922  -13.2259   28.3575 C   0  0  0  0  0  0  0  0  0  0  0  0
    9.5399  -14.0204   27.3598 C   0  0  0  0  0  0  0  0  0  0  0  0
   11.4557  -17.1175   26.2077 C   0  0  0  0  0  0  0  0  0  0  0  0
   12.5880  -16.4146   26.4803 O   0  0  0  0  0  0  0  0  0  0  0  0
   11.3943  -18.3535   26.6164 O   0  0  0  0  0  0  0  0  0  0  0  0
  1  2  1  0
  2  4  1  0
  2  3  2  0
  4  5  1  0
  6  7  1  6
  6  5  1  0
  8  6  1  0
  9  8  2  0
 10 11  1  0
 11 12  2  0
 13 11  1  0
 13 14  1  0
 15 14  1  6
 15 16  1  0
 16  8  1  0
 17 19  1  0
 17 15  1  0
 18 17  2  0
 20 28  1  0
 20 19  1  0
 20 21  1  1
 22 21  1  0
 22 23  2  0
 24 23  1  0
 25 24  2  0
 26 27  2  0
 26 25  1  0
 27 22  1  0
 28 29  1  0
 30 28  2  0
M  END
$$$$
