QQF.pdb
     RDKit          3D

 30 30  0  0  1  0  0  0  0  0999 V2000
    8.4745  -12.6323   20.0479 N   0  0  0  0  0  0  0  0  0  0  0  0
    8.4293  -13.3665   18.8434 C   0  0  0  0  0  0  0  0  0  0  0  0
    9.0211  -12.9334   17.8319 O   0  0  0  0  0  0  0  0  0  0  0  0
    7.6765  -14.6362   18.8055 C   0  0  0  0  0  0  0  0  0  0  0  0
    7.1229  -14.9472   20.1605 C   0  0  0  0  0  0  0  0  0  0  0  0
    6.9284  -16.4256   20.3696 C   0  0  2  0  0  0  0  0  0  0  0  0
    5.8120  -16.8409   19.5050 N   0  0  0  0  0  0  0  0  0  0  0  0
    6.6289  -16.6954   21.7856 C   0  0  0  0  0  0  0  0  0  0  0  0
    5.5075  -16.2964   22.2310 O   0  0  0  0  0  0  0  0  0  0  0  0
    6.9588  -21.7450   24.6558 N   0  0  0  0  0  0  0  0  0  0  0  0
    6.5897  -20.9263   25.7314 C   0  0  0  0  0  0  0  0  0  0  0  0
    6.1934  -21.4233   26.8001 O   0  0  0  0  0  0  0  0  0  0  0  0
    6.6693  -19.4510   25.6055 C   0  0  0  0  0  0  0  0  0  0  0  0
    6.9946  -19.0467   24.1835 C   0  0  0  0  0  0  0  0  0  0  0  0
    7.1831  -17.5806   24.0076 C   0  0  2  0  0  0  0  0  0  0  0  0
    7.5437  -17.3626   22.6166 N   0  0  0  0  0  0  0  0  0  0  0  0
    8.2000  -16.9661   24.9206 C   0  0  0  0  0  0  0  0  0  0  0  0
    9.4138  -16.9532   24.5466 O   0  0  0  0  0  0  0  0  0  0  0  0
    7.8746  -16.4138   26.1534 N   0  0  0  0  0  0  0  0  0  0  0  0
    8.7448  -15.8086   27.1209 C   0  0  1  0  0  0  0  0  0  0  0  0
    8.0543  -14.7953   28.0303 C   0  0  0  0  0  0  0  0  0  0  0  0
    7.5739  -13.6776   27.1772 C   0  0  0  0  0  0  0  0  0  0  0  0
    6.2674  -13.5103   26.7805 C   0  0  0  0  0  0  0  0  0  0  0  0
    5.8546  -12.4535   26.0097 C   0  0  0  0  0  0  0  0  0  0  0  0
    6.7622  -11.4916   25.5885 C   0  0  0  0  0  0  0  0  0  0  0  0
    8.0956  -11.6647   25.9879 C   0  0  0  0  0  0  0  0  0  0  0  0
    8.4953  -12.7073   26.7524 C   0  0  0  0  0  0  0  0  0  0  0  0
    9.6338  -16.7481   27.7876 C   0  0  0  0  0  0  0  0  0  0  0  0
   10.7557  -16.4234   28.4850 O   0  0  0  0  0  0  0  0  0  0  0  0
    9.3179  -18.0092   27.6971 O   0  0  0  0  0  0  0  0  0  0  0  0
  1  2  1  0
  2  4  1  0
  2  3  2  0
  4  5  1  0
  6  7  1  6
  6  5  1  0
  8  6  1  0
  9  8  2  0
 10 11  1  0
 11 12  2  0
 13 11  1  0
 13 14  1  0
 15 14  1  6
 15 16  1  0
 16  8  1  0
 17 19  1  0
 17 15  1  0
 18 17  2  0
 20 28  1  0
 20 19  1  0
 20 21  1  1
 22 21  1  0
 22 23  2  0
 24 23  1  0
 25 24  2  0
 26 27  2  0
 26 25  1  0
 27 22  1  0
 28 29  1  0
 30 28  2  0
M  END
$$$$
