QQF.pdb
     RDKit          3D

 30 30  0  0  1  0  0  0  0  0999 V2000
    7.6526  -13.2144   18.7183 N   0  0  0  0  0  0  0  0  0  0  0  0
    8.3502  -14.0807   17.8497 C   0  0  0  0  0  0  0  0  0  0  0  0
    8.9140  -13.6179   16.8353 O   0  0  0  0  0  0  0  0  0  0  0  0
    8.3955  -15.5236   18.1600 C   0  0  0  0  0  0  0  0  0  0  0  0
    7.6586  -15.7998   19.4328 C   0  0  0  0  0  0  0  0  0  0  0  0
    7.8302  -17.2236   19.8916 C   0  0  2  0  0  0  0  0  0  0  0  0
    7.2828  -18.0874   18.8330 N   0  0  0  0  0  0  0  0  0  0  0  0
    7.1166  -17.4289   21.1629 C   0  0  0  0  0  0  0  0  0  0  0  0
    5.9647  -16.9041   21.2767 O   0  0  0  0  0  0  0  0  0  0  0  0
    8.3743  -21.8724   25.2951 N   0  0  0  0  0  0  0  0  0  0  0  0
    7.2817  -21.2479   25.9112 C   0  0  0  0  0  0  0  0  0  0  0  0
    6.8139  -21.6918   26.9744 O   0  0  0  0  0  0  0  0  0  0  0  0
    6.6695  -20.0444   25.2985 C   0  0  0  0  0  0  0  0  0  0  0  0
    7.3753  -19.6747   24.0113 C   0  0  0  0  0  0  0  0  0  0  0  0
    6.8816  -18.4098   23.4014 C   0  0  2  0  0  0  0  0  0  0  0  0
    7.6829  -18.1704   22.2127 N   0  0  0  0  0  0  0  0  0  0  0  0
    6.9167  -17.2202   24.3118 C   0  0  0  0  0  0  0  0  0  0  0  0
    6.1689  -17.2267   25.3385 O   0  0  0  0  0  0  0  0  0  0  0  0
    7.7267  -16.1148   24.0819 N   0  0  0  0  0  0  0  0  0  0  0  0
    7.8490  -14.9169   24.8626 C   0  0  1  0  0  0  0  0  0  0  0  0
    6.5744  -14.0784   24.9185 C   0  0  0  0  0  0  0  0  0  0  0  0
    6.7592  -13.0468   25.9718 C   0  0  0  0  0  0  0  0  0  0  0  0
    7.9591  -12.7698   26.5847 C   0  0  0  0  0  0  0  0  0  0  0  0
    8.0981  -11.7944   27.5390 C   0  0  0  0  0  0  0  0  0  0  0  0
    7.0062  -11.0339   27.9336 C   0  0  0  0  0  0  0  0  0  0  0  0
    5.7811  -11.3197   27.3131 C   0  0  0  0  0  0  0  0  0  0  0  0
    5.6520  -12.2803   26.3688 C   0  0  0  0  0  0  0  0  0  0  0  0
    8.5339  -15.1049   26.1326 C   0  0  0  0  0  0  0  0  0  0  0  0
    9.5263  -14.3158   26.6255 O   0  0  0  0  0  0  0  0  0  0  0  0
    8.1564  -16.1257   26.8494 O   0  0  0  0  0  0  0  0  0  0  0  0
  1  2  1  0
  2  4  1  0
  2  3  2  0
  4  5  1  0
  6  7  1  6
  6  5  1  0
  8  6  1  0
  9  8  2  0
 10 11  1  0
 11 12  2  0
 13 11  1  0
 13 14  1  0
 15 14  1  1
 15 16  1  0
 16  8  1  0
 17 19  1  0
 17 15  1  0
 18 17  2  0
 20 28  1  0
 20 19  1  0
 20 21  1  1
 22 21  1  0
 22 23  2  0
 24 23  1  0
 25 24  2  0
 26 27  2  0
 26 25  1  0
 27 22  1  0
 28 29  1  0
 30 28  2  0
M  END
$$$$
