QQF.pdb
     RDKit          3D

 30 30  0  0  1  0  0  0  0  0999 V2000
    8.7793  -12.4004   20.0027 N   0  0  0  0  0  0  0  0  0  0  0  0
    8.1243  -12.7862   18.8136 C   0  0  0  0  0  0  0  0  0  0  0  0
    8.0901  -12.0003   17.8429 O   0  0  0  0  0  0  0  0  0  0  0  0
    7.4881  -14.1168   18.7447 C   0  0  0  0  0  0  0  0  0  0  0  0
    7.6876  -14.8502   20.0337 C   0  0  0  0  0  0  0  0  0  0  0  0
    8.0100  -16.3048   19.8162 C   0  0  2  0  0  0  0  0  0  0  0  0
    6.8069  -16.9335   19.2473 N   0  0  0  0  0  0  0  0  0  0  0  0
    8.3791  -16.9322   21.0960 C   0  0  0  0  0  0  0  0  0  0  0  0
    7.4919  -17.6284   21.6818 O   0  0  0  0  0  0  0  0  0  0  0  0
   13.9145  -18.9820   22.3908 N   0  0  0  0  0  0  0  0  0  0  0  0
   13.0081  -19.2814   21.3649 C   0  0  0  0  0  0  0  0  0  0  0  0
   13.3715  -19.9253   20.3651 O   0  0  0  0  0  0  0  0  0  0  0  0
   11.5986  -18.8315   21.4624 C   0  0  0  0  0  0  0  0  0  0  0  0
   11.3825  -17.9963   22.7063 C   0  0  0  0  0  0  0  0  0  0  0  0
    9.9854  -17.5066   22.8617 C   0  0  2  0  0  0  0  0  0  0  0  0
    9.6575  -16.7676   21.6540 N   0  0  0  0  0  0  0  0  0  0  0  0
    9.7489  -16.6643   24.0783 C   0  0  0  0  0  0  0  0  0  0  0  0
   10.4321  -15.6024   24.2163 O   0  0  0  0  0  0  0  0  0  0  0  0
    8.8203  -16.9938   25.0581 N   0  0  0  0  0  0  0  0  0  0  0  0
    8.5815  -16.3493   26.3178 C   0  0  1  0  0  0  0  0  0  0  0  0
    7.1132  -16.0245   26.5815 C   0  0  0  0  0  0  0  0  0  0  0  0
    6.8565  -14.6523   26.0724 C   0  0  0  0  0  0  0  0  0  0  0  0
    6.9504  -13.5115   26.8352 C   0  0  0  0  0  0  0  0  0  0  0  0
    6.7272  -12.2574   26.3266 C   0  0  0  0  0  0  0  0  0  0  0  0
    6.3875  -12.0886   24.9915 C   0  0  0  0  0  0  0  0  0  0  0  0
    6.2860  -13.2520   24.2145 C   0  0  0  0  0  0  0  0  0  0  0  0
    6.5121  -14.4861   24.7216 C   0  0  0  0  0  0  0  0  0  0  0  0
    9.3040  -16.9423   27.4330 C   0  0  0  0  0  0  0  0  0  0  0  0
    9.6725  -16.2995   28.5739 O   0  0  0  0  0  0  0  0  0  0  0  0
    9.6241  -18.1999   27.3134 O   0  0  0  0  0  0  0  0  0  0  0  0
  1  2  1  0
  2  4  1  0
  2  3  2  0
  4  5  1  0
  6  7  1  1
  6  5  1  0
  8  6  1  0
  9  8  2  0
 10 11  1  0
 11 12  2  0
 13 11  1  0
 13 14  1  0
 15 14  1  6
 15 16  1  0
 16  8  1  0
 17 19  1  0
 17 15  1  0
 18 17  2  0
 20 28  1  0
 20 19  1  0
 20 21  1  1
 22 21  1  0
 22 23  2  0
 24 23  1  0
 25 24  2  0
 26 27  2  0
 26 25  1  0
 27 22  1  0
 28 29  1  0
 30 28  2  0
M  END
$$$$
