QQF.pdb
     RDKit          3D

 30 30  0  0  1  0  0  0  0  0999 V2000
    8.4630  -12.3834   19.2773 N   0  0  0  0  0  0  0  0  0  0  0  0
    8.6176  -13.1531   18.1045 C   0  0  0  0  0  0  0  0  0  0  0  0
    8.6975  -12.5826   16.9958 O   0  0  0  0  0  0  0  0  0  0  0  0
    8.6789  -14.6242   18.2153 C   0  0  0  0  0  0  0  0  0  0  0  0
    8.4415  -15.0442   19.6318 C   0  0  0  0  0  0  0  0  0  0  0  0
    8.5606  -16.5345   19.8106 C   0  0  2  0  0  0  0  0  0  0  0  0
    7.5277  -17.1547   18.9651 N   0  0  0  0  0  0  0  0  0  0  0  0
    8.3651  -16.8856   21.2269 C   0  0  0  0  0  0  0  0  0  0  0  0
    7.4930  -17.7708   21.4936 O   0  0  0  0  0  0  0  0  0  0  0  0
   12.1892  -20.5508   22.6810 N   0  0  0  0  0  0  0  0  0  0  0  0
   11.1130  -20.4253   23.5697 C   0  0  0  0  0  0  0  0  0  0  0  0
   10.4641  -21.4247   23.9252 O   0  0  0  0  0  0  0  0  0  0  0  0
   10.7358  -19.0924   24.0983 C   0  0  0  0  0  0  0  0  0  0  0  0
   10.3096  -18.1675   22.9784 C   0  0  0  0  0  0  0  0  0  0  0  0
    9.4409  -17.0455   23.4281 C   0  0  2  0  0  0  0  0  0  0  0  0
    9.1066  -16.2673   22.2470 N   0  0  0  0  0  0  0  0  0  0  0  0
   10.0444  -16.1710   24.4848 C   0  0  0  0  0  0  0  0  0  0  0  0
   11.3064  -16.0282   24.4982 O   0  0  0  0  0  0  0  0  0  0  0  0
    9.2870  -15.5142   25.4470 N   0  0  0  0  0  0  0  0  0  0  0  0
    9.5430  -15.3855   26.8532 C   0  0  1  0  0  0  0  0  0  0  0  0
    8.3056  -15.0504   27.6822 C   0  0  0  0  0  0  0  0  0  0  0  0
    7.5882  -13.9454   26.9951 C   0  0  0  0  0  0  0  0  0  0  0  0
    6.2206  -13.8686   26.8684 C   0  0  0  0  0  0  0  0  0  0  0  0
    5.5898  -12.8217   26.2458 C   0  0  0  0  0  0  0  0  0  0  0  0
    6.3258  -11.7767   25.7050 C   0  0  0  0  0  0  0  0  0  0  0  0
    7.7207  -11.8572   25.8288 C   0  0  0  0  0  0  0  0  0  0  0  0
    8.3364  -12.8907   26.4484 C   0  0  0  0  0  0  0  0  0  0  0  0
   10.4005  -16.4276   27.3970 C   0  0  0  0  0  0  0  0  0  0  0  0
   10.6999  -17.6081   26.7908 O   0  0  0  0  0  0  0  0  0  0  0  0
   10.9178  -16.1990   28.5711 O   0  0  0  0  0  0  0  0  0  0  0  0
  1  2  1  0
  2  4  1  0
  2  3  2  0
  4  5  1  0
  6  7  1  6
  6  5  1  0
  8  6  1  0
  9  8  2  0
 10 11  1  0
 11 12  2  0
 13 11  1  0
 13 14  1  0
 15 14  1  6
 15 16  1  0
 16  8  1  0
 17 19  1  0
 17 15  1  0
 18 17  2  0
 20 28  1  0
 20 19  1  0
 20 21  1  1
 22 21  1  0
 22 23  2  0
 24 23  1  0
 25 24  2  0
 26 27  2  0
 26 25  1  0
 27 22  1  0
 28 29  1  0
 30 28  2  0
M  END
$$$$
