QQF.pdb
     RDKit          3D

 30 30  0  0  1  0  0  0  0  0999 V2000
    8.9925  -18.5858   16.7076 N   0  0  0  0  0  0  0  0  0  0  0  0
    8.2544  -19.7008   17.1589 C   0  0  0  0  0  0  0  0  0  0  0  0
    7.3919  -20.2144   16.4150 O   0  0  0  0  0  0  0  0  0  0  0  0
    8.5182  -20.2364   18.5094 C   0  0  0  0  0  0  0  0  0  0  0  0
    9.6476  -19.4904   19.1475 C   0  0  0  0  0  0  0  0  0  0  0  0
    9.3703  -19.1649   20.5912 C   0  0  2  0  0  0  0  0  0  0  0  0
    7.9078  -19.1369   20.7544 N   0  0  0  0  0  0  0  0  0  0  0  0
    9.9653  -17.8625   20.9336 C   0  0  0  0  0  0  0  0  0  0  0  0
   11.2248  -17.7460   20.8107 O   0  0  0  0  0  0  0  0  0  0  0  0
    8.0488  -12.0430   19.5241 N   0  0  0  0  0  0  0  0  0  0  0  0
    7.9808  -13.3656   19.0665 C   0  0  0  0  0  0  0  0  0  0  0  0
    7.1104  -13.7097   18.2478 O   0  0  0  0  0  0  0  0  0  0  0  0
    8.9520  -14.3735   19.5561 C   0  0  0  0  0  0  0  0  0  0  0  0
    8.9264  -14.4594   21.0672 C   0  0  0  0  0  0  0  0  0  0  0  0
    9.8240  -15.5097   21.6211 C   0  0  2  0  0  0  0  0  0  0  0  0
    9.1779  -16.7896   21.3827 N   0  0  0  0  0  0  0  0  0  0  0  0
   10.1567  -15.3470   23.0731 C   0  0  0  0  0  0  0  0  0  0  0  0
   11.1283  -14.5912   23.3861 O   0  0  0  0  0  0  0  0  0  0  0  0
    9.4528  -15.9854   24.0869 N   0  0  0  0  0  0  0  0  0  0  0  0
    9.7592  -16.0471   25.4876 C   0  0  1  0  0  0  0  0  0  0  0  0
    9.9572  -14.6818   26.1414 C   0  0  0  0  0  0  0  0  0  0  0  0
    8.6419  -13.9908   26.1500 C   0  0  0  0  0  0  0  0  0  0  0  0
    7.7185  -14.0672   25.1332 C   0  0  0  0  0  0  0  0  0  0  0  0
    6.5034  -13.4329   25.1840 C   0  0  0  0  0  0  0  0  0  0  0  0
    6.1526  -12.6696   26.2888 C   0  0  0  0  0  0  0  0  0  0  0  0
    7.0960  -12.5867   27.3235 C   0  0  0  0  0  0  0  0  0  0  0  0
    8.2913  -13.2188   27.2690 C   0  0  0  0  0  0  0  0  0  0  0  0
    8.9362  -16.9875   26.2330 C   0  0  0  0  0  0  0  0  0  0  0  0
    7.9049  -17.7164   25.7274 O   0  0  0  0  0  0  0  0  0  0  0  0
    9.2203  -17.1315   27.4967 O   0  0  0  0  0  0  0  0  0  0  0  0
  1  2  1  0
  2  4  1  0
  2  3  2  0
  4  5  1  0
  6  7  1  6
  6  5  1  0
  8  6  1  0
  9  8  2  0
 10 11  1  0
 11 12  2  0
 13 11  1  0
 13 14  1  0
 15 14  1  1
 15 16  1  0
 16  8  1  0
 17 19  1  0
 17 15  1  0
 18 17  2  0
 20 28  1  0
 20 19  1  0
 20 21  1  1
 22 21  1  0
 22 23  2  0
 24 23  1  0
 25 24  2  0
 26 27  2  0
 26 25  1  0
 27 22  1  0
 28 29  1  0
 30 28  2  0
M  END
$$$$
