QQF.pdb
     RDKit          3D

 30 30  0  0  1  0  0  0  0  0999 V2000
    7.1029  -14.8045   15.2352 N   0  0  0  0  0  0  0  0  0  0  0  0
    8.0833  -14.3502   16.1429 C   0  0  0  0  0  0  0  0  0  0  0  0
    8.3921  -13.1398   16.1660 O   0  0  0  0  0  0  0  0  0  0  0  0
    8.7278  -15.3225   17.0483 C   0  0  0  0  0  0  0  0  0  0  0  0
    8.0556  -15.3050   18.3851 C   0  0  0  0  0  0  0  0  0  0  0  0
    8.8735  -15.9988   19.4419 C   0  0  2  0  0  0  0  0  0  0  0  0
    9.1128  -17.3724   18.9703 N   0  0  0  0  0  0  0  0  0  0  0  0
    8.1430  -15.9987   20.7201 C   0  0  0  0  0  0  0  0  0  0  0  0
    6.8834  -15.8369   20.6722 O   0  0  0  0  0  0  0  0  0  0  0  0
    6.4315  -20.4193   21.9651 N   0  0  0  0  0  0  0  0  0  0  0  0
    6.0380  -19.9163   23.2124 C   0  0  0  0  0  0  0  0  0  0  0  0
    5.2604  -20.5592   23.9392 O   0  0  0  0  0  0  0  0  0  0  0  0
    6.5486  -18.6054   23.6809 C   0  0  0  0  0  0  0  0  0  0  0  0
    7.4252  -17.9595   22.6293 C   0  0  0  0  0  0  0  0  0  0  0  0
    8.0538  -16.6861   23.0755 C   0  0  2  0  0  0  0  0  0  0  0  0
    8.8069  -16.1657   21.9466 N   0  0  0  0  0  0  0  0  0  0  0  0
    8.9304  -16.8105   24.2844 C   0  0  0  0  0  0  0  0  0  0  0  0
    9.5011  -17.9243   24.5011 O   0  0  0  0  0  0  0  0  0  0  0  0
    9.1438  -15.7656   25.1752 N   0  0  0  0  0  0  0  0  0  0  0  0
    8.7092  -15.6484   26.5379 C   0  0  1  0  0  0  0  0  0  0  0  0
    7.2516  -15.2212   26.6911 C   0  0  0  0  0  0  0  0  0  0  0  0
    7.1584  -13.7894   26.3050 C   0  0  0  0  0  0  0  0  0  0  0  0
    6.9649  -13.3438   25.0180 C   0  0  0  0  0  0  0  0  0  0  0  0
    6.8619  -12.0135   24.7001 C   0  0  0  0  0  0  0  0  0  0  0  0
    6.9541  -11.0435   25.6886 C   0  0  0  0  0  0  0  0  0  0  0  0
    7.1572  -11.4970   27.0003 C   0  0  0  0  0  0  0  0  0  0  0  0
    7.2532  -12.8114   27.3077 C   0  0  0  0  0  0  0  0  0  0  0  0
    9.1354  -16.7467   27.3921 C   0  0  0  0  0  0  0  0  0  0  0  0
    9.7726  -16.6234   28.5876 O   0  0  0  0  0  0  0  0  0  0  0  0
    8.8818  -17.9496   26.9596 O   0  0  0  0  0  0  0  0  0  0  0  0
  1  2  1  0
  2  4  1  0
  2  3  2  0
  4  5  1  0
  6  7  1  6
  6  5  1  0
  8  6  1  0
  9  8  2  0
 10 11  1  0
 11 12  2  0
 13 11  1  0
 13 14  1  0
 15 14  1  6
 15 16  1  0
 16  8  1  0
 17 19  1  0
 17 15  1  0
 18 17  2  0
 20 28  1  0
 20 19  1  0
 20 21  1  6
 22 21  1  0
 22 23  2  0
 24 23  1  0
 25 24  2  0
 26 27  2  0
 26 25  1  0
 27 22  1  0
 28 29  1  0
 30 28  2  0
M  END
$$$$
