QQF.pdb
     RDKit          3D

 30 30  0  0  1  0  0  0  0  0999 V2000
    7.5394  -16.7427   15.5534 N   0  0  0  0  0  0  0  0  0  0  0  0
    7.8533  -15.3671   15.5850 C   0  0  0  0  0  0  0  0  0  0  0  0
    7.5429  -14.6390   14.6183 O   0  0  0  0  0  0  0  0  0  0  0  0
    8.5481  -14.8172   16.7661 C   0  0  0  0  0  0  0  0  0  0  0  0
    7.6155  -13.9543   17.5566 C   0  0  0  0  0  0  0  0  0  0  0  0
    8.2637  -13.4075   18.8008 C   0  0  2  0  0  0  0  0  0  0  0  0
    9.5189  -12.7607   18.3853 N   0  0  0  0  0  0  0  0  0  0  0  0
    8.5224  -14.5009   19.7520 C   0  0  0  0  0  0  0  0  0  0  0  0
    7.5135  -15.0732   20.2715 O   0  0  0  0  0  0  0  0  0  0  0  0
   13.1990  -18.3876   19.6364 N   0  0  0  0  0  0  0  0  0  0  0  0
   12.6540  -18.7332   20.8801 C   0  0  0  0  0  0  0  0  0  0  0  0
   13.0843  -19.7148   21.5107 O   0  0  0  0  0  0  0  0  0  0  0  0
   11.5532  -17.9269   21.4604 C   0  0  0  0  0  0  0  0  0  0  0  0
   11.1880  -16.7752   20.5484 C   0  0  0  0  0  0  0  0  0  0  0  0
   10.0056  -15.9984   21.0113 C   0  0  2  0  0  0  0  0  0  0  0  0
    9.8295  -14.8971   20.0794 N   0  0  0  0  0  0  0  0  0  0  0  0
   10.1013  -15.4912   22.4181 C   0  0  0  0  0  0  0  0  0  0  0  0
   11.0051  -14.6412   22.6904 O   0  0  0  0  0  0  0  0  0  0  0  0
    9.2495  -15.9095   23.4330 N   0  0  0  0  0  0  0  0  0  0  0  0
    8.7083  -15.1441   24.5197 C   0  0  1  0  0  0  0  0  0  0  0  0
    7.7965  -14.0008   24.0813 C   0  0  0  0  0  0  0  0  0  0  0  0
    7.3972  -13.2499   25.2997 C   0  0  0  0  0  0  0  0  0  0  0  0
    8.2222  -12.3895   25.9862 C   0  0  0  0  0  0  0  0  0  0  0  0
    7.8132  -11.6953   27.0962 C   0  0  0  0  0  0  0  0  0  0  0  0
    6.5211  -11.8407   27.5818 C   0  0  0  0  0  0  0  0  0  0  0  0
    5.6811  -12.7223   26.8856 C   0  0  0  0  0  0  0  0  0  0  0  0
    6.0897  -13.4006   25.7882 C   0  0  0  0  0  0  0  0  0  0  0  0
    8.2163  -15.9516   25.6257 C   0  0  0  0  0  0  0  0  0  0  0  0
    8.5764  -15.8170   26.9306 O   0  0  0  0  0  0  0  0  0  0  0  0
    7.3586  -16.8856   25.3251 O   0  0  0  0  0  0  0  0  0  0  0  0
  1  2  1  0
  2  4  1  0
  2  3  2  0
  4  5  1  0
  6  7  1  6
  6  5  1  0
  8  6  1  0
  9  8  2  0
 10 11  1  0
 11 12  2  0
 13 11  1  0
 13 14  1  0
 15 14  1  6
 15 16  1  0
 16  8  1  0
 17 19  1  0
 17 15  1  0
 18 17  2  0
 20 28  1  0
 20 19  1  0
 20 21  1  6
 22 21  1  0
 22 23  2  0
 24 23  1  0
 25 24  2  0
 26 27  2  0
 26 25  1  0
 27 22  1  0
 28 29  1  0
 30 28  2  0
M  END
$$$$
