QQF.pdb
     RDKit          3D

 30 30  0  0  1  0  0  0  0  0999 V2000
   10.6552  -20.5608   17.3534 N   0  0  0  0  0  0  0  0  0  0  0  0
    9.3594  -20.7086   17.8928 C   0  0  0  0  0  0  0  0  0  0  0  0
    8.4355  -21.1442   17.1734 O   0  0  0  0  0  0  0  0  0  0  0  0
    9.1234  -20.3401   19.3031 C   0  0  0  0  0  0  0  0  0  0  0  0
   10.3823  -19.8100   19.9142 C   0  0  0  0  0  0  0  0  0  0  0  0
   10.1940  -19.4205   21.3564 C   0  0  2  0  0  0  0  0  0  0  0  0
    8.8469  -19.8633   21.7510 N   0  0  0  0  0  0  0  0  0  0  0  0
   10.3351  -17.9624   21.5033 C   0  0  0  0  0  0  0  0  0  0  0  0
   11.4211  -17.4380   21.1024 O   0  0  0  0  0  0  0  0  0  0  0  0
    7.4341  -13.3397   19.5413 N   0  0  0  0  0  0  0  0  0  0  0  0
    7.4630  -12.8921   20.8688 C   0  0  0  0  0  0  0  0  0  0  0  0
    6.9962  -11.7807   21.1739 O   0  0  0  0  0  0  0  0  0  0  0  0
    8.0530  -13.7445   21.9289 C   0  0  0  0  0  0  0  0  0  0  0  0
    8.5349  -15.0612   21.3582 C   0  0  0  0  0  0  0  0  0  0  0  0
    9.5415  -15.7495   22.2117 C   0  0  2  0  0  0  0  0  0  0  0  0
    9.3155  -17.1780   22.0671 N   0  0  0  0  0  0  0  0  0  0  0  0
    9.5138  -15.3529   23.6564 C   0  0  0  0  0  0  0  0  0  0  0  0
    9.9009  -14.1835   23.9663 O   0  0  0  0  0  0  0  0  0  0  0  0
    9.0865  -16.2052   24.6672 N   0  0  0  0  0  0  0  0  0  0  0  0
    9.3151  -16.1033   26.0803 C   0  0  1  0  0  0  0  0  0  0  0  0
    8.0807  -15.6981   26.8821 C   0  0  0  0  0  0  0  0  0  0  0  0
    7.8233  -14.2590   26.6171 C   0  0  0  0  0  0  0  0  0  0  0  0
    6.8135  -13.7869   25.8111 C   0  0  0  0  0  0  0  0  0  0  0  0
    6.5910  -12.4491   25.6056 C   0  0  0  0  0  0  0  0  0  0  0  0
    7.3976  -11.4987   26.2159 C   0  0  0  0  0  0  0  0  0  0  0  0
    8.4311  -11.9795   27.0335 C   0  0  0  0  0  0  0  0  0  0  0  0
    8.6421  -13.3008   27.2356 C   0  0  0  0  0  0  0  0  0  0  0  0
   10.0927  -17.2009   26.6352 C   0  0  0  0  0  0  0  0  0  0  0  0
   10.6236  -18.2359   25.9298 O   0  0  0  0  0  0  0  0  0  0  0  0
   10.2866  -17.1807   27.9238 O   0  0  0  0  0  0  0  0  0  0  0  0
  1  2  1  0
  2  4  1  0
  2  3  2  0
  4  5  1  0
  6  7  1  6
  6  5  1  0
  8  6  1  0
  9  8  2  0
 10 11  1  0
 11 12  2  0
 13 11  1  0
 13 14  1  0
 15 14  1  6
 15 16  1  0
 16  8  1  0
 17 19  1  0
 17 15  1  0
 18 17  2  0
 20 28  1  0
 20 19  1  0
 20 21  1  1
 22 21  1  0
 22 23  2  0
 24 23  1  0
 25 24  2  0
 26 27  2  0
 26 25  1  0
 27 22  1  0
 28 29  1  0
 30 28  2  0
M  END
$$$$
