QQF.pdb
     RDKit          3D

 30 30  0  0  1  0  0  0  0  0999 V2000
    7.6043  -12.4143   15.6537 N   0  0  0  0  0  0  0  0  0  0  0  0
    8.0260  -13.6983   16.0602 C   0  0  0  0  0  0  0  0  0  0  0  0
    7.7335  -14.6947   15.3654 O   0  0  0  0  0  0  0  0  0  0  0  0
    8.8057  -13.8357   17.3066 C   0  0  0  0  0  0  0  0  0  0  0  0
    7.9007  -14.1944   18.4431 C   0  0  0  0  0  0  0  0  0  0  0  0
    8.6520  -14.3626   19.7370 C   0  0  2  0  0  0  0  0  0  0  0  0
    9.8274  -15.2000   19.4482 N   0  0  0  0  0  0  0  0  0  0  0  0
    7.7834  -14.9992   20.7408 C   0  0  0  0  0  0  0  0  0  0  0  0
    6.7044  -14.3996   21.0432 O   0  0  0  0  0  0  0  0  0  0  0  0
    7.7036  -20.9779   22.1449 N   0  0  0  0  0  0  0  0  0  0  0  0
    8.1611  -20.2484   21.0395 C   0  0  0  0  0  0  0  0  0  0  0  0
    8.6993  -20.8245   20.0778 O   0  0  0  0  0  0  0  0  0  0  0  0
    8.0065  -18.7741   21.0050 C   0  0  0  0  0  0  0  0  0  0  0  0
    7.4220  -18.2613   22.3038 C   0  0  0  0  0  0  0  0  0  0  0  0
    7.2206  -16.7867   22.3272 C   0  0  2  0  0  0  0  0  0  0  0  0
    8.1302  -16.2181   21.3464 N   0  0  0  0  0  0  0  0  0  0  0  0
    7.4216  -16.1485   23.6679 C   0  0  0  0  0  0  0  0  0  0  0  0
    6.6274  -15.2208   24.0172 O   0  0  0  0  0  0  0  0  0  0  0  0
    8.4353  -16.5245   24.5408 N   0  0  0  0  0  0  0  0  0  0  0  0
    8.7495  -15.9854   25.8331 C   0  0  1  0  0  0  0  0  0  0  0  0
    7.5261  -15.6847   26.6955 C   0  0  0  0  0  0  0  0  0  0  0  0
    7.2444  -14.2298   26.5868 C   0  0  0  0  0  0  0  0  0  0  0  0
    8.1949  -13.2736   26.3143 C   0  0  0  0  0  0  0  0  0  0  0  0
    7.8954  -11.9400   26.1995 C   0  0  0  0  0  0  0  0  0  0  0  0
    6.5908  -11.4943   26.3606 C   0  0  0  0  0  0  0  0  0  0  0  0
    5.6220  -12.4682   26.6442 C   0  0  0  0  0  0  0  0  0  0  0  0
    5.9237  -13.7830   26.7515 C   0  0  0  0  0  0  0  0  0  0  0  0
    9.8429  -16.6669   26.5093 C   0  0  0  0  0  0  0  0  0  0  0  0
   10.6143  -17.6538   25.9787 O   0  0  0  0  0  0  0  0  0  0  0  0
   10.0920  -16.2919   27.7323 O   0  0  0  0  0  0  0  0  0  0  0  0
  1  2  1  0
  2  4  1  0
  2  3  2  0
  4  5  1  0
  6  7  1  6
  6  5  1  0
  8  6  1  0
  9  8  2  0
 10 11  1  0
 11 12  2  0
 13 11  1  0
 13 14  1  0
 15 14  1  1
 15 16  1  0
 16  8  1  0
 17 19  1  0
 17 15  1  0
 18 17  2  0
 20 28  1  0
 20 19  1  0
 20 21  1  1
 22 21  1  0
 22 23  2  0
 24 23  1  0
 25 24  2  0
 26 27  2  0
 26 25  1  0
 27 22  1  0
 28 29  1  0
 30 28  2  0
M  END
$$$$
