QQF.pdb
     RDKit          3D

 30 30  0  0  1  0  0  0  0  0999 V2000
    6.7679  -13.0662   16.7360 N   0  0  0  0  0  0  0  0  0  0  0  0
    7.7557  -14.0734   16.7765 C   0  0  0  0  0  0  0  0  0  0  0  0
    7.8985  -14.8400   15.8003 O   0  0  0  0  0  0  0  0  0  0  0  0
    8.6011  -14.2005   17.9804 C   0  0  0  0  0  0  0  0  0  0  0  0
    8.1139  -13.2761   19.0516 C   0  0  0  0  0  0  0  0  0  0  0  0
    8.9706  -13.3373   20.2883 C   0  0  2  0  0  0  0  0  0  0  0  0
   10.3603  -13.5268   19.8421 N   0  0  0  0  0  0  0  0  0  0  0  0
    8.5339  -14.4524   21.1447 C   0  0  0  0  0  0  0  0  0  0  0  0
    7.3109  -14.4791   21.4893 O   0  0  0  0  0  0  0  0  0  0  0  0
   11.5262  -19.5750   21.5726 N   0  0  0  0  0  0  0  0  0  0  0  0
   11.3451  -18.6411   20.5437 C   0  0  0  0  0  0  0  0  0  0  0  0
   12.0926  -18.6391   19.5500 O   0  0  0  0  0  0  0  0  0  0  0  0
   10.2538  -17.6410   20.6299 C   0  0  0  0  0  0  0  0  0  0  0  0
    9.4911  -17.7838   21.9296 C   0  0  0  0  0  0  0  0  0  0  0  0
    8.9307  -16.5017   22.4374 C   0  0  2  0  0  0  0  0  0  0  0  0
    9.4294  -15.4472   21.5703 N   0  0  0  0  0  0  0  0  0  0  0  0
    9.2494  -16.2032   23.8709 C   0  0  0  0  0  0  0  0  0  0  0  0
   10.3687  -15.6658   24.1385 O   0  0  0  0  0  0  0  0  0  0  0  0
    8.3784  -16.4890   24.9151 N   0  0  0  0  0  0  0  0  0  0  0  0
    8.6078  -16.3792   26.3275 C   0  0  1  0  0  0  0  0  0  0  0  0
    7.4533  -15.7426   27.0972 C   0  0  0  0  0  0  0  0  0  0  0  0
    7.4632  -14.2864   26.8021 C   0  0  0  0  0  0  0  0  0  0  0  0
    8.4883  -13.4333   27.1393 C   0  0  0  0  0  0  0  0  0  0  0  0
    8.4739  -12.0966   26.8317 C   0  0  0  0  0  0  0  0  0  0  0  0
    7.3972  -11.5408   26.1547 C   0  0  0  0  0  0  0  0  0  0  0  0
    6.3491  -12.4091   25.8157 C   0  0  0  0  0  0  0  0  0  0  0  0
    6.3718  -13.7279   26.1182 C   0  0  0  0  0  0  0  0  0  0  0  0
    9.1813  -17.5736   26.9290 C   0  0  0  0  0  0  0  0  0  0  0  0
    9.3797  -18.7638   26.3007 O   0  0  0  0  0  0  0  0  0  0  0  0
    9.5274  -17.4827   28.1822 O   0  0  0  0  0  0  0  0  0  0  0  0
  1  2  1  0
  2  4  1  0
  2  3  2  0
  4  5  1  0
  6  7  1  6
  6  5  1  0
  8  6  1  0
  9  8  2  0
 10 11  1  0
 11 12  2  0
 13 11  1  0
 13 14  1  0
 15 14  1  6
 15 16  1  0
 16  8  1  0
 17 19  1  0
 17 15  1  0
 18 17  2  0
 20 28  1  0
 20 19  1  0
 20 21  1  1
 22 21  1  0
 22 23  2  0
 24 23  1  0
 25 24  2  0
 26 27  2  0
 26 25  1  0
 27 22  1  0
 28 29  1  0
 30 28  2  0
M  END
$$$$
