QQF.pdb
     RDKit          3D

 30 30  0  0  1  0  0  0  0  0999 V2000
    2.7263  -18.1691   22.7429 N   0  0  0  0  0  0  0  0  0  0  0  0
    2.5505  -18.6214   21.4177 C   0  0  0  0  0  0  0  0  0  0  0  0
    1.3977  -18.8241   20.9806 O   0  0  0  0  0  0  0  0  0  0  0  0
    3.7407  -18.8487   20.5738 C   0  0  0  0  0  0  0  0  0  0  0  0
    4.9847  -18.5275   21.3410 C   0  0  0  0  0  0  0  0  0  0  0  0
    6.0136  -17.8314   20.4902 C   0  0  2  0  0  0  0  0  0  0  0  0
    6.2519  -18.6853   19.3153 N   0  0  0  0  0  0  0  0  0  0  0  0
    7.2521  -17.6367   21.2620 C   0  0  0  0  0  0  0  0  0  0  0  0
    7.7555  -18.6589   21.8249 O   0  0  0  0  0  0  0  0  0  0  0  0
   12.9206  -15.7169   19.4119 N   0  0  0  0  0  0  0  0  0  0  0  0
   11.6016  -15.2574   19.5241 C   0  0  0  0  0  0  0  0  0  0  0  0
   11.2776  -14.1435   19.0764 O   0  0  0  0  0  0  0  0  0  0  0  0
   10.5732  -16.1000   20.1808 C   0  0  0  0  0  0  0  0  0  0  0  0
   10.0162  -15.4136   21.4096 C   0  0  0  0  0  0  0  0  0  0  0  0
    9.0606  -16.2541   22.1817 C   0  0  2  0  0  0  0  0  0  0  0  0
    7.8551  -16.3736   21.3786 N   0  0  0  0  0  0  0  0  0  0  0  0
    8.7358  -15.7368   23.5501 C   0  0  0  0  0  0  0  0  0  0  0  0
    7.9528  -14.7412   23.6461 O   0  0  0  0  0  0  0  0  0  0  0  0
    9.2529  -16.2951   24.7127 N   0  0  0  0  0  0  0  0  0  0  0  0
    8.9048  -16.0082   26.0750 C   0  0  1  0  0  0  0  0  0  0  0  0
    7.4074  -15.8241   26.3086 C   0  0  0  0  0  0  0  0  0  0  0  0
    7.1380  -14.3645   26.3781 C   0  0  0  0  0  0  0  0  0  0  0  0
    8.0418  -13.4290   26.8255 C   0  0  0  0  0  0  0  0  0  0  0  0
    7.7669  -12.0856   26.8558 C   0  0  0  0  0  0  0  0  0  0  0  0
    6.5356  -11.6084   26.4283 C   0  0  0  0  0  0  0  0  0  0  0  0
    5.6115  -12.5624   25.9773 C   0  0  0  0  0  0  0  0  0  0  0  0
    5.8909  -13.8861   25.9457 C   0  0  0  0  0  0  0  0  0  0  0  0
    9.5956  -16.8383   27.0502 C   0  0  0  0  0  0  0  0  0  0  0  0
    9.8598  -16.4971   28.3403 O   0  0  0  0  0  0  0  0  0  0  0  0
    9.9949  -18.0080   26.6369 O   0  0  0  0  0  0  0  0  0  0  0  0
  1  2  1  0
  2  4  1  0
  2  3  2  0
  4  5  1  0
  6  7  1  6
  6  5  1  0
  8  6  1  0
  9  8  2  0
 10 11  1  0
 11 12  2  0
 13 11  1  0
 13 14  1  0
 15 14  1  6
 15 16  1  0
 16  8  1  0
 17 19  1  0
 17 15  1  0
 18 17  2  0
 20 28  1  0
 20 19  1  0
 20 21  1  6
 22 21  1  0
 22 23  2  0
 24 23  1  0
 25 24  2  0
 26 27  2  0
 26 25  1  0
 27 22  1  0
 28 29  1  0
 30 28  2  0
M  END
$$$$
