AIG.pdb
     RDKit          3D

 18 17  0  0  1  0  0  0  0  0999 V2000
    6.5872  -14.8814   20.3591 C   0  0  0  0  0  0  0  0  0  0  0  0
    7.0591  -13.5109   20.8392 C   0  0  2  0  0  0  0  0  0  0  0  0
    7.9401  -12.8938   19.8801 N   0  0  0  0  0  0  0  0  0  0  0  0
    7.8087  -13.7412   22.0935 C   0  0  0  0  0  0  0  0  0  0  0  0
    9.0541  -13.8759   22.0281 O   0  0  0  0  0  0  0  0  0  0  0  0
    5.8754  -11.2647   26.3939 C   0  0  0  0  0  0  0  0  0  0  0  0
    6.8338  -11.7870   25.3663 C   0  0  0  0  0  0  0  0  0  0  0  0
    7.1461  -13.2367   25.7243 C   0  0  2  0  0  0  0  0  0  0  0  0
    7.8828  -13.1792   27.0340 C   0  0  0  0  0  0  0  0  0  0  0  0
    7.9535  -13.8877   24.6220 C   0  0  2  0  0  0  0  0  0  0  0  0
    7.1625  -13.8144   23.3666 N   0  0  0  0  0  0  0  0  0  0  0  0
    8.3093  -15.2985   24.8859 C   0  0  0  0  0  0  0  0  0  0  0  0
    7.3729  -16.1688   25.0715 O   0  0  0  0  0  0  0  0  0  0  0  0
    9.6103  -15.8360   24.9600 N   0  0  0  0  0  0  0  0  0  0  0  0
    9.8866  -17.2311   25.2243 C   0  0  0  0  0  0  0  0  0  0  0  0
   11.3060  -17.5503   25.2436 C   0  0  0  0  0  0  0  0  0  0  0  0
   11.7297  -18.8215   25.5680 O   0  0  0  0  0  0  0  0  0  0  0  0
   12.1562  -16.6798   24.9674 O   0  0  0  0  0  0  0  0  0  0  0  0
  2  1  1  6
  2  3  1  0
  4  5  2  0
  4  2  1  0
  6  7  1  0
  7  8  1  0
  8 10  1  0
  8  9  1  1
 10 12  1  0
 10 11  1  6
 11  4  1  0
 12 14  1  0
 13 12  2  0
 14 15  1  0
 15 16  1  0
 16 18  2  0
 16 17  1  0
M  END
$$$$
