AIG.pdb
     RDKit          3D

 18 17  0  0  1  0  0  0  0  0999 V2000
    6.8338  -19.1602   25.7257 C   0  0  0  0  0  0  0  0  0  0  0  0
    5.8231  -18.2251   25.0656 C   0  0  2  0  0  0  0  0  0  0  0  0
    5.2511  -18.8206   23.8845 N   0  0  0  0  0  0  0  0  0  0  0  0
    6.5705  -17.0110   24.6712 C   0  0  0  0  0  0  0  0  0  0  0  0
    7.0491  -16.9549   23.5131 O   0  0  0  0  0  0  0  0  0  0  0  0
    5.3767  -12.1960   26.7993 C   0  0  0  0  0  0  0  0  0  0  0  0
    5.7981  -13.1683   25.7389 C   0  0  0  0  0  0  0  0  0  0  0  0
    7.2376  -13.5766   26.0360 C   0  0  2  0  0  0  0  0  0  0  0  0
    8.0693  -12.3553   25.7567 C   0  0  0  0  0  0  0  0  0  0  0  0
    7.6323  -14.7654   25.1864 C   0  0  2  0  0  0  0  0  0  0  0  0
    6.7622  -15.9095   25.5620 N   0  0  0  0  0  0  0  0  0  0  0  0
    9.0477  -15.1684   25.3311 C   0  0  0  0  0  0  0  0  0  0  0  0
    9.5382  -15.3635   26.5101 O   0  0  0  0  0  0  0  0  0  0  0  0
    9.9711  -15.3789   24.2871 N   0  0  0  0  0  0  0  0  0  0  0  0
   11.3529  -15.7487   24.5025 C   0  0  0  0  0  0  0  0  0  0  0  0
   12.0973  -15.9630   23.2709 C   0  0  0  0  0  0  0  0  0  0  0  0
   13.4747  -16.0199   23.2906 O   0  0  0  0  0  0  0  0  0  0  0  0
   11.5003  -16.0977   22.1835 O   0  0  0  0  0  0  0  0  0  0  0  0
  2  1  1  6
  2  3  1  0
  4  5  2  0
  4  2  1  0
  6  7  1  0
  7  8  1  0
  8 10  1  0
  8  9  1  6
 10 12  1  0
 10 11  1  1
 11  4  1  0
 12 14  1  0
 13 12  2  0
 14 15  1  0
 15 16  1  0
 16 18  2  0
 16 17  1  0
M  END
$$$$
