AIG.pdb
     RDKit          3D

 18 17  0  0  1  0  0  0  0  0999 V2000
    6.3905  -18.8544   24.6031 C   0  0  0  0  0  0  0  0  0  0  0  0
    5.7638  -17.6220   23.9551 C   0  0  2  0  0  0  0  0  0  0  0  0
    5.4865  -17.8472   22.5590 N   0  0  0  0  0  0  0  0  0  0  0  0
    6.7597  -16.5345   24.0723 C   0  0  0  0  0  0  0  0  0  0  0  0
    7.5800  -16.3734   23.1371 O   0  0  0  0  0  0  0  0  0  0  0  0
    5.5286  -11.9301   26.6486 C   0  0  0  0  0  0  0  0  0  0  0  0
    6.1356  -12.8149   25.6018 C   0  0  0  0  0  0  0  0  0  0  0  0
    7.3238  -13.5301   26.2376 C   0  0  2  0  0  0  0  0  0  0  0  0
    8.3375  -12.4559   26.5198 C   0  0  0  0  0  0  0  0  0  0  0  0
    7.8471  -14.6055   25.3099 C   0  0  2  0  0  0  0  0  0  0  0  0
    6.8151  -15.6693   25.2089 N   0  0  0  0  0  0  0  0  0  0  0  0
    9.1233  -15.2117   25.7467 C   0  0  0  0  0  0  0  0  0  0  0  0
    9.2278  -15.6857   26.9438 O   0  0  0  0  0  0  0  0  0  0  0  0
   10.2961  -15.3446   24.9762 N   0  0  0  0  0  0  0  0  0  0  0  0
   11.5338  -15.8899   25.4892 C   0  0  0  0  0  0  0  0  0  0  0  0
   11.6423  -17.3328   25.3364 C   0  0  0  0  0  0  0  0  0  0  0  0
   12.5723  -17.8739   24.4744 O   0  0  0  0  0  0  0  0  0  0  0  0
   10.8968  -18.0973   25.9819 O   0  0  0  0  0  0  0  0  0  0  0  0
  2  1  1  6
  2  3  1  0
  4  5  2  0
  4  2  1  0
  6  7  1  0
  7  8  1  0
  8 10  1  0
  8  9  1  6
 10 12  1  0
 10 11  1  1
 11  4  1  0
 12 14  1  0
 13 12  2  0
 14 15  1  0
 15 16  1  0
 16 18  2  0
 16 17  1  0
M  END
$$$$
