AIG.pdb
     RDKit          3D

 18 17  0  0  1  0  0  0  0  0999 V2000
    6.7620  -15.2319   20.4883 C   0  0  0  0  0  0  0  0  0  0  0  0
    6.9549  -13.7705   20.8866 C   0  0  2  0  0  0  0  0  0  0  0  0
    7.6796  -13.0425   19.8759 N   0  0  0  0  0  0  0  0  0  0  0  0
    7.7536  -13.7772   22.1318 C   0  0  0  0  0  0  0  0  0  0  0  0
    8.9993  -13.6607   22.0422 O   0  0  0  0  0  0  0  0  0  0  0  0
    5.8092  -11.4761   26.4938 C   0  0  0  0  0  0  0  0  0  0  0  0
    6.7903  -11.9260   25.4535 C   0  0  0  0  0  0  0  0  0  0  0  0
    7.1874  -13.3608   25.7867 C   0  0  2  0  0  0  0  0  0  0  0  0
    7.9652  -13.2763   27.0708 C   0  0  0  0  0  0  0  0  0  0  0  0
    7.9879  -13.9612   24.6511 C   0  0  2  0  0  0  0  0  0  0  0  0
    7.1540  -13.9113   23.4226 N   0  0  0  0  0  0  0  0  0  0  0  0
    8.4171  -15.3567   24.8860 C   0  0  0  0  0  0  0  0  0  0  0  0
    7.5298  -16.2672   25.1150 O   0  0  0  0  0  0  0  0  0  0  0  0
    9.7419  -15.8381   24.8873 N   0  0  0  0  0  0  0  0  0  0  0  0
   10.0856  -17.2369   25.0209 C   0  0  0  0  0  0  0  0  0  0  0  0
   11.5185  -17.4888   25.0043 C   0  0  0  0  0  0  0  0  0  0  0  0
   12.1158  -18.1818   26.0357 O   0  0  0  0  0  0  0  0  0  0  0  0
   12.2237  -17.0818   24.0588 O   0  0  0  0  0  0  0  0  0  0  0  0
  2  1  1  6
  2  3  1  0
  4  5  2  0
  4  2  1  0
  6  7  1  0
  7  8  1  0
  8 10  1  0
  8  9  1  1
 10 12  1  0
 10 11  1  6
 11  4  1  0
 12 14  1  0
 13 12  2  0
 14 15  1  0
 15 16  1  0
 16 18  2  0
 16 17  1  0
M  END
$$$$
