AIG.pdb
     RDKit          3D

 18 17  0  0  1  0  0  0  0  0999 V2000
    6.4895  -19.0181   24.8957 C   0  0  0  0  0  0  0  0  0  0  0  0
    5.6806  -17.8905   24.2586 C   0  0  2  0  0  0  0  0  0  0  0  0
    5.2507  -18.2402   22.9283 N   0  0  0  0  0  0  0  0  0  0  0  0
    6.5840  -16.7222   24.1743 C   0  0  0  0  0  0  0  0  0  0  0  0
    7.1710  -16.4991   23.0885 O   0  0  0  0  0  0  0  0  0  0  0  0
    5.5195  -12.0361   26.8901 C   0  0  0  0  0  0  0  0  0  0  0  0
    5.9879  -12.8730   25.7379 C   0  0  0  0  0  0  0  0  0  0  0  0
    7.2241  -13.6387   26.1992 C   0  0  2  0  0  0  0  0  0  0  0  0
    8.2682  -12.5918   26.4735 C   0  0  0  0  0  0  0  0  0  0  0  0
    7.6507  -14.6335   25.1412 C   0  0  2  0  0  0  0  0  0  0  0  0
    6.8063  -15.8476   25.2830 N   0  0  0  0  0  0  0  0  0  0  0  0
    9.0746  -15.0249   25.2187 C   0  0  0  0  0  0  0  0  0  0  0  0
    9.9904  -14.1614   24.9278 O   0  0  0  0  0  0  0  0  0  0  0  0
    9.5788  -16.2868   25.5930 N   0  0  0  0  0  0  0  0  0  0  0  0
   10.9899  -16.5975   25.6608 C   0  0  0  0  0  0  0  0  0  0  0  0
   11.2700  -17.9199   26.1993 C   0  0  0  0  0  0  0  0  0  0  0  0
   11.4814  -18.0910   27.5509 O   0  0  0  0  0  0  0  0  0  0  0  0
   11.3225  -18.9137   25.4467 O   0  0  0  0  0  0  0  0  0  0  0  0
  2  1  1  6
  2  3  1  0
  4  5  2  0
  4  2  1  0
  6  7  1  0
  7  8  1  0
  8 10  1  0
  8  9  1  6
 10 12  1  0
 10 11  1  1
 11  4  1  0
 12 14  1  0
 13 12  2  0
 14 15  1  0
 15 16  1  0
 16 18  2  0
 16 17  1  0
M  END
$$$$
