AIG.pdb
     RDKit          3D

 18 17  0  0  1  0  0  0  0  0999 V2000
    6.8200  -19.2483   25.8040 C   0  0  0  0  0  0  0  0  0  0  0  0
    5.7951  -18.2935   25.1961 C   0  0  2  0  0  0  0  0  0  0  0  0
    5.1651  -18.8700   24.0353 N   0  0  0  0  0  0  0  0  0  0  0  0
    6.5417  -17.0859   24.7810 C   0  0  0  0  0  0  0  0  0  0  0  0
    7.0310  -17.0544   23.6264 O   0  0  0  0  0  0  0  0  0  0  0  0
    5.4533  -12.2526   26.9825 C   0  0  0  0  0  0  0  0  0  0  0  0
    5.8199  -13.2246   25.9017 C   0  0  0  0  0  0  0  0  0  0  0  0
    7.2662  -13.6490   26.1370 C   0  0  2  0  0  0  0  0  0  0  0  0
    8.0984  -12.4352   25.8282 C   0  0  0  0  0  0  0  0  0  0  0  0
    7.6126  -14.8381   25.2669 C   0  0  2  0  0  0  0  0  0  0  0  0
    6.7209  -15.9635   25.6481 N   0  0  0  0  0  0  0  0  0  0  0  0
    9.0198  -15.2789   25.3782 C   0  0  0  0  0  0  0  0  0  0  0  0
    9.4956  -15.6089   26.5330 O   0  0  0  0  0  0  0  0  0  0  0  0
    9.9497  -15.3914   24.3250 N   0  0  0  0  0  0  0  0  0  0  0  0
   11.2948  -15.8958   24.4946 C   0  0  0  0  0  0  0  0  0  0  0  0
   12.0600  -15.9416   23.2579 C   0  0  0  0  0  0  0  0  0  0  0  0
   13.3189  -15.3828   23.1968 O   0  0  0  0  0  0  0  0  0  0  0  0
   11.5880  -16.4858   22.2391 O   0  0  0  0  0  0  0  0  0  0  0  0
  2  1  1  6
  2  3  1  0
  4  5  2  0
  4  2  1  0
  6  7  1  0
  7  8  1  0
  8 10  1  0
  8  9  1  6
 10 12  1  0
 10 11  1  1
 11  4  1  0
 12 14  1  0
 13 12  2  0
 14 15  1  0
 15 16  1  0
 16 18  2  0
 16 17  1  0
M  END
$$$$
