AIG.pdb
     RDKit          3D

 18 17  0  0  1  0  0  0  0  0999 V2000
    6.4243  -16.5382   21.9422 C   0  0  0  0  0  0  0  0  0  0  0  0
    6.7746  -15.0856   21.6279 C   0  0  2  0  0  0  0  0  0  0  0  0
    7.4554  -14.9721   20.3628 N   0  0  0  0  0  0  0  0  0  0  0  0
    7.6869  -14.6327   22.7007 C   0  0  0  0  0  0  0  0  0  0  0  0
    8.9233  -14.7063   22.5029 O   0  0  0  0  0  0  0  0  0  0  0  0
    5.6896  -12.0015   27.3456 C   0  0  0  0  0  0  0  0  0  0  0  0
    6.1505  -13.0213   26.3482 C   0  0  0  0  0  0  0  0  0  0  0  0
    7.4655  -12.5233   25.7565 C   0  0  2  0  0  0  0  0  0  0  0  0
    7.0997  -11.3490   24.8913 C   0  0  0  0  0  0  0  0  0  0  0  0
    8.1482  -13.6330   24.9861 C   0  0  2  0  0  0  0  0  0  0  0  0
    7.2062  -14.1183   23.9449 N   0  0  0  0  0  0  0  0  0  0  0  0
    8.5733  -14.7762   25.8222 C   0  0  0  0  0  0  0  0  0  0  0  0
    9.3763  -14.5773   26.8144 O   0  0  0  0  0  0  0  0  0  0  0  0
    8.1871  -16.1223   25.6621 N   0  0  0  0  0  0  0  0  0  0  0  0
    8.6985  -17.2043   26.4746 C   0  0  0  0  0  0  0  0  0  0  0  0
   10.1449  -17.3484   26.4095 C   0  0  0  0  0  0  0  0  0  0  0  0
   10.8952  -17.3723   27.5659 O   0  0  0  0  0  0  0  0  0  0  0  0
   10.7236  -17.4520   25.3089 O   0  0  0  0  0  0  0  0  0  0  0  0
  2  1  1  1
  2  3  1  0
  4  5  2  0
  4  2  1  0
  6  7  1  0
  7  8  1  0
  8 10  1  0
  8  9  1  6
 10 12  1  0
 10 11  1  6
 11  4  1  0
 12 14  1  0
 13 12  2  0
 14 15  1  0
 15 16  1  0
 16 18  2  0
 16 17  1  0
M  END
$$$$
