AIG.pdb
     RDKit          3D

 18 17  0  0  1  0  0  0  0  0999 V2000
    6.6405  -16.5699   21.7019 C   0  0  0  0  0  0  0  0  0  0  0  0
    6.8188  -15.0579   21.5854 C   0  0  2  0  0  0  0  0  0  0  0  0
    7.4855  -14.7013   20.3586 N   0  0  0  0  0  0  0  0  0  0  0  0
    7.6683  -14.6469   22.7246 C   0  0  0  0  0  0  0  0  0  0  0  0
    8.9071  -14.5651   22.5461 O   0  0  0  0  0  0  0  0  0  0  0  0
    5.4547  -11.2630   26.3204 C   0  0  0  0  0  0  0  0  0  0  0  0
    6.4418  -11.8608   25.3636 C   0  0  0  0  0  0  0  0  0  0  0  0
    7.0999  -13.0459   26.0634 C   0  0  2  0  0  0  0  0  0  0  0  0
    7.8631  -12.4594   27.2187 C   0  0  0  0  0  0  0  0  0  0  0  0
    7.9845  -13.8021   25.0956 C   0  0  2  0  0  0  0  0  0  0  0  0
    7.1248  -14.3427   24.0114 N   0  0  0  0  0  0  0  0  0  0  0  0
    8.7411  -14.9139   25.7107 C   0  0  0  0  0  0  0  0  0  0  0  0
    9.6139  -14.6607   26.6287 O   0  0  0  0  0  0  0  0  0  0  0  0
    8.6169  -16.2840   25.4040 N   0  0  0  0  0  0  0  0  0  0  0  0
    9.3672  -17.3253   26.0713 C   0  0  0  0  0  0  0  0  0  0  0  0
   10.7879  -17.3120   25.7574 C   0  0  0  0  0  0  0  0  0  0  0  0
   11.6870  -17.9686   26.5705 O   0  0  0  0  0  0  0  0  0  0  0  0
   11.2099  -16.7077   24.7506 O   0  0  0  0  0  0  0  0  0  0  0  0
  2  1  1  6
  2  3  1  0
  4  5  2  0
  4  2  1  0
  6  7  1  0
  7  8  1  0
  8 10  1  0
  8  9  1  1
 10 12  1  0
 10 11  1  6
 11  4  1  0
 12 14  1  0
 13 12  2  0
 14 15  1  0
 15 16  1  0
 16 18  2  0
 16 17  1  0
M  END
$$$$
