AIG.pdb
     RDKit          3D

 18 17  0  0  1  0  0  0  0  0999 V2000
    6.3060  -16.8008   22.0430 C   0  0  0  0  0  0  0  0  0  0  0  0
    6.7045  -15.3387   21.8563 C   0  0  2  0  0  0  0  0  0  0  0  0
    7.4862  -15.1567   20.6594 N   0  0  0  0  0  0  0  0  0  0  0  0
    7.5354  -14.9779   23.0258 C   0  0  0  0  0  0  0  0  0  0  0  0
    8.7826  -15.0602   22.9198 O   0  0  0  0  0  0  0  0  0  0  0  0
    5.7766  -11.1423   26.4136 C   0  0  0  0  0  0  0  0  0  0  0  0
    6.7344  -11.9250   25.5668 C   0  0  0  0  0  0  0  0  0  0  0  0
    7.0387  -13.2270   26.3013 C   0  0  2  0  0  0  0  0  0  0  0  0
    7.7903  -12.8253   27.5402 C   0  0  0  0  0  0  0  0  0  0  0  0
    7.8284  -14.1608   25.4095 C   0  0  2  0  0  0  0  0  0  0  0  0
    6.9651  -14.5423   24.2622 N   0  0  0  0  0  0  0  0  0  0  0  0
    8.3003  -15.3879   26.0866 C   0  0  0  0  0  0  0  0  0  0  0  0
    9.2027  -15.3019   27.0070 O   0  0  0  0  0  0  0  0  0  0  0  0
    7.8610  -16.7042   25.8397 N   0  0  0  0  0  0  0  0  0  0  0  0
    8.2400  -17.8404   26.6508 C   0  0  0  0  0  0  0  0  0  0  0  0
    9.4409  -18.5157   26.1827 C   0  0  0  0  0  0  0  0  0  0  0  0
   10.6507  -18.2975   26.8068 O   0  0  0  0  0  0  0  0  0  0  0  0
    9.3914  -19.2990   25.2128 O   0  0  0  0  0  0  0  0  0  0  0  0
  2  1  1  1
  2  3  1  0
  4  5  2  0
  4  2  1  0
  6  7  1  0
  7  8  1  0
  8 10  1  0
  8  9  1  1
 10 12  1  0
 10 11  1  6
 11  4  1  0
 12 14  1  0
 13 12  2  0
 14 15  1  0
 15 16  1  0
 16 18  2  0
 16 17  1  0
M  END
$$$$
