AIG.pdb
     RDKit          3D

 18 17  0  0  1  0  0  0  0  0999 V2000
   -3.2804  -28.5807   30.1068 C   0  0  0  0  0  0  0  0  0  0  0  0
   -2.4824  -27.7167   29.1329 C   0  0  2  0  0  0  0  0  0  0  0  0
   -1.0641  -27.9014   29.3088 N   0  0  0  0  0  0  0  0  0  0  0  0
   -2.8208  -26.3110   29.4454 C   0  0  0  0  0  0  0  0  0  0  0  0
   -2.4067  -25.8232   30.5242 O   0  0  0  0  0  0  0  0  0  0  0  0
   -2.7130  -20.9402   27.1078 C   0  0  0  0  0  0  0  0  0  0  0  0
   -3.4485  -21.7366   28.1431 C   0  0  0  0  0  0  0  0  0  0  0  0
   -3.1976  -23.2128   27.8509 C   0  0  2  0  0  0  0  0  0  0  0  0
   -3.7163  -23.4423   26.4582 C   0  0  0  0  0  0  0  0  0  0  0  0
   -3.8851  -24.0772   28.8858 C   0  0  2  0  0  0  0  0  0  0  0  0
   -3.5987  -25.4987   28.5628 N   0  0  0  0  0  0  0  0  0  0  0  0
   -5.3496  -23.8848   28.9575 C   0  0  0  0  0  0  0  0  0  0  0  0
   -6.0719  -24.0863   27.9056 O   0  0  0  0  0  0  0  0  0  0  0  0
   -6.0897  -23.4921   30.0909 N   0  0  0  0  0  0  0  0  0  0  0  0
   -7.5243  -23.3064   30.0858 C   0  0  0  0  0  0  0  0  0  0  0  0
   -7.9309  -21.9095   30.1057 C   0  0  0  0  0  0  0  0  0  0  0  0
   -9.2620  -21.5698   29.9889 O   0  0  0  0  0  0  0  0  0  0  0  0
   -7.0823  -21.0030   30.2284 O   0  0  0  0  0  0  0  0  0  0  0  0
  2  1  1  1
  2  3  1  0
  4  5  2  0
  4  2  1  0
  6  7  1  0
  7  8  1  0
  8 10  1  0
  8  9  1  6
 10 12  1  0
 10 11  1  6
 11  4  1  0
 12 14  1  0
 13 12  2  0
 14 15  1  0
 15 16  1  0
 16 18  2  0
 16 17  1  0
M  END
$$$$
