AIG.pdb
     RDKit          3D

 18 17  0  0  1  0  0  0  0  0999 V2000
    8.6823  -19.5173   19.1652 C   0  0  0  0  0  0  0  0  0  0  0  0
    8.7657  -18.2564   18.3080 C   0  0  2  0  0  0  0  0  0  0  0  0
    9.6886  -18.4258   17.2143 N   0  0  0  0  0  0  0  0  0  0  0  0
    9.2679  -17.1813   19.1913 C   0  0  0  0  0  0  0  0  0  0  0  0
   10.5067  -16.9981   19.2631 O   0  0  0  0  0  0  0  0  0  0  0  0
    6.6821  -12.5204   19.7172 C   0  0  0  0  0  0  0  0  0  0  0  0
    7.8343  -13.4759   19.6345 C   0  0  0  0  0  0  0  0  0  0  0  0
    7.9302  -14.1968   20.9756 C   0  0  2  0  0  0  0  0  0  0  0  0
    8.3217  -13.1422   21.9735 C   0  0  0  0  0  0  0  0  0  0  0  0
    8.9304  -15.3298   20.8923 C   0  0  2  0  0  0  0  0  0  0  0  0
    8.3919  -16.3523   19.9588 N   0  0  0  0  0  0  0  0  0  0  0  0
    9.2264  -15.9713   22.1913 C   0  0  0  0  0  0  0  0  0  0  0  0
    8.2754  -16.5447   22.8512 O   0  0  0  0  0  0  0  0  0  0  0  0
   10.4829  -16.0392   22.8266 N   0  0  0  0  0  0  0  0  0  0  0  0
   10.7050  -16.7010   24.0936 C   0  0  0  0  0  0  0  0  0  0  0  0
   12.0478  -16.5132   24.6214 C   0  0  0  0  0  0  0  0  0  0  0  0
   12.3765  -16.9869   25.8736 O   0  0  0  0  0  0  0  0  0  0  0  0
   12.9172  -15.9223   23.9491 O   0  0  0  0  0  0  0  0  0  0  0  0
  2  1  1  1
  2  3  1  0
  4  5  2  0
  4  2  1  0
  6  7  1  0
  7  8  1  0
  8 10  1  0
  8  9  1  1
 10 12  1  0
 10 11  1  6
 11  4  1  0
 12 14  1  0
 13 12  2  0
 14 15  1  0
 15 16  1  0
 16 18  2  0
 16 17  1  0
M  END
$$$$
