AIG.pdb
     RDKit          3D

 18 17  0  0  1  0  0  0  0  0999 V2000
    6.1280  -18.8875   23.9590 C   0  0  0  0  0  0  0  0  0  0  0  0
    5.8152  -17.5245   23.3459 C   0  0  2  0  0  0  0  0  0  0  0  0
    5.8374  -17.5794   21.9060 N   0  0  0  0  0  0  0  0  0  0  0  0
    6.8801  -16.6049   23.8027 C   0  0  0  0  0  0  0  0  0  0  0  0
    7.9265  -16.5162   23.1168 O   0  0  0  0  0  0  0  0  0  0  0  0
    5.8010  -12.0479   26.3429 C   0  0  0  0  0  0  0  0  0  0  0  0
    6.5700  -12.9741   25.4496 C   0  0  0  0  0  0  0  0  0  0  0  0
    7.3823  -13.9057   26.3439 C   0  0  2  0  0  0  0  0  0  0  0  0
    8.4734  -13.0527   26.9297 C   0  0  0  0  0  0  0  0  0  0  0  0
    7.9139  -15.0732   25.5407 C   0  0  2  0  0  0  0  0  0  0  0  0
    6.7537  -15.8212   24.9916 N   0  0  0  0  0  0  0  0  0  0  0  0
    8.7638  -16.0027   26.3155 C   0  0  0  0  0  0  0  0  0  0  0  0
    8.2455  -16.6872   27.2806 O   0  0  0  0  0  0  0  0  0  0  0  0
   10.1378  -16.2468   26.1168 N   0  0  0  0  0  0  0  0  0  0  0  0
   10.8286  -17.4065   26.6370 C   0  0  0  0  0  0  0  0  0  0  0  0
   11.4336  -17.1873   27.9420 C   0  0  0  0  0  0  0  0  0  0  0  0
   11.0157  -17.9167   29.0347 O   0  0  0  0  0  0  0  0  0  0  0  0
   12.3364  -16.3385   28.0887 O   0  0  0  0  0  0  0  0  0  0  0  0
  2  1  1  1
  2  3  1  0
  4  5  2  0
  4  2  1  0
  6  7  1  0
  7  8  1  0
  8 10  1  0
  8  9  1  6
 10 12  1  0
 10 11  1  1
 11  4  1  0
 12 14  1  0
 13 12  2  0
 14 15  1  0
 15 16  1  0
 16 18  2  0
 16 17  1  0
M  END
$$$$
