TTD.pdb
     RDKit          3D

 23 22  0  0  1  0  0  0  0  0999 V2000
    6.5126  -18.6315   16.0358 C   0  0  0  0  0  0  0  0  0  0  0  0
    7.4670  -17.9817   16.9990 C   0  0  1  0  0  0  0  0  0  0  0  0
    8.7042  -18.6213   17.0518 O   0  0  0  0  0  0  0  0  0  0  0  0
    7.6174  -16.4999   16.7761 C   0  0  2  0  0  0  0  0  0  0  0  0
    8.0644  -16.2795   15.4193 N   0  0  0  0  0  0  0  0  0  0  0  0
    8.4794  -15.8442   17.7716 C   0  0  0  0  0  0  0  0  0  0  0  0
    9.6439  -15.5039   17.4637 O   0  0  0  0  0  0  0  0  0  0  0  0
    7.0354  -13.0178   19.9731 C   0  0  0  0  0  0  0  0  0  0  0  0
    7.7678  -13.9764   20.8829 C   0  0  1  0  0  0  0  0  0  0  0  0
    6.7789  -14.8495   21.3742 O   0  0  0  0  0  0  0  0  0  0  0  0
    8.7669  -14.7910   20.0683 C   0  0  2  0  0  0  0  0  0  0  0  0
    8.0111  -15.5883   19.0851 N   0  0  0  0  0  0  0  0  0  0  0  0
    9.5934  -15.6752   20.8949 C   0  0  0  0  0  0  0  0  0  0  0  0
    9.3583  -16.9403   20.8615 O   0  0  0  0  0  0  0  0  0  0  0  0
   10.6445  -15.2780   21.7388 N   0  0  0  0  0  0  0  0  0  0  0  0
   11.4693  -16.3203   22.3872 C   0  0  1  0  0  0  0  0  0  0  0  0
   12.7936  -15.6683   22.6852 C   0  0  0  0  0  0  0  0  0  0  0  0
   13.7172  -16.6071   23.3003 C   0  0  0  0  0  0  0  0  0  0  0  0
   13.8838  -16.6421   24.5364 O   0  0  0  0  0  0  0  0  0  0  0  0
   10.7957  -16.6625   23.6815 C   0  0  0  0  0  0  0  0  0  0  0  0
    9.7112  -16.0297   24.2065 O   0  0  0  0  0  0  0  0  0  0  0  0
   14.4701  -17.5209   22.5596 O   0  0  0  0  0  0  0  0  0  0  0  0
   11.2661  -17.6342   24.3740 O   0  0  0  0  0  0  0  0  0  0  0  0
  2  1  1  6
  2  4  1  0
  3  2  1  0
  4  5  1  6
  6  4  1  0
  7  6  2  0
  9  8  1  6
  9 10  1  0
  9 11  1  0
 11 13  1  0
 11 12  1  6
 12  6  1  0
 13 15  1  0
 14 13  2  0
 15 16  1  0
 16 20  1  0
 16 17  1  1
 17 18  1  0
 18 22  1  0
 19 18  2  0
 20 23  2  0
 20 21  1  0
M  END
$$$$
