TTD.pdb
     RDKit          3D

 23 22  0  0  1  0  0  0  0  0999 V2000
    9.5062  -17.1489   17.3033 C   0  0  0  0  0  0  0  0  0  0  0  0
    9.3108  -15.8170   16.6334 C   0  0  1  0  0  0  0  0  0  0  0  0
    8.9718  -15.9315   15.2864 O   0  0  0  0  0  0  0  0  0  0  0  0
    8.3557  -14.9165   17.3714 C   0  0  2  0  0  0  0  0  0  0  0  0
    8.0119  -13.8050   16.5137 N   0  0  0  0  0  0  0  0  0  0  0  0
    8.8568  -14.4857   18.6857 C   0  0  0  0  0  0  0  0  0  0  0  0
    9.7312  -13.5932   18.7602 O   0  0  0  0  0  0  0  0  0  0  0  0
    7.0889  -12.9961   21.5508 C   0  0  0  0  0  0  0  0  0  0  0  0
    7.6611  -14.2943   22.0708 C   0  0  1  0  0  0  0  0  0  0  0  0
    6.6418  -15.2478   21.8883 O   0  0  0  0  0  0  0  0  0  0  0  0
    8.8588  -14.7017   21.2195 C   0  0  2  0  0  0  0  0  0  0  0  0
    8.3630  -15.0680   19.8803 N   0  0  0  0  0  0  0  0  0  0  0  0
    9.6144  -15.8193   21.7924 C   0  0  0  0  0  0  0  0  0  0  0  0
    9.2492  -17.0185   21.4998 O   0  0  0  0  0  0  0  0  0  0  0  0
   10.7258  -15.7175   22.6463 N   0  0  0  0  0  0  0  0  0  0  0  0
   11.3738  -16.9588   23.1221 C   0  0  1  0  0  0  0  0  0  0  0  0
   12.7852  -16.5734   23.4788 C   0  0  0  0  0  0  0  0  0  0  0  0
   13.5415  -16.1899   22.2983 C   0  0  0  0  0  0  0  0  0  0  0  0
   14.4624  -15.3501   22.3588 O   0  0  0  0  0  0  0  0  0  0  0  0
   10.6544  -17.3718   24.3703 C   0  0  0  0  0  0  0  0  0  0  0  0
   10.7795  -18.5708   25.0018 O   0  0  0  0  0  0  0  0  0  0  0  0
   13.2921  -16.7280   21.0338 O   0  0  0  0  0  0  0  0  0  0  0  0
    9.8425  -16.5378   24.9089 O   0  0  0  0  0  0  0  0  0  0  0  0
  2  1  1  1
  2  4  1  0
  3  2  1  0
  4  5  1  6
  6  4  1  0
  7  6  2  0
  9  8  1  6
  9 10  1  0
  9 11  1  0
 11 13  1  0
 11 12  1  6
 12  6  1  0
 13 15  1  0
 14 13  2  0
 15 16  1  0
 16 20  1  0
 16 17  1  1
 17 18  1  0
 18 22  1  0
 19 18  2  0
 20 23  2  0
 20 21  1  0
M  END
$$$$
