TTD.pdb
     RDKit          3D

 23 22  0  0  1  0  0  0  0  0999 V2000
    7.8568  -18.4099   15.4292 C   0  0  0  0  0  0  0  0  0  0  0  0
    8.4958  -17.7056   16.5938 C   0  0  1  0  0  0  0  0  0  0  0  0
    9.7401  -18.2347   16.9318 O   0  0  0  0  0  0  0  0  0  0  0  0
    8.5565  -16.2107   16.4222 C   0  0  2  0  0  0  0  0  0  0  0  0
    9.2467  -15.9147   15.1872 N   0  0  0  0  0  0  0  0  0  0  0  0
    9.1385  -15.5133   17.5793 C   0  0  0  0  0  0  0  0  0  0  0  0
   10.3469  -15.1866   17.5701 O   0  0  0  0  0  0  0  0  0  0  0  0
    7.2882  -12.7277   19.7305 C   0  0  0  0  0  0  0  0  0  0  0  0
    7.7848  -13.8305   20.6362 C   0  0  1  0  0  0  0  0  0  0  0  0
    6.6877  -14.6971   20.8005 O   0  0  0  0  0  0  0  0  0  0  0  0
    8.9037  -14.5978   19.9401 C   0  0  2  0  0  0  0  0  0  0  0  0
    8.3490  -15.2014   18.7148 N   0  0  0  0  0  0  0  0  0  0  0  0
    9.4937  -15.6406   20.7844 C   0  0  0  0  0  0  0  0  0  0  0  0
    9.3468  -16.8697   20.4311 O   0  0  0  0  0  0  0  0  0  0  0  0
   10.2245  -15.4350   21.9670 N   0  0  0  0  0  0  0  0  0  0  0  0
   10.7102  -16.6132   22.7173 C   0  0  1  0  0  0  0  0  0  0  0  0
   12.1818  -16.7139   22.4141 C   0  0  0  0  0  0  0  0  0  0  0  0
   12.8076  -17.7758   23.1844 C   0  0  0  0  0  0  0  0  0  0  0  0
   12.1963  -18.8281   23.4599 O   0  0  0  0  0  0  0  0  0  0  0  0
   10.5358  -16.3016   24.1729 C   0  0  0  0  0  0  0  0  0  0  0  0
   10.6709  -17.1861   25.1983 O   0  0  0  0  0  0  0  0  0  0  0  0
   14.1174  -17.6912   23.6618 O   0  0  0  0  0  0  0  0  0  0  0  0
   10.2310  -15.1011   24.5059 O   0  0  0  0  0  0  0  0  0  0  0  0
  2  1  1  6
  2  4  1  0
  3  2  1  0
  4  5  1  6
  6  4  1  0
  7  6  2  0
  9  8  1  6
  9 10  1  0
  9 11  1  0
 11 13  1  0
 11 12  1  6
 12  6  1  0
 13 15  1  0
 14 13  2  0
 15 16  1  0
 16 20  1  0
 16 17  1  1
 17 18  1  0
 18 22  1  0
 19 18  2  0
 20 23  2  0
 20 21  1  0
M  END
$$$$
