TTD.pdb
     RDKit          3D

 23 22  0  0  1  0  0  0  0  0999 V2000
    8.6629  -20.4374   17.8745 C   0  0  0  0  0  0  0  0  0  0  0  0
    9.2832  -19.4750   18.8491 C   0  0  1  0  0  0  0  0  0  0  0  0
   10.5848  -19.8252   19.2037 O   0  0  0  0  0  0  0  0  0  0  0  0
    9.1970  -18.0397   18.4016 C   0  0  2  0  0  0  0  0  0  0  0  0
    9.9163  -17.8998   17.1557 N   0  0  0  0  0  0  0  0  0  0  0  0
    9.6420  -17.0813   19.4250 C   0  0  0  0  0  0  0  0  0  0  0  0
   10.7781  -16.5619   19.3440 O   0  0  0  0  0  0  0  0  0  0  0  0
    8.2822  -14.1459   23.1969 C   0  0  0  0  0  0  0  0  0  0  0  0
    7.9222  -15.1251   22.1038 C   0  0  1  0  0  0  0  0  0  0  0  0
    7.3427  -14.3459   21.0847 O   0  0  0  0  0  0  0  0  0  0  0  0
    9.1917  -15.7673   21.5551 C   0  0  2  0  0  0  0  0  0  0  0  0
    8.8004  -16.7317   20.5110 N   0  0  0  0  0  0  0  0  0  0  0  0
    9.9819  -16.4454   22.5867 C   0  0  0  0  0  0  0  0  0  0  0  0
    9.6479  -17.6414   22.9256 O   0  0  0  0  0  0  0  0  0  0  0  0
   11.0961  -15.9155   23.2595 N   0  0  0  0  0  0  0  0  0  0  0  0
   11.8199  -16.7731   24.2227 C   0  0  1  0  0  0  0  0  0  0  0  0
   13.1222  -16.0695   24.4996 C   0  0  0  0  0  0  0  0  0  0  0  0
   14.0487  -16.2187   23.3896 C   0  0  0  0  0  0  0  0  0  0  0  0
   14.1238  -17.2826   22.7421 O   0  0  0  0  0  0  0  0  0  0  0  0
   11.0046  -16.7957   25.4800 C   0  0  0  0  0  0  0  0  0  0  0  0
   11.0950  -17.7239   26.4711 O   0  0  0  0  0  0  0  0  0  0  0  0
   14.9057  -15.1954   22.9785 O   0  0  0  0  0  0  0  0  0  0  0  0
   10.1374  -15.8680   25.6597 O   0  0  0  0  0  0  0  0  0  0  0  0
  2  1  1  6
  2  4  1  0
  3  2  1  0
  4  5  1  6
  6  4  1  0
  7  6  2  0
  9  8  1  1
  9 10  1  0
  9 11  1  0
 11 13  1  0
 11 12  1  6
 12  6  1  0
 13 15  1  0
 14 13  2  0
 15 16  1  0
 16 20  1  0
 16 17  1  1
 17 18  1  0
 18 22  1  0
 19 18  2  0
 20 23  2  0
 20 21  1  0
M  END
$$$$
