TTD.pdb
     RDKit          3D

 23 22  0  0  1  0  0  0  0  0999 V2000
    8.9631  -16.5606   17.6127 C   0  0  0  0  0  0  0  0  0  0  0  0
    9.0005  -15.1400   17.1216 C   0  0  1  0  0  0  0  0  0  0  0  0
    8.7020  -15.0267   15.7649 O   0  0  0  0  0  0  0  0  0  0  0  0
    8.1657  -14.2026   17.9537 C   0  0  2  0  0  0  0  0  0  0  0  0
    8.1496  -12.9065   17.3142 N   0  0  0  0  0  0  0  0  0  0  0  0
    8.5894  -14.1363   19.3608 C   0  0  0  0  0  0  0  0  0  0  0  0
    9.5150  -13.3649   19.7000 O   0  0  0  0  0  0  0  0  0  0  0  0
    7.6877  -15.5723   24.0487 C   0  0  0  0  0  0  0  0  0  0  0  0
    7.2737  -15.5418   22.5958 C   0  0  1  0  0  0  0  0  0  0  0  0
    6.1969  -14.6370   22.5364 O   0  0  0  0  0  0  0  0  0  0  0  0
    8.4154  -14.9866   21.7511 C   0  0  2  0  0  0  0  0  0  0  0  0
    7.9630  -14.9372   20.3488 N   0  0  0  0  0  0  0  0  0  0  0  0
    9.6409  -15.7846   21.8500 C   0  0  0  0  0  0  0  0  0  0  0  0
    9.6984  -16.8995   21.2090 O   0  0  0  0  0  0  0  0  0  0  0  0
   10.7903  -15.4511   22.5865 N   0  0  0  0  0  0  0  0  0  0  0  0
   11.9525  -16.3646   22.5444 C   0  0  1  0  0  0  0  0  0  0  0  0
   13.1704  -15.4815   22.6108 C   0  0  0  0  0  0  0  0  0  0  0  0
   14.3931  -16.2673   22.5975 C   0  0  0  0  0  0  0  0  0  0  0  0
   14.9727  -16.5886   23.6548 O   0  0  0  0  0  0  0  0  0  0  0  0
   11.8917  -17.2002   23.7870 C   0  0  0  0  0  0  0  0  0  0  0  0
   11.0297  -17.0223   24.8250 O   0  0  0  0  0  0  0  0  0  0  0  0
   14.9936  -16.7099   21.4168 O   0  0  0  0  0  0  0  0  0  0  0  0
   12.7166  -18.1752   23.9056 O   0  0  0  0  0  0  0  0  0  0  0  0
  2  1  1  1
  2  4  1  0
  3  2  1  0
  4  5  1  6
  6  4  1  0
  7  6  2  0
  9  8  1  1
  9 10  1  0
  9 11  1  0
 11 13  1  0
 11 12  1  6
 12  6  1  0
 13 15  1  0
 14 13  2  0
 15 16  1  0
 16 20  1  0
 16 17  1  1
 17 18  1  0
 18 22  1  0
 19 18  2  0
 20 23  2  0
 20 21  1  0
M  END
$$$$
