TTD.pdb
     RDKit          3D

 23 22  0  0  1  0  0  0  0  0999 V2000
   -1.4963  -27.2120   28.2648 C   0  0  0  0  0  0  0  0  0  0  0  0
   -2.4189  -28.2872   27.7612 C   0  0  1  0  0  0  0  0  0  0  0  0
   -3.5450  -28.4564   28.5648 O   0  0  0  0  0  0  0  0  0  0  0  0
   -2.7917  -28.1178   26.3120 C   0  0  2  0  0  0  0  0  0  0  0  0
   -1.5879  -28.1803   25.5145 N   0  0  0  0  0  0  0  0  0  0  0  0
   -3.5838  -26.9060   26.0507 C   0  0  0  0  0  0  0  0  0  0  0  0
   -3.0135  -25.7970   25.9423 O   0  0  0  0  0  0  0  0  0  0  0  0
   -6.2391  -26.6752   23.3498 C   0  0  0  0  0  0  0  0  0  0  0  0
   -6.8998  -26.2066   24.6254 C   0  0  1  0  0  0  0  0  0  0  0  0
   -7.5721  -27.3354   25.1306 O   0  0  0  0  0  0  0  0  0  0  0  0
   -5.8314  -25.7928   25.6316 C   0  0  2  0  0  0  0  0  0  0  0  0
   -4.9938  -26.9717   25.9180 N   0  0  0  0  0  0  0  0  0  0  0  0
   -6.3932  -25.2675   26.8793 C   0  0  0  0  0  0  0  0  0  0  0  0
   -6.5369  -26.0734   27.8726 O   0  0  0  0  0  0  0  0  0  0  0  0
   -6.7986  -23.9423   27.1127 N   0  0  0  0  0  0  0  0  0  0  0  0
   -7.2702  -23.5700   28.4640 C   0  0  1  0  0  0  0  0  0  0  0  0
   -6.7105  -22.1973   28.7295 C   0  0  0  0  0  0  0  0  0  0  0  0
   -7.2026  -21.6614   29.9877 C   0  0  0  0  0  0  0  0  0  0  0  0
   -7.3728  -22.3917   30.9850 O   0  0  0  0  0  0  0  0  0  0  0  0
   -8.7642  -23.4781   28.3913 C   0  0  0  0  0  0  0  0  0  0  0  0
   -9.6240  -23.6437   29.4332 O   0  0  0  0  0  0  0  0  0  0  0  0
   -7.5140  -20.3113   30.1632 O   0  0  0  0  0  0  0  0  0  0  0  0
   -9.3036  -23.2223   27.2561 O   0  0  0  0  0  0  0  0  0  0  0  0
  2  1  1  1
  2  4  1  0
  3  2  1  0
  4  5  1  6
  6  4  1  0
  7  6  2  0
  9  8  1  6
  9 10  1  0
  9 11  1  0
 11 13  1  0
 11 12  1  1
 12  6  1  0
 13 15  1  0
 14 13  2  0
 15 16  1  0
 16 20  1  0
 16 17  1  6
 17 18  1  0
 18 22  1  0
 19 18  2  0
 20 23  2  0
 20 21  1  0
M  END
$$$$
