TTD.pdb
     RDKit          3D

 23 22  0  0  1  0  0  0  0  0999 V2000
    7.9681  -16.5267   18.7176 C   0  0  0  0  0  0  0  0  0  0  0  0
    8.3373  -15.2044   18.1045 C   0  0  1  0  0  0  0  0  0  0  0  0
    7.9659  -15.1046   16.7649 O   0  0  0  0  0  0  0  0  0  0  0  0
    7.8525  -14.0239   18.9041 C   0  0  2  0  0  0  0  0  0  0  0  0
    8.1236  -12.8166   18.1570 N   0  0  0  0  0  0  0  0  0  0  0  0
    8.3970  -13.9808   20.2701 C   0  0  0  0  0  0  0  0  0  0  0  0
    9.5875  -13.6433   20.4588 O   0  0  0  0  0  0  0  0  0  0  0  0
    7.4432  -14.6776   25.1305 C   0  0  0  0  0  0  0  0  0  0  0  0
    6.9380  -14.5198   23.7153 C   0  0  1  0  0  0  0  0  0  0  0  0
    6.2610  -13.2857   23.6992 O   0  0  0  0  0  0  0  0  0  0  0  0
    8.1213  -14.4317   22.7575 C   0  0  2  0  0  0  0  0  0  0  0  0
    7.5909  -14.3172   21.3867 N   0  0  0  0  0  0  0  0  0  0  0  0
    9.0182  -15.5874   22.8483 C   0  0  0  0  0  0  0  0  0  0  0  0
    8.6573  -16.6876   22.2858 O   0  0  0  0  0  0  0  0  0  0  0  0
   10.2638  -15.6211   23.4980 N   0  0  0  0  0  0  0  0  0  0  0  0
   11.0177  -16.8931   23.5258 C   0  0  1  0  0  0  0  0  0  0  0  0
   12.4356  -16.5369   23.1644 C   0  0  0  0  0  0  0  0  0  0  0  0
   13.2900  -17.7127   23.1598 C   0  0  0  0  0  0  0  0  0  0  0  0
   12.8338  -18.8487   22.9183 O   0  0  0  0  0  0  0  0  0  0  0  0
   10.9874  -17.3836   24.9416 C   0  0  0  0  0  0  0  0  0  0  0  0
   10.4059  -16.7451   25.9934 O   0  0  0  0  0  0  0  0  0  0  0  0
   14.6605  -17.6514   23.4216 O   0  0  0  0  0  0  0  0  0  0  0  0
   11.5542  -18.5024   25.2102 O   0  0  0  0  0  0  0  0  0  0  0  0
  2  1  1  1
  2  4  1  0
  3  2  1  0
  4  5  1  6
  6  4  1  0
  7  6  2  0
  9  8  1  1
  9 10  1  0
  9 11  1  0
 11 13  1  0
 11 12  1  6
 12  6  1  0
 13 15  1  0
 14 13  2  0
 15 16  1  0
 16 20  1  0
 16 17  1  1
 17 18  1  0
 18 22  1  0
 19 18  2  0
 20 23  2  0
 20 21  1  0
M  END
$$$$
