TTD.pdb
     RDKit          3D

 23 22  0  0  1  0  0  0  0  0999 V2000
    8.2027  -17.5225   14.6157 C   0  0  0  0  0  0  0  0  0  0  0  0
    8.7917  -16.9587   15.8790 C   0  0  1  0  0  0  0  0  0  0  0  0
   10.1040  -17.3739   16.0984 O   0  0  0  0  0  0  0  0  0  0  0  0
    8.6593  -15.4619   15.9787 C   0  0  2  0  0  0  0  0  0  0  0  0
    9.2490  -14.8661   14.8012 N   0  0  0  0  0  0  0  0  0  0  0  0
    9.2043  -14.9094   17.2283 C   0  0  0  0  0  0  0  0  0  0  0  0
   10.3452  -14.3945   17.2397 O   0  0  0  0  0  0  0  0  0  0  0  0
    6.9569  -12.8698   19.7030 C   0  0  0  0  0  0  0  0  0  0  0  0
    7.7174  -13.9078   20.4950 C   0  0  1  0  0  0  0  0  0  0  0  0
    6.8335  -14.9958   20.6245 O   0  0  0  0  0  0  0  0  0  0  0  0
    8.9333  -14.3682   19.6983 C   0  0  2  0  0  0  0  0  0  0  0  0
    8.4545  -14.9497   18.4309 N   0  0  0  0  0  0  0  0  0  0  0  0
    9.7508  -15.3494   20.4175 C   0  0  0  0  0  0  0  0  0  0  0  0
   10.3238  -16.2822   19.7404 O   0  0  0  0  0  0  0  0  0  0  0  0
    9.9840  -15.3780   21.8030 N   0  0  0  0  0  0  0  0  0  0  0  0
   10.9375  -16.3705   22.3439 C   0  0  1  0  0  0  0  0  0  0  0  0
   12.2866  -15.9816   21.7993 C   0  0  0  0  0  0  0  0  0  0  0  0
   13.3414  -16.8062   22.3649 C   0  0  0  0  0  0  0  0  0  0  0  0
   13.1074  -17.9476   22.8117 O   0  0  0  0  0  0  0  0  0  0  0  0
   10.9472  -16.1954   23.8322 C   0  0  0  0  0  0  0  0  0  0  0  0
   11.4588  -17.0765   24.7345 O   0  0  0  0  0  0  0  0  0  0  0  0
   14.6699  -16.3828   22.4455 O   0  0  0  0  0  0  0  0  0  0  0  0
   10.4321  -15.1281   24.3227 O   0  0  0  0  0  0  0  0  0  0  0  0
  2  1  1  6
  2  4  1  0
  3  2  1  0
  4  5  1  6
  6  4  1  0
  7  6  2  0
  9  8  1  6
  9 10  1  0
  9 11  1  0
 11 13  1  0
 11 12  1  6
 12  6  1  0
 13 15  1  0
 14 13  2  0
 15 16  1  0
 16 20  1  0
 16 17  1  6
 17 18  1  0
 18 22  1  0
 19 18  2  0
 20 23  2  0
 20 21  1  0
M  END
$$$$
