TTD.pdb
     RDKit          3D

 23 22  0  0  1  0  0  0  0  0999 V2000
    8.0565  -17.4248   14.1998 C   0  0  0  0  0  0  0  0  0  0  0  0
    8.8197  -16.6456   15.2349 C   0  0  1  0  0  0  0  0  0  0  0  0
   10.1985  -16.6836   15.0352 O   0  0  0  0  0  0  0  0  0  0  0  0
    8.3217  -15.2341   15.4011 C   0  0  2  0  0  0  0  0  0  0  0  0
    8.4067  -14.5605   14.1251 N   0  0  0  0  0  0  0  0  0  0  0  0
    9.0015  -14.4982   16.4782 C   0  0  0  0  0  0  0  0  0  0  0  0
    9.9502  -13.7277   16.2075 O   0  0  0  0  0  0  0  0  0  0  0  0
    7.1979  -12.8326   19.6245 C   0  0  0  0  0  0  0  0  0  0  0  0
    8.2767  -13.7892   20.0766 C   0  0  1  0  0  0  0  0  0  0  0  0
    7.6170  -15.0125   20.3001 O   0  0  0  0  0  0  0  0  0  0  0  0
    9.2880  -13.9864   18.9526 C   0  0  2  0  0  0  0  0  0  0  0  0
    8.5984  -14.6466   17.8292 N   0  0  0  0  0  0  0  0  0  0  0  0
   10.4486  -14.7833   19.3604 C   0  0  0  0  0  0  0  0  0  0  0  0
   10.5358  -15.9968   18.9400 O   0  0  0  0  0  0  0  0  0  0  0  0
   11.5050  -14.3503   20.1799 N   0  0  0  0  0  0  0  0  0  0  0  0
   12.5825  -15.3058   20.5160 C   0  0  1  0  0  0  0  0  0  0  0  0
   13.8632  -14.5155   20.4600 C   0  0  0  0  0  0  0  0  0  0  0  0
   15.0017  -15.3271   20.8569 C   0  0  0  0  0  0  0  0  0  0  0  0
   15.0509  -16.5482   20.6048 O   0  0  0  0  0  0  0  0  0  0  0  0
   12.3461  -15.7455   21.9291 C   0  0  0  0  0  0  0  0  0  0  0  0
   11.3646  -15.2861   22.7524 O   0  0  0  0  0  0  0  0  0  0  0  0
   16.1024  -14.8025   21.5379 O   0  0  0  0  0  0  0  0  0  0  0  0
   13.1262  -16.6324   22.4291 O   0  0  0  0  0  0  0  0  0  0  0  0
  2  1  1  6
  2  4  1  0
  3  2  1  0
  4  5  1  6
  6  4  1  0
  7  6  2  0
  9  8  1  6
  9 10  1  0
  9 11  1  0
 11 13  1  0
 11 12  1  6
 12  6  1  0
 13 15  1  0
 14 13  2  0
 15 16  1  0
 16 20  1  0
 16 17  1  1
 17 18  1  0
 18 22  1  0
 19 18  2  0
 20 23  2  0
 20 21  1  0
M  END
$$$$
