TTD.pdb
     RDKit          3D

 23 22  0  0  1  0  0  0  0  0999 V2000
    9.6666  -16.9626   16.1397 C   0  0  0  0  0  0  0  0  0  0  0  0
    9.2084  -15.6921   15.4791 C   0  0  1  0  0  0  0  0  0  0  0  0
    8.6653  -15.9039   14.2131 O   0  0  0  0  0  0  0  0  0  0  0  0
    8.2912  -14.8703   16.3459 C   0  0  2  0  0  0  0  0  0  0  0  0
    7.6680  -13.8551   15.5273 N   0  0  0  0  0  0  0  0  0  0  0  0
    8.9552  -14.3129   17.5344 C   0  0  0  0  0  0  0  0  0  0  0  0
    9.7702  -13.3708   17.4117 O   0  0  0  0  0  0  0  0  0  0  0  0
    7.3611  -13.2480   20.9103 C   0  0  0  0  0  0  0  0  0  0  0  0
    8.3861  -14.3243   21.1827 C   0  0  1  0  0  0  0  0  0  0  0  0
    7.6627  -15.5319   21.1878 O   0  0  0  0  0  0  0  0  0  0  0  0
    9.3931  -14.3717   20.0387 C   0  0  2  0  0  0  0  0  0  0  0  0
    8.6865  -14.8276   18.8278 N   0  0  0  0  0  0  0  0  0  0  0  0
   10.5298  -15.2554   20.3131 C   0  0  0  0  0  0  0  0  0  0  0  0
   10.4408  -16.4920   19.9669 O   0  0  0  0  0  0  0  0  0  0  0  0
   11.7386  -14.8852   20.9267 N   0  0  0  0  0  0  0  0  0  0  0  0
   12.7108  -15.9423   21.2791 C   0  0  1  0  0  0  0  0  0  0  0  0
   14.0721  -15.3278   21.0866 C   0  0  0  0  0  0  0  0  0  0  0  0
   14.4096  -15.2245   19.6766 C   0  0  0  0  0  0  0  0  0  0  0  0
   13.8372  -15.9243   18.8167 O   0  0  0  0  0  0  0  0  0  0  0  0
   12.5161  -16.2420   22.7345 C   0  0  0  0  0  0  0  0  0  0  0  0
   13.0662  -17.2855   23.4133 O   0  0  0  0  0  0  0  0  0  0  0  0
   15.3839  -14.3470   19.1956 O   0  0  0  0  0  0  0  0  0  0  0  0
   11.7676  -15.4596   23.4221 O   0  0  0  0  0  0  0  0  0  0  0  0
  2  1  1  1
  2  4  1  0
  3  2  1  0
  4  5  1  6
  6  4  1  0
  7  6  2  0
  9  8  1  6
  9 10  1  0
  9 11  1  0
 11 13  1  0
 11 12  1  6
 12  6  1  0
 13 15  1  0
 14 13  2  0
 15 16  1  0
 16 20  1  0
 16 17  1  1
 17 18  1  0
 18 22  1  0
 19 18  2  0
 20 23  2  0
 20 21  1  0
M  END
$$$$
