TTD.pdb
     RDKit          3D

 23 22  0  0  1  0  0  0  0  0999 V2000
    7.9836  -16.6862   14.9395 C   0  0  0  0  0  0  0  0  0  0  0  0
    8.6214  -16.2084   16.2145 C   0  0  1  0  0  0  0  0  0  0  0  0
   10.0120  -16.3002   16.1933 O   0  0  0  0  0  0  0  0  0  0  0  0
    8.1621  -14.8355   16.6292 C   0  0  2  0  0  0  0  0  0  0  0  0
    8.4495  -13.9086   15.5580 N   0  0  0  0  0  0  0  0  0  0  0  0
    8.7157  -14.4000   17.9207 C   0  0  0  0  0  0  0  0  0  0  0  0
    9.7942  -13.7656   17.9573 O   0  0  0  0  0  0  0  0  0  0  0  0
    6.5729  -12.9886   20.9542 C   0  0  0  0  0  0  0  0  0  0  0  0
    7.4215  -14.1493   21.4186 C   0  0  1  0  0  0  0  0  0  0  0  0
    6.5850  -15.2781   21.3307 O   0  0  0  0  0  0  0  0  0  0  0  0
    8.5916  -14.3420   20.4600 C   0  0  2  0  0  0  0  0  0  0  0  0
    8.0440  -14.6878   19.1356 N   0  0  0  0  0  0  0  0  0  0  0  0
    9.5253  -15.3832   20.8988 C   0  0  0  0  0  0  0  0  0  0  0  0
   10.0309  -16.1655   20.0103 O   0  0  0  0  0  0  0  0  0  0  0  0
    9.9402  -15.6214   22.2202 N   0  0  0  0  0  0  0  0  0  0  0  0
   10.9627  -16.6605   22.4686 C   0  0  1  0  0  0  0  0  0  0  0  0
   12.2104  -16.1819   21.7743 C   0  0  0  0  0  0  0  0  0  0  0  0
   13.3471  -17.0321   22.0870 C   0  0  0  0  0  0  0  0  0  0  0  0
   13.2266  -18.2699   22.1886 O   0  0  0  0  0  0  0  0  0  0  0  0
   11.2086  -16.6814   23.9468 C   0  0  0  0  0  0  0  0  0  0  0  0
   11.8567  -17.6622   24.6326 O   0  0  0  0  0  0  0  0  0  0  0  0
   14.6333  -16.5279   22.2921 O   0  0  0  0  0  0  0  0  0  0  0  0
   10.7784  -15.6982   24.6492 O   0  0  0  0  0  0  0  0  0  0  0  0
  2  1  1  6
  2  4  1  0
  3  2  1  0
  4  5  1  6
  6  4  1  0
  7  6  2  0
  9  8  1  6
  9 10  1  0
  9 11  1  0
 11 13  1  0
 11 12  1  6
 12  6  1  0
 13 15  1  0
 14 13  2  0
 15 16  1  0
 16 20  1  0
 16 17  1  6
 17 18  1  0
 18 22  1  0
 19 18  2  0
 20 23  2  0
 20 21  1  0
M  END
$$$$
