TTD.pdb
     RDKit          3D

 23 22  0  0  1  0  0  0  0  0999 V2000
   15.6049  -16.6402   15.4747 C   0  0  0  0  0  0  0  0  0  0  0  0
   14.9788  -16.2448   16.7833 C   0  0  1  0  0  0  0  0  0  0  0  0
   15.8128  -16.4759   17.8758 O   0  0  0  0  0  0  0  0  0  0  0  0
   14.4422  -14.8377   16.7827 C   0  0  2  0  0  0  0  0  0  0  0  0
   15.5221  -13.9311   16.4648 N   0  0  0  0  0  0  0  0  0  0  0  0
   13.7464  -14.4776   18.0278 C   0  0  0  0  0  0  0  0  0  0  0  0
   14.3774  -13.9348   18.9627 O   0  0  0  0  0  0  0  0  0  0  0  0
    9.3618  -14.2120   20.4007 C   0  0  0  0  0  0  0  0  0  0  0  0
   10.1414  -14.5475   19.1506 C   0  0  1  0  0  0  0  0  0  0  0  0
    9.8214  -13.5313   18.2306 O   0  0  0  0  0  0  0  0  0  0  0  0
   11.6356  -14.4757   19.4461 C   0  0  2  0  0  0  0  0  0  0  0  0
   12.3619  -14.7363   18.1899 N   0  0  0  0  0  0  0  0  0  0  0  0
   12.0623  -15.4298   20.4737 C   0  0  0  0  0  0  0  0  0  0  0  0
   12.0547  -16.6842   20.1849 O   0  0  0  0  0  0  0  0  0  0  0  0
   12.4931  -15.1114   21.7729 N   0  0  0  0  0  0  0  0  0  0  0  0
   13.0038  -16.1958   22.6391 C   0  0  1  0  0  0  0  0  0  0  0  0
   14.0778  -15.5699   23.4891 C   0  0  0  0  0  0  0  0  0  0  0  0
   15.2995  -15.3647   22.7287 C   0  0  0  0  0  0  0  0  0  0  0  0
   15.4293  -15.8117   21.5710 O   0  0  0  0  0  0  0  0  0  0  0  0
   11.8687  -16.6146   23.5235 C   0  0  0  0  0  0  0  0  0  0  0  0
   10.6501  -16.0128   23.5938 O   0  0  0  0  0  0  0  0  0  0  0  0
   16.3955  -14.6629   23.2355 O   0  0  0  0  0  0  0  0  0  0  0  0
   12.0377  -17.6274   24.2921 O   0  0  0  0  0  0  0  0  0  0  0  0
  2  1  1  6
  2  4  1  0
  3  2  1  0
  4  5  1  1
  6  4  1  0
  7  6  2  0
  9  8  1  1
  9 10  1  0
  9 11  1  0
 11 13  1  0
 11 12  1  6
 12  6  1  0
 13 15  1  0
 14 13  2  0
 15 16  1  0
 16 20  1  0
 16 17  1  1
 17 18  1  0
 18 22  1  0
 19 18  2  0
 20 23  2  0
 20 21  1  0
M  END
$$$$
