TTD.pdb
     RDKit          3D

 23 22  0  0  1  0  0  0  0  0999 V2000
    8.3284  -18.4723   14.3514 C   0  0  0  0  0  0  0  0  0  0  0  0
    8.8631  -17.6274   15.4743 C   0  0  1  0  0  0  0  0  0  0  0  0
   10.0536  -18.1207   16.0053 O   0  0  0  0  0  0  0  0  0  0  0  0
    8.9773  -16.1690   15.1166 C   0  0  2  0  0  0  0  0  0  0  0  0
    9.8661  -16.0387   13.9843 N   0  0  0  0  0  0  0  0  0  0  0  0
    9.3733  -15.3191   16.2502 C   0  0  0  0  0  0  0  0  0  0  0  0
   10.5465  -14.8901   16.3308 O   0  0  0  0  0  0  0  0  0  0  0  0
    7.8941  -12.7310   20.2346 C   0  0  0  0  0  0  0  0  0  0  0  0
    7.5463  -13.5667   19.0247 C   0  0  1  0  0  0  0  0  0  0  0  0
    7.0595  -12.6530   18.0709 O   0  0  0  0  0  0  0  0  0  0  0  0
    8.8110  -14.2131   18.4700 C   0  0  2  0  0  0  0  0  0  0  0  0
    8.4423  -14.9737   17.2620 N   0  0  0  0  0  0  0  0  0  0  0  0
    9.4704  -15.0995   19.4331 C   0  0  0  0  0  0  0  0  0  0  0  0
    9.1946  -16.3563   19.3963 O   0  0  0  0  0  0  0  0  0  0  0  0
   10.3983  -14.7130   20.4153 N   0  0  0  0  0  0  0  0  0  0  0  0
   10.9980  -15.7546   21.2768 C   0  0  1  0  0  0  0  0  0  0  0  0
   12.3627  -15.2401   21.6521 C   0  0  0  0  0  0  0  0  0  0  0  0
   13.0222  -16.1313   22.5920 C   0  0  0  0  0  0  0  0  0  0  0  0
   12.6679  -16.1964   23.7866 O   0  0  0  0  0  0  0  0  0  0  0  0
   10.1536  -15.8337   22.5124 C   0  0  0  0  0  0  0  0  0  0  0  0
   10.0262  -16.9204   23.3217 O   0  0  0  0  0  0  0  0  0  0  0  0
   14.0826  -16.9636   22.2266 O   0  0  0  0  0  0  0  0  0  0  0  0
    9.4812  -14.7973   22.8573 O   0  0  0  0  0  0  0  0  0  0  0  0
  2  1  1  6
  2  4  1  0
  3  2  1  0
  4  5  1  6
  6  4  1  0
  7  6  2  0
  9  8  1  1
  9 10  1  0
  9 11  1  0
 11 13  1  0
 11 12  1  6
 12  6  1  0
 13 15  1  0
 14 13  2  0
 15 16  1  0
 16 20  1  0
 16 17  1  1
 17 18  1  0
 18 22  1  0
 19 18  2  0
 20 23  2  0
 20 21  1  0
M  END
$$$$
