TTD.pdb
     RDKit          3D

 23 22  0  0  1  0  0  0  0  0999 V2000
    9.6384  -18.2754   15.6207 C   0  0  0  0  0  0  0  0  0  0  0  0
    9.7816  -17.4429   16.8646 C   0  0  1  0  0  0  0  0  0  0  0  0
   10.6000  -18.0368   17.8238 O   0  0  0  0  0  0  0  0  0  0  0  0
   10.1965  -16.0228   16.5834 C   0  0  2  0  0  0  0  0  0  0  0  0
   11.3811  -16.0426   15.7553 N   0  0  0  0  0  0  0  0  0  0  0  0
   10.3672  -15.2127   17.7994 C   0  0  0  0  0  0  0  0  0  0  0  0
   11.5094  -14.8339   18.1438 O   0  0  0  0  0  0  0  0  0  0  0  0
    7.5107  -12.5603   18.9171 C   0  0  0  0  0  0  0  0  0  0  0  0
    7.9698  -13.4155   20.0752 C   0  0  1  0  0  0  0  0  0  0  0  0
    7.0596  -14.4880   20.1273 O   0  0  0  0  0  0  0  0  0  0  0  0
    9.3566  -13.9755   19.7781 C   0  0  2  0  0  0  0  0  0  0  0  0
    9.2516  -14.8497   18.5955 N   0  0  0  0  0  0  0  0  0  0  0  0
    9.9235  -14.7263   20.9020 C   0  0  0  0  0  0  0  0  0  0  0  0
   10.0523  -14.1280   22.0345 O   0  0  0  0  0  0  0  0  0  0  0  0
   10.3489  -16.0653   20.8742 N   0  0  0  0  0  0  0  0  0  0  0  0
   10.7993  -16.6953   22.1341 C   0  0  1  0  0  0  0  0  0  0  0  0
   10.8434  -18.1753   21.8593 C   0  0  0  0  0  0  0  0  0  0  0  0
    9.5075  -18.7475   21.8369 C   0  0  0  0  0  0  0  0  0  0  0  0
    9.1539  -19.5421   20.9422 O   0  0  0  0  0  0  0  0  0  0  0  0
   12.1937  -16.2080   22.3875 C   0  0  0  0  0  0  0  0  0  0  0  0
   12.9039  -16.3875   23.5345 O   0  0  0  0  0  0  0  0  0  0  0  0
    8.5426  -18.4509   22.8021 O   0  0  0  0  0  0  0  0  0  0  0  0
   12.7910  -15.5607   21.4552 O   0  0  0  0  0  0  0  0  0  0  0  0
  2  1  1  6
  2  4  1  0
  3  2  1  0
  4  5  1  1
  6  4  1  0
  7  6  2  0
  9  8  1  6
  9 10  1  0
  9 11  1  0
 11 13  1  0
 11 12  1  6
 12  6  1  0
 13 15  1  0
 14 13  2  0
 15 16  1  0
 16 20  1  0
 16 17  1  6
 17 18  1  0
 18 22  1  0
 19 18  2  0
 20 23  2  0
 20 21  1  0
M  END
$$$$
