KWC.pdb
     RDKit          3D

 30 31  0  0  1  0  0  0  0  0999 V2000
    7.0858  -16.3972   21.2720 N   0  0  0  0  0  0  0  0  0  0  0  0
    8.1838  -15.5043   20.9723 C   0  0  1  0  0  0  0  0  0  0  0  0
    7.7866  -14.2112   20.3435 C   0  0  0  0  0  0  0  0  0  0  0  0
    7.2586  -14.2481   18.9648 C   0  0  0  0  0  0  0  0  0  0  0  0
    8.1360  -13.5233   17.9876 C   0  0  0  0  0  0  0  0  0  0  0  0
    7.4307  -13.6070   16.6105 C   0  0  0  0  0  0  0  0  0  0  0  0
    8.2750  -12.9049   15.6856 N   0  0  0  0  0  0  0  0  0  0  0  0
    8.9157  -15.1913   22.2095 C   0  0  0  0  0  0  0  0  0  0  0  0
    9.4453  -14.0854   22.3649 O   0  0  0  0  0  0  0  0  0  0  0  0
    9.0229  -16.1478   23.2355 N   0  0  0  0  0  0  0  0  0  0  0  0
    9.6999  -15.9564   24.4687 C   0  0  1  0  0  0  0  0  0  0  0  0
    8.8976  -16.1203   25.7235 C   0  0  0  0  0  0  0  0  0  0  0  0
    7.6859  -15.2605   25.7081 C   0  0  0  0  0  0  0  0  0  0  0  0
    6.3758  -15.6814   25.4575 C   0  0  0  0  0  0  0  0  0  0  0  0
    5.5403  -14.6426   25.5463 N   0  0  0  0  0  0  0  0  0  0  0  0
    6.2599  -13.5437   25.8486 C   0  0  0  0  0  0  0  0  0  0  0  0
    5.8434  -12.2304   26.0389 C   0  0  0  0  0  0  0  0  0  0  0  0
    6.7998  -11.2915   26.3355 C   0  0  0  0  0  0  0  0  0  0  0  0
    8.1416  -11.6377   26.4429 C   0  0  0  0  0  0  0  0  0  0  0  0
    8.5311  -12.9387   26.2516 C   0  0  0  0  0  0  0  0  0  0  0  0
    7.5709  -13.9010   25.9509 C   0  0  0  0  0  0  0  0  0  0  0  0
   10.8264  -16.9195   24.5396 C   0  0  0  0  0  0  0  0  0  0  0  0
   10.5434  -18.1463   24.4824 O   0  0  0  0  0  0  0  0  0  0  0  0
   12.1777  -16.5008   24.6669 N   0  0  0  0  0  0  0  0  0  0  0  0
   13.2395  -17.4628   24.7414 C   0  0  1  0  0  0  0  0  0  0  0  0
   14.6072  -16.8209   24.6058 C   0  0  0  0  0  0  0  0  0  0  0  0
   14.6168  -15.7584   23.1338 S   0  0  0  0  0  0  0  0  0  0  0  0
   13.2096  -18.1149   26.0687 C   0  0  0  0  0  0  0  0  0  0  0  0
   14.1924  -19.0336   26.3888 O   0  0  0  0  0  0  0  0  0  0  0  0
   12.2964  -17.8371   26.9035 O   0  0  0  0  0  0  0  0  0  0  0  0
  2  8  1  0
  2  1  1  1
  3  4  1  0
  3  2  1  0
  5  6  1  0
  5  4  1  0
  6  7  1  0
  8  9  2  0
 10 11  1  0
 10  8  1  0
 11 12  1  1
 13 12  1  0
 14 13  2  0
 15 14  1  0
 16 15  1  0
 16 21  2  0
 17 16  1  0
 18 17  2  0
 18 19  1  0
 19 20  2  0
 20 21  1  0
 21 13  1  0
 22 11  1  0
 23 22  2  0
 24 22  1  0
 25 26  1  1
 25 24  1  0
 26 27  1  0
 28 29  1  0
 28 25  1  0
 30 28  2  0
M  END
$$$$
