KWC.pdb
     RDKit          3D

 30 31  0  0  1  0  0  0  0  0999 V2000
    7.2011  -16.0096   19.5745 N   0  0  0  0  0  0  0  0  0  0  0  0
    7.8285  -17.0838   20.3130 C   0  0  1  0  0  0  0  0  0  0  0  0
    8.6505  -18.0155   19.4876 C   0  0  0  0  0  0  0  0  0  0  0  0
    8.1667  -18.3455   18.1318 C   0  0  0  0  0  0  0  0  0  0  0  0
    9.0265  -17.7610   17.0505 C   0  0  0  0  0  0  0  0  0  0  0  0
    8.8943  -18.6974   15.8231 C   0  0  0  0  0  0  0  0  0  0  0  0
    7.5274  -18.6039   15.3942 N   0  0  0  0  0  0  0  0  0  0  0  0
    8.7034  -16.5207   21.3531 C   0  0  0  0  0  0  0  0  0  0  0  0
    9.5587  -15.6757   21.0665 O   0  0  0  0  0  0  0  0  0  0  0  0
    8.5784  -16.9363   22.6913 N   0  0  0  0  0  0  0  0  0  0  0  0
    9.3340  -16.4308   23.7818 C   0  0  1  0  0  0  0  0  0  0  0  0
    8.7250  -16.5398   25.1464 C   0  0  0  0  0  0  0  0  0  0  0  0
    7.6089  -15.5744   25.3204 C   0  0  0  0  0  0  0  0  0  0  0  0
    6.2431  -15.8653   25.2400 C   0  0  0  0  0  0  0  0  0  0  0  0
    5.5291  -14.7599   25.4705 N   0  0  0  0  0  0  0  0  0  0  0  0
    6.3833  -13.7431   25.7013 C   0  0  0  0  0  0  0  0  0  0  0  0
    6.1221  -12.4063   25.9824 C   0  0  0  0  0  0  0  0  0  0  0  0
    7.1940  -11.5698   26.1707 C   0  0  0  0  0  0  0  0  0  0  0  0
    8.4994  -12.0394   26.0840 C   0  0  0  0  0  0  0  0  0  0  0  0
    8.7349  -13.3616   25.8059 C   0  0  0  0  0  0  0  0  0  0  0  0
    7.6565  -14.2208   25.6134 C   0  0  0  0  0  0  0  0  0  0  0  0
   10.6335  -17.1457   23.8233 C   0  0  0  0  0  0  0  0  0  0  0  0
   10.6216  -18.3826   23.5820 O   0  0  0  0  0  0  0  0  0  0  0  0
   11.8554  -16.4852   24.1205 N   0  0  0  0  0  0  0  0  0  0  0  0
   13.0980  -17.2023   24.1102 C   0  0  1  0  0  0  0  0  0  0  0  0
   14.1975  -16.4370   23.3987 C   0  0  0  0  0  0  0  0  0  0  0  0
   15.7275  -17.4125   23.4563 S   0  0  0  0  0  0  0  0  0  0  0  0
   13.5549  -17.3991   25.5032 C   0  0  0  0  0  0  0  0  0  0  0  0
   14.6706  -18.1808   25.7408 O   0  0  0  0  0  0  0  0  0  0  0  0
   12.9338  -16.8596   26.4681 O   0  0  0  0  0  0  0  0  0  0  0  0
  2  8  1  0
  2  1  1  6
  3  4  1  0
  3  2  1  0
  5  6  1  0
  5  4  1  0
  6  7  1  0
  8  9  2  0
 10 11  1  0
 10  8  1  0
 11 12  1  1
 13 12  1  0
 14 13  2  0
 15 14  1  0
 16 15  1  0
 16 21  2  0
 17 16  1  0
 18 17  2  0
 18 19  1  0
 19 20  2  0
 20 21  1  0
 21 13  1  0
 22 11  1  0
 23 22  2  0
 24 22  1  0
 25 26  1  6
 25 24  1  0
 26 27  1  0
 28 29  1  0
 28 25  1  0
 30 28  2  0
M  END
$$$$
