KWC.pdb
     RDKit          3D

 30 31  0  0  1  0  0  0  0  0999 V2000
    8.2373  -16.2826   20.9130 N   0  0  0  0  0  0  0  0  0  0  0  0
    9.1331  -15.1493   20.9906 C   0  0  1  0  0  0  0  0  0  0  0  0
    8.5859  -13.8783   20.4337 C   0  0  0  0  0  0  0  0  0  0  0  0
    7.9233  -13.9319   19.1149 C   0  0  0  0  0  0  0  0  0  0  0  0
    8.8833  -13.7571   17.9756 C   0  0  0  0  0  0  0  0  0  0  0  0
    8.0818  -14.0180   16.6754 C   0  0  0  0  0  0  0  0  0  0  0  0
    9.0316  -13.9553   15.6008 N   0  0  0  0  0  0  0  0  0  0  0  0
    9.4928  -14.9014   22.3954 C   0  0  0  0  0  0  0  0  0  0  0  0
   10.1605  -13.9094   22.7085 O   0  0  0  0  0  0  0  0  0  0  0  0
    9.0807  -15.7909   23.4043 N   0  0  0  0  0  0  0  0  0  0  0  0
    9.2625  -15.5922   24.7983 C   0  0  1  0  0  0  0  0  0  0  0  0
    8.1757  -16.0798   25.7073 C   0  0  0  0  0  0  0  0  0  0  0  0
    7.0342  -15.1293   25.7456 C   0  0  0  0  0  0  0  0  0  0  0  0
    5.6783  -15.4605   25.6545 C   0  0  0  0  0  0  0  0  0  0  0  0
    4.9337  -14.3550   25.7467 N   0  0  0  0  0  0  0  0  0  0  0  0
    5.7580  -13.2992   25.8961 C   0  0  0  0  0  0  0  0  0  0  0  0
    5.4594  -11.9473   26.0283 C   0  0  0  0  0  0  0  0  0  0  0  0
    6.5064  -11.0697   26.1610 C   0  0  0  0  0  0  0  0  0  0  0  0
    7.8237  -11.5135   26.1636 C   0  0  0  0  0  0  0  0  0  0  0  0
    8.0963  -12.8511   26.0321 C   0  0  0  0  0  0  0  0  0  0  0  0
    7.0433  -13.7519   25.8974 C   0  0  0  0  0  0  0  0  0  0  0  0
   10.5157  -16.2718   25.2093 C   0  0  0  0  0  0  0  0  0  0  0  0
   11.0273  -17.0854   24.3940 O   0  0  0  0  0  0  0  0  0  0  0  0
   11.1335  -16.0322   26.4658 N   0  0  0  0  0  0  0  0  0  0  0  0
   12.2560  -16.8173   26.8925 C   0  0  1  0  0  0  0  0  0  0  0  0
   12.7874  -16.3743   28.2424 C   0  0  0  0  0  0  0  0  0  0  0  0
   11.4206  -15.6812   29.2158 S   0  0  0  0  0  0  0  0  0  0  0  0
   11.8306  -18.2254   27.0484 C   0  0  0  0  0  0  0  0  0  0  0  0
   10.4931  -18.5439   26.9009 O   0  0  0  0  0  0  0  0  0  0  0  0
   12.6788  -19.1298   27.3138 O   0  0  0  0  0  0  0  0  0  0  0  0
  2  8  1  0
  2  1  1  1
  3  4  1  0
  3  2  1  0
  5  6  1  0
  5  4  1  0
  6  7  1  0
  8  9  2  0
 10 11  1  0
 10  8  1  0
 11 12  1  1
 13 12  1  0
 14 13  2  0
 15 14  1  0
 16 15  1  0
 16 21  2  0
 17 16  1  0
 18 17  2  0
 18 19  1  0
 19 20  2  0
 20 21  1  0
 21 13  1  0
 22 11  1  0
 23 22  2  0
 24 22  1  0
 25 26  1  1
 25 24  1  0
 26 27  1  0
 28 29  1  0
 28 25  1  0
 30 28  2  0
M  END
$$$$
