KWC.pdb
     RDKit          3D

 30 31  0  0  1  0  0  0  0  0999 V2000
    7.9557  -16.4880   21.2542 N   0  0  0  0  0  0  0  0  0  0  0  0
    8.9466  -15.4468   21.0907 C   0  0  1  0  0  0  0  0  0  0  0  0
    8.4489  -14.2059   20.4291 C   0  0  0  0  0  0  0  0  0  0  0  0
    7.8861  -14.3275   19.0692 C   0  0  0  0  0  0  0  0  0  0  0  0
    8.5217  -13.3840   18.0915 C   0  0  0  0  0  0  0  0  0  0  0  0
    7.8411  -13.6379   16.7228 C   0  0  0  0  0  0  0  0  0  0  0  0
    8.4629  -12.7369   15.7939 N   0  0  0  0  0  0  0  0  0  0  0  0
    9.4818  -15.0654   22.4069 C   0  0  0  0  0  0  0  0  0  0  0  0
   10.1363  -14.0258   22.5431 O   0  0  0  0  0  0  0  0  0  0  0  0
    9.2554  -15.8797   23.5315 N   0  0  0  0  0  0  0  0  0  0  0  0
    9.7803  -15.6498   24.8305 C   0  0  1  0  0  0  0  0  0  0  0  0
    8.8512  -15.8461   25.9895 C   0  0  0  0  0  0  0  0  0  0  0  0
    7.6116  -15.0418   25.8327 C   0  0  0  0  0  0  0  0  0  0  0  0
    6.3376  -15.5351   25.5328 C   0  0  0  0  0  0  0  0  0  0  0  0
    5.4597  -14.5290   25.4897 N   0  0  0  0  0  0  0  0  0  0  0  0
    6.1160  -13.3813   25.7523 C   0  0  0  0  0  0  0  0  0  0  0  0
    5.6389  -12.0765   25.8157 C   0  0  0  0  0  0  0  0  0  0  0  0
    6.5377  -11.0787   26.0997 C   0  0  0  0  0  0  0  0  0  0  0  0
    7.8816  -11.3589   26.3174 C   0  0  0  0  0  0  0  0  0  0  0  0
    8.3314  -12.6527   26.2503 C   0  0  0  0  0  0  0  0  0  0  0  0
    7.4299  -13.6743   25.9637 C   0  0  0  0  0  0  0  0  0  0  0  0
   10.9361  -16.5571   25.0366 C   0  0  0  0  0  0  0  0  0  0  0  0
   11.9395  -16.3947   24.2914 O   0  0  0  0  0  0  0  0  0  0  0  0
   10.9361  -17.5753   26.0269 N   0  0  0  0  0  0  0  0  0  0  0  0
   11.4458  -17.3181   27.3431 C   0  0  1  0  0  0  0  0  0  0  0  0
   10.5567  -16.3735   28.1294 C   0  0  0  0  0  0  0  0  0  0  0  0
   11.5986  -15.1577   28.9850 S   0  0  0  0  0  0  0  0  0  0  0  0
   11.4885  -18.5868   28.1023 C   0  0  0  0  0  0  0  0  0  0  0  0
   12.6509  -18.9347   28.7656 O   0  0  0  0  0  0  0  0  0  0  0  0
   10.4745  -19.3469   28.1458 O   0  0  0  0  0  0  0  0  0  0  0  0
  2  8  1  0
  2  1  1  1
  3  4  1  0
  3  2  1  0
  5  6  1  0
  5  4  1  0
  6  7  1  0
  8  9  2  0
 10 11  1  0
 10  8  1  0
 11 12  1  1
 13 12  1  0
 14 13  2  0
 15 14  1  0
 16 15  1  0
 16 21  2  0
 17 16  1  0
 18 17  2  0
 18 19  1  0
 19 20  2  0
 20 21  1  0
 21 13  1  0
 22 11  1  0
 23 22  2  0
 24 22  1  0
 25 26  1  1
 25 24  1  0
 26 27  1  0
 28 29  1  0
 28 25  1  0
 30 28  2  0
M  END
$$$$
