KWC.pdb
     RDKit          3D

 30 31  0  0  1  0  0  0  0  0999 V2000
    9.5001  -17.1663   19.1653 N   0  0  0  0  0  0  0  0  0  0  0  0
   10.4557  -17.1218   20.2506 C   0  0  1  0  0  0  0  0  0  0  0  0
   11.8717  -16.9123   19.8309 C   0  0  0  0  0  0  0  0  0  0  0  0
   12.4910  -17.9315   18.9598 C   0  0  0  0  0  0  0  0  0  0  0  0
   13.3831  -17.3348   17.9118 C   0  0  0  0  0  0  0  0  0  0  0  0
   13.9437  -18.5163   17.0807 C   0  0  0  0  0  0  0  0  0  0  0  0
   14.7389  -17.9303   16.0388 N   0  0  0  0  0  0  0  0  0  0  0  0
   10.1000  -16.0345   21.1754 C   0  0  0  0  0  0  0  0  0  0  0  0
    9.5835  -14.9935   20.7541 O   0  0  0  0  0  0  0  0  0  0  0  0
   10.3425  -16.1643   22.5551 N   0  0  0  0  0  0  0  0  0  0  0  0
    9.5172  -15.6433   23.5862 C   0  0  1  0  0  0  0  0  0  0  0  0
    8.0625  -16.0002   23.5456 C   0  0  0  0  0  0  0  0  0  0  0  0
    7.3086  -15.3259   24.6341 C   0  0  0  0  0  0  0  0  0  0  0  0
    6.5741  -15.9549   25.6447 C   0  0  0  0  0  0  0  0  0  0  0  0
    6.0468  -15.0378   26.4607 N   0  0  0  0  0  0  0  0  0  0  0  0
    6.4107  -13.8174   26.0194 C   0  0  0  0  0  0  0  0  0  0  0  0
    6.1074  -12.5590   26.5280 C   0  0  0  0  0  0  0  0  0  0  0  0
    6.6095  -11.4639   25.8701 C   0  0  0  0  0  0  0  0  0  0  0  0
    7.3956  -11.6036   24.7323 C   0  0  0  0  0  0  0  0  0  0  0  0
    7.6829  -12.8539   24.2474 C   0  0  0  0  0  0  0  0  0  0  0  0
    7.1804  -13.9730   24.9057 C   0  0  0  0  0  0  0  0  0  0  0  0
   10.0468  -16.1097   24.8913 C   0  0  0  0  0  0  0  0  0  0  0  0
   10.3070  -17.3376   25.0050 O   0  0  0  0  0  0  0  0  0  0  0  0
   10.2607  -15.2276   25.9839 N   0  0  0  0  0  0  0  0  0  0  0  0
   11.0434  -15.6370   27.1145 C   0  0  1  0  0  0  0  0  0  0  0  0
   11.1695  -14.5395   28.1541 C   0  0  0  0  0  0  0  0  0  0  0  0
    9.5574  -13.7291   28.3548 S   0  0  0  0  0  0  0  0  0  0  0  0
   10.3727  -16.7742   27.7814 C   0  0  0  0  0  0  0  0  0  0  0  0
   11.0321  -17.4420   28.7970 O   0  0  0  0  0  0  0  0  0  0  0  0
    9.2091  -17.1339   27.4285 O   0  0  0  0  0  0  0  0  0  0  0  0
  2  8  1  0
  2  1  1  6
  3  4  1  0
  3  2  1  0
  5  6  1  0
  5  4  1  0
  6  7  1  0
  8  9  2  0
 10 11  1  0
 10  8  1  0
 11 12  1  6
 13 12  1  0
 14 13  2  0
 15 14  1  0
 16 15  1  0
 16 21  2  0
 17 16  1  0
 18 17  2  0
 18 19  1  0
 19 20  2  0
 20 21  1  0
 21 13  1  0
 22 11  1  0
 23 22  2  0
 24 22  1  0
 25 26  1  1
 25 24  1  0
 26 27  1  0
 28 29  1  0
 28 25  1  0
 30 28  2  0
M  END
$$$$
