KWC.pdb
     RDKit          3D

 30 31  0  0  1  0  0  0  0  0999 V2000
    9.2675  -17.0740   18.7798 N   0  0  0  0  0  0  0  0  0  0  0  0
    8.5855  -17.3310   20.0295 C   0  0  1  0  0  0  0  0  0  0  0  0
    8.1507  -18.7441   20.2274 C   0  0  0  0  0  0  0  0  0  0  0  0
    7.3233  -19.3653   19.1736 C   0  0  0  0  0  0  0  0  0  0  0  0
    6.0740  -19.9964   19.7131 C   0  0  0  0  0  0  0  0  0  0  0  0
    5.3384  -20.6287   18.5048 C   0  0  0  0  0  0  0  0  0  0  0  0
    4.1775  -21.2816   19.0405 N   0  0  0  0  0  0  0  0  0  0  0  0
    9.4658  -16.9746   21.1530 C   0  0  0  0  0  0  0  0  0  0  0  0
   10.6457  -17.3425   21.1695 O   0  0  0  0  0  0  0  0  0  0  0  0
    8.9766  -16.2080   22.2264 N   0  0  0  0  0  0  0  0  0  0  0  0
    9.7365  -15.7912   23.3509 C   0  0  1  0  0  0  0  0  0  0  0  0
    9.4370  -14.4363   23.9162 C   0  0  0  0  0  0  0  0  0  0  0  0
    8.1404  -14.4264   24.6420 C   0  0  0  0  0  0  0  0  0  0  0  0
    7.2462  -15.4962   24.7530 C   0  0  0  0  0  0  0  0  0  0  0  0
    6.1957  -15.1347   25.4950 N   0  0  0  0  0  0  0  0  0  0  0  0
    6.3678  -13.8543   25.8793 C   0  0  0  0  0  0  0  0  0  0  0  0
    5.5493  -13.0385   26.6532 C   0  0  0  0  0  0  0  0  0  0  0  0
    5.9667  -11.7527   26.8909 C   0  0  0  0  0  0  0  0  0  0  0  0
    7.1675  -11.2775   26.3768 C   0  0  0  0  0  0  0  0  0  0  0  0
    7.9600  -12.0986   25.6162 C   0  0  0  0  0  0  0  0  0  0  0  0
    7.5485  -13.4053   25.3681 C   0  0  0  0  0  0  0  0  0  0  0  0
    9.5367  -16.7757   24.4429 C   0  0  0  0  0  0  0  0  0  0  0  0
    8.5541  -17.5587   24.3438 O   0  0  0  0  0  0  0  0  0  0  0  0
   10.4040  -16.8525   25.5652 N   0  0  0  0  0  0  0  0  0  0  0  0
   10.7397  -18.1203   26.1470 C   0  0  1  0  0  0  0  0  0  0  0  0
   11.6812  -18.9239   25.2703 C   0  0  0  0  0  0  0  0  0  0  0  0
   13.2046  -17.9707   25.0119 S   0  0  0  0  0  0  0  0  0  0  0  0
   11.4458  -17.8937   27.4269 C   0  0  0  0  0  0  0  0  0  0  0  0
   11.6930  -18.9708   28.2582 O   0  0  0  0  0  0  0  0  0  0  0  0
   11.8202  -16.7289   27.7597 O   0  0  0  0  0  0  0  0  0  0  0  0
  2  8  1  0
  2  1  1  6
  3  4  1  0
  3  2  1  0
  5  6  1  0
  5  4  1  0
  6  7  1  0
  8  9  2  0
 10 11  1  0
 10  8  1  0
 11 12  1  1
 13 12  1  0
 14 13  2  0
 15 14  1  0
 16 15  1  0
 16 21  2  0
 17 16  1  0
 18 17  2  0
 18 19  1  0
 19 20  2  0
 20 21  1  0
 21 13  1  0
 22 11  1  0
 23 22  2  0
 24 22  1  0
 25 26  1  6
 25 24  1  0
 26 27  1  0
 28 29  1  0
 28 25  1  0
 30 28  2  0
M  END
$$$$
