KWC.pdb
     RDKit          3D

 30 31  0  0  1  0  0  0  0  0999 V2000
    8.6249  -15.8417   18.8642 N   0  0  0  0  0  0  0  0  0  0  0  0
    9.0834  -14.5117   19.2011 C   0  0  1  0  0  0  0  0  0  0  0  0
    8.3272  -13.4037   18.5487 C   0  0  0  0  0  0  0  0  0  0  0  0
    7.7651  -13.6497   17.2053 C   0  0  0  0  0  0  0  0  0  0  0  0
    8.8144  -14.0011   16.1926 C   0  0  0  0  0  0  0  0  0  0  0  0
    8.0717  -14.2776   14.8612 C   0  0  0  0  0  0  0  0  0  0  0  0
    9.0881  -14.5615   13.8878 N   0  0  0  0  0  0  0  0  0  0  0  0
    8.9951  -14.3144   20.6563 C   0  0  0  0  0  0  0  0  0  0  0  0
    9.2869  -13.2253   21.1627 O   0  0  0  0  0  0  0  0  0  0  0  0
    8.5759  -15.3642   21.4937 N   0  0  0  0  0  0  0  0  0  0  0  0
    8.4356  -15.2831   22.9042 C   0  0  1  0  0  0  0  0  0  0  0  0
    7.1713  -15.8241   23.4992 C   0  0  0  0  0  0  0  0  0  0  0  0
    6.9001  -15.2253   24.8318 C   0  0  0  0  0  0  0  0  0  0  0  0
    6.5510  -15.9190   25.9951 C   0  0  0  0  0  0  0  0  0  0  0  0
    6.4042  -15.0610   27.0086 N   0  0  0  0  0  0  0  0  0  0  0  0
    6.6459  -13.8168   26.5500 C   0  0  0  0  0  0  0  0  0  0  0  0
    6.6137  -12.5984   27.2198 C   0  0  0  0  0  0  0  0  0  0  0  0
    6.8988  -11.4643   26.5010 C   0  0  0  0  0  0  0  0  0  0  0  0
    7.2098  -11.5271   25.1477 C   0  0  0  0  0  0  0  0  0  0  0  0
    7.2362  -12.7390   24.5063 C   0  0  0  0  0  0  0  0  0  0  0  0
    6.9496  -13.8971   25.2240 C   0  0  0  0  0  0  0  0  0  0  0  0
    9.5636  -16.0158   23.5306 C   0  0  0  0  0  0  0  0  0  0  0  0
   10.0613  -16.9754   22.8828 O   0  0  0  0  0  0  0  0  0  0  0  0
   10.0795  -15.6689   24.8077 N   0  0  0  0  0  0  0  0  0  0  0  0
   11.1577  -16.4150   25.3903 C   0  0  1  0  0  0  0  0  0  0  0  0
   11.6070  -15.8346   26.7178 C   0  0  0  0  0  0  0  0  0  0  0  0
   10.1460  -15.5179   27.7478 S   0  0  0  0  0  0  0  0  0  0  0  0
   10.6985  -17.7936   25.6668 C   0  0  0  0  0  0  0  0  0  0  0  0
    9.3596  -18.1009   25.5079 O   0  0  0  0  0  0  0  0  0  0  0  0
   11.5192  -18.6833   26.0446 O   0  0  0  0  0  0  0  0  0  0  0  0
  2  8  1  0
  2  1  1  1
  3  4  1  0
  3  2  1  0
  5  6  1  0
  5  4  1  0
  6  7  1  0
  8  9  2  0
 10 11  1  0
 10  8  1  0
 11 12  1  6
 13 12  1  0
 14 13  2  0
 15 14  1  0
 16 15  1  0
 16 21  2  0
 17 16  1  0
 18 17  2  0
 18 19  1  0
 19 20  2  0
 20 21  1  0
 21 13  1  0
 22 11  1  0
 23 22  2  0
 24 22  1  0
 25 26  1  1
 25 24  1  0
 26 27  1  0
 28 29  1  0
 28 25  1  0
 30 28  2  0
M  END
$$$$
