KWC.pdb
     RDKit          3D

 30 31  0  0  1  0  0  0  0  0999 V2000
    7.3438  -15.9858   20.0064 N   0  0  0  0  0  0  0  0  0  0  0  0
    8.3218  -14.9968   20.4046 C   0  0  1  0  0  0  0  0  0  0  0  0
    8.1049  -13.6357   19.8342 C   0  0  0  0  0  0  0  0  0  0  0  0
    8.7042  -13.3357   18.5181 C   0  0  0  0  0  0  0  0  0  0  0  0
    7.7909  -13.6672   17.3753 C   0  0  0  0  0  0  0  0  0  0  0  0
    8.5851  -13.3837   16.0754 C   0  0  0  0  0  0  0  0  0  0  0  0
    7.7287  -13.7726   14.9908 N   0  0  0  0  0  0  0  0  0  0  0  0
    8.3250  -14.8699   21.8702 C   0  0  0  0  0  0  0  0  0  0  0  0
    7.4741  -14.1811   22.4442 O   0  0  0  0  0  0  0  0  0  0  0  0
    9.2978  -15.5323   22.6409 N   0  0  0  0  0  0  0  0  0  0  0  0
    9.3373  -15.5670   24.0596 C   0  0  1  0  0  0  0  0  0  0  0  0
    8.2191  -16.2780   24.7591 C   0  0  0  0  0  0  0  0  0  0  0  0
    7.1978  -15.3216   25.2594 C   0  0  0  0  0  0  0  0  0  0  0  0
    5.8296  -15.5732   25.4050 C   0  0  0  0  0  0  0  0  0  0  0  0
    5.2197  -14.4930   25.9012 N   0  0  0  0  0  0  0  0  0  0  0  0
    6.1452  -13.5313   26.0885 C   0  0  0  0  0  0  0  0  0  0  0  0
    5.9992  -12.2371   26.5764 C   0  0  0  0  0  0  0  0  0  0  0  0
    7.1227  -11.4529   26.6589 C   0  0  0  0  0  0  0  0  0  0  0  0
    8.3675  -11.9326   26.2686 C   0  0  0  0  0  0  0  0  0  0  0  0
    8.4896  -13.2121   25.7904 C   0  0  0  0  0  0  0  0  0  0  0  0
    7.3579  -14.0183   25.7022 C   0  0  0  0  0  0  0  0  0  0  0  0
   10.6019  -16.2208   24.4777 C   0  0  0  0  0  0  0  0  0  0  0  0
   10.9123  -17.2999   23.9055 O   0  0  0  0  0  0  0  0  0  0  0  0
   11.4459  -15.6724   25.4800 N   0  0  0  0  0  0  0  0  0  0  0  0
   12.6761  -16.3188   25.8368 C   0  0  1  0  0  0  0  0  0  0  0  0
   13.6025  -15.4027   26.6137 C   0  0  0  0  0  0  0  0  0  0  0  0
   15.0559  -16.3497   27.1492 S   0  0  0  0  0  0  0  0  0  0  0  0
   12.3809  -17.4676   26.7205 C   0  0  0  0  0  0  0  0  0  0  0  0
   13.3531  -18.4308   26.9185 O   0  0  0  0  0  0  0  0  0  0  0  0
   11.2525  -17.5701   27.2899 O   0  0  0  0  0  0  0  0  0  0  0  0
  2  8  1  0
  2  1  1  1
  3  4  1  0
  3  2  1  0
  5  6  1  0
  5  4  1  0
  6  7  1  0
  8  9  2  0
 10 11  1  0
 10  8  1  0
 11 12  1  6
 13 12  1  0
 14 13  2  0
 15 14  1  0
 16 15  1  0
 16 21  2  0
 17 16  1  0
 18 17  2  0
 18 19  1  0
 19 20  2  0
 20 21  1  0
 21 13  1  0
 22 11  1  0
 23 22  2  0
 24 22  1  0
 25 26  1  1
 25 24  1  0
 26 27  1  0
 28 29  1  0
 28 25  1  0
 30 28  2  0
M  END
$$$$
