KWC.pdb
     RDKit          3D

 30 31  0  0  1  0  0  0  0  0999 V2000
    7.2394  -16.3323   20.9004 N   0  0  0  0  0  0  0  0  0  0  0  0
    8.1006  -15.1747   20.7939 C   0  0  1  0  0  0  0  0  0  0  0  0
    7.3880  -13.8796   20.5938 C   0  0  0  0  0  0  0  0  0  0  0  0
    7.6366  -13.1422   19.3386 C   0  0  0  0  0  0  0  0  0  0  0  0
    7.2970  -13.9442   18.1173 C   0  0  0  0  0  0  0  0  0  0  0  0
    7.6777  -13.0730   16.8939 C   0  0  0  0  0  0  0  0  0  0  0  0
    7.4670  -13.8956   15.7362 N   0  0  0  0  0  0  0  0  0  0  0  0
    8.9132  -15.0518   22.0140 C   0  0  0  0  0  0  0  0  0  0  0  0
    9.6998  -14.1087   22.1541 O   0  0  0  0  0  0  0  0  0  0  0  0
    8.8063  -16.0074   23.0409 N   0  0  0  0  0  0  0  0  0  0  0  0
    9.5124  -15.9718   24.2721 C   0  0  1  0  0  0  0  0  0  0  0  0
    8.7309  -16.2557   25.5186 C   0  0  0  0  0  0  0  0  0  0  0  0
    7.5914  -15.3141   25.6700 C   0  0  0  0  0  0  0  0  0  0  0  0
    6.2346  -15.6304   25.5459 C   0  0  0  0  0  0  0  0  0  0  0  0
    5.4925  -14.5418   25.7672 N   0  0  0  0  0  0  0  0  0  0  0  0
    6.3193  -13.5114   26.0345 C   0  0  0  0  0  0  0  0  0  0  0  0
    6.0238  -12.1833   26.3226 C   0  0  0  0  0  0  0  0  0  0  0  0
    7.0730  -11.3285   26.5520 C   0  0  0  0  0  0  0  0  0  0  0  0
    8.3893  -11.7718   26.4990 C   0  0  0  0  0  0  0  0  0  0  0  0
    8.6589  -13.0858   26.2133 C   0  0  0  0  0  0  0  0  0  0  0  0
    7.6037  -13.9634   25.9793 C   0  0  0  0  0  0  0  0  0  0  0  0
   10.6139  -16.9640   24.2098 C   0  0  0  0  0  0  0  0  0  0  0  0
   10.3656  -18.0707   23.6604 O   0  0  0  0  0  0  0  0  0  0  0  0
   11.9048  -16.7009   24.7406 N   0  0  0  0  0  0  0  0  0  0  0  0
   12.9328  -17.7008   24.6983 C   0  0  1  0  0  0  0  0  0  0  0  0
   14.2809  -17.1233   24.3110 C   0  0  0  0  0  0  0  0  0  0  0  0
   14.0725  -16.0686   22.8481 S   0  0  0  0  0  0  0  0  0  0  0  0
   13.0962  -18.2845   26.0476 C   0  0  0  0  0  0  0  0  0  0  0  0
   14.0042  -19.3113   26.2306 O   0  0  0  0  0  0  0  0  0  0  0  0
   12.4142  -17.8512   27.0248 O   0  0  0  0  0  0  0  0  0  0  0  0
  2  8  1  0
  2  1  1  1
  3  4  1  0
  3  2  1  0
  5  6  1  0
  5  4  1  0
  6  7  1  0
  8  9  2  0
 10 11  1  0
 10  8  1  0
 11 12  1  1
 13 12  1  0
 14 13  2  0
 15 14  1  0
 16 15  1  0
 16 21  2  0
 17 16  1  0
 18 17  2  0
 18 19  1  0
 19 20  2  0
 20 21  1  0
 21 13  1  0
 22 11  1  0
 23 22  2  0
 24 22  1  0
 25 26  1  1
 25 24  1  0
 26 27  1  0
 28 29  1  0
 28 25  1  0
 30 28  2  0
M  END
$$$$
