KWC.pdb
     RDKit          3D

 30 31  0  0  1  0  0  0  0  0999 V2000
    9.7096  -17.6815   19.4264 N   0  0  0  0  0  0  0  0  0  0  0  0
    8.7033  -17.9830   20.4210 C   0  0  1  0  0  0  0  0  0  0  0  0
    8.5560  -19.4316   20.7448 C   0  0  0  0  0  0  0  0  0  0  0  0
    8.4018  -20.3774   19.6210 C   0  0  0  0  0  0  0  0  0  0  0  0
    7.2610  -21.3313   19.8176 C   0  0  0  0  0  0  0  0  0  0  0  0
    7.2582  -22.2788   18.5916 C   0  0  0  0  0  0  0  0  0  0  0  0
    6.1109  -23.1282   18.7453 N   0  0  0  0  0  0  0  0  0  0  0  0
    9.0208  -17.2773   21.6722 C   0  0  0  0  0  0  0  0  0  0  0  0
   10.1231  -17.4198   22.2129 O   0  0  0  0  0  0  0  0  0  0  0  0
    8.0730  -16.4282   22.2720 N   0  0  0  0  0  0  0  0  0  0  0  0
    8.2522  -15.7334   23.4970 C   0  0  1  0  0  0  0  0  0  0  0  0
    7.1756  -14.7743   23.9046 C   0  0  0  0  0  0  0  0  0  0  0  0
    7.4879  -14.1309   25.2072 C   0  0  0  0  0  0  0  0  0  0  0  0
    8.4123  -14.5846   26.1536 C   0  0  0  0  0  0  0  0  0  0  0  0
    8.4461  -13.7464   27.1935 N   0  0  0  0  0  0  0  0  0  0  0  0
    7.5692  -12.7490   26.9634 C   0  0  0  0  0  0  0  0  0  0  0  0
    7.2449  -11.6487   27.7498 C   0  0  0  0  0  0  0  0  0  0  0  0
    6.2979  -10.7770   27.2728 C   0  0  0  0  0  0  0  0  0  0  0  0
    5.6806  -10.9837   26.0447 C   0  0  0  0  0  0  0  0  0  0  0  0
    6.0152  -12.0752   25.2848 C   0  0  0  0  0  0  0  0  0  0  0  0
    6.9748  -12.9667   25.7567 C   0  0  0  0  0  0  0  0  0  0  0  0
    8.3859  -16.7313   24.5869 C   0  0  0  0  0  0  0  0  0  0  0  0
    7.5610  -17.6840   24.6038 O   0  0  0  0  0  0  0  0  0  0  0  0
    9.3945  -16.6387   25.5828 N   0  0  0  0  0  0  0  0  0  0  0  0
    9.7991  -17.7970   26.3266 C   0  0  1  0  0  0  0  0  0  0  0  0
   10.5843  -18.7794   25.4784 C   0  0  0  0  0  0  0  0  0  0  0  0
   11.2390  -20.0912   26.5490 S   0  0  0  0  0  0  0  0  0  0  0  0
   10.6962  -17.3778   27.4253 C   0  0  0  0  0  0  0  0  0  0  0  0
   11.0458  -18.2983   28.3963 O   0  0  0  0  0  0  0  0  0  0  0  0
   11.1400  -16.1911   27.4786 O   0  0  0  0  0  0  0  0  0  0  0  0
  2  8  1  0
  2  1  1  6
  3  4  1  0
  3  2  1  0
  5  6  1  0
  5  4  1  0
  6  7  1  0
  8  9  2  0
 10 11  1  0
 10  8  1  0
 11 12  1  1
 13 12  1  0
 14 13  2  0
 15 14  1  0
 16 15  1  0
 16 21  2  0
 17 16  1  0
 18 17  2  0
 18 19  1  0
 19 20  2  0
 20 21  1  0
 21 13  1  0
 22 11  1  0
 23 22  2  0
 24 22  1  0
 25 26  1  6
 25 24  1  0
 26 27  1  0
 28 29  1  0
 28 25  1  0
 30 28  2  0
M  END
$$$$
