KWC.pdb
     RDKit          3D

 30 31  0  0  1  0  0  0  0  0999 V2000
    5.6969  -15.7722   21.6053 N   0  0  0  0  0  0  0  0  0  0  0  0
    6.9770  -15.4133   21.0348 C   0  0  1  0  0  0  0  0  0  0  0  0
    6.9473  -14.2363   20.1188 C   0  0  0  0  0  0  0  0  0  0  0  0
    7.0583  -14.4885   18.6679 C   0  0  0  0  0  0  0  0  0  0  0  0
    7.9783  -13.5239   17.9799 C   0  0  0  0  0  0  0  0  0  0  0  0
    7.9368  -13.8705   16.4702 C   0  0  0  0  0  0  0  0  0  0  0  0
    8.8070  -12.9316   15.8204 N   0  0  0  0  0  0  0  0  0  0  0  0
    7.9303  -15.1132   22.1144 C   0  0  0  0  0  0  0  0  0  0  0  0
    8.1183  -13.9483   22.4823 O   0  0  0  0  0  0  0  0  0  0  0  0
    8.6424  -16.1497   22.7449 N   0  0  0  0  0  0  0  0  0  0  0  0
    9.5489  -15.9841   23.8250 C   0  0  1  0  0  0  0  0  0  0  0  0
    9.0594  -16.3512   25.1927 C   0  0  0  0  0  0  0  0  0  0  0  0
    7.8793  -15.5368   25.5827 C   0  0  0  0  0  0  0  0  0  0  0  0
    6.5492  -15.9683   25.6116 C   0  0  0  0  0  0  0  0  0  0  0  0
    5.7590  -14.9762   26.0314 N   0  0  0  0  0  0  0  0  0  0  0  0
    6.5280  -13.8979   26.2815 C   0  0  0  0  0  0  0  0  0  0  0  0
    6.1681  -12.6315   26.7300 C   0  0  0  0  0  0  0  0  0  0  0  0
    7.1655  -11.7033   26.8965 C   0  0  0  0  0  0  0  0  0  0  0  0
    8.4930  -12.0147   26.6269 C   0  0  0  0  0  0  0  0  0  0  0  0
    8.8264  -13.2696   26.1856 C   0  0  0  0  0  0  0  0  0  0  0  0
    7.8244  -14.2207   26.0131 C   0  0  0  0  0  0  0  0  0  0  0  0
   10.7545  -16.8058   23.5555 C   0  0  0  0  0  0  0  0  0  0  0  0
   10.5728  -17.9786   23.1314 O   0  0  0  0  0  0  0  0  0  0  0  0
   12.0712  -16.3134   23.7595 N   0  0  0  0  0  0  0  0  0  0  0  0
   13.2134  -17.1262   23.4544 C   0  0  1  0  0  0  0  0  0  0  0  0
   14.4529  -16.2960   23.1799 C   0  0  0  0  0  0  0  0  0  0  0  0
   14.6407  -15.0626   24.4988 S   0  0  0  0  0  0  0  0  0  0  0  0
   13.5270  -17.9784   24.6220 C   0  0  0  0  0  0  0  0  0  0  0  0
   14.5294  -18.9249   24.5138 O   0  0  0  0  0  0  0  0  0  0  0  0
   12.8869  -17.8450   25.7085 O   0  0  0  0  0  0  0  0  0  0  0  0
  2  8  1  0
  2  1  1  1
  3  4  1  0
  3  2  1  0
  5  6  1  0
  5  4  1  0
  6  7  1  0
  8  9  2  0
 10 11  1  0
 10  8  1  0
 11 12  1  1
 13 12  1  0
 14 13  2  0
 15 14  1  0
 16 15  1  0
 16 21  2  0
 17 16  1  0
 18 17  2  0
 18 19  1  0
 19 20  2  0
 20 21  1  0
 21 13  1  0
 22 11  1  0
 23 22  2  0
 24 22  1  0
 25 26  1  1
 25 24  1  0
 26 27  1  0
 28 29  1  0
 28 25  1  0
 30 28  2  0
M  END
$$$$
