KWC.pdb
     RDKit          3D

 30 31  0  0  1  0  0  0  0  0999 V2000
    7.6861  -16.2690   20.3323 N   0  0  0  0  0  0  0  0  0  0  0  0
    8.5610  -15.1184   20.3917 C   0  0  1  0  0  0  0  0  0  0  0  0
    7.8901  -13.8076   20.1530 C   0  0  0  0  0  0  0  0  0  0  0  0
    8.1545  -13.1204   18.8728 C   0  0  0  0  0  0  0  0  0  0  0  0
    7.3315  -13.6628   17.7421 C   0  0  0  0  0  0  0  0  0  0  0  0
    7.8267  -12.9576   16.4543 C   0  0  0  0  0  0  0  0  0  0  0  0
    7.1158  -13.5672   15.3661 N   0  0  0  0  0  0  0  0  0  0  0  0
    9.2027  -15.0556   21.7141 C   0  0  0  0  0  0  0  0  0  0  0  0
   10.0379  -14.1804   21.9675 O   0  0  0  0  0  0  0  0  0  0  0  0
    8.8740  -15.9922   22.7110 N   0  0  0  0  0  0  0  0  0  0  0  0
    9.4385  -16.0376   24.0129 C   0  0  1  0  0  0  0  0  0  0  0  0
    8.5440  -16.4745   25.1328 C   0  0  0  0  0  0  0  0  0  0  0  0
    7.4749  -15.4760   25.3933 C   0  0  0  0  0  0  0  0  0  0  0  0
    6.1015  -15.6674   25.2100 C   0  0  0  0  0  0  0  0  0  0  0  0
    5.4379  -14.5635   25.5649 N   0  0  0  0  0  0  0  0  0  0  0  0
    6.3330  -13.6445   25.9784 C   0  0  0  0  0  0  0  0  0  0  0  0
    6.1309  -12.3473   26.4374 C   0  0  0  0  0  0  0  0  0  0  0  0
    7.2354  -11.6140   26.7929 C   0  0  0  0  0  0  0  0  0  0  0  0
    8.5158  -12.1467   26.6987 C   0  0  0  0  0  0  0  0  0  0  0  0
    8.6930  -13.4282   26.2437 C   0  0  0  0  0  0  0  0  0  0  0  0
    7.5809  -14.1830   25.8805 C   0  0  0  0  0  0  0  0  0  0  0  0
   10.5967  -16.9646   23.9897 C   0  0  0  0  0  0  0  0  0  0  0  0
   10.4540  -18.0539   23.3721 O   0  0  0  0  0  0  0  0  0  0  0  0
   11.8274  -16.6598   24.6301 N   0  0  0  0  0  0  0  0  0  0  0  0
   12.8955  -17.6172   24.6597 C   0  0  1  0  0  0  0  0  0  0  0  0
   14.2510  -16.9733   24.4384 C   0  0  0  0  0  0  0  0  0  0  0  0
   14.2560  -16.1504   22.8201 S   0  0  0  0  0  0  0  0  0  0  0  0
   12.9423  -18.2492   25.9962 C   0  0  0  0  0  0  0  0  0  0  0  0
   13.8814  -19.2341   26.2417 O   0  0  0  0  0  0  0  0  0  0  0  0
   12.1334  -17.8947   26.9061 O   0  0  0  0  0  0  0  0  0  0  0  0
  2  8  1  0
  2  1  1  1
  3  4  1  0
  3  2  1  0
  5  6  1  0
  5  4  1  0
  6  7  1  0
  8  9  2  0
 10 11  1  0
 10  8  1  0
 11 12  1  1
 13 12  1  0
 14 13  2  0
 15 14  1  0
 16 15  1  0
 16 21  2  0
 17 16  1  0
 18 17  2  0
 18 19  1  0
 19 20  2  0
 20 21  1  0
 21 13  1  0
 22 11  1  0
 23 22  2  0
 24 22  1  0
 25 26  1  1
 25 24  1  0
 26 27  1  0
 28 29  1  0
 28 25  1  0
 30 28  2  0
M  END
$$$$
