WDS.pdb
     RDKit          3D

 29 30  0  0  1  0  0  0  0  0999 V2000
   27.0082  -22.1812  -13.5525 N   0  0  0  0  0  0  0  0  0  0  0  0
   26.1243  -21.6650  -12.4787 C   0  0  1  0  0  0  0  0  0  0  0  0
   26.7619  -20.3977  -12.0212 C   0  0  0  0  0  0  0  0  0  0  0  0
   27.8098  -20.5110  -10.9998 C   0  0  0  0  0  0  0  0  0  0  0  0
   29.1658  -20.7666  -11.2063 C   0  0  0  0  0  0  0  0  0  0  0  0
   29.7366  -20.8176  -10.0168 N   0  0  0  0  0  0  0  0  0  0  0  0
   28.8712  -20.6157   -9.0238 C   0  0  0  0  0  0  0  0  0  0  0  0
   28.9867  -20.5610   -7.6478 C   0  0  0  0  0  0  0  0  0  0  0  0
   27.8826  -20.3097   -6.8737 C   0  0  0  0  0  0  0  0  0  0  0  0
   26.6478  -20.1086   -7.4452 C   0  0  0  0  0  0  0  0  0  0  0  0
   26.5455  -20.1655   -8.8041 C   0  0  0  0  0  0  0  0  0  0  0  0
   27.6310  -20.4177   -9.6427 C   0  0  0  0  0  0  0  0  0  0  0  0
   24.7537  -21.4400  -12.9503 C   0  0  0  0  0  0  0  0  0  0  0  0
   24.5881  -21.3564  -14.1975 O   0  0  0  0  0  0  0  0  0  0  0  0
   23.6022  -21.3078  -12.1323 N   0  0  0  0  0  0  0  0  0  0  0  0
   22.2613  -21.1997  -12.6280 C   0  0  1  0  0  0  0  0  0  0  0  0
   21.2506  -21.6751  -11.6340 C   0  0  0  0  0  0  0  0  0  0  0  0
   19.8614  -21.6422  -12.1364 C   0  0  0  0  0  0  0  0  0  0  0  0
   18.9098  -21.0277  -11.6392 O   0  0  0  0  0  0  0  0  0  0  0  0
   21.9436  -19.7898  -13.0538 C   0  0  0  0  0  0  0  0  0  0  0  0
   21.9782  -18.8308  -12.2686 O   0  0  0  0  0  0  0  0  0  0  0  0
   19.6169  -22.3911  -13.2982 O   0  0  0  0  0  0  0  0  0  0  0  0
   21.8719  -18.9723  -17.0540 O   0  0  0  0  0  0  0  0  0  0  0  0
   22.0392  -17.8832  -16.1771 C   0  0  0  0  0  0  0  0  0  0  0  0
   21.3037  -18.2194  -14.9111 C   0  0  2  0  0  0  0  0  0  0  0  0
   21.5871  -19.5200  -14.4027 N   0  0  0  0  0  0  0  0  0  0  0  0
   19.8519  -18.0408  -15.0358 C   0  0  0  0  0  0  0  0  0  0  0  0
   19.0923  -19.0279  -14.8998 O   0  0  0  0  0  0  0  0  0  0  0  0
   19.2716  -16.8089  -15.3019 O   0  0  0  0  0  0  0  0  0  0  0  0
  2  1  1  6
  3  4  1  0
  3  2  1  0
  4  5  2  0
  5  6  1  0
  7  6  1  0
  8  7  2  0
  9  8  1  0
 10 11  1  0
 10  9  2  0
 11 12  2  0
 12  4  1  0
 12  7  1  0
 13  2  1  0
 13 14  2  0
 15 13  1  0
 16 15  1  0
 16 17  1  1
 18 17  1  0
 18 22  1  0
 19 18  2  0
 20 16  1  0
 21 20  2  0
 24 23  1  0
 25 24  1  6
 25 27  1  0
 25 26  1  0
 26 20  1  0
 27 29  1  0
 28 27  2  0
M  END
$$$$
