WDS.pdb
     RDKit          3D

 29 30  0  0  1  0  0  0  0  0999 V2000
   27.0646  -19.0258  -12.1298 N   0  0  0  0  0  0  0  0  0  0  0  0
   27.4642  -20.3038  -12.7685 C   0  0  1  0  0  0  0  0  0  0  0  0
   27.2324  -21.3496  -11.7318 C   0  0  0  0  0  0  0  0  0  0  0  0
   27.9544  -21.1999  -10.4627 C   0  0  0  0  0  0  0  0  0  0  0  0
   27.4039  -20.9862   -9.1986 C   0  0  0  0  0  0  0  0  0  0  0  0
   28.4100  -20.8788   -8.3504 N   0  0  0  0  0  0  0  0  0  0  0  0
   29.5966  -21.0039   -8.9438 C   0  0  0  0  0  0  0  0  0  0  0  0
   30.9020  -20.9812   -8.4913 C   0  0  0  0  0  0  0  0  0  0  0  0
   31.9389  -21.1633   -9.3706 C   0  0  0  0  0  0  0  0  0  0  0  0
   31.7037  -21.3704  -10.7098 C   0  0  0  0  0  0  0  0  0  0  0  0
   30.4114  -21.3901  -11.1455 C   0  0  0  0  0  0  0  0  0  0  0  0
   29.3167  -21.2106  -10.3001 C   0  0  0  0  0  0  0  0  0  0  0  0
   26.6986  -20.5754  -13.9898 C   0  0  0  0  0  0  0  0  0  0  0  0
   25.5109  -20.1531  -14.0220 O   0  0  0  0  0  0  0  0  0  0  0  0
   27.1722  -21.2685  -15.1333 N   0  0  0  0  0  0  0  0  0  0  0  0
   26.3510  -21.6721  -16.2370 C   0  0  1  0  0  0  0  0  0  0  0  0
   27.1608  -22.1460  -17.4012 C   0  0  0  0  0  0  0  0  0  0  0  0
   26.3782  -22.3054  -18.6444 C   0  0  0  0  0  0  0  0  0  0  0  0
   26.1640  -23.3609  -19.2529 O   0  0  0  0  0  0  0  0  0  0  0  0
   25.3628  -22.7336  -15.8289 C   0  0  0  0  0  0  0  0  0  0  0  0
   25.7090  -23.8775  -15.4989 O   0  0  0  0  0  0  0  0  0  0  0  0
   25.8295  -21.1265  -19.1731 O   0  0  0  0  0  0  0  0  0  0  0  0
   21.6984  -21.6385  -14.6350 O   0  0  0  0  0  0  0  0  0  0  0  0
   22.0192  -22.9945  -14.4314 C   0  0  0  0  0  0  0  0  0  0  0  0
   22.9545  -23.3970  -15.5359 C   0  0  2  0  0  0  0  0  0  0  0  0
   23.9725  -22.4392  -15.8126 N   0  0  0  0  0  0  0  0  0  0  0  0
   22.2496  -23.7442  -16.7759 C   0  0  0  0  0  0  0  0  0  0  0  0
   22.1748  -24.9434  -17.1311 O   0  0  0  0  0  0  0  0  0  0  0  0
   21.6521  -22.7901  -17.5870 O   0  0  0  0  0  0  0  0  0  0  0  0
  2  1  1  1
  3  4  1  0
  3  2  1  0
  4  5  2  0
  5  6  1  0
  7  6  1  0
  8  7  2  0
  9  8  1  0
 10 11  1  0
 10  9  2  0
 11 12  2  0
 12  4  1  0
 12  7  1  0
 13  2  1  0
 13 14  2  0
 15 13  1  0
 16 15  1  0
 16 17  1  6
 18 17  1  0
 18 22  1  0
 19 18  2  0
 20 16  1  0
 21 20  2  0
 24 23  1  0
 25 24  1  1
 25 27  1  0
 25 26  1  0
 26 20  1  0
 27 29  1  0
 28 27  2  0
M  END
$$$$
