WDS.pdb
     RDKit          3D

 29 30  0  0  1  0  0  0  0  0999 V2000
   26.2501  -22.9378  -12.7133 N   0  0  0  0  0  0  0  0  0  0  0  0
   25.5007  -21.7144  -12.3358 C   0  0  1  0  0  0  0  0  0  0  0  0
   26.5062  -20.6143  -12.3638 C   0  0  0  0  0  0  0  0  0  0  0  0
   27.5289  -20.6206  -11.3110 C   0  0  0  0  0  0  0  0  0  0  0  0
   28.8775  -20.9518  -11.4463 C   0  0  0  0  0  0  0  0  0  0  0  0
   29.4227  -20.8554  -10.2476 N   0  0  0  0  0  0  0  0  0  0  0  0
   28.5470  -20.4843   -9.3142 C   0  0  0  0  0  0  0  0  0  0  0  0
   28.6379  -20.2404   -7.9571 C   0  0  0  0  0  0  0  0  0  0  0  0
   27.5298  -19.8425   -7.2533 C   0  0  0  0  0  0  0  0  0  0  0  0
   26.3152  -19.6792   -7.8777 C   0  0  0  0  0  0  0  0  0  0  0  0
   26.2370  -19.9233   -9.2173 C   0  0  0  0  0  0  0  0  0  0  0  0
   27.3277  -20.3305   -9.9852 C   0  0  0  0  0  0  0  0  0  0  0  0
   24.3826  -21.4470  -13.2466 C   0  0  0  0  0  0  0  0  0  0  0  0
   24.5871  -21.6530  -14.4737 O   0  0  0  0  0  0  0  0  0  0  0  0
   23.0969  -20.9784  -12.8726 N   0  0  0  0  0  0  0  0  0  0  0  0
   22.0148  -20.7574  -13.7867 C   0  0  1  0  0  0  0  0  0  0  0  0
   20.6815  -20.9978  -13.1539 C   0  0  0  0  0  0  0  0  0  0  0  0
   20.4733  -20.2427  -11.9010 C   0  0  0  0  0  0  0  0  0  0  0  0
   21.2816  -19.4840  -11.3519 O   0  0  0  0  0  0  0  0  0  0  0  0
   22.0651  -19.3712  -14.3747 C   0  0  0  0  0  0  0  0  0  0  0  0
   21.6858  -18.3675  -13.7533 O   0  0  0  0  0  0  0  0  0  0  0  0
   19.2235  -20.4173  -11.2861 O   0  0  0  0  0  0  0  0  0  0  0  0
   24.6685  -18.0664  -17.1798 O   0  0  0  0  0  0  0  0  0  0  0  0
   23.3454  -17.8810  -17.6251 C   0  0  0  0  0  0  0  0  0  0  0  0
   22.4584  -17.9541  -16.4150 C   0  0  2  0  0  0  0  0  0  0  0  0
   22.5623  -19.1775  -15.6919 N   0  0  0  0  0  0  0  0  0  0  0  0
   21.0505  -17.6807  -16.7280 C   0  0  0  0  0  0  0  0  0  0  0  0
   20.2965  -18.6228  -17.0655 O   0  0  0  0  0  0  0  0  0  0  0  0
   20.5062  -16.4058  -16.6668 O   0  0  0  0  0  0  0  0  0  0  0  0
  2  1  1  6
  3  4  1  0
  3  2  1  0
  4  5  2  0
  5  6  1  0
  7  6  1  0
  8  7  2  0
  9  8  1  0
 10 11  1  0
 10  9  2  0
 11 12  2  0
 12  4  1  0
 12  7  1  0
 13  2  1  0
 13 14  2  0
 15 13  1  0
 16 15  1  0
 16 17  1  1
 18 17  1  0
 18 22  1  0
 19 18  2  0
 20 16  1  0
 21 20  2  0
 24 23  1  0
 25 24  1  6
 25 27  1  0
 25 26  1  0
 26 20  1  0
 27 29  1  0
 28 27  2  0
M  END
$$$$
