WDS.pdb
     RDKit          3D

 29 30  0  0  1  0  0  0  0  0999 V2000
   27.6891  -22.2816  -14.8287 N   0  0  0  0  0  0  0  0  0  0  0  0
   26.5573  -21.9208  -13.9400 C   0  0  1  0  0  0  0  0  0  0  0  0
   26.8811  -20.5598  -13.4254 C   0  0  0  0  0  0  0  0  0  0  0  0
   27.8950  -20.4722  -12.3677 C   0  0  0  0  0  0  0  0  0  0  0  0
   29.2621  -20.2428  -12.5258 C   0  0  0  0  0  0  0  0  0  0  0  0
   29.8028  -20.2752  -11.3217 N   0  0  0  0  0  0  0  0  0  0  0  0
   28.9066  -20.5081  -10.3633 C   0  0  0  0  0  0  0  0  0  0  0  0
   28.9801  -20.6157   -8.9876 C   0  0  0  0  0  0  0  0  0  0  0  0
   27.8451  -20.8484   -8.2536 C   0  0  0  0  0  0  0  0  0  0  0  0
   26.6202  -20.9785   -8.8654 C   0  0  0  0  0  0  0  0  0  0  0  0
   26.5595  -20.8713  -10.2238 C   0  0  0  0  0  0  0  0  0  0  0  0
   27.6782  -20.6361  -11.0229 C   0  0  0  0  0  0  0  0  0  0  0  0
   25.2716  -21.9392  -14.6458 C   0  0  0  0  0  0  0  0  0  0  0  0
   25.1737  -21.2075  -15.6680 O   0  0  0  0  0  0  0  0  0  0  0  0
   24.1325  -22.7028  -14.2826 N   0  0  0  0  0  0  0  0  0  0  0  0
   22.9033  -22.7296  -15.0199 C   0  0  1  0  0  0  0  0  0  0  0  0
   22.5193  -24.1155  -15.4293 C   0  0  0  0  0  0  0  0  0  0  0  0
   21.3518  -24.1663  -16.3336 C   0  0  0  0  0  0  0  0  0  0  0  0
   20.6941  -23.2034  -16.7466 O   0  0  0  0  0  0  0  0  0  0  0  0
   21.7813  -22.0908  -14.2434 C   0  0  0  0  0  0  0  0  0  0  0  0
   21.4535  -22.4692  -13.1090 O   0  0  0  0  0  0  0  0  0  0  0  0
   20.9652  -25.4478  -16.7565 O   0  0  0  0  0  0  0  0  0  0  0  0
   20.6428  -18.1456  -13.7648 O   0  0  0  0  0  0  0  0  0  0  0  0
   19.7885  -18.9175  -14.5758 C   0  0  0  0  0  0  0  0  0  0  0  0
   19.9665  -20.3513  -14.1645 C   0  0  2  0  0  0  0  0  0  0  0  0
   21.0529  -21.0099  -14.8097 N   0  0  0  0  0  0  0  0  0  0  0  0
   18.7405  -21.1425  -14.3254 C   0  0  0  0  0  0  0  0  0  0  0  0
   18.4365  -21.5912  -15.4550 O   0  0  0  0  0  0  0  0  0  0  0  0
   17.8879  -21.4213  -13.2668 O   0  0  0  0  0  0  0  0  0  0  0  0
  2  1  1  6
  3  4  1  0
  3  2  1  0
  4  5  2  0
  5  6  1  0
  7  6  1  0
  8  7  2  0
  9  8  1  0
 10 11  1  0
 10  9  2  0
 11 12  2  0
 12  4  1  0
 12  7  1  0
 13  2  1  0
 13 14  2  0
 15 13  1  0
 16 15  1  0
 16 17  1  1
 18 17  1  0
 18 22  1  0
 19 18  2  0
 20 16  1  0
 21 20  2  0
 24 23  1  0
 25 24  1  6
 25 27  1  0
 25 26  1  0
 26 20  1  0
 27 29  1  0
 28 27  2  0
M  END
$$$$
