WDS.pdb
     RDKit          3D

 29 30  0  0  1  0  0  0  0  0999 V2000
   26.8607  -18.8816   -8.8527 N   0  0  0  0  0  0  0  0  0  0  0  0
   26.4355  -20.1336   -9.5255 C   0  0  1  0  0  0  0  0  0  0  0  0
   26.1788  -21.1035   -8.4230 C   0  0  0  0  0  0  0  0  0  0  0  0
   26.5655  -20.6894   -7.0690 C   0  0  0  0  0  0  0  0  0  0  0  0
   25.7180  -20.3036   -6.0300 C   0  0  0  0  0  0  0  0  0  0  0  0
   26.4840  -19.9824   -5.0036 N   0  0  0  0  0  0  0  0  0  0  0  0
   27.7823  -20.1219   -5.2691 C   0  0  0  0  0  0  0  0  0  0  0  0
   28.9371  -19.9300   -4.5348 C   0  0  0  0  0  0  0  0  0  0  0  0
   30.1615  -20.1848   -5.0981 C   0  0  0  0  0  0  0  0  0  0  0  0
   30.2654  -20.6327   -6.3944 C   0  0  0  0  0  0  0  0  0  0  0  0
   29.1191  -20.8179   -7.1100 C   0  0  0  0  0  0  0  0  0  0  0  0
   27.8470  -20.5755   -6.5922 C   0  0  0  0  0  0  0  0  0  0  0  0
   25.2451  -19.9371  -10.3596 C   0  0  0  0  0  0  0  0  0  0  0  0
   24.3907  -19.1079   -9.9447 O   0  0  0  0  0  0  0  0  0  0  0  0
   24.9694  -20.5944  -11.5862 N   0  0  0  0  0  0  0  0  0  0  0  0
   23.8525  -20.2970  -12.4344 C   0  0  1  0  0  0  0  0  0  0  0  0
   24.2777  -19.9081  -13.8142 C   0  0  0  0  0  0  0  0  0  0  0  0
   23.1511  -19.5916  -14.7164 C   0  0  0  0  0  0  0  0  0  0  0  0
   22.1350  -18.9458  -14.4319 O   0  0  0  0  0  0  0  0  0  0  0  0
   22.8863  -21.4513  -12.4976 C   0  0  0  0  0  0  0  0  0  0  0  0
   23.2474  -22.6125  -12.7395 O   0  0  0  0  0  0  0  0  0  0  0  0
   23.2645  -20.0828  -16.0265 O   0  0  0  0  0  0  0  0  0  0  0  0
   18.9271  -20.7485  -11.4375 O   0  0  0  0  0  0  0  0  0  0  0  0
   19.4290  -22.0498  -11.2425 C   0  0  0  0  0  0  0  0  0  0  0  0
   20.5168  -22.2595  -12.2571 C   0  0  2  0  0  0  0  0  0  0  0  0
   21.5005  -21.2287  -12.2753 N   0  0  0  0  0  0  0  0  0  0  0  0
   19.9936  -22.4701  -13.6124 C   0  0  0  0  0  0  0  0  0  0  0  0
   20.0711  -21.5476  -14.4568 O   0  0  0  0  0  0  0  0  0  0  0  0
   19.4070  -23.6633  -14.0089 O   0  0  0  0  0  0  0  0  0  0  0  0
  2  1  1  1
  3  4  1  0
  3  2  1  0
  4  5  2  0
  5  6  1  0
  7  6  1  0
  8  7  2  0
  9  8  1  0
 10 11  1  0
 10  9  2  0
 11 12  2  0
 12  4  1  0
 12  7  1  0
 13  2  1  0
 13 14  2  0
 15 13  1  0
 16 15  1  0
 16 17  1  6
 18 17  1  0
 18 22  1  0
 19 18  2  0
 20 16  1  0
 21 20  2  0
 24 23  1  0
 25 24  1  1
 25 27  1  0
 25 26  1  0
 26 20  1  0
 27 29  1  0
 28 27  2  0
M  END
$$$$
