WDS.pdb
     RDKit          3D

 29 30  0  0  1  0  0  0  0  0999 V2000
   26.8858  -21.8819  -15.4585 N   0  0  0  0  0  0  0  0  0  0  0  0
   25.9561  -21.7728  -14.3076 C   0  0  1  0  0  0  0  0  0  0  0  0
   26.1292  -20.3843  -13.7938 C   0  0  0  0  0  0  0  0  0  0  0  0
   27.4683  -20.0111  -13.3229 C   0  0  0  0  0  0  0  0  0  0  0  0
   28.3579  -19.1216  -13.9264 C   0  0  0  0  0  0  0  0  0  0  0  0
   29.4530  -19.1080  -13.1889 N   0  0  0  0  0  0  0  0  0  0  0  0
   29.3714  -19.9187  -12.1345 C   0  0  0  0  0  0  0  0  0  0  0  0
   30.2269  -20.2278  -11.0943 C   0  0  0  0  0  0  0  0  0  0  0  0
   29.8369  -21.1132  -10.1220 C   0  0  0  0  0  0  0  0  0  0  0  0
   28.5970  -21.7073  -10.1611 C   0  0  0  0  0  0  0  0  0  0  0  0
   27.7611  -21.3953  -11.1928 C   0  0  0  0  0  0  0  0  0  0  0  0
   28.1015  -20.5039  -12.2099 C   0  0  0  0  0  0  0  0  0  0  0  0
   24.5655  -22.0366  -14.6922 C   0  0  0  0  0  0  0  0  0  0  0  0
   24.0868  -21.3256  -15.6170 O   0  0  0  0  0  0  0  0  0  0  0  0
   23.7137  -23.0156  -14.1190 N   0  0  0  0  0  0  0  0  0  0  0  0
   22.3892  -23.3114  -14.5810 C   0  0  1  0  0  0  0  0  0  0  0  0
   22.1319  -24.7823  -14.6574 C   0  0  0  0  0  0  0  0  0  0  0  0
   22.9735  -25.4822  -15.6501 C   0  0  0  0  0  0  0  0  0  0  0  0
   23.0064  -25.2746  -16.8691 O   0  0  0  0  0  0  0  0  0  0  0  0
   21.3450  -22.6484  -13.7208 C   0  0  0  0  0  0  0  0  0  0  0  0
   21.0558  -23.0570  -12.5864 O   0  0  0  0  0  0  0  0  0  0  0  0
   23.8152  -26.4817  -15.1372 O   0  0  0  0  0  0  0  0  0  0  0  0
   19.2958  -19.3661  -15.2749 O   0  0  0  0  0  0  0  0  0  0  0  0
   19.5146  -19.3528  -13.8838 C   0  0  0  0  0  0  0  0  0  0  0  0
   19.6818  -20.7813  -13.4501 C   0  0  2  0  0  0  0  0  0  0  0  0
   20.6484  -21.5077  -14.2039 N   0  0  0  0  0  0  0  0  0  0  0  0
   18.4124  -21.5185  -13.4293 C   0  0  0  0  0  0  0  0  0  0  0  0
   18.2219  -22.4473  -14.2485 O   0  0  0  0  0  0  0  0  0  0  0  0
   17.3963  -21.2300  -12.5296 O   0  0  0  0  0  0  0  0  0  0  0  0
  2  1  1  6
  3  4  1  0
  3  2  1  0
  4  5  2  0
  5  6  1  0
  7  6  1  0
  8  7  2  0
  9  8  1  0
 10 11  1  0
 10  9  2  0
 11 12  2  0
 12  4  1  0
 12  7  1  0
 13  2  1  0
 13 14  2  0
 15 13  1  0
 16 15  1  0
 16 17  1  1
 18 17  1  0
 18 22  1  0
 19 18  2  0
 20 16  1  0
 21 20  2  0
 24 23  1  0
 25 24  1  6
 25 27  1  0
 25 26  1  0
 26 20  1  0
 27 29  1  0
 28 27  2  0
M  END
$$$$
