WDS.pdb
     RDKit          3D

 29 30  0  0  1  0  0  0  0  0999 V2000
   26.4488  -22.3926  -12.4685 N   0  0  0  0  0  0  0  0  0  0  0  0
   25.5882  -21.5297  -11.6226 C   0  0  1  0  0  0  0  0  0  0  0  0
   26.4018  -20.3108  -11.3503 C   0  0  0  0  0  0  0  0  0  0  0  0
   27.5533  -20.4660  -10.4535 C   0  0  0  0  0  0  0  0  0  0  0  0
   28.8736  -20.7371  -10.8142 C   0  0  0  0  0  0  0  0  0  0  0  0
   29.5705  -20.8268   -9.6963 N   0  0  0  0  0  0  0  0  0  0  0  0
   28.8232  -20.6369   -8.6095 C   0  0  0  0  0  0  0  0  0  0  0  0
   29.0899  -20.6188   -7.2537 C   0  0  0  0  0  0  0  0  0  0  0  0
   28.0822  -20.3702   -6.3570 C   0  0  0  0  0  0  0  0  0  0  0  0
   26.7960  -20.1358   -6.7840 C   0  0  0  0  0  0  0  0  0  0  0  0
   26.5441  -20.1568   -8.1243 C   0  0  0  0  0  0  0  0  0  0  0  0
   27.5263  -20.4043   -9.0831 C   0  0  0  0  0  0  0  0  0  0  0  0
   24.3206  -21.1966  -12.2812 C   0  0  0  0  0  0  0  0  0  0  0  0
   24.2841  -21.3134  -13.5361 O   0  0  0  0  0  0  0  0  0  0  0  0
   23.1368  -20.7558  -11.6356 N   0  0  0  0  0  0  0  0  0  0  0  0
   21.8961  -20.4932  -12.3042 C   0  0  1  0  0  0  0  0  0  0  0  0
   20.7408  -20.4487  -11.3560 C   0  0  0  0  0  0  0  0  0  0  0  0
   20.1105  -21.7650  -11.1247 C   0  0  0  0  0  0  0  0  0  0  0  0
   19.6272  -22.5142  -11.9823 O   0  0  0  0  0  0  0  0  0  0  0  0
   21.9595  -19.2164  -13.1014 C   0  0  0  0  0  0  0  0  0  0  0  0
   22.5916  -18.2205  -12.7190 O   0  0  0  0  0  0  0  0  0  0  0  0
   20.0655  -22.1913   -9.7881 O   0  0  0  0  0  0  0  0  0  0  0  0
   23.7629  -18.5218  -16.9326 O   0  0  0  0  0  0  0  0  0  0  0  0
   23.3043  -19.0949  -15.7307 C   0  0  0  0  0  0  0  0  0  0  0  0
   21.8760  -18.6646  -15.5538 C   0  0  2  0  0  0  0  0  0  0  0  0
   21.2772  -19.1221  -14.3445 N   0  0  0  0  0  0  0  0  0  0  0  0
   21.0293  -19.0301  -16.6960 C   0  0  0  0  0  0  0  0  0  0  0  0
   20.6505  -20.2167  -16.8318 O   0  0  0  0  0  0  0  0  0  0  0  0
   20.6220  -18.1072  -17.6487 O   0  0  0  0  0  0  0  0  0  0  0  0
  2  1  1  6
  3  4  1  0
  3  2  1  0
  4  5  2  0
  5  6  1  0
  7  6  1  0
  8  7  2  0
  9  8  1  0
 10 11  1  0
 10  9  2  0
 11 12  2  0
 12  4  1  0
 12  7  1  0
 13  2  1  0
 13 14  2  0
 15 13  1  0
 16 15  1  0
 16 17  1  1
 18 17  1  0
 18 22  1  0
 19 18  2  0
 20 16  1  0
 21 20  2  0
 24 23  1  0
 25 24  1  6
 25 27  1  0
 25 26  1  0
 26 20  1  0
 27 29  1  0
 28 27  2  0
M  END
$$$$
