WDS.pdb
     RDKit          3D

 29 30  0  0  1  0  0  0  0  0999 V2000
   27.8796  -19.9976   -9.9191 N   0  0  0  0  0  0  0  0  0  0  0  0
   26.8261  -21.0381   -9.8277 C   0  0  1  0  0  0  0  0  0  0  0  0
   26.1561  -20.8037   -8.5169 C   0  0  0  0  0  0  0  0  0  0  0  0
   26.8904  -20.0063   -7.5274 C   0  0  0  0  0  0  0  0  0  0  0  0
   27.1589  -18.6380   -7.5773 C   0  0  0  0  0  0  0  0  0  0  0  0
   27.8706  -18.3430   -6.5051 N   0  0  0  0  0  0  0  0  0  0  0  0
   28.1029  -19.4057   -5.7354 C   0  0  0  0  0  0  0  0  0  0  0  0
   28.7669  -19.5959   -4.5385 C   0  0  0  0  0  0  0  0  0  0  0  0
   28.8186  -20.8434   -3.9705 C   0  0  0  0  0  0  0  0  0  0  0  0
   28.2160  -21.9221   -4.5745 C   0  0  0  0  0  0  0  0  0  0  0  0
   27.5640  -21.7229   -5.7558 C   0  0  0  0  0  0  0  0  0  0  0  0
   27.4783  -20.4794   -6.3815 C   0  0  0  0  0  0  0  0  0  0  0  0
   25.8747  -20.9620  -10.9415 C   0  0  0  0  0  0  0  0  0  0  0  0
   25.5746  -19.8093  -11.3550 O   0  0  0  0  0  0  0  0  0  0  0  0
   25.2636  -22.0645  -11.5922 N   0  0  0  0  0  0  0  0  0  0  0  0
   24.3565  -21.9554  -12.6970 C   0  0  1  0  0  0  0  0  0  0  0  0
   24.0564  -23.2830  -13.3159 C   0  0  0  0  0  0  0  0  0  0  0  0
   25.1872  -23.8535  -14.0769 C   0  0  0  0  0  0  0  0  0  0  0  0
   25.5001  -25.0480  -14.1520 O   0  0  0  0  0  0  0  0  0  0  0  0
   23.0758  -21.2726  -12.2926 C   0  0  0  0  0  0  0  0  0  0  0  0
   22.6776  -21.2402  -11.1188 O   0  0  0  0  0  0  0  0  0  0  0  0
   25.9752  -22.9289  -14.7801 O   0  0  0  0  0  0  0  0  0  0  0  0
   20.2992  -17.5763  -13.3138 O   0  0  0  0  0  0  0  0  0  0  0  0
   21.4181  -18.3612  -13.6531 C   0  0  0  0  0  0  0  0  0  0  0  0
   21.2435  -19.6925  -12.9795 C   0  0  2  0  0  0  0  0  0  0  0  0
   22.2730  -20.6323  -13.2751 N   0  0  0  0  0  0  0  0  0  0  0  0
   19.9311  -20.2939  -13.2462 C   0  0  0  0  0  0  0  0  0  0  0  0
   19.7947  -21.0803  -14.2120 O   0  0  0  0  0  0  0  0  0  0  0  0
   18.8155  -20.0274  -12.4654 O   0  0  0  0  0  0  0  0  0  0  0  0
  2  1  1  6
  3  4  1  0
  3  2  1  0
  4  5  2  0
  5  6  1  0
  7  6  1  0
  8  7  2  0
  9  8  1  0
 10 11  1  0
 10  9  2  0
 11 12  2  0
 12  4  1  0
 12  7  1  0
 13  2  1  0
 13 14  2  0
 15 13  1  0
 16 15  1  0
 16 17  1  1
 18 17  1  0
 18 22  1  0
 19 18  2  0
 20 16  1  0
 21 20  2  0
 24 23  1  0
 25 24  1  6
 25 27  1  0
 25 26  1  0
 26 20  1  0
 27 29  1  0
 28 27  2  0
M  END
$$$$
