WDS.pdb
     RDKit          3D

 29 30  0  0  1  0  0  0  0  0999 V2000
   27.3597  -25.3117  -18.6677 N   0  0  0  0  0  0  0  0  0  0  0  0
   26.0607  -25.8792  -18.2301 C   0  0  1  0  0  0  0  0  0  0  0  0
   26.2477  -26.2232  -16.7918 C   0  0  0  0  0  0  0  0  0  0  0  0
   27.0111  -27.4405  -16.4925 C   0  0  0  0  0  0  0  0  0  0  0  0
   28.3841  -27.5414  -16.2657 C   0  0  0  0  0  0  0  0  0  0  0  0
   28.6519  -28.8191  -16.0683 N   0  0  0  0  0  0  0  0  0  0  0  0
   27.5662  -29.5882  -16.1440 C   0  0  0  0  0  0  0  0  0  0  0  0
   27.3396  -30.9437  -15.9997 C   0  0  0  0  0  0  0  0  0  0  0  0
   26.0690  -31.4461  -16.1208 C   0  0  0  0  0  0  0  0  0  0  0  0
   25.0027  -30.6189  -16.3860 C   0  0  0  0  0  0  0  0  0  0  0  0
   25.2381  -29.2829  -16.5271 C   0  0  0  0  0  0  0  0  0  0  0  0
   26.5067  -28.7141  -16.4157 C   0  0  0  0  0  0  0  0  0  0  0  0
   24.9528  -24.9370  -18.4202 C   0  0  0  0  0  0  0  0  0  0  0  0
   25.1805  -23.7282  -18.1428 O   0  0  0  0  0  0  0  0  0  0  0  0
   23.6527  -25.2623  -18.8855 N   0  0  0  0  0  0  0  0  0  0  0  0
   22.5583  -24.3385  -18.9516 C   0  0  1  0  0  0  0  0  0  0  0  0
   22.0424  -24.1713  -20.3450 C   0  0  0  0  0  0  0  0  0  0  0  0
   22.9657  -23.4397  -21.2370 C   0  0  0  0  0  0  0  0  0  0  0  0
   23.5922  -22.4078  -20.9668 O   0  0  0  0  0  0  0  0  0  0  0  0
   21.4374  -24.7460  -18.0311 C   0  0  0  0  0  0  0  0  0  0  0  0
   21.2858  -25.9122  -17.6382 O   0  0  0  0  0  0  0  0  0  0  0  0
   23.1359  -23.9878  -22.5180 O   0  0  0  0  0  0  0  0  0  0  0  0
   18.6511  -25.9394  -15.5361 O   0  0  0  0  0  0  0  0  0  0  0  0
   18.8515  -25.4345  -16.8354 C   0  0  0  0  0  0  0  0  0  0  0  0
   19.4263  -24.0544  -16.6884 C   0  0  2  0  0  0  0  0  0  0  0  0
   20.5024  -23.7756  -17.5798 N   0  0  0  0  0  0  0  0  0  0  0  0
   19.8335  -23.7549  -15.3101 C   0  0  0  0  0  0  0  0  0  0  0  0
   21.0502  -23.6367  -15.0352 O   0  0  0  0  0  0  0  0  0  0  0  0
   18.9182  -23.5940  -14.2797 O   0  0  0  0  0  0  0  0  0  0  0  0
  2  1  1  1
  3  4  1  0
  3  2  1  0
  4  5  2  0
  5  6  1  0
  7  6  1  0
  8  7  2  0
  9  8  1  0
 10 11  1  0
 10  9  2  0
 11 12  2  0
 12  4  1  0
 12  7  1  0
 13  2  1  0
 13 14  2  0
 15 13  1  0
 16 15  1  0
 16 17  1  6
 18 17  1  0
 18 22  1  0
 19 18  2  0
 20 16  1  0
 21 20  2  0
 24 23  1  0
 25 24  1  1
 25 27  1  0
 25 26  1  0
 26 20  1  0
 27 29  1  0
 28 27  2  0
M  END
$$$$
