WDS.pdb
     RDKit          3D

 29 30  0  0  1  0  0  0  0  0999 V2000
   27.2481   -9.1735  -19.4912 N   0  0  0  0  0  0  0  0  0  0  0  0
   26.5224   -9.5848  -18.2643 C   0  0  1  0  0  0  0  0  0  0  0  0
   27.4771   -9.3446  -17.1449 C   0  0  0  0  0  0  0  0  0  0  0  0
   28.6006  -10.2803  -17.0162 C   0  0  0  0  0  0  0  0  0  0  0  0
   29.9590   -9.9918  -17.1510 C   0  0  0  0  0  0  0  0  0  0  0  0
   30.6145  -11.1266  -16.9899 N   0  0  0  0  0  0  0  0  0  0  0  0
   29.8039  -12.1583  -16.7564 C   0  0  0  0  0  0  0  0  0  0  0  0
   30.0092  -13.5034  -16.5156 C   0  0  0  0  0  0  0  0  0  0  0  0
   28.9409  -14.3327  -16.2864 C   0  0  0  0  0  0  0  0  0  0  0  0
   27.6539  -13.8476  -16.2912 C   0  0  0  0  0  0  0  0  0  0  0  0
   27.4631  -12.5185  -16.5306 C   0  0  0  0  0  0  0  0  0  0  0  0
   28.5085  -11.6270  -16.7708 C   0  0  0  0  0  0  0  0  0  0  0  0
   25.2756   -8.8344  -18.0808 C   0  0  0  0  0  0  0  0  0  0  0  0
   25.2929   -7.6156  -18.4033 O   0  0  0  0  0  0  0  0  0  0  0  0
   24.0569   -9.3545  -17.5742 N   0  0  0  0  0  0  0  0  0  0  0  0
   22.8352   -8.6110  -17.4740 C   0  0  1  0  0  0  0  0  0  0  0  0
   21.7241   -9.2412  -18.2512 C   0  0  0  0  0  0  0  0  0  0  0  0
   21.9911   -9.3340  -19.7016 C   0  0  0  0  0  0  0  0  0  0  0  0
   22.3232   -8.4090  -20.4529 O   0  0  0  0  0  0  0  0  0  0  0  0
   22.4201   -8.4246  -16.0378 C   0  0  0  0  0  0  0  0  0  0  0  0
   22.6346   -9.2779  -15.1641 O   0  0  0  0  0  0  0  0  0  0  0  0
   21.8483  -10.6114  -20.2657 O   0  0  0  0  0  0  0  0  0  0  0  0
   19.8803   -5.2650  -14.9106 O   0  0  0  0  0  0  0  0  0  0  0  0
   21.0041   -5.4829  -14.0903 C   0  0  0  0  0  0  0  0  0  0  0  0
   21.4275   -6.9100  -14.2924 C   0  0  2  0  0  0  0  0  0  0  0  0
   21.7545   -7.2333  -15.6411 N   0  0  0  0  0  0  0  0  0  0  0  0
   20.4443   -7.8703  -13.7764 C   0  0  0  0  0  0  0  0  0  0  0  0
   19.8689   -8.6534  -14.5674 O   0  0  0  0  0  0  0  0  0  0  0  0
   20.1167   -7.9528  -12.4306 O   0  0  0  0  0  0  0  0  0  0  0  0
  2  1  1  6
  3  4  1  0
  3  2  1  0
  4  5  2  0
  5  6  1  0
  7  6  1  0
  8  7  2  0
  9  8  1  0
 10 11  1  0
 10  9  2  0
 11 12  2  0
 12  4  1  0
 12  7  1  0
 13  2  1  0
 13 14  2  0
 15 13  1  0
 16 15  1  0
 16 17  1  6
 18 17  1  0
 18 22  1  0
 19 18  2  0
 20 16  1  0
 21 20  2  0
 24 23  1  0
 25 24  1  6
 25 27  1  0
 25 26  1  0
 26 20  1  0
 27 29  1  0
 28 27  2  0
M  END
$$$$
