WDS.pdb
     RDKit          3D

 29 30  0  0  1  0  0  0  0  0999 V2000
   27.2401  -22.0743  -13.2185 N   0  0  0  0  0  0  0  0  0  0  0  0
   26.2445  -21.3746  -12.3698 C   0  0  1  0  0  0  0  0  0  0  0  0
   26.9676  -20.2002  -11.8042 C   0  0  0  0  0  0  0  0  0  0  0  0
   28.0168  -20.4775  -10.8160 C   0  0  0  0  0  0  0  0  0  0  0  0
   29.3578  -20.7687  -11.0679 C   0  0  0  0  0  0  0  0  0  0  0  0
   29.9346  -20.9819   -9.8994 N   0  0  0  0  0  0  0  0  0  0  0  0
   29.0871  -20.8566   -8.8788 C   0  0  0  0  0  0  0  0  0  0  0  0
   29.2153  -20.9656   -7.5072 C   0  0  0  0  0  0  0  0  0  0  0  0
   28.1300  -20.7553   -6.6953 C   0  0  0  0  0  0  0  0  0  0  0  0
   26.9016  -20.4341   -7.2241 C   0  0  0  0  0  0  0  0  0  0  0  0
   26.7865  -20.3298   -8.5791 C   0  0  0  0  0  0  0  0  0  0  0  0
   27.8527  -20.5327   -9.4550 C   0  0  0  0  0  0  0  0  0  0  0  0
   25.0598  -20.9639  -13.1307 C   0  0  0  0  0  0  0  0  0  0  0  0
   25.0191  -19.7638  -13.5155 O   0  0  0  0  0  0  0  0  0  0  0  0
   23.9594  -21.7922  -13.4707 N   0  0  0  0  0  0  0  0  0  0  0  0
   22.7998  -21.3492  -14.1880 C   0  0  1  0  0  0  0  0  0  0  0  0
   22.4700  -22.2450  -15.3389 C   0  0  0  0  0  0  0  0  0  0  0  0
   21.2316  -21.8669  -16.0508 C   0  0  0  0  0  0  0  0  0  0  0  0
   20.8572  -20.7201  -16.3250 O   0  0  0  0  0  0  0  0  0  0  0  0
   21.6065  -21.2168  -13.2779 C   0  0  0  0  0  0  0  0  0  0  0  0
   21.2340  -22.1306  -12.5272 O   0  0  0  0  0  0  0  0  0  0  0  0
   20.4091  -22.9326  -16.4486 O   0  0  0  0  0  0  0  0  0  0  0  0
   19.1153  -17.8190  -13.5486 O   0  0  0  0  0  0  0  0  0  0  0  0
   19.3727  -18.3275  -12.2608 C   0  0  0  0  0  0  0  0  0  0  0  0
   19.7296  -19.7776  -12.4225 C   0  0  2  0  0  0  0  0  0  0  0  0
   20.8600  -20.0077  -13.2590 N   0  0  0  0  0  0  0  0  0  0  0  0
   18.5977  -20.5910  -12.8832 C   0  0  0  0  0  0  0  0  0  0  0  0
   17.5624  -20.6660  -12.1814 O   0  0  0  0  0  0  0  0  0  0  0  0
   18.6212  -21.2929  -14.0799 O   0  0  0  0  0  0  0  0  0  0  0  0
  2  1  1  6
  3  4  1  0
  3  2  1  0
  4  5  2  0
  5  6  1  0
  7  6  1  0
  8  7  2  0
  9  8  1  0
 10 11  1  0
 10  9  2  0
 11 12  2  0
 12  4  1  0
 12  7  1  0
 13  2  1  0
 13 14  2  0
 15 13  1  0
 16 15  1  0
 16 17  1  6
 18 17  1  0
 18 22  1  0
 19 18  2  0
 20 16  1  0
 21 20  2  0
 24 23  1  0
 25 24  1  6
 25 27  1  0
 25 26  1  0
 26 20  1  0
 27 29  1  0
 28 27  2  0
M  END
$$$$
