QYH.pdb
     RDKit          3D

 32 33  0  0  1  0  0  0  0  0999 V2000
    5.3988  -17.3999   19.2456 N   0  0  0  0  0  0  0  0  0  0  0  0
    6.8181  -17.2858   19.2146 C   0  0  0  0  0  0  0  0  0  0  0  0
    7.5277  -18.2566   18.8464 O   0  0  0  0  0  0  0  0  0  0  0  0
    7.4320  -16.0118   19.6253 C   0  0  0  0  0  0  0  0  0  0  0  0
    6.4804  -14.9682   20.0639 C   0  0  0  0  0  0  0  0  0  0  0  0
    7.0721  -13.6829   20.5340 C   0  0  2  0  0  0  0  0  0  0  0  0
    7.8411  -13.0595   19.5131 N   0  0  0  0  0  0  0  0  0  0  0  0
    7.9988  -14.0107   21.6819 C   0  0  0  0  0  0  0  0  0  0  0  0
    9.1997  -14.3150   21.4407 O   0  0  0  0  0  0  0  0  0  0  0  0
   10.9311  -15.1549   29.8857 O   0  0  0  0  0  0  0  0  0  0  0  0
   10.1580  -14.8221   28.7870 C   0  0  0  0  0  0  0  0  0  0  0  0
    9.3643  -15.8164   28.2144 C   0  0  0  0  0  0  0  0  0  0  0  0
    8.5862  -15.5444   27.1233 C   0  0  0  0  0  0  0  0  0  0  0  0
    8.5830  -14.2748   26.5822 C   0  0  0  0  0  0  0  0  0  0  0  0
    7.7402  -13.9983   25.4110 C   0  0  0  0  0  0  0  0  0  0  0  0
    8.4055  -14.4557   24.1181 C   0  0  2  0  0  0  0  0  0  0  0  0
    7.5759  -13.9890   23.0264 N   0  0  0  0  0  0  0  0  0  0  0  0
    8.5987  -15.9155   24.1010 C   0  0  0  0  0  0  0  0  0  0  0  0
    7.7430  -16.7245   23.6407 O   0  0  0  0  0  0  0  0  0  0  0  0
    9.3621  -13.2698   27.1337 C   0  0  0  0  0  0  0  0  0  0  0  0
   10.1396  -13.5496   28.2280 C   0  0  0  0  0  0  0  0  0  0  0  0
    9.7681  -16.5756   24.5964 N   0  0  0  0  0  0  0  0  0  0  0  0
   10.7889  -17.1696   23.8415 C   0  0  1  0  0  0  0  0  0  0  0  0
   11.3356  -16.4022   22.6836 C   0  0  0  0  0  0  0  0  0  0  0  0
   12.3418  -17.2737   21.9889 C   0  0  0  0  0  0  0  0  0  0  0  0
   12.3186  -18.6700   21.9817 C   0  0  0  0  0  0  0  0  0  0  0  0
   13.3508  -19.1435   21.2728 N   0  0  0  0  0  0  0  0  0  0  0  0
   14.0199  -18.0938   20.8332 C   0  0  0  0  0  0  0  0  0  0  0  0
   13.4179  -16.9515   21.2602 N   0  0  0  0  0  0  0  0  0  0  0  0
   11.8897  -17.6176   24.7037 C   0  0  0  0  0  0  0  0  0  0  0  0
   11.9151  -17.4326   25.9591 O   0  0  0  0  0  0  0  0  0  0  0  0
   12.9694  -18.2832   24.1456 O   0  0  0  0  0  0  0  0  0  0  0  0
  1  2  1  0
  2  4  1  0
  2  3  2  0
  4  5  1  0
  6  7  1  6
  6  5  1  0
  8  6  1  0
  8  9  2  0
 10 11  1  0
 11 21  2  0
 11 12  1  0
 12 13  2  0
 13 14  1  0
 14 15  1  0
 16 15  1  1
 16 17  1  0
 17  8  1  0
 18 16  1  0
 19 18  2  0
 20 14  2  0
 21 20  1  0
 22 18  1  0
 23 22  1  0
 23 30  1  0
 23 24  1  6
 25 29  1  0
 25 24  1  0
 26 25  2  0
 27 26  1  0
 27 28  1  0
 28 29  2  0
 30 32  1  0
 31 30  2  0
M  END
$$$$
