QYH.pdb
     RDKit          3D

 32 33  0  0  1  0  0  0  0  0999 V2000
    6.7113  -19.5321   19.2186 N   0  0  0  0  0  0  0  0  0  0  0  0
    7.9816  -19.8732   19.7647 C   0  0  0  0  0  0  0  0  0  0  0  0
    8.2973  -21.0778   19.9403 O   0  0  0  0  0  0  0  0  0  0  0  0
    8.9107  -18.7874   20.1204 C   0  0  0  0  0  0  0  0  0  0  0  0
    8.4309  -17.4232   19.8108 C   0  0  0  0  0  0  0  0  0  0  0  0
    9.3936  -16.3094   20.0467 C   0  0  2  0  0  0  0  0  0  0  0  0
   10.7348  -16.7232   19.8176 N   0  0  0  0  0  0  0  0  0  0  0  0
    9.2698  -15.9114   21.4993 C   0  0  0  0  0  0  0  0  0  0  0  0
   10.3012  -15.8932   22.2264 O   0  0  0  0  0  0  0  0  0  0  0  0
    6.9005  -11.1483   28.3345 O   0  0  0  0  0  0  0  0  0  0  0  0
    6.9341  -11.8031   27.1155 C   0  0  0  0  0  0  0  0  0  0  0  0
    8.0170  -11.5641   26.2689 C   0  0  0  0  0  0  0  0  0  0  0  0
    8.0973  -12.1790   25.0502 C   0  0  0  0  0  0  0  0  0  0  0  0
    7.1000  -13.0458   24.6519 C   0  0  0  0  0  0  0  0  0  0  0  0
    7.2021  -13.6997   23.3402 C   0  0  0  0  0  0  0  0  0  0  0  0
    7.9300  -15.0358   23.4324 C   0  0  2  0  0  0  0  0  0  0  0  0
    8.0381  -15.5534   22.0839 N   0  0  0  0  0  0  0  0  0  0  0  0
    7.2371  -15.9628   24.3429 C   0  0  0  0  0  0  0  0  0  0  0  0
    6.2962  -15.6101   25.1103 O   0  0  0  0  0  0  0  0  0  0  0  0
    6.0147  -13.3003   25.4755 C   0  0  0  0  0  0  0  0  0  0  0  0
    5.9408  -12.6805   26.6965 C   0  0  0  0  0  0  0  0  0  0  0  0
    7.5466  -17.3557   24.4574 N   0  0  0  0  0  0  0  0  0  0  0  0
    8.7792  -17.9231   24.8086 C   0  0  1  0  0  0  0  0  0  0  0  0
    9.9366  -17.6958   23.8934 C   0  0  0  0  0  0  0  0  0  0  0  0
   11.0679  -18.5666   24.3587 C   0  0  0  0  0  0  0  0  0  0  0  0
   11.0218  -19.4077   25.4726 C   0  0  0  0  0  0  0  0  0  0  0  0
   12.1890  -20.0478   25.6142 N   0  0  0  0  0  0  0  0  0  0  0  0
   12.9654  -19.6397   24.6275 C   0  0  0  0  0  0  0  0  0  0  0  0
   12.2970  -18.7403   23.8568 N   0  0  0  0  0  0  0  0  0  0  0  0
    9.1539  -17.5616   26.1814 C   0  0  0  0  0  0  0  0  0  0  0  0
    8.3088  -17.3327   27.1003 O   0  0  0  0  0  0  0  0  0  0  0  0
   10.4934  -17.4610   26.5217 O   0  0  0  0  0  0  0  0  0  0  0  0
  1  2  1  0
  2  4  1  0
  2  3  2  0
  4  5  1  0
  6  7  1  1
  6  5  1  0
  8  6  1  0
  8  9  2  0
 10 11  1  0
 11 21  2  0
 11 12  1  0
 12 13  2  0
 13 14  1  0
 14 15  1  0
 16 15  1  6
 16 17  1  0
 17  8  1  0
 18 16  1  0
 19 18  2  0
 20 14  2  0
 21 20  1  0
 22 18  1  0
 23 22  1  0
 23 30  1  0
 23 24  1  6
 25 29  1  0
 25 24  1  0
 26 25  2  0
 27 26  1  0
 27 28  1  0
 28 29  2  0
 30 32  1  0
 31 30  2  0
M  END
$$$$
