QYH.pdb
     RDKit          3D

 32 33  0  0  1  0  0  0  0  0999 V2000
    9.5767  -15.1580   14.7788 N   0  0  0  0  0  0  0  0  0  0  0  0
   10.8802  -15.1305   14.2058 C   0  0  0  0  0  0  0  0  0  0  0  0
   11.0338  -15.2634   12.9647 O   0  0  0  0  0  0  0  0  0  0  0  0
   12.0382  -14.9470   15.0968 C   0  0  0  0  0  0  0  0  0  0  0  0
   11.7162  -14.8703   16.5382 C   0  0  0  0  0  0  0  0  0  0  0  0
   12.5585  -15.6928   17.4531 C   0  0  2  0  0  0  0  0  0  0  0  0
   12.1170  -17.0440   17.4933 N   0  0  0  0  0  0  0  0  0  0  0  0
   12.4101  -15.1120   18.8404 C   0  0  0  0  0  0  0  0  0  0  0  0
   13.1419  -14.1443   19.1881 O   0  0  0  0  0  0  0  0  0  0  0  0
    7.1345  -12.5833   16.9328 O   0  0  0  0  0  0  0  0  0  0  0  0
    7.8034  -13.1151   18.0216 C   0  0  0  0  0  0  0  0  0  0  0  0
    7.7696  -14.4978   18.2045 C   0  0  0  0  0  0  0  0  0  0  0  0
    8.4074  -15.0757   19.2672 C   0  0  0  0  0  0  0  0  0  0  0  0
    9.0927  -14.2862   20.1681 C   0  0  0  0  0  0  0  0  0  0  0  0
    9.7741  -14.9227   21.3036 C   0  0  0  0  0  0  0  0  0  0  0  0
   11.2790  -15.0127   21.0785 C   0  0  2  0  0  0  0  0  0  0  0  0
   11.4774  -15.6086   19.7733 N   0  0  0  0  0  0  0  0  0  0  0  0
   11.9384  -15.7706   22.1552 C   0  0  0  0  0  0  0  0  0  0  0  0
   11.7895  -15.5068   23.3828 O   0  0  0  0  0  0  0  0  0  0  0  0
    9.1416  -12.9104   20.0075 C   0  0  0  0  0  0  0  0  0  0  0  0
    8.5002  -12.3377   18.9393 C   0  0  0  0  0  0  0  0  0  0  0  0
   12.8113  -16.8832   21.9344 N   0  0  0  0  0  0  0  0  0  0  0  0
   13.4203  -17.6879   22.9072 C   0  0  1  0  0  0  0  0  0  0  0  0
   13.5091  -19.1543   22.6423 C   0  0  0  0  0  0  0  0  0  0  0  0
   12.1106  -19.6782   22.4859 C   0  0  0  0  0  0  0  0  0  0  0  0
   10.9709  -19.0885   23.0370 C   0  0  0  0  0  0  0  0  0  0  0  0
    9.8830  -19.7972   22.7112 N   0  0  0  0  0  0  0  0  0  0  0  0
   10.2992  -20.8099   21.9735 C   0  0  0  0  0  0  0  0  0  0  0  0
   11.6501  -20.7497   21.8281 N   0  0  0  0  0  0  0  0  0  0  0  0
   14.7452  -17.1678   23.2675 C   0  0  0  0  0  0  0  0  0  0  0  0
   15.4685  -17.6686   24.1824 O   0  0  0  0  0  0  0  0  0  0  0  0
   15.2604  -16.0758   22.5876 O   0  0  0  0  0  0  0  0  0  0  0  0
  1  2  1  0
  2  4  1  0
  2  3  2  0
  4  5  1  0
  6  7  1  1
  6  5  1  0
  8  6  1  0
  8  9  2  0
 10 11  1  0
 11 21  2  0
 11 12  1  0
 12 13  2  0
 13 14  1  0
 14 15  1  0
 16 15  1  1
 16 17  1  0
 17  8  1  0
 18 16  1  0
 19 18  2  0
 20 14  2  0
 21 20  1  0
 22 18  1  0
 23 22  1  0
 23 30  1  0
 23 24  1  6
 25 29  1  0
 25 24  1  0
 26 25  2  0
 27 26  1  0
 27 28  1  0
 28 29  2  0
 30 32  1  0
 31 30  2  0
M  END
$$$$
