QYH.pdb
     RDKit          3D

 32 33  0  0  1  0  0  0  0  0999 V2000
    9.0994  -15.0601   16.4935 N   0  0  0  0  0  0  0  0  0  0  0  0
    7.9650  -15.5524   17.2000 C   0  0  0  0  0  0  0  0  0  0  0  0
    6.8070  -15.3945   16.7356 O   0  0  0  0  0  0  0  0  0  0  0  0
    8.1788  -16.2442   18.4823 C   0  0  0  0  0  0  0  0  0  0  0  0
    9.5937  -16.4885   18.8363 C   0  0  0  0  0  0  0  0  0  0  0  0
    9.8470  -17.1518   20.1474 C   0  0  2  0  0  0  0  0  0  0  0  0
    8.8378  -18.1065   20.4514 N   0  0  0  0  0  0  0  0  0  0  0  0
    9.8063  -16.0760   21.2080 C   0  0  0  0  0  0  0  0  0  0  0  0
   10.6265  -15.1186   21.1506 O   0  0  0  0  0  0  0  0  0  0  0  0
    6.2154  -11.1253   27.5523 O   0  0  0  0  0  0  0  0  0  0  0  0
    6.4853  -11.9760   26.4942 C   0  0  0  0  0  0  0  0  0  0  0  0
    6.1790  -13.3290   26.6421 C   0  0  0  0  0  0  0  0  0  0  0  0
    6.4311  -14.2148   25.6312 C   0  0  0  0  0  0  0  0  0  0  0  0
    6.9925  -13.7686   24.4521 C   0  0  0  0  0  0  0  0  0  0  0  0
    7.2556  -14.7327   23.3751 C   0  0  0  0  0  0  0  0  0  0  0  0
    8.7468  -15.0052   23.2153 C   0  0  2  0  0  0  0  0  0  0  0  0
    8.8797  -16.0946   22.2701 N   0  0  0  0  0  0  0  0  0  0  0  0
    9.3810  -15.2975   24.5119 C   0  0  0  0  0  0  0  0  0  0  0  0
    9.3364  -14.5106   25.5006 O   0  0  0  0  0  0  0  0  0  0  0  0
    7.3049  -12.4291   24.2808 C   0  0  0  0  0  0  0  0  0  0  0  0
    7.0490  -11.5464   25.2985 C   0  0  0  0  0  0  0  0  0  0  0  0
   10.1095  -16.4963   24.7962 N   0  0  0  0  0  0  0  0  0  0  0  0
   10.6253  -16.8999   26.0355 C   0  0  1  0  0  0  0  0  0  0  0  0
    9.6637  -17.4092   27.0576 C   0  0  0  0  0  0  0  0  0  0  0  0
    9.9262  -16.6754   28.3410 C   0  0  0  0  0  0  0  0  0  0  0  0
   10.3879  -15.3603   28.4286 C   0  0  0  0  0  0  0  0  0  0  0  0
   10.5158  -15.0022   29.7121 N   0  0  0  0  0  0  0  0  0  0  0  0
   10.1490  -16.0453   30.4333 C   0  0  0  0  0  0  0  0  0  0  0  0
    9.7878  -17.0686   29.6134 N   0  0  0  0  0  0  0  0  0  0  0  0
   11.7209  -17.8618   25.8625 C   0  0  0  0  0  0  0  0  0  0  0  0
   12.4399  -18.2833   26.8198 O   0  0  0  0  0  0  0  0  0  0  0  0
   12.0058  -18.3555   24.5994 O   0  0  0  0  0  0  0  0  0  0  0  0
  1  2  1  0
  2  4  1  0
  2  3  2  0
  4  5  1  0
  6  7  1  1
  6  5  1  0
  8  6  1  0
  8  9  2  0
 10 11  1  0
 11 21  2  0
 11 12  1  0
 12 13  2  0
 13 14  1  0
 14 15  1  0
 16 15  1  1
 16 17  1  0
 17  8  1  0
 18 16  1  0
 19 18  2  0
 20 14  2  0
 21 20  1  0
 22 18  1  0
 23 22  1  0
 23 30  1  0
 23 24  1  1
 25 29  1  0
 25 24  1  0
 26 25  2  0
 27 26  1  0
 27 28  1  0
 28 29  2  0
 30 32  1  0
 31 30  2  0
M  END
$$$$
