QYH.pdb
     RDKit          3D

 32 33  0  0  1  0  0  0  0  0999 V2000
    8.0828  -15.0460   15.8812 N   0  0  0  0  0  0  0  0  0  0  0  0
    8.4112  -14.0816   16.8764 C   0  0  0  0  0  0  0  0  0  0  0  0
    8.5659  -12.8727   16.5660 O   0  0  0  0  0  0  0  0  0  0  0  0
    8.5679  -14.5316   18.2698 C   0  0  0  0  0  0  0  0  0  0  0  0
    9.7320  -15.4089   18.5197 C   0  0  0  0  0  0  0  0  0  0  0  0
    9.5521  -16.4782   19.5430 C   0  0  2  0  0  0  0  0  0  0  0  0
    8.2927  -17.1240   19.4054 N   0  0  0  0  0  0  0  0  0  0  0  0
    9.5886  -15.8107   20.8984 C   0  0  0  0  0  0  0  0  0  0  0  0
   10.6551  -15.2606   21.2892 O   0  0  0  0  0  0  0  0  0  0  0  0
    6.8427  -12.0176   28.3174 O   0  0  0  0  0  0  0  0  0  0  0  0
    6.9367  -12.5904   27.0609 C   0  0  0  0  0  0  0  0  0  0  0  0
    6.4077  -13.8683   26.8782 C   0  0  0  0  0  0  0  0  0  0  0  0
    6.4795  -14.4842   25.6593 C   0  0  0  0  0  0  0  0  0  0  0  0
    7.0789  -13.8372   24.5979 C   0  0  0  0  0  0  0  0  0  0  0  0
    7.1464  -14.5119   23.2945 C   0  0  0  0  0  0  0  0  0  0  0  0
    8.5053  -15.1643   23.0680 C   0  0  2  0  0  0  0  0  0  0  0  0
    8.4693  -15.7735   21.7544 N   0  0  0  0  0  0  0  0  0  0  0  0
    8.8212  -16.1303   24.1336 C   0  0  0  0  0  0  0  0  0  0  0  0
    8.1180  -17.1529   24.3757 O   0  0  0  0  0  0  0  0  0  0  0  0
    7.6110  -12.5670   24.7541 C   0  0  0  0  0  0  0  0  0  0  0  0
    7.5352  -11.9552   25.9790 C   0  0  0  0  0  0  0  0  0  0  0  0
    9.9518  -16.0222   25.0047 N   0  0  0  0  0  0  0  0  0  0  0  0
   10.3413  -16.9262   26.0027 C   0  0  1  0  0  0  0  0  0  0  0  0
   11.7066  -17.5224   25.9081 C   0  0  0  0  0  0  0  0  0  0  0  0
   11.7835  -18.2918   24.6209 C   0  0  0  0  0  0  0  0  0  0  0  0
   10.6954  -18.8909   23.9828 C   0  0  0  0  0  0  0  0  0  0  0  0
   11.0974  -19.4953   22.8580 N   0  0  0  0  0  0  0  0  0  0  0  0
   12.3992  -19.2952   22.7666 C   0  0  0  0  0  0  0  0  0  0  0  0
   12.8292  -18.5650   23.8304 N   0  0  0  0  0  0  0  0  0  0  0  0
   10.1418  -16.3533   27.3398 C   0  0  0  0  0  0  0  0  0  0  0  0
    9.7857  -15.1517   27.5404 O   0  0  0  0  0  0  0  0  0  0  0  0
   10.3421  -17.1437   28.4603 O   0  0  0  0  0  0  0  0  0  0  0  0
  1  2  1  0
  2  4  1  0
  2  3  2  0
  4  5  1  0
  6  7  1  6
  6  5  1  0
  8  6  1  0
  8  9  2  0
 10 11  1  0
 11 21  2  0
 11 12  1  0
 12 13  2  0
 13 14  1  0
 14 15  1  0
 16 15  1  1
 16 17  1  0
 17  8  1  0
 18 16  1  0
 19 18  2  0
 20 14  2  0
 21 20  1  0
 22 18  1  0
 23 22  1  0
 23 30  1  0
 23 24  1  6
 25 29  1  0
 25 24  1  0
 26 25  2  0
 27 26  1  0
 27 28  1  0
 28 29  2  0
 30 32  1  0
 31 30  2  0
M  END
$$$$
