QYH.pdb
     RDKit          3D

 32 33  0  0  1  0  0  0  0  0999 V2000
   17.4470  -17.9122   15.6892 N   0  0  0  0  0  0  0  0  0  0  0  0
   16.3610  -18.8080   15.9051 C   0  0  0  0  0  0  0  0  0  0  0  0
   16.0239  -19.1312   17.0728 O   0  0  0  0  0  0  0  0  0  0  0  0
   15.6482  -19.3469   14.7346 C   0  0  0  0  0  0  0  0  0  0  0  0
   14.2930  -18.7966   14.5160 C   0  0  0  0  0  0  0  0  0  0  0  0
   13.1757  -19.4739   15.2343 C   0  0  2  0  0  0  0  0  0  0  0  0
   12.0448  -19.6496   14.3901 N   0  0  0  0  0  0  0  0  0  0  0  0
   12.7688  -18.5740   16.3781 C   0  0  0  0  0  0  0  0  0  0  0  0
   12.0385  -17.5709   16.1472 O   0  0  0  0  0  0  0  0  0  0  0  0
   10.2658  -16.2238   24.3926 O   0  0  0  0  0  0  0  0  0  0  0  0
   10.6519  -16.8766   23.2348 C   0  0  0  0  0  0  0  0  0  0  0  0
   11.8154  -17.6456   23.2688 C   0  0  0  0  0  0  0  0  0  0  0  0
   12.2468  -18.3061   22.1519 C   0  0  0  0  0  0  0  0  0  0  0  0
   11.5255  -18.2141   20.9789 C   0  0  0  0  0  0  0  0  0  0  0  0
   12.0015  -18.9312   19.7881 C   0  0  0  0  0  0  0  0  0  0  0  0
   12.7225  -17.9996   18.8208 C   0  0  2  0  0  0  0  0  0  0  0  0
   13.1725  -18.8102   17.7079 N   0  0  0  0  0  0  0  0  0  0  0  0
   13.8252  -17.2848   19.4853 C   0  0  0  0  0  0  0  0  0  0  0  0
   14.6820  -17.8563   20.2187 O   0  0  0  0  0  0  0  0  0  0  0  0
   10.3659  -17.4572   20.9201 C   0  0  0  0  0  0  0  0  0  0  0  0
    9.9390  -16.7978   22.0441 C   0  0  0  0  0  0  0  0  0  0  0  0
   14.0501  -15.8756   19.3734 N   0  0  0  0  0  0  0  0  0  0  0  0
   14.3751  -14.9854   20.4062 C   0  0  1  0  0  0  0  0  0  0  0  0
   13.2682  -14.5037   21.2845 C   0  0  0  0  0  0  0  0  0  0  0  0
   12.1223  -14.1026   20.4009 C   0  0  0  0  0  0  0  0  0  0  0  0
   12.1236  -14.1819   19.0067 C   0  0  0  0  0  0  0  0  0  0  0  0
   10.9530  -13.7514   18.5204 N   0  0  0  0  0  0  0  0  0  0  0  0
   10.2163  -13.4065   19.5602 C   0  0  0  0  0  0  0  0  0  0  0  0
   10.9139  -13.6151   20.7090 N   0  0  0  0  0  0  0  0  0  0  0  0
   15.4695  -15.5120   21.2312 C   0  0  0  0  0  0  0  0  0  0  0  0
   15.9050  -16.7007   21.1402 O   0  0  0  0  0  0  0  0  0  0  0  0
   16.0806  -14.6896   22.1642 O   0  0  0  0  0  0  0  0  0  0  0  0
  1  2  1  0
  2  4  1  0
  2  3  2  0
  4  5  1  0
  6  7  1  6
  6  5  1  0
  8  6  1  0
  8  9  2  0
 10 11  1  0
 11 21  2  0
 11 12  1  0
 12 13  2  0
 13 14  1  0
 14 15  1  0
 16 15  1  1
 16 17  1  0
 17  8  1  0
 18 16  1  0
 19 18  2  0
 20 14  2  0
 21 20  1  0
 22 18  1  0
 23 22  1  0
 23 30  1  0
 23 24  1  1
 25 29  1  0
 25 24  1  0
 26 25  2  0
 27 26  1  0
 27 28  1  0
 28 29  2  0
 30 32  1  0
 31 30  2  0
M  END
$$$$
