QYH.pdb
     RDKit          3D

 32 33  0  0  1  0  0  0  0  0999 V2000
    8.1045  -21.9188   22.4767 N   0  0  0  0  0  0  0  0  0  0  0  0
    9.4019  -21.4030   22.7579 C   0  0  0  0  0  0  0  0  0  0  0  0
   10.1757  -22.0148   23.5380 O   0  0  0  0  0  0  0  0  0  0  0  0
    9.8125  -20.1411   22.1195 C   0  0  0  0  0  0  0  0  0  0  0  0
    8.7795  -19.4964   21.2801 C   0  0  0  0  0  0  0  0  0  0  0  0
    9.1952  -18.2739   20.5347 C   0  0  2  0  0  0  0  0  0  0  0  0
   10.3660  -18.5080   19.7621 N   0  0  0  0  0  0  0  0  0  0  0  0
    9.5180  -17.2125   21.5610 C   0  0  0  0  0  0  0  0  0  0  0  0
   10.7212  -17.0066   21.8814 O   0  0  0  0  0  0  0  0  0  0  0  0
    7.2327  -12.8905   17.4693 O   0  0  0  0  0  0  0  0  0  0  0  0
    7.3195  -13.2593   18.8006 C   0  0  0  0  0  0  0  0  0  0  0  0
    8.3385  -12.7019   19.5735 C   0  0  0  0  0  0  0  0  0  0  0  0
    8.4748  -13.0364   20.8924 C   0  0  0  0  0  0  0  0  0  0  0  0
    7.5966  -13.9324   21.4673 C   0  0  0  0  0  0  0  0  0  0  0  0
    7.7555  -14.2801   22.8859 C   0  0  0  0  0  0  0  0  0  0  0  0
    8.8280  -15.3442   23.0880 C   0  0  2  0  0  0  0  0  0  0  0  0
    8.5219  -16.4319   22.1818 N   0  0  0  0  0  0  0  0  0  0  0  0
    8.8958  -15.7778   24.4937 C   0  0  0  0  0  0  0  0  0  0  0  0
    9.0244  -14.9763   25.4630 O   0  0  0  0  0  0  0  0  0  0  0  0
    6.5755  -14.4990   20.7206 C   0  0  0  0  0  0  0  0  0  0  0  0
    6.4445  -14.1587   19.3987 C   0  0  0  0  0  0  0  0  0  0  0  0
    8.8207  -17.1434   24.9162 N   0  0  0  0  0  0  0  0  0  0  0  0
    8.8705  -17.6268   26.2310 C   0  0  1  0  0  0  0  0  0  0  0  0
    7.7309  -18.4645   26.7086 C   0  0  0  0  0  0  0  0  0  0  0  0
    7.5568  -19.5985   25.7399 C   0  0  0  0  0  0  0  0  0  0  0  0
    8.2763  -19.7518   24.5528 C   0  0  0  0  0  0  0  0  0  0  0  0
    7.8863  -20.8646   23.9191 N   0  0  0  0  0  0  0  0  0  0  0  0
    6.9488  -21.4162   24.6672 C   0  0  0  0  0  0  0  0  0  0  0  0
    6.7390  -20.6580   25.7767 N   0  0  0  0  0  0  0  0  0  0  0  0
   10.1385  -18.3202   26.4901 C   0  0  0  0  0  0  0  0  0  0  0  0
   11.0297  -18.5030   25.6050 O   0  0  0  0  0  0  0  0  0  0  0  0
   10.4052  -18.8084   27.7592 O   0  0  0  0  0  0  0  0  0  0  0  0
  1  2  1  0
  2  4  1  0
  2  3  2  0
  4  5  1  0
  6  7  1  1
  6  5  1  0
  8  6  1  0
  8  9  2  0
 10 11  1  0
 11 21  2  0
 11 12  1  0
 12 13  2  0
 13 14  1  0
 14 15  1  0
 16 15  1  1
 16 17  1  0
 17  8  1  0
 18 16  1  0
 19 18  2  0
 20 14  2  0
 21 20  1  0
 22 18  1  0
 23 22  1  0
 23 30  1  0
 23 24  1  6
 25 29  1  0
 25 24  1  0
 26 25  2  0
 27 26  1  0
 27 28  1  0
 28 29  2  0
 30 32  1  0
 31 30  2  0
M  END
$$$$
