QYH.pdb
     RDKit          3D

 32 33  0  0  1  0  0  0  0  0999 V2000
    7.7021  -20.3280   19.4883 N   0  0  0  0  0  0  0  0  0  0  0  0
    8.8916  -20.3108   18.7053 C   0  0  0  0  0  0  0  0  0  0  0  0
    9.0876  -21.1866   17.8243 O   0  0  0  0  0  0  0  0  0  0  0  0
    9.8833  -19.2506   18.9528 C   0  0  0  0  0  0  0  0  0  0  0  0
    9.5539  -18.3283   20.0610 C   0  0  0  0  0  0  0  0  0  0  0  0
    9.6653  -16.8705   19.7693 C   0  0  2  0  0  0  0  0  0  0  0  0
   10.8527  -16.5737   19.0451 N   0  0  0  0  0  0  0  0  0  0  0  0
    9.7371  -16.1529   21.0974 C   0  0  0  0  0  0  0  0  0  0  0  0
   10.8500  -16.0429   21.6824 O   0  0  0  0  0  0  0  0  0  0  0  0
    7.0254  -11.9161   28.3319 O   0  0  0  0  0  0  0  0  0  0  0  0
    7.0731  -12.5350   27.0948 C   0  0  0  0  0  0  0  0  0  0  0  0
    7.8132  -11.9254   26.0813 C   0  0  0  0  0  0  0  0  0  0  0  0
    7.8886  -12.4898   24.8381 C   0  0  0  0  0  0  0  0  0  0  0  0
    7.2286  -13.6742   24.5810 C   0  0  0  0  0  0  0  0  0  0  0  0
    7.3210  -14.2686   23.2406 C   0  0  0  0  0  0  0  0  0  0  0  0
    8.6396  -15.0070   23.0419 C   0  0  2  0  0  0  0  0  0  0  0  0
    8.6020  -15.5927   21.7177 N   0  0  0  0  0  0  0  0  0  0  0  0
    8.8590  -16.0078   24.0997 C   0  0  0  0  0  0  0  0  0  0  0  0
    8.1185  -17.0194   24.2639 O   0  0  0  0  0  0  0  0  0  0  0  0
    6.4877  -14.2995   25.5716 C   0  0  0  0  0  0  0  0  0  0  0  0
    6.4167  -13.7281   26.8161 C   0  0  0  0  0  0  0  0  0  0  0  0
    9.9280  -15.9494   25.0498 N   0  0  0  0  0  0  0  0  0  0  0  0
   10.1952  -16.8606   26.0808 C   0  0  1  0  0  0  0  0  0  0  0  0
   11.4149  -17.7126   25.9586 C   0  0  0  0  0  0  0  0  0  0  0  0
   11.1126  -18.8095   24.9786 C   0  0  0  0  0  0  0  0  0  0  0  0
    9.8881  -18.9859   24.3307 C   0  0  0  0  0  0  0  0  0  0  0  0
    9.9450  -20.0510   23.5218 N   0  0  0  0  0  0  0  0  0  0  0  0
   11.1626  -20.5482   23.6375 C   0  0  0  0  0  0  0  0  0  0  0  0
   11.8828  -19.8035   24.5187 N   0  0  0  0  0  0  0  0  0  0  0  0
   10.1847  -16.1943   27.3891 C   0  0  0  0  0  0  0  0  0  0  0  0
   10.0274  -14.9435   27.5362 O   0  0  0  0  0  0  0  0  0  0  0  0
   10.3494  -16.9457   28.5417 O   0  0  0  0  0  0  0  0  0  0  0  0
  1  2  1  0
  2  4  1  0
  2  3  2  0
  4  5  1  0
  6  7  1  6
  6  5  1  0
  8  6  1  0
  8  9  2  0
 10 11  1  0
 11 21  2  0
 11 12  1  0
 12 13  2  0
 13 14  1  0
 14 15  1  0
 16 15  1  1
 16 17  1  0
 17  8  1  0
 18 16  1  0
 19 18  2  0
 20 14  2  0
 21 20  1  0
 22 18  1  0
 23 22  1  0
 23 30  1  0
 23 24  1  6
 25 29  1  0
 25 24  1  0
 26 25  2  0
 27 26  1  0
 27 28  1  0
 28 29  2  0
 30 32  1  0
 31 30  2  0
M  END
$$$$
