QYH.pdb
     RDKit          3D

 32 33  0  0  1  0  0  0  0  0999 V2000
    8.2266  -13.0219   16.6388 N   0  0  0  0  0  0  0  0  0  0  0  0
    7.8310  -14.3668   16.3882 C   0  0  0  0  0  0  0  0  0  0  0  0
    7.2178  -14.6645   15.3314 O   0  0  0  0  0  0  0  0  0  0  0  0
    8.1522  -15.3949   17.3924 C   0  0  0  0  0  0  0  0  0  0  0  0
    8.8753  -14.9039   18.5854 C   0  0  0  0  0  0  0  0  0  0  0  0
    9.2105  -15.9186   19.6251 C   0  0  2  0  0  0  0  0  0  0  0  0
    8.1983  -16.9122   19.7284 N   0  0  0  0  0  0  0  0  0  0  0  0
    9.2892  -15.1933   20.9486 C   0  0  0  0  0  0  0  0  0  0  0  0
   10.1424  -14.2762   21.1024 O   0  0  0  0  0  0  0  0  0  0  0  0
    6.7726  -11.9958   28.7288 O   0  0  0  0  0  0  0  0  0  0  0  0
    6.8625  -12.5867   27.4804 C   0  0  0  0  0  0  0  0  0  0  0  0
    6.3149  -13.8589   27.3128 C   0  0  0  0  0  0  0  0  0  0  0  0
    6.3818  -14.4921   26.1026 C   0  0  0  0  0  0  0  0  0  0  0  0
    6.9949  -13.8686   25.0350 C   0  0  0  0  0  0  0  0  0  0  0  0
    7.0570  -14.5617   23.7409 C   0  0  0  0  0  0  0  0  0  0  0  0
    8.4960  -14.7961   23.2963 C   0  0  2  0  0  0  0  0  0  0  0  0
    8.4395  -15.4989   22.0311 N   0  0  0  0  0  0  0  0  0  0  0  0
    9.2613  -15.5285   24.3193 C   0  0  0  0  0  0  0  0  0  0  0  0
    9.5315  -15.0520   25.4589 O   0  0  0  0  0  0  0  0  0  0  0  0
    7.5456  -12.6045   25.1762 C   0  0  0  0  0  0  0  0  0  0  0  0
    7.4746  -11.9753   26.3925 C   0  0  0  0  0  0  0  0  0  0  0  0
    9.7774  -16.8515   24.1406 N   0  0  0  0  0  0  0  0  0  0  0  0
   10.5536  -17.5872   25.0467 C   0  0  1  0  0  0  0  0  0  0  0  0
   11.9848  -17.1972   25.2148 C   0  0  0  0  0  0  0  0  0  0  0  0
   12.5659  -16.9823   23.8470 C   0  0  0  0  0  0  0  0  0  0  0  0
   11.8370  -17.0129   22.6562 C   0  0  0  0  0  0  0  0  0  0  0  0
   12.6466  -16.7820   21.6153 N   0  0  0  0  0  0  0  0  0  0  0  0
   13.8575  -16.6056   22.1108 C   0  0  0  0  0  0  0  0  0  0  0  0
   13.8230  -16.7239   23.4653 N   0  0  0  0  0  0  0  0  0  0  0  0
    9.9021  -17.6611   26.3603 C   0  0  0  0  0  0  0  0  0  0  0  0
    8.8031  -17.0861   26.6298 O   0  0  0  0  0  0  0  0  0  0  0  0
   10.4933  -18.3928   27.3778 O   0  0  0  0  0  0  0  0  0  0  0  0
  1  2  1  0
  2  4  1  0
  2  3  2  0
  4  5  1  0
  6  7  1  1
  6  5  1  0
  8  6  1  0
  8  9  2  0
 10 11  1  0
 11 21  2  0
 11 12  1  0
 12 13  2  0
 13 14  1  0
 14 15  1  0
 16 15  1  1
 16 17  1  0
 17  8  1  0
 18 16  1  0
 19 18  2  0
 20 14  2  0
 21 20  1  0
 22 18  1  0
 23 22  1  0
 23 30  1  0
 23 24  1  1
 25 29  1  0
 25 24  1  0
 26 25  2  0
 27 26  1  0
 27 28  1  0
 28 29  2  0
 30 32  1  0
 31 30  2  0
M  END
$$$$
