QYH.pdb
     RDKit          3D

 32 33  0  0  1  0  0  0  0  0999 V2000
    5.4189  -18.2563   20.8144 N   0  0  0  0  0  0  0  0  0  0  0  0
    6.4670  -19.1008   20.3491 C   0  0  0  0  0  0  0  0  0  0  0  0
    6.7293  -20.1776   20.9436 O   0  0  0  0  0  0  0  0  0  0  0  0
    7.2347  -18.6839   19.1636 C   0  0  0  0  0  0  0  0  0  0  0  0
    8.6223  -18.2499   19.4343 C   0  0  0  0  0  0  0  0  0  0  0  0
    8.9355  -16.8167   19.1678 C   0  0  2  0  0  0  0  0  0  0  0  0
   10.1429  -16.6762   18.4298 N   0  0  0  0  0  0  0  0  0  0  0  0
    9.1267  -16.1442   20.5077 C   0  0  0  0  0  0  0  0  0  0  0  0
   10.2552  -16.1948   21.0705 O   0  0  0  0  0  0  0  0  0  0  0  0
    6.9588  -11.9620   27.9629 O   0  0  0  0  0  0  0  0  0  0  0  0
    7.0278  -12.3938   26.6497 C   0  0  0  0  0  0  0  0  0  0  0  0
    6.3235  -13.5453   26.2969 C   0  0  0  0  0  0  0  0  0  0  0  0
    6.3622  -14.0203   25.0152 C   0  0  0  0  0  0  0  0  0  0  0  0
    7.1029  -13.3555   24.0592 C   0  0  0  0  0  0  0  0  0  0  0  0
    7.1327  -13.8777   22.6862 C   0  0  0  0  0  0  0  0  0  0  0  0
    8.2159  -14.9355   22.5097 C   0  0  2  0  0  0  0  0  0  0  0  0
    8.0876  -15.4529   21.1629 N   0  0  0  0  0  0  0  0  0  0  0  0
    8.1110  -15.9875   23.5348 C   0  0  0  0  0  0  0  0  0  0  0  0
    7.2362  -16.9000   23.5073 O   0  0  0  0  0  0  0  0  0  0  0  0
    7.8103  -12.2089   24.3847 C   0  0  0  0  0  0  0  0  0  0  0  0
    7.7667  -11.7380   25.6719 C   0  0  0  0  0  0  0  0  0  0  0  0
    8.9824  -16.0955   24.6652 N   0  0  0  0  0  0  0  0  0  0  0  0
    9.6643  -17.2395   25.1024 C   0  0  1  0  0  0  0  0  0  0  0  0
   10.5250  -17.9569   24.1158 C   0  0  0  0  0  0  0  0  0  0  0  0
   10.9901  -19.2335   24.7550 C   0  0  0  0  0  0  0  0  0  0  0  0
   10.6190  -19.6700   26.0286 C   0  0  0  0  0  0  0  0  0  0  0  0
   11.2020  -20.8439   26.3005 N   0  0  0  0  0  0  0  0  0  0  0  0
   11.9244  -21.1608   25.2419 C   0  0  0  0  0  0  0  0  0  0  0  0
   11.8044  -20.1917   24.2951 N   0  0  0  0  0  0  0  0  0  0  0  0
   10.4336  -16.9610   26.3215 C   0  0  0  0  0  0  0  0  0  0  0  0
   10.3190  -17.6353   27.3907 O   0  0  0  0  0  0  0  0  0  0  0  0
   11.3425  -15.9151   26.3338 O   0  0  0  0  0  0  0  0  0  0  0  0
  1  2  1  0
  2  4  1  0
  2  3  2  0
  4  5  1  0
  6  7  1  6
  6  5  1  0
  8  6  1  0
  8  9  2  0
 10 11  1  0
 11 21  2  0
 11 12  1  0
 12 13  2  0
 13 14  1  0
 14 15  1  0
 16 15  1  1
 16 17  1  0
 17  8  1  0
 18 16  1  0
 19 18  2  0
 20 14  2  0
 21 20  1  0
 22 18  1  0
 23 22  1  0
 23 30  1  0
 23 24  1  6
 25 29  1  0
 25 24  1  0
 26 25  2  0
 27 26  1  0
 27 28  1  0
 28 29  2  0
 30 32  1  0
 31 30  2  0
M  END
$$$$
