QYH.pdb
     RDKit          3D

 32 33  0  0  1  0  0  0  0  0999 V2000
    7.0854  -19.5434   20.4789 N   0  0  0  0  0  0  0  0  0  0  0  0
    7.8364  -20.1463   19.4297 C   0  0  0  0  0  0  0  0  0  0  0  0
    7.2833  -20.9365   18.6226 O   0  0  0  0  0  0  0  0  0  0  0  0
    9.2694  -19.8268   19.3148 C   0  0  0  0  0  0  0  0  0  0  0  0
    9.7685  -18.8225   20.2788 C   0  0  0  0  0  0  0  0  0  0  0  0
    9.6700  -17.3941   19.8630 C   0  0  2  0  0  0  0  0  0  0  0  0
   10.7599  -17.0179   19.0305 N   0  0  0  0  0  0  0  0  0  0  0  0
    9.7322  -16.5572   21.1198 C   0  0  0  0  0  0  0  0  0  0  0  0
   10.8547  -16.2915   21.6319 O   0  0  0  0  0  0  0  0  0  0  0  0
    7.0810  -11.4035   27.7432 O   0  0  0  0  0  0  0  0  0  0  0  0
    7.1099  -12.2165   26.6234 C   0  0  0  0  0  0  0  0  0  0  0  0
    7.7897  -11.7588   25.4943 C   0  0  0  0  0  0  0  0  0  0  0  0
    7.8439  -12.5183   24.3584 C   0  0  0  0  0  0  0  0  0  0  0  0
    7.2225  -13.7501   24.3263 C   0  0  0  0  0  0  0  0  0  0  0  0
    7.2915  -14.5546   23.0988 C   0  0  0  0  0  0  0  0  0  0  0  0
    8.6260  -15.2810   22.9761 C   0  0  2  0  0  0  0  0  0  0  0  0
    8.5774  -16.0526   21.7513 N   0  0  0  0  0  0  0  0  0  0  0  0
    8.8954  -16.1126   24.1612 C   0  0  0  0  0  0  0  0  0  0  0  0
    8.1367  -17.0508   24.5390 O   0  0  0  0  0  0  0  0  0  0  0  0
    6.5418  -14.2271   25.4354 C   0  0  0  0  0  0  0  0  0  0  0  0
    6.4918  -13.4604   26.5712 C   0  0  0  0  0  0  0  0  0  0  0  0
   10.0382  -15.9551   25.0085 N   0  0  0  0  0  0  0  0  0  0  0  0
   10.3870  -16.7422   26.1147 C   0  0  1  0  0  0  0  0  0  0  0  0
   11.8080  -17.1837   26.2350 C   0  0  0  0  0  0  0  0  0  0  0  0
   12.0602  -18.2142   25.1724 C   0  0  0  0  0  0  0  0  0  0  0  0
   11.0788  -18.7647   24.3453 C   0  0  0  0  0  0  0  0  0  0  0  0
   11.6288  -19.6503   23.5056 N   0  0  0  0  0  0  0  0  0  0  0  0
   12.9210  -19.6738   23.7750 C   0  0  0  0  0  0  0  0  0  0  0  0
   13.1972  -18.8059   24.7850 N   0  0  0  0  0  0  0  0  0  0  0  0
    9.9561  -16.1103   27.3681 C   0  0  0  0  0  0  0  0  0  0  0  0
   10.0672  -16.6635   28.5050 O   0  0  0  0  0  0  0  0  0  0  0  0
    9.3985  -14.8421   27.3392 O   0  0  0  0  0  0  0  0  0  0  0  0
  1  2  1  0
  2  4  1  0
  2  3  2  0
  4  5  1  0
  6  7  1  6
  6  5  1  0
  8  6  1  0
  8  9  2  0
 10 11  1  0
 11 21  2  0
 11 12  1  0
 12 13  2  0
 13 14  1  0
 14 15  1  0
 16 15  1  1
 16 17  1  0
 17  8  1  0
 18 16  1  0
 19 18  2  0
 20 14  2  0
 21 20  1  0
 22 18  1  0
 23 22  1  0
 23 30  1  0
 23 24  1  1
 25 29  1  0
 25 24  1  0
 26 25  2  0
 27 26  1  0
 27 28  1  0
 28 29  2  0
 30 32  1  0
 31 30  2  0
M  END
$$$$
