QYH.pdb
     RDKit          3D

 32 33  0  0  1  0  0  0  0  0999 V2000
    8.8030  -18.0299   15.0259 N   0  0  0  0  0  0  0  0  0  0  0  0
    9.4176  -16.9209   15.6745 C   0  0  0  0  0  0  0  0  0  0  0  0
   10.3940  -16.3327   15.1432 O   0  0  0  0  0  0  0  0  0  0  0  0
    8.8877  -16.4837   16.9771 C   0  0  0  0  0  0  0  0  0  0  0  0
    9.7940  -16.6938   18.1267 C   0  0  0  0  0  0  0  0  0  0  0  0
    9.2307  -17.4341   19.2918 C   0  0  2  0  0  0  0  0  0  0  0  0
    7.8515  -17.7264   19.1055 N   0  0  0  0  0  0  0  0  0  0  0  0
    9.3579  -16.5328   20.4982 C   0  0  0  0  0  0  0  0  0  0  0  0
   10.4987  -16.1188   20.8444 O   0  0  0  0  0  0  0  0  0  0  0  0
    7.0563  -11.8901   27.6226 O   0  0  0  0  0  0  0  0  0  0  0  0
    7.0905  -12.5268   26.3941 C   0  0  0  0  0  0  0  0  0  0  0  0
    6.3644  -13.7086   26.2442 C   0  0  0  0  0  0  0  0  0  0  0  0
    6.3684  -14.3825   25.0543 C   0  0  0  0  0  0  0  0  0  0  0  0
    7.0955  -13.8903   23.9895 C   0  0  0  0  0  0  0  0  0  0  0  0
    7.0881  -14.6253   22.7173 C   0  0  0  0  0  0  0  0  0  0  0  0
    8.3697  -15.4274   22.5231 C   0  0  2  0  0  0  0  0  0  0  0  0
    8.2441  -16.1278   21.2615 N   0  0  0  0  0  0  0  0  0  0  0  0
    8.6108  -16.3366   23.6561 C   0  0  0  0  0  0  0  0  0  0  0  0
    7.8137  -17.2603   23.9879 O   0  0  0  0  0  0  0  0  0  0  0  0
    7.8241  -12.7178   24.1133 C   0  0  0  0  0  0  0  0  0  0  0  0
    7.8152  -12.0470   25.3093 C   0  0  0  0  0  0  0  0  0  0  0  0
    9.7662  -16.2788   24.4990 N   0  0  0  0  0  0  0  0  0  0  0  0
   10.1085  -17.1663   25.5285 C   0  0  1  0  0  0  0  0  0  0  0  0
   11.4093  -17.8905   25.4199 C   0  0  0  0  0  0  0  0  0  0  0  0
   11.3514  -18.7575   24.1953 C   0  0  0  0  0  0  0  0  0  0  0  0
   10.2533  -18.8560   23.3382 C   0  0  0  0  0  0  0  0  0  0  0  0
   10.5221  -19.7093   22.3424 N   0  0  0  0  0  0  0  0  0  0  0  0
   11.7509  -20.1484   22.5429 C   0  0  0  0  0  0  0  0  0  0  0  0
   12.2669  -19.5780   23.6646 N   0  0  0  0  0  0  0  0  0  0  0  0
   10.0118  -16.5143   26.8405 C   0  0  0  0  0  0  0  0  0  0  0  0
   10.1699  -17.1279   27.9403 O   0  0  0  0  0  0  0  0  0  0  0  0
    9.7382  -15.1578   26.9126 O   0  0  0  0  0  0  0  0  0  0  0  0
  1  2  1  0
  2  4  1  0
  2  3  2  0
  4  5  1  0
  6  7  1  6
  6  5  1  0
  8  6  1  0
  8  9  2  0
 10 11  1  0
 11 21  2  0
 11 12  1  0
 12 13  2  0
 13 14  1  0
 14 15  1  0
 16 15  1  1
 16 17  1  0
 17  8  1  0
 18 16  1  0
 19 18  2  0
 20 14  2  0
 21 20  1  0
 22 18  1  0
 23 22  1  0
 23 30  1  0
 23 24  1  6
 25 29  1  0
 25 24  1  0
 26 25  2  0
 27 26  1  0
 27 28  1  0
 28 29  2  0
 30 32  1  0
 31 30  2  0
M  END
$$$$
