QYH.pdb
     RDKit          3D

 32 33  0  0  1  0  0  0  0  0999 V2000
    9.3430  -14.1343   15.6380 N   0  0  0  0  0  0  0  0  0  0  0  0
    8.3195  -15.1087   15.8146 C   0  0  0  0  0  0  0  0  0  0  0  0
    7.7789  -15.6532   14.8182 O   0  0  0  0  0  0  0  0  0  0  0  0
    7.9087  -15.4592   17.1847 C   0  0  0  0  0  0  0  0  0  0  0  0
    8.6555  -14.7715   18.2600 C   0  0  0  0  0  0  0  0  0  0  0  0
    9.1863  -15.6310   19.3566 C   0  0  2  0  0  0  0  0  0  0  0  0
    8.3497  -16.7579   19.5862 N   0  0  0  0  0  0  0  0  0  0  0  0
    9.1975  -14.7942   20.6150 C   0  0  0  0  0  0  0  0  0  0  0  0
    9.9343  -13.7711   20.6717 O   0  0  0  0  0  0  0  0  0  0  0  0
    6.6084  -11.4708   28.3322 O   0  0  0  0  0  0  0  0  0  0  0  0
    6.7209  -12.1266   27.1185 C   0  0  0  0  0  0  0  0  0  0  0  0
    6.3046  -13.4563   27.0471 C   0  0  0  0  0  0  0  0  0  0  0  0
    6.3998  -14.1540   25.8749 C   0  0  0  0  0  0  0  0  0  0  0  0
    6.9108  -13.5392   24.7500 C   0  0  0  0  0  0  0  0  0  0  0  0
    7.0048  -14.3021   23.4979 C   0  0  0  0  0  0  0  0  0  0  0  0
    8.4300  -14.3239   22.9577 C   0  0  2  0  0  0  0  0  0  0  0  0
    8.4100  -15.1093   21.7409 N   0  0  0  0  0  0  0  0  0  0  0  0
    9.3750  -14.8494   23.9575 C   0  0  0  0  0  0  0  0  0  0  0  0
    9.7800  -14.1796   24.9505 O   0  0  0  0  0  0  0  0  0  0  0  0
    7.3301  -12.2189   24.7954 C   0  0  0  0  0  0  0  0  0  0  0  0
    7.2314  -11.5251   25.9741 C   0  0  0  0  0  0  0  0  0  0  0  0
    9.9330  -16.1669   23.9189 N   0  0  0  0  0  0  0  0  0  0  0  0
   10.5561  -16.8537   24.9701 C   0  0  1  0  0  0  0  0  0  0  0  0
    9.7509  -17.1278   26.1969 C   0  0  0  0  0  0  0  0  0  0  0  0
   10.1005  -16.0843   27.2184 C   0  0  0  0  0  0  0  0  0  0  0  0
   10.8627  -14.9421   26.9641 C   0  0  0  0  0  0  0  0  0  0  0  0
   10.9903  -14.2160   28.0814 N   0  0  0  0  0  0  0  0  0  0  0  0
   10.3335  -14.8611   29.0277 C   0  0  0  0  0  0  0  0  0  0  0  0
    9.7875  -15.9973   28.5174 N   0  0  0  0  0  0  0  0  0  0  0  0
   11.1740  -18.0976   24.4941 C   0  0  0  0  0  0  0  0  0  0  0  0
   10.9831  -18.5743   23.3334 O   0  0  0  0  0  0  0  0  0  0  0  0
   12.0174  -18.8080   25.3332 O   0  0  0  0  0  0  0  0  0  0  0  0
  1  2  1  0
  2  4  1  0
  2  3  2  0
  4  5  1  0
  6  7  1  1
  6  5  1  0
  8  6  1  0
  8  9  2  0
 10 11  1  0
 11 21  2  0
 11 12  1  0
 12 13  2  0
 13 14  1  0
 14 15  1  0
 16 15  1  1
 16 17  1  0
 17  8  1  0
 18 16  1  0
 19 18  2  0
 20 14  2  0
 21 20  1  0
 22 18  1  0
 23 22  1  0
 23 30  1  0
 23 24  1  1
 25 29  1  0
 25 24  1  0
 26 25  2  0
 27 26  1  0
 27 28  1  0
 28 29  2  0
 30 32  1  0
 31 30  2  0
M  END
$$$$
