QYH.pdb
     RDKit          3D

 32 33  0  0  1  0  0  0  0  0999 V2000
   10.9325  -18.7314   17.2917 N   0  0  0  0  0  0  0  0  0  0  0  0
   11.9580  -17.8114   17.6524 C   0  0  0  0  0  0  0  0  0  0  0  0
   13.0682  -17.8307   17.0620 O   0  0  0  0  0  0  0  0  0  0  0  0
   11.6903  -16.8441   18.7301 C   0  0  0  0  0  0  0  0  0  0  0  0
   10.3620  -16.9667   19.3688 C   0  0  0  0  0  0  0  0  0  0  0  0
   10.3190  -17.6612   20.6874 C   0  0  2  0  0  0  0  0  0  0  0  0
    9.2083  -18.5450   20.7743 N   0  0  0  0  0  0  0  0  0  0  0  0
   10.1528  -16.5974   21.7479 C   0  0  0  0  0  0  0  0  0  0  0  0
   11.1209  -15.8330   22.0152 O   0  0  0  0  0  0  0  0  0  0  0  0
    6.2211  -11.1631   27.4402 O   0  0  0  0  0  0  0  0  0  0  0  0
    6.5237  -12.0583   26.4289 C   0  0  0  0  0  0  0  0  0  0  0  0
    5.9605  -13.3334   26.4874 C   0  0  0  0  0  0  0  0  0  0  0  0
    6.2311  -14.2596   25.5185 C   0  0  0  0  0  0  0  0  0  0  0  0
    7.0677  -13.9323   24.4709 C   0  0  0  0  0  0  0  0  0  0  0  0
    7.3471  -14.9382   23.4371 C   0  0  0  0  0  0  0  0  0  0  0  0
    8.7912  -15.4220   23.4980 C   0  0  2  0  0  0  0  0  0  0  0  0
    8.9486  -16.4181   22.4584 N   0  0  0  0  0  0  0  0  0  0  0  0
    9.1283  -15.9384   24.8353 C   0  0  0  0  0  0  0  0  0  0  0  0
    9.2268  -15.2038   25.8596 O   0  0  0  0  0  0  0  0  0  0  0  0
    7.6387  -12.6719   24.3900 C   0  0  0  0  0  0  0  0  0  0  0  0
    7.3626  -11.7479   25.3649 C   0  0  0  0  0  0  0  0  0  0  0  0
    9.3765  -17.3185   25.1230 N   0  0  0  0  0  0  0  0  0  0  0  0
    9.7554  -17.8719   26.3538 C   0  0  1  0  0  0  0  0  0  0  0  0
    9.5193  -19.3310   26.5636 C   0  0  0  0  0  0  0  0  0  0  0  0
    8.1136  -19.6354   26.1322 C   0  0  0  0  0  0  0  0  0  0  0  0
    7.1517  -18.6754   25.8106 C   0  0  0  0  0  0  0  0  0  0  0  0
    6.0045  -19.2719   25.4637 N   0  0  0  0  0  0  0  0  0  0  0  0
    6.2130  -20.5724   25.5542 C   0  0  0  0  0  0  0  0  0  0  0  0
    7.4900  -20.8075   25.9587 N   0  0  0  0  0  0  0  0  0  0  0  0
   11.1509  -17.5446   26.6717 C   0  0  0  0  0  0  0  0  0  0  0  0
   11.9085  -16.8833   25.8973 O   0  0  0  0  0  0  0  0  0  0  0  0
   11.6955  -17.9635   27.8751 O   0  0  0  0  0  0  0  0  0  0  0  0
  1  2  1  0
  2  4  1  0
  2  3  2  0
  4  5  1  0
  6  7  1  6
  6  5  1  0
  8  6  1  0
  8  9  2  0
 10 11  1  0
 11 21  2  0
 11 12  1  0
 12 13  2  0
 13 14  1  0
 14 15  1  0
 16 15  1  1
 16 17  1  0
 17  8  1  0
 18 16  1  0
 19 18  2  0
 20 14  2  0
 21 20  1  0
 22 18  1  0
 23 22  1  0
 23 30  1  0
 23 24  1  6
 25 29  1  0
 25 24  1  0
 26 25  2  0
 27 26  1  0
 27 28  1  0
 28 29  2  0
 30 32  1  0
 31 30  2  0
M  END
$$$$
