QYH.pdb
     RDKit          3D

 32 33  0  0  1  0  0  0  0  0999 V2000
   10.9913  -15.5722   16.7504 N   0  0  0  0  0  0  0  0  0  0  0  0
   10.6869  -16.9632   16.7250 C   0  0  0  0  0  0  0  0  0  0  0  0
   10.5234  -17.5600   15.6302 O   0  0  0  0  0  0  0  0  0  0  0  0
   10.5652  -17.6818   18.0046 C   0  0  0  0  0  0  0  0  0  0  0  0
   10.8251  -16.8660   19.2105 C   0  0  0  0  0  0  0  0  0  0  0  0
   10.6933  -17.5590   20.5241 C   0  0  2  0  0  0  0  0  0  0  0  0
    9.5668  -18.4268   20.5442 N   0  0  0  0  0  0  0  0  0  0  0  0
   10.4792  -16.4922   21.5729 C   0  0  0  0  0  0  0  0  0  0  0  0
   11.4028  -15.6666   21.8139 O   0  0  0  0  0  0  0  0  0  0  0  0
    7.4904  -13.0912   17.4821 O   0  0  0  0  0  0  0  0  0  0  0  0
    7.5694  -13.4504   18.8165 C   0  0  0  0  0  0  0  0  0  0  0  0
    6.8674  -14.5802   19.2373 C   0  0  0  0  0  0  0  0  0  0  0  0
    6.9046  -14.9762   20.5456 C   0  0  0  0  0  0  0  0  0  0  0  0
    7.6441  -14.2542   21.4602 C   0  0  0  0  0  0  0  0  0  0  0  0
    7.6752  -14.6939   22.8618 C   0  0  0  0  0  0  0  0  0  0  0  0
    9.0251  -15.2968   23.2328 C   0  0  2  0  0  0  0  0  0  0  0  0
    9.2776  -16.3764   22.3008 N   0  0  0  0  0  0  0  0  0  0  0  0
    9.0469  -15.7413   24.6365 C   0  0  0  0  0  0  0  0  0  0  0  0
    8.0580  -15.6296   25.4165 O   0  0  0  0  0  0  0  0  0  0  0  0
    8.3508  -13.1288   21.0665 C   0  0  0  0  0  0  0  0  0  0  0  0
    8.3093  -12.7377   19.7528 C   0  0  0  0  0  0  0  0  0  0  0  0
   10.1792  -16.3473   25.2684 N   0  0  0  0  0  0  0  0  0  0  0  0
   10.1930  -17.5184   26.0386 C   0  0  1  0  0  0  0  0  0  0  0  0
    9.5867  -18.7479   25.4475 C   0  0  0  0  0  0  0  0  0  0  0  0
    8.3350  -19.0580   26.2168 C   0  0  0  0  0  0  0  0  0  0  0  0
    7.8675  -18.3250   27.3097 C   0  0  0  0  0  0  0  0  0  0  0  0
    6.7282  -18.8582   27.7676 N   0  0  0  0  0  0  0  0  0  0  0  0
    6.4630  -19.8988   26.9997 C   0  0  0  0  0  0  0  0  0  0  0  0
    7.4304  -20.0316   26.0531 N   0  0  0  0  0  0  0  0  0  0  0  0
   11.5474  -17.8161   26.5211 C   0  0  0  0  0  0  0  0  0  0  0  0
   12.6013  -17.4023   25.9476 O   0  0  0  0  0  0  0  0  0  0  0  0
   11.7144  -18.5842   27.6623 O   0  0  0  0  0  0  0  0  0  0  0  0
  1  2  1  0
  2  4  1  0
  2  3  2  0
  4  5  1  0
  6  7  1  6
  6  5  1  0
  8  6  1  0
  8  9  2  0
 10 11  1  0
 11 21  2  0
 11 12  1  0
 12 13  2  0
 13 14  1  0
 14 15  1  0
 16 15  1  6
 16 17  1  0
 17  8  1  0
 18 16  1  0
 19 18  2  0
 20 14  2  0
 21 20  1  0
 22 18  1  0
 23 22  1  0
 23 30  1  0
 23 24  1  6
 25 29  1  0
 25 24  1  0
 26 25  2  0
 27 26  1  0
 27 28  1  0
 28 29  2  0
 30 32  1  0
 31 30  2  0
M  END
$$$$
