QYH.pdb
     RDKit          3D

 32 33  0  0  1  0  0  0  0  0999 V2000
    9.9930  -21.7961   21.0655 N   0  0  0  0  0  0  0  0  0  0  0  0
   10.4705  -21.5955   19.7388 C   0  0  0  0  0  0  0  0  0  0  0  0
   11.0872  -22.5122   19.1380 O   0  0  0  0  0  0  0  0  0  0  0  0
   10.2295  -20.2947   19.0919 C   0  0  0  0  0  0  0  0  0  0  0  0
   10.1067  -19.1466   20.0159 C   0  0  0  0  0  0  0  0  0  0  0  0
    9.6185  -17.8670   19.4265 C   0  0  2  0  0  0  0  0  0  0  0  0
   10.2749  -17.5753   18.1991 N   0  0  0  0  0  0  0  0  0  0  0  0
    9.9524  -16.7668   20.4072 C   0  0  0  0  0  0  0  0  0  0  0  0
   11.1092  -16.2623   20.4015 O   0  0  0  0  0  0  0  0  0  0  0  0
    7.5144  -12.0899   17.0462 O   0  0  0  0  0  0  0  0  0  0  0  0
    7.6355  -12.6456   18.3081 C   0  0  0  0  0  0  0  0  0  0  0  0
    8.5414  -12.0680   19.1981 C   0  0  0  0  0  0  0  0  0  0  0  0
    8.7063  -12.5808   20.4550 C   0  0  0  0  0  0  0  0  0  0  0  0
    7.9698  -13.6790   20.8500 C   0  0  0  0  0  0  0  0  0  0  0  0
    8.1573  -14.2168   22.2044 C   0  0  0  0  0  0  0  0  0  0  0  0
    9.3202  -15.2004   22.2634 C   0  0  2  0  0  0  0  0  0  0  0  0
    9.0162  -16.2722   21.3377 N   0  0  0  0  0  0  0  0  0  0  0  0
    9.5462  -15.6826   23.6363 C   0  0  0  0  0  0  0  0  0  0  0  0
    8.6147  -15.8621   24.4722 O   0  0  0  0  0  0  0  0  0  0  0  0
    7.0628  -14.2699   19.9844 C   0  0  0  0  0  0  0  0  0  0  0  0
    6.9023  -13.7502   18.7256 C   0  0  0  0  0  0  0  0  0  0  0  0
   10.8344  -16.0025   24.1722 N   0  0  0  0  0  0  0  0  0  0  0  0
   11.2551  -17.2372   24.6854 C   0  0  1  0  0  0  0  0  0  0  0  0
   11.0162  -18.4545   23.8550 C   0  0  0  0  0  0  0  0  0  0  0  0
   11.4666  -19.6472   24.6483 C   0  0  0  0  0  0  0  0  0  0  0  0
   11.4963  -19.7134   26.0429 C   0  0  0  0  0  0  0  0  0  0  0  0
   11.9445  -20.9116   26.4371 N   0  0  0  0  0  0  0  0  0  0  0  0
   12.1954  -21.6006   25.3393 C   0  0  0  0  0  0  0  0  0  0  0  0
   11.9090  -20.8450   24.2453 N   0  0  0  0  0  0  0  0  0  0  0  0
   12.6640  -17.1851   25.0954 C   0  0  0  0  0  0  0  0  0  0  0  0
   13.0898  -17.6491   26.1974 O   0  0  0  0  0  0  0  0  0  0  0  0
   13.6013  -16.6080   24.2536 O   0  0  0  0  0  0  0  0  0  0  0  0
  1  2  1  0
  2  4  1  0
  2  3  2  0
  4  5  1  0
  6  7  1  6
  6  5  1  0
  8  6  1  0
  8  9  2  0
 10 11  1  0
 11 21  2  0
 11 12  1  0
 12 13  2  0
 13 14  1  0
 14 15  1  0
 16 15  1  1
 16 17  1  0
 17  8  1  0
 18 16  1  0
 19 18  2  0
 20 14  2  0
 21 20  1  0
 22 18  1  0
 23 22  1  0
 23 30  1  0
 23 24  1  6
 25 29  1  0
 25 24  1  0
 26 25  2  0
 27 26  1  0
 27 28  1  0
 28 29  2  0
 30 32  1  0
 31 30  2  0
M  END
$$$$
