NDV.pdb
     RDKit          3D

 24 23  0  0  1  0  0  0  0  0999 V2000
    8.4656  -12.3307   17.1575 N   0  0  0  0  0  0  0  0  0  0  0  0
    7.9767  -13.6233   17.4333 C   0  0  0  0  0  0  0  0  0  0  0  0
    7.9594  -14.4821   16.5375 O   0  0  0  0  0  0  0  0  0  0  0  0
    7.4875  -13.9452   18.7918 C   0  0  0  0  0  0  0  0  0  0  0  0
    8.6187  -13.9663   19.7999 C   0  0  2  0  0  0  0  0  0  0  0  0
    9.6666  -14.7954   19.2399 N   0  0  0  0  0  0  0  0  0  0  0  0
    8.2170  -14.5124   21.0925 C   0  0  0  0  0  0  0  0  0  0  0  0
    7.2066  -14.0652   21.6850 O   0  0  0  0  0  0  0  0  0  0  0  0
    8.9324  -15.5728   21.7590 N   0  0  0  0  0  0  0  0  0  0  0  0
    8.5714  -16.0326   23.0683 C   0  0  1  0  0  0  0  0  0  0  0  0
    9.1804  -17.3865   23.3160 C   0  0  0  0  0  0  0  0  0  0  0  0
    8.8190  -18.4042   22.3138 C   0  0  0  0  0  0  0  0  0  0  0  0
    7.6175  -18.6922   22.1381 O   0  0  0  0  0  0  0  0  0  0  0  0
    8.8642  -15.0701   24.1393 C   0  0  0  0  0  0  0  0  0  0  0  0
   10.0072  -14.5422   24.1451 O   0  0  0  0  0  0  0  0  0  0  0  0
    9.7830  -19.0436   21.5679 O   0  0  0  0  0  0  0  0  0  0  0  0
    6.8244  -11.9704   25.1853 C   0  0  0  0  0  0  0  0  0  0  0  0
    7.2142  -12.7229   26.4424 C   0  0  1  0  0  0  0  0  0  0  0  0
    5.9842  -13.4914   26.8789 C   0  0  0  0  0  0  0  0  0  0  0  0
    8.2910  -13.7082   26.1461 C   0  0  2  0  0  0  0  0  0  0  0  0
    7.9840  -14.6857   25.1574 N   0  0  0  0  0  0  0  0  0  0  0  0
    8.6592  -14.4084   27.4026 C   0  0  0  0  0  0  0  0  0  0  0  0
    8.4446  -15.6618   27.5362 O   0  0  0  0  0  0  0  0  0  0  0  0
    9.2442  -13.7950   28.4980 O   0  0  0  0  0  0  0  0  0  0  0  0
  2  1  1  0
  2  4  1  0
  3  2  2  0
  5  4  1  0
  5  7  1  0
  5  6  1  6
  7  9  1  0
  7  8  2  0
  9 10  1  0
 10 14  1  0
 10 11  1  1
 12 13  2  0
 12 11  1  0
 14 21  1  0
 14 15  2  0
 16 12  1  0
 18 20  1  0
 18 17  1  6
 19 18  1  0
 20 22  1  0
 20 21  1  6
 22 24  1  0
 23 22  2  0
M  END
$$$$
