NDV.pdb
     RDKit          3D

 24 23  0  0  1  0  0  0  0  0999 V2000
    7.7803  -12.5819   16.9058 N   0  0  0  0  0  0  0  0  0  0  0  0
    7.7597  -13.9158   17.3598 C   0  0  0  0  0  0  0  0  0  0  0  0
    8.1199  -14.8320   16.6041 O   0  0  0  0  0  0  0  0  0  0  0  0
    7.3076  -14.2121   18.7369 C   0  0  0  0  0  0  0  0  0  0  0  0
    8.3874  -13.9056   19.7549 C   0  0  2  0  0  0  0  0  0  0  0  0
    9.6406  -14.3635   19.1905 N   0  0  0  0  0  0  0  0  0  0  0  0
    8.1674  -14.5731   21.0341 C   0  0  0  0  0  0  0  0  0  0  0  0
    7.0987  -14.3992   21.6663 O   0  0  0  0  0  0  0  0  0  0  0  0
    9.1347  -15.4531   21.6428 N   0  0  0  0  0  0  0  0  0  0  0  0
    8.9309  -16.0337   22.9379 C   0  0  1  0  0  0  0  0  0  0  0  0
    9.8549  -17.2079   23.1182 C   0  0  0  0  0  0  0  0  0  0  0  0
    9.7395  -18.2346   22.0678 C   0  0  0  0  0  0  0  0  0  0  0  0
    8.6532  -18.8270   21.9061 O   0  0  0  0  0  0  0  0  0  0  0  0
    9.0119  -15.0683   24.0427 C   0  0  0  0  0  0  0  0  0  0  0  0
   10.0546  -14.3670   24.1219 O   0  0  0  0  0  0  0  0  0  0  0  0
   10.8088  -18.5525   21.2616 O   0  0  0  0  0  0  0  0  0  0  0  0
    7.1846  -12.0315   27.3777 C   0  0  0  0  0  0  0  0  0  0  0  0
    6.9157  -13.0696   26.3060 C   0  0  1  0  0  0  0  0  0  0  0  0
    6.5950  -12.3031   25.0397 C   0  0  0  0  0  0  0  0  0  0  0  0
    8.1363  -13.8849   26.0536 C   0  0  2  0  0  0  0  0  0  0  0  0
    8.0311  -14.8571   25.0186 N   0  0  0  0  0  0  0  0  0  0  0  0
    8.5205  -14.5748   27.3109 C   0  0  0  0  0  0  0  0  0  0  0  0
    8.8258  -13.9028   28.3551 O   0  0  0  0  0  0  0  0  0  0  0  0
    8.5806  -15.9503   27.4623 O   0  0  0  0  0  0  0  0  0  0  0  0
  2  1  1  0
  2  4  1  0
  3  2  2  0
  5  4  1  0
  5  7  1  0
  5  6  1  6
  7  9  1  0
  7  8  2  0
  9 10  1  0
 10 14  1  0
 10 11  1  1
 12 13  2  0
 12 11  1  0
 14 21  1  0
 14 15  2  0
 16 12  1  0
 18 20  1  0
 18 17  1  1
 19 18  1  0
 20 22  1  0
 20 21  1  6
 22 24  1  0
 23 22  2  0
M  END
$$$$
