NDV.pdb
     RDKit          3D

 24 23  0  0  1  0  0  0  0  0999 V2000
    9.1569  -13.1246   17.0397 N   0  0  0  0  0  0  0  0  0  0  0  0
    7.8830  -13.7269   17.0459 C   0  0  0  0  0  0  0  0  0  0  0  0
    7.2898  -13.9303   15.9749 O   0  0  0  0  0  0  0  0  0  0  0  0
    7.2630  -14.1121   18.3327 C   0  0  0  0  0  0  0  0  0  0  0  0
    8.1260  -13.7049   19.5099 C   0  0  2  0  0  0  0  0  0  0  0  0
    9.5052  -13.8285   19.0838 N   0  0  0  0  0  0  0  0  0  0  0  0
    7.9127  -14.5419   20.6865 C   0  0  0  0  0  0  0  0  0  0  0  0
    6.7759  -14.6264   21.2086 O   0  0  0  0  0  0  0  0  0  0  0  0
    8.9627  -15.3074   21.3124 N   0  0  0  0  0  0  0  0  0  0  0  0
    8.7672  -16.0019   22.5515 C   0  0  1  0  0  0  0  0  0  0  0  0
    9.6278  -17.2362   22.5822 C   0  0  0  0  0  0  0  0  0  0  0  0
    9.5648  -17.9854   23.8493 C   0  0  0  0  0  0  0  0  0  0  0  0
    8.4751  -18.0853   24.4491 O   0  0  0  0  0  0  0  0  0  0  0  0
    8.9383  -15.1567   23.7414 C   0  0  0  0  0  0  0  0  0  0  0  0
   10.0394  -14.5603   23.8729 O   0  0  0  0  0  0  0  0  0  0  0  0
   10.6868  -18.5771   24.3837 O   0  0  0  0  0  0  0  0  0  0  0  0
    7.2607  -12.1963   27.2235 C   0  0  0  0  0  0  0  0  0  0  0  0
    6.9559  -13.1581   26.0919 C   0  0  1  0  0  0  0  0  0  0  0  0
    6.6944  -12.3070   24.8667 C   0  0  0  0  0  0  0  0  0  0  0  0
    8.1370  -14.0203   25.8095 C   0  0  2  0  0  0  0  0  0  0  0  0
    7.9845  -14.9541   24.7454 N   0  0  0  0  0  0  0  0  0  0  0  0
    8.4924  -14.7658   27.0433 C   0  0  0  0  0  0  0  0  0  0  0  0
    8.1822  -15.9998   27.1704 O   0  0  0  0  0  0  0  0  0  0  0  0
    9.1640  -14.2173   28.1234 O   0  0  0  0  0  0  0  0  0  0  0  0
  2  1  1  0
  2  4  1  0
  3  2  2  0
  5  4  1  0
  5  7  1  0
  5  6  1  6
  7  9  1  0
  7  8  2  0
  9 10  1  0
 10 14  1  0
 10 11  1  1
 12 13  2  0
 12 11  1  0
 14 21  1  0
 14 15  2  0
 16 12  1  0
 18 20  1  0
 18 17  1  1
 19 18  1  0
 20 22  1  0
 20 21  1  6
 22 24  1  0
 23 22  2  0
M  END
$$$$
