NDV.pdb
     RDKit          3D

 24 23  0  0  1  0  0  0  0  0999 V2000
    7.9845  -12.4375   17.2591 N   0  0  0  0  0  0  0  0  0  0  0  0
    7.6917  -13.7912   17.5193 C   0  0  0  0  0  0  0  0  0  0  0  0
    7.8057  -14.6336   16.6150 O   0  0  0  0  0  0  0  0  0  0  0  0
    7.2502  -14.1965   18.8718 C   0  0  0  0  0  0  0  0  0  0  0  0
    8.3697  -14.0663   19.8848 C   0  0  2  0  0  0  0  0  0  0  0  0
    9.5230  -14.7430   19.3273 N   0  0  0  0  0  0  0  0  0  0  0  0
    8.0411  -14.6659   21.1743 C   0  0  0  0  0  0  0  0  0  0  0  0
    7.0208  -14.2993   21.8041 O   0  0  0  0  0  0  0  0  0  0  0  0
    8.8426  -15.6914   21.7959 N   0  0  0  0  0  0  0  0  0  0  0  0
    8.5963  -16.1481   23.1326 C   0  0  1  0  0  0  0  0  0  0  0  0
    9.2488  -17.4886   23.3387 C   0  0  0  0  0  0  0  0  0  0  0  0
    9.0834  -18.0390   24.6953 C   0  0  0  0  0  0  0  0  0  0  0  0
   10.0931  -18.2645   25.3930 O   0  0  0  0  0  0  0  0  0  0  0  0
    8.9555  -15.1725   24.1710 C   0  0  0  0  0  0  0  0  0  0  0  0
   10.1479  -14.7687   24.1968 O   0  0  0  0  0  0  0  0  0  0  0  0
    7.8345  -18.3096   25.2070 O   0  0  0  0  0  0  0  0  0  0  0  0
    7.1087  -11.8461   25.2747 C   0  0  0  0  0  0  0  0  0  0  0  0
    7.4682  -12.6788   26.4896 C   0  0  1  0  0  0  0  0  0  0  0  0
    6.2005  -13.3946   26.9071 C   0  0  0  0  0  0  0  0  0  0  0  0
    8.4822  -13.7095   26.1323 C   0  0  2  0  0  0  0  0  0  0  0  0
    8.0889  -14.6494   25.1376 N   0  0  0  0  0  0  0  0  0  0  0  0
    8.8626  -14.4535   27.3595 C   0  0  0  0  0  0  0  0  0  0  0  0
    8.5702  -15.6918   27.4869 O   0  0  0  0  0  0  0  0  0  0  0  0
    9.5403  -13.8991   28.4326 O   0  0  0  0  0  0  0  0  0  0  0  0
  2  1  1  0
  2  4  1  0
  3  2  2  0
  5  4  1  0
  5  7  1  0
  5  6  1  6
  7  9  1  0
  7  8  2  0
  9 10  1  0
 10 14  1  0
 10 11  1  1
 12 13  2  0
 12 11  1  0
 14 21  1  0
 14 15  2  0
 16 12  1  0
 18 20  1  0
 18 17  1  6
 19 18  1  0
 20 22  1  0
 20 21  1  6
 22 24  1  0
 23 22  2  0
M  END
$$$$
