NDV.pdb
     RDKit          3D

 24 23  0  0  1  0  0  0  0  0999 V2000
    7.7400  -17.0412   19.0685 N   0  0  0  0  0  0  0  0  0  0  0  0
    9.0742  -16.8638   19.4860 C   0  0  0  0  0  0  0  0  0  0  0  0
    9.9114  -17.7559   19.2771 O   0  0  0  0  0  0  0  0  0  0  0  0
    9.4653  -15.6124   20.1712 C   0  0  0  0  0  0  0  0  0  0  0  0
   10.5294  -15.8621   21.2208 C   0  0  2  0  0  0  0  0  0  0  0  0
   11.2596  -17.0432   20.8077 N   0  0  0  0  0  0  0  0  0  0  0  0
    9.9728  -16.0857   22.5514 C   0  0  0  0  0  0  0  0  0  0  0  0
    9.3101  -15.1873   23.1222 O   0  0  0  0  0  0  0  0  0  0  0  0
   10.1410  -17.3183   23.2813 N   0  0  0  0  0  0  0  0  0  0  0  0
    9.5900  -17.5121   24.5908 C   0  0  1  0  0  0  0  0  0  0  0  0
    9.3333  -18.9771   24.8212 C   0  0  0  0  0  0  0  0  0  0  0  0
    8.6872  -19.2820   26.1097 C   0  0  0  0  0  0  0  0  0  0  0  0
    7.9591  -18.4238   26.6489 O   0  0  0  0  0  0  0  0  0  0  0  0
   10.3784  -16.8944   25.6660 C   0  0  0  0  0  0  0  0  0  0  0  0
   11.6305  -16.8880   25.5338 O   0  0  0  0  0  0  0  0  0  0  0  0
    8.8724  -20.4968   26.7299 O   0  0  0  0  0  0  0  0  0  0  0  0
    9.6594  -13.4138   27.1314 C   0  0  0  0  0  0  0  0  0  0  0  0
   10.0432  -14.3231   28.2822 C   0  0  1  0  0  0  0  0  0  0  0  0
    8.7547  -14.6761   28.9958 C   0  0  0  0  0  0  0  0  0  0  0  0
   10.6457  -15.5850   27.7695 C   0  0  2  0  0  0  0  0  0  0  0  0
    9.8614  -16.3103   26.8281 N   0  0  0  0  0  0  0  0  0  0  0  0
   10.9445  -16.4755   28.9194 C   0  0  0  0  0  0  0  0  0  0  0  0
   10.3221  -17.5832   29.0639 O   0  0  0  0  0  0  0  0  0  0  0  0
   11.8844  -16.2006   29.8988 O   0  0  0  0  0  0  0  0  0  0  0  0
  2  1  1  0
  2  4  1  0
  3  2  2  0
  5  4  1  0
  5  7  1  0
  5  6  1  6
  7  9  1  0
  7  8  2  0
  9 10  1  0
 10 14  1  0
 10 11  1  1
 12 13  2  0
 12 11  1  0
 14 21  1  0
 14 15  2  0
 16 12  1  0
 18 20  1  0
 18 17  1  6
 19 18  1  0
 20 22  1  0
 20 21  1  6
 22 24  1  0
 23 22  2  0
M  END
$$$$
