NDV.pdb
     RDKit          3D

 24 23  0  0  1  0  0  0  0  0999 V2000
    7.5777  -13.0891   16.9668 N   0  0  0  0  0  0  0  0  0  0  0  0
    8.4024  -13.2781   18.0937 C   0  0  0  0  0  0  0  0  0  0  0  0
    9.5716  -12.8617   18.0812 O   0  0  0  0  0  0  0  0  0  0  0  0
    7.8654  -13.9728   19.2842 C   0  0  0  0  0  0  0  0  0  0  0  0
    8.4544  -15.3613   19.4309 C   0  0  2  0  0  0  0  0  0  0  0  0
    7.9059  -16.1670   18.3590 N   0  0  0  0  0  0  0  0  0  0  0  0
    8.1294  -15.9835   20.7105 C   0  0  0  0  0  0  0  0  0  0  0  0
    7.3774  -16.9857   20.7570 O   0  0  0  0  0  0  0  0  0  0  0  0
    8.6349  -15.5038   21.9734 N   0  0  0  0  0  0  0  0  0  0  0  0
    8.2920  -16.1253   23.2192 C   0  0  1  0  0  0  0  0  0  0  0  0
    8.6550  -17.5852   23.1745 C   0  0  0  0  0  0  0  0  0  0  0  0
   10.0674  -17.8469   22.8470 C   0  0  0  0  0  0  0  0  0  0  0  0
   10.8072  -16.8968   22.5196 O   0  0  0  0  0  0  0  0  0  0  0  0
    8.8368  -15.4373   24.3978 C   0  0  0  0  0  0  0  0  0  0  0  0
   10.0052  -14.9764   24.3090 O   0  0  0  0  0  0  0  0  0  0  0  0
   10.5858  -19.1211   22.8955 O   0  0  0  0  0  0  0  0  0  0  0  0
    7.3499  -12.0642   27.4752 C   0  0  0  0  0  0  0  0  0  0  0  0
    7.0820  -13.2445   26.5621 C   0  0  1  0  0  0  0  0  0  0  0  0
    6.7500  -12.6659   25.2024 C   0  0  0  0  0  0  0  0  0  0  0  0
    8.3064  -14.0805   26.4198 C   0  0  2  0  0  0  0  0  0  0  0  0
    8.1720  -15.2472   25.6147 N   0  0  0  0  0  0  0  0  0  0  0  0
    8.7667  -14.4905   27.7705 C   0  0  0  0  0  0  0  0  0  0  0  0
    8.6707  -15.7081   28.1492 O   0  0  0  0  0  0  0  0  0  0  0  0
    9.3190  -13.6294   28.7042 O   0  0  0  0  0  0  0  0  0  0  0  0
  2  1  1  0
  2  4  1  0
  3  2  2  0
  5  4  1  0
  5  7  1  0
  5  6  1  6
  7  9  1  0
  7  8  2  0
  9 10  1  0
 10 14  1  0
 10 11  1  6
 12 13  2  0
 12 11  1  0
 14 21  1  0
 14 15  2  0
 16 12  1  0
 18 20  1  0
 18 17  1  1
 19 18  1  0
 20 22  1  0
 20 21  1  6
 22 24  1  0
 23 22  2  0
M  END
$$$$
