NDV.pdb
     RDKit          3D

 24 23  0  0  1  0  0  0  0  0999 V2000
    7.0523  -14.3416   16.7889 N   0  0  0  0  0  0  0  0  0  0  0  0
    7.8216  -14.2218   17.9635 C   0  0  0  0  0  0  0  0  0  0  0  0
    8.4367  -15.2061   18.4031 O   0  0  0  0  0  0  0  0  0  0  0  0
    7.8892  -12.9201   18.6632 C   0  0  0  0  0  0  0  0  0  0  0  0
    8.8440  -12.9695   19.8389 C   0  0  2  0  0  0  0  0  0  0  0  0
   10.0446  -13.6372   19.3787 N   0  0  0  0  0  0  0  0  0  0  0  0
    8.3006  -13.6974   20.9813 C   0  0  0  0  0  0  0  0  0  0  0  0
    7.2253  -13.3335   21.5136 O   0  0  0  0  0  0  0  0  0  0  0  0
    8.9429  -14.8515   21.5609 N   0  0  0  0  0  0  0  0  0  0  0  0
    8.4101  -15.5268   22.7081 C   0  0  1  0  0  0  0  0  0  0  0  0
    8.8268  -16.9728   22.6842 C   0  0  0  0  0  0  0  0  0  0  0  0
    8.3885  -17.7474   23.8584 C   0  0  0  0  0  0  0  0  0  0  0  0
    7.1960  -17.6889   24.2213 O   0  0  0  0  0  0  0  0  0  0  0  0
    8.7162  -14.8653   23.9840 C   0  0  0  0  0  0  0  0  0  0  0  0
    9.9191  -14.5671   24.2062 O   0  0  0  0  0  0  0  0  0  0  0  0
    9.2712  -18.5344   24.5627 O   0  0  0  0  0  0  0  0  0  0  0  0
    7.4356  -11.6075   25.6185 C   0  0  0  0  0  0  0  0  0  0  0  0
    7.2761  -12.7487   26.6038 C   0  0  1  0  0  0  0  0  0  0  0  0
    5.8290  -13.1874   26.5186 C   0  0  0  0  0  0  0  0  0  0  0  0
    8.1307  -13.9021   26.2066 C   0  0  2  0  0  0  0  0  0  0  0  0
    7.7880  -14.5354   24.9782 N   0  0  0  0  0  0  0  0  0  0  0  0
    8.0952  -14.9195   27.2873 C   0  0  0  0  0  0  0  0  0  0  0  0
    7.5813  -16.0719   27.0799 O   0  0  0  0  0  0  0  0  0  0  0  0
    8.5945  -14.7230   28.5642 O   0  0  0  0  0  0  0  0  0  0  0  0
  2  1  1  0
  2  4  1  0
  3  2  2  0
  5  4  1  0
  5  7  1  0
  5  6  1  6
  7  9  1  0
  7  8  2  0
  9 10  1  0
 10 14  1  0
 10 11  1  1
 12 13  2  0
 12 11  1  0
 14 21  1  0
 14 15  2  0
 16 12  1  0
 18 20  1  0
 18 17  1  6
 19 18  1  0
 20 22  1  0
 20 21  1  6
 22 24  1  0
 23 22  2  0
M  END
$$$$
