NDV.pdb
     RDKit          3D

 24 23  0  0  1  0  0  0  0  0999 V2000
    8.6005  -12.1327   18.1815 N   0  0  0  0  0  0  0  0  0  0  0  0
    7.9437  -13.3724   18.0490 C   0  0  0  0  0  0  0  0  0  0  0  0
    7.7318  -13.8425   16.9200 O   0  0  0  0  0  0  0  0  0  0  0  0
    7.5118  -14.1038   19.2602 C   0  0  0  0  0  0  0  0  0  0  0  0
    8.4245  -15.2765   19.5569 C   0  0  2  0  0  0  0  0  0  0  0  0
    8.0658  -16.3336   18.6335 N   0  0  0  0  0  0  0  0  0  0  0  0
    8.2887  -15.7698   20.9239 C   0  0  0  0  0  0  0  0  0  0  0  0
    7.1623  -16.0807   21.3784 O   0  0  0  0  0  0  0  0  0  0  0  0
    9.4068  -15.9295   21.8209 N   0  0  0  0  0  0  0  0  0  0  0  0
    9.2422  -16.3656   23.1769 C   0  0  1  0  0  0  0  0  0  0  0  0
   10.2285  -17.4611   23.4805 C   0  0  0  0  0  0  0  0  0  0  0  0
   10.0354  -18.6857   22.6844 C   0  0  0  0  0  0  0  0  0  0  0  0
    8.8787  -19.1028   22.4717 O   0  0  0  0  0  0  0  0  0  0  0  0
    9.2785  -15.2755   24.1616 C   0  0  0  0  0  0  0  0  0  0  0  0
   10.3051  -14.5467   24.1792 O   0  0  0  0  0  0  0  0  0  0  0  0
   11.1083  -19.3785   22.1711 O   0  0  0  0  0  0  0  0  0  0  0  0
    7.2645  -11.9906   27.1721 C   0  0  0  0  0  0  0  0  0  0  0  0
    7.0445  -13.1785   26.2562 C   0  0  1  0  0  0  0  0  0  0  0  0
    6.5459  -12.6171   24.9408 C   0  0  0  0  0  0  0  0  0  0  0  0
    8.3318  -13.8817   25.9978 C   0  0  2  0  0  0  0  0  0  0  0  0
    8.2714  -14.9730   25.0853 N   0  0  0  0  0  0  0  0  0  0  0  0
    8.8755  -14.3757   27.2880 C   0  0  0  0  0  0  0  0  0  0  0  0
    8.7157  -15.5953   27.6375 O   0  0  0  0  0  0  0  0  0  0  0  0
    9.5762  -13.5951   28.1925 O   0  0  0  0  0  0  0  0  0  0  0  0
  2  1  1  0
  2  4  1  0
  3  2  2  0
  5  4  1  0
  5  7  1  0
  5  6  1  6
  7  9  1  0
  7  8  2  0
  9 10  1  0
 10 14  1  0
 10 11  1  1
 12 13  2  0
 12 11  1  0
 14 21  1  0
 14 15  2  0
 16 12  1  0
 18 20  1  0
 18 17  1  1
 19 18  1  0
 20 22  1  0
 20 21  1  6
 22 24  1  0
 23 22  2  0
M  END
$$$$
