NDV.pdb
     RDKit          3D

 24 23  0  0  1  0  0  0  0  0999 V2000
    9.0248  -13.6700   16.9610 N   0  0  0  0  0  0  0  0  0  0  0  0
    7.6570  -13.6270   17.2972 C   0  0  0  0  0  0  0  0  0  0  0  0
    6.7998  -13.6088   16.3998 O   0  0  0  0  0  0  0  0  0  0  0  0
    7.2546  -13.6041   18.7206 C   0  0  0  0  0  0  0  0  0  0  0  0
    8.4583  -13.6530   19.6398 C   0  0  2  0  0  0  0  0  0  0  0  0
    9.4994  -14.3708   18.9328 N   0  0  0  0  0  0  0  0  0  0  0  0
    8.1819  -14.3327   20.9015 C   0  0  0  0  0  0  0  0  0  0  0  0
    7.1864  -14.0103   21.5923 O   0  0  0  0  0  0  0  0  0  0  0  0
    9.0093  -15.3911   21.4267 N   0  0  0  0  0  0  0  0  0  0  0  0
    8.7022  -16.0624   22.6559 C   0  0  1  0  0  0  0  0  0  0  0  0
    9.4291  -17.3792   22.7097 C   0  0  0  0  0  0  0  0  0  0  0  0
    9.2353  -18.1255   23.9652 C   0  0  0  0  0  0  0  0  0  0  0  0
    8.1004  -18.1719   24.4821 O   0  0  0  0  0  0  0  0  0  0  0  0
    8.9203  -15.2403   23.8541 C   0  0  0  0  0  0  0  0  0  0  0  0
   10.0719  -14.7603   24.0237 O   0  0  0  0  0  0  0  0  0  0  0  0
   10.2840  -18.7724   24.5787 O   0  0  0  0  0  0  0  0  0  0  0  0
    7.3569  -12.2218   27.3789 C   0  0  0  0  0  0  0  0  0  0  0  0
    6.9920  -13.1812   26.2632 C   0  0  1  0  0  0  0  0  0  0  0  0
    6.6274  -12.3266   25.0671 C   0  0  0  0  0  0  0  0  0  0  0  0
    8.1671  -14.0169   25.8904 C   0  0  2  0  0  0  0  0  0  0  0  0
    7.9600  -14.9414   24.8275 N   0  0  0  0  0  0  0  0  0  0  0  0
    8.6197  -14.7690   27.0878 C   0  0  0  0  0  0  0  0  0  0  0  0
    8.2129  -15.9629   27.2988 O   0  0  0  0  0  0  0  0  0  0  0  0
    9.4870  -14.2689   28.0449 O   0  0  0  0  0  0  0  0  0  0  0  0
  2  1  1  0
  2  4  1  0
  3  2  2  0
  5  4  1  0
  5  7  1  0
  5  6  1  6
  7  9  1  0
  7  8  2  0
  9 10  1  0
 10 14  1  0
 10 11  1  1
 12 13  2  0
 12 11  1  0
 14 21  1  0
 14 15  2  0
 16 12  1  0
 18 20  1  0
 18 17  1  1
 19 18  1  0
 20 22  1  0
 20 21  1  6
 22 24  1  0
 23 22  2  0
M  END
$$$$
