NDV.pdb
     RDKit          3D

 24 23  0  0  1  0  0  0  0  0999 V2000
    9.1279  -15.8422   17.2644 N   0  0  0  0  0  0  0  0  0  0  0  0
    7.8526  -16.3587   17.5685 C   0  0  0  0  0  0  0  0  0  0  0  0
    7.1402  -16.8204   16.6631 O   0  0  0  0  0  0  0  0  0  0  0  0
    7.3736  -16.3457   18.9682 C   0  0  0  0  0  0  0  0  0  0  0  0
    8.3825  -15.6985   19.8954 C   0  0  2  0  0  0  0  0  0  0  0  0
    9.6598  -16.3308   19.6353 N   0  0  0  0  0  0  0  0  0  0  0  0
    8.0455  -15.8648   21.3058 C   0  0  0  0  0  0  0  0  0  0  0  0
    6.9607  -15.4260   21.7560 O   0  0  0  0  0  0  0  0  0  0  0  0
    8.9106  -16.5254   22.2522 N   0  0  0  0  0  0  0  0  0  0  0  0
    8.5560  -16.6796   23.6329 C   0  0  1  0  0  0  0  0  0  0  0  0
    9.2329  -17.8998   24.1970 C   0  0  0  0  0  0  0  0  0  0  0  0
    8.9948  -19.1331   23.4271 C   0  0  0  0  0  0  0  0  0  0  0  0
    7.8239  -19.4765   23.1658 O   0  0  0  0  0  0  0  0  0  0  0  0
    8.7818  -15.4751   24.4438 C   0  0  0  0  0  0  0  0  0  0  0  0
    9.9460  -14.9959   24.4548 O   0  0  0  0  0  0  0  0  0  0  0  0
   10.0411  -19.9140   22.9910 O   0  0  0  0  0  0  0  0  0  0  0  0
    7.3672  -11.6270   27.1903 C   0  0  0  0  0  0  0  0  0  0  0  0
    6.9216  -12.8370   26.3928 C   0  0  1  0  0  0  0  0  0  0  0  0
    6.3179  -12.3044   25.1100 C   0  0  0  0  0  0  0  0  0  0  0  0
    8.0932  -13.6833   26.0332 C   0  0  2  0  0  0  0  0  0  0  0  0
    7.8159  -14.8100   25.2078 N   0  0  0  0  0  0  0  0  0  0  0  0
    8.7406  -14.1612   27.2810 C   0  0  0  0  0  0  0  0  0  0  0  0
    8.4111  -15.2842   27.7964 O   0  0  0  0  0  0  0  0  0  0  0  0
    9.7188  -13.4652   27.9716 O   0  0  0  0  0  0  0  0  0  0  0  0
  2  1  1  0
  2  4  1  0
  3  2  2  0
  5  4  1  0
  5  7  1  0
  5  6  1  1
  7  9  1  0
  7  8  2  0
  9 10  1  0
 10 14  1  0
 10 11  1  1
 12 13  2  0
 12 11  1  0
 14 21  1  0
 14 15  2  0
 16 12  1  0
 18 20  1  0
 18 17  1  1
 19 18  1  0
 20 22  1  0
 20 21  1  6
 22 24  1  0
 23 22  2  0
M  END
$$$$
