NDV.pdb
     RDKit          3D

 24 23  0  0  1  0  0  0  0  0999 V2000
    8.5929  -14.7277   17.0922 N   0  0  0  0  0  0  0  0  0  0  0  0
    7.5903  -14.5223   18.0609 C   0  0  0  0  0  0  0  0  0  0  0  0
    6.8415  -15.4579   18.3840 O   0  0  0  0  0  0  0  0  0  0  0  0
    7.4394  -13.1897   18.6854 C   0  0  0  0  0  0  0  0  0  0  0  0
    8.4344  -12.9866   19.8101 C   0  0  2  0  0  0  0  0  0  0  0  0
    9.7386  -13.3399   19.2876 N   0  0  0  0  0  0  0  0  0  0  0  0
    8.1476  -13.8138   20.9780 C   0  0  0  0  0  0  0  0  0  0  0  0
    7.0346  -13.7409   21.5505 O   0  0  0  0  0  0  0  0  0  0  0  0
    9.0957  -14.7450   21.5387 N   0  0  0  0  0  0  0  0  0  0  0  0
    8.8183  -15.4937   22.7296 C   0  0  1  0  0  0  0  0  0  0  0  0
    9.5867  -16.7876   22.7056 C   0  0  0  0  0  0  0  0  0  0  0  0
    9.3833  -17.6333   23.8948 C   0  0  0  0  0  0  0  0  0  0  0  0
    8.2540  -17.6873   24.4230 O   0  0  0  0  0  0  0  0  0  0  0  0
    9.0185  -14.7336   23.9711 C   0  0  0  0  0  0  0  0  0  0  0  0
   10.1526  -14.2192   24.1571 O   0  0  0  0  0  0  0  0  0  0  0  0
   10.4170  -18.3649   24.4341 O   0  0  0  0  0  0  0  0  0  0  0  0
    6.8749  -11.8274   25.3017 C   0  0  0  0  0  0  0  0  0  0  0  0
    7.1460  -12.7777   26.4514 C   0  0  1  0  0  0  0  0  0  0  0  0
    5.8903  -13.6063   26.6258 C   0  0  0  0  0  0  0  0  0  0  0  0
    8.2632  -13.7018   26.1102 C   0  0  2  0  0  0  0  0  0  0  0  0
    8.0590  -14.5288   24.9693 N   0  0  0  0  0  0  0  0  0  0  0  0
    8.5393  -14.5729   27.2804 C   0  0  0  0  0  0  0  0  0  0  0  0
    8.9385  -14.0702   28.3863 O   0  0  0  0  0  0  0  0  0  0  0  0
    8.3956  -15.9504   27.2821 O   0  0  0  0  0  0  0  0  0  0  0  0
  2  1  1  0
  2  4  1  0
  3  2  2  0
  5  4  1  0
  5  7  1  0
  5  6  1  6
  7  9  1  0
  7  8  2  0
  9 10  1  0
 10 14  1  0
 10 11  1  1
 12 13  2  0
 12 11  1  0
 14 21  1  0
 14 15  2  0
 16 12  1  0
 18 20  1  0
 18 17  1  6
 19 18  1  0
 20 22  1  0
 20 21  1  6
 22 24  1  0
 23 22  2  0
M  END
$$$$
