NDV.pdb
     RDKit          3D

 24 23  0  0  1  0  0  0  0  0999 V2000
    8.4904  -12.6998   17.0019 N   0  0  0  0  0  0  0  0  0  0  0  0
    7.7589  -13.8733   17.2733 C   0  0  0  0  0  0  0  0  0  0  0  0
    7.5414  -14.6905   16.3648 O   0  0  0  0  0  0  0  0  0  0  0  0
    7.2560  -14.1209   18.6423 C   0  0  0  0  0  0  0  0  0  0  0  0
    8.3618  -14.0008   19.6714 C   0  0  2  0  0  0  0  0  0  0  0  0
    9.4679  -14.8073   19.1971 N   0  0  0  0  0  0  0  0  0  0  0  0
    7.9603  -14.4710   20.9935 C   0  0  0  0  0  0  0  0  0  0  0  0
    6.9262  -14.0207   21.5412 O   0  0  0  0  0  0  0  0  0  0  0  0
    8.7025  -15.4566   21.7406 N   0  0  0  0  0  0  0  0  0  0  0  0
    8.2958  -15.8923   23.0448 C   0  0  1  0  0  0  0  0  0  0  0  0
    8.7736  -17.2998   23.2810 C   0  0  0  0  0  0  0  0  0  0  0  0
   10.2388  -17.4526   23.2572 C   0  0  0  0  0  0  0  0  0  0  0  0
   10.8598  -17.5774   24.3323 O   0  0  0  0  0  0  0  0  0  0  0  0
    8.6750  -14.9716   24.1254 C   0  0  0  0  0  0  0  0  0  0  0  0
    9.8322  -14.4771   24.0837 O   0  0  0  0  0  0  0  0  0  0  0  0
   10.9352  -17.4598   22.0700 O   0  0  0  0  0  0  0  0  0  0  0  0
    6.9890  -11.7360   25.3567 C   0  0  0  0  0  0  0  0  0  0  0  0
    7.2663  -12.6186   26.5578 C   0  0  1  0  0  0  0  0  0  0  0  0
    5.9584  -13.3034   26.8958 C   0  0  0  0  0  0  0  0  0  0  0  0
    8.2607  -13.6718   26.2109 C   0  0  2  0  0  0  0  0  0  0  0  0
    7.8631  -14.5932   25.2009 N   0  0  0  0  0  0  0  0  0  0  0  0
    8.5986  -14.4352   27.4387 C   0  0  0  0  0  0  0  0  0  0  0  0
    8.2838  -15.6700   27.5448 O   0  0  0  0  0  0  0  0  0  0  0  0
    9.2579  -13.9034   28.5346 O   0  0  0  0  0  0  0  0  0  0  0  0
  2  1  1  0
  2  4  1  0
  3  2  2  0
  5  4  1  0
  5  7  1  0
  5  6  1  6
  7  9  1  0
  7  8  2  0
  9 10  1  0
 10 14  1  0
 10 11  1  1
 12 13  2  0
 12 11  1  0
 14 21  1  0
 14 15  2  0
 16 12  1  0
 18 20  1  0
 18 17  1  6
 19 18  1  0
 20 22  1  0
 20 21  1  6
 22 24  1  0
 23 22  2  0
M  END
$$$$
