NDV.pdb
     RDKit          3D

 24 23  0  0  1  0  0  0  0  0999 V2000
    7.5477  -13.3639   16.6298 N   0  0  0  0  0  0  0  0  0  0  0  0
    8.2951  -13.2687   17.8207 C   0  0  0  0  0  0  0  0  0  0  0  0
    9.5070  -13.0056   17.7709 O   0  0  0  0  0  0  0  0  0  0  0  0
    7.6262  -13.4837   19.1225 C   0  0  0  0  0  0  0  0  0  0  0  0
    8.5362  -14.1928   20.1051 C   0  0  2  0  0  0  0  0  0  0  0  0
    8.9520  -15.4302   19.4767 N   0  0  0  0  0  0  0  0  0  0  0  0
    7.8769  -14.4979   21.3710 C   0  0  0  0  0  0  0  0  0  0  0  0
    7.1566  -13.6407   21.9352 O   0  0  0  0  0  0  0  0  0  0  0  0
    8.0038  -15.7685   22.0418 N   0  0  0  0  0  0  0  0  0  0  0  0
    7.4902  -15.9900   23.3621 C   0  0  1  0  0  0  0  0  0  0  0  0
    7.6012  -17.4499   23.7109 C   0  0  0  0  0  0  0  0  0  0  0  0
    6.8257  -18.3420   22.8314 C   0  0  0  0  0  0  0  0  0  0  0  0
    7.4181  -19.0107   21.9601 O   0  0  0  0  0  0  0  0  0  0  0  0
    8.0767  -15.1125   24.3843 C   0  0  0  0  0  0  0  0  0  0  0  0
    9.3303  -14.9952   24.3948 O   0  0  0  0  0  0  0  0  0  0  0  0
    5.4590  -18.4509   22.9532 O   0  0  0  0  0  0  0  0  0  0  0  0
    6.7300  -11.5218   25.3771 C   0  0  0  0  0  0  0  0  0  0  0  0
    7.1371  -12.2873   26.6209 C   0  0  1  0  0  0  0  0  0  0  0  0
    5.8551  -12.7894   27.2520 C   0  0  0  0  0  0  0  0  0  0  0  0
    7.9644  -13.4708   26.2559 C   0  0  2  0  0  0  0  0  0  0  0  0
    7.3652  -14.3924   25.3509 N   0  0  0  0  0  0  0  0  0  0  0  0
    8.3321  -14.1995   27.4961 C   0  0  0  0  0  0  0  0  0  0  0  0
    9.0524  -13.6386   28.3915 O   0  0  0  0  0  0  0  0  0  0  0  0
    7.9452  -15.4976   27.7853 O   0  0  0  0  0  0  0  0  0  0  0  0
  2  1  1  0
  2  4  1  0
  3  2  2  0
  5  4  1  0
  5  7  1  0
  5  6  1  6
  7  9  1  0
  7  8  2  0
  9 10  1  0
 10 14  1  0
 10 11  1  1
 12 13  2  0
 12 11  1  0
 14 21  1  0
 14 15  2  0
 16 12  1  0
 18 20  1  0
 18 17  1  6
 19 18  1  0
 20 22  1  0
 20 21  1  6
 22 24  1  0
 23 22  2  0
M  END
$$$$
