NDV.pdb
     RDKit          3D

 24 23  0  0  1  0  0  0  0  0999 V2000
    8.5511  -14.3749   16.2075 N   0  0  0  0  0  0  0  0  0  0  0  0
    8.1760  -14.4890   17.5610 C   0  0  0  0  0  0  0  0  0  0  0  0
    8.3491  -15.5607   18.1626 O   0  0  0  0  0  0  0  0  0  0  0  0
    7.5778  -13.3269   18.2540 C   0  0  0  0  0  0  0  0  0  0  0  0
    8.3078  -13.0124   19.5442 C   0  0  2  0  0  0  0  0  0  0  0  0
    9.7253  -13.0578   19.2479 N   0  0  0  0  0  0  0  0  0  0  0  0
    8.0119  -13.9642   20.6104 C   0  0  0  0  0  0  0  0  0  0  0  0
    6.8330  -14.1329   21.0025 O   0  0  0  0  0  0  0  0  0  0  0  0
    9.0241  -14.7537   21.2681 N   0  0  0  0  0  0  0  0  0  0  0  0
    8.7292  -15.5869   22.3972 C   0  0  1  0  0  0  0  0  0  0  0  0
    9.5440  -16.8501   22.3217 C   0  0  0  0  0  0  0  0  0  0  0  0
    9.3845  -17.7423   23.4832 C   0  0  0  0  0  0  0  0  0  0  0  0
    8.3068  -18.3499   23.6463 O   0  0  0  0  0  0  0  0  0  0  0  0
    8.8551  -14.9026   23.6914 C   0  0  0  0  0  0  0  0  0  0  0  0
    9.9998  -14.4942   24.0201 O   0  0  0  0  0  0  0  0  0  0  0  0
   10.4031  -17.9176   24.3923 O   0  0  0  0  0  0  0  0  0  0  0  0
    7.1192  -12.2801   27.4384 C   0  0  0  0  0  0  0  0  0  0  0  0
    6.7737  -13.1467   26.2434 C   0  0  1  0  0  0  0  0  0  0  0  0
    6.3957  -12.1993   25.1238 C   0  0  0  0  0  0  0  0  0  0  0  0
    7.9645  -13.9260   25.8042 C   0  0  2  0  0  0  0  0  0  0  0  0
    7.8136  -14.6628   24.5951 N   0  0  0  0  0  0  0  0  0  0  0  0
    8.3463  -14.8686   26.8859 C   0  0  0  0  0  0  0  0  0  0  0  0
    7.8619  -16.0515   26.9196 O   0  0  0  0  0  0  0  0  0  0  0  0
    9.2246  -14.5667   27.9135 O   0  0  0  0  0  0  0  0  0  0  0  0
  2  1  1  0
  2  4  1  0
  3  2  2  0
  5  4  1  0
  5  7  1  0
  5  6  1  6
  7  9  1  0
  7  8  2  0
  9 10  1  0
 10 14  1  0
 10 11  1  1
 12 13  2  0
 12 11  1  0
 14 21  1  0
 14 15  2  0
 16 12  1  0
 18 20  1  0
 18 17  1  1
 19 18  1  0
 20 22  1  0
 20 21  1  6
 22 24  1  0
 23 22  2  0
M  END
$$$$
