NDV.pdb
     RDKit          3D

 24 23  0  0  1  0  0  0  0  0999 V2000
    9.2818  -13.6813   17.0674 N   0  0  0  0  0  0  0  0  0  0  0  0
    7.8858  -13.7909   17.2257 C   0  0  0  0  0  0  0  0  0  0  0  0
    7.1592  -13.9276   16.2288 O   0  0  0  0  0  0  0  0  0  0  0  0
    7.2981  -13.7419   18.5824 C   0  0  0  0  0  0  0  0  0  0  0  0
    8.3645  -13.5670   19.6446 C   0  0  2  0  0  0  0  0  0  0  0  0
    9.5887  -14.1263   19.1086 N   0  0  0  0  0  0  0  0  0  0  0  0
    8.0369  -14.2451   20.8949 C   0  0  0  0  0  0  0  0  0  0  0  0
    6.9542  -14.0087   21.4814 O   0  0  0  0  0  0  0  0  0  0  0  0
    8.9091  -15.2058   21.5248 N   0  0  0  0  0  0  0  0  0  0  0  0
    8.6000  -15.8033   22.7910 C   0  0  1  0  0  0  0  0  0  0  0  0
    9.2415  -17.1618   22.8807 C   0  0  0  0  0  0  0  0  0  0  0  0
    8.8566  -18.0845   21.7985 C   0  0  0  0  0  0  0  0  0  0  0  0
    7.6508  -18.3528   21.6213 O   0  0  0  0  0  0  0  0  0  0  0  0
    8.9103  -14.9480   23.9448 C   0  0  0  0  0  0  0  0  0  0  0  0
   10.0737  -14.4716   24.0146 O   0  0  0  0  0  0  0  0  0  0  0  0
    9.8034  -18.6564   20.9793 O   0  0  0  0  0  0  0  0  0  0  0  0
    7.3161  -11.7214   25.1690 C   0  0  0  0  0  0  0  0  0  0  0  0
    7.4091  -12.6604   26.3557 C   0  0  1  0  0  0  0  0  0  0  0  0
    6.0318  -13.2657   26.5303 C   0  0  0  0  0  0  0  0  0  0  0  0
    8.3649  -13.7664   26.0702 C   0  0  2  0  0  0  0  0  0  0  0  0
    8.0262  -14.6137   24.9771 N   0  0  0  0  0  0  0  0  0  0  0  0
    8.5076  -14.6031   27.2884 C   0  0  0  0  0  0  0  0  0  0  0  0
    8.0731  -15.8056   27.3067 O   0  0  0  0  0  0  0  0  0  0  0  0
    9.0994  -14.1769   28.4659 O   0  0  0  0  0  0  0  0  0  0  0  0
  2  1  1  0
  2  4  1  0
  3  2  2  0
  5  4  1  0
  5  7  1  0
  5  6  1  6
  7  9  1  0
  7  8  2  0
  9 10  1  0
 10 14  1  0
 10 11  1  1
 12 13  2  0
 12 11  1  0
 14 21  1  0
 14 15  2  0
 16 12  1  0
 18 20  1  0
 18 17  1  6
 19 18  1  0
 20 22  1  0
 20 21  1  6
 22 24  1  0
 23 22  2  0
M  END
$$$$
