NDV.pdb
     RDKit          3D

 24 23  0  0  1  0  0  0  0  0999 V2000
    7.8145  -12.7576   16.2851 N   0  0  0  0  0  0  0  0  0  0  0  0
    8.2520  -13.8410   17.0728 C   0  0  0  0  0  0  0  0  0  0  0  0
    9.1083  -14.6222   16.6292 O   0  0  0  0  0  0  0  0  0  0  0  0
    7.6849  -14.0375   18.4250 C   0  0  0  0  0  0  0  0  0  0  0  0
    8.7601  -13.9878   19.4917 C   0  0  2  0  0  0  0  0  0  0  0  0
    9.9048  -14.7062   18.9697 N   0  0  0  0  0  0  0  0  0  0  0  0
    8.3424  -14.6029   20.7478 C   0  0  0  0  0  0  0  0  0  0  0  0
    7.2790  -14.2454   21.3077 O   0  0  0  0  0  0  0  0  0  0  0  0
    9.1005  -15.6339   21.4132 N   0  0  0  0  0  0  0  0  0  0  0  0
    8.7523  -16.1169   22.7175 C   0  0  1  0  0  0  0  0  0  0  0  0
    9.4441  -17.4287   22.9738 C   0  0  0  0  0  0  0  0  0  0  0  0
    9.1114  -18.4869   22.0041 C   0  0  0  0  0  0  0  0  0  0  0  0
    8.0275  -19.0963   22.1092 O   0  0  0  0  0  0  0  0  0  0  0  0
    8.9677  -15.1382   23.7922 C   0  0  0  0  0  0  0  0  0  0  0  0
   10.1573  -14.8165   24.0507 O   0  0  0  0  0  0  0  0  0  0  0  0
    9.9751  -18.8159   20.9841 O   0  0  0  0  0  0  0  0  0  0  0  0
    5.9125  -13.3420   26.4441 C   0  0  0  0  0  0  0  0  0  0  0  0
    7.1394  -12.6328   25.9052 C   0  0  1  0  0  0  0  0  0  0  0  0
    7.6211  -11.7143   27.0090 C   0  0  0  0  0  0  0  0  0  0  0  0
    8.2227  -13.6136   25.6173 C   0  0  2  0  0  0  0  0  0  0  0  0
    7.9665  -14.5290   24.5572 N   0  0  0  0  0  0  0  0  0  0  0  0
    8.5078  -14.3890   26.8510 C   0  0  0  0  0  0  0  0  0  0  0  0
    8.0220  -15.5611   27.0099 O   0  0  0  0  0  0  0  0  0  0  0  0
    9.2925  -13.9341   27.8977 O   0  0  0  0  0  0  0  0  0  0  0  0
  2  1  1  0
  2  4  1  0
  3  2  2  0
  5  4  1  0
  5  7  1  0
  5  6  1  6
  7  9  1  0
  7  8  2  0
  9 10  1  0
 10 14  1  0
 10 11  1  1
 12 13  2  0
 12 11  1  0
 14 21  1  0
 14 15  2  0
 16 12  1  0
 18 20  1  0
 18 17  1  1
 19 18  1  0
 20 22  1  0
 20 21  1  6
 22 24  1  0
 23 22  2  0
M  END
$$$$
