NDV.pdb
     RDKit          3D

 24 23  0  0  1  0  0  0  0  0999 V2000
    9.2606  -13.1244   17.3065 N   0  0  0  0  0  0  0  0  0  0  0  0
    7.9013  -13.4915   17.3653 C   0  0  0  0  0  0  0  0  0  0  0  0
    7.2390  -13.5809   16.3195 O   0  0  0  0  0  0  0  0  0  0  0  0
    7.2750  -13.7678   18.6768 C   0  0  0  0  0  0  0  0  0  0  0  0
    8.2584  -13.5777   19.8139 C   0  0  2  0  0  0  0  0  0  0  0  0
    9.5442  -14.0500   19.3423 N   0  0  0  0  0  0  0  0  0  0  0  0
    7.8880  -14.3201   21.0148 C   0  0  0  0  0  0  0  0  0  0  0  0
    6.7748  -14.1320   21.5601 O   0  0  0  0  0  0  0  0  0  0  0  0
    8.7504  -15.2928   21.6398 N   0  0  0  0  0  0  0  0  0  0  0  0
    8.4477  -15.8750   22.9146 C   0  0  1  0  0  0  0  0  0  0  0  0
    9.0569  -17.2484   23.0024 C   0  0  0  0  0  0  0  0  0  0  0  0
    8.8384  -17.9251   24.2928 C   0  0  0  0  0  0  0  0  0  0  0  0
    7.6903  -17.9598   24.7803 O   0  0  0  0  0  0  0  0  0  0  0  0
    8.7980  -15.0207   24.0578 C   0  0  0  0  0  0  0  0  0  0  0  0
   10.0046  -14.6812   24.1769 O   0  0  0  0  0  0  0  0  0  0  0  0
    9.8784  -18.5195   24.9707 O   0  0  0  0  0  0  0  0  0  0  0  0
    7.2842  -11.6568   25.3964 C   0  0  0  0  0  0  0  0  0  0  0  0
    7.3877  -12.6581   26.5301 C   0  0  1  0  0  0  0  0  0  0  0  0
    5.9998  -13.2342   26.7192 C   0  0  0  0  0  0  0  0  0  0  0  0
    8.3018  -13.7733   26.1574 C   0  0  2  0  0  0  0  0  0  0  0  0
    7.9085  -14.5486   25.0298 N   0  0  0  0  0  0  0  0  0  0  0  0
    8.4524  -14.6799   27.3234 C   0  0  0  0  0  0  0  0  0  0  0  0
    8.0069  -15.8777   27.2784 O   0  0  0  0  0  0  0  0  0  0  0  0
    9.0631  -14.3274   28.5155 O   0  0  0  0  0  0  0  0  0  0  0  0
  2  1  1  0
  2  4  1  0
  3  2  2  0
  5  4  1  0
  5  7  1  0
  5  6  1  6
  7  9  1  0
  7  8  2  0
  9 10  1  0
 10 14  1  0
 10 11  1  1
 12 13  2  0
 12 11  1  0
 14 21  1  0
 14 15  2  0
 16 12  1  0
 18 20  1  0
 18 17  1  6
 19 18  1  0
 20 22  1  0
 20 21  1  6
 22 24  1  0
 23 22  2  0
M  END
$$$$
