EYQ.pdb
     RDKit          3D

 31 31  0  0  1  0  0  0  0  0999 V2000
   28.6091  -23.7272  -17.6845 N   0  0  0  0  0  0  0  0  0  0  0  0
   27.9780  -22.3874  -17.6488 C   0  0  1  0  0  0  0  0  0  0  0  0
   27.4900  -22.1423  -19.0320 C   0  0  0  0  0  0  0  0  0  0  0  0
   28.5204  -21.8885  -20.0715 C   0  0  0  0  0  0  0  0  0  0  0  0
   29.0198  -20.4762  -19.9095 C   0  0  0  0  0  0  0  0  0  0  0  0
   28.1991  -19.5443  -19.7741 O   0  0  0  0  0  0  0  0  0  0  0  0
   26.9650  -22.4516  -16.6000 C   0  0  0  0  0  0  0  0  0  0  0  0
   26.3018  -23.4805  -16.3051 O   0  0  0  0  0  0  0  0  0  0  0  0
   30.3744  -20.1799  -19.9063 O   0  0  0  0  0  0  0  0  0  0  0  0
   22.4693  -20.8480   -9.4854 O   0  0  0  0  0  0  0  0  0  0  0  0
   23.3351  -20.6874  -10.5495 C   0  0  0  0  0  0  0  0  0  0  0  0
   24.5316  -21.3765  -10.5342 C   0  0  0  0  0  0  0  0  0  0  0  0
   25.4239  -21.2444  -11.5765 C   0  0  0  0  0  0  0  0  0  0  0  0
   25.0895  -20.4143  -12.6204 C   0  0  0  0  0  0  0  0  0  0  0  0
   26.0745  -20.2890  -13.7367 C   0  0  0  0  0  0  0  0  0  0  0  0
   25.6549  -21.2902  -14.7977 C   0  0  2  0  0  0  0  0  0  0  0  0
   26.6615  -21.3026  -15.8192 N   0  0  0  0  0  0  0  0  0  0  0  0
   24.3140  -20.9720  -15.2344 C   0  0  0  0  0  0  0  0  0  0  0  0
   24.0347  -19.9331  -15.8684 O   0  0  0  0  0  0  0  0  0  0  0  0
   23.9117  -19.7159  -12.6681 C   0  0  0  0  0  0  0  0  0  0  0  0
   23.0343  -19.8718  -11.6008 C   0  0  0  0  0  0  0  0  0  0  0  0
   18.9752  -21.9088  -17.4575 N   0  0  0  0  0  0  0  0  0  0  0  0
   20.1740  -21.9589  -18.2296 C   0  0  0  0  0  0  0  0  0  0  0  0
   20.0637  -21.7191  -19.4751 O   0  0  0  0  0  0  0  0  0  0  0  0
   21.4886  -22.2618  -17.6477 C   0  0  0  0  0  0  0  0  0  0  0  0
   21.4153  -22.5445  -16.2103 C   0  0  0  0  0  0  0  0  0  0  0  0
   21.8391  -21.4844  -15.2364 C   0  0  2  0  0  0  0  0  0  0  0  0
   23.2584  -21.8653  -14.9399 N   0  0  0  0  0  0  0  0  0  0  0  0
   21.0934  -21.4627  -13.9745 C   0  0  0  0  0  0  0  0  0  0  0  0
   20.0542  -20.5854  -13.7173 O   0  0  0  0  0  0  0  0  0  0  0  0
   21.3987  -22.2811  -13.0559 O   0  0  0  0  0  0  0  0  0  0  0  0
  2  1  1  6
  2  3  1  0
  3  4  1  0
  5  9  1  0
  5  4  1  0
  6  5  2  0
  7  2  1  0
  8  7  2  0
 10 11  1  0
 11 12  2  0
 12 13  1  0
 14 15  1  0
 14 13  2  0
 16 15  1  1
 16 17  1  0
 17  7  1  0
 18 28  1  0
 18 16  1  0
 19 18  2  0
 20 14  1  0
 21 20  2  0
 21 11  1  0
 22 23  1  0
 23 25  1  0
 24 23  2  0
 25 26  1  0
 27 26  1  6
 27 29  1  0
 27 28  1  0
 29 30  1  0
 31 29  2  0
M  END
$$$$
