EYQ.pdb
     RDKit          3D

 31 31  0  0  1  0  0  0  0  0999 V2000
   28.0848   -9.0918  -23.2740 N   0  0  0  0  0  0  0  0  0  0  0  0
   27.5981   -9.7803  -22.0560 C   0  0  1  0  0  0  0  0  0  0  0  0
   28.8197  -10.2626  -21.3585 C   0  0  0  0  0  0  0  0  0  0  0  0
   29.4291  -11.5191  -21.8650 C   0  0  0  0  0  0  0  0  0  0  0  0
   28.7192  -12.6829  -21.2231 C   0  0  0  0  0  0  0  0  0  0  0  0
   27.8591  -12.4701  -20.3426 O   0  0  0  0  0  0  0  0  0  0  0  0
   26.7822   -8.8018  -21.3439 C   0  0  0  0  0  0  0  0  0  0  0  0
   27.2144   -7.7216  -20.8626 O   0  0  0  0  0  0  0  0  0  0  0  0
   28.9957  -13.9926  -21.5850 O   0  0  0  0  0  0  0  0  0  0  0  0
   25.1569   -3.9512  -25.0349 O   0  0  0  0  0  0  0  0  0  0  0  0
   24.7250   -4.9235  -24.1541 C   0  0  0  0  0  0  0  0  0  0  0  0
   24.1365   -4.5247  -22.9704 C   0  0  0  0  0  0  0  0  0  0  0  0
   23.6916   -5.4630  -22.0639 C   0  0  0  0  0  0  0  0  0  0  0  0
   23.8504   -6.7937  -22.3713 C   0  0  0  0  0  0  0  0  0  0  0  0
   23.3599   -7.7896  -21.3714 C   0  0  0  0  0  0  0  0  0  0  0  0
   24.5347   -8.1044  -20.4630 C   0  0  2  0  0  0  0  0  0  0  0  0
   25.3918   -9.0271  -21.1494 N   0  0  0  0  0  0  0  0  0  0  0  0
   24.0287   -8.5437  -19.1820 C   0  0  0  0  0  0  0  0  0  0  0  0
   23.8054   -9.7429  -18.9150 O   0  0  0  0  0  0  0  0  0  0  0  0
   24.4296   -7.2247  -23.5358 C   0  0  0  0  0  0  0  0  0  0  0  0
   24.8672   -6.2523  -24.4282 C   0  0  0  0  0  0  0  0  0  0  0  0
   22.7704   -4.1954  -14.9234 N   0  0  0  0  0  0  0  0  0  0  0  0
   22.5057   -5.3746  -14.1651 C   0  0  0  0  0  0  0  0  0  0  0  0
   22.0479   -5.2085  -12.9888 O   0  0  0  0  0  0  0  0  0  0  0  0
   22.7317   -6.7292  -14.6869 C   0  0  0  0  0  0  0  0  0  0  0  0
   23.2221   -6.7244  -16.0693 C   0  0  0  0  0  0  0  0  0  0  0  0
   23.3260   -8.0252  -16.8103 C   0  0  2  0  0  0  0  0  0  0  0  0
   23.7692   -7.5870  -18.1738 N   0  0  0  0  0  0  0  0  0  0  0  0
   22.0687   -8.7660  -16.9492 C   0  0  0  0  0  0  0  0  0  0  0  0
   21.7477   -9.8745  -16.1852 O   0  0  0  0  0  0  0  0  0  0  0  0
   21.2152   -8.3900  -17.8078 O   0  0  0  0  0  0  0  0  0  0  0  0
  2  1  1  6
  2  3  1  0
  3  4  1  0
  5  9  1  0
  5  4  1  0
  6  5  2  0
  7  2  1  0
  8  7  2  0
 10 11  1  0
 11 12  2  0
 12 13  1  0
 14 15  1  0
 14 13  2  0
 16 15  1  6
 16 17  1  0
 17  7  1  0
 18 28  1  0
 18 16  1  0
 19 18  2  0
 20 14  1  0
 21 20  2  0
 21 11  1  0
 22 23  1  0
 23 25  1  0
 24 23  2  0
 25 26  1  0
 27 26  1  1
 27 29  1  0
 27 28  1  0
 29 30  1  0
 31 29  2  0
M  END
$$$$
