EYQ.pdb
     RDKit          3D

 31 31  0  0  1  0  0  0  0  0999 V2000
   27.3929  -23.3842  -17.0485 N   0  0  0  0  0  0  0  0  0  0  0  0
   27.0562  -21.9657  -16.7855 C   0  0  1  0  0  0  0  0  0  0  0  0
   26.3113  -21.5059  -17.9877 C   0  0  0  0  0  0  0  0  0  0  0  0
   27.0929  -21.3476  -19.2410 C   0  0  0  0  0  0  0  0  0  0  0  0
   28.0406  -20.1894  -19.0658 C   0  0  0  0  0  0  0  0  0  0  0  0
   29.2599  -20.4096  -18.9074 O   0  0  0  0  0  0  0  0  0  0  0  0
   26.3266  -21.9568  -15.5215 C   0  0  0  0  0  0  0  0  0  0  0  0
   25.2796  -22.6177  -15.2928 O   0  0  0  0  0  0  0  0  0  0  0  0
   27.5941  -18.8766  -19.0757 O   0  0  0  0  0  0  0  0  0  0  0  0
   24.2160  -20.2621   -7.3179 O   0  0  0  0  0  0  0  0  0  0  0  0
   24.9179  -20.3394   -8.5049 C   0  0  0  0  0  0  0  0  0  0  0  0
   24.8769  -19.2604   -9.3653 C   0  0  0  0  0  0  0  0  0  0  0  0
   25.5634  -19.2968  -10.5601 C   0  0  0  0  0  0  0  0  0  0  0  0
   26.2823  -20.4284  -10.8653 C   0  0  0  0  0  0  0  0  0  0  0  0
   27.0165  -20.4416  -12.1664 C   0  0  0  0  0  0  0  0  0  0  0  0
   26.0803  -21.0669  -13.1846 C   0  0  2  0  0  0  0  0  0  0  0  0
   26.7824  -21.1659  -14.4313 N   0  0  0  0  0  0  0  0  0  0  0  0
   24.8482  -20.3112  -13.2106 C   0  0  0  0  0  0  0  0  0  0  0  0
   24.7681  -19.1588  -13.6849 O   0  0  0  0  0  0  0  0  0  0  0  0
   26.3449  -21.5168  -10.0354 C   0  0  0  0  0  0  0  0  0  0  0  0
   25.6411  -21.4471   -8.8383 C   0  0  0  0  0  0  0  0  0  0  0  0
   20.9478  -21.7581  -16.5598 N   0  0  0  0  0  0  0  0  0  0  0  0
   20.2543  -20.6554  -15.9776 C   0  0  0  0  0  0  0  0  0  0  0  0
   19.2136  -20.2471  -16.5867 O   0  0  0  0  0  0  0  0  0  0  0  0
   20.6876  -20.0040  -14.7340 C   0  0  0  0  0  0  0  0  0  0  0  0
   21.8419  -20.6714  -14.1227 C   0  0  0  0  0  0  0  0  0  0  0  0
   22.3575  -20.1736  -12.8042 C   0  0  2  0  0  0  0  0  0  0  0  0
   23.6706  -20.8861  -12.6797 N   0  0  0  0  0  0  0  0  0  0  0  0
   21.5331  -20.5181  -11.6420 C   0  0  0  0  0  0  0  0  0  0  0  0
   20.3299  -19.8996  -11.3496 O   0  0  0  0  0  0  0  0  0  0  0  0
   21.9225  -21.4271  -10.8489 O   0  0  0  0  0  0  0  0  0  0  0  0
  2  1  1  6
  2  3  1  0
  3  4  1  0
  5  9  1  0
  5  4  1  0
  6  5  2  0
  7  2  1  0
  8  7  2  0
 10 11  1  0
 11 12  2  0
 12 13  1  0
 14 15  1  0
 14 13  2  0
 16 15  1  1
 16 17  1  0
 17  7  1  0
 18 28  1  0
 18 16  1  0
 19 18  2  0
 20 14  1  0
 21 20  2  0
 21 11  1  0
 22 23  1  0
 23 25  1  0
 24 23  2  0
 25 26  1  0
 27 26  1  6
 27 29  1  0
 27 28  1  0
 29 30  1  0
 31 29  2  0
M  END
$$$$
