EYQ.pdb
     RDKit          3D

 31 31  0  0  1  0  0  0  0  0999 V2000
   43.8417   -5.9381   -5.3334 N   0  0  0  0  0  0  0  0  0  0  0  0
   42.5261   -6.5945   -5.5153 C   0  0  1  0  0  0  0  0  0  0  0  0
   41.6277   -5.5388   -6.0536 C   0  0  0  0  0  0  0  0  0  0  0  0
   41.3134   -4.4014   -5.1513 C   0  0  0  0  0  0  0  0  0  0  0  0
   40.1296   -3.6605   -5.7169 C   0  0  0  0  0  0  0  0  0  0  0  0
   39.3357   -4.2555   -6.4759 O   0  0  0  0  0  0  0  0  0  0  0  0
   42.7710   -7.7465   -6.3773 C   0  0  0  0  0  0  0  0  0  0  0  0
   43.5424   -7.7468   -7.3724 O   0  0  0  0  0  0  0  0  0  0  0  0
   39.8949   -2.3273   -5.4163 O   0  0  0  0  0  0  0  0  0  0  0  0
   47.5599  -11.0947   -4.0325 O   0  0  0  0  0  0  0  0  0  0  0  0
   46.2988  -11.1757   -4.5899 C   0  0  0  0  0  0  0  0  0  0  0  0
   45.2271  -10.6910   -3.8667 C   0  0  0  0  0  0  0  0  0  0  0  0
   43.9520  -10.7526   -4.3865 C   0  0  0  0  0  0  0  0  0  0  0  0
   43.7820  -11.3056   -5.6339 C   0  0  0  0  0  0  0  0  0  0  0  0
   42.3899  -11.3604   -6.1734 C   0  0  0  0  0  0  0  0  0  0  0  0
   42.2025  -10.1099   -7.0133 C   0  0  2  0  0  0  0  0  0  0  0  0
   42.1224   -8.9865   -6.1253 N   0  0  0  0  0  0  0  0  0  0  0  0
   41.0709  -10.3038   -7.8919 C   0  0  0  0  0  0  0  0  0  0  0  0
   39.9121  -10.5052   -7.4726 O   0  0  0  0  0  0  0  0  0  0  0  0
   44.8222  -11.7959   -6.3788 C   0  0  0  0  0  0  0  0  0  0  0  0
   46.0952  -11.7182   -5.8249 C   0  0  0  0  0  0  0  0  0  0  0  0
   39.1937   -6.1501  -10.6750 N   0  0  0  0  0  0  0  0  0  0  0  0
   38.5160   -7.0889  -11.5087 C   0  0  0  0  0  0  0  0  0  0  0  0
   37.7044   -6.6124  -12.3660 O   0  0  0  0  0  0  0  0  0  0  0  0
   38.7258   -8.5400  -11.4147 C   0  0  0  0  0  0  0  0  0  0  0  0
   39.7350   -8.8982  -10.4123 C   0  0  0  0  0  0  0  0  0  0  0  0
   40.0922  -10.3432  -10.2217 C   0  0  2  0  0  0  0  0  0  0  0  0
   41.2656  -10.2672   -9.2919 N   0  0  0  0  0  0  0  0  0  0  0  0
   40.5109  -11.0477  -11.4372 C   0  0  0  0  0  0  0  0  0  0  0  0
   39.6307  -11.4553  -12.4246 O   0  0  0  0  0  0  0  0  0  0  0  0
   41.7387  -11.3082  -11.6151 O   0  0  0  0  0  0  0  0  0  0  0  0
  2  1  1  6
  2  3  1  0
  3  4  1  0
  5  9  1  0
  5  4  1  0
  6  5  2  0
  7  2  1  0
  8  7  2  0
 10 11  1  0
 11 12  2  0
 12 13  1  0
 14 15  1  0
 14 13  2  0
 16 15  1  1
 16 17  1  0
 17  7  1  0
 18 28  1  0
 18 16  1  0
 19 18  2  0
 20 14  1  0
 21 20  2  0
 21 11  1  0
 22 23  1  0
 23 25  1  0
 24 23  2  0
 25 26  1  0
 27 26  1  6
 27 29  1  0
 27 28  1  0
 29 30  1  0
 31 29  2  0
M  END
$$$$
