EYQ.pdb
     RDKit          3D

 31 31  0  0  1  0  0  0  0  0999 V2000
   27.2898  -21.8619  -16.2891 N   0  0  0  0  0  0  0  0  0  0  0  0
   26.4354  -20.7017  -15.9449 C   0  0  1  0  0  0  0  0  0  0  0  0
   25.6190  -20.4367  -17.1593 C   0  0  0  0  0  0  0  0  0  0  0  0
   26.3113  -19.7939  -18.3057 C   0  0  0  0  0  0  0  0  0  0  0  0
   26.2814  -18.3014  -18.1014 C   0  0  0  0  0  0  0  0  0  0  0  0
   26.6715  -17.8201  -17.0167 O   0  0  0  0  0  0  0  0  0  0  0  0
   25.7080  -21.0859  -14.7394 C   0  0  0  0  0  0  0  0  0  0  0  0
   25.4020  -22.2680  -14.4321 O   0  0  0  0  0  0  0  0  0  0  0  0
   25.8300  -17.4410  -19.0907 O   0  0  0  0  0  0  0  0  0  0  0  0
   30.4232  -21.3210  -11.0016 O   0  0  0  0  0  0  0  0  0  0  0  0
   29.1015  -20.9301  -11.0915 C   0  0  0  0  0  0  0  0  0  0  0  0
   28.7701  -19.9304  -11.9844 C   0  0  0  0  0  0  0  0  0  0  0  0
   27.4627  -19.5107  -12.1051 C   0  0  0  0  0  0  0  0  0  0  0  0
   26.5092  -20.1116  -11.3175 C   0  0  0  0  0  0  0  0  0  0  0  0
   25.1004  -19.6377  -11.4680 C   0  0  0  0  0  0  0  0  0  0  0  0
   24.5101  -20.4020  -12.6391 C   0  0  2  0  0  0  0  0  0  0  0  0
   25.2892  -20.0995  -13.8046 N   0  0  0  0  0  0  0  0  0  0  0  0
   23.0984  -20.1033  -12.7266 C   0  0  0  0  0  0  0  0  0  0  0  0
   22.6517  -18.9377  -12.7627 O   0  0  0  0  0  0  0  0  0  0  0  0
   26.8025  -21.1059  -10.4215 C   0  0  0  0  0  0  0  0  0  0  0  0
   28.1308  -21.5055  -10.3248 C   0  0  0  0  0  0  0  0  0  0  0  0
   20.7013  -21.9554  -17.1097 N   0  0  0  0  0  0  0  0  0  0  0  0
   19.6921  -21.0212  -16.7297 C   0  0  0  0  0  0  0  0  0  0  0  0
   18.7278  -20.8567  -17.5444 O   0  0  0  0  0  0  0  0  0  0  0  0
   19.7283  -20.2744  -15.4650 C   0  0  0  0  0  0  0  0  0  0  0  0
   20.9190  -20.5808  -14.6652 C   0  0  0  0  0  0  0  0  0  0  0  0
   20.7545  -20.9148  -13.2115 C   0  0  2  0  0  0  0  0  0  0  0  0
   22.1664  -21.1655  -12.7746 N   0  0  0  0  0  0  0  0  0  0  0  0
   19.9644  -22.1179  -12.9335 C   0  0  0  0  0  0  0  0  0  0  0  0
   20.5159  -23.3815  -12.8111 O   0  0  0  0  0  0  0  0  0  0  0  0
   18.7083  -22.0204  -12.7941 O   0  0  0  0  0  0  0  0  0  0  0  0
  2  1  1  6
  2  3  1  0
  3  4  1  0
  5  9  1  0
  5  4  1  0
  6  5  2  0
  7  2  1  0
  8  7  2  0
 10 11  1  0
 11 12  2  0
 12 13  1  0
 14 15  1  0
 14 13  2  0
 16 15  1  1
 16 17  1  0
 17  7  1  0
 18 28  1  0
 18 16  1  0
 19 18  2  0
 20 14  1  0
 21 20  2  0
 21 11  1  0
 22 23  1  0
 23 25  1  0
 24 23  2  0
 25 26  1  0
 27 26  1  6
 27 29  1  0
 27 28  1  0
 29 30  1  0
 31 29  2  0
M  END
$$$$
