EYQ.pdb
     RDKit          3D

 31 31  0  0  1  0  0  0  0  0999 V2000
   31.2637  -33.6194  -16.5580 N   0  0  0  0  0  0  0  0  0  0  0  0
   30.9416  -32.1740  -16.5978 C   0  0  1  0  0  0  0  0  0  0  0  0
   31.9758  -31.5615  -17.4734 C   0  0  0  0  0  0  0  0  0  0  0  0
   33.3167  -31.3402  -16.8737 C   0  0  0  0  0  0  0  0  0  0  0  0
   34.1518  -30.5586  -17.8546 C   0  0  0  0  0  0  0  0  0  0  0  0
   33.6170  -29.6646  -18.5438 O   0  0  0  0  0  0  0  0  0  0  0  0
   29.5595  -32.0860  -17.0587 C   0  0  0  0  0  0  0  0  0  0  0  0
   29.0280  -32.8715  -17.8868 O   0  0  0  0  0  0  0  0  0  0  0  0
   35.5068  -30.8057  -18.0147 O   0  0  0  0  0  0  0  0  0  0  0  0
   26.1554  -36.5759  -14.6514 O   0  0  0  0  0  0  0  0  0  0  0  0
   26.2046  -35.2261  -14.9399 C   0  0  0  0  0  0  0  0  0  0  0  0
   27.1536  -34.4511  -14.3033 C   0  0  0  0  0  0  0  0  0  0  0  0
   27.2365  -33.0999  -14.5627 C   0  0  0  0  0  0  0  0  0  0  0  0
   26.3546  -32.5535  -15.4652 C   0  0  0  0  0  0  0  0  0  0  0  0
   26.4660  -31.0870  -15.7277 C   0  0  0  0  0  0  0  0  0  0  0  0
   27.3282  -30.9342  -16.9676 C   0  0  2  0  0  0  0  0  0  0  0  0
   28.7009  -31.0622  -16.5723 N   0  0  0  0  0  0  0  0  0  0  0  0
   26.9737  -29.7006  -17.6327 C   0  0  0  0  0  0  0  0  0  0  0  0
   27.6007  -28.6338  -17.4647 O   0  0  0  0  0  0  0  0  0  0  0  0
   25.4010  -33.2924  -16.1147 C   0  0  0  0  0  0  0  0  0  0  0  0
   25.3447  -34.6523  -15.8300 C   0  0  0  0  0  0  0  0  0  0  0  0
   24.2680  -27.9353  -24.1307 N   0  0  0  0  0  0  0  0  0  0  0  0
   24.6386  -28.6421  -22.9480 C   0  0  0  0  0  0  0  0  0  0  0  0
   24.3700  -29.8861  -22.9162 O   0  0  0  0  0  0  0  0  0  0  0  0
   25.3051  -27.9993  -21.8073 C   0  0  0  0  0  0  0  0  0  0  0  0
   25.5846  -28.9396  -20.7169 C   0  0  0  0  0  0  0  0  0  0  0  0
   25.5496  -28.4446  -19.3006 C   0  0  2  0  0  0  0  0  0  0  0  0
   25.8705  -29.6815  -18.5168 N   0  0  0  0  0  0  0  0  0  0  0  0
   24.2507  -27.9360  -18.8497 C   0  0  0  0  0  0  0  0  0  0  0  0
   23.8728  -26.6087  -18.9546 O   0  0  0  0  0  0  0  0  0  0  0  0
   23.4135  -28.7355  -18.3332 O   0  0  0  0  0  0  0  0  0  0  0  0
  2  1  1  6
  2  3  1  0
  3  4  1  0
  5  9  1  0
  5  4  1  0
  6  5  2  0
  7  2  1  0
  8  7  2  0
 10 11  1  0
 11 12  2  0
 12 13  1  0
 14 15  1  0
 14 13  2  0
 16 15  1  1
 16 17  1  0
 17  7  1  0
 18 28  1  0
 18 16  1  0
 19 18  2  0
 20 14  1  0
 21 20  2  0
 21 11  1  0
 22 23  1  0
 23 25  1  0
 24 23  2  0
 25 26  1  0
 27 26  1  6
 27 29  1  0
 27 28  1  0
 29 30  1  0
 31 29  2  0
M  END
$$$$
