EYQ.pdb
     RDKit          3D

 31 31  0  0  1  0  0  0  0  0999 V2000
   25.7894  -23.2799  -14.8456 N   0  0  0  0  0  0  0  0  0  0  0  0
   24.5464  -22.4978  -15.0408 C   0  0  1  0  0  0  0  0  0  0  0  0
   23.5398  -23.1229  -14.1422 C   0  0  0  0  0  0  0  0  0  0  0  0
   22.9145  -24.3860  -14.6114 C   0  0  0  0  0  0  0  0  0  0  0  0
   23.9880  -25.2477  -15.2238 C   0  0  0  0  0  0  0  0  0  0  0  0
   24.9208  -25.6711  -14.5088 O   0  0  0  0  0  0  0  0  0  0  0  0
   24.9004  -21.1099  -14.7606 C   0  0  0  0  0  0  0  0  0  0  0  0
   24.0795  -20.1567  -14.7082 O   0  0  0  0  0  0  0  0  0  0  0  0
   23.9695  -25.5865  -16.5683 O   0  0  0  0  0  0  0  0  0  0  0  0
   25.1843  -21.6886   -8.6826 O   0  0  0  0  0  0  0  0  0  0  0  0
   25.7880  -21.0997   -9.7764 C   0  0  0  0  0  0  0  0  0  0  0  0
   26.6311  -21.8671  -10.5553 C   0  0  0  0  0  0  0  0  0  0  0  0
   27.2537  -21.3180  -11.6557 C   0  0  0  0  0  0  0  0  0  0  0  0
   27.0119  -19.9969  -11.9506 C   0  0  0  0  0  0  0  0  0  0  0  0
   27.6995  -19.4268  -13.1482 C   0  0  0  0  0  0  0  0  0  0  0  0
   26.6706  -19.3972  -14.2638 C   0  0  2  0  0  0  0  0  0  0  0  0
   26.2535  -20.7455  -14.5190 N   0  0  0  0  0  0  0  0  0  0  0  0
   27.2259  -18.6825  -15.3911 C   0  0  0  0  0  0  0  0  0  0  0  0
   28.4511  -18.4892  -15.5361 O   0  0  0  0  0  0  0  0  0  0  0  0
   26.1818  -19.2066  -11.1999 C   0  0  0  0  0  0  0  0  0  0  0  0
   25.5698  -19.7918  -10.0969 C   0  0  0  0  0  0  0  0  0  0  0  0
   28.7295  -21.0512  -19.4182 N   0  0  0  0  0  0  0  0  0  0  0  0
   28.8178  -19.8063  -20.1097 C   0  0  0  0  0  0  0  0  0  0  0  0
   29.4382  -19.8111  -21.2213 O   0  0  0  0  0  0  0  0  0  0  0  0
   28.2272  -18.5625  -19.5970 C   0  0  0  0  0  0  0  0  0  0  0  0
   27.6220  -18.7322  -18.2717 C   0  0  0  0  0  0  0  0  0  0  0  0
   26.9154  -17.5694  -17.6388 C   0  0  2  0  0  0  0  0  0  0  0  0
   26.3585  -18.1722  -16.3843 N   0  0  0  0  0  0  0  0  0  0  0  0
   25.8039  -17.0159  -18.4181 C   0  0  0  0  0  0  0  0  0  0  0  0
   24.4876  -17.4128  -18.2582 O   0  0  0  0  0  0  0  0  0  0  0  0
   26.0364  -16.1256  -19.2901 O   0  0  0  0  0  0  0  0  0  0  0  0
  2  1  1  1
  2  3  1  0
  3  4  1  0
  5  9  1  0
  5  4  1  0
  6  5  2  0
  7  2  1  0
  8  7  2  0
 10 11  1  0
 11 12  2  0
 12 13  1  0
 14 15  1  0
 14 13  2  0
 16 15  1  1
 16 17  1  0
 17  7  1  0
 18 28  1  0
 18 16  1  0
 19 18  2  0
 20 14  1  0
 21 20  2  0
 21 11  1  0
 22 23  1  0
 23 25  1  0
 24 23  2  0
 25 26  1  0
 27 26  1  6
 27 29  1  0
 27 28  1  0
 29 30  1  0
 31 29  2  0
M  END
$$$$
