EYQ.pdb
     RDKit          3D

 31 31  0  0  1  0  0  0  0  0999 V2000
   25.8708  -23.3868  -15.4729 N   0  0  0  0  0  0  0  0  0  0  0  0
   24.4650  -23.8425  -15.5771 C   0  0  1  0  0  0  0  0  0  0  0  0
   24.4134  -25.1379  -14.8488 C   0  0  0  0  0  0  0  0  0  0  0  0
   25.3870  -26.1801  -15.2641 C   0  0  0  0  0  0  0  0  0  0  0  0
   25.0452  -26.6171  -16.6650 C   0  0  0  0  0  0  0  0  0  0  0  0
   23.9125  -27.0859  -16.9051 O   0  0  0  0  0  0  0  0  0  0  0  0
   23.6528  -22.7565  -15.0377 C   0  0  0  0  0  0  0  0  0  0  0  0
   22.4632  -22.8779  -14.6433 O   0  0  0  0  0  0  0  0  0  0  0  0
   25.9591  -26.5125  -17.7026 O   0  0  0  0  0  0  0  0  0  0  0  0
   25.2098  -21.5729   -8.6945 O   0  0  0  0  0  0  0  0  0  0  0  0
   24.9595  -21.0171   -9.9338 C   0  0  0  0  0  0  0  0  0  0  0  0
   25.9458  -21.0864  -10.8976 C   0  0  0  0  0  0  0  0  0  0  0  0
   25.7366  -20.5442  -12.1475 C   0  0  0  0  0  0  0  0  0  0  0  0
   24.5287  -19.9386  -12.4021 C   0  0  0  0  0  0  0  0  0  0  0  0
   24.3283  -19.3589  -13.7644 C   0  0  0  0  0  0  0  0  0  0  0  0
   23.4109  -20.3120  -14.5089 C   0  0  2  0  0  0  0  0  0  0  0  0
   24.1881  -21.4442  -14.9224 N   0  0  0  0  0  0  0  0  0  0  0  0
   22.7408  -19.5852  -15.5638 C   0  0  0  0  0  0  0  0  0  0  0  0
   23.3143  -19.2313  -16.6151 O   0  0  0  0  0  0  0  0  0  0  0  0
   23.5284  -19.8518  -11.4698 C   0  0  0  0  0  0  0  0  0  0  0  0
   23.7722  -20.4090  -10.2194 C   0  0  0  0  0  0  0  0  0  0  0  0
   20.5857  -22.8884  -17.1023 N   0  0  0  0  0  0  0  0  0  0  0  0
   19.4293  -22.2229  -17.6077 C   0  0  0  0  0  0  0  0  0  0  0  0
   18.4111  -22.9478  -17.8497 O   0  0  0  0  0  0  0  0  0  0  0  0
   19.3786  -20.7734  -17.8424 C   0  0  0  0  0  0  0  0  0  0  0  0
   20.6250  -20.0990  -17.4639 C   0  0  0  0  0  0  0  0  0  0  0  0
   20.5565  -18.8655  -16.6118 C   0  0  2  0  0  0  0  0  0  0  0  0
   21.3748  -19.2514  -15.4165 N   0  0  0  0  0  0  0  0  0  0  0  0
   19.2135  -18.4982  -16.1531 C   0  0  0  0  0  0  0  0  0  0  0  0
   18.5547  -19.1473  -15.1234 O   0  0  0  0  0  0  0  0  0  0  0  0
   18.6039  -17.5387  -16.7141 O   0  0  0  0  0  0  0  0  0  0  0  0
  2  1  1  1
  2  3  1  0
  3  4  1  0
  5  9  1  0
  5  4  1  0
  6  5  2  0
  7  2  1  0
  8  7  2  0
 10 11  1  0
 11 12  2  0
 12 13  1  0
 14 15  1  0
 14 13  2  0
 16 15  1  6
 16 17  1  0
 17  7  1  0
 18 28  1  0
 18 16  1  0
 19 18  2  0
 20 14  1  0
 21 20  2  0
 21 11  1  0
 22 23  1  0
 23 25  1  0
 24 23  2  0
 25 26  1  0
 27 26  1  6
 27 29  1  0
 27 28  1  0
 29 30  1  0
 31 29  2  0
M  END
$$$$
