EYQ.pdb
     RDKit          3D

 31 31  0  0  1  0  0  0  0  0999 V2000
   26.3020   -8.9051  -20.0669 N   0  0  0  0  0  0  0  0  0  0  0  0
   26.8110   -8.8882  -18.6757 C   0  0  1  0  0  0  0  0  0  0  0  0
   28.1852   -8.3269  -18.7634 C   0  0  0  0  0  0  0  0  0  0  0  0
   29.0978   -8.9405  -19.7621 C   0  0  0  0  0  0  0  0  0  0  0  0
   29.5216  -10.2925  -19.2497 C   0  0  0  0  0  0  0  0  0  0  0  0
   29.2052  -10.6396  -18.0922 O   0  0  0  0  0  0  0  0  0  0  0  0
   25.8389   -8.1195  -17.9048 C   0  0  0  0  0  0  0  0  0  0  0  0
   25.9705   -7.8068  -16.6923 O   0  0  0  0  0  0  0  0  0  0  0  0
   30.2582  -11.1686  -20.0325 O   0  0  0  0  0  0  0  0  0  0  0  0
   27.7756   -2.1577  -17.7649 O   0  0  0  0  0  0  0  0  0  0  0  0
   26.7270   -3.0188  -18.0231 C   0  0  0  0  0  0  0  0  0  0  0  0
   25.6226   -2.9777  -17.1954 C   0  0  0  0  0  0  0  0  0  0  0  0
   24.5545   -3.8201  -17.4182 C   0  0  0  0  0  0  0  0  0  0  0  0
   24.6221   -4.6930  -18.4784 C   0  0  0  0  0  0  0  0  0  0  0  0
   23.4513   -5.5949  -18.6971 C   0  0  0  0  0  0  0  0  0  0  0  0
   23.6867   -6.8244  -17.8385 C   0  0  2  0  0  0  0  0  0  0  0  0
   24.6376   -7.6606  -18.5118 N   0  0  0  0  0  0  0  0  0  0  0  0
   22.4107   -7.4333  -17.5366 C   0  0  0  0  0  0  0  0  0  0  0  0
   21.8488   -8.2467  -18.2995 O   0  0  0  0  0  0  0  0  0  0  0  0
   25.7018   -4.7605  -19.3193 C   0  0  0  0  0  0  0  0  0  0  0  0
   26.7619   -3.8970  -19.0664 C   0  0  0  0  0  0  0  0  0  0  0  0
   21.2368   -8.5188  -11.7564 N   0  0  0  0  0  0  0  0  0  0  0  0
   19.9665   -8.8810  -12.2955 C   0  0  0  0  0  0  0  0  0  0  0  0
   19.1118   -9.3548  -11.4795 O   0  0  0  0  0  0  0  0  0  0  0  0
   19.6249   -8.7218  -13.7156 C   0  0  0  0  0  0  0  0  0  0  0  0
   20.7008   -8.0874  -14.4846 C   0  0  0  0  0  0  0  0  0  0  0  0
   20.4849   -7.8032  -15.9422 C   0  0  2  0  0  0  0  0  0  0  0  0
   21.7544   -7.1054  -16.3280 N   0  0  0  0  0  0  0  0  0  0  0  0
   19.3591   -6.9142  -16.2442 C   0  0  0  0  0  0  0  0  0  0  0  0
   18.0815   -7.3683  -16.5224 O   0  0  0  0  0  0  0  0  0  0  0  0
   19.5413   -5.6598  -16.2571 O   0  0  0  0  0  0  0  0  0  0  0  0
  2  1  1  6
  2  3  1  0
  3  4  1  0
  5  9  1  0
  5  4  1  0
  6  5  2  0
  7  2  1  0
  8  7  2  0
 10 11  1  0
 11 12  2  0
 12 13  1  0
 14 15  1  0
 14 13  2  0
 16 15  1  6
 16 17  1  0
 17  7  1  0
 18 28  1  0
 18 16  1  0
 19 18  2  0
 20 14  1  0
 21 20  2  0
 21 11  1  0
 22 23  1  0
 23 25  1  0
 24 23  2  0
 25 26  1  0
 27 26  1  1
 27 29  1  0
 27 28  1  0
 29 30  1  0
 31 29  2  0
M  END
$$$$
