EYQ.pdb
     RDKit          3D

 31 31  0  0  1  0  0  0  0  0999 V2000
   28.8534  -20.7089  -18.8670 N   0  0  0  0  0  0  0  0  0  0  0  0
   27.7445  -19.7586  -18.6182 C   0  0  1  0  0  0  0  0  0  0  0  0
   26.8941  -19.8144  -19.8368 C   0  0  0  0  0  0  0  0  0  0  0  0
   27.1500  -18.7891  -20.8809 C   0  0  0  0  0  0  0  0  0  0  0  0
   28.4875  -19.0782  -21.5116 C   0  0  0  0  0  0  0  0  0  0  0  0
   29.2767  -18.1375  -21.7409 O   0  0  0  0  0  0  0  0  0  0  0  0
   27.1248  -20.1873  -17.3684 C   0  0  0  0  0  0  0  0  0  0  0  0
   26.7388  -21.3607  -17.1245 O   0  0  0  0  0  0  0  0  0  0  0  0
   28.8696  -20.3683  -21.8469 O   0  0  0  0  0  0  0  0  0  0  0  0
   26.3228  -21.4213   -9.1310 O   0  0  0  0  0  0  0  0  0  0  0  0
   26.4207  -20.7300  -10.3227 C   0  0  0  0  0  0  0  0  0  0  0  0
   27.5090  -20.9728  -11.1370 C   0  0  0  0  0  0  0  0  0  0  0  0
   27.6448  -20.3042  -12.3347 C   0  0  0  0  0  0  0  0  0  0  0  0
   26.6736  -19.3979  -12.6897 C   0  0  0  0  0  0  0  0  0  0  0  0
   26.8453  -18.6870  -13.9925 C   0  0  0  0  0  0  0  0  0  0  0  0
   26.3010  -19.6130  -15.0651 C   0  0  2  0  0  0  0  0  0  0  0  0
   26.9167  -19.2594  -16.3112 N   0  0  0  0  0  0  0  0  0  0  0  0
   24.8565  -19.5616  -15.0360 C   0  0  0  0  0  0  0  0  0  0  0  0
   24.2025  -18.5907  -15.4708 O   0  0  0  0  0  0  0  0  0  0  0  0
   25.5812  -19.1325  -11.9065 C   0  0  0  0  0  0  0  0  0  0  0  0
   25.4749  -19.8242  -10.7049 C   0  0  0  0  0  0  0  0  0  0  0  0
   21.8698  -24.8898  -14.2749 N   0  0  0  0  0  0  0  0  0  0  0  0
   20.7590  -23.9951  -14.3127 C   0  0  0  0  0  0  0  0  0  0  0  0
   19.6003  -24.5169  -14.2369 O   0  0  0  0  0  0  0  0  0  0  0  0
   20.9087  -22.5379  -14.4254 C   0  0  0  0  0  0  0  0  0  0  0  0
   22.3137  -22.1184  -14.4620 C   0  0  0  0  0  0  0  0  0  0  0  0
   22.6357  -20.6540  -14.5240 C   0  0  2  0  0  0  0  0  0  0  0  0
   24.1345  -20.6501  -14.4948 N   0  0  0  0  0  0  0  0  0  0  0  0
   22.1496  -19.8601  -13.3915 C   0  0  0  0  0  0  0  0  0  0  0  0
   21.0278  -19.0516  -13.4521 O   0  0  0  0  0  0  0  0  0  0  0  0
   22.7733  -19.9002  -12.2887 O   0  0  0  0  0  0  0  0  0  0  0  0
  2  1  1  6
  2  3  1  0
  3  4  1  0
  5  9  1  0
  5  4  1  0
  6  5  2  0
  7  2  1  0
  8  7  2  0
 10 11  1  0
 11 12  2  0
 12 13  1  0
 14 15  1  0
 14 13  2  0
 16 15  1  1
 16 17  1  0
 17  7  1  0
 18 28  1  0
 18 16  1  0
 19 18  2  0
 20 14  1  0
 21 20  2  0
 21 11  1  0
 22 23  1  0
 23 25  1  0
 24 23  2  0
 25 26  1  0
 27 26  1  1
 27 29  1  0
 27 28  1  0
 29 30  1  0
 31 29  2  0
M  END
$$$$
