EYQ.pdb
     RDKit          3D

 31 31  0  0  1  0  0  0  0  0999 V2000
   28.5346  -23.1592  -18.0303 N   0  0  0  0  0  0  0  0  0  0  0  0
   28.1856  -21.7923  -17.5780 C   0  0  1  0  0  0  0  0  0  0  0  0
   27.4208  -21.1867  -18.7003 C   0  0  0  0  0  0  0  0  0  0  0  0
   28.2054  -20.7234  -19.8736 C   0  0  0  0  0  0  0  0  0  0  0  0
   29.1326  -19.6256  -19.4205 C   0  0  0  0  0  0  0  0  0  0  0  0
   30.3299  -19.8897  -19.1819 O   0  0  0  0  0  0  0  0  0  0  0  0
   27.4718  -21.9601  -16.3160 C   0  0  0  0  0  0  0  0  0  0  0  0
   26.7302  -22.9383  -16.0358 O   0  0  0  0  0  0  0  0  0  0  0  0
   28.6909  -18.3210  -19.2600 O   0  0  0  0  0  0  0  0  0  0  0  0
   24.3755  -20.3948   -8.4078 O   0  0  0  0  0  0  0  0  0  0  0  0
   25.1272  -20.3152   -9.5637 C   0  0  0  0  0  0  0  0  0  0  0  0
   24.7835  -19.3688  -10.5085 C   0  0  0  0  0  0  0  0  0  0  0  0
   25.5077  -19.2562  -11.6759 C   0  0  0  0  0  0  0  0  0  0  0  0
   26.5713  -20.1061  -11.8685 C   0  0  0  0  0  0  0  0  0  0  0  0
   27.3388  -19.9629  -13.1422 C   0  0  0  0  0  0  0  0  0  0  0  0
   26.7738  -20.9913  -14.1052 C   0  0  2  0  0  0  0  0  0  0  0  0
   27.5834  -20.9830  -15.2890 N   0  0  0  0  0  0  0  0  0  0  0  0
   25.3663  -20.7242  -14.2993 C   0  0  0  0  0  0  0  0  0  0  0  0
   24.9443  -19.7559  -14.9654 O   0  0  0  0  0  0  0  0  0  0  0  0
   26.9401  -21.0561  -10.9528 C   0  0  0  0  0  0  0  0  0  0  0  0
   26.1885  -21.1430   -9.7862 C   0  0  0  0  0  0  0  0  0  0  0  0
   21.7536  -25.4328  -14.8766 N   0  0  0  0  0  0  0  0  0  0  0  0
   20.7437  -24.4339  -14.7420 C   0  0  0  0  0  0  0  0  0  0  0  0
   19.5358  -24.8232  -14.8431 O   0  0  0  0  0  0  0  0  0  0  0  0
   21.0466  -23.0183  -14.4914 C   0  0  0  0  0  0  0  0  0  0  0  0
   22.4794  -22.7773  -14.2901 C   0  0  0  0  0  0  0  0  0  0  0  0
   22.9479  -21.3856  -13.9807 C   0  0  2  0  0  0  0  0  0  0  0  0
   24.4098  -21.5869  -13.7164 N   0  0  0  0  0  0  0  0  0  0  0  0
   22.3439  -20.7737  -12.7933 C   0  0  0  0  0  0  0  0  0  0  0  0
   21.2581  -19.9170  -12.8451 O   0  0  0  0  0  0  0  0  0  0  0  0
   22.8245  -21.0280  -11.6482 O   0  0  0  0  0  0  0  0  0  0  0  0
  2  1  1  6
  2  3  1  0
  3  4  1  0
  5  9  1  0
  5  4  1  0
  6  5  2  0
  7  2  1  0
  8  7  2  0
 10 11  1  0
 11 12  2  0
 12 13  1  0
 14 15  1  0
 14 13  2  0
 16 15  1  1
 16 17  1  0
 17  7  1  0
 18 28  1  0
 18 16  1  0
 19 18  2  0
 20 14  1  0
 21 20  2  0
 21 11  1  0
 22 23  1  0
 23 25  1  0
 24 23  2  0
 25 26  1  0
 27 26  1  1
 27 29  1  0
 27 28  1  0
 29 30  1  0
 31 29  2  0
M  END
$$$$
