EYQ.pdb
     RDKit          3D

 31 31  0  0  1  0  0  0  0  0999 V2000
   27.9701  -23.5921  -17.2417 N   0  0  0  0  0  0  0  0  0  0  0  0
   27.7052  -22.1786  -16.8860 C   0  0  1  0  0  0  0  0  0  0  0  0
   27.4638  -21.4834  -18.1781 C   0  0  0  0  0  0  0  0  0  0  0  0
   26.2504  -21.8811  -18.9373 C   0  0  0  0  0  0  0  0  0  0  0  0
   26.2202  -21.1007  -20.2258 C   0  0  0  0  0  0  0  0  0  0  0  0
   25.2580  -21.2428  -21.0097 O   0  0  0  0  0  0  0  0  0  0  0  0
   26.5931  -22.2069  -15.9412 C   0  0  0  0  0  0  0  0  0  0  0  0
   25.7604  -23.1461  -15.8411 O   0  0  0  0  0  0  0  0  0  0  0  0
   27.2376  -20.2230  -20.5683 O   0  0  0  0  0  0  0  0  0  0  0  0
   21.9627  -20.5907   -8.8856 O   0  0  0  0  0  0  0  0  0  0  0  0
   22.8814  -20.4579   -9.9083 C   0  0  0  0  0  0  0  0  0  0  0  0
   22.5371  -19.6966  -11.0076 C   0  0  0  0  0  0  0  0  0  0  0  0
   23.4249  -19.5386  -12.0501 C   0  0  0  0  0  0  0  0  0  0  0  0
   24.6505  -20.1558  -11.9626 C   0  0  0  0  0  0  0  0  0  0  0  0
   25.5934  -19.9686  -13.1062 C   0  0  0  0  0  0  0  0  0  0  0  0
   25.3161  -21.0961  -14.0839 C   0  0  2  0  0  0  0  0  0  0  0  0
   26.3834  -21.1258  -15.0416 N   0  0  0  0  0  0  0  0  0  0  0  0
   23.9858  -20.9281  -14.6242 C   0  0  0  0  0  0  0  0  0  0  0  0
   23.6912  -20.0257  -15.4355 O   0  0  0  0  0  0  0  0  0  0  0  0
   25.0249  -20.9180  -10.8874 C   0  0  0  0  0  0  0  0  0  0  0  0
   24.1059  -21.0568   -9.8532 C   0  0  0  0  0  0  0  0  0  0  0  0
   20.5143  -25.4960  -16.3409 N   0  0  0  0  0  0  0  0  0  0  0  0
   21.1523  -24.5495  -17.1970 C   0  0  0  0  0  0  0  0  0  0  0  0
   21.3201  -24.8965  -18.4103 O   0  0  0  0  0  0  0  0  0  0  0  0
   21.5997  -23.2281  -16.7364 C   0  0  0  0  0  0  0  0  0  0  0  0
   21.2546  -22.9755  -15.3333 C   0  0  0  0  0  0  0  0  0  0  0  0
   21.5613  -21.6326  -14.7377 C   0  0  2  0  0  0  0  0  0  0  0  0
   22.9591  -21.8157  -14.2278 N   0  0  0  0  0  0  0  0  0  0  0  0
   20.7071  -21.2394  -13.6131 C   0  0  0  0  0  0  0  0  0  0  0  0
   20.8089  -21.7918  -12.3480 O   0  0  0  0  0  0  0  0  0  0  0  0
   19.8217  -20.3487  -13.7844 O   0  0  0  0  0  0  0  0  0  0  0  0
  2  1  1  6
  2  3  1  0
  3  4  1  0
  5  9  1  0
  5  4  1  0
  6  5  2  0
  7  2  1  0
  8  7  2  0
 10 11  1  0
 11 12  2  0
 12 13  1  0
 14 15  1  0
 14 13  2  0
 16 15  1  1
 16 17  1  0
 17  7  1  0
 18 28  1  0
 18 16  1  0
 19 18  2  0
 20 14  1  0
 21 20  2  0
 21 11  1  0
 22 23  1  0
 23 25  1  0
 24 23  2  0
 25 26  1  0
 27 26  1  1
 27 29  1  0
 27 28  1  0
 29 30  1  0
 31 29  2  0
M  END
$$$$
