EYQ.pdb
     RDKit          3D

 31 31  0  0  1  0  0  0  0  0999 V2000
   23.6324   -8.1736  -19.3103 N   0  0  0  0  0  0  0  0  0  0  0  0
   22.1867   -8.2839  -19.6141 C   0  0  1  0  0  0  0  0  0  0  0  0
   21.8819   -9.7387  -19.5678 C   0  0  0  0  0  0  0  0  0  0  0  0
   22.6235  -10.6097  -20.5155 C   0  0  0  0  0  0  0  0  0  0  0  0
   22.1609  -12.0297  -20.3157 C   0  0  0  0  0  0  0  0  0  0  0  0
   21.3210  -12.5201  -21.0996 O   0  0  0  0  0  0  0  0  0  0  0  0
   21.5079   -7.4423  -18.6337 C   0  0  0  0  0  0  0  0  0  0  0  0
   20.2583   -7.3548  -18.5060 O   0  0  0  0  0  0  0  0  0  0  0  0
   22.6448  -12.8130  -19.2788 O   0  0  0  0  0  0  0  0  0  0  0  0
   20.4601  -11.2683  -13.9726 O   0  0  0  0  0  0  0  0  0  0  0  0
   20.8786   -9.9972  -14.3143 C   0  0  0  0  0  0  0  0  0  0  0  0
   22.1856   -9.8223  -14.7237 C   0  0  0  0  0  0  0  0  0  0  0  0
   22.6435   -8.5702  -15.0735 C   0  0  0  0  0  0  0  0  0  0  0  0
   21.7682   -7.5121  -15.0029 C   0  0  0  0  0  0  0  0  0  0  0  0
   22.2903   -6.1661  -15.3872 C   0  0  0  0  0  0  0  0  0  0  0  0
   21.6527   -5.8199  -16.7205 C   0  0  2  0  0  0  0  0  0  0  0  0
   22.2573   -6.6418  -17.7285 N   0  0  0  0  0  0  0  0  0  0  0  0
   21.7491   -4.3922  -16.9265 C   0  0  0  0  0  0  0  0  0  0  0  0
   22.7674   -3.8406  -17.3937 O   0  0  0  0  0  0  0  0  0  0  0  0
   20.4655   -7.6494  -14.6012 C   0  0  0  0  0  0  0  0  0  0  0  0
   20.0360   -8.9259  -14.2555 C   0  0  0  0  0  0  0  0  0  0  0  0
   16.6590    0.6366  -17.6570 N   0  0  0  0  0  0  0  0  0  0  0  0
   17.4448   -0.0611  -16.6920 C   0  0  0  0  0  0  0  0  0  0  0  0
   16.8335   -0.5021  -15.6660 O   0  0  0  0  0  0  0  0  0  0  0  0
   18.8888   -0.2844  -16.8460 C   0  0  0  0  0  0  0  0  0  0  0  0
   19.2483   -1.7048  -16.7772 C   0  0  0  0  0  0  0  0  0  0  0  0
   20.6936   -2.0964  -16.8764 C   0  0  2  0  0  0  0  0  0  0  0  0
   20.6513   -3.5672  -16.5898 N   0  0  0  0  0  0  0  0  0  0  0  0
   21.5807   -1.4604  -15.8979 C   0  0  0  0  0  0  0  0  0  0  0  0
   21.7948   -1.9592  -14.6246 O   0  0  0  0  0  0  0  0  0  0  0  0
   22.1945   -0.3967  -16.2118 O   0  0  0  0  0  0  0  0  0  0  0  0
  2  1  1  1
  2  3  1  0
  3  4  1  0
  5  9  1  0
  5  4  1  0
  6  5  2  0
  7  2  1  0
  8  7  2  0
 10 11  1  0
 11 12  2  0
 12 13  1  0
 14 15  1  0
 14 13  2  0
 16 15  1  1
 16 17  1  0
 17  7  1  0
 18 28  1  0
 18 16  1  0
 19 18  2  0
 20 14  1  0
 21 20  2  0
 21 11  1  0
 22 23  1  0
 23 25  1  0
 24 23  2  0
 25 26  1  0
 27 26  1  1
 27 29  1  0
 27 28  1  0
 29 30  1  0
 31 29  2  0
M  END
$$$$
