EYQ.pdb
     RDKit          3D

 31 31  0  0  1  0  0  0  0  0999 V2000
   17.5417   -9.6711  -12.3587 N   0  0  0  0  0  0  0  0  0  0  0  0
   16.7512   -8.7764  -13.2358 C   0  0  1  0  0  0  0  0  0  0  0  0
   15.8614   -9.6743  -14.0190 C   0  0  0  0  0  0  0  0  0  0  0  0
   16.5219  -10.6923  -14.8757 C   0  0  0  0  0  0  0  0  0  0  0  0
   16.2443  -12.0542  -14.2939 C   0  0  0  0  0  0  0  0  0  0  0  0
   15.2070  -12.6660  -14.6255 O   0  0  0  0  0  0  0  0  0  0  0  0
   16.0973   -7.8218  -12.3462 C   0  0  0  0  0  0  0  0  0  0  0  0
   15.1897   -7.0217  -12.6948 O   0  0  0  0  0  0  0  0  0  0  0  0
   17.1142  -12.6516  -13.3943 O   0  0  0  0  0  0  0  0  0  0  0  0
   11.0175  -10.8170   -9.3470 O   0  0  0  0  0  0  0  0  0  0  0  0
   12.1336  -10.0195   -9.1856 C   0  0  0  0  0  0  0  0  0  0  0  0
   13.3708  -10.5484   -9.4956 C   0  0  0  0  0  0  0  0  0  0  0  0
   14.5099   -9.7861   -9.3488 C   0  0  0  0  0  0  0  0  0  0  0  0
   14.3775   -8.4971   -8.8891 C   0  0  0  0  0  0  0  0  0  0  0  0
   15.6278   -7.6931   -8.7389 C   0  0  0  0  0  0  0  0  0  0  0  0
   15.7927   -6.9059  -10.0263 C   0  0  2  0  0  0  0  0  0  0  0  0
   16.4671   -7.7434  -10.9754 N   0  0  0  0  0  0  0  0  0  0  0  0
   16.4360   -5.6472   -9.7238 C   0  0  0  0  0  0  0  0  0  0  0  0
   17.6369   -5.5604   -9.3926 O   0  0  0  0  0  0  0  0  0  0  0  0
   13.1663   -7.9405   -8.5722 C   0  0  0  0  0  0  0  0  0  0  0  0
   12.0375   -8.7366   -8.7318 C   0  0  0  0  0  0  0  0  0  0  0  0
   16.5310   -1.9482  -13.8283 N   0  0  0  0  0  0  0  0  0  0  0  0
   16.9124   -0.9985  -12.8341 C   0  0  0  0  0  0  0  0  0  0  0  0
   17.2696    0.1514  -13.2475 O   0  0  0  0  0  0  0  0  0  0  0  0
   16.8986   -1.2966  -11.3955 C   0  0  0  0  0  0  0  0  0  0  0  0
   16.4221   -2.6536  -11.1074 C   0  0  0  0  0  0  0  0  0  0  0  0
   16.3715   -3.1210   -9.6822 C   0  0  2  0  0  0  0  0  0  0  0  0
   15.6879   -4.4499   -9.8009 N   0  0  0  0  0  0  0  0  0  0  0  0
   15.5864   -2.2769   -8.7766 C   0  0  0  0  0  0  0  0  0  0  0  0
   16.0928   -1.1499   -8.1527 O   0  0  0  0  0  0  0  0  0  0  0  0
   14.3779   -2.5753   -8.5372 O   0  0  0  0  0  0  0  0  0  0  0  0
  2  1  1  1
  2  3  1  0
  3  4  1  0
  5  9  1  0
  5  4  1  0
  6  5  2  0
  7  2  1  0
  8  7  2  0
 10 11  1  0
 11 12  2  0
 12 13  1  0
 14 15  1  0
 14 13  2  0
 16 15  1  1
 16 17  1  0
 17  7  1  0
 18 28  1  0
 18 16  1  0
 19 18  2  0
 20 14  1  0
 21 20  2  0
 21 11  1  0
 22 23  1  0
 23 25  1  0
 24 23  2  0
 25 26  1  0
 27 26  1  6
 27 29  1  0
 27 28  1  0
 29 30  1  0
 31 29  2  0
M  END
$$$$
