EYQ.pdb
     RDKit          3D

 31 31  0  0  1  0  0  0  0  0999 V2000
   20.7479  -16.6457  -17.0192 N   0  0  0  0  0  0  0  0  0  0  0  0
   20.7212  -15.4361  -17.8740 C   0  0  1  0  0  0  0  0  0  0  0  0
   19.3179  -15.3199  -18.3524 C   0  0  0  0  0  0  0  0  0  0  0  0
   18.8596  -16.3319  -19.3385 C   0  0  0  0  0  0  0  0  0  0  0  0
   18.6893  -15.6515  -20.6720 C   0  0  0  0  0  0  0  0  0  0  0  0
   19.6382  -14.9995  -21.1566 O   0  0  0  0  0  0  0  0  0  0  0  0
   21.2196  -14.3472  -17.0398 C   0  0  0  0  0  0  0  0  0  0  0  0
   20.9679  -14.2096  -15.8138 O   0  0  0  0  0  0  0  0  0  0  0  0
   17.5004  -15.7295  -21.3815 O   0  0  0  0  0  0  0  0  0  0  0  0
   26.6381  -16.6808  -15.5071 O   0  0  0  0  0  0  0  0  0  0  0  0
   25.9914  -15.5197  -15.8830 C   0  0  0  0  0  0  0  0  0  0  0  0
   25.5846  -15.3883  -17.1959 C   0  0  0  0  0  0  0  0  0  0  0  0
   24.9359  -14.2455  -17.6122 C   0  0  0  0  0  0  0  0  0  0  0  0
   24.7090  -13.2513  -16.6899 C   0  0  0  0  0  0  0  0  0  0  0  0
   24.0045  -12.0235  -17.1676 C   0  0  0  0  0  0  0  0  0  0  0  0
   22.5341  -12.2148  -16.8424 C   0  0  2  0  0  0  0  0  0  0  0  0
   22.0560  -13.3393  -17.5934 N   0  0  0  0  0  0  0  0  0  0  0  0
   21.8414  -10.9654  -17.0636 C   0  0  0  0  0  0  0  0  0  0  0  0
   21.3888  -10.6277  -18.1774 O   0  0  0  0  0  0  0  0  0  0  0  0
   25.0987  -13.3482  -15.3799 C   0  0  0  0  0  0  0  0  0  0  0  0
   25.7504  -14.5140  -14.9932 C   0  0  0  0  0  0  0  0  0  0  0  0
   18.1839   -9.0375  -12.8115 N   0  0  0  0  0  0  0  0  0  0  0  0
   18.2539   -7.8187  -13.5500 C   0  0  0  0  0  0  0  0  0  0  0  0
   17.5266   -6.8577  -13.1396 O   0  0  0  0  0  0  0  0  0  0  0  0
   19.1170   -7.6439  -14.7260 C   0  0  0  0  0  0  0  0  0  0  0  0
   19.9392   -8.8271  -15.0005 C   0  0  0  0  0  0  0  0  0  0  0  0
   20.8795   -8.8059  -16.1699 C   0  0  2  0  0  0  0  0  0  0  0  0
   21.6586  -10.0729  -15.9824 N   0  0  0  0  0  0  0  0  0  0  0  0
   21.8218   -7.6832  -16.1922 C   0  0  0  0  0  0  0  0  0  0  0  0
   23.0220   -7.6804  -15.5027 O   0  0  0  0  0  0  0  0  0  0  0  0
   21.5442   -6.6498  -16.8718 O   0  0  0  0  0  0  0  0  0  0  0  0
  2  1  1  1
  2  3  1  0
  3  4  1  0
  5  9  1  0
  5  4  1  0
  6  5  2  0
  7  2  1  0
  8  7  2  0
 10 11  1  0
 11 12  2  0
 12 13  1  0
 14 15  1  0
 14 13  2  0
 16 15  1  6
 16 17  1  0
 17  7  1  0
 18 28  1  0
 18 16  1  0
 19 18  2  0
 20 14  1  0
 21 20  2  0
 21 11  1  0
 22 23  1  0
 23 25  1  0
 24 23  2  0
 25 26  1  0
 27 26  1  1
 27 29  1  0
 27 28  1  0
 29 30  1  0
 31 29  2  0
M  END
$$$$
