CLR.pdb
     RDKit          3D

 26 25  0  0  1  0  0  0  0  0999 V2000
    7.5223  -17.0948   21.3485 N   0  0  0  0  0  0  0  0  0  0  0  0
    7.0347  -16.7976   22.6813 C   0  0  1  0  0  0  0  0  0  0  0  0
    6.7440  -18.0545   23.4480 C   0  0  0  0  0  0  0  0  0  0  0  0
    8.3386  -18.8587   23.8143 S   0  0  0  0  0  0  0  0  0  0  0  0
    7.8866  -15.8466   23.3856 C   0  0  0  0  0  0  0  0  0  0  0  0
    9.0100  -15.5555   22.8474 O   0  0  0  0  0  0  0  0  0  0  0  0
    7.2450  -11.5860   24.8289 C   0  0  0  0  0  0  0  0  0  0  0  0
    6.5755  -12.6581   25.7128 C   0  0  2  0  0  0  0  0  0  0  0  0
    5.7533  -11.9092   26.7149 C   0  0  0  0  0  0  0  0  0  0  0  0
    7.6769  -13.4873   26.2782 C   0  0  0  0  0  0  0  0  0  0  0  0
    8.3799  -14.3904   25.3014 C   0  0  2  0  0  0  0  0  0  0  0  0
    7.4783  -15.2766   24.6103 N   0  0  0  0  0  0  0  0  0  0  0  0
    9.3130  -15.2309   26.1145 C   0  0  0  0  0  0  0  0  0  0  0  0
   10.0684  -14.6420   26.9270 O   0  0  0  0  0  0  0  0  0  0  0  0
   10.1912  -22.6166   30.2727 N   0  0  0  0  0  0  0  0  0  0  0  0
    9.0465  -22.1286   29.5978 C   0  0  0  0  0  0  0  0  0  0  0  0
    8.0882  -22.9316   29.2327 N   0  0  0  0  0  0  0  0  0  0  0  0
    8.9173  -20.7444   29.3025 N   0  0  0  0  0  0  0  0  0  0  0  0
    9.9725  -19.8046   29.6199 C   0  0  0  0  0  0  0  0  0  0  0  0
   10.5961  -19.3313   28.2872 C   0  0  0  0  0  0  0  0  0  0  0  0
    9.6192  -18.4791   27.5372 C   0  0  0  0  0  0  0  0  0  0  0  0
   10.3127  -17.3822   26.8023 C   0  0  2  0  0  0  0  0  0  0  0  0
    9.3458  -16.6438   25.9747 N   0  0  0  0  0  0  0  0  0  0  0  0
   11.3398  -17.8899   25.8931 C   0  0  0  0  0  0  0  0  0  0  0  0
   11.2463  -17.7126   24.5221 O   0  0  0  0  0  0  0  0  0  0  0  0
   12.3345  -18.5085   26.3739 O   0  0  0  0  0  0  0  0  0  0  0  0
  2  3  1  0
  2  1  1  6
  4  3  1  0
  5  2  1  0
  6  5  2  0
  8  7  1  6
  8 10  1  0
  9  8  1  0
 11 10  1  1
 11 12  1  0
 12  5  1  0
 13 11  1  0
 13 14  2  0
 16 15  1  0
 17 16  2  0
 18 16  1  0
 19 18  1  0
 20 21  1  0
 20 19  1  0
 22 21  1  6
 22 23  1  0
 23 13  1  0
 24 22  1  0
 25 24  1  0
 26 24  2  0
M  END
$$$$
