CLR.pdb
     RDKit          3D

 26 25  0  0  1  0  0  0  0  0999 V2000
    8.6160  -15.3899   19.3105 N   0  0  0  0  0  0  0  0  0  0  0  0
    7.6186  -15.5462   20.3514 C   0  0  1  0  0  0  0  0  0  0  0  0
    7.0603  -16.9391   20.3662 C   0  0  0  0  0  0  0  0  0  0  0  0
    6.0691  -17.1526   18.8510 S   0  0  0  0  0  0  0  0  0  0  0  0
    8.0891  -15.0727   21.6477 C   0  0  0  0  0  0  0  0  0  0  0  0
    9.3349  -15.2086   21.9046 O   0  0  0  0  0  0  0  0  0  0  0  0
    5.8183  -12.4146   26.7404 C   0  0  0  0  0  0  0  0  0  0  0  0
    7.0917  -12.9234   26.0343 C   0  0  2  0  0  0  0  0  0  0  0  0
    8.1002  -11.8247   26.1648 C   0  0  0  0  0  0  0  0  0  0  0  0
    6.6933  -13.2659   24.6400 C   0  0  0  0  0  0  0  0  0  0  0  0
    7.7072  -14.0430   23.8450 C   0  0  2  0  0  0  0  0  0  0  0  0
    7.1977  -14.4899   22.5736 N   0  0  0  0  0  0  0  0  0  0  0  0
    8.0294  -15.2555   24.6599 C   0  0  0  0  0  0  0  0  0  0  0  0
    7.1087  -16.0873   24.8548 O   0  0  0  0  0  0  0  0  0  0  0  0
   14.8063  -19.5685   24.6021 N   0  0  0  0  0  0  0  0  0  0  0  0
   13.9668  -20.7081   24.5805 C   0  0  0  0  0  0  0  0  0  0  0  0
   14.4575  -21.9071   24.7145 N   0  0  0  0  0  0  0  0  0  0  0  0
   12.5626  -20.5680   24.4112 N   0  0  0  0  0  0  0  0  0  0  0  0
   11.9838  -19.3423   23.9010 C   0  0  0  0  0  0  0  0  0  0  0  0
   11.5231  -18.5008   25.1129 C   0  0  0  0  0  0  0  0  0  0  0  0
   10.9066  -17.2192   24.6435 C   0  0  0  0  0  0  0  0  0  0  0  0
    9.7297  -16.8479   25.4809 C   0  0  2  0  0  0  0  0  0  0  0  0
    9.3287  -15.4613   25.1952 N   0  0  0  0  0  0  0  0  0  0  0  0
   10.0279  -16.9108   26.9114 C   0  0  0  0  0  0  0  0  0  0  0  0
   10.0183  -15.7748   27.7047 O   0  0  0  0  0  0  0  0  0  0  0  0
   10.3043  -18.0311   27.4326 O   0  0  0  0  0  0  0  0  0  0  0  0
  2  3  1  0
  2  1  1  6
  4  3  1  0
  5  2  1  0
  6  5  2  0
  8  7  1  1
  8 10  1  0
  9  8  1  0
 11 10  1  1
 11 12  1  0
 12  5  1  0
 13 11  1  0
 13 14  2  0
 16 15  1  0
 17 16  2  0
 18 16  1  0
 19 18  1  0
 20 21  1  0
 20 19  1  0
 22 21  1  6
 22 23  1  0
 23 13  1  0
 24 22  1  0
 25 24  1  0
 26 24  2  0
M  END
$$$$
