CLR.pdb
     RDKit          3D

 26 25  0  0  1  0  0  0  0  0999 V2000
    6.9372  -16.1933   20.5591 N   0  0  0  0  0  0  0  0  0  0  0  0
    8.2288  -15.5347   20.5813 C   0  0  1  0  0  0  0  0  0  0  0  0
    8.3536  -14.5422   19.4627 C   0  0  0  0  0  0  0  0  0  0  0  0
    7.0823  -13.2607   19.7175 S   0  0  0  0  0  0  0  0  0  0  0  0
    8.5584  -15.0020   21.8980 C   0  0  0  0  0  0  0  0  0  0  0  0
    9.7979  -14.8471   22.1743 O   0  0  0  0  0  0  0  0  0  0  0  0
    5.7575  -12.4065   26.7355 C   0  0  0  0  0  0  0  0  0  0  0  0
    7.0898  -12.9506   26.1806 C   0  0  2  0  0  0  0  0  0  0  0  0
    8.0801  -11.8373   26.3252 C   0  0  0  0  0  0  0  0  0  0  0  0
    6.8175  -13.3891   24.7829 C   0  0  0  0  0  0  0  0  0  0  0  0
    7.9179  -14.1720   24.1195 C   0  0  2  0  0  0  0  0  0  0  0  0
    7.5435  -14.6740   22.8220 N   0  0  0  0  0  0  0  0  0  0  0  0
    8.1800  -15.3481   25.0062 C   0  0  0  0  0  0  0  0  0  0  0  0
    7.2328  -16.1482   25.2068 O   0  0  0  0  0  0  0  0  0  0  0  0
   14.2536  -21.1515   23.3937 N   0  0  0  0  0  0  0  0  0  0  0  0
   13.5677  -21.6163   24.5415 C   0  0  0  0  0  0  0  0  0  0  0  0
   13.7447  -22.8278   24.9857 N   0  0  0  0  0  0  0  0  0  0  0  0
   12.6662  -20.7664   25.2379 N   0  0  0  0  0  0  0  0  0  0  0  0
   12.3167  -19.4576   24.7258 C   0  0  0  0  0  0  0  0  0  0  0  0
   11.3151  -18.8187   25.7146 C   0  0  0  0  0  0  0  0  0  0  0  0
   10.8713  -17.4824   25.2044 C   0  0  0  0  0  0  0  0  0  0  0  0
    9.7767  -16.9196   26.0464 C   0  0  2  0  0  0  0  0  0  0  0  0
    9.4529  -15.5550   25.6012 N   0  0  0  0  0  0  0  0  0  0  0  0
   10.1586  -16.8204   27.4549 C   0  0  0  0  0  0  0  0  0  0  0  0
   10.2550  -15.5956   28.0954 O   0  0  0  0  0  0  0  0  0  0  0  0
   10.4096  -17.8809   28.0994 O   0  0  0  0  0  0  0  0  0  0  0  0
  2  3  1  0
  2  1  1  1
  4  3  1  0
  5  2  1  0
  6  5  2  0
  8  7  1  6
  8 10  1  0
  9  8  1  0
 11 10  1  1
 11 12  1  0
 12  5  1  0
 13 11  1  0
 13 14  2  0
 16 15  1  0
 17 16  2  0
 18 16  1  0
 19 18  1  0
 20 21  1  0
 20 19  1  0
 22 21  1  6
 22 23  1  0
 23 13  1  0
 24 22  1  0
 25 24  1  0
 26 24  2  0
M  END
$$$$
