CLR.pdb
     RDKit          3D

 26 25  0  0  1  0  0  0  0  0999 V2000
   10.4167  -16.8572   27.0134 N   0  0  0  0  0  0  0  0  0  0  0  0
    9.1920  -17.5972   27.2481 C   0  0  1  0  0  0  0  0  0  0  0  0
    8.9781  -17.8462   28.7124 C   0  0  0  0  0  0  0  0  0  0  0  0
   10.5871  -17.6488   29.5466 S   0  0  0  0  0  0  0  0  0  0  0  0
    8.0469  -17.0079   26.5644 C   0  0  0  0  0  0  0  0  0  0  0  0
    6.9402  -17.6474   26.6165 O   0  0  0  0  0  0  0  0  0  0  0  0
    5.8552  -13.0794   27.3554 C   0  0  0  0  0  0  0  0  0  0  0  0
    7.2048  -13.1739   26.6148 C   0  0  2  0  0  0  0  0  0  0  0  0
    7.7645  -11.7854   26.6026 C   0  0  0  0  0  0  0  0  0  0  0  0
    6.9120  -13.7591   25.2762 C   0  0  0  0  0  0  0  0  0  0  0  0
    7.0171  -15.2571   25.1828 C   0  0  2  0  0  0  0  0  0  0  0  0
    8.1659  -15.7815   25.8763 N   0  0  0  0  0  0  0  0  0  0  0  0
    7.1791  -15.5696   23.7288 C   0  0  0  0  0  0  0  0  0  0  0  0
    6.2029  -15.3414   22.9722 O   0  0  0  0  0  0  0  0  0  0  0  0
    8.4300  -12.3358   16.7049 N   0  0  0  0  0  0  0  0  0  0  0  0
    8.2028  -13.7284   16.5901 C   0  0  0  0  0  0  0  0  0  0  0  0
    8.1996  -14.3154   15.4275 N   0  0  0  0  0  0  0  0  0  0  0  0
    7.9720  -14.5205   17.7475 N   0  0  0  0  0  0  0  0  0  0  0  0
    7.8687  -13.9217   19.0620 C   0  0  0  0  0  0  0  0  0  0  0  0
    9.0470  -14.4492   19.9120 C   0  0  0  0  0  0  0  0  0  0  0  0
    8.6271  -14.5857   21.3431 C   0  0  0  0  0  0  0  0  0  0  0  0
    8.6127  -16.0153   21.7674 C   0  0  2  0  0  0  0  0  0  0  0  0
    8.3919  -16.1050   23.2194 N   0  0  0  0  0  0  0  0  0  0  0  0
    9.8843  -16.6850   21.4954 C   0  0  0  0  0  0  0  0  0  0  0  0
   10.7037  -17.1290   22.5207 O   0  0  0  0  0  0  0  0  0  0  0  0
   10.2427  -16.8579   20.2934 O   0  0  0  0  0  0  0  0  0  0  0  0
  2  3  1  0
  2  1  1  1
  4  3  1  0
  5  2  1  0
  6  5  2  0
  8  7  1  1
  8 10  1  0
  9  8  1  0
 11 10  1  6
 11 12  1  0
 12  5  1  0
 13 11  1  0
 13 14  2  0
 16 15  1  0
 17 16  2  0
 18 16  1  0
 19 18  1  0
 20 21  1  0
 20 19  1  0
 22 21  1  1
 22 23  1  0
 23 13  1  0
 24 22  1  0
 25 24  1  0
 26 24  2  0
M  END
$$$$
