CLR.pdb
     RDKit          3D

 26 25  0  0  1  0  0  0  0  0999 V2000
    9.1661  -15.7762   19.7421 N   0  0  0  0  0  0  0  0  0  0  0  0
    8.0854  -15.8392   20.7069 C   0  0  1  0  0  0  0  0  0  0  0  0
    7.4571  -17.2018   20.7331 C   0  0  0  0  0  0  0  0  0  0  0  0
    6.5316  -17.4128   19.1766 S   0  0  0  0  0  0  0  0  0  0  0  0
    8.4791  -15.3329   22.0164 C   0  0  0  0  0  0  0  0  0  0  0  0
    9.7096  -15.4521   22.3453 O   0  0  0  0  0  0  0  0  0  0  0  0
    5.9754  -12.4110   26.8624 C   0  0  0  0  0  0  0  0  0  0  0  0
    7.2588  -13.0168   26.2585 C   0  0  2  0  0  0  0  0  0  0  0  0
    8.2956  -11.9393   26.3323 C   0  0  0  0  0  0  0  0  0  0  0  0
    6.9048  -13.4730   24.8850 C   0  0  0  0  0  0  0  0  0  0  0  0
    7.9666  -14.2601   24.1660 C   0  0  2  0  0  0  0  0  0  0  0  0
    7.5330  -14.7374   22.8776 N   0  0  0  0  0  0  0  0  0  0  0  0
    8.2483  -15.4528   25.0240 C   0  0  0  0  0  0  0  0  0  0  0  0
    7.3142  -16.2725   25.2061 O   0  0  0  0  0  0  0  0  0  0  0  0
   11.4339  -20.0985   21.1634 N   0  0  0  0  0  0  0  0  0  0  0  0
   11.5486  -18.7055   21.3883 C   0  0  0  0  0  0  0  0  0  0  0  0
   11.0239  -17.8459   20.5624 N   0  0  0  0  0  0  0  0  0  0  0  0
   12.2427  -18.2121   22.5262 N   0  0  0  0  0  0  0  0  0  0  0  0
   12.0048  -18.7550   23.8477 C   0  0  0  0  0  0  0  0  0  0  0  0
   10.7193  -18.0985   24.4004 C   0  0  0  0  0  0  0  0  0  0  0  0
   10.9531  -17.6060   25.7953 C   0  0  0  0  0  0  0  0  0  0  0  0
    9.7451  -16.9172   26.3341 C   0  0  2  0  0  0  0  0  0  0  0  0
    9.5251  -15.6537   25.6128 N   0  0  0  0  0  0  0  0  0  0  0  0
    9.8908  -16.5718   27.7479 C   0  0  0  0  0  0  0  0  0  0  0  0
    9.8924  -15.2540   28.1759 O   0  0  0  0  0  0  0  0  0  0  0  0
   10.0217  -17.5018   28.5971 O   0  0  0  0  0  0  0  0  0  0  0  0
  2  3  1  0
  2  1  1  6
  4  3  1  0
  5  2  1  0
  6  5  2  0
  8  7  1  6
  8 10  1  0
  9  8  1  0
 11 10  1  1
 11 12  1  0
 12  5  1  0
 13 11  1  0
 13 14  2  0
 16 15  1  0
 17 16  2  0
 18 16  1  0
 19 18  1  0
 20 21  1  0
 20 19  1  0
 22 21  1  6
 22 23  1  0
 23 13  1  0
 24 22  1  0
 25 24  1  0
 26 24  2  0
M  END
$$$$
