CLR.pdb
     RDKit          3D

 26 25  0  0  1  0  0  0  0  0999 V2000
    7.7763  -19.0755   19.7425 N   0  0  0  0  0  0  0  0  0  0  0  0
    8.8535  -18.6125   18.8893 C   0  0  1  0  0  0  0  0  0  0  0  0
    8.4717  -18.6889   17.4400 C   0  0  0  0  0  0  0  0  0  0  0  0
    7.0542  -17.5715   17.1831 S   0  0  0  0  0  0  0  0  0  0  0  0
    9.3752  -17.3164   19.3066 C   0  0  0  0  0  0  0  0  0  0  0  0
   10.4331  -16.8950   18.7238 O   0  0  0  0  0  0  0  0  0  0  0  0
    8.5659  -12.8570   19.1625 C   0  0  0  0  0  0  0  0  0  0  0  0
    7.5673  -13.7125   19.9687 C   0  0  2  0  0  0  0  0  0  0  0  0
    6.4422  -12.7950   20.3342 C   0  0  0  0  0  0  0  0  0  0  0  0
    8.3288  -14.2819   21.1158 C   0  0  0  0  0  0  0  0  0  0  0  0
    9.3390  -15.3407   20.7659 C   0  0  2  0  0  0  0  0  0  0  0  0
    8.7312  -16.5661   20.3135 N   0  0  0  0  0  0  0  0  0  0  0  0
   10.0801  -15.6382   22.0310 C   0  0  0  0  0  0  0  0  0  0  0  0
    9.4021  -15.9169   23.0509 O   0  0  0  0  0  0  0  0  0  0  0  0
   11.1102  -20.2114   28.2228 N   0  0  0  0  0  0  0  0  0  0  0  0
   11.7134  -20.5484   26.9872 C   0  0  0  0  0  0  0  0  0  0  0  0
   12.7047  -21.3913   26.9310 N   0  0  0  0  0  0  0  0  0  0  0  0
   11.2478  -19.9713   25.7747 N   0  0  0  0  0  0  0  0  0  0  0  0
   12.1393  -19.7477   24.6555 C   0  0  0  0  0  0  0  0  0  0  0  0
   12.4503  -18.2348   24.5981 C   0  0  0  0  0  0  0  0  0  0  0  0
   11.7926  -17.6203   23.4011 C   0  0  0  0  0  0  0  0  0  0  0  0
   12.1465  -16.1773   23.2721 C   0  0  2  0  0  0  0  0  0  0  0  0
   11.4992  -15.6072   22.0800 N   0  0  0  0  0  0  0  0  0  0  0  0
   13.5853  -15.9745   23.1042 C   0  0  0  0  0  0  0  0  0  0  0  0
   14.1580  -15.8480   21.8488 O   0  0  0  0  0  0  0  0  0  0  0  0
   14.3217  -15.9172   24.1325 O   0  0  0  0  0  0  0  0  0  0  0  0
  2  3  1  0
  2  1  1  1
  4  3  1  0
  5  2  1  0
  6  5  2  0
  8  7  1  6
  8 10  1  0
  9  8  1  0
 11 10  1  1
 11 12  1  0
 12  5  1  0
 13 11  1  0
 13 14  2  0
 16 15  1  0
 17 16  2  0
 18 16  1  0
 19 18  1  0
 20 21  1  0
 20 19  1  0
 22 21  1  6
 22 23  1  0
 23 13  1  0
 24 22  1  0
 25 24  1  0
 26 24  2  0
M  END
$$$$
