CLR.pdb
     RDKit          3D

 26 25  0  0  1  0  0  0  0  0999 V2000
    8.2555  -14.7255   20.2300 N   0  0  0  0  0  0  0  0  0  0  0  0
    7.4721  -15.2408   21.3360 C   0  0  1  0  0  0  0  0  0  0  0  0
    7.1481  -16.6935   21.1439 C   0  0  0  0  0  0  0  0  0  0  0  0
    6.5651  -16.9068   19.4297 S   0  0  0  0  0  0  0  0  0  0  0  0
    8.0618  -14.9220   22.6309 C   0  0  0  0  0  0  0  0  0  0  0  0
    9.3387  -14.8991   22.7039 O   0  0  0  0  0  0  0  0  0  0  0  0
    7.8043  -11.4998   25.7087 C   0  0  0  0  0  0  0  0  0  0  0  0
    6.5528  -12.3974   25.6245 C   0  0  2  0  0  0  0  0  0  0  0  0
    5.5299  -11.7601   26.5125 C   0  0  0  0  0  0  0  0  0  0  0  0
    6.9866  -13.7655   26.0250 C   0  0  0  0  0  0  0  0  0  0  0  0
    7.8687  -14.4837   25.0402 C   0  0  2  0  0  0  0  0  0  0  0  0
    7.2474  -14.6514   23.7512 N   0  0  0  0  0  0  0  0  0  0  0  0
    8.1050  -15.8450   25.6142 C   0  0  0  0  0  0  0  0  0  0  0  0
    7.3949  -16.7883   25.1860 O   0  0  0  0  0  0  0  0  0  0  0  0
   15.9906  -16.1759   23.9745 N   0  0  0  0  0  0  0  0  0  0  0  0
   14.9254  -17.0002   23.5387 C   0  0  0  0  0  0  0  0  0  0  0  0
   14.9475  -17.5620   22.3639 N   0  0  0  0  0  0  0  0  0  0  0  0
   13.8027  -17.2340   24.3783 N   0  0  0  0  0  0  0  0  0  0  0  0
   12.7125  -18.0896   23.9578 C   0  0  0  0  0  0  0  0  0  0  0  0
   11.7730  -18.2827   25.1698 C   0  0  0  0  0  0  0  0  0  0  0  0
   10.8831  -17.0881   25.3251 C   0  0  0  0  0  0  0  0  0  0  0  0
    9.9389  -17.2632   26.4662 C   0  0  2  0  0  0  0  0  0  0  0  0
    9.0958  -16.0656   26.6074 N   0  0  0  0  0  0  0  0  0  0  0  0
   10.6376  -17.4355   27.7396 C   0  0  0  0  0  0  0  0  0  0  0  0
   11.2490  -18.6328   28.0750 O   0  0  0  0  0  0  0  0  0  0  0  0
   10.6795  -16.4663   28.5534 O   0  0  0  0  0  0  0  0  0  0  0  0
  2  3  1  0
  2  1  1  6
  4  3  1  0
  5  2  1  0
  6  5  2  0
  8  7  1  1
  8 10  1  0
  9  8  1  0
 11 10  1  1
 11 12  1  0
 12  5  1  0
 13 11  1  0
 13 14  2  0
 16 15  1  0
 17 16  2  0
 18 16  1  0
 19 18  1  0
 20 21  1  0
 20 19  1  0
 22 21  1  6
 22 23  1  0
 23 13  1  0
 24 22  1  0
 25 24  1  0
 26 24  2  0
M  END
$$$$
