CLR.pdb
     RDKit          3D

 26 25  0  0  1  0  0  0  0  0999 V2000
    6.7660  -16.0680   19.5574 N   0  0  0  0  0  0  0  0  0  0  0  0
    6.3212  -16.3319   20.9121 C   0  0  1  0  0  0  0  0  0  0  0  0
    6.1719  -17.8046   21.1593 C   0  0  0  0  0  0  0  0  0  0  0  0
    4.6485  -18.3531   20.3215 S   0  0  0  0  0  0  0  0  0  0  0  0
    7.1259  -15.6333   21.9073 C   0  0  0  0  0  0  0  0  0  0  0  0
    8.3776  -15.5150   21.6712 O   0  0  0  0  0  0  0  0  0  0  0  0
    6.3433  -12.3896   27.1106 C   0  0  0  0  0  0  0  0  0  0  0  0
    7.3611  -12.9430   26.0923 C   0  0  2  0  0  0  0  0  0  0  0  0
    8.1694  -11.7671   25.6394 C   0  0  0  0  0  0  0  0  0  0  0  0
    6.5684  -13.6236   25.0300 C   0  0  0  0  0  0  0  0  0  0  0  0
    7.3663  -14.4011   24.0188 C   0  0  2  0  0  0  0  0  0  0  0  0
    6.5374  -15.1128   23.0796 N   0  0  0  0  0  0  0  0  0  0  0  0
    8.1464  -15.4124   24.7978 C   0  0  0  0  0  0  0  0  0  0  0  0
    7.5032  -16.3199   25.3812 O   0  0  0  0  0  0  0  0  0  0  0  0
   14.6432  -19.5015   21.7287 N   0  0  0  0  0  0  0  0  0  0  0  0
   13.3057  -19.6164   22.1779 C   0  0  0  0  0  0  0  0  0  0  0  0
   12.9184  -20.6425   22.8804 N   0  0  0  0  0  0  0  0  0  0  0  0
   12.3513  -18.6091   21.8704 N   0  0  0  0  0  0  0  0  0  0  0  0
   12.2859  -17.3767   22.6281 C   0  0  0  0  0  0  0  0  0  0  0  0
   12.0373  -17.7480   24.1078 C   0  0  0  0  0  0  0  0  0  0  0  0
   11.6877  -16.5216   24.8932 C   0  0  0  0  0  0  0  0  0  0  0  0
   10.2664  -16.5562   25.3437 C   0  0  2  0  0  0  0  0  0  0  0  0
    9.5631  -15.3512   24.8765 N   0  0  0  0  0  0  0  0  0  0  0  0
   10.1493  -16.5701   26.8016 C   0  0  0  0  0  0  0  0  0  0  0  0
   10.2394  -17.7485   27.5250 O   0  0  0  0  0  0  0  0  0  0  0  0
    9.9578  -15.4780   27.4129 O   0  0  0  0  0  0  0  0  0  0  0  0
  2  3  1  0
  2  1  1  6
  4  3  1  0
  5  2  1  0
  6  5  2  0
  8  7  1  1
  8 10  1  0
  9  8  1  0
 11 10  1  1
 11 12  1  0
 12  5  1  0
 13 11  1  0
 13 14  2  0
 16 15  1  0
 17 16  2  0
 18 16  1  0
 19 18  1  0
 20 21  1  0
 20 19  1  0
 22 21  1  1
 22 23  1  0
 23 13  1  0
 24 22  1  0
 25 24  1  0
 26 24  2  0
M  END
$$$$
