CLR.pdb
     RDKit          3D

 26 25  0  0  1  0  0  0  0  0999 V2000
    8.9797  -19.4051   18.9133 N   0  0  0  0  0  0  0  0  0  0  0  0
    9.8644  -18.4699   18.2460 C   0  0  1  0  0  0  0  0  0  0  0  0
    9.5361  -18.3564   16.7861 C   0  0  0  0  0  0  0  0  0  0  0  0
   11.0079  -17.6925   15.9395 S   0  0  0  0  0  0  0  0  0  0  0  0
    9.9519  -17.1928   18.9441 C   0  0  0  0  0  0  0  0  0  0  0  0
   11.0979  -16.6259   18.9877 O   0  0  0  0  0  0  0  0  0  0  0  0
    6.1854  -12.7358   20.8988 C   0  0  0  0  0  0  0  0  0  0  0  0
    7.6475  -13.2143   20.7874 C   0  0  2  0  0  0  0  0  0  0  0  0
    8.3440  -12.2085   19.9246 C   0  0  0  0  0  0  0  0  0  0  0  0
    7.5980  -14.6007   20.2439 C   0  0  0  0  0  0  0  0  0  0  0  0
    8.9233  -15.3041   20.1310 C   0  0  2  0  0  0  0  0  0  0  0  0
    8.8126  -16.6150   19.5437 N   0  0  0  0  0  0  0  0  0  0  0  0
    9.4223  -15.4714   21.5314 C   0  0  0  0  0  0  0  0  0  0  0  0
    9.5747  -14.4339   22.2228 O   0  0  0  0  0  0  0  0  0  0  0  0
    8.4660  -21.0919   28.0881 N   0  0  0  0  0  0  0  0  0  0  0  0
    7.4334  -20.1677   27.7989 C   0  0  0  0  0  0  0  0  0  0  0  0
    6.3581  -20.1102   28.5315 N   0  0  0  0  0  0  0  0  0  0  0  0
    7.5484  -19.2776   26.6968 N   0  0  0  0  0  0  0  0  0  0  0  0
    8.5921  -19.4368   25.7054 C   0  0  0  0  0  0  0  0  0  0  0  0
    8.9231  -18.0356   25.1432 C   0  0  0  0  0  0  0  0  0  0  0  0
    9.9255  -18.1500   24.0364 C   0  0  0  0  0  0  0  0  0  0  0  0
   10.2264  -16.8163   23.4407 C   0  0  2  0  0  0  0  0  0  0  0  0
    9.7140  -16.7558   22.0627 N   0  0  0  0  0  0  0  0  0  0  0  0
   11.6639  -16.5573   23.3642 C   0  0  0  0  0  0  0  0  0  0  0  0
   12.4122  -16.2813   24.4973 O   0  0  0  0  0  0  0  0  0  0  0  0
   12.2335  -16.5832   22.2337 O   0  0  0  0  0  0  0  0  0  0  0  0
  2  3  1  0
  2  1  1  1
  4  3  1  0
  5  2  1  0
  6  5  2  0
  8  7  1  6
  8 10  1  0
  9  8  1  0
 11 10  1  1
 11 12  1  0
 12  5  1  0
 13 11  1  0
 13 14  2  0
 16 15  1  0
 17 16  2  0
 18 16  1  0
 19 18  1  0
 20 21  1  0
 20 19  1  0
 22 21  1  6
 22 23  1  0
 23 13  1  0
 24 22  1  0
 25 24  1  0
 26 24  2  0
M  END
$$$$
