CLR.pdb
     RDKit          3D

 26 25  0  0  1  0  0  0  0  0999 V2000
    6.1028  -19.6582   24.4945 N   0  0  0  0  0  0  0  0  0  0  0  0
    5.8664  -18.8223   23.3335 C   0  0  1  0  0  0  0  0  0  0  0  0
    4.4607  -18.9736   22.8304 C   0  0  0  0  0  0  0  0  0  0  0  0
    3.7532  -20.4627   23.6088 S   0  0  0  0  0  0  0  0  0  0  0  0
    6.2832  -17.4417   23.5485 C   0  0  0  0  0  0  0  0  0  0  0  0
    6.0956  -16.6165   22.5891 O   0  0  0  0  0  0  0  0  0  0  0  0
    6.8391  -13.2088   27.7758 C   0  0  0  0  0  0  0  0  0  0  0  0
    7.3117  -13.6187   26.3660 C   0  0  2  0  0  0  0  0  0  0  0  0
    6.7442  -12.5977   25.4297 C   0  0  0  0  0  0  0  0  0  0  0  0
    6.8410  -15.0162   26.1525 C   0  0  0  0  0  0  0  0  0  0  0  0
    7.3442  -15.6899   24.9048 C   0  0  2  0  0  0  0  0  0  0  0  0
    6.8687  -17.0431   24.7690 N   0  0  0  0  0  0  0  0  0  0  0  0
    8.8338  -15.7398   25.0349 C   0  0  0  0  0  0  0  0  0  0  0  0
    9.3990  -14.7845   25.6226 O   0  0  0  0  0  0  0  0  0  0  0  0
    9.8963  -12.3044   19.4477 N   0  0  0  0  0  0  0  0  0  0  0  0
    9.0275  -13.3779   19.1366 C   0  0  0  0  0  0  0  0  0  0  0  0
    8.1541  -13.2789   18.1756 N   0  0  0  0  0  0  0  0  0  0  0  0
    9.0899  -14.5937   19.8702 N   0  0  0  0  0  0  0  0  0  0  0  0
   10.3336  -15.3204   20.0198 C   0  0  0  0  0  0  0  0  0  0  0  0
   10.8558  -15.0672   21.4524 C   0  0  0  0  0  0  0  0  0  0  0  0
    9.8663  -15.5728   22.4565 C   0  0  0  0  0  0  0  0  0  0  0  0
   10.4989  -16.5424   23.3966 C   0  0  2  0  0  0  0  0  0  0  0  0
    9.5843  -16.8270   24.5136 N   0  0  0  0  0  0  0  0  0  0  0  0
   11.7294  -16.0166   23.9871 C   0  0  0  0  0  0  0  0  0  0  0  0
   11.7011  -15.0874   25.0146 O   0  0  0  0  0  0  0  0  0  0  0  0
   12.8447  -16.4198   23.5437 O   0  0  0  0  0  0  0  0  0  0  0  0
  2  3  1  0
  2  1  1  1
  4  3  1  0
  5  2  1  0
  6  5  2  0
  8  7  1  1
  8 10  1  0
  9  8  1  0
 11 10  1  1
 11 12  1  0
 12  5  1  0
 13 11  1  0
 13 14  2  0
 16 15  1  0
 17 16  2  0
 18 16  1  0
 19 18  1  0
 20 21  1  0
 20 19  1  0
 22 21  1  6
 22 23  1  0
 23 13  1  0
 24 22  1  0
 25 24  1  0
 26 24  2  0
M  END
$$$$
