CLR.pdb
     RDKit          3D

 26 25  0  0  1  0  0  0  0  0999 V2000
    7.2407  -13.9516   19.8132 N   0  0  0  0  0  0  0  0  0  0  0  0
    6.8097  -14.7146   20.9685 C   0  0  1  0  0  0  0  0  0  0  0  0
    6.6322  -16.1653   20.6279 C   0  0  0  0  0  0  0  0  0  0  0  0
    5.1290  -16.3126   19.6069 S   0  0  0  0  0  0  0  0  0  0  0  0
    7.6433  -14.4690   22.1393 C   0  0  0  0  0  0  0  0  0  0  0  0
    8.8891  -14.2588   21.9383 O   0  0  0  0  0  0  0  0  0  0  0  0
    7.6024  -11.5015   25.8045 C   0  0  0  0  0  0  0  0  0  0  0  0
    6.5085  -12.5887   25.7874 C   0  0  2  0  0  0  0  0  0  0  0  0
    5.6263  -12.3020   26.9624 C   0  0  0  0  0  0  0  0  0  0  0  0
    7.2156  -13.8998   25.8212 C   0  0  0  0  0  0  0  0  0  0  0  0
    7.9594  -14.2715   24.5673 C   0  0  2  0  0  0  0  0  0  0  0  0
    7.0879  -14.4656   23.4366 N   0  0  0  0  0  0  0  0  0  0  0  0
    8.6299  -15.5772   24.8569 C   0  0  0  0  0  0  0  0  0  0  0  0
    7.9141  -16.6092   24.8675 O   0  0  0  0  0  0  0  0  0  0  0  0
   15.9409  -18.8235   21.4034 N   0  0  0  0  0  0  0  0  0  0  0  0
   15.4210  -19.8160   22.2688 C   0  0  0  0  0  0  0  0  0  0  0  0
   15.8600  -21.0415   22.2265 N   0  0  0  0  0  0  0  0  0  0  0  0
   14.4034  -19.4949   23.2076 N   0  0  0  0  0  0  0  0  0  0  0  0
   13.8221  -18.1696   23.2649 C   0  0  0  0  0  0  0  0  0  0  0  0
   12.6316  -18.2214   24.2492 C   0  0  0  0  0  0  0  0  0  0  0  0
   11.9339  -16.8965   24.2815 C   0  0  0  0  0  0  0  0  0  0  0  0
   10.6554  -16.9782   25.0449 C   0  0  2  0  0  0  0  0  0  0  0  0
   10.0253  -15.6502   25.1109 N   0  0  0  0  0  0  0  0  0  0  0  0
   10.8637  -17.4116   26.4262 C   0  0  0  0  0  0  0  0  0  0  0  0
   11.3170  -18.6863   26.7257 O   0  0  0  0  0  0  0  0  0  0  0  0
   10.6197  -16.6010   27.3678 O   0  0  0  0  0  0  0  0  0  0  0  0
  2  3  1  0
  2  1  1  6
  4  3  1  0
  5  2  1  0
  6  5  2  0
  8  7  1  1
  8 10  1  0
  9  8  1  0
 11 10  1  1
 11 12  1  0
 12  5  1  0
 13 11  1  0
 13 14  2  0
 16 15  1  0
 17 16  2  0
 18 16  1  0
 19 18  1  0
 20 21  1  0
 20 19  1  0
 22 21  1  6
 22 23  1  0
 23 13  1  0
 24 22  1  0
 25 24  1  0
 26 24  2  0
M  END
$$$$
