CLR.pdb
     RDKit          3D

 26 25  0  0  1  0  0  0  0  0999 V2000
    7.8656  -14.4910   20.1130 N   0  0  0  0  0  0  0  0  0  0  0  0
    7.1726  -15.0243   21.2697 C   0  0  1  0  0  0  0  0  0  0  0  0
    6.7878  -16.4597   21.0604 C   0  0  0  0  0  0  0  0  0  0  0  0
    5.3160  -16.4853   19.9848 S   0  0  0  0  0  0  0  0  0  0  0  0
    7.8891  -14.7687   22.5136 C   0  0  0  0  0  0  0  0  0  0  0  0
    9.1657  -14.8435   22.4808 O   0  0  0  0  0  0  0  0  0  0  0  0
    8.0824  -11.4119   25.8156 C   0  0  0  0  0  0  0  0  0  0  0  0
    6.7667  -12.2158   25.7751 C   0  0  2  0  0  0  0  0  0  0  0  0
    5.8761  -11.5980   26.8078 C   0  0  0  0  0  0  0  0  0  0  0  0
    7.1342  -13.6397   26.0144 C   0  0  0  0  0  0  0  0  0  0  0  0
    7.9355  -14.2979   24.9241 C   0  0  2  0  0  0  0  0  0  0  0  0
    7.1925  -14.4525   23.6995 N   0  0  0  0  0  0  0  0  0  0  0  0
    8.2743  -15.6649   25.4288 C   0  0  0  0  0  0  0  0  0  0  0  0
    7.3361  -16.4922   25.5428 O   0  0  0  0  0  0  0  0  0  0  0  0
   12.7155  -20.6147   21.2806 N   0  0  0  0  0  0  0  0  0  0  0  0
   12.1877  -19.3317   20.9989 C   0  0  0  0  0  0  0  0  0  0  0  0
   11.9573  -18.9538   19.7740 N   0  0  0  0  0  0  0  0  0  0  0  0
   11.8963  -18.4231   22.0523 N   0  0  0  0  0  0  0  0  0  0  0  0
   11.9734  -18.8291   23.4404 C   0  0  0  0  0  0  0  0  0  0  0  0
   10.7066  -18.3047   24.1538 C   0  0  0  0  0  0  0  0  0  0  0  0
   11.0183  -17.9821   25.5827 C   0  0  0  0  0  0  0  0  0  0  0  0
    9.8392  -17.3808   26.2699 C   0  0  2  0  0  0  0  0  0  0  0  0
    9.6077  -16.0173   25.7675 N   0  0  0  0  0  0  0  0  0  0  0  0
   10.0409  -17.2658   27.7140 C   0  0  0  0  0  0  0  0  0  0  0  0
    9.8953  -18.3569   28.5556 O   0  0  0  0  0  0  0  0  0  0  0  0
   10.3525  -16.1403   28.2031 O   0  0  0  0  0  0  0  0  0  0  0  0
  2  3  1  0
  2  1  1  6
  4  3  1  0
  5  2  1  0
  6  5  2  0
  8  7  1  1
  8 10  1  0
  9  8  1  0
 11 10  1  1
 11 12  1  0
 12  5  1  0
 13 11  1  0
 13 14  2  0
 16 15  1  0
 17 16  2  0
 18 16  1  0
 19 18  1  0
 20 21  1  0
 20 19  1  0
 22 21  1  6
 22 23  1  0
 23 13  1  0
 24 22  1  0
 25 24  1  0
 26 24  2  0
M  END
$$$$
