CLR.pdb
     RDKit          3D

 26 25  0  0  1  0  0  0  0  0999 V2000
    4.6580  -18.0338   23.9418 N   0  0  0  0  0  0  0  0  0  0  0  0
    5.3617  -17.4889   22.7970 C   0  0  1  0  0  0  0  0  0  0  0  0
    4.4081  -16.8842   21.8085 C   0  0  0  0  0  0  0  0  0  0  0  0
    3.0723  -18.0911   21.5210 S   0  0  0  0  0  0  0  0  0  0  0  0
    6.4610  -16.6134   23.1855 C   0  0  0  0  0  0  0  0  0  0  0  0
    7.2604  -16.2312   22.2628 O   0  0  0  0  0  0  0  0  0  0  0  0
    7.2940  -12.3980   24.8690 C   0  0  0  0  0  0  0  0  0  0  0  0
    6.5681  -13.3731   25.8182 C   0  0  2  0  0  0  0  0  0  0  0  0
    6.2020  -12.5718   27.0286 C   0  0  0  0  0  0  0  0  0  0  0  0
    7.5062  -14.5055   26.0586 C   0  0  0  0  0  0  0  0  0  0  0  0
    7.7655  -15.3991   24.8761 C   0  0  2  0  0  0  0  0  0  0  0  0
    6.6269  -16.2103   24.5277 N   0  0  0  0  0  0  0  0  0  0  0  0
    8.8722  -16.3177   25.2878 C   0  0  0  0  0  0  0  0  0  0  0  0
    8.5975  -17.2293   26.1070 O   0  0  0  0  0  0  0  0  0  0  0  0
   12.0437  -17.3621   18.6594 N   0  0  0  0  0  0  0  0  0  0  0  0
   10.8937  -18.0614   19.0982 C   0  0  0  0  0  0  0  0  0  0  0  0
   10.0575  -18.5817   18.2459 N   0  0  0  0  0  0  0  0  0  0  0  0
   10.6252  -18.2117   20.4858 N   0  0  0  0  0  0  0  0  0  0  0  0
   11.6973  -18.3356   21.4515 C   0  0  0  0  0  0  0  0  0  0  0  0
   11.0605  -18.3575   22.8597 C   0  0  0  0  0  0  0  0  0  0  0  0
   11.9102  -17.5835   23.8197 C   0  0  0  0  0  0  0  0  0  0  0  0
   11.1515  -17.2410   25.0571 C   0  0  2  0  0  0  0  0  0  0  0  0
   10.1871  -16.1668   24.7726 N   0  0  0  0  0  0  0  0  0  0  0  0
   12.0248  -16.7479   26.1218 C   0  0  0  0  0  0  0  0  0  0  0  0
   13.0260  -17.5384   26.6627 O   0  0  0  0  0  0  0  0  0  0  0  0
   11.8565  -15.5716   26.5590 O   0  0  0  0  0  0  0  0  0  0  0  0
  2  3  1  0
  2  1  1  1
  4  3  1  0
  5  2  1  0
  6  5  2  0
  8  7  1  6
  8 10  1  0
  9  8  1  0
 11 10  1  1
 11 12  1  0
 12  5  1  0
 13 11  1  0
 13 14  2  0
 16 15  1  0
 17 16  2  0
 18 16  1  0
 19 18  1  0
 20 21  1  0
 20 19  1  0
 22 21  1  6
 22 23  1  0
 23 13  1  0
 24 22  1  0
 25 24  1  0
 26 24  2  0
M  END
$$$$
