CLR.pdb
     RDKit          3D

 26 25  0  0  1  0  0  0  0  0999 V2000
    9.1400  -15.1346   20.2459 N   0  0  0  0  0  0  0  0  0  0  0  0
    8.0580  -15.2927   21.1982 C   0  0  1  0  0  0  0  0  0  0  0  0
    7.3160  -16.5772   20.9715 C   0  0  0  0  0  0  0  0  0  0  0  0
    7.5852  -17.0714   19.2374 S   0  0  0  0  0  0  0  0  0  0  0  0
    8.4936  -15.0841   22.5740 C   0  0  0  0  0  0  0  0  0  0  0  0
    9.7450  -15.1937   22.8158 O   0  0  0  0  0  0  0  0  0  0  0  0
    7.6508  -11.6403   25.7699 C   0  0  0  0  0  0  0  0  0  0  0  0
    6.4904  -12.6163   25.4872 C   0  0  2  0  0  0  0  0  0  0  0  0
    5.3331  -12.1244   26.2994 C   0  0  0  0  0  0  0  0  0  0  0  0
    6.9877  -13.9764   25.8377 C   0  0  0  0  0  0  0  0  0  0  0  0
    8.0452  -14.5383   24.9268 C   0  0  2  0  0  0  0  0  0  0  0  0
    7.5639  -14.7744   23.5895 N   0  0  0  0  0  0  0  0  0  0  0  0
    8.4349  -15.8589   25.5120 C   0  0  0  0  0  0  0  0  0  0  0  0
    7.6138  -16.8042   25.4130 O   0  0  0  0  0  0  0  0  0  0  0  0
   15.7658  -20.0661   24.8718 N   0  0  0  0  0  0  0  0  0  0  0  0
   14.5678  -20.0968   24.1182 C   0  0  0  0  0  0  0  0  0  0  0  0
   14.5732  -20.4355   22.8606 N   0  0  0  0  0  0  0  0  0  0  0  0
   13.3263  -19.7569   24.7210 N   0  0  0  0  0  0  0  0  0  0  0  0
   13.2420  -19.3978   26.1214 C   0  0  0  0  0  0  0  0  0  0  0  0
   11.7510  -19.1682   26.4582 C   0  0  0  0  0  0  0  0  0  0  0  0
   11.3089  -17.8317   25.9470 C   0  0  0  0  0  0  0  0  0  0  0  0
   10.0333  -17.4031   26.5896 C   0  0  2  0  0  0  0  0  0  0  0  0
    9.6873  -16.0400   26.1567 N   0  0  0  0  0  0  0  0  0  0  0  0
   10.1351  -17.3656   28.0482 C   0  0  0  0  0  0  0  0  0  0  0  0
    9.9605  -16.1879   28.7572 O   0  0  0  0  0  0  0  0  0  0  0  0
   10.3923  -18.4359   28.6738 O   0  0  0  0  0  0  0  0  0  0  0  0
  2  3  1  0
  2  1  1  6
  4  3  1  0
  5  2  1  0
  6  5  2  0
  8  7  1  1
  8 10  1  0
  9  8  1  0
 11 10  1  1
 11 12  1  0
 12  5  1  0
 13 11  1  0
 13 14  2  0
 16 15  1  0
 17 16  2  0
 18 16  1  0
 19 18  1  0
 20 21  1  0
 20 19  1  0
 22 21  1  6
 22 23  1  0
 23 13  1  0
 24 22  1  0
 25 24  1  0
 26 24  2  0
M  END
$$$$
