IES.pdb
     RDKit          3D

 24 23  0  0  1  0  0  0  0  0999 V2000
   18.3145  -14.6949  -16.0164 C   0  0  0  0  0  0  0  0  0  0  0  0
   17.7114  -13.4040  -16.4877 C   0  0  0  0  0  0  0  0  0  0  0  0
   18.7184  -12.3193  -16.7369 C   0  0  2  0  0  0  0  0  0  0  0  0
   19.4952  -12.1064  -15.4577 C   0  0  0  0  0  0  0  0  0  0  0  0
   18.1310  -11.0646  -17.2780 C   0  0  2  0  0  0  0  0  0  0  0  0
   17.4086  -11.3653  -18.5154 N   0  0  0  0  0  0  0  0  0  0  0  0
   19.0888   -9.9576  -17.4828 C   0  0  0  0  0  0  0  0  0  0  0  0
   20.2777  -10.1633  -17.7678 O   0  0  0  0  0  0  0  0  0  0  0  0
   18.6847   -8.5801  -17.3602 N   0  0  0  0  0  0  0  0  0  0  0  0
   19.5904   -7.4689  -17.4742 C   0  0  1  0  0  0  0  0  0  0  0  0
   19.0820   -6.3711  -18.3725 C   0  0  0  0  0  0  0  0  0  0  0  0
   20.0282   -5.2178  -18.5125 C   0  0  0  0  0  0  0  0  0  0  0  0
   19.3850   -4.2049  -19.3748 C   0  0  0  0  0  0  0  0  0  0  0  0
   18.2060   -4.3886  -19.7464 O   0  0  0  0  0  0  0  0  0  0  0  0
   19.8185   -6.8786  -16.1350 C   0  0  0  0  0  0  0  0  0  0  0  0
   18.8515   -6.7103  -15.3795 O   0  0  0  0  0  0  0  0  0  0  0  0
   20.0437   -3.0634  -19.7828 O   0  0  0  0  0  0  0  0  0  0  0  0
   21.2916   -8.1334  -13.2411 O   0  0  0  0  0  0  0  0  0  0  0  0
   22.0235   -6.9492  -13.4304 C   0  0  0  0  0  0  0  0  0  0  0  0
   21.2888   -5.9948  -14.3423 C   0  0  2  0  0  0  0  0  0  0  0  0
   21.0990   -6.4906  -15.6648 N   0  0  0  0  0  0  0  0  0  0  0  0
   21.9667   -4.6971  -14.3468 C   0  0  0  0  0  0  0  0  0  0  0  0
   22.0965   -3.9106  -13.2151 O   0  0  0  0  0  0  0  0  0  0  0  0
   22.4568   -4.2667  -15.4185 O   0  0  0  0  0  0  0  0  0  0  0  0
  2  1  1  0
  3  2  1  0
  3  4  1  1
  5  3  1  0
  5  6  1  6
  7  8  2  0
  7  5  1  0
  9  7  1  0
 10  9  1  0
 11 12  1  0
 10 11  1  6
 12 13  1  0
 13 17  1  0
 13 14  2  0
 15 16  2  0
 15 10  1  0
 18 19  1  0
 20 21  1  0
 20 19  1  1
 21 15  1  0
 22 20  1  0
 23 22  1  0
 24 22  2  0
M  END
$$$$
