IES.pdb
     RDKit          3D

 24 23  0  0  1  0  0  0  0  0999 V2000
   18.4594  -14.1021  -17.8957 C   0  0  0  0  0  0  0  0  0  0  0  0
   18.5405  -13.2902  -16.6363 C   0  0  0  0  0  0  0  0  0  0  0  0
   18.6547  -11.8125  -16.8734 C   0  0  2  0  0  0  0  0  0  0  0  0
   19.8626  -11.5767  -17.7512 C   0  0  0  0  0  0  0  0  0  0  0  0
   18.6727  -11.0018  -15.6266 C   0  0  2  0  0  0  0  0  0  0  0  0
   17.4654  -11.2867  -14.8491 N   0  0  0  0  0  0  0  0  0  0  0  0
   18.8413   -9.5466  -15.8237 C   0  0  0  0  0  0  0  0  0  0  0  0
   19.8220   -9.0745  -16.4171 O   0  0  0  0  0  0  0  0  0  0  0  0
   17.8693   -8.6029  -15.3332 N   0  0  0  0  0  0  0  0  0  0  0  0
   17.9413   -7.1863  -15.5703 C   0  0  1  0  0  0  0  0  0  0  0  0
   16.6438   -6.4675  -15.3044 C   0  0  0  0  0  0  0  0  0  0  0  0
   15.5532   -6.8108  -16.2728 C   0  0  0  0  0  0  0  0  0  0  0  0
   14.3077   -6.1726  -15.7987 C   0  0  0  0  0  0  0  0  0  0  0  0
   13.3176   -6.8926  -15.5478 O   0  0  0  0  0  0  0  0  0  0  0  0
   18.9699   -6.5896  -14.6872 C   0  0  0  0  0  0  0  0  0  0  0  0
   19.0164   -6.9360  -13.4989 O   0  0  0  0  0  0  0  0  0  0  0  0
   14.2027   -4.8080  -15.6243 O   0  0  0  0  0  0  0  0  0  0  0  0
   23.2600   -5.3119  -13.6247 O   0  0  0  0  0  0  0  0  0  0  0  0
   22.2845   -5.8282  -14.4940 C   0  0  0  0  0  0  0  0  0  0  0  0
   20.9507   -5.1523  -14.2788 C   0  0  2  0  0  0  0  0  0  0  0  0
   19.9158   -5.6317  -15.1332 N   0  0  0  0  0  0  0  0  0  0  0  0
   21.1102   -3.7010  -14.3895 C   0  0  0  0  0  0  0  0  0  0  0  0
   21.6363   -2.9209  -13.3743 O   0  0  0  0  0  0  0  0  0  0  0  0
   20.7578   -3.1260  -15.4474 O   0  0  0  0  0  0  0  0  0  0  0  0
  2  1  1  0
  3  2  1  0
  3  4  1  1
  5  3  1  0
  5  6  1  6
  7  8  2  0
  7  5  1  0
  9  7  1  0
 10  9  1  0
 11 12  1  0
 10 11  1  1
 12 13  1  0
 13 17  1  0
 13 14  2  0
 15 16  2  0
 15 10  1  0
 18 19  1  0
 20 21  1  0
 20 19  1  6
 21 15  1  0
 22 20  1  0
 23 22  1  0
 24 22  2  0
M  END
$$$$
