IES.pdb
     RDKit          3D

 24 23  0  0  1  0  0  0  0  0999 V2000
   12.4335  -12.3556  -15.7347 C   0  0  0  0  0  0  0  0  0  0  0  0
   13.9209  -12.3361  -15.9332 C   0  0  0  0  0  0  0  0  0  0  0  0
   14.6194  -11.2428  -15.1785 C   0  0  2  0  0  0  0  0  0  0  0  0
   14.0678   -9.9211  -15.6624 C   0  0  0  0  0  0  0  0  0  0  0  0
   16.1033  -11.3158  -15.2478 C   0  0  2  0  0  0  0  0  0  0  0  0
   16.5479  -12.6039  -14.7127 N   0  0  0  0  0  0  0  0  0  0  0  0
   16.8201  -10.1991  -14.5968 C   0  0  0  0  0  0  0  0  0  0  0  0
   16.8921  -10.0962  -13.3634 O   0  0  0  0  0  0  0  0  0  0  0  0
   17.4725   -9.1718  -15.3682 N   0  0  0  0  0  0  0  0  0  0  0  0
   18.1265   -8.0305  -14.7868 C   0  0  1  0  0  0  0  0  0  0  0  0
   19.5744   -7.9025  -15.1844 C   0  0  0  0  0  0  0  0  0  0  0  0
   20.4428   -9.0095  -14.6693 C   0  0  0  0  0  0  0  0  0  0  0  0
   21.7741   -8.8708  -15.2950 C   0  0  0  0  0  0  0  0  0  0  0  0
   22.5399   -7.9689  -14.8924 O   0  0  0  0  0  0  0  0  0  0  0  0
   17.4355   -6.7932  -15.2173 C   0  0  0  0  0  0  0  0  0  0  0  0
   17.0359   -6.7034  -16.3863 O   0  0  0  0  0  0  0  0  0  0  0  0
   22.1989   -9.7043  -16.3090 O   0  0  0  0  0  0  0  0  0  0  0  0
   14.6699   -3.0477  -14.7350 O   0  0  0  0  0  0  0  0  0  0  0  0
   15.1990   -4.2663  -14.2778 C   0  0  0  0  0  0  0  0  0  0  0  0
   16.5898   -4.4943  -14.8219 C   0  0  2  0  0  0  0  0  0  0  0  0
   17.2037   -5.6922  -14.3540 N   0  0  0  0  0  0  0  0  0  0  0  0
   17.4235   -3.3215  -14.5508 C   0  0  0  0  0  0  0  0  0  0  0  0
   17.1508   -2.0670  -15.0685 O   0  0  0  0  0  0  0  0  0  0  0  0
   18.4337   -3.4457  -13.8174 O   0  0  0  0  0  0  0  0  0  0  0  0
  2  1  1  0
  3  2  1  0
  3  4  1  6
  5  3  1  0
  5  6  1  1
  7  8  2  0
  7  5  1  0
  9  7  1  0
 10  9  1  0
 11 12  1  0
 10 11  1  6
 12 13  1  0
 13 17  1  0
 13 14  2  0
 15 16  2  0
 15 10  1  0
 18 19  1  0
 20 21  1  0
 20 19  1  1
 21 15  1  0
 22 20  1  0
 23 22  1  0
 24 22  2  0
M  END
$$$$
