IES.pdb
     RDKit          3D

 24 23  0  0  1  0  0  0  0  0999 V2000
   15.9831  -12.8202  -18.7819 C   0  0  0  0  0  0  0  0  0  0  0  0
   17.3549  -12.5293  -18.2472 C   0  0  0  0  0  0  0  0  0  0  0  0
   17.3759  -11.4913  -17.1634 C   0  0  2  0  0  0  0  0  0  0  0  0
   16.7214  -10.2416  -17.7067 C   0  0  0  0  0  0  0  0  0  0  0  0
   18.7271  -11.2415  -16.5944 C   0  0  2  0  0  0  0  0  0  0  0  0
   19.2776  -12.5005  -16.0893 N   0  0  0  0  0  0  0  0  0  0  0  0
   18.7905  -10.1865  -15.5611 C   0  0  0  0  0  0  0  0  0  0  0  0
   18.3236  -10.3526  -14.4247 O   0  0  0  0  0  0  0  0  0  0  0  0
   19.4009   -8.9086  -15.8264 N   0  0  0  0  0  0  0  0  0  0  0  0
   19.4084   -7.8173  -14.8898 C   0  0  1  0  0  0  0  0  0  0  0  0
   20.7633   -7.1788  -14.7245 C   0  0  0  0  0  0  0  0  0  0  0  0
   20.7785   -6.0353  -13.7565 C   0  0  0  0  0  0  0  0  0  0  0  0
   22.1560   -5.5031  -13.7042 C   0  0  0  0  0  0  0  0  0  0  0  0
   22.3929   -4.5098  -12.9838 O   0  0  0  0  0  0  0  0  0  0  0  0
   18.4735   -6.7649  -15.3504 C   0  0  0  0  0  0  0  0  0  0  0  0
   18.5028   -6.4123  -16.5375 O   0  0  0  0  0  0  0  0  0  0  0  0
   23.1885   -6.0673  -14.4246 O   0  0  0  0  0  0  0  0  0  0  0  0
   14.4772   -4.0891  -14.6969 O   0  0  0  0  0  0  0  0  0  0  0  0
   15.3456   -5.0571  -14.1650 C   0  0  0  0  0  0  0  0  0  0  0  0
   16.6043   -5.1730  -14.9924 C   0  0  2  0  0  0  0  0  0  0  0  0
   17.5352   -6.1312  -14.4964 N   0  0  0  0  0  0  0  0  0  0  0  0
   17.2196   -3.8526  -15.1410 C   0  0  0  0  0  0  0  0  0  0  0  0
   17.0017   -3.0389  -16.2394 O   0  0  0  0  0  0  0  0  0  0  0  0
   17.9809   -3.4276  -14.2390 O   0  0  0  0  0  0  0  0  0  0  0  0
  2  1  1  0
  3  2  1  0
  3  4  1  6
  5  3  1  0
  5  6  1  1
  7  8  2  0
  7  5  1  0
  9  7  1  0
 10  9  1  0
 11 12  1  0
 10 11  1  6
 12 13  1  0
 13 17  1  0
 13 14  2  0
 15 16  2  0
 15 10  1  0
 18 19  1  0
 20 21  1  0
 20 19  1  1
 21 15  1  0
 22 20  1  0
 23 22  1  0
 24 22  2  0
M  END
$$$$
