IES.pdb
     RDKit          3D

 24 23  0  0  1  0  0  0  0  0999 V2000
   18.1726  -14.7890  -18.4604 C   0  0  0  0  0  0  0  0  0  0  0  0
   18.9887  -14.0490  -17.4413 C   0  0  0  0  0  0  0  0  0  0  0  0
   18.9672  -12.5581  -17.6134 C   0  0  2  0  0  0  0  0  0  0  0  0
   19.3450  -12.2521  -19.0448 C   0  0  0  0  0  0  0  0  0  0  0  0
   19.7984  -11.8251  -16.6215 C   0  0  2  0  0  0  0  0  0  0  0  0
   19.4155  -12.2408  -15.2710 N   0  0  0  0  0  0  0  0  0  0  0  0
   19.7754  -10.3524  -16.7459 C   0  0  0  0  0  0  0  0  0  0  0  0
   20.0939   -9.7780  -17.7973 O   0  0  0  0  0  0  0  0  0  0  0  0
   19.3800   -9.5101  -15.6458 N   0  0  0  0  0  0  0  0  0  0  0  0
   19.2253   -8.0839  -15.7474 C   0  0  1  0  0  0  0  0  0  0  0  0
   18.0103   -7.5601  -15.0262 C   0  0  0  0  0  0  0  0  0  0  0  0
   16.7318   -7.7404  -15.7862 C   0  0  0  0  0  0  0  0  0  0  0  0
   15.6320   -7.2030  -14.9585 C   0  0  0  0  0  0  0  0  0  0  0  0
   15.8571   -6.9258  -13.7608 O   0  0  0  0  0  0  0  0  0  0  0  0
   20.4117   -7.4159  -15.1644 C   0  0  0  0  0  0  0  0  0  0  0  0
   21.0157   -7.9674  -14.2342 O   0  0  0  0  0  0  0  0  0  0  0  0
   14.3652   -6.9976  -15.4650 O   0  0  0  0  0  0  0  0  0  0  0  0
   23.8235   -3.9545  -15.2563 O   0  0  0  0  0  0  0  0  0  0  0  0
   22.7247   -4.5383  -15.9088 C   0  0  0  0  0  0  0  0  0  0  0  0
   22.0339   -5.5441  -15.0181 C   0  0  2  0  0  0  0  0  0  0  0  0
   20.8998   -6.1641  -15.6183 N   0  0  0  0  0  0  0  0  0  0  0  0
   21.6904   -4.9169  -13.7404 C   0  0  0  0  0  0  0  0  0  0  0  0
   22.4762   -5.0358  -12.6070 O   0  0  0  0  0  0  0  0  0  0  0  0
   20.6387   -4.2382  -13.6556 O   0  0  0  0  0  0  0  0  0  0  0  0
  2  1  1  0
  3  2  1  0
  3  4  1  6
  5  3  1  0
  5  6  1  1
  7  8  2  0
  7  5  1  0
  9  7  1  0
 10  9  1  0
 11 12  1  0
 10 11  1  1
 12 13  1  0
 13 17  1  0
 13 14  2  0
 15 16  2  0
 15 10  1  0
 18 19  1  0
 20 21  1  0
 20 19  1  6
 21 15  1  0
 22 20  1  0
 23 22  1  0
 24 22  2  0
M  END
$$$$
