IES.pdb
     RDKit          3D

 24 23  0  0  1  0  0  0  0  0999 V2000
   11.7749  -11.7297   -9.7907 C   0  0  0  0  0  0  0  0  0  0  0  0
   13.0965  -11.6043  -10.4904 C   0  0  0  0  0  0  0  0  0  0  0  0
   14.0062  -10.5733   -9.8885 C   0  0  2  0  0  0  0  0  0  0  0  0
   13.2569   -9.2609   -9.8505 C   0  0  0  0  0  0  0  0  0  0  0  0
   15.3287  -10.4704  -10.5610 C   0  0  2  0  0  0  0  0  0  0  0  0
   15.9990  -11.7709  -10.5075 N   0  0  0  0  0  0  0  0  0  0  0  0
   16.2128   -9.4007  -10.0521 C   0  0  0  0  0  0  0  0  0  0  0  0
   16.9315   -9.5628   -9.0550 O   0  0  0  0  0  0  0  0  0  0  0  0
   16.2819   -8.1124  -10.6935 N   0  0  0  0  0  0  0  0  0  0  0  0
   17.2322   -7.0932  -10.3381 C   0  0  1  0  0  0  0  0  0  0  0  0
   18.4496   -7.0732  -11.2260 C   0  0  0  0  0  0  0  0  0  0  0  0
   19.4197   -5.9798  -10.8970 C   0  0  0  0  0  0  0  0  0  0  0  0
   20.5012   -6.0145  -11.9032 C   0  0  0  0  0  0  0  0  0  0  0  0
   20.5127   -6.9370  -12.7462 O   0  0  0  0  0  0  0  0  0  0  0  0
   16.5886   -5.7627  -10.4349 C   0  0  0  0  0  0  0  0  0  0  0  0
   16.0205   -5.4449  -11.4887 O   0  0  0  0  0  0  0  0  0  0  0  0
   21.4981   -5.0616  -11.9421 O   0  0  0  0  0  0  0  0  0  0  0  0
   14.7966   -3.7186   -7.3630 O   0  0  0  0  0  0  0  0  0  0  0  0
   15.6217   -2.9093   -8.1618 C   0  0  0  0  0  0  0  0  0  0  0  0
   15.9135   -3.5708   -9.4883 C   0  0  2  0  0  0  0  0  0  0  0  0
   16.5872   -4.8214   -9.3742 N   0  0  0  0  0  0  0  0  0  0  0  0
   16.6462   -2.6423  -10.3515 C   0  0  0  0  0  0  0  0  0  0  0  0
   16.1442   -1.4089  -10.7293 O   0  0  0  0  0  0  0  0  0  0  0  0
   17.7816   -2.9672  -10.7746 O   0  0  0  0  0  0  0  0  0  0  0  0
  2  1  1  0
  3  2  1  0
  3  4  1  6
  5  3  1  0
  5  6  1  1
  7  8  2  0
  7  5  1  0
  9  7  1  0
 10  9  1  0
 11 12  1  0
 10 11  1  6
 12 13  1  0
 13 17  1  0
 13 14  2  0
 15 16  2  0
 15 10  1  0
 18 19  1  0
 20 21  1  0
 20 19  1  1
 21 15  1  0
 22 20  1  0
 23 22  1  0
 24 22  2  0
M  END
$$$$
