IES.pdb
     RDKit          3D

 24 23  0  0  1  0  0  0  0  0999 V2000
   25.9673  -12.9341  -15.9013 C   0  0  0  0  0  0  0  0  0  0  0  0
   24.4699  -12.9878  -15.9849 C   0  0  0  0  0  0  0  0  0  0  0  0
   23.8348  -11.6760  -16.3434 C   0  0  2  0  0  0  0  0  0  0  0  0
   24.2465  -10.6622  -15.3004 C   0  0  0  0  0  0  0  0  0  0  0  0
   22.3617  -11.7517  -16.5335 C   0  0  2  0  0  0  0  0  0  0  0  0
   22.0573  -12.7705  -17.5398 N   0  0  0  0  0  0  0  0  0  0  0  0
   21.7024  -10.4708  -16.8643 C   0  0  0  0  0  0  0  0  0  0  0  0
   21.8617   -9.9153  -17.9611 O   0  0  0  0  0  0  0  0  0  0  0  0
   20.8391   -9.8034  -15.9234 N   0  0  0  0  0  0  0  0  0  0  0  0
   20.1962   -8.5437  -16.1838 C   0  0  1  0  0  0  0  0  0  0  0  0
   18.7067   -8.5729  -15.9577 C   0  0  0  0  0  0  0  0  0  0  0  0
   18.0323   -7.2574  -16.2017 C   0  0  0  0  0  0  0  0  0  0  0  0
   16.5829   -7.4427  -15.9824 C   0  0  0  0  0  0  0  0  0  0  0  0
   16.1714   -8.5457  -15.5631 O   0  0  0  0  0  0  0  0  0  0  0  0
   20.7619   -7.5067  -15.2903 C   0  0  0  0  0  0  0  0  0  0  0  0
   21.1143   -7.8258  -14.1465 O   0  0  0  0  0  0  0  0  0  0  0  0
   15.6695   -6.4377  -16.2257 O   0  0  0  0  0  0  0  0  0  0  0  0
   23.4984   -3.8193  -14.4555 O   0  0  0  0  0  0  0  0  0  0  0  0
   22.9082   -4.7344  -15.3433 C   0  0  0  0  0  0  0  0  0  0  0  0
   21.5687   -5.2063  -14.8282 C   0  0  2  0  0  0  0  0  0  0  0  0
   20.9241   -6.1519  -15.6773 N   0  0  0  0  0  0  0  0  0  0  0  0
   20.7094   -4.0515  -14.5597 C   0  0  0  0  0  0  0  0  0  0  0  0
   20.6199   -3.4517  -13.3154 O   0  0  0  0  0  0  0  0  0  0  0  0
   20.0177   -3.5742  -15.4912 O   0  0  0  0  0  0  0  0  0  0  0  0
  2  1  1  0
  3  2  1  0
  3  4  1  1
  5  3  1  0
  5  6  1  6
  7  8  2  0
  7  5  1  0
  9  7  1  0
 10  9  1  0
 11 12  1  0
 10 11  1  1
 12 13  1  0
 13 17  1  0
 13 14  2  0
 15 16  2  0
 15 10  1  0
 18 19  1  0
 20 21  1  0
 20 19  1  6
 21 15  1  0
 22 20  1  0
 23 22  1  0
 24 22  2  0
M  END
$$$$
