IES.pdb
     RDKit          3D

 24 23  0  0  1  0  0  0  0  0999 V2000
   27.7727  -13.3052  -16.2066 C   0  0  0  0  0  0  0  0  0  0  0  0
   26.2833  -13.4573  -16.1026 C   0  0  0  0  0  0  0  0  0  0  0  0
   25.5232  -12.1950  -16.3880 C   0  0  2  0  0  0  0  0  0  0  0  0
   25.9768  -11.1477  -15.3968 C   0  0  0  0  0  0  0  0  0  0  0  0
   24.0469  -12.3734  -16.4134 C   0  0  2  0  0  0  0  0  0  0  0  0
   23.7076  -13.4518  -17.3435 N   0  0  0  0  0  0  0  0  0  0  0  0
   23.2699  -11.1528  -16.7158 C   0  0  0  0  0  0  0  0  0  0  0  0
   23.3407  -10.5861  -17.8161 O   0  0  0  0  0  0  0  0  0  0  0  0
   22.3890  -10.5605  -15.7416 N   0  0  0  0  0  0  0  0  0  0  0  0
   21.5493   -9.4244  -16.0104 C   0  0  1  0  0  0  0  0  0  0  0  0
   20.1080   -9.6405  -15.6276 C   0  0  0  0  0  0  0  0  0  0  0  0
   19.4663  -10.8035  -16.3209 C   0  0  0  0  0  0  0  0  0  0  0  0
   18.5472  -11.4523  -15.3630 C   0  0  0  0  0  0  0  0  0  0  0  0
   17.5928  -10.7919  -14.8995 O   0  0  0  0  0  0  0  0  0  0  0  0
   22.0421   -8.2547  -15.2471 C   0  0  0  0  0  0  0  0  0  0  0  0
   22.5573   -8.4359  -14.1354 O   0  0  0  0  0  0  0  0  0  0  0  0
   18.7087  -12.7631  -14.9639 O   0  0  0  0  0  0  0  0  0  0  0  0
   23.0830   -3.4967  -14.9805 O   0  0  0  0  0  0  0  0  0  0  0  0
   22.5200   -4.5269  -15.7524 C   0  0  0  0  0  0  0  0  0  0  0  0
   22.4928   -5.8287  -14.9864 C   0  0  2  0  0  0  0  0  0  0  0  0
   21.9553   -6.9223  -15.7253 N   0  0  0  0  0  0  0  0  0  0  0  0
   21.7877   -5.6391  -13.7173 C   0  0  0  0  0  0  0  0  0  0  0  0
   22.3792   -5.0658  -12.6048 O   0  0  0  0  0  0  0  0  0  0  0  0
   20.5928   -6.0086  -13.6204 O   0  0  0  0  0  0  0  0  0  0  0  0
  2  1  1  0
  3  2  1  0
  3  4  1  1
  5  3  1  0
  5  6  1  6
  7  8  2  0
  7  5  1  0
  9  7  1  0
 10  9  1  0
 11 12  1  0
 10 11  1  1
 12 13  1  0
 13 17  1  0
 13 14  2  0
 15 16  2  0
 15 10  1  0
 18 19  1  0
 20 21  1  0
 20 19  1  6
 21 15  1  0
 22 20  1  0
 23 22  1  0
 24 22  2  0
M  END
$$$$
