IES.pdb
     RDKit          3D

 24 23  0  0  1  0  0  0  0  0999 V2000
   24.1275  -10.5849  -13.0292 C   0  0  0  0  0  0  0  0  0  0  0  0
   23.4579  -10.8495  -14.3459 C   0  0  0  0  0  0  0  0  0  0  0  0
   22.7763   -9.6477  -14.9323 C   0  0  2  0  0  0  0  0  0  0  0  0
   21.7411   -9.1721  -13.9386 C   0  0  0  0  0  0  0  0  0  0  0  0
   22.2182   -9.8751  -16.2919 C   0  0  2  0  0  0  0  0  0  0  0  0
   23.2732  -10.3914  -17.1658 N   0  0  0  0  0  0  0  0  0  0  0  0
   21.5529   -8.7056  -16.9036 C   0  0  0  0  0  0  0  0  0  0  0  0
   22.1970   -7.7727  -17.4055 O   0  0  0  0  0  0  0  0  0  0  0  0
   20.1170   -8.5931  -16.9461 N   0  0  0  0  0  0  0  0  0  0  0  0
   19.4198   -7.4920  -17.5540 C   0  0  1  0  0  0  0  0  0  0  0  0
   18.4707   -7.9133  -18.6460 C   0  0  0  0  0  0  0  0  0  0  0  0
   17.8121   -6.7664  -19.3501 C   0  0  0  0  0  0  0  0  0  0  0  0
   16.9567   -7.3211  -20.4197 C   0  0  0  0  0  0  0  0  0  0  0  0
   16.8597   -8.5619  -20.5332 O   0  0  0  0  0  0  0  0  0  0  0  0
   18.6268   -6.7811  -16.5247 C   0  0  0  0  0  0  0  0  0  0  0  0
   18.1346   -7.4293  -15.5910 O   0  0  0  0  0  0  0  0  0  0  0  0
   16.2621   -6.5138  -21.2967 O   0  0  0  0  0  0  0  0  0  0  0  0
   16.9429   -2.6505  -14.5581 O   0  0  0  0  0  0  0  0  0  0  0  0
   17.6189   -3.2292  -15.6454 C   0  0  0  0  0  0  0  0  0  0  0  0
   17.6124   -4.7370  -15.5506 C   0  0  2  0  0  0  0  0  0  0  0  0
   18.3975   -5.3818  -16.5499 N   0  0  0  0  0  0  0  0  0  0  0  0
   16.2319   -5.2250  -15.5536 C   0  0  0  0  0  0  0  0  0  0  0  0
   15.5549   -5.5785  -14.3991 O   0  0  0  0  0  0  0  0  0  0  0  0
   15.6236   -5.3323  -16.6455 O   0  0  0  0  0  0  0  0  0  0  0  0
  2  1  1  0
  3  2  1  0
  3  4  1  1
  5  3  1  0
  5  6  1  6
  7  8  2  0
  7  5  1  0
  9  7  1  0
 10  9  1  0
 11 12  1  0
 10 11  1  6
 12 13  1  0
 13 17  1  0
 13 14  2  0
 15 16  2  0
 15 10  1  0
 18 19  1  0
 20 21  1  0
 20 19  1  6
 21 15  1  0
 22 20  1  0
 23 22  1  0
 24 22  2  0
M  END
$$$$
