IES.pdb
     RDKit          3D

 24 23  0  0  1  0  0  0  0  0999 V2000
   16.7751  -14.0089  -17.3356 C   0  0  0  0  0  0  0  0  0  0  0  0
   17.9431  -13.0674  -17.3741 C   0  0  0  0  0  0  0  0  0  0  0  0
   17.8249  -11.9148  -16.4200 C   0  0  2  0  0  0  0  0  0  0  0  0
   16.5369  -11.1871  -16.7309 C   0  0  0  0  0  0  0  0  0  0  0  0
   19.0121  -11.0192  -16.4071 C   0  0  2  0  0  0  0  0  0  0  0  0
   20.2147  -11.8166  -16.1598 N   0  0  0  0  0  0  0  0  0  0  0  0
   18.9324   -9.8808  -15.4676 C   0  0  0  0  0  0  0  0  0  0  0  0
   18.2633   -9.9362  -14.4254 O   0  0  0  0  0  0  0  0  0  0  0  0
   19.6318   -8.6465  -15.7194 N   0  0  0  0  0  0  0  0  0  0  0  0
   19.5635   -7.4992  -14.8550 C   0  0  1  0  0  0  0  0  0  0  0  0
   20.9062   -6.8699  -14.5871 C   0  0  0  0  0  0  0  0  0  0  0  0
   20.8436   -5.6700  -13.6920 C   0  0  0  0  0  0  0  0  0  0  0  0
   22.2268   -5.2069  -13.4561 C   0  0  0  0  0  0  0  0  0  0  0  0
   22.6848   -5.2397  -12.2938 O   0  0  0  0  0  0  0  0  0  0  0  0
   18.7027   -6.4651  -15.4743 C   0  0  0  0  0  0  0  0  0  0  0  0
   18.8371   -6.2142  -16.6798 O   0  0  0  0  0  0  0  0  0  0  0  0
   23.0285   -4.7398  -14.4771 O   0  0  0  0  0  0  0  0  0  0  0  0
   15.2806   -4.8091  -13.6111 O   0  0  0  0  0  0  0  0  0  0  0  0
   15.4399   -4.8494  -15.0064 C   0  0  0  0  0  0  0  0  0  0  0  0
   16.8984   -4.7640  -15.3907 C   0  0  2  0  0  0  0  0  0  0  0  0
   17.7214   -5.7376  -14.7539 N   0  0  0  0  0  0  0  0  0  0  0  0
   17.3915   -3.4057  -15.1542 C   0  0  0  0  0  0  0  0  0  0  0  0
   16.8050   -2.2830  -15.7125 O   0  0  0  0  0  0  0  0  0  0  0  0
   18.3903   -3.2379  -14.4138 O   0  0  0  0  0  0  0  0  0  0  0  0
  2  1  1  0
  3  2  1  0
  3  4  1  6
  5  3  1  0
  5  6  1  1
  7  8  2  0
  7  5  1  0
  9  7  1  0
 10  9  1  0
 11 12  1  0
 10 11  1  6
 12 13  1  0
 13 17  1  0
 13 14  2  0
 15 16  2  0
 15 10  1  0
 18 19  1  0
 20 21  1  0
 20 19  1  1
 21 15  1  0
 22 20  1  0
 23 22  1  0
 24 22  2  0
M  END
$$$$
