IES.pdb
     RDKit          3D

 24 23  0  0  1  0  0  0  0  0999 V2000
   15.9711  -15.6386  -13.3738 C   0  0  0  0  0  0  0  0  0  0  0  0
   15.1661  -14.3928  -13.1458 C   0  0  0  0  0  0  0  0  0  0  0  0
   15.9484  -13.2690  -12.5313 C   0  0  2  0  0  0  0  0  0  0  0  0
   16.5478  -13.7750  -11.2391 C   0  0  0  0  0  0  0  0  0  0  0  0
   15.1680  -12.0146  -12.3602 C   0  0  2  0  0  0  0  0  0  0  0  0
   14.5888  -11.6279  -13.6479 N   0  0  0  0  0  0  0  0  0  0  0  0
   15.9105  -10.8879  -11.7568 C   0  0  0  0  0  0  0  0  0  0  0  0
   16.4288  -10.9705  -10.6336 O   0  0  0  0  0  0  0  0  0  0  0  0
   16.0682   -9.6338  -12.4485 N   0  0  0  0  0  0  0  0  0  0  0  0
   16.6441   -8.4592  -11.8511 C   0  0  1  0  0  0  0  0  0  0  0  0
   17.1264   -7.4489  -12.8598 C   0  0  0  0  0  0  0  0  0  0  0  0
   17.7878   -6.2520  -12.2476 C   0  0  0  0  0  0  0  0  0  0  0  0
   18.1027   -5.3018  -13.3345 C   0  0  0  0  0  0  0  0  0  0  0  0
   18.4458   -4.1372  -13.0384 O   0  0  0  0  0  0  0  0  0  0  0  0
   15.6319   -7.7911  -11.0008 C   0  0  0  0  0  0  0  0  0  0  0  0
   14.4764   -7.6644  -11.4285 O   0  0  0  0  0  0  0  0  0  0  0  0
   18.0300   -5.6588  -14.6652 O   0  0  0  0  0  0  0  0  0  0  0  0
   14.0885   -6.2667   -6.6821 O   0  0  0  0  0  0  0  0  0  0  0  0
   15.1921   -6.7201   -7.4241 C   0  0  0  0  0  0  0  0  0  0  0  0
   14.9072   -6.6743   -8.9070 C   0  0  2  0  0  0  0  0  0  0  0  0
   15.9169   -7.2823   -9.7080 N   0  0  0  0  0  0  0  0  0  0  0  0
   14.6549   -5.2918   -9.3179 C   0  0  0  0  0  0  0  0  0  0  0  0
   13.3908   -4.7277   -9.3297 O   0  0  0  0  0  0  0  0  0  0  0  0
   15.6195   -4.5751   -9.6778 O   0  0  0  0  0  0  0  0  0  0  0  0
  2  1  1  0
  3  2  1  0
  3  4  1  1
  5  3  1  0
  5  6  1  6
  7  8  2  0
  7  5  1  0
  9  7  1  0
 10  9  1  0
 11 12  1  0
 10 11  1  6
 12 13  1  0
 13 17  1  0
 13 14  2  0
 15 16  2  0
 15 10  1  0
 18 19  1  0
 20 21  1  0
 20 19  1  1
 21 15  1  0
 22 20  1  0
 23 22  1  0
 24 22  2  0
M  END
$$$$
