IES.pdb
     RDKit          3D

 24 23  0  0  1  0  0  0  0  0999 V2000
   14.6133  -14.0427  -14.8545 C   0  0  0  0  0  0  0  0  0  0  0  0
   14.3264  -12.6162  -14.4874 C   0  0  0  0  0  0  0  0  0  0  0  0
   15.3417  -11.6402  -15.0065 C   0  0  2  0  0  0  0  0  0  0  0  0
   16.7053  -12.1025  -14.5462 C   0  0  0  0  0  0  0  0  0  0  0  0
   15.0546  -10.2252  -14.6497 C   0  0  2  0  0  0  0  0  0  0  0  0
   13.7109   -9.8745  -15.1131 N   0  0  0  0  0  0  0  0  0  0  0  0
   16.0496   -9.2411  -15.1255 C   0  0  0  0  0  0  0  0  0  0  0  0
   16.6259   -9.3660  -16.2160 O   0  0  0  0  0  0  0  0  0  0  0  0
   16.3990   -8.0843  -14.3408 N   0  0  0  0  0  0  0  0  0  0  0  0
   17.2762   -7.0420  -14.8016 C   0  0  1  0  0  0  0  0  0  0  0  0
   16.6939   -5.6600  -14.6543 C   0  0  0  0  0  0  0  0  0  0  0  0
   17.6187   -4.5648  -15.0904 C   0  0  0  0  0  0  0  0  0  0  0  0
   16.8971   -3.2821  -14.9587 C   0  0  0  0  0  0  0  0  0  0  0  0
   15.7359   -3.2867  -14.4968 O   0  0  0  0  0  0  0  0  0  0  0  0
   18.5372   -7.0789  -14.0255 C   0  0  0  0  0  0  0  0  0  0  0  0
   18.4855   -7.2751  -12.8036 O   0  0  0  0  0  0  0  0  0  0  0  0
   17.4639   -2.0800  -15.3292 O   0  0  0  0  0  0  0  0  0  0  0  0
   23.1585   -7.9503  -13.4813 O   0  0  0  0  0  0  0  0  0  0  0  0
   21.9746   -8.0202  -14.2347 C   0  0  0  0  0  0  0  0  0  0  0  0
   21.0063   -6.9338  -13.8293 C   0  0  2  0  0  0  0  0  0  0  0  0
   19.8160   -6.8997  -14.6120 N   0  0  0  0  0  0  0  0  0  0  0  0
   21.6893   -5.6386  -13.8328 C   0  0  0  0  0  0  0  0  0  0  0  0
   22.2762   -5.0929  -12.7040 O   0  0  0  0  0  0  0  0  0  0  0  0
   21.7525   -4.9834  -14.9008 O   0  0  0  0  0  0  0  0  0  0  0  0
  2  1  1  0
  3  2  1  0
  3  4  1  1
  5  3  1  0
  5  6  1  6
  7  8  2  0
  7  5  1  0
  9  7  1  0
 10  9  1  0
 11 12  1  0
 10 11  1  1
 12 13  1  0
 13 17  1  0
 13 14  2  0
 15 16  2  0
 15 10  1  0
 18 19  1  0
 20 21  1  0
 20 19  1  6
 21 15  1  0
 22 20  1  0
 23 22  1  0
 24 22  2  0
M  END
$$$$
