IES.pdb
     RDKit          3D

 24 23  0  0  1  0  0  0  0  0999 V2000
   28.9904  -12.6243  -16.1536 C   0  0  0  0  0  0  0  0  0  0  0  0
   27.5310  -12.9722  -16.1157 C   0  0  0  0  0  0  0  0  0  0  0  0
   26.6233  -11.8132  -16.4081 C   0  0  2  0  0  0  0  0  0  0  0  0
   26.8719  -10.7545  -15.3581 C   0  0  0  0  0  0  0  0  0  0  0  0
   25.1891  -12.1873  -16.5309 C   0  0  2  0  0  0  0  0  0  0  0  0
   25.0639  -13.3232  -17.4459 N   0  0  0  0  0  0  0  0  0  0  0  0
   24.2832  -11.0888  -16.9277 C   0  0  0  0  0  0  0  0  0  0  0  0
   24.2730  -10.6308  -18.0797 O   0  0  0  0  0  0  0  0  0  0  0  0
   23.3644  -10.4948  -15.9902 N   0  0  0  0  0  0  0  0  0  0  0  0
   22.4107   -9.4775  -16.3419 C   0  0  1  0  0  0  0  0  0  0  0  0
   21.0073   -9.7900  -15.8910 C   0  0  0  0  0  0  0  0  0  0  0  0
   20.2362  -10.6362  -16.8576 C   0  0  0  0  0  0  0  0  0  0  0  0
   19.2717  -11.4451  -16.0838 C   0  0  0  0  0  0  0  0  0  0  0  0
   19.6168  -12.5777  -15.6839 O   0  0  0  0  0  0  0  0  0  0  0  0
   22.8042   -8.1942  -15.7156 C   0  0  0  0  0  0  0  0  0  0  0  0
   23.1302   -8.1835  -14.5207 O   0  0  0  0  0  0  0  0  0  0  0  0
   18.0030  -10.9904  -15.7887 O   0  0  0  0  0  0  0  0  0  0  0  0
   23.9472   -3.4720  -16.0938 O   0  0  0  0  0  0  0  0  0  0  0  0
   23.3829   -4.5857  -16.7382 C   0  0  0  0  0  0  0  0  0  0  0  0
   23.2529   -5.7551  -15.7905 C   0  0  2  0  0  0  0  0  0  0  0  0
   22.8284   -6.9622  -16.4177 N   0  0  0  0  0  0  0  0  0  0  0  0
   22.3758   -5.3910  -14.6760 C   0  0  0  0  0  0  0  0  0  0  0  0
   22.8332   -4.7603  -13.5318 O   0  0  0  0  0  0  0  0  0  0  0  0
   21.1520   -5.6571  -14.7488 O   0  0  0  0  0  0  0  0  0  0  0  0
  2  1  1  0
  3  2  1  0
  3  4  1  1
  5  3  1  0
  5  6  1  6
  7  8  2  0
  7  5  1  0
  9  7  1  0
 10  9  1  0
 11 12  1  0
 10 11  1  1
 12 13  1  0
 13 17  1  0
 13 14  2  0
 15 16  2  0
 15 10  1  0
 18 19  1  0
 20 21  1  0
 20 19  1  6
 21 15  1  0
 22 20  1  0
 23 22  1  0
 24 22  2  0
M  END
$$$$
