IES.pdb
     RDKit          3D

 24 23  0  0  1  0  0  0  0  0999 V2000
   21.0920  -13.9907  -17.2144 C   0  0  0  0  0  0  0  0  0  0  0  0
   21.9597  -12.7797  -17.0343 C   0  0  0  0  0  0  0  0  0  0  0  0
   21.3576  -11.7281  -16.1487 C   0  0  2  0  0  0  0  0  0  0  0  0
   20.0420  -11.3050  -16.7615 C   0  0  0  0  0  0  0  0  0  0  0  0
   22.2654  -10.5837  -15.8691 C   0  0  2  0  0  0  0  0  0  0  0  0
   23.5030  -11.0857  -15.2695 N   0  0  0  0  0  0  0  0  0  0  0  0
   21.6820   -9.5030  -15.0466 C   0  0  0  0  0  0  0  0  0  0  0  0
   21.2907   -9.7000  -13.8868 O   0  0  0  0  0  0  0  0  0  0  0  0
   21.5394   -8.1627  -15.5558 N   0  0  0  0  0  0  0  0  0  0  0  0
   20.8699   -7.1060  -14.8465 C   0  0  1  0  0  0  0  0  0  0  0  0
   21.6741   -5.8341  -14.7672 C   0  0  0  0  0  0  0  0  0  0  0  0
   20.9745   -4.7203  -14.0496 C   0  0  0  0  0  0  0  0  0  0  0  0
   21.9091   -3.5792  -13.9616 C   0  0  0  0  0  0  0  0  0  0  0  0
   21.6564   -2.5401  -14.6083 O   0  0  0  0  0  0  0  0  0  0  0  0
   19.5947   -6.7846  -15.5281 C   0  0  0  0  0  0  0  0  0  0  0  0
   19.5452   -6.8331  -16.7648 O   0  0  0  0  0  0  0  0  0  0  0  0
   23.0512   -3.6240  -13.1889 O   0  0  0  0  0  0  0  0  0  0  0  0
   15.0402   -6.9464  -16.2142 O   0  0  0  0  0  0  0  0  0  0  0  0
   16.2353   -7.3020  -15.5667 C   0  0  0  0  0  0  0  0  0  0  0  0
   17.1989   -6.1393  -15.5252 C   0  0  2  0  0  0  0  0  0  0  0  0
   18.4131   -6.4200  -14.8339 N   0  0  0  0  0  0  0  0  0  0  0  0
   16.5264   -4.9613  -14.9739 C   0  0  0  0  0  0  0  0  0  0  0  0
   15.3892   -4.4095  -15.5384 O   0  0  0  0  0  0  0  0  0  0  0  0
   16.9916   -4.4178  -13.9434 O   0  0  0  0  0  0  0  0  0  0  0  0
  2  1  1  0
  3  2  1  0
  3  4  1  6
  5  3  1  0
  5  6  1  1
  7  8  2  0
  7  5  1  0
  9  7  1  0
 10  9  1  0
 11 12  1  0
 10 11  1  6
 12 13  1  0
 13 17  1  0
 13 14  2  0
 15 16  2  0
 15 10  1  0
 18 19  1  0
 20 21  1  0
 20 19  1  1
 21 15  1  0
 22 20  1  0
 23 22  1  0
 24 22  2  0
M  END
$$$$
