IES.pdb
     RDKit          3D

 24 23  0  0  1  0  0  0  0  0999 V2000
   18.4794  -11.0053    5.9424 C   0  0  0  0  0  0  0  0  0  0  0  0
   18.6936  -12.3236    5.2582 C   0  0  0  0  0  0  0  0  0  0  0  0
   17.8946  -13.4496    5.8469 C   0  0  2  0  0  0  0  0  0  0  0  0
   18.1632  -13.4792    7.3342 C   0  0  0  0  0  0  0  0  0  0  0  0
   18.1254  -14.7619    5.1863 C   0  0  2  0  0  0  0  0  0  0  0  0
   17.6979  -14.6797    3.7886 N   0  0  0  0  0  0  0  0  0  0  0  0
   17.5065  -15.9234    5.8592 C   0  0  0  0  0  0  0  0  0  0  0  0
   17.1944  -15.8969    7.0587 O   0  0  0  0  0  0  0  0  0  0  0  0
   17.2351  -17.1478    5.1498 N   0  0  0  0  0  0  0  0  0  0  0  0
   16.6191  -18.2997    5.7514 C   0  0  1  0  0  0  0  0  0  0  0  0
   16.3639  -19.4203    4.7768 C   0  0  0  0  0  0  0  0  0  0  0  0
   15.3530  -19.0861    3.7227 C   0  0  0  0  0  0  0  0  0  0  0  0
   15.2587  -20.2384    2.8025 C   0  0  0  0  0  0  0  0  0  0  0  0
   16.0178  -21.2155    2.9782 O   0  0  0  0  0  0  0  0  0  0  0  0
   17.4992  -18.8293    6.8185 C   0  0  0  0  0  0  0  0  0  0  0  0
   18.7274  -18.7517    6.6785 O   0  0  0  0  0  0  0  0  0  0  0  0
   14.3601  -20.2703    1.7561 O   0  0  0  0  0  0  0  0  0  0  0  0
   16.6106  -18.4070   10.4521 O   0  0  0  0  0  0  0  0  0  0  0  0
   17.3957  -19.5720   10.4321 C   0  0  0  0  0  0  0  0  0  0  0  0
   17.8849  -19.8750    9.0352 C   0  0  2  0  0  0  0  0  0  0  0  0
   17.0065  -19.4279    8.0060 N   0  0  0  0  0  0  0  0  0  0  0  0
   18.1719  -21.3056    8.9132 C   0  0  0  0  0  0  0  0  0  0  0  0
   19.0464  -21.9733    9.7533 O   0  0  0  0  0  0  0  0  0  0  0  0
   17.6062  -21.9680    8.0105 O   0  0  0  0  0  0  0  0  0  0  0  0
  2  1  1  0
  3  2  1  0
  3  4  1  1
  5  3  1  0
  5  6  1  6
  7  8  2  0
  7  5  1  0
  9  7  1  0
 10  9  1  0
 11 12  1  0
 10 11  1  6
 12 13  1  0
 13 17  1  0
 13 14  2  0
 15 16  2  0
 15 10  1  0
 18 19  1  0
 20 21  1  0
 20 19  1  1
 21 15  1  0
 22 20  1  0
 23 22  1  0
 24 22  2  0
M  END
$$$$
