IES.pdb
     RDKit          3D

 24 23  0  0  1  0  0  0  0  0999 V2000
   24.0230  -33.4212   -5.8242 C   0  0  0  0  0  0  0  0  0  0  0  0
   25.1508  -33.0369   -4.9117 C   0  0  0  0  0  0  0  0  0  0  0  0
   25.1065  -33.7154   -3.5736 C   0  0  2  0  0  0  0  0  0  0  0  0
   23.7226  -33.5156   -2.9991 C   0  0  0  0  0  0  0  0  0  0  0  0
   26.1895  -33.2910   -2.6468 C   0  0  2  0  0  0  0  0  0  0  0  0
   27.4621  -33.2697   -3.3702 N   0  0  0  0  0  0  0  0  0  0  0  0
   26.3027  -34.0843   -1.4047 C   0  0  0  0  0  0  0  0  0  0  0  0
   25.4676  -33.9973   -0.4926 O   0  0  0  0  0  0  0  0  0  0  0  0
   27.3942  -35.0009   -1.1937 N   0  0  0  0  0  0  0  0  0  0  0  0
   27.5427  -35.8074   -0.0124 C   0  0  1  0  0  0  0  0  0  0  0  0
   28.6126  -36.8613   -0.1369 C   0  0  0  0  0  0  0  0  0  0  0  0
   28.6722  -37.8025    1.0273 C   0  0  0  0  0  0  0  0  0  0  0  0
   29.7484  -38.7806    0.7657 C   0  0  0  0  0  0  0  0  0  0  0  0
   29.4389  -39.9496    0.4504 O   0  0  0  0  0  0  0  0  0  0  0  0
   27.9018  -34.9417    1.1345 C   0  0  0  0  0  0  0  0  0  0  0  0
   28.6593  -33.9796    0.9475 O   0  0  0  0  0  0  0  0  0  0  0  0
   31.0834  -38.4450    0.8583 O   0  0  0  0  0  0  0  0  0  0  0  0
   26.9105  -33.2236    5.5436 O   0  0  0  0  0  0  0  0  0  0  0  0
   26.6034  -34.1722    4.5537 C   0  0  0  0  0  0  0  0  0  0  0  0
   27.6865  -34.2323    3.5023 C   0  0  2  0  0  0  0  0  0  0  0  0
   27.4202  -35.1566    2.4510 N   0  0  0  0  0  0  0  0  0  0  0  0
   28.9774  -34.5001    4.1395 C   0  0  0  0  0  0  0  0  0  0  0  0
   29.7724  -33.5040    4.6798 O   0  0  0  0  0  0  0  0  0  0  0  0
   29.3934  -35.6818    4.2053 O   0  0  0  0  0  0  0  0  0  0  0  0
  2  1  1  0
  3  2  1  0
  3  4  1  1
  5  3  1  0
  5  6  1  6
  7  8  2  0
  7  5  1  0
  9  7  1  0
 10  9  1  0
 11 12  1  0
 10 11  1  6
 12 13  1  0
 13 17  1  0
 13 14  2  0
 15 16  2  0
 15 10  1  0
 18 19  1  0
 20 21  1  0
 20 19  1  1
 21 15  1  0
 22 20  1  0
 23 22  1  0
 24 22  2  0
M  END
$$$$
