WCI.pdb
     RDKit          3D

 29 30  0  0  1  0  0  0  0  0999 V2000
   23.9052  -22.3336  -12.6288 N   0  0  0  0  0  0  0  0  0  0  0  0
   24.5349  -21.1744  -12.0878 C   0  0  1  0  0  0  0  0  0  0  0  0
   23.6014  -20.1735  -11.4596 C   0  0  0  0  0  0  0  0  0  0  0  0
   22.5527  -19.6662  -12.3404 C   0  0  0  0  0  0  0  0  0  0  0  0
   21.1921  -19.6340  -12.0345 C   0  0  0  0  0  0  0  0  0  0  0  0
   20.5124  -19.1255  -13.0645 N   0  0  0  0  0  0  0  0  0  0  0  0
   21.3658  -18.8171  -14.0449 C   0  0  0  0  0  0  0  0  0  0  0  0
   21.1520  -18.2679  -15.2940 C   0  0  0  0  0  0  0  0  0  0  0  0
   22.2455  -18.0537  -16.1044 C   0  0  0  0  0  0  0  0  0  0  0  0
   23.5094  -18.3706  -15.6966 C   0  0  0  0  0  0  0  0  0  0  0  0
   23.7202  -18.9198  -14.4466 C   0  0  0  0  0  0  0  0  0  0  0  0
   22.6534  -19.1484  -13.6107 C   0  0  0  0  0  0  0  0  0  0  0  0
   25.6507  -21.5231  -11.1723 C   0  0  0  0  0  0  0  0  0  0  0  0
   25.4071  -22.2832  -10.2008 O   0  0  0  0  0  0  0  0  0  0  0  0
   26.9786  -21.0467  -11.3311 N   0  0  0  0  0  0  0  0  0  0  0  0
   27.9752  -21.2381  -10.3235 C   0  0  1  0  0  0  0  0  0  0  0  0
   29.3887  -20.9689  -10.8361 C   0  0  0  0  0  0  0  0  0  0  0  0
   30.5287  -21.3776   -9.4855 S   0  0  0  0  0  0  0  0  0  0  0  0
   27.7064  -20.4237   -9.1014 C   0  0  0  0  0  0  0  0  0  0  0  0
   26.8937  -19.4658   -9.1280 O   0  0  0  0  0  0  0  0  0  0  0  0
   26.2209  -20.3157   -3.4659 C   0  0  0  0  0  0  0  0  0  0  0  0
   27.0243  -19.5521   -4.4970 C   0  0  0  0  0  0  0  0  0  0  0  0
   27.2927  -20.4844   -5.6663 C   0  0  2  0  0  0  0  0  0  0  0  0
   28.0675  -21.6775   -5.1457 C   0  0  0  0  0  0  0  0  0  0  0  0
   28.1387  -19.8053   -6.7224 C   0  0  2  0  0  0  0  0  0  0  0  0
   28.3522  -20.6945   -7.8654 N   0  0  0  0  0  0  0  0  0  0  0  0
   29.4242  -19.4211   -6.1013 C   0  0  0  0  0  0  0  0  0  0  0  0
   29.4745  -18.4855   -5.2758 O   0  0  0  0  0  0  0  0  0  0  0  0
   30.5899  -20.0886   -6.4220 O   0  0  0  0  0  0  0  0  0  0  0  0
  2  1  1  1
  2 13  1  0
  3  4  1  0
  3  2  1  0
  4 12  1  0
  5  4  2  0
  5  6  1  0
  6  7  1  0
  7  8  1  0
  8  9  2  0
 10  9  1  0
 11 10  2  0
 12  7  2  0
 12 11  1  0
 13 14  2  0
 15 13  1  0
 15 16  1  0
 16 17  1  6
 17 18  1  0
 19 16  1  0
 19 20  2  0
 21 22  1  0
 23 22  1  0
 23 25  1  0
 23 24  1  1
 25 26  1  6
 26 19  1  0
 27 25  1  0
 28 27  2  0
 29 27  1  0
M  END
$$$$
