WCI.pdb
     RDKit          3D

 29 30  0  0  1  0  0  0  0  0999 V2000
   28.5912  -20.3762  -10.2164 N   0  0  0  0  0  0  0  0  0  0  0  0
   27.2491  -20.7349   -9.8951 C   0  0  1  0  0  0  0  0  0  0  0  0
   26.5589  -19.8202   -8.9179 C   0  0  0  0  0  0  0  0  0  0  0  0
   27.3726  -19.4019   -7.7795 C   0  0  0  0  0  0  0  0  0  0  0  0
   28.1890  -18.2713   -7.7474 C   0  0  0  0  0  0  0  0  0  0  0  0
   28.8029  -18.1943   -6.5648 N   0  0  0  0  0  0  0  0  0  0  0  0
   28.4281  -19.2287   -5.8069 C   0  0  0  0  0  0  0  0  0  0  0  0
   28.7800  -19.5844   -4.5196 C   0  0  0  0  0  0  0  0  0  0  0  0
   28.2194  -20.7238   -3.9851 C   0  0  0  0  0  0  0  0  0  0  0  0
   27.3399  -21.4882   -4.6967 C   0  0  0  0  0  0  0  0  0  0  0  0
   26.9897  -21.1300   -5.9841 C   0  0  0  0  0  0  0  0  0  0  0  0
   27.5292  -19.9999   -6.5508 C   0  0  0  0  0  0  0  0  0  0  0  0
   26.4241  -20.9502  -11.1107 C   0  0  0  0  0  0  0  0  0  0  0  0
   26.4268  -20.0581  -11.9967 O   0  0  0  0  0  0  0  0  0  0  0  0
   25.6314  -22.1072  -11.3303 N   0  0  0  0  0  0  0  0  0  0  0  0
   24.8793  -22.2904  -12.5328 C   0  0  1  0  0  0  0  0  0  0  0  0
   24.4953  -23.7498  -12.7695 C   0  0  0  0  0  0  0  0  0  0  0  0
   23.7464  -23.8395  -14.4193 S   0  0  0  0  0  0  0  0  0  0  0  0
   23.6641  -21.4242  -12.5763 C   0  0  0  0  0  0  0  0  0  0  0  0
   22.9802  -21.2164  -11.5429 O   0  0  0  0  0  0  0  0  0  0  0  0
   23.2639  -17.2746  -16.0780 C   0  0  0  0  0  0  0  0  0  0  0  0
   23.1621  -18.0647  -14.7907 C   0  0  0  0  0  0  0  0  0  0  0  0
   21.9921  -19.0251  -14.9217 C   0  0  2  0  0  0  0  0  0  0  0  0
   20.7124  -18.2193  -14.8326 C   0  0  0  0  0  0  0  0  0  0  0  0
   21.9858  -20.0343  -13.7931 C   0  0  2  0  0  0  0  0  0  0  0  0
   23.2319  -20.8021  -13.7781 N   0  0  0  0  0  0  0  0  0  0  0  0
   20.8178  -20.9213  -13.9792 C   0  0  0  0  0  0  0  0  0  0  0  0
   20.8863  -21.9077  -14.7419 O   0  0  0  0  0  0  0  0  0  0  0  0
   19.6325  -20.6758  -13.3141 O   0  0  0  0  0  0  0  0  0  0  0  0
  2  1  1  6
  2 13  1  0
  3  4  1  0
  3  2  1  0
  4 12  1  0
  5  4  2  0
  5  6  1  0
  6  7  1  0
  7  8  1  0
  8  9  2  0
 10  9  1  0
 11 10  2  0
 12  7  2  0
 12 11  1  0
 13 14  2  0
 15 13  1  0
 15 16  1  0
 16 17  1  1
 17 18  1  0
 19 16  1  0
 19 20  2  0
 21 22  1  0
 23 22  1  0
 23 25  1  0
 23 24  1  1
 25 26  1  6
 26 19  1  0
 27 25  1  0
 28 27  2  0
 29 27  1  0
M  END
$$$$
