WCI.pdb
     RDKit          3D

 29 30  0  0  1  0  0  0  0  0999 V2000
   24.1025  -19.0789  -12.0031 N   0  0  0  0  0  0  0  0  0  0  0  0
   24.0941  -20.4091  -12.5164 C   0  0  1  0  0  0  0  0  0  0  0  0
   24.6179  -21.4615  -11.5750 C   0  0  0  0  0  0  0  0  0  0  0  0
   25.9582  -21.2128  -11.0510 C   0  0  0  0  0  0  0  0  0  0  0  0
   26.2789  -21.0653   -9.7015 C   0  0  0  0  0  0  0  0  0  0  0  0
   27.5870  -20.8329   -9.5739 N   0  0  0  0  0  0  0  0  0  0  0  0
   28.1513  -20.8197  -10.7847 C   0  0  0  0  0  0  0  0  0  0  0  0
   29.4627  -20.6258  -11.1721 C   0  0  0  0  0  0  0  0  0  0  0  0
   29.7555  -20.6727  -12.5176 C   0  0  0  0  0  0  0  0  0  0  0  0
   28.7866  -20.9035  -13.4515 C   0  0  0  0  0  0  0  0  0  0  0  0
   27.4756  -21.0971  -13.0611 C   0  0  0  0  0  0  0  0  0  0  0  0
   27.1456  -21.0568  -11.7274 C   0  0  0  0  0  0  0  0  0  0  0  0
   22.7669  -20.7857  -13.0653 C   0  0  0  0  0  0  0  0  0  0  0  0
   21.7431  -20.4997  -12.3938 O   0  0  0  0  0  0  0  0  0  0  0  0
   22.5874  -21.4511  -14.3064 N   0  0  0  0  0  0  0  0  0  0  0  0
   21.3069  -21.9266  -14.7301 C   0  0  1  0  0  0  0  0  0  0  0  0
   21.3010  -22.3786  -16.1892 C   0  0  0  0  0  0  0  0  0  0  0  0
   19.5786  -22.7478  -16.6223 S   0  0  0  0  0  0  0  0  0  0  0  0
   20.7902  -23.0169  -13.8508 C   0  0  0  0  0  0  0  0  0  0  0  0
   21.5313  -23.9670  -13.4946 O   0  0  0  0  0  0  0  0  0  0  0  0
   18.3402  -24.0975   -8.7277 C   0  0  0  0  0  0  0  0  0  0  0  0
   18.3764  -24.6670  -10.1299 C   0  0  0  0  0  0  0  0  0  0  0  0
   18.8628  -23.5744  -11.0670 C   0  0  2  0  0  0  0  0  0  0  0  0
   17.8278  -22.4684  -11.0741 C   0  0  0  0  0  0  0  0  0  0  0  0
   19.0003  -24.0918  -12.4833 C   0  0  2  0  0  0  0  0  0  0  0  0
   19.4491  -23.0273  -13.3822 N   0  0  0  0  0  0  0  0  0  0  0  0
   17.6872  -24.6244  -12.9051 C   0  0  0  0  0  0  0  0  0  0  0  0
   17.2466  -25.6852  -12.4152 O   0  0  0  0  0  0  0  0  0  0  0  0
   16.9258  -23.9597  -13.8463 O   0  0  0  0  0  0  0  0  0  0  0  0
  2  1  1  1
  2 13  1  0
  3  4  1  0
  3  2  1  0
  4 12  1  0
  5  4  2  0
  5  6  1  0
  6  7  1  0
  7  8  1  0
  8  9  2  0
 10  9  1  0
 11 10  2  0
 12  7  2  0
 12 11  1  0
 13 14  2  0
 15 13  1  0
 15 16  1  0
 16 17  1  6
 17 18  1  0
 19 16  1  0
 19 20  2  0
 21 22  1  0
 23 22  1  0
 23 25  1  0
 23 24  1  6
 25 26  1  6
 26 19  1  0
 27 25  1  0
 28 27  2  0
 29 27  1  0
M  END
$$$$
