WCI.pdb
     RDKit          3D

 29 30  0  0  1  0  0  0  0  0999 V2000
   19.9782  -12.1229  -18.3774 N   0  0  0  0  0  0  0  0  0  0  0  0
   19.1115  -11.0009  -18.2263 C   0  0  1  0  0  0  0  0  0  0  0  0
   17.9507  -11.2105  -17.2901 C   0  0  0  0  0  0  0  0  0  0  0  0
   17.0802  -12.3345  -17.6242 C   0  0  0  0  0  0  0  0  0  0  0  0
   16.3360  -12.4535  -18.7980 C   0  0  0  0  0  0  0  0  0  0  0  0
   15.6395  -13.5918  -18.7746 N   0  0  0  0  0  0  0  0  0  0  0  0
   15.8898  -14.2367  -17.6317 C   0  0  0  0  0  0  0  0  0  0  0  0
   15.4189  -15.4418  -17.1484 C   0  0  0  0  0  0  0  0  0  0  0  0
   15.8646  -15.8650  -15.9153 C   0  0  0  0  0  0  0  0  0  0  0  0
   16.7465  -15.1241  -15.1820 C   0  0  0  0  0  0  0  0  0  0  0  0
   17.2158  -13.9191  -15.6680 C   0  0  0  0  0  0  0  0  0  0  0  0
   16.7930  -13.4643  -16.8941 C   0  0  0  0  0  0  0  0  0  0  0  0
   19.8583   -9.7614  -17.8938 C   0  0  0  0  0  0  0  0  0  0  0  0
   20.7978   -9.8385  -17.0618 O   0  0  0  0  0  0  0  0  0  0  0  0
   19.5719   -8.4923  -18.4622 N   0  0  0  0  0  0  0  0  0  0  0  0
   20.3269   -7.3257  -18.1243 C   0  0  1  0  0  0  0  0  0  0  0  0
   20.0755   -6.1644  -19.0842 C   0  0  0  0  0  0  0  0  0  0  0  0
   21.1971   -4.8238  -18.5988 S   0  0  0  0  0  0  0  0  0  0  0  0
   20.0927   -6.8899  -16.7157 C   0  0  0  0  0  0  0  0  0  0  0  0
   18.9282   -6.7899  -16.2544 O   0  0  0  0  0  0  0  0  0  0  0  0
   20.4121   -8.3762  -11.3575 C   0  0  0  0  0  0  0  0  0  0  0  0
   20.5458   -7.0834  -12.1336 C   0  0  0  0  0  0  0  0  0  0  0  0
   20.9385   -7.4312  -13.5595 C   0  0  2  0  0  0  0  0  0  0  0  0
   22.3650   -7.9407  -13.5414 C   0  0  0  0  0  0  0  0  0  0  0  0
   20.8925   -6.2089  -14.4517 C   0  0  2  0  0  0  0  0  0  0  0  0
   21.1674   -6.5724  -15.8427 N   0  0  0  0  0  0  0  0  0  0  0  0
   21.8885   -5.2384  -13.9497 C   0  0  0  0  0  0  0  0  0  0  0  0
   21.7339   -4.6888  -12.8391 O   0  0  0  0  0  0  0  0  0  0  0  0
   23.0055   -4.9231  -14.6982 O   0  0  0  0  0  0  0  0  0  0  0  0
  2  1  1  1
  2 13  1  0
  3  4  1  0
  3  2  1  0
  4 12  1  0
  5  4  2  0
  5  6  1  0
  6  7  1  0
  7  8  1  0
  8  9  2  0
 10  9  1  0
 11 10  2  0
 12  7  2  0
 12 11  1  0
 13 14  2  0
 15 13  1  0
 15 16  1  0
 16 17  1  6
 17 18  1  0
 19 16  1  0
 19 20  2  0
 21 22  1  0
 23 22  1  0
 23 25  1  0
 23 24  1  1
 25 26  1  6
 26 19  1  0
 27 25  1  0
 28 27  2  0
 29 27  1  0
M  END
$$$$
