WCI.pdb
     RDKit          3D

 29 30  0  0  1  0  0  0  0  0999 V2000
   23.5378  -18.2875  -19.4212 N   0  0  0  0  0  0  0  0  0  0  0  0
   23.2908  -18.2825  -18.0170 C   0  0  1  0  0  0  0  0  0  0  0  0
   22.0728  -19.0522  -17.5788 C   0  0  0  0  0  0  0  0  0  0  0  0
   20.7969  -18.5018  -18.0282 C   0  0  0  0  0  0  0  0  0  0  0  0
   20.1735  -18.8031  -19.2392 C   0  0  0  0  0  0  0  0  0  0  0  0
   19.0336  -18.1162  -19.3403 N   0  0  0  0  0  0  0  0  0  0  0  0
   18.8720  -17.3690  -18.2447 C   0  0  0  0  0  0  0  0  0  0  0  0
   17.8624  -16.4998  -17.8806 C   0  0  0  0  0  0  0  0  0  0  0  0
   17.9642  -15.8601  -16.6645 C   0  0  0  0  0  0  0  0  0  0  0  0
   19.0272  -16.0707  -15.8338 C   0  0  0  0  0  0  0  0  0  0  0  0
   20.0356  -16.9407  -16.2007 C   0  0  0  0  0  0  0  0  0  0  0  0
   19.9686  -17.5964  -17.4068 C   0  0  0  0  0  0  0  0  0  0  0  0
   24.4914  -18.6799  -17.2390 C   0  0  0  0  0  0  0  0  0  0  0  0
   25.0705  -19.7528  -17.5464 O   0  0  0  0  0  0  0  0  0  0  0  0
   25.0236  -17.9171  -16.1665 N   0  0  0  0  0  0  0  0  0  0  0  0
   26.0749  -18.4148  -15.3344 C   0  0  1  0  0  0  0  0  0  0  0  0
   27.1529  -17.3681  -15.0599 C   0  0  0  0  0  0  0  0  0  0  0  0
   26.3153  -15.9125  -14.3740 S   0  0  0  0  0  0  0  0  0  0  0  0
   25.5609  -18.9746  -14.0494 C   0  0  0  0  0  0  0  0  0  0  0  0
   24.4974  -18.5453  -13.5360 O   0  0  0  0  0  0  0  0  0  0  0  0
   24.4802  -23.9159  -13.1234 C   0  0  0  0  0  0  0  0  0  0  0  0
   24.5426  -22.4033  -13.1176 C   0  0  0  0  0  0  0  0  0  0  0  0
   25.5622  -21.9804  -12.0736 C   0  0  2  0  0  0  0  0  0  0  0  0
   25.0391  -22.3942  -10.7134 C   0  0  0  0  0  0  0  0  0  0  0  0
   25.7426  -20.4772  -12.0649 C   0  0  2  0  0  0  0  0  0  0  0  0
   26.2461  -20.0086  -13.3570 N   0  0  0  0  0  0  0  0  0  0  0  0
   26.6804  -20.1354  -10.9741 C   0  0  0  0  0  0  0  0  0  0  0  0
   27.9139  -20.2196  -11.1493 O   0  0  0  0  0  0  0  0  0  0  0  0
   26.2101  -19.7175   -9.7447 O   0  0  0  0  0  0  0  0  0  0  0  0
  2  1  1  6
  2 13  1  0
  3  4  1  0
  3  2  1  0
  4 12  1  0
  5  4  2  0
  5  6  1  0
  6  7  1  0
  7  8  1  0
  8  9  2  0
 10  9  1  0
 11 10  2  0
 12  7  2  0
 12 11  1  0
 13 14  2  0
 15 13  1  0
 15 16  1  0
 16 17  1  1
 17 18  1  0
 19 16  1  0
 19 20  2  0
 21 22  1  0
 23 22  1  0
 23 25  1  0
 23 24  1  1
 25 26  1  6
 26 19  1  0
 27 25  1  0
 28 27  2  0
 29 27  1  0
M  END
$$$$
