WCI.pdb
     RDKit          3D

 29 30  0  0  1  0  0  0  0  0999 V2000
   24.4655  -22.5317  -13.0694 N   0  0  0  0  0  0  0  0  0  0  0  0
   24.9539  -21.3894  -12.3697 C   0  0  1  0  0  0  0  0  0  0  0  0
   23.8942  -20.5194  -11.7466 C   0  0  0  0  0  0  0  0  0  0  0  0
   22.8892  -20.0066  -12.6738 C   0  0  0  0  0  0  0  0  0  0  0  0
   21.5409  -20.3642  -12.6759 C   0  0  0  0  0  0  0  0  0  0  0  0
   20.9085  -19.7250  -13.6622 N   0  0  0  0  0  0  0  0  0  0  0  0
   21.7815  -18.9552  -14.3179 C   0  0  0  0  0  0  0  0  0  0  0  0
   21.6138  -18.1108  -15.3979 C   0  0  0  0  0  0  0  0  0  0  0  0
   22.7158  -17.4286  -15.8653 C   0  0  0  0  0  0  0  0  0  0  0  0
   23.9439  -17.5739  -15.2867 C   0  0  0  0  0  0  0  0  0  0  0  0
   24.1087  -18.4192  -14.2065 C   0  0  0  0  0  0  0  0  0  0  0  0
   23.0322  -19.1169  -13.7130 C   0  0  0  0  0  0  0  0  0  0  0  0
   26.0077  -21.7471  -11.3868 C   0  0  0  0  0  0  0  0  0  0  0  0
   25.7606  -22.6572  -10.5551 O   0  0  0  0  0  0  0  0  0  0  0  0
   27.2800  -21.1197  -11.3320 N   0  0  0  0  0  0  0  0  0  0  0  0
   28.2166  -21.4011  -10.2885 C   0  0  1  0  0  0  0  0  0  0  0  0
   29.6666  -21.2351  -10.7395 C   0  0  0  0  0  0  0  0  0  0  0  0
   29.7625  -19.6683  -11.6485 S   0  0  0  0  0  0  0  0  0  0  0  0
   27.9609  -20.5848   -9.0650 C   0  0  0  0  0  0  0  0  0  0  0  0
   27.2187  -19.5718   -9.1064 O   0  0  0  0  0  0  0  0  0  0  0  0
   25.8176  -21.7668   -4.5158 C   0  0  0  0  0  0  0  0  0  0  0  0
   26.3298  -20.9986   -5.7155 C   0  0  0  0  0  0  0  0  0  0  0  0
   27.8009  -20.6965   -5.4853 C   0  0  2  0  0  0  0  0  0  0  0  0
   27.9073  -19.7653   -4.2953 C   0  0  0  0  0  0  0  0  0  0  0  0
   28.4072  -19.9938   -6.6815 C   0  0  2  0  0  0  0  0  0  0  0  0
   28.5405  -20.9154   -7.8108 N   0  0  0  0  0  0  0  0  0  0  0  0
   29.7235  -19.4556   -6.2772 C   0  0  0  0  0  0  0  0  0  0  0  0
   29.7989  -18.4173   -5.5876 O   0  0  0  0  0  0  0  0  0  0  0  0
   30.8909  -20.0903   -6.6538 O   0  0  0  0  0  0  0  0  0  0  0  0
  2  1  1  1
  2 13  1  0
  3  4  1  0
  3  2  1  0
  4 12  1  0
  5  4  2  0
  5  6  1  0
  6  7  1  0
  7  8  1  0
  8  9  2  0
 10  9  1  0
 11 10  2  0
 12  7  2  0
 12 11  1  0
 13 14  2  0
 15 13  1  0
 15 16  1  0
 16 17  1  6
 17 18  1  0
 19 16  1  0
 19 20  2  0
 21 22  1  0
 23 22  1  0
 23 25  1  0
 23 24  1  1
 25 26  1  6
 26 19  1  0
 27 25  1  0
 28 27  2  0
 29 27  1  0
M  END
$$$$
