WCI.pdb
     RDKit          3D

 29 30  0  0  1  0  0  0  0  0999 V2000
   23.5209  -22.1976  -15.4951 N   0  0  0  0  0  0  0  0  0  0  0  0
   23.8856  -21.1115  -14.6464 C   0  0  1  0  0  0  0  0  0  0  0  0
   22.7506  -20.4963  -13.8709 C   0  0  0  0  0  0  0  0  0  0  0  0
   21.6717  -19.9432  -14.6851 C   0  0  0  0  0  0  0  0  0  0  0  0
   20.4947  -20.6121  -15.0214 C   0  0  0  0  0  0  0  0  0  0  0  0
   19.7349  -19.8263  -15.7873 N   0  0  0  0  0  0  0  0  0  0  0  0
   20.3585  -18.6597  -15.9748 C   0  0  0  0  0  0  0  0  0  0  0  0
   19.9830  -17.5339  -16.6812 C   0  0  0  0  0  0  0  0  0  0  0  0
   20.8442  -16.4585  -16.6936 C   0  0  0  0  0  0  0  0  0  0  0  0
   22.0375  -16.4917  -16.0308 C   0  0  0  0  0  0  0  0  0  0  0  0
   22.4105  -17.6192  -15.3251 C   0  0  0  0  0  0  0  0  0  0  0  0
   21.5772  -18.7118  -15.2905 C   0  0  0  0  0  0  0  0  0  0  0  0
   25.0238  -21.4572  -13.7578 C   0  0  0  0  0  0  0  0  0  0  0  0
   24.9042  -22.4521  -12.9983 O   0  0  0  0  0  0  0  0  0  0  0  0
   26.2411  -20.7279  -13.7164 N   0  0  0  0  0  0  0  0  0  0  0  0
   27.2023  -20.9212  -12.6753 C   0  0  1  0  0  0  0  0  0  0  0  0
   28.5993  -20.4450  -13.0692 C   0  0  0  0  0  0  0  0  0  0  0  0
   29.7049  -20.8476  -11.6885 S   0  0  0  0  0  0  0  0  0  0  0  0
   26.7824  -20.2819  -11.3932 C   0  0  0  0  0  0  0  0  0  0  0  0
   26.2031  -19.1669  -11.3854 O   0  0  0  0  0  0  0  0  0  0  0  0
   23.2054  -21.2779   -8.0401 C   0  0  0  0  0  0  0  0  0  0  0  0
   24.2829  -20.5744   -8.8375 C   0  0  0  0  0  0  0  0  0  0  0  0
   25.6101  -20.8010   -8.1335 C   0  0  2  0  0  0  0  0  0  0  0  0
   25.5377  -20.1389   -6.7729 C   0  0  0  0  0  0  0  0  0  0  0  0
   26.7500  -20.1647   -8.9003 C   0  0  2  0  0  0  0  0  0  0  0  0
   27.0173  -20.9014  -10.1366 N   0  0  0  0  0  0  0  0  0  0  0  0
   27.9399  -20.1505   -8.0229 C   0  0  0  0  0  0  0  0  0  0  0  0
   28.0654  -19.2767   -7.1396 O   0  0  0  0  0  0  0  0  0  0  0  0
   28.9316  -21.1013   -8.1638 O   0  0  0  0  0  0  0  0  0  0  0  0
  2  1  1  1
  2 13  1  0
  3  4  1  0
  3  2  1  0
  4 12  1  0
  5  4  2  0
  5  6  1  0
  6  7  1  0
  7  8  1  0
  8  9  2  0
 10  9  1  0
 11 10  2  0
 12  7  2  0
 12 11  1  0
 13 14  2  0
 15 13  1  0
 15 16  1  0
 16 17  1  6
 17 18  1  0
 19 16  1  0
 19 20  2  0
 21 22  1  0
 23 22  1  0
 23 25  1  0
 23 24  1  1
 25 26  1  6
 26 19  1  0
 27 25  1  0
 28 27  2  0
 29 27  1  0
M  END
$$$$
