WCI.pdb
     RDKit          3D

 29 30  0  0  1  0  0  0  0  0999 V2000
   24.3174  -21.6465  -13.2082 N   0  0  0  0  0  0  0  0  0  0  0  0
   25.1804  -20.5995  -12.7703 C   0  0  1  0  0  0  0  0  0  0  0  0
   25.1431  -19.3476  -13.6066 C   0  0  0  0  0  0  0  0  0  0  0  0
   25.2665  -19.5601  -15.0462 C   0  0  0  0  0  0  0  0  0  0  0  0
   26.2022  -20.3942  -15.6582 C   0  0  0  0  0  0  0  0  0  0  0  0
   26.0499  -20.3436  -16.9832 N   0  0  0  0  0  0  0  0  0  0  0  0
   25.0496  -19.5090  -17.2791 C   0  0  0  0  0  0  0  0  0  0  0  0
   24.5139  -19.1301  -18.4944 C   0  0  0  0  0  0  0  0  0  0  0  0
   23.4625  -18.2397  -18.4907 C   0  0  0  0  0  0  0  0  0  0  0  0
   22.9551  -17.7389  -17.3262 C   0  0  0  0  0  0  0  0  0  0  0  0
   23.4929  -18.1197  -16.1120 C   0  0  0  0  0  0  0  0  0  0  0  0
   24.5430  -19.0058  -16.0764 C   0  0  0  0  0  0  0  0  0  0  0  0
   24.9975  -20.2934  -11.3289 C   0  0  0  0  0  0  0  0  0  0  0  0
   23.8941  -19.8188  -10.9573 O   0  0  0  0  0  0  0  0  0  0  0  0
   25.9985  -20.5061  -10.3449 N   0  0  0  0  0  0  0  0  0  0  0  0
   25.7240  -20.3744   -8.9476 C   0  0  1  0  0  0  0  0  0  0  0  0
   24.6169  -21.3148   -8.4748 C   0  0  0  0  0  0  0  0  0  0  0  0
   24.3155  -20.9409   -6.7256 S   0  0  0  0  0  0  0  0  0  0  0  0
   26.9475  -20.5578   -8.1120 C   0  0  0  0  0  0  0  0  0  0  0  0
   27.7480  -21.5003   -8.3348 O   0  0  0  0  0  0  0  0  0  0  0  0
   29.1911  -16.4785   -4.9383 C   0  0  0  0  0  0  0  0  0  0  0  0
   29.0899  -17.6163   -5.9317 C   0  0  0  0  0  0  0  0  0  0  0  0
   28.6258  -18.8534   -5.1816 C   0  0  2  0  0  0  0  0  0  0  0  0
   29.7354  -19.2741   -4.2400 C   0  0  0  0  0  0  0  0  0  0  0  0
   28.3629  -20.0015   -6.1330 C   0  0  2  0  0  0  0  0  0  0  0  0
   27.2575  -19.6816   -7.0376 N   0  0  0  0  0  0  0  0  0  0  0  0
   28.0584  -21.2029   -5.3268 C   0  0  0  0  0  0  0  0  0  0  0  0
   26.8751  -21.5257   -5.0926 O   0  0  0  0  0  0  0  0  0  0  0  0
   29.0750  -21.9882   -4.8197 O   0  0  0  0  0  0  0  0  0  0  0  0
  2  1  1  6
  2 13  1  0
  3  4  1  0
  3  2  1  0
  4 12  1  0
  5  4  2  0
  5  6  1  0
  6  7  1  0
  7  8  1  0
  8  9  2  0
 10  9  1  0
 11 10  2  0
 12  7  2  0
 12 11  1  0
 13 14  2  0
 15 13  1  0
 15 16  1  0
 16 17  1  1
 17 18  1  0
 19 16  1  0
 19 20  2  0
 21 22  1  0
 23 22  1  0
 23 25  1  0
 23 24  1  1
 25 26  1  6
 26 19  1  0
 27 25  1  0
 28 27  2  0
 29 27  1  0
M  END
$$$$
