WCI.pdb
     RDKit          3D

 29 30  0  0  1  0  0  0  0  0999 V2000
   23.9249  -17.1873  -16.4765 N   0  0  0  0  0  0  0  0  0  0  0  0
   24.9022  -17.4733  -15.4785 C   0  0  1  0  0  0  0  0  0  0  0  0
   25.7636  -16.3063  -15.0735 C   0  0  0  0  0  0  0  0  0  0  0  0
   26.7144  -15.8567  -16.0867 C   0  0  0  0  0  0  0  0  0  0  0  0
   26.7188  -14.5947  -16.6809 C   0  0  0  0  0  0  0  0  0  0  0  0
   27.7083  -14.5224  -17.5738 N   0  0  0  0  0  0  0  0  0  0  0  0
   28.3640  -15.6860  -17.5983 C   0  0  0  0  0  0  0  0  0  0  0  0
   29.4510  -16.0990  -18.3436 C   0  0  0  0  0  0  0  0  0  0  0  0
   29.9230  -17.3786  -18.1484 C   0  0  0  0  0  0  0  0  0  0  0  0
   29.3423  -18.2242  -17.2473 C   0  0  0  0  0  0  0  0  0  0  0  0
   28.2552  -17.8083  -16.5032 C   0  0  0  0  0  0  0  0  0  0  0  0
   27.7561  -16.5387  -16.6711 C   0  0  0  0  0  0  0  0  0  0  0  0
   24.3090  -18.1451  -14.2947 C   0  0  0  0  0  0  0  0  0  0  0  0
   23.4696  -17.5085  -13.6084 O   0  0  0  0  0  0  0  0  0  0  0  0
   24.6356  -19.4669  -13.8927 N   0  0  0  0  0  0  0  0  0  0  0  0
   24.1089  -20.0439  -12.6948 C   0  0  1  0  0  0  0  0  0  0  0  0
   23.1841  -21.2281  -12.9699 C   0  0  0  0  0  0  0  0  0  0  0  0
   21.9503  -20.6676  -14.1758 S   0  0  0  0  0  0  0  0  0  0  0  0
   25.1848  -20.4414  -11.7390 C   0  0  0  0  0  0  0  0  0  0  0  0
   26.2192  -21.0323  -12.1385 O   0  0  0  0  0  0  0  0  0  0  0  0
   26.3774  -17.8539   -6.9768 C   0  0  0  0  0  0  0  0  0  0  0  0
   26.4504  -18.5531   -8.3175 C   0  0  0  0  0  0  0  0  0  0  0  0
   26.0672  -20.0084   -8.1085 C   0  0  2  0  0  0  0  0  0  0  0  0
   27.1137  -20.6451   -7.2173 C   0  0  0  0  0  0  0  0  0  0  0  0
   26.0528  -20.7627   -9.4212 C   0  0  2  0  0  0  0  0  0  0  0  0
   25.0867  -20.1708  -10.3479 N   0  0  0  0  0  0  0  0  0  0  0  0
   25.7175  -22.1737   -9.1343 C   0  0  0  0  0  0  0  0  0  0  0  0
   24.5494  -22.5901   -9.2812 O   0  0  0  0  0  0  0  0  0  0  0  0
   26.6881  -23.0550   -8.6997 O   0  0  0  0  0  0  0  0  0  0  0  0
  2  1  1  6
  2 13  1  0
  3  4  1  0
  3  2  1  0
  4 12  1  0
  5  4  2  0
  5  6  1  0
  6  7  1  0
  7  8  1  0
  8  9  2  0
 10  9  1  0
 11 10  2  0
 12  7  2  0
 12 11  1  0
 13 14  2  0
 15 13  1  0
 15 16  1  0
 16 17  1  6
 17 18  1  0
 19 16  1  0
 19 20  2  0
 21 22  1  0
 23 22  1  0
 23 25  1  0
 23 24  1  1
 25 26  1  6
 26 19  1  0
 27 25  1  0
 28 27  2  0
 29 27  1  0
M  END
$$$$
