WCI.pdb
     RDKit          3D

 29 30  0  0  1  0  0  0  0  0999 V2000
   17.5727   -8.0984  -11.1608 N   0  0  0  0  0  0  0  0  0  0  0  0
   16.3249   -7.6951  -10.6010 C   0  0  1  0  0  0  0  0  0  0  0  0
   15.8495   -8.5218   -9.4354 C   0  0  0  0  0  0  0  0  0  0  0  0
   15.2360   -9.7987   -9.7904 C   0  0  0  0  0  0  0  0  0  0  0  0
   15.9281  -10.9308  -10.2206 C   0  0  0  0  0  0  0  0  0  0  0  0
   15.0638  -11.9153  -10.4758 N   0  0  0  0  0  0  0  0  0  0  0  0
   13.8228  -11.4847  -10.2326 C   0  0  0  0  0  0  0  0  0  0  0  0
   12.6034  -12.1240  -10.3411 C   0  0  0  0  0  0  0  0  0  0  0  0
   11.4682  -11.4165  -10.0105 C   0  0  0  0  0  0  0  0  0  0  0  0
   11.5329  -10.1203   -9.5864 C   0  0  0  0  0  0  0  0  0  0  0  0
   12.7541   -9.4833   -9.4789 C   0  0  0  0  0  0  0  0  0  0  0  0
   13.9081  -10.1571   -9.8006 C   0  0  0  0  0  0  0  0  0  0  0  0
   16.3004   -6.2451  -10.2822 C   0  0  0  0  0  0  0  0  0  0  0  0
   17.1821   -5.7915   -9.5090 O   0  0  0  0  0  0  0  0  0  0  0  0
   15.3372   -5.3404  -10.8009 N   0  0  0  0  0  0  0  0  0  0  0  0
   15.3633   -3.9460  -10.4843 C   0  0  1  0  0  0  0  0  0  0  0  0
   15.4211   -3.0616  -11.7285 C   0  0  0  0  0  0  0  0  0  0  0  0
   16.9422   -3.4955  -12.6165 S   0  0  0  0  0  0  0  0  0  0  0  0
   14.2166   -3.5421   -9.6178 C   0  0  0  0  0  0  0  0  0  0  0  0
   13.1968   -4.2687   -9.5138 O   0  0  0  0  0  0  0  0  0  0  0  0
   11.8853   -3.7126   -4.8027 C   0  0  0  0  0  0  0  0  0  0  0  0
   11.9666   -2.6162   -5.8434 C   0  0  0  0  0  0  0  0  0  0  0  0
   13.0891   -2.9658   -6.8057 C   0  0  2  0  0  0  0  0  0  0  0  0
   14.4024   -2.8279   -6.0634 C   0  0  0  0  0  0  0  0  0  0  0  0
   13.1169   -2.0120   -7.9812 C   0  0  2  0  0  0  0  0  0  0  0  0
   14.2287   -2.3288   -8.8789 N   0  0  0  0  0  0  0  0  0  0  0  0
   13.2373   -0.6369   -7.4517 C   0  0  0  0  0  0  0  0  0  0  0  0
   14.3519   -0.0775   -7.3886 O   0  0  0  0  0  0  0  0  0  0  0  0
   12.1216    0.0523   -7.0184 O   0  0  0  0  0  0  0  0  0  0  0  0
  2  1  1  1
  2 13  1  0
  3  4  1  0
  3  2  1  0
  4 12  1  0
  5  4  2  0
  5  6  1  0
  6  7  1  0
  7  8  1  0
  8  9  2  0
 10  9  1  0
 11 10  2  0
 12  7  2  0
 12 11  1  0
 13 14  2  0
 15 13  1  0
 15 16  1  0
 16 17  1  6
 17 18  1  0
 19 16  1  0
 19 20  2  0
 21 22  1  0
 23 22  1  0
 23 25  1  0
 23 24  1  1
 25 26  1  6
 26 19  1  0
 27 25  1  0
 28 27  2  0
 29 27  1  0
M  END
$$$$
