WCI.pdb
     RDKit          3D

 29 30  0  0  1  0  0  0  0  0999 V2000
   26.7471  -20.1779  -16.5755 N   0  0  0  0  0  0  0  0  0  0  0  0
   27.0972  -19.4196  -15.4199 C   0  0  1  0  0  0  0  0  0  0  0  0
   26.3846  -18.1002  -15.2803 C   0  0  0  0  0  0  0  0  0  0  0  0
   26.5102  -17.2037  -16.4263 C   0  0  0  0  0  0  0  0  0  0  0  0
   25.4612  -16.4921  -17.0087 C   0  0  0  0  0  0  0  0  0  0  0  0
   25.9191  -15.7841  -18.0433 N   0  0  0  0  0  0  0  0  0  0  0  0
   27.2318  -15.9950  -18.1738 C   0  0  0  0  0  0  0  0  0  0  0  0
   28.1455  -15.4930  -19.0796 C   0  0  0  0  0  0  0  0  0  0  0  0
   29.4592  -15.8922  -18.9651 C   0  0  0  0  0  0  0  0  0  0  0  0
   29.8596  -16.7586  -17.9886 C   0  0  0  0  0  0  0  0  0  0  0  0
   28.9434  -17.2591  -17.0839 C   0  0  0  0  0  0  0  0  0  0  0  0
   27.6238  -16.8838  -17.1674 C   0  0  0  0  0  0  0  0  0  0  0  0
   26.9975  -20.2233  -14.1755 C   0  0  0  0  0  0  0  0  0  0  0  0
   26.1350  -21.1368  -14.1253 O   0  0  0  0  0  0  0  0  0  0  0  0
   27.8211  -20.0191  -13.0373 N   0  0  0  0  0  0  0  0  0  0  0  0
   27.5422  -20.6435  -11.7813 C   0  0  1  0  0  0  0  0  0  0  0  0
   28.7018  -20.5229  -10.7944 C   0  0  0  0  0  0  0  0  0  0  0  0
   30.2245  -20.8524  -11.7236 S   0  0  0  0  0  0  0  0  0  0  0  0
   26.2838  -20.1308  -11.1630 C   0  0  0  0  0  0  0  0  0  0  0  0
   25.9733  -18.9157  -11.2400 O   0  0  0  0  0  0  0  0  0  0  0  0
   21.1738  -20.1195  -12.8111 C   0  0  0  0  0  0  0  0  0  0  0  0
   21.8173  -20.1500  -11.4412 C   0  0  0  0  0  0  0  0  0  0  0  0
   23.2561  -20.6083  -11.6094 C   0  0  2  0  0  0  0  0  0  0  0  0
   23.2368  -22.0373  -12.1119 C   0  0  0  0  0  0  0  0  0  0  0  0
   23.9925  -20.5904  -10.2866 C   0  0  2  0  0  0  0  0  0  0  0  0
   25.3898  -20.9874  -10.4665 N   0  0  0  0  0  0  0  0  0  0  0  0
   23.2943  -21.5087   -9.3620 C   0  0  0  0  0  0  0  0  0  0  0  0
   23.7564  -22.6451   -9.1285 O   0  0  0  0  0  0  0  0  0  0  0  0
   22.1213  -21.1272   -8.7409 O   0  0  0  0  0  0  0  0  0  0  0  0
  2  1  1  6
  2 13  1  0
  3  4  1  0
  3  2  1  0
  4 12  1  0
  5  4  2  0
  5  6  1  0
  6  7  1  0
  7  8  1  0
  8  9  2  0
 10  9  1  0
 11 10  2  0
 12  7  2  0
 12 11  1  0
 13 14  2  0
 15 13  1  0
 15 16  1  0
 16 17  1  1
 17 18  1  0
 19 16  1  0
 19 20  2  0
 21 22  1  0
 23 22  1  0
 23 25  1  0
 23 24  1  1
 25 26  1  6
 26 19  1  0
 27 25  1  0
 28 27  2  0
 29 27  1  0
M  END
$$$$
