WCI.pdb
     RDKit          3D

 29 30  0  0  1  0  0  0  0  0999 V2000
   22.4652  -19.3462  -17.6182 N   0  0  0  0  0  0  0  0  0  0  0  0
   23.1662  -18.4908  -16.7183 C   0  0  1  0  0  0  0  0  0  0  0  0
   22.3096  -17.8136  -15.6811 C   0  0  0  0  0  0  0  0  0  0  0  0
   22.1198  -16.3786  -15.8749 C   0  0  0  0  0  0  0  0  0  0  0  0
   20.9739  -15.7836  -16.4031 C   0  0  0  0  0  0  0  0  0  0  0  0
   21.1396  -14.4604  -16.4573 N   0  0  0  0  0  0  0  0  0  0  0  0
   22.3503  -14.1493  -15.9861 C   0  0  0  0  0  0  0  0  0  0  0  0
   22.9789  -12.9288  -15.8357 C   0  0  0  0  0  0  0  0  0  0  0  0
   24.2511  -12.9150  -15.3069 C   0  0  0  0  0  0  0  0  0  0  0  0
   24.8835  -14.0675  -14.9380 C   0  0  0  0  0  0  0  0  0  0  0  0
   24.2523  -15.2869  -15.0896 C   0  0  0  0  0  0  0  0  0  0  0  0
   22.9830  -15.3400  -15.6142 C   0  0  0  0  0  0  0  0  0  0  0  0
   24.3318  -19.1702  -16.0983 C   0  0  0  0  0  0  0  0  0  0  0  0
   24.2291  -20.3922  -15.8207 O   0  0  0  0  0  0  0  0  0  0  0  0
   25.5573  -18.5184  -15.8005 N   0  0  0  0  0  0  0  0  0  0  0  0
   26.5860  -19.1557  -15.0385 C   0  0  1  0  0  0  0  0  0  0  0  0
   27.9325  -18.4442  -15.1579 C   0  0  0  0  0  0  0  0  0  0  0  0
   29.0379  -19.1931  -13.9300 S   0  0  0  0  0  0  0  0  0  0  0  0
   26.2108  -19.3108  -13.6019 C   0  0  0  0  0  0  0  0  0  0  0  0
   25.8952  -18.3146  -12.9042 O   0  0  0  0  0  0  0  0  0  0  0  0
   22.5246  -22.3511  -11.7544 C   0  0  0  0  0  0  0  0  0  0  0  0
   23.5312  -21.2333  -11.9251 C   0  0  0  0  0  0  0  0  0  0  0  0
   24.8220  -21.6573  -11.2452 C   0  0  2  0  0  0  0  0  0  0  0  0
   24.5813  -21.6704   -9.7496 C   0  0  0  0  0  0  0  0  0  0  0  0
   25.9367  -20.6726  -11.5283 C   0  0  2  0  0  0  0  0  0  0  0  0
   26.1941  -20.5813  -12.9663 N   0  0  0  0  0  0  0  0  0  0  0  0
   27.1419  -21.1244  -10.8009 C   0  0  0  0  0  0  0  0  0  0  0  0
   27.8891  -21.9960  -11.2923 O   0  0  0  0  0  0  0  0  0  0  0  0
   27.4625  -20.5918   -9.5676 O   0  0  0  0  0  0  0  0  0  0  0  0
  2  1  1  1
  2 13  1  0
  3  4  1  0
  3  2  1  0
  4 12  1  0
  5  4  2  0
  5  6  1  0
  6  7  1  0
  7  8  1  0
  8  9  2  0
 10  9  1  0
 11 10  2  0
 12  7  2  0
 12 11  1  0
 13 14  2  0
 15 13  1  0
 15 16  1  0
 16 17  1  1
 17 18  1  0
 19 16  1  0
 19 20  2  0
 21 22  1  0
 23 22  1  0
 23 25  1  0
 23 24  1  1
 25 26  1  6
 26 19  1  0
 27 25  1  0
 28 27  2  0
 29 27  1  0
M  END
$$$$
