CSF.pdb
     RDKit          3D

 24 24  0  0  1  0  0  0  0  0999 V2000
    7.2998  -14.0694   18.3457 N   0  0  0  0  0  0  0  0  0  0  0  0
    8.1626  -13.9503   19.5337 C   0  0  1  0  0  0  0  0  0  0  0  0
    7.9118  -12.5379   20.0815 C   0  0  0  0  0  0  0  0  0  0  0  0
    8.6126  -11.2871   19.0115 S   0  0  0  0  0  0  0  0  0  0  0  0
    7.7319  -15.0085   20.4691 C   0  0  0  0  0  0  0  0  0  0  0  0
    6.5459  -15.4133   20.5694 O   0  0  0  0  0  0  0  0  0  0  0  0
    8.3443  -19.0153   22.6692 O   0  0  0  0  0  0  0  0  0  0  0  0
    8.7790  -18.0314   21.7805 C   0  0  0  0  0  0  0  0  0  0  0  0
    8.2646  -16.6800   22.2715 C   0  0  2  0  0  0  0  0  0  0  0  0
    8.6989  -15.6440   21.3403 N   0  0  0  0  0  0  0  0  0  0  0  0
    8.7702  -16.4140   23.6171 C   0  0  0  0  0  0  0  0  0  0  0  0
    9.9449  -15.9806   23.8222 O   0  0  0  0  0  0  0  0  0  0  0  0
    7.9790  -16.6211   24.7670 N   0  0  0  0  0  0  0  0  0  0  0  0
    8.4922  -16.3454   26.1115 C   0  0  1  0  0  0  0  0  0  0  0  0
    7.3628  -15.7404   26.9192 C   0  0  0  0  0  0  0  0  0  0  0  0
    7.1789  -14.3075   26.6339 C   0  0  0  0  0  0  0  0  0  0  0  0
    6.0051  -13.8351   26.0314 C   0  0  0  0  0  0  0  0  0  0  0  0
    5.7948  -12.5042   25.7662 C   0  0  0  0  0  0  0  0  0  0  0  0
    6.7383  -11.5637   26.0833 C   0  0  0  0  0  0  0  0  0  0  0  0
    7.9009  -12.0080   26.6768 C   0  0  0  0  0  0  0  0  0  0  0  0
    8.1147  -13.3433   26.9446 C   0  0  0  0  0  0  0  0  0  0  0  0
    9.0680  -17.5475   26.7300 C   0  0  0  0  0  0  0  0  0  0  0  0
    9.8780  -17.4210   27.8413 O   0  0  0  0  0  0  0  0  0  0  0  0
    8.8535  -18.7003   26.2833 O   0  0  0  0  0  0  0  0  0  0  0  0
  2  5  1  0
  2  3  1  0
  2  1  1  6
  4  3  1  0
  5  6  2  0
  7  8  1  0
  9  8  1  6
  9 11  1  0
 10  9  1  0
 10  5  1  0
 11 12  2  0
 11 13  1  0
 13 14  1  0
 14 22  1  0
 14 15  1  1
 16 15  1  0
 16 17  2  0
 18 17  1  0
 19 18  2  0
 20 21  2  0
 20 19  1  0
 21 16  1  0
 22 24  2  0
 22 23  1  0
M  END
$$$$
