CSF.pdb
     RDKit          3D

 24 24  0  0  1  0  0  0  0  0999 V2000
    7.5934  -14.4045   18.1477 N   0  0  0  0  0  0  0  0  0  0  0  0
    8.3880  -14.0936   19.3486 C   0  0  1  0  0  0  0  0  0  0  0  0
    7.9805  -12.6688   19.7511 C   0  0  0  0  0  0  0  0  0  0  0  0
    8.9650  -11.4415   18.8997 S   0  0  0  0  0  0  0  0  0  0  0  0
    8.0188  -15.0996   20.3642 C   0  0  0  0  0  0  0  0  0  0  0  0
    6.8558  -15.5550   20.5075 O   0  0  0  0  0  0  0  0  0  0  0  0
   10.7236  -17.6963   21.7535 O   0  0  0  0  0  0  0  0  0  0  0  0
    9.3565  -17.9473   21.8764 C   0  0  0  0  0  0  0  0  0  0  0  0
    8.6599  -16.6398   22.2467 C   0  0  2  0  0  0  0  0  0  0  0  0
    9.0234  -15.6192   21.2691 N   0  0  0  0  0  0  0  0  0  0  0  0
    9.0523  -16.2312   23.5943 C   0  0  0  0  0  0  0  0  0  0  0  0
   10.1106  -15.5674   23.8161 O   0  0  0  0  0  0  0  0  0  0  0  0
    8.2739  -16.5489   24.7276 N   0  0  0  0  0  0  0  0  0  0  0  0
    8.7081  -16.1931   26.0811 C   0  0  1  0  0  0  0  0  0  0  0  0
    7.4864  -15.7346   26.8499 C   0  0  0  0  0  0  0  0  0  0  0  0
    7.1800  -14.3138   26.6137 C   0  0  0  0  0  0  0  0  0  0  0  0
    8.1697  -13.3298   26.7413 C   0  0  0  0  0  0  0  0  0  0  0  0
    7.9217  -11.9986   26.5129 C   0  0  0  0  0  0  0  0  0  0  0  0
    6.6758  -11.5658   26.1447 C   0  0  0  0  0  0  0  0  0  0  0  0
    5.6874  -12.5184   26.0139 C   0  0  0  0  0  0  0  0  0  0  0  0
    5.9335  -13.8555   26.2421 C   0  0  0  0  0  0  0  0  0  0  0  0
    9.4202  -17.3015   26.7318 C   0  0  0  0  0  0  0  0  0  0  0  0
    9.3858  -18.5602   26.1647 O   0  0  0  0  0  0  0  0  0  0  0  0
   10.0654  -17.1510   27.7974 O   0  0  0  0  0  0  0  0  0  0  0  0
  2  5  1  0
  2  3  1  0
  2  1  1  6
  4  3  1  0
  5  6  2  0
  7  8  1  0
  9  8  1  6
  9 11  1  0
 10  9  1  0
 10  5  1  0
 11 12  2  0
 11 13  1  0
 13 14  1  0
 14 22  1  0
 14 15  1  1
 16 15  1  0
 16 17  2  0
 18 17  1  0
 19 18  2  0
 20 21  2  0
 20 19  1  0
 21 16  1  0
 22 24  2  0
 22 23  1  0
M  END
$$$$
