CSF.pdb
     RDKit          3D

 24 24  0  0  1  0  0  0  0  0999 V2000
    6.7723  -14.3653   18.8843 N   0  0  0  0  0  0  0  0  0  0  0  0
    8.2056  -14.3823   19.2238 C   0  0  1  0  0  0  0  0  0  0  0  0
    8.5822  -12.9161   19.4820 C   0  0  0  0  0  0  0  0  0  0  0  0
    7.7427  -12.2690   20.9231 S   0  0  0  0  0  0  0  0  0  0  0  0
    8.3383  -15.2249   20.4290 C   0  0  0  0  0  0  0  0  0  0  0  0
    7.3779  -15.5230   21.1834 O   0  0  0  0  0  0  0  0  0  0  0  0
   12.1123  -16.5702   21.9675 O   0  0  0  0  0  0  0  0  0  0  0  0
   11.0395  -17.4516   21.8288 C   0  0  0  0  0  0  0  0  0  0  0  0
    9.7436  -16.6529   21.9496 C   0  0  2  0  0  0  0  0  0  0  0  0
    9.6318  -15.7600   20.8010 N   0  0  0  0  0  0  0  0  0  0  0  0
    9.7411  -15.8945   23.1993 C   0  0  0  0  0  0  0  0  0  0  0  0
    9.7317  -14.6259   23.2178 O   0  0  0  0  0  0  0  0  0  0  0  0
    9.7457  -16.5303   24.4590 N   0  0  0  0  0  0  0  0  0  0  0  0
    9.1816  -15.8839   25.6470 C   0  0  1  0  0  0  0  0  0  0  0  0
    7.7446  -15.5219   25.3342 C   0  0  0  0  0  0  0  0  0  0  0  0
    7.4281  -14.1309   25.6991 C   0  0  0  0  0  0  0  0  0  0  0  0
    7.3877  -13.1202   24.7292 C   0  0  0  0  0  0  0  0  0  0  0  0
    7.0804  -11.8167   25.0330 C   0  0  0  0  0  0  0  0  0  0  0  0
    6.7956  -11.4397   26.3182 C   0  0  0  0  0  0  0  0  0  0  0  0
    6.8302  -12.4194   27.2880 C   0  0  0  0  0  0  0  0  0  0  0  0
    7.1379  -13.7288   26.9861 C   0  0  0  0  0  0  0  0  0  0  0  0
    9.3199  -16.7280   26.8417 C   0  0  0  0  0  0  0  0  0  0  0  0
    9.6741  -18.0554   26.7012 O   0  0  0  0  0  0  0  0  0  0  0  0
    9.1247  -16.2881   28.0005 O   0  0  0  0  0  0  0  0  0  0  0  0
  2  5  1  0
  2  3  1  0
  2  1  1  1
  4  3  1  0
  5  6  2  0
  7  8  1  0
  9  8  1  6
  9 11  1  0
 10  9  1  0
 10  5  1  0
 11 12  2  0
 11 13  1  0
 13 14  1  0
 14 22  1  0
 14 15  1  6
 16 15  1  0
 16 17  2  0
 18 17  1  0
 19 18  2  0
 20 21  2  0
 20 19  1  0
 21 16  1  0
 22 24  2  0
 22 23  1  0
M  END
$$$$
