CSF.pdb
     RDKit          3D

 24 24  0  0  1  0  0  0  0  0999 V2000
    6.2311  -18.1278   18.5735 N   0  0  0  0  0  0  0  0  0  0  0  0
    7.4601  -17.9945   19.3747 C   0  0  1  0  0  0  0  0  0  0  0  0
    8.3804  -17.0725   18.5616 C   0  0  0  0  0  0  0  0  0  0  0  0
    9.9364  -16.7965   19.4001 S   0  0  0  0  0  0  0  0  0  0  0  0
    7.0543  -17.4005   20.6641 C   0  0  0  0  0  0  0  0  0  0  0  0
    6.4348  -16.3116   20.7687 O   0  0  0  0  0  0  0  0  0  0  0  0
    7.2288  -19.5074   24.3496 O   0  0  0  0  0  0  0  0  0  0  0  0
    6.3160  -18.4940   24.0548 C   0  0  0  0  0  0  0  0  0  0  0  0
    7.0160  -17.4577   23.1784 C   0  0  2  0  0  0  0  0  0  0  0  0
    7.3679  -18.0779   21.9054 N   0  0  0  0  0  0  0  0  0  0  0  0
    8.2083  -16.9548   23.8583 C   0  0  0  0  0  0  0  0  0  0  0  0
    9.3750  -17.3490   23.5532 O   0  0  0  0  0  0  0  0  0  0  0  0
    8.1308  -15.9979   24.8926 N   0  0  0  0  0  0  0  0  0  0  0  0
    9.3310  -15.5058   25.5743 C   0  0  1  0  0  0  0  0  0  0  0  0
    9.4140  -14.0122   25.3375 C   0  0  0  0  0  0  0  0  0  0  0  0
    8.2341  -13.2994   25.8552 C   0  0  0  0  0  0  0  0  0  0  0  0
    7.0528  -13.2166   25.1057 C   0  0  0  0  0  0  0  0  0  0  0  0
    5.9298  -12.5737   25.5654 C   0  0  0  0  0  0  0  0  0  0  0  0
    5.9136  -11.9745   26.7965 C   0  0  0  0  0  0  0  0  0  0  0  0
    7.0664  -12.0444   27.5500 C   0  0  0  0  0  0  0  0  0  0  0  0
    8.1951  -12.6893   27.0915 C   0  0  0  0  0  0  0  0  0  0  0  0
    9.3336  -15.8681   26.9984 C   0  0  0  0  0  0  0  0  0  0  0  0
    8.2556  -16.5473   27.5308 O   0  0  0  0  0  0  0  0  0  0  0  0
   10.2864  -15.5800   27.7623 O   0  0  0  0  0  0  0  0  0  0  0  0
  2  5  1  0
  2  3  1  0
  2  1  1  6
  4  3  1  0
  5  6  2  0
  7  8  1  0
  9  8  1  1
  9 11  1  0
 10  9  1  0
 10  5  1  0
 11 12  2  0
 11 13  1  0
 13 14  1  0
 14 22  1  0
 14 15  1  1
 16 15  1  0
 16 17  2  0
 18 17  1  0
 19 18  2  0
 20 21  2  0
 20 19  1  0
 21 16  1  0
 22 24  2  0
 22 23  1  0
M  END
$$$$
