CSF.pdb
     RDKit          3D

 24 24  0  0  1  0  0  0  0  0999 V2000
    6.2625  -20.3438   22.3985 N   0  0  0  0  0  0  0  0  0  0  0  0
    6.0669  -19.0123   22.9976 C   0  0  1  0  0  0  0  0  0  0  0  0
    6.1200  -19.2353   24.5160 C   0  0  0  0  0  0  0  0  0  0  0  0
    5.8117  -17.7176   25.4114 S   0  0  0  0  0  0  0  0  0  0  0  0
    7.1744  -18.1681   22.5071 C   0  0  0  0  0  0  0  0  0  0  0  0
    8.3554  -18.5755   22.3664 O   0  0  0  0  0  0  0  0  0  0  0  0
    6.4238  -14.2276   21.7824 O   0  0  0  0  0  0  0  0  0  0  0  0
    7.4047  -14.7401   20.9326 C   0  0  0  0  0  0  0  0  0  0  0  0
    8.0082  -15.9798   21.5890 C   0  0  2  0  0  0  0  0  0  0  0  0
    6.9309  -16.7840   22.1564 N   0  0  0  0  0  0  0  0  0  0  0  0
    8.9596  -15.5812   22.6248 C   0  0  0  0  0  0  0  0  0  0  0  0
    9.9862  -14.8826   22.3643 O   0  0  0  0  0  0  0  0  0  0  0  0
    8.7894  -15.9483   23.9767 N   0  0  0  0  0  0  0  0  0  0  0  0
    9.7460  -15.5401   25.0089 C   0  0  1  0  0  0  0  0  0  0  0  0
    9.5789  -14.0506   25.2268 C   0  0  0  0  0  0  0  0  0  0  0  0
    8.2523  -13.7120   25.7687 C   0  0  0  0  0  0  0  0  0  0  0  0
    7.0841  -13.9849   25.0442 C   0  0  0  0  0  0  0  0  0  0  0  0
    5.8312  -13.6967   25.5269 C   0  0  0  0  0  0  0  0  0  0  0  0
    5.6643  -13.1199   26.7576 C   0  0  0  0  0  0  0  0  0  0  0  0
    6.8015  -12.8430   27.4866 C   0  0  0  0  0  0  0  0  0  0  0  0
    8.0605  -13.1315   27.0050 C   0  0  0  0  0  0  0  0  0  0  0  0
    9.5861  -16.3275   26.2392 C   0  0  0  0  0  0  0  0  0  0  0  0
    8.6329  -17.3254   26.2907 O   0  0  0  0  0  0  0  0  0  0  0  0
   10.2873  -16.1269   27.2602 O   0  0  0  0  0  0  0  0  0  0  0  0
  2  5  1  0
  2  3  1  0
  2  1  1  6
  4  3  1  0
  5  6  2  0
  7  8  1  0
  9  8  1  1
  9 11  1  0
 10  9  1  0
 10  5  1  0
 11 12  2  0
 11 13  1  0
 13 14  1  0
 14 22  1  0
 14 15  1  1
 16 15  1  0
 16 17  2  0
 18 17  1  0
 19 18  2  0
 20 21  2  0
 20 19  1  0
 21 16  1  0
 22 24  2  0
 22 23  1  0
M  END
$$$$
