CSF.pdb
     RDKit          3D

 24 24  0  0  1  0  0  0  0  0999 V2000
    6.1028  -19.2955   21.1125 N   0  0  0  0  0  0  0  0  0  0  0  0
    5.7494  -17.8779   21.3009 C   0  0  1  0  0  0  0  0  0  0  0  0
    4.9373  -17.8284   22.6033 C   0  0  0  0  0  0  0  0  0  0  0  0
    5.9842  -18.0542   24.0362 S   0  0  0  0  0  0  0  0  0  0  0  0
    7.0247  -17.1400   21.3969 C   0  0  0  0  0  0  0  0  0  0  0  0
    8.1342  -17.6867   21.6217 O   0  0  0  0  0  0  0  0  0  0  0  0
    7.6598  -13.8484   19.4336 O   0  0  0  0  0  0  0  0  0  0  0  0
    8.1887  -13.6239   20.7051 C   0  0  0  0  0  0  0  0  0  0  0  0
    8.2892  -14.9659   21.4269 C   0  0  2  0  0  0  0  0  0  0  0  0
    7.0446  -15.7015   21.2291 N   0  0  0  0  0  0  0  0  0  0  0  0
    8.5432  -14.7480   22.8499 C   0  0  0  0  0  0  0  0  0  0  0  0
    8.0669  -13.7517   23.4747 O   0  0  0  0  0  0  0  0  0  0  0  0
    9.3312  -15.6359   23.6126 N   0  0  0  0  0  0  0  0  0  0  0  0
    9.5153  -15.4531   25.0548 C   0  0  1  0  0  0  0  0  0  0  0  0
    8.1536  -15.5604   25.7090 C   0  0  0  0  0  0  0  0  0  0  0  0
    7.6349  -14.2496   26.1346 C   0  0  0  0  0  0  0  0  0  0  0  0
    6.2574  -13.9938   26.1698 C   0  0  0  0  0  0  0  0  0  0  0  0
    5.7401  -12.7886   26.5765 C   0  0  0  0  0  0  0  0  0  0  0  0
    6.5602  -11.7657   26.9721 C   0  0  0  0  0  0  0  0  0  0  0  0
    7.9193  -11.9971   26.9446 C   0  0  0  0  0  0  0  0  0  0  0  0
    8.4416  -13.2060   26.5371 C   0  0  0  0  0  0  0  0  0  0  0  0
   10.4971  -16.4002   25.6011 C   0  0  0  0  0  0  0  0  0  0  0  0
   10.9534  -16.2387   26.8945 O   0  0  0  0  0  0  0  0  0  0  0  0
   10.9466  -17.3616   24.9317 O   0  0  0  0  0  0  0  0  0  0  0  0
  2  5  1  0
  2  3  1  0
  2  1  1  1
  4  3  1  0
  5  6  2  0
  7  8  1  0
  9  8  1  6
  9 11  1  0
 10  9  1  0
 10  5  1  0
 11 12  2  0
 11 13  1  0
 13 14  1  0
 14 22  1  0
 14 15  1  1
 16 15  1  0
 16 17  2  0
 18 17  1  0
 19 18  2  0
 20 21  2  0
 20 19  1  0
 21 16  1  0
 22 24  2  0
 22 23  1  0
M  END
$$$$
