CSF.pdb
     RDKit          3D

 24 24  0  0  1  0  0  0  0  0999 V2000
    9.2096  -14.4671   19.3324 N   0  0  0  0  0  0  0  0  0  0  0  0
    8.3112  -13.6965   20.2094 C   0  0  1  0  0  0  0  0  0  0  0  0
    7.0821  -13.3685   19.3492 C   0  0  0  0  0  0  0  0  0  0  0  0
    7.5017  -12.2716   17.9998 S   0  0  0  0  0  0  0  0  0  0  0  0
    7.9889  -14.5754   21.3512 C   0  0  0  0  0  0  0  0  0  0  0  0
    7.1873  -14.2651   22.2685 O   0  0  0  0  0  0  0  0  0  0  0  0
   10.0701  -18.0842   21.8098 O   0  0  0  0  0  0  0  0  0  0  0  0
    8.7511  -18.1697   22.2571 C   0  0  0  0  0  0  0  0  0  0  0  0
    8.2584  -16.7587   22.5707 C   0  0  2  0  0  0  0  0  0  0  0  0
    8.6096  -15.8795   21.4604 N   0  0  0  0  0  0  0  0  0  0  0  0
    8.8595  -16.2871   23.8169 C   0  0  0  0  0  0  0  0  0  0  0  0
    9.9266  -15.6009   23.8331 O   0  0  0  0  0  0  0  0  0  0  0  0
    8.2852  -16.5653   25.0755 N   0  0  0  0  0  0  0  0  0  0  0  0
    8.9357  -16.1560   26.3232 C   0  0  1  0  0  0  0  0  0  0  0  0
    7.8776  -15.5330   27.2099 C   0  0  0  0  0  0  0  0  0  0  0  0
    7.4586  -14.2057   26.7295 C   0  0  0  0  0  0  0  0  0  0  0  0
    6.2010  -14.0133   26.1416 C   0  0  0  0  0  0  0  0  0  0  0  0
    5.7730  -12.7863   25.6977 C   0  0  0  0  0  0  0  0  0  0  0  0
    6.5688  -11.6777   25.8109 C   0  0  0  0  0  0  0  0  0  0  0  0
    7.8106  -11.8457   26.3865 C   0  0  0  0  0  0  0  0  0  0  0  0
    8.2429  -13.0760   26.8334 C   0  0  0  0  0  0  0  0  0  0  0  0
    9.6404  -17.2765   26.9611 C   0  0  0  0  0  0  0  0  0  0  0  0
    9.5524  -18.5396   26.4097 O   0  0  0  0  0  0  0  0  0  0  0  0
   10.3264  -17.1326   28.0018 O   0  0  0  0  0  0  0  0  0  0  0  0
  2  5  1  0
  2  3  1  0
  2  1  1  6
  4  3  1  0
  5  6  2  0
  7  8  1  0
  9  8  1  6
  9 11  1  0
 10  9  1  0
 10  5  1  0
 11 12  2  0
 11 13  1  0
 13 14  1  0
 14 22  1  0
 14 15  1  1
 16 15  1  0
 16 17  2  0
 18 17  1  0
 19 18  2  0
 20 21  2  0
 20 19  1  0
 21 16  1  0
 22 24  2  0
 22 23  1  0
M  END
$$$$
