CSF.pdb
     RDKit          3D

 24 24  0  0  1  0  0  0  0  0999 V2000
    7.6890  -14.5585   18.3092 N   0  0  0  0  0  0  0  0  0  0  0  0
    8.3939  -14.1468   19.5355 C   0  0  1  0  0  0  0  0  0  0  0  0
    7.8174  -12.7699   19.8959 C   0  0  0  0  0  0  0  0  0  0  0  0
    8.7490  -11.4493   19.1287 S   0  0  0  0  0  0  0  0  0  0  0  0
    8.0938  -15.1736   20.5531 C   0  0  0  0  0  0  0  0  0  0  0  0
    6.9774  -15.7404   20.6671 O   0  0  0  0  0  0  0  0  0  0  0  0
   10.8334  -17.6375   21.9368 O   0  0  0  0  0  0  0  0  0  0  0  0
    9.4796  -17.8880   22.1642 C   0  0  0  0  0  0  0  0  0  0  0  0
    8.8011  -16.5680   22.5234 C   0  0  2  0  0  0  0  0  0  0  0  0
    9.1156  -15.5816   21.4951 N   0  0  0  0  0  0  0  0  0  0  0  0
    9.2585  -16.1142   23.8356 C   0  0  0  0  0  0  0  0  0  0  0  0
   10.3040  -15.4096   23.9784 O   0  0  0  0  0  0  0  0  0  0  0  0
    8.5611  -16.4312   25.0206 N   0  0  0  0  0  0  0  0  0  0  0  0
    9.0497  -16.0072   26.3354 C   0  0  1  0  0  0  0  0  0  0  0  0
    7.8591  -15.5125   27.1303 C   0  0  0  0  0  0  0  0  0  0  0  0
    7.3935  -14.1924   26.6735 C   0  0  0  0  0  0  0  0  0  0  0  0
    8.2295  -13.0693   26.7361 C   0  0  0  0  0  0  0  0  0  0  0  0
    7.8325  -11.8278   26.3040 C   0  0  0  0  0  0  0  0  0  0  0  0
    6.5814  -11.6280   25.7845 C   0  0  0  0  0  0  0  0  0  0  0  0
    5.7429  -12.7205   25.7142 C   0  0  0  0  0  0  0  0  0  0  0  0
    6.1388  -13.9681   26.1469 C   0  0  0  0  0  0  0  0  0  0  0  0
    9.7921  -17.0805   27.0108 C   0  0  0  0  0  0  0  0  0  0  0  0
    9.8917  -18.3211   26.4126 O   0  0  0  0  0  0  0  0  0  0  0  0
   10.3451  -16.9155   28.1249 O   0  0  0  0  0  0  0  0  0  0  0  0
  2  5  1  0
  2  3  1  0
  2  1  1  6
  4  3  1  0
  5  6  2  0
  7  8  1  0
  9  8  1  6
  9 11  1  0
 10  9  1  0
 10  5  1  0
 11 12  2  0
 11 13  1  0
 13 14  1  0
 14 22  1  0
 14 15  1  1
 16 15  1  0
 16 17  2  0
 18 17  1  0
 19 18  2  0
 20 21  2  0
 20 19  1  0
 21 16  1  0
 22 24  2  0
 22 23  1  0
M  END
$$$$
