CSF.pdb
     RDKit          3D

 24 24  0  0  1  0  0  0  0  0999 V2000
    8.2381  -14.1821   17.6572 N   0  0  0  0  0  0  0  0  0  0  0  0
    9.0846  -14.3327   18.8535 C   0  0  1  0  0  0  0  0  0  0  0  0
    9.3720  -12.9028   19.3338 C   0  0  0  0  0  0  0  0  0  0  0  0
    7.8850  -12.0972   19.9171 S   0  0  0  0  0  0  0  0  0  0  0  0
    8.2946  -15.1124   19.8272 C   0  0  0  0  0  0  0  0  0  0  0  0
    7.0382  -15.1543   19.8352 O   0  0  0  0  0  0  0  0  0  0  0  0
    9.6750  -18.4572   21.5717 O   0  0  0  0  0  0  0  0  0  0  0  0
    8.3195  -18.1285   21.5310 C   0  0  0  0  0  0  0  0  0  0  0  0
    8.1786  -16.6366   21.8247 C   0  0  2  0  0  0  0  0  0  0  0  0
    8.9654  -15.8882   20.8499 N   0  0  0  0  0  0  0  0  0  0  0  0
    8.6308  -16.3523   23.1854 C   0  0  0  0  0  0  0  0  0  0  0  0
    9.7996  -15.9245   23.4317 O   0  0  0  0  0  0  0  0  0  0  0  0
    7.7914  -16.5345   24.3050 N   0  0  0  0  0  0  0  0  0  0  0  0
    8.2451  -16.2232   25.6631 C   0  0  1  0  0  0  0  0  0  0  0  0
    7.0607  -15.6695   26.4276 C   0  0  0  0  0  0  0  0  0  0  0  0
    7.0043  -14.1988   26.3791 C   0  0  0  0  0  0  0  0  0  0  0  0
    5.8036  -13.5299   26.1055 C   0  0  0  0  0  0  0  0  0  0  0  0
    5.7129  -12.1602   26.0687 C   0  0  0  0  0  0  0  0  0  0  0  0
    6.8095  -11.3736   26.3010 C   0  0  0  0  0  0  0  0  0  0  0  0
    8.0011  -12.0125   26.5720 C   0  0  0  0  0  0  0  0  0  0  0  0
    8.0952  -13.3873   26.6100 C   0  0  0  0  0  0  0  0  0  0  0  0
    8.8591  -17.3904   26.3112 C   0  0  0  0  0  0  0  0  0  0  0  0
    9.8187  -17.2023   27.2863 O   0  0  0  0  0  0  0  0  0  0  0  0
    8.5454  -18.5674   26.0101 O   0  0  0  0  0  0  0  0  0  0  0  0
  2  5  1  0
  2  3  1  0
  2  1  1  6
  4  3  1  0
  5  6  2  0
  7  8  1  0
  9  8  1  6
  9 11  1  0
 10  9  1  0
 10  5  1  0
 11 12  2  0
 11 13  1  0
 13 14  1  0
 14 22  1  0
 14 15  1  1
 16 15  1  0
 16 17  2  0
 18 17  1  0
 19 18  2  0
 20 21  2  0
 20 19  1  0
 21 16  1  0
 22 24  2  0
 22 23  1  0
M  END
$$$$
