CSF.pdb
     RDKit          3D

 24 24  0  0  1  0  0  0  0  0999 V2000
    4.0447  -18.9677   20.3356 N   0  0  0  0  0  0  0  0  0  0  0  0
    4.3262  -17.5314   20.5026 C   0  0  1  0  0  0  0  0  0  0  0  0
    3.3299  -17.0399   21.5627 C   0  0  0  0  0  0  0  0  0  0  0  0
    3.6827  -17.7447   23.1687 S   0  0  0  0  0  0  0  0  0  0  0  0
    5.7296  -17.4313   20.9503 C   0  0  0  0  0  0  0  0  0  0  0  0
    6.3177  -18.3229   21.6133 O   0  0  0  0  0  0  0  0  0  0  0  0
    7.8753  -15.2290   18.8489 O   0  0  0  0  0  0  0  0  0  0  0  0
    8.6718  -15.3494   19.9882 C   0  0  0  0  0  0  0  0  0  0  0  0
    7.9171  -16.1914   21.0146 C   0  0  2  0  0  0  0  0  0  0  0  0
    6.5111  -16.2548   20.6294 N   0  0  0  0  0  0  0  0  0  0  0  0
    8.0651  -15.6047   22.3453 C   0  0  0  0  0  0  0  0  0  0  0  0
    7.4818  -14.5275   22.6757 O   0  0  0  0  0  0  0  0  0  0  0  0
    8.8639  -16.2050   23.3417 N   0  0  0  0  0  0  0  0  0  0  0  0
    8.9322  -15.6619   24.7010 C   0  0  1  0  0  0  0  0  0  0  0  0
    7.5193  -15.6021   25.2432 C   0  0  0  0  0  0  0  0  0  0  0  0
    7.1968  -14.2838   25.8145 C   0  0  0  0  0  0  0  0  0  0  0  0
    8.0494  -13.1871   25.6288 C   0  0  0  0  0  0  0  0  0  0  0  0
    7.7708  -11.9410   26.1341 C   0  0  0  0  0  0  0  0  0  0  0  0
    6.6292  -11.7103   26.8542 C   0  0  0  0  0  0  0  0  0  0  0  0
    5.7768  -12.7767   27.0486 C   0  0  0  0  0  0  0  0  0  0  0  0
    6.0535  -14.0286   26.5423 C   0  0  0  0  0  0  0  0  0  0  0  0
    9.8468  -16.4374   25.5503 C   0  0  0  0  0  0  0  0  0  0  0  0
   10.6152  -15.7874   26.4957 O   0  0  0  0  0  0  0  0  0  0  0  0
    9.9623  -17.6828   25.4496 O   0  0  0  0  0  0  0  0  0  0  0  0
  2  5  1  0
  2  3  1  0
  2  1  1  1
  4  3  1  0
  5  6  2  0
  7  8  1  0
  9  8  1  6
  9 11  1  0
 10  9  1  0
 10  5  1  0
 11 12  2  0
 11 13  1  0
 13 14  1  0
 14 22  1  0
 14 15  1  1
 16 15  1  0
 16 17  2  0
 18 17  1  0
 19 18  2  0
 20 21  2  0
 20 19  1  0
 21 16  1  0
 22 24  2  0
 22 23  1  0
M  END
$$$$
