CSF.pdb
     RDKit          3D

 24 24  0  0  1  0  0  0  0  0999 V2000
    6.1460  -19.9803   21.8036 N   0  0  0  0  0  0  0  0  0  0  0  0
    6.0082  -18.5144   21.8489 C   0  0  1  0  0  0  0  0  0  0  0  0
    4.9949  -18.2332   22.9680 C   0  0  0  0  0  0  0  0  0  0  0  0
    5.7147  -18.4981   24.5842 S   0  0  0  0  0  0  0  0  0  0  0  0
    7.3510  -17.9789   22.1491 C   0  0  0  0  0  0  0  0  0  0  0  0
    8.2878  -18.6673   22.6276 O   0  0  0  0  0  0  0  0  0  0  0  0
    8.2447  -13.9745   21.3447 O   0  0  0  0  0  0  0  0  0  0  0  0
    9.2850  -14.9013   21.2677 C   0  0  0  0  0  0  0  0  0  0  0  0
    8.9705  -16.0556   22.2168 C   0  0  2  0  0  0  0  0  0  0  0  0
    7.6498  -16.5849   21.8934 N   0  0  0  0  0  0  0  0  0  0  0  0
    9.0182  -15.5887   23.6012 C   0  0  0  0  0  0  0  0  0  0  0  0
    8.5012  -14.4866   23.9591 O   0  0  0  0  0  0  0  0  0  0  0  0
    9.6399  -16.3392   24.6217 N   0  0  0  0  0  0  0  0  0  0  0  0
    9.5868  -15.9186   26.0244 C   0  0  1  0  0  0  0  0  0  0  0  0
    8.1289  -15.8540   26.4297 C   0  0  0  0  0  0  0  0  0  0  0  0
    7.6026  -14.4791   26.4000 C   0  0  0  0  0  0  0  0  0  0  0  0
    6.3708  -14.1893   25.7977 C   0  0  0  0  0  0  0  0  0  0  0  0
    5.8439  -12.9216   25.7666 C   0  0  0  0  0  0  0  0  0  0  0  0
    6.5093  -11.8665   26.3315 C   0  0  0  0  0  0  0  0  0  0  0  0
    7.7236  -12.1305   26.9293 C   0  0  0  0  0  0  0  0  0  0  0  0
    8.2549  -13.4020   26.9624 C   0  0  0  0  0  0  0  0  0  0  0  0
   10.3895  -16.7980   26.8856 C   0  0  0  0  0  0  0  0  0  0  0  0
   11.0617  -17.8683   26.3292 O   0  0  0  0  0  0  0  0  0  0  0  0
   10.4894  -16.6161   28.1231 O   0  0  0  0  0  0  0  0  0  0  0  0
  2  5  1  0
  2  3  1  0
  2  1  1  1
  4  3  1  0
  5  6  2  0
  7  8  1  0
  9  8  1  6
  9 11  1  0
 10  9  1  0
 10  5  1  0
 11 12  2  0
 11 13  1  0
 13 14  1  0
 14 22  1  0
 14 15  1  1
 16 15  1  0
 16 17  2  0
 18 17  1  0
 19 18  2  0
 20 21  2  0
 20 19  1  0
 21 16  1  0
 22 24  2  0
 22 23  1  0
M  END
$$$$
