CSF.pdb
     RDKit          3D

 24 24  0  0  1  0  0  0  0  0999 V2000
   12.4065  -14.8381   17.3232 N   0  0  0  0  0  0  0  0  0  0  0  0
   12.6838  -15.8766   18.3305 C   0  0  1  0  0  0  0  0  0  0  0  0
   14.0073  -15.4634   18.9904 C   0  0  0  0  0  0  0  0  0  0  0  0
   13.8152  -13.9774   19.9677 S   0  0  0  0  0  0  0  0  0  0  0  0
   11.5472  -15.8568   19.2728 C   0  0  0  0  0  0  0  0  0  0  0  0
   10.8692  -14.8297   19.5297 O   0  0  0  0  0  0  0  0  0  0  0  0
   10.3272  -19.3592   21.2918 O   0  0  0  0  0  0  0  0  0  0  0  0
    9.3773  -18.3962   20.9491 C   0  0  0  0  0  0  0  0  0  0  0  0
   10.0629  -17.0318   20.9290 C   0  0  2  0  0  0  0  0  0  0  0  0
   11.1565  -17.0684   19.9636 N   0  0  0  0  0  0  0  0  0  0  0  0
   10.5598  -16.7047   22.2643 C   0  0  0  0  0  0  0  0  0  0  0  0
   11.7814  -16.8372   22.5801 O   0  0  0  0  0  0  0  0  0  0  0  0
    9.7087  -16.2189   23.2797 N   0  0  0  0  0  0  0  0  0  0  0  0
   10.1997  -15.9674   24.6372 C   0  0  1  0  0  0  0  0  0  0  0  0
    9.5134  -14.7183   25.1498 C   0  0  0  0  0  0  0  0  0  0  0  0
    9.7752  -14.4855   26.5800 C   0  0  0  0  0  0  0  0  0  0  0  0
   11.0740  -14.2424   27.0472 C   0  0  0  0  0  0  0  0  0  0  0  0
   11.3506  -14.0059   28.3713 C   0  0  0  0  0  0  0  0  0  0  0  0
   10.3536  -13.9971   29.3100 C   0  0  0  0  0  0  0  0  0  0  0  0
    9.0682  -14.2344   28.8709 C   0  0  0  0  0  0  0  0  0  0  0  0
    8.7874  -14.4719   27.5423 C   0  0  0  0  0  0  0  0  0  0  0  0
   10.0066  -17.1342   25.5093 C   0  0  0  0  0  0  0  0  0  0  0  0
   11.0276  -17.5341   26.3487 O   0  0  0  0  0  0  0  0  0  0  0  0
    8.9390  -17.7932   25.5219 O   0  0  0  0  0  0  0  0  0  0  0  0
  2  5  1  0
  2  3  1  0
  2  1  1  6
  4  3  1  0
  5  6  2  0
  7  8  1  0
  9  8  1  1
  9 11  1  0
 10  9  1  0
 10  5  1  0
 11 12  2  0
 11 13  1  0
 13 14  1  0
 14 22  1  0
 14 15  1  1
 16 15  1  0
 16 17  2  0
 18 17  1  0
 19 18  2  0
 20 21  2  0
 20 19  1  0
 21 16  1  0
 22 24  2  0
 22 23  1  0
M  END
$$$$
