CSF.pdb
     RDKit          3D

 24 24  0  0  1  0  0  0  0  0999 V2000
    8.0092  -15.6717   16.6375 N   0  0  0  0  0  0  0  0  0  0  0  0
    8.8120  -14.9579   17.6455 C   0  0  1  0  0  0  0  0  0  0  0  0
    8.1890  -13.5581   17.7480 C   0  0  0  0  0  0  0  0  0  0  0  0
    9.0105  -12.5656   18.9892 S   0  0  0  0  0  0  0  0  0  0  0  0
    8.6887  -15.7290   18.8985 C   0  0  0  0  0  0  0  0  0  0  0  0
    7.6026  -16.1908   19.3319 O   0  0  0  0  0  0  0  0  0  0  0  0
   12.0780  -16.7645   21.2282 O   0  0  0  0  0  0  0  0  0  0  0  0
   10.9440  -17.5769   21.1953 C   0  0  0  0  0  0  0  0  0  0  0  0
    9.7218  -16.6865   20.9824 C   0  0  2  0  0  0  0  0  0  0  0  0
    9.8615  -15.9920   19.7067 N   0  0  0  0  0  0  0  0  0  0  0  0
    9.6036  -15.7320   22.0832 C   0  0  0  0  0  0  0  0  0  0  0  0
   10.2845  -14.6621   22.1238 O   0  0  0  0  0  0  0  0  0  0  0  0
    8.7218  -15.9439   23.1643 N   0  0  0  0  0  0  0  0  0  0  0  0
    8.6128  -14.9831   24.2654 C   0  0  1  0  0  0  0  0  0  0  0  0
    7.2620  -14.3072   24.1531 C   0  0  0  0  0  0  0  0  0  0  0  0
    7.0013  -13.3926   25.2772 C   0  0  0  0  0  0  0  0  0  0  0  0
    7.6792  -12.1710   25.3878 C   0  0  0  0  0  0  0  0  0  0  0  0
    7.4484  -11.2883   26.4141 C   0  0  0  0  0  0  0  0  0  0  0  0
    6.5310  -11.5669   27.3918 C   0  0  0  0  0  0  0  0  0  0  0  0
    5.8532  -12.7643   27.3016 C   0  0  0  0  0  0  0  0  0  0  0  0
    6.0824  -13.6522   26.2723 C   0  0  0  0  0  0  0  0  0  0  0  0
    8.8337  -15.6240   25.5691 C   0  0  0  0  0  0  0  0  0  0  0  0
    8.5186  -16.9583   25.7348 O   0  0  0  0  0  0  0  0  0  0  0  0
    9.3009  -15.0006   26.5527 O   0  0  0  0  0  0  0  0  0  0  0  0
  2  5  1  0
  2  3  1  0
  2  1  1  6
  4  3  1  0
  5  6  2  0
  7  8  1  0
  9  8  1  1
  9 11  1  0
 10  9  1  0
 10  5  1  0
 11 12  2  0
 11 13  1  0
 13 14  1  0
 14 22  1  0
 14 15  1  1
 16 15  1  0
 16 17  2  0
 18 17  1  0
 19 18  2  0
 20 21  2  0
 20 19  1  0
 21 16  1  0
 22 24  2  0
 22 23  1  0
M  END
$$$$
