CSF.pdb
     RDKit          3D

 24 24  0  0  1  0  0  0  0  0999 V2000
    6.9404  -13.3626   19.0171 N   0  0  0  0  0  0  0  0  0  0  0  0
    7.9287  -14.3069   19.5664 C   0  0  1  0  0  0  0  0  0  0  0  0
    9.2386  -13.5126   19.6721 C   0  0  0  0  0  0  0  0  0  0  0  0
    8.9800  -11.9256   20.4563 S   0  0  0  0  0  0  0  0  0  0  0  0
    7.4124  -14.7313   20.8830 C   0  0  0  0  0  0  0  0  0  0  0  0
    6.5857  -14.0665   21.5577 O   0  0  0  0  0  0  0  0  0  0  0  0
    8.0315  -18.5891   22.2023 O   0  0  0  0  0  0  0  0  0  0  0  0
    6.9450  -17.8661   22.6958 C   0  0  0  0  0  0  0  0  0  0  0  0
    7.3422  -16.3934   22.7695 C   0  0  2  0  0  0  0  0  0  0  0  0
    7.8575  -15.9789   21.4688 N   0  0  0  0  0  0  0  0  0  0  0  0
    8.3486  -16.2009   23.8121 C   0  0  0  0  0  0  0  0  0  0  0  0
    9.5870  -16.1229   23.5475 O   0  0  0  0  0  0  0  0  0  0  0  0
    8.0001  -16.0873   25.1749 N   0  0  0  0  0  0  0  0  0  0  0  0
    9.0194  -16.0487   26.2269 C   0  0  1  0  0  0  0  0  0  0  0  0
    8.5845  -15.0204   27.2503 C   0  0  0  0  0  0  0  0  0  0  0  0
    7.7869  -13.9384   26.6491 C   0  0  0  0  0  0  0  0  0  0  0  0
    6.4048  -13.8531   26.8653 C   0  0  0  0  0  0  0  0  0  0  0  0
    5.6345  -12.8486   26.3330 C   0  0  0  0  0  0  0  0  0  0  0  0
    6.1911  -11.8696   25.5539 C   0  0  0  0  0  0  0  0  0  0  0  0
    7.5500  -11.9355   25.3288 C   0  0  0  0  0  0  0  0  0  0  0  0
    8.3259  -12.9424   25.8621 C   0  0  0  0  0  0  0  0  0  0  0  0
    9.2534  -17.3791   26.8052 C   0  0  0  0  0  0  0  0  0  0  0  0
   10.2902  -17.5610   27.6991 O   0  0  0  0  0  0  0  0  0  0  0  0
    8.5423  -18.3714   26.5152 O   0  0  0  0  0  0  0  0  0  0  0  0
  2  5  1  0
  2  3  1  0
  2  1  1  1
  4  3  1  0
  5  6  2  0
  7  8  1  0
  9  8  1  6
  9 11  1  0
 10  9  1  0
 10  5  1  0
 11 12  2  0
 11 13  1  0
 13 14  1  0
 14 22  1  0
 14 15  1  1
 16 15  1  0
 16 17  2  0
 18 17  1  0
 19 18  2  0
 20 21  2  0
 20 19  1  0
 21 16  1  0
 22 24  2  0
 22 23  1  0
M  END
$$$$
