CSF.pdb
     RDKit          3D

 24 24  0  0  1  0  0  0  0  0999 V2000
    8.7694  -20.3605   18.8632 N   0  0  0  0  0  0  0  0  0  0  0  0
    8.4055  -20.5719   20.2750 C   0  0  1  0  0  0  0  0  0  0  0  0
    9.6366  -21.2234   20.9215 C   0  0  0  0  0  0  0  0  0  0  0  0
   10.8780  -20.0050   21.3395 S   0  0  0  0  0  0  0  0  0  0  0  0
    8.1086  -19.2374   20.8328 C   0  0  0  0  0  0  0  0  0  0  0  0
    8.3752  -18.1584   20.2454 O   0  0  0  0  0  0  0  0  0  0  0  0
    5.8908  -18.7601   24.3921 O   0  0  0  0  0  0  0  0  0  0  0  0
    5.8938  -17.7800   23.3989 C   0  0  0  0  0  0  0  0  0  0  0  0
    7.2573  -17.7977   22.7115 C   0  0  2  0  0  0  0  0  0  0  0  0
    7.4742  -19.1181   22.1294 N   0  0  0  0  0  0  0  0  0  0  0  0
    8.3062  -17.4775   23.6779 C   0  0  0  0  0  0  0  0  0  0  0  0
    8.6050  -18.2586   24.6320 O   0  0  0  0  0  0  0  0  0  0  0  0
    9.0505  -16.2808   23.6036 N   0  0  0  0  0  0  0  0  0  0  0  0
    8.8744  -15.2056   24.5835 C   0  0  1  0  0  0  0  0  0  0  0  0
    7.4967  -14.6129   24.3724 C   0  0  0  0  0  0  0  0  0  0  0  0
    7.1247  -13.6723   25.4425 C   0  0  0  0  0  0  0  0  0  0  0  0
    8.0038  -12.6619   25.8550 C   0  0  0  0  0  0  0  0  0  0  0  0
    7.6822  -11.7588   26.8383 C   0  0  0  0  0  0  0  0  0  0  0  0
    6.4685  -11.8061   27.4705 C   0  0  0  0  0  0  0  0  0  0  0  0
    5.5887  -12.7933   27.0794 C   0  0  0  0  0  0  0  0  0  0  0  0
    5.9086  -13.7010   26.0925 C   0  0  0  0  0  0  0  0  0  0  0  0
    9.0973  -15.6801   25.9562 C   0  0  0  0  0  0  0  0  0  0  0  0
    8.2739  -16.6561   26.4822 O   0  0  0  0  0  0  0  0  0  0  0  0
   10.0157  -15.2278   26.6817 O   0  0  0  0  0  0  0  0  0  0  0  0
  2  5  1  0
  2  3  1  0
  2  1  1  6
  4  3  1  0
  5  6  2  0
  7  8  1  0
  9  8  1  1
  9 11  1  0
 10  9  1  0
 10  5  1  0
 11 12  2  0
 11 13  1  0
 13 14  1  0
 14 22  1  0
 14 15  1  1
 16 15  1  0
 16 17  2  0
 18 17  1  0
 19 18  2  0
 20 21  2  0
 20 19  1  0
 21 16  1  0
 22 24  2  0
 22 23  1  0
M  END
$$$$
