CSF.pdb
     RDKit          3D

 24 24  0  0  1  0  0  0  0  0999 V2000
    7.7612  -20.3148   20.9959 N   0  0  0  0  0  0  0  0  0  0  0  0
    7.0456  -19.2939   21.7806 C   0  0  1  0  0  0  0  0  0  0  0  0
    6.8839  -19.8957   23.1841 C   0  0  0  0  0  0  0  0  0  0  0  0
    5.5515  -21.0883   23.2351 S   0  0  0  0  0  0  0  0  0  0  0  0
    7.8987  -18.0888   21.7727 C   0  0  0  0  0  0  0  0  0  0  0  0
    9.1526  -18.1199   21.6874 O   0  0  0  0  0  0  0  0  0  0  0  0
    6.0449  -14.5013   21.9873 O   0  0  0  0  0  0  0  0  0  0  0  0
    7.3305  -14.3801   21.4583 C   0  0  0  0  0  0  0  0  0  0  0  0
    8.1490  -15.5895   21.9048 C   0  0  2  0  0  0  0  0  0  0  0  0
    7.2980  -16.7743   21.8669 N   0  0  0  0  0  0  0  0  0  0  0  0
    8.6705  -15.3676   23.2523 C   0  0  0  0  0  0  0  0  0  0  0  0
    9.4889  -14.4338   23.5130 O   0  0  0  0  0  0  0  0  0  0  0  0
    8.2907  -16.1782   24.3432 N   0  0  0  0  0  0  0  0  0  0  0  0
    8.9191  -16.0370   25.6594 C   0  0  1  0  0  0  0  0  0  0  0  0
    7.8301  -15.6910   26.6535 C   0  0  0  0  0  0  0  0  0  0  0  0
    7.4762  -14.2621   26.6177 C   0  0  0  0  0  0  0  0  0  0  0  0
    8.4244  -13.2746   26.9175 C   0  0  0  0  0  0  0  0  0  0  0  0
    8.1320  -11.9335   26.8780 C   0  0  0  0  0  0  0  0  0  0  0  0
    6.8804  -11.4936   26.5388 C   0  0  0  0  0  0  0  0  0  0  0  0
    5.9324  -12.4495   26.2403 C   0  0  0  0  0  0  0  0  0  0  0  0
    6.2231  -13.7965   26.2787 C   0  0  0  0  0  0  0  0  0  0  0  0
    9.6810  -17.2379   26.0289 C   0  0  0  0  0  0  0  0  0  0  0  0
    9.6914  -18.3267   25.1796 O   0  0  0  0  0  0  0  0  0  0  0  0
   10.3298  -17.3178   27.1000 O   0  0  0  0  0  0  0  0  0  0  0  0
  2  5  1  0
  2  3  1  0
  2  1  1  6
  4  3  1  0
  5  6  2  0
  7  8  1  0
  9  8  1  1
  9 11  1  0
 10  9  1  0
 10  5  1  0
 11 12  2  0
 11 13  1  0
 13 14  1  0
 14 22  1  0
 14 15  1  1
 16 15  1  0
 16 17  2  0
 18 17  1  0
 19 18  2  0
 20 21  2  0
 20 19  1  0
 21 16  1  0
 22 24  2  0
 22 23  1  0
M  END
$$$$
