WDA.pdb
     RDKit          3D

 28 29  0  0  1  0  0  0  0  0999 V2000
   22.1092  -22.7235  -17.4362 N   0  0  0  0  0  0  0  0  0  0  0  0
   22.0692  -21.8208  -16.3234 C   0  0  1  0  0  0  0  0  0  0  0  0
   21.0549  -22.2032  -15.2898 C   0  0  0  0  0  0  0  0  0  0  0  0
   19.7135  -21.7929  -15.7544 C   0  0  0  0  0  0  0  0  0  0  0  0
   18.6688  -22.6057  -16.1288 C   0  0  0  0  0  0  0  0  0  0  0  0
   17.6253  -21.8746  -16.5255 N   0  0  0  0  0  0  0  0  0  0  0  0
   17.9816  -20.5692  -16.4121 C   0  0  0  0  0  0  0  0  0  0  0  0
   17.2857  -19.4142  -16.6785 C   0  0  0  0  0  0  0  0  0  0  0  0
   17.8800  -18.1922  -16.4671 C   0  0  0  0  0  0  0  0  0  0  0  0
   19.1721  -18.1042  -15.9887 C   0  0  0  0  0  0  0  0  0  0  0  0
   19.8754  -19.2751  -15.7196 C   0  0  0  0  0  0  0  0  0  0  0  0
   19.2880  -20.4987  -15.9293 C   0  0  0  0  0  0  0  0  0  0  0  0
   23.4084  -21.8335  -15.6295 C   0  0  0  0  0  0  0  0  0  0  0  0
   24.0985  -22.8886  -15.6329 O   0  0  0  0  0  0  0  0  0  0  0  0
   23.8852  -20.6667  -14.9814 N   0  0  0  0  0  0  0  0  0  0  0  0
   25.2434  -20.7580  -14.3766 C   0  0  1  0  0  0  0  0  0  0  0  0
   25.8499  -19.4013  -14.6788 C   0  0  0  0  0  0  0  0  0  0  0  0
   26.3379  -19.1666  -16.0287 C   0  0  0  0  0  0  0  0  0  0  0  0
   27.2108  -19.8373  -16.6100 O   0  0  0  0  0  0  0  0  0  0  0  0
   25.1022  -21.0633  -12.9538 C   0  0  0  0  0  0  0  0  0  0  0  0
   23.9633  -20.7741  -12.4201 O   0  0  0  0  0  0  0  0  0  0  0  0
   25.8262  -18.1003  -16.8177 O   0  0  0  0  0  0  0  0  0  0  0  0
   26.9727  -22.2181   -9.8578 C   0  0  0  0  0  0  0  0  0  0  0  0
   25.7941  -21.7251  -10.6243 C   0  0  2  0  0  0  0  0  0  0  0  0
   26.0160  -21.6328  -12.0628 N   0  0  0  0  0  0  0  0  0  0  0  0
   25.4637  -20.3472  -10.1571 C   0  0  0  0  0  0  0  0  0  0  0  0
   24.6339  -20.0907   -9.0762 O   0  0  0  0  0  0  0  0  0  0  0  0
   25.9326  -19.3265  -10.7337 O   0  0  0  0  0  0  0  0  0  0  0  0
  2  1  1  6
  2  3  1  0
  2 13  1  0
  3  4  1  0
  4  5  2  0
  5  6  1  0
  7  6  1  0
  8  7  2  0
  9  8  1  0
 10 11  1  0
 10  9  2  0
 11 12  2  0
 12  4  1  0
 12  7  1  0
 13 15  1  0
 13 14  2  0
 15 16  1  0
 16 17  1  1
 18 22  1  0
 18 17  1  0
 19 18  2  0
 20 16  1  0
 20 21  2  0
 24 23  1  1
 24 25  1  0
 25 20  1  0
 26 24  1  0
 27 26  1  0
 28 26  2  0
M  END
$$$$
