WDA.pdb
     RDKit          3D

 28 29  0  0  1  0  0  0  0  0999 V2000
   27.5964  -22.0753  -13.0904 N   0  0  0  0  0  0  0  0  0  0  0  0
   26.5382  -21.6219  -12.2363 C   0  0  1  0  0  0  0  0  0  0  0  0
   26.8736  -20.3615  -11.5000 C   0  0  0  0  0  0  0  0  0  0  0  0
   27.9413  -20.6449  -10.5184 C   0  0  0  0  0  0  0  0  0  0  0  0
   29.2395  -21.0212  -10.7741 C   0  0  0  0  0  0  0  0  0  0  0  0
   29.9015  -21.2244   -9.6334 N   0  0  0  0  0  0  0  0  0  0  0  0
   29.0358  -20.9803   -8.6161 C   0  0  0  0  0  0  0  0  0  0  0  0
   29.2025  -21.0332   -7.2527 C   0  0  0  0  0  0  0  0  0  0  0  0
   28.1513  -20.7248   -6.4216 C   0  0  0  0  0  0  0  0  0  0  0  0
   26.9229  -20.3601   -6.9357 C   0  0  0  0  0  0  0  0  0  0  0  0
   26.7559  -20.3071   -8.3168 C   0  0  0  0  0  0  0  0  0  0  0  0
   27.8014  -20.6148   -9.1524 C   0  0  0  0  0  0  0  0  0  0  0  0
   25.3243  -21.3129  -13.0765 C   0  0  0  0  0  0  0  0  0  0  0  0
   25.4700  -20.7365  -14.1882 O   0  0  0  0  0  0  0  0  0  0  0  0
   24.0317  -21.6703  -12.6179 N   0  0  0  0  0  0  0  0  0  0  0  0
   22.9147  -21.4826  -13.5852 C   0  0  1  0  0  0  0  0  0  0  0  0
   22.3828  -22.8895  -13.7788 C   0  0  0  0  0  0  0  0  0  0  0  0
   21.7059  -23.1879  -15.0310 C   0  0  0  0  0  0  0  0  0  0  0  0
   21.5132  -22.3821  -15.9601 O   0  0  0  0  0  0  0  0  0  0  0  0
   21.9559  -20.5377  -13.0147 C   0  0  0  0  0  0  0  0  0  0  0  0
   21.6746  -20.6971  -11.7653 O   0  0  0  0  0  0  0  0  0  0  0  0
   21.1906  -24.4867  -15.2938 O   0  0  0  0  0  0  0  0  0  0  0  0
   19.9015  -17.4179  -13.6796 C   0  0  0  0  0  0  0  0  0  0  0  0
   20.3127  -18.6314  -12.9193 C   0  0  2  0  0  0  0  0  0  0  0  0
   21.2862  -19.4668  -13.6130 N   0  0  0  0  0  0  0  0  0  0  0  0
   19.1086  -19.4828  -12.6924 C   0  0  0  0  0  0  0  0  0  0  0  0
   18.8671  -20.6571  -13.3891 O   0  0  0  0  0  0  0  0  0  0  0  0
   18.2330  -19.1703  -11.8382 O   0  0  0  0  0  0  0  0  0  0  0  0
  2  1  1  6
  2  3  1  0
  2 13  1  0
  3  4  1  0
  4  5  2  0
  5  6  1  0
  7  6  1  0
  8  7  2  0
  9  8  1  0
 10 11  1  0
 10  9  2  0
 11 12  2  0
 12  4  1  0
 12  7  1  0
 13 15  1  0
 13 14  2  0
 15 16  1  0
 16 17  1  1
 18 22  1  0
 18 17  1  0
 19 18  2  0
 20 16  1  0
 20 21  2  0
 24 23  1  6
 24 25  1  0
 25 20  1  0
 26 24  1  0
 27 26  1  0
 28 26  2  0
M  END
$$$$
