WDA.pdb
     RDKit          3D

 28 29  0  0  1  0  0  0  0  0999 V2000
   25.3231  -35.1969  -12.0662 N   0  0  0  0  0  0  0  0  0  0  0  0
   24.8486  -34.0624  -11.3297 C   0  0  1  0  0  0  0  0  0  0  0  0
   23.4142  -33.7351  -11.6101 C   0  0  0  0  0  0  0  0  0  0  0  0
   23.3069  -33.1559  -12.9653 C   0  0  0  0  0  0  0  0  0  0  0  0
   23.7837  -33.6812  -14.1439 C   0  0  0  0  0  0  0  0  0  0  0  0
   23.5301  -32.8557  -15.1611 N   0  0  0  0  0  0  0  0  0  0  0  0
   22.8804  -31.7772  -14.6526 C   0  0  0  0  0  0  0  0  0  0  0  0
   22.3887  -30.6466  -15.2603 C   0  0  0  0  0  0  0  0  0  0  0  0
   21.7501  -29.6879  -14.5093 C   0  0  0  0  0  0  0  0  0  0  0  0
   21.5927  -29.8418  -13.1463 C   0  0  0  0  0  0  0  0  0  0  0  0
   22.0914  -30.9876  -12.5325 C   0  0  0  0  0  0  0  0  0  0  0  0
   22.7309  -31.9485  -13.2766 C   0  0  0  0  0  0  0  0  0  0  0  0
   24.9356  -34.3609   -9.8537 C   0  0  0  0  0  0  0  0  0  0  0  0
   24.7504  -35.5400   -9.4476 O   0  0  0  0  0  0  0  0  0  0  0  0
   25.2250  -33.3226   -8.9335 N   0  0  0  0  0  0  0  0  0  0  0  0
   25.2757  -33.7115   -7.4966 C   0  0  1  0  0  0  0  0  0  0  0  0
   26.4696  -32.9391   -6.9697 C   0  0  0  0  0  0  0  0  0  0  0  0
   27.4652  -33.6752   -6.2065 C   0  0  0  0  0  0  0  0  0  0  0  0
   27.3608  -34.8571   -5.8300 O   0  0  0  0  0  0  0  0  0  0  0  0
   23.9988  -33.3667   -6.8735 C   0  0  0  0  0  0  0  0  0  0  0  0
   23.4919  -32.2278   -7.2075 O   0  0  0  0  0  0  0  0  0  0  0  0
   28.6887  -33.0643   -5.8173 O   0  0  0  0  0  0  0  0  0  0  0  0
   20.8983  -34.7176   -5.3926 C   0  0  0  0  0  0  0  0  0  0  0  0
   21.9217  -33.6380   -5.4753 C   0  0  2  0  0  0  0  0  0  0  0  0
   23.2215  -34.0862   -5.9617 N   0  0  0  0  0  0  0  0  0  0  0  0
   22.1476  -33.0892   -4.1064 C   0  0  0  0  0  0  0  0  0  0  0  0
   21.1775  -32.3989   -3.3956 O   0  0  0  0  0  0  0  0  0  0  0  0
   23.2546  -33.2289   -3.5156 O   0  0  0  0  0  0  0  0  0  0  0  0
  2  1  1  6
  2  3  1  0
  2 13  1  0
  3  4  1  0
  4  5  2  0
  5  6  1  0
  7  6  1  0
  8  7  2  0
  9  8  1  0
 10 11  1  0
 10  9  2  0
 11 12  2  0
 12  4  1  0
 12  7  1  0
 13 15  1  0
 13 14  2  0
 15 16  1  0
 16 17  1  1
 18 22  1  0
 18 17  1  0
 19 18  2  0
 20 16  1  0
 20 21  2  0
 24 23  1  1
 24 25  1  0
 25 20  1  0
 26 24  1  0
 27 26  1  0
 28 26  2  0
M  END
$$$$
