WDA.pdb
     RDKit          3D

 28 29  0  0  1  0  0  0  0  0999 V2000
   28.4205  -20.5613  -15.4884 N   0  0  0  0  0  0  0  0  0  0  0  0
   27.3528  -19.7080  -15.0564 C   0  0  1  0  0  0  0  0  0  0  0  0
   26.5531  -19.1438  -16.1901 C   0  0  0  0  0  0  0  0  0  0  0  0
   27.2707  -17.9831  -16.7570 C   0  0  0  0  0  0  0  0  0  0  0  0
   27.9862  -17.9288  -17.9307 C   0  0  0  0  0  0  0  0  0  0  0  0
   28.5259  -16.7195  -18.0947 N   0  0  0  0  0  0  0  0  0  0  0  0
   28.1645  -15.9682  -17.0229 C   0  0  0  0  0  0  0  0  0  0  0  0
   28.4410  -14.6615  -16.6984 C   0  0  0  0  0  0  0  0  0  0  0  0
   27.9387  -14.1231  -15.5370 C   0  0  0  0  0  0  0  0  0  0  0  0
   27.1560  -14.8769  -14.6853 C   0  0  0  0  0  0  0  0  0  0  0  0
   26.8770  -16.2002  -15.0156 C   0  0  0  0  0  0  0  0  0  0  0  0
   27.3763  -16.7442  -16.1735 C   0  0  0  0  0  0  0  0  0  0  0  0
   26.3908  -20.5089  -14.2150 C   0  0  0  0  0  0  0  0  0  0  0  0
   26.1983  -21.7259  -14.4820 O   0  0  0  0  0  0  0  0  0  0  0  0
   25.7114  -19.8960  -13.1326 N   0  0  0  0  0  0  0  0  0  0  0  0
   24.8176  -20.7785  -12.3319 C   0  0  1  0  0  0  0  0  0  0  0  0
   25.0545  -20.3127  -10.9083 C   0  0  0  0  0  0  0  0  0  0  0  0
   26.2901  -20.7246  -10.2610 C   0  0  0  0  0  0  0  0  0  0  0  0
   26.7226  -20.2851   -9.1796 O   0  0  0  0  0  0  0  0  0  0  0  0
   23.4462  -20.6133  -12.8109 C   0  0  0  0  0  0  0  0  0  0  0  0
   23.0105  -19.4006  -12.8824 O   0  0  0  0  0  0  0  0  0  0  0  0
   27.1327  -21.7075  -10.8488 O   0  0  0  0  0  0  0  0  0  0  0  0
   20.3854  -22.4179  -14.1499 C   0  0  0  0  0  0  0  0  0  0  0  0
   21.1419  -21.2605  -13.5949 C   0  0  2  0  0  0  0  0  0  0  0  0
   22.5150  -21.5736  -13.2162 N   0  0  0  0  0  0  0  0  0  0  0  0
   20.4562  -20.7930  -12.3550 C   0  0  0  0  0  0  0  0  0  0  0  0
   20.8088  -21.2224  -11.0846 O   0  0  0  0  0  0  0  0  0  0  0  0
   19.5025  -19.9670  -12.4018 O   0  0  0  0  0  0  0  0  0  0  0  0
  2  1  1  6
  2  3  1  0
  2 13  1  0
  3  4  1  0
  4  5  2  0
  5  6  1  0
  7  6  1  0
  8  7  2  0
  9  8  1  0
 10 11  1  0
 10  9  2  0
 11 12  2  0
 12  4  1  0
 12  7  1  0
 13 15  1  0
 13 14  2  0
 15 16  1  0
 16 17  1  1
 18 22  1  0
 18 17  1  0
 19 18  2  0
 20 16  1  0
 20 21  2  0
 24 23  1  1
 24 25  1  0
 25 20  1  0
 26 24  1  0
 27 26  1  0
 28 26  2  0
M  END
$$$$
