WDA.pdb
     RDKit          3D

 28 29  0  0  1  0  0  0  0  0999 V2000
   15.3211  -17.0668    3.7624 N   0  0  0  0  0  0  0  0  0  0  0  0
   16.5730  -17.7535    3.8886 C   0  0  1  0  0  0  0  0  0  0  0  0
   17.5629  -17.0229    4.7429 C   0  0  0  0  0  0  0  0  0  0  0  0
   18.1267  -15.8952    3.9722 C   0  0  0  0  0  0  0  0  0  0  0  0
   17.7232  -14.5802    3.9900 C   0  0  0  0  0  0  0  0  0  0  0  0
   18.4462  -13.8568    3.1328 N   0  0  0  0  0  0  0  0  0  0  0  0
   19.3346  -14.6986    2.5444 C   0  0  0  0  0  0  0  0  0  0  0  0
   20.3082  -14.4724    1.6009 C   0  0  0  0  0  0  0  0  0  0  0  0
   21.0972  -15.5121    1.1680 C   0  0  0  0  0  0  0  0  0  0  0  0
   20.9278  -16.7879    1.6676 C   0  0  0  0  0  0  0  0  0  0  0  0
   19.9411  -17.0151    2.6231 C   0  0  0  0  0  0  0  0  0  0  0  0
   19.1492  -15.9813    3.0592 C   0  0  0  0  0  0  0  0  0  0  0  0
   16.3395  -19.0867    4.5543 C   0  0  0  0  0  0  0  0  0  0  0  0
   15.4673  -19.1834    5.4595 O   0  0  0  0  0  0  0  0  0  0  0  0
   17.0948  -20.2199    4.1621 N   0  0  0  0  0  0  0  0  0  0  0  0
   16.7981  -21.4900    4.8815 C   0  0  1  0  0  0  0  0  0  0  0  0
   16.8016  -22.5256    3.7736 C   0  0  0  0  0  0  0  0  0  0  0  0
   16.6031  -23.9163    4.1502 C   0  0  0  0  0  0  0  0  0  0  0  0
   16.2630  -24.3199    5.2776 O   0  0  0  0  0  0  0  0  0  0  0  0
   17.8146  -21.6919    5.9127 C   0  0  0  0  0  0  0  0  0  0  0  0
   19.0390  -21.5074    5.5486 O   0  0  0  0  0  0  0  0  0  0  0  0
   16.7939  -24.9646    3.2088 O   0  0  0  0  0  0  0  0  0  0  0  0
   18.4054  -22.2992    9.6050 C   0  0  0  0  0  0  0  0  0  0  0  0
   18.7948  -22.2346    8.1684 C   0  0  2  0  0  0  0  0  0  0  0  0
   17.6722  -22.0540    7.2551 N   0  0  0  0  0  0  0  0  0  0  0  0
   19.4444  -23.5239    7.7919 C   0  0  0  0  0  0  0  0  0  0  0  0
   20.7065  -23.8946    8.2306 O   0  0  0  0  0  0  0  0  0  0  0  0
   18.8660  -24.3577    7.0408 O   0  0  0  0  0  0  0  0  0  0  0  0
  2  1  1  1
  2  3  1  0
  2 13  1  0
  3  4  1  0
  4  5  2  0
  5  6  1  0
  7  6  1  0
  8  7  2  0
  9  8  1  0
 10 11  1  0
 10  9  2  0
 11 12  2  0
 12  4  1  0
 12  7  1  0
 13 15  1  0
 13 14  2  0
 15 16  1  0
 16 17  1  6
 18 22  1  0
 18 17  1  0
 19 18  2  0
 20 16  1  0
 20 21  2  0
 24 23  1  1
 24 25  1  0
 25 20  1  0
 26 24  1  0
 27 26  1  0
 28 26  2  0
M  END
$$$$
