WDA.pdb
     RDKit          3D

 28 29  0  0  1  0  0  0  0  0999 V2000
   28.6862  -36.9964   -8.1985 N   0  0  0  0  0  0  0  0  0  0  0  0
   28.7134  -36.0272   -7.1428 C   0  0  1  0  0  0  0  0  0  0  0  0
   27.3817  -35.3881   -6.8944 C   0  0  0  0  0  0  0  0  0  0  0  0
   27.1140  -34.3995   -7.9595 C   0  0  0  0  0  0  0  0  0  0  0  0
   27.6108  -34.3909   -9.2423 C   0  0  0  0  0  0  0  0  0  0  0  0
   27.1756  -33.3182   -9.9059 N   0  0  0  0  0  0  0  0  0  0  0  0
   26.3848  -32.6126   -9.0570 C   0  0  0  0  0  0  0  0  0  0  0  0
   25.6857  -31.4423   -9.2326 C   0  0  0  0  0  0  0  0  0  0  0  0
   24.9374  -30.9297   -8.1989 C   0  0  0  0  0  0  0  0  0  0  0  0
   24.8754  -31.5742   -6.9795 C   0  0  0  0  0  0  0  0  0  0  0  0
   25.5842  -32.7594   -6.8036 C   0  0  0  0  0  0  0  0  0  0  0  0
   26.3340  -33.2762   -7.8315 C   0  0  0  0  0  0  0  0  0  0  0  0
   29.1036  -36.7102   -5.8559 C   0  0  0  0  0  0  0  0  0  0  0  0
   28.6778  -37.8726   -5.6171 O   0  0  0  0  0  0  0  0  0  0  0  0
   29.9436  -36.0488   -4.9255 N   0  0  0  0  0  0  0  0  0  0  0  0
   30.2439  -36.7885   -3.6680 C   0  0  1  0  0  0  0  0  0  0  0  0
   31.4640  -36.0698   -3.1253 C   0  0  0  0  0  0  0  0  0  0  0  0
   32.0494  -36.5721   -1.8923 C   0  0  0  0  0  0  0  0  0  0  0  0
   31.6116  -37.5219   -1.2172 O   0  0  0  0  0  0  0  0  0  0  0  0
   29.0666  -36.7369   -2.8026 C   0  0  0  0  0  0  0  0  0  0  0  0
   28.5068  -35.5815   -2.6716 O   0  0  0  0  0  0  0  0  0  0  0  0
   33.2216  -35.9827   -1.3446 O   0  0  0  0  0  0  0  0  0  0  0  0
   26.6416  -38.8084   -0.7440 C   0  0  0  0  0  0  0  0  0  0  0  0
   27.2527  -37.5497   -1.2558 C   0  0  2  0  0  0  0  0  0  0  0  0
   28.4345  -37.7562   -2.0850 N   0  0  0  0  0  0  0  0  0  0  0  0
   27.6902  -36.7245   -0.0922 C   0  0  0  0  0  0  0  0  0  0  0  0
   29.0128  -36.3769    0.1374 O   0  0  0  0  0  0  0  0  0  0  0  0
   26.8619  -36.2933    0.7574 O   0  0  0  0  0  0  0  0  0  0  0  0
  2  1  1  6
  2  3  1  0
  2 13  1  0
  3  4  1  0
  4  5  2  0
  5  6  1  0
  7  6  1  0
  8  7  2  0
  9  8  1  0
 10 11  1  0
 10  9  2  0
 11 12  2  0
 12  4  1  0
 12  7  1  0
 13 15  1  0
 13 14  2  0
 15 16  1  0
 16 17  1  1
 18 22  1  0
 18 17  1  0
 19 18  2  0
 20 16  1  0
 20 21  2  0
 24 23  1  1
 24 25  1  0
 25 20  1  0
 26 24  1  0
 27 26  1  0
 28 26  2  0
M  END
$$$$
