WDA.pdb
     RDKit          3D

 28 29  0  0  1  0  0  0  0  0999 V2000
   27.0225  -22.0943   -9.8817 N   0  0  0  0  0  0  0  0  0  0  0  0
   26.2592  -20.9190   -9.5806 C   0  0  1  0  0  0  0  0  0  0  0  0
   27.1093  -19.7104   -9.3355 C   0  0  0  0  0  0  0  0  0  0  0  0
   28.1795  -20.0586   -8.3779 C   0  0  0  0  0  0  0  0  0  0  0  0
   29.3452  -20.7430   -8.6328 C   0  0  0  0  0  0  0  0  0  0  0  0
   30.0505  -20.9009   -7.5111 N   0  0  0  0  0  0  0  0  0  0  0  0
   29.3473  -20.3164   -6.5073 C   0  0  0  0  0  0  0  0  0  0  0  0
   29.6204  -20.1867   -5.1664 C   0  0  0  0  0  0  0  0  0  0  0  0
   28.7328  -19.5297   -4.3470 C   0  0  0  0  0  0  0  0  0  0  0  0
   27.5642  -18.9941   -4.8505 C   0  0  0  0  0  0  0  0  0  0  0  0
   27.2892  -19.1264   -6.2088 C   0  0  0  0  0  0  0  0  0  0  0  0
   28.1710  -19.7822   -7.0325 C   0  0  0  0  0  0  0  0  0  0  0  0
   25.3788  -20.5872  -10.7595 C   0  0  0  0  0  0  0  0  0  0  0  0
   24.7956  -19.4702  -10.8030 O   0  0  0  0  0  0  0  0  0  0  0  0
   25.2116  -21.5248  -11.8091 N   0  0  0  0  0  0  0  0  0  0  0  0
   24.3363  -21.1010  -12.9373 C   0  0  1  0  0  0  0  0  0  0  0  0
   24.9756  -21.7655  -14.1413 C   0  0  0  0  0  0  0  0  0  0  0  0
   26.2488  -21.2377  -14.6057 C   0  0  0  0  0  0  0  0  0  0  0  0
   26.4730  -20.0521  -14.9117 O   0  0  0  0  0  0  0  0  0  0  0  0
   22.9678  -21.5308  -12.6544 C   0  0  0  0  0  0  0  0  0  0  0  0
   22.8190  -22.7655  -12.3095 O   0  0  0  0  0  0  0  0  0  0  0  0
   27.3833  -22.0826  -14.7500 O   0  0  0  0  0  0  0  0  0  0  0  0
   19.7781  -20.7384  -11.2318 C   0  0  0  0  0  0  0  0  0  0  0  0
   20.4681  -21.3803  -12.3857 C   0  0  2  0  0  0  0  0  0  0  0  0
   21.7733  -20.8064  -12.6928 N   0  0  0  0  0  0  0  0  0  0  0  0
   19.6277  -21.1987  -13.6050 C   0  0  0  0  0  0  0  0  0  0  0  0
   20.0600  -20.5128  -14.7298 O   0  0  0  0  0  0  0  0  0  0  0  0
   18.4584  -21.6699  -13.6746 O   0  0  0  0  0  0  0  0  0  0  0  0
  2  1  1  6
  2  3  1  0
  2 13  1  0
  3  4  1  0
  4  5  2  0
  5  6  1  0
  7  6  1  0
  8  7  2  0
  9  8  1  0
 10 11  1  0
 10  9  2  0
 11 12  2  0
 12  4  1  0
 12  7  1  0
 13 15  1  0
 13 14  2  0
 15 16  1  0
 16 17  1  6
 18 22  1  0
 18 17  1  0
 19 18  2  0
 20 16  1  0
 20 21  2  0
 24 23  1  1
 24 25  1  0
 25 20  1  0
 26 24  1  0
 27 26  1  0
 28 26  2  0
M  END
$$$$
