WDA.pdb
     RDKit          3D

 28 29  0  0  1  0  0  0  0  0999 V2000
   26.7793  -22.7221  -13.6184 N   0  0  0  0  0  0  0  0  0  0  0  0
   25.8639  -21.8163  -12.9889 C   0  0  1  0  0  0  0  0  0  0  0  0
   26.4450  -20.4550  -12.7595 C   0  0  0  0  0  0  0  0  0  0  0  0
   27.4789  -20.5422  -11.7072 C   0  0  0  0  0  0  0  0  0  0  0  0
   28.8362  -20.6919  -11.8731 C   0  0  0  0  0  0  0  0  0  0  0  0
   29.4471  -20.7685  -10.6892 N   0  0  0  0  0  0  0  0  0  0  0  0
   28.4878  -20.6680   -9.7334 C   0  0  0  0  0  0  0  0  0  0  0  0
   28.5715  -20.6797   -8.3615 C   0  0  0  0  0  0  0  0  0  0  0  0
   27.4309  -20.5494   -7.6045 C   0  0  0  0  0  0  0  0  0  0  0  0
   26.1946  -20.4058   -8.2021 C   0  0  0  0  0  0  0  0  0  0  0  0
   26.1117  -20.3942   -9.5917 C   0  0  0  0  0  0  0  0  0  0  0  0
   27.2469  -20.5248  -10.3536 C   0  0  0  0  0  0  0  0  0  0  0  0
   24.6671  -21.6216  -13.8860 C   0  0  0  0  0  0  0  0  0  0  0  0
   24.8030  -21.7344  -15.1343 O   0  0  0  0  0  0  0  0  0  0  0  0
   23.4010  -21.3161  -13.3271 N   0  0  0  0  0  0  0  0  0  0  0  0
   22.2282  -21.4643  -14.2334 C   0  0  1  0  0  0  0  0  0  0  0  0
   21.1887  -22.1272  -13.3505 C   0  0  0  0  0  0  0  0  0  0  0  0
   20.5755  -21.3194  -12.3080 C   0  0  0  0  0  0  0  0  0  0  0  0
   21.1520  -20.8891  -11.2920 O   0  0  0  0  0  0  0  0  0  0  0  0
   21.8544  -20.1426  -14.7343 C   0  0  0  0  0  0  0  0  0  0  0  0
   21.9088  -19.1748  -13.8822 O   0  0  0  0  0  0  0  0  0  0  0  0
   19.2054  -20.9467  -12.3806 O   0  0  0  0  0  0  0  0  0  0  0  0
   20.9449  -18.1420  -17.8242 C   0  0  0  0  0  0  0  0  0  0  0  0
   21.0843  -18.3799  -16.3601 C   0  0  2  0  0  0  0  0  0  0  0  0
   21.4450  -19.7494  -16.0114 N   0  0  0  0  0  0  0  0  0  0  0  0
   19.7715  -18.1075  -15.7056 C   0  0  0  0  0  0  0  0  0  0  0  0
   19.3652  -16.8398  -15.3176 O   0  0  0  0  0  0  0  0  0  0  0  0
   18.9493  -19.0358  -15.4679 O   0  0  0  0  0  0  0  0  0  0  0  0
  2  1  1  6
  2  3  1  0
  2 13  1  0
  3  4  1  0
  4  5  2  0
  5  6  1  0
  7  6  1  0
  8  7  2  0
  9  8  1  0
 10 11  1  0
 10  9  2  0
 11 12  2  0
 12  4  1  0
 12  7  1  0
 13 15  1  0
 13 14  2  0
 15 16  1  0
 16 17  1  1
 18 22  1  0
 18 17  1  0
 19 18  2  0
 20 16  1  0
 20 21  2  0
 24 23  1  6
 24 25  1  0
 25 20  1  0
 26 24  1  0
 27 26  1  0
 28 26  2  0
M  END
$$$$
