WDA.pdb
     RDKit          3D

 28 29  0  0  1  0  0  0  0  0999 V2000
   26.1399  -22.9814  -12.1367 N   0  0  0  0  0  0  0  0  0  0  0  0
   25.6068  -21.7251  -11.6982 C   0  0  1  0  0  0  0  0  0  0  0  0
   26.5708  -20.5892  -11.8525 C   0  0  0  0  0  0  0  0  0  0  0  0
   27.6379  -20.7201  -10.8387 C   0  0  0  0  0  0  0  0  0  0  0  0
   28.8861  -21.2755  -10.9994 C   0  0  0  0  0  0  0  0  0  0  0  0
   29.5622  -21.2489   -9.8492 N   0  0  0  0  0  0  0  0  0  0  0  0
   28.7563  -20.6714   -8.9213 C   0  0  0  0  0  0  0  0  0  0  0  0
   28.9608  -20.3948   -7.5906 C   0  0  0  0  0  0  0  0  0  0  0  0
   27.9704  -19.7840   -6.8578 C   0  0  0  0  0  0  0  0  0  0  0  0
   26.7659  -19.4410   -7.4390 C   0  0  0  0  0  0  0  0  0  0  0  0
   26.5606  -19.7219   -8.7870 C   0  0  0  0  0  0  0  0  0  0  0  0
   27.5453  -20.3326   -9.5243 C   0  0  0  0  0  0  0  0  0  0  0  0
   24.4039  -21.3788  -12.5398 C   0  0  0  0  0  0  0  0  0  0  0  0
   24.3196  -21.8274  -13.7151 O   0  0  0  0  0  0  0  0  0  0  0  0
   23.3777  -20.5571  -12.0105 N   0  0  0  0  0  0  0  0  0  0  0  0
   22.1616  -20.3960  -12.8554 C   0  0  1  0  0  0  0  0  0  0  0  0
   21.1202  -19.8956  -11.8732 C   0  0  0  0  0  0  0  0  0  0  0  0
   20.1751  -20.8644  -11.3409 C   0  0  0  0  0  0  0  0  0  0  0  0
   20.1265  -22.0708  -11.6440 O   0  0  0  0  0  0  0  0  0  0  0  0
   22.4692  -19.4726  -13.9464 C   0  0  0  0  0  0  0  0  0  0  0  0
   22.9226  -18.3147  -13.6011 O   0  0  0  0  0  0  0  0  0  0  0  0
   19.1907  -20.4811  -10.3892 O   0  0  0  0  0  0  0  0  0  0  0  0
   23.9623  -18.8669  -17.0397 C   0  0  0  0  0  0  0  0  0  0  0  0
   22.6912  -18.6156  -16.3043 C   0  0  2  0  0  0  0  0  0  0  0  0
   22.3545  -19.6459  -15.3285 N   0  0  0  0  0  0  0  0  0  0  0  0
   21.5699  -18.5809  -17.2880 C   0  0  0  0  0  0  0  0  0  0  0  0
   20.5246  -19.4919  -17.2802 O   0  0  0  0  0  0  0  0  0  0  0  0
   21.5161  -17.7031  -18.1939 O   0  0  0  0  0  0  0  0  0  0  0  0
  2  1  1  6
  2  3  1  0
  2 13  1  0
  3  4  1  0
  4  5  2  0
  5  6  1  0
  7  6  1  0
  8  7  2  0
  9  8  1  0
 10 11  1  0
 10  9  2  0
 11 12  2  0
 12  4  1  0
 12  7  1  0
 13 15  1  0
 13 14  2  0
 15 16  1  0
 16 17  1  1
 18 22  1  0
 18 17  1  0
 19 18  2  0
 20 16  1  0
 20 21  2  0
 24 23  1  6
 24 25  1  0
 25 20  1  0
 26 24  1  0
 27 26  1  0
 28 26  2  0
M  END
$$$$
