WDA.pdb
     RDKit          3D

 28 29  0  0  1  0  0  0  0  0999 V2000
   27.7999  -21.5356  -14.6061 N   0  0  0  0  0  0  0  0  0  0  0  0
   26.7446  -21.6669  -13.6449 C   0  0  1  0  0  0  0  0  0  0  0  0
   26.5428  -20.4340  -12.8186 C   0  0  0  0  0  0  0  0  0  0  0  0
   27.4693  -20.4666  -11.6680 C   0  0  0  0  0  0  0  0  0  0  0  0
   28.8412  -20.3678  -11.6907 C   0  0  0  0  0  0  0  0  0  0  0  0
   29.3391  -20.4756  -10.4573 N   0  0  0  0  0  0  0  0  0  0  0  0
   28.2896  -20.6461   -9.6126 C   0  0  0  0  0  0  0  0  0  0  0  0
   28.2416  -20.7997   -8.2476 C   0  0  0  0  0  0  0  0  0  0  0  0
   27.0285  -20.9487   -7.6174 C   0  0  0  0  0  0  0  0  0  0  0  0
   25.8497  -20.9464   -8.3362 C   0  0  0  0  0  0  0  0  0  0  0  0
   25.9004  -20.7907   -9.7187 C   0  0  0  0  0  0  0  0  0  0  0  0
   27.1087  -20.6424  -10.3544 C   0  0  0  0  0  0  0  0  0  0  0  0
   25.4445  -21.9101  -14.3698 C   0  0  0  0  0  0  0  0  0  0  0  0
   25.1617  -21.2180  -15.3850 O   0  0  0  0  0  0  0  0  0  0  0  0
   24.5507  -22.9102  -13.9121 N   0  0  0  0  0  0  0  0  0  0  0  0
   23.4066  -23.2317  -14.8100 C   0  0  1  0  0  0  0  0  0  0  0  0
   23.5881  -24.7116  -15.0874 C   0  0  0  0  0  0  0  0  0  0  0  0
   24.6771  -25.1037  -15.9682 C   0  0  0  0  0  0  0  0  0  0  0  0
   24.8769  -24.6608  -17.1142 O   0  0  0  0  0  0  0  0  0  0  0  0
   22.1626  -22.8844  -14.1250 C   0  0  0  0  0  0  0  0  0  0  0  0
   22.1911  -22.9300  -12.8356 O   0  0  0  0  0  0  0  0  0  0  0  0
   25.6374  -26.0698  -15.5605 O   0  0  0  0  0  0  0  0  0  0  0  0
   19.3903  -23.4192  -12.9429 C   0  0  0  0  0  0  0  0  0  0  0  0
   19.7347  -22.2791  -13.8380 C   0  0  2  0  0  0  0  0  0  0  0  0
   20.9260  -22.4989  -14.6501 N   0  0  0  0  0  0  0  0  0  0  0  0
   20.0109  -21.0786  -12.9963 C   0  0  0  0  0  0  0  0  0  0  0  0
   20.1214  -19.7972  -13.5146 O   0  0  0  0  0  0  0  0  0  0  0  0
   20.1605  -21.1715  -11.7461 O   0  0  0  0  0  0  0  0  0  0  0  0
  2  1  1  6
  2  3  1  0
  2 13  1  0
  3  4  1  0
  4  5  2  0
  5  6  1  0
  7  6  1  0
  8  7  2  0
  9  8  1  0
 10 11  1  0
 10  9  2  0
 11 12  2  0
 12  4  1  0
 12  7  1  0
 13 15  1  0
 13 14  2  0
 15 16  1  0
 16 17  1  1
 18 22  1  0
 18 17  1  0
 19 18  2  0
 20 16  1  0
 20 21  2  0
 24 23  1  1
 24 25  1  0
 25 20  1  0
 26 24  1  0
 27 26  1  0
 28 26  2  0
M  END
$$$$
