WDA.pdb
     RDKit          3D

 28 29  0  0  1  0  0  0  0  0999 V2000
   20.2930  -11.3875  -20.1147 N   0  0  0  0  0  0  0  0  0  0  0  0
   20.3535  -11.0699  -18.7182 C   0  0  1  0  0  0  0  0  0  0  0  0
   21.5375  -11.6730  -18.0270 C   0  0  0  0  0  0  0  0  0  0  0  0
   21.4781  -13.1434  -18.1615 C   0  0  0  0  0  0  0  0  0  0  0  0
   22.1820  -13.9361  -19.0381 C   0  0  0  0  0  0  0  0  0  0  0  0
   21.8376  -15.2169  -18.8913 N   0  0  0  0  0  0  0  0  0  0  0  0
   20.9001  -15.2723  -17.9106 C   0  0  0  0  0  0  0  0  0  0  0  0
   20.2224  -16.3362  -17.3646 C   0  0  0  0  0  0  0  0  0  0  0  0
   19.3125  -16.1238  -16.3557 C   0  0  0  0  0  0  0  0  0  0  0  0
   19.0659  -14.8522  -15.8779 C   0  0  0  0  0  0  0  0  0  0  0  0
   19.7531  -13.7758  -16.4321 C   0  0  0  0  0  0  0  0  0  0  0  0
   20.6625  -13.9810  -17.4406 C   0  0  0  0  0  0  0  0  0  0  0  0
   20.4832   -9.5758  -18.5574 C   0  0  0  0  0  0  0  0  0  0  0  0
   20.8717   -8.8785  -19.5333 O   0  0  0  0  0  0  0  0  0  0  0  0
   20.1686   -8.9634  -17.3185 N   0  0  0  0  0  0  0  0  0  0  0  0
   20.1494   -7.4741  -17.3064 C   0  0  1  0  0  0  0  0  0  0  0  0
   18.6710   -7.1466  -17.2233 C   0  0  0  0  0  0  0  0  0  0  0  0
   18.2917   -5.7426  -17.2019 C   0  0  0  0  0  0  0  0  0  0  0  0
   19.0750   -4.7794  -17.2925 O   0  0  0  0  0  0  0  0  0  0  0  0
   20.9458   -7.0053  -16.1735 C   0  0  0  0  0  0  0  0  0  0  0  0
   20.7963   -7.6518  -15.0666 O   0  0  0  0  0  0  0  0  0  0  0  0
   16.9307   -5.3534  -17.0688 O   0  0  0  0  0  0  0  0  0  0  0  0
   23.5831   -4.5089  -15.0584 C   0  0  0  0  0  0  0  0  0  0  0  0
   22.5707   -5.5863  -14.8737 C   0  0  2  0  0  0  0  0  0  0  0  0
   21.8637   -5.9543  -16.0951 N   0  0  0  0  0  0  0  0  0  0  0  0
   21.5349   -5.1076  -13.9123 C   0  0  0  0  0  0  0  0  0  0  0  0
   21.7948   -4.8742  -12.5704 O   0  0  0  0  0  0  0  0  0  0  0  0
   20.3475   -4.8870  -14.2800 O   0  0  0  0  0  0  0  0  0  0  0  0
  2  1  1  6
  2  3  1  0
  2 13  1  0
  3  4  1  0
  4  5  2  0
  5  6  1  0
  7  6  1  0
  8  7  2  0
  9  8  1  0
 10 11  1  0
 10  9  2  0
 11 12  2  0
 12  4  1  0
 12  7  1  0
 13 15  1  0
 13 14  2  0
 15 16  1  0
 16 17  1  1
 18 22  1  0
 18 17  1  0
 19 18  2  0
 20 16  1  0
 20 21  2  0
 24 23  1  6
 24 25  1  0
 25 20  1  0
 26 24  1  0
 27 26  1  0
 28 26  2  0
M  END
$$$$
