WDA.pdb
     RDKit          3D

 28 29  0  0  1  0  0  0  0  0999 V2000
   19.7472  -25.4068  -13.8024 N   0  0  0  0  0  0  0  0  0  0  0  0
   20.6076  -26.5518  -13.7442 C   0  0  1  0  0  0  0  0  0  0  0  0
   22.0354  -26.2336  -14.0658 C   0  0  0  0  0  0  0  0  0  0  0  0
   22.1399  -25.8721  -15.4947 C   0  0  0  0  0  0  0  0  0  0  0  0
   22.1255  -24.6119  -16.0460 C   0  0  0  0  0  0  0  0  0  0  0  0
   22.2047  -24.6817  -17.3763 N   0  0  0  0  0  0  0  0  0  0  0  0
   22.2727  -25.9968  -17.7075 C   0  0  0  0  0  0  0  0  0  0  0  0
   22.3735  -26.6189  -18.9290 C   0  0  0  0  0  0  0  0  0  0  0  0
   22.4365  -27.9910  -18.9957 C   0  0  0  0  0  0  0  0  0  0  0  0
   22.4004  -28.7601  -17.8497 C   0  0  0  0  0  0  0  0  0  0  0  0
   22.2983  -28.1282  -16.6134 C   0  0  0  0  0  0  0  0  0  0  0  0
   22.2340  -26.7583  -16.5399 C   0  0  0  0  0  0  0  0  0  0  0  0
   20.6009  -27.1030  -12.3403 C   0  0  0  0  0  0  0  0  0  0  0  0
   20.4198  -26.3211  -11.3680 O   0  0  0  0  0  0  0  0  0  0  0  0
   20.7952  -28.4894  -12.1191 N   0  0  0  0  0  0  0  0  0  0  0  0
   20.7400  -28.9441  -10.7017 C   0  0  1  0  0  0  0  0  0  0  0  0
   19.2726  -29.2684  -10.4980 C   0  0  0  0  0  0  0  0  0  0  0  0
   18.8412  -29.6250   -9.1556 C   0  0  0  0  0  0  0  0  0  0  0  0
   19.5503  -29.5879   -8.1331 O   0  0  0  0  0  0  0  0  0  0  0  0
   21.6471  -30.0791  -10.5391 C   0  0  0  0  0  0  0  0  0  0  0  0
   21.6589  -30.9403  -11.5002 O   0  0  0  0  0  0  0  0  0  0  0  0
   17.5119  -30.0635   -8.9056 O   0  0  0  0  0  0  0  0  0  0  0  0
   24.4792  -31.4874   -8.4548 C   0  0  0  0  0  0  0  0  0  0  0  0
   23.4182  -31.5371   -9.4995 C   0  0  2  0  0  0  0  0  0  0  0  0
   22.5235  -30.3854   -9.4944 N   0  0  0  0  0  0  0  0  0  0  0  0
   22.5657  -32.7373   -9.2567 C   0  0  0  0  0  0  0  0  0  0  0  0
   23.0076  -34.0359   -9.4591 O   0  0  0  0  0  0  0  0  0  0  0  0
   21.3766  -32.6279   -8.8467 O   0  0  0  0  0  0  0  0  0  0  0  0
  2  1  1  1
  2  3  1  0
  2 13  1  0
  3  4  1  0
  4  5  2  0
  5  6  1  0
  7  6  1  0
  8  7  2  0
  9  8  1  0
 10 11  1  0
 10  9  2  0
 11 12  2  0
 12  4  1  0
 12  7  1  0
 13 15  1  0
 13 14  2  0
 15 16  1  0
 16 17  1  6
 18 22  1  0
 18 17  1  0
 19 18  2  0
 20 16  1  0
 20 21  2  0
 24 23  1  1
 24 25  1  0
 25 20  1  0
 26 24  1  0
 27 26  1  0
 28 26  2  0
M  END
$$$$
