WDA.pdb
     RDKit          3D

 28 29  0  0  1  0  0  0  0  0999 V2000
   18.7605  -10.9392  -16.3504 N   0  0  0  0  0  0  0  0  0  0  0  0
   19.3163   -9.8677  -17.1236 C   0  0  1  0  0  0  0  0  0  0  0  0
   18.6892   -9.7299  -18.4768 C   0  0  0  0  0  0  0  0  0  0  0  0
   18.9658  -10.9495  -19.2640 C   0  0  0  0  0  0  0  0  0  0  0  0
   18.2651  -12.1332  -19.2537 C   0  0  0  0  0  0  0  0  0  0  0  0
   18.8347  -13.0218  -20.0701 N   0  0  0  0  0  0  0  0  0  0  0  0
   19.9192  -12.4219  -20.6250 C   0  0  0  0  0  0  0  0  0  0  0  0
   20.8440  -12.8825  -21.5316 C   0  0  0  0  0  0  0  0  0  0  0  0
   21.8624  -12.0585  -21.9499 C   0  0  0  0  0  0  0  0  0  0  0  0
   21.9733  -10.7679  -21.4722 C   0  0  0  0  0  0  0  0  0  0  0  0
   21.0357  -10.3032  -20.5539 C   0  0  0  0  0  0  0  0  0  0  0  0
   20.0167  -11.1212  -20.1315 C   0  0  0  0  0  0  0  0  0  0  0  0
   19.0713   -8.5634  -16.4069 C   0  0  0  0  0  0  0  0  0  0  0  0
   17.9135   -8.2950  -15.9862 O   0  0  0  0  0  0  0  0  0  0  0  0
   20.1363   -7.6497  -16.2081 N   0  0  0  0  0  0  0  0  0  0  0  0
   19.8158   -6.4260  -15.4216 C   0  0  1  0  0  0  0  0  0  0  0  0
   20.7589   -6.5173  -14.2376 C   0  0  0  0  0  0  0  0  0  0  0  0
   20.4393   -7.4782  -13.1937 C   0  0  0  0  0  0  0  0  0  0  0  0
   19.2926   -7.7931  -12.8257 O   0  0  0  0  0  0  0  0  0  0  0  0
   20.0149   -5.2560  -16.2754 C   0  0  0  0  0  0  0  0  0  0  0  0
   21.1012   -5.2381  -16.9719 O   0  0  0  0  0  0  0  0  0  0  0  0
   21.4669   -8.1587  -12.4848 O   0  0  0  0  0  0  0  0  0  0  0  0
   18.3292   -2.3764  -17.9714 C   0  0  0  0  0  0  0  0  0  0  0  0
   19.5225   -3.0501  -17.3867 C   0  0  2  0  0  0  0  0  0  0  0  0
   19.2018   -4.1354  -16.4667 N   0  0  0  0  0  0  0  0  0  0  0  0
   20.3007   -2.0466  -16.6035 C   0  0  0  0  0  0  0  0  0  0  0  0
   21.0729   -1.0569  -17.1927 O   0  0  0  0  0  0  0  0  0  0  0  0
   20.2947   -2.0485  -15.3410 O   0  0  0  0  0  0  0  0  0  0  0  0
  2  1  1  1
  2  3  1  0
  2 13  1  0
  3  4  1  0
  4  5  2  0
  5  6  1  0
  7  6  1  0
  8  7  2  0
  9  8  1  0
 10 11  1  0
 10  9  2  0
 11 12  2  0
 12  4  1  0
 12  7  1  0
 13 15  1  0
 13 14  2  0
 15 16  1  0
 16 17  1  1
 18 22  1  0
 18 17  1  0
 19 18  2  0
 20 16  1  0
 20 21  2  0
 24 23  1  1
 24 25  1  0
 25 20  1  0
 26 24  1  0
 27 26  1  0
 28 26  2  0
M  END
$$$$
