NME.pdb
     RDKit          3D

 26 25  0  0  1  0  0  0  0  0999 V2000
   17.4529  -23.6154   -5.9048 N   0  0  0  0  0  0  0  0  0  0  0  0
   17.9801  -23.6705   -7.2417 C   0  0  0  0  0  0  0  0  0  0  0  0
   17.6672  -24.6333   -7.9691 O   0  0  0  0  0  0  0  0  0  0  0  0
   18.8643  -22.5694   -7.6591 C   0  0  0  0  0  0  0  0  0  0  0  0
   20.1397  -22.9860   -8.2863 C   0  0  2  0  0  0  0  0  0  0  0  0
   20.7877  -23.9116   -7.3259 N   0  0  0  0  0  0  0  0  0  0  0  0
   21.1179  -21.9401   -8.5726 C   0  0  0  0  0  0  0  0  0  0  0  0
   20.7682  -20.8902   -9.1454 O   0  0  0  0  0  0  0  0  0  0  0  0
   27.7074  -18.2028   -6.9101 C   0  0  0  0  0  0  0  0  0  0  0  0
   26.6931  -19.6772   -6.6443 S   0  0  0  0  0  0  0  0  0  0  0  0
   25.7527  -20.1342   -8.0975 C   0  0  0  0  0  0  0  0  0  0  0  0
   24.7948  -21.2732   -7.8702 C   0  0  0  0  0  0  0  0  0  0  0  0
   23.5040  -21.1024   -8.5921 C   0  0  2  0  0  0  0  0  0  0  0  0
   22.5065  -22.0834   -8.2093 N   0  0  0  0  0  0  0  0  0  0  0  0
   23.7594  -21.2971  -10.0456 C   0  0  0  0  0  0  0  0  0  0  0  0
   24.1805  -22.4102  -10.4894 O   0  0  0  0  0  0  0  0  0  0  0  0
   23.5269  -20.2234  -10.9402 N   0  0  0  0  0  0  0  0  0  0  0  0
   23.6588  -20.4545  -12.3585 C   0  0  1  0  0  0  0  0  0  0  0  0
   23.1509  -19.2807  -13.1676 C   0  0  0  0  0  0  0  0  0  0  0  0
   23.2729  -19.5141  -14.6520 C   0  0  0  0  0  0  0  0  0  0  0  0
   22.0943  -18.9883  -15.3660 C   0  0  0  0  0  0  0  0  0  0  0  0
   21.9176  -17.7600  -15.4643 O   0  0  0  0  0  0  0  0  0  0  0  0
   25.0616  -20.7804  -12.6533 C   0  0  0  0  0  0  0  0  0  0  0  0
   26.0723  -20.2642  -11.8660 O   0  0  0  0  0  0  0  0  0  0  0  0
   21.1838  -19.8544  -15.9272 O   0  0  0  0  0  0  0  0  0  0  0  0
   25.3887  -21.5206  -13.6067 O   0  0  0  0  0  0  0  0  0  0  0  0
  2  1  1  0
  3  2  2  0
  4  2  1  0
  5  4  1  0
  5  6  1  1
  7  5  1  0
  7  8  2  0
  9 10  1  0
 11 12  1  0
 11 10  1  0
 13 14  1  0
 13 12  1  1
 14  7  1  0
 15 13  1  0
 16 15  2  0
 17 15  1  0
 18 17  1  0
 19 20  1  0
 18 19  1  6
 20 21  1  0
 21 25  1  0
 21 22  2  0
 23 18  1  0
 23 24  1  0
 26 23  2  0
M  END
$$$$
