NME.pdb
     RDKit          3D

 26 25  0  0  1  0  0  0  0  0999 V2000
   19.8472  -20.0353  -15.4841 N   0  0  0  0  0  0  0  0  0  0  0  0
   20.3444  -20.7899  -14.3652 C   0  0  0  0  0  0  0  0  0  0  0  0
   21.4238  -20.4470  -13.8445 O   0  0  0  0  0  0  0  0  0  0  0  0
   19.5299  -21.9294  -13.9106 C   0  0  0  0  0  0  0  0  0  0  0  0
   20.2490  -23.2202  -13.8103 C   0  0  2  0  0  0  0  0  0  0  0  0
   20.4989  -23.6617  -15.2037 N   0  0  0  0  0  0  0  0  0  0  0  0
   19.5567  -24.3225  -13.1481 C   0  0  0  0  0  0  0  0  0  0  0  0
   18.3230  -24.4526  -13.2651 O   0  0  0  0  0  0  0  0  0  0  0  0
   22.3465  -30.0235  -10.0941 C   0  0  0  0  0  0  0  0  0  0  0  0
   20.6108  -30.0356  -10.6042 S   0  0  0  0  0  0  0  0  0  0  0  0
   19.8022  -28.4632  -10.3237 C   0  0  0  0  0  0  0  0  0  0  0  0
   20.5077  -27.2935  -10.9569 C   0  0  0  0  0  0  0  0  0  0  0  0
   19.5779  -26.3507  -11.6376 C   0  0  2  0  0  0  0  0  0  0  0  0
   20.2663  -25.2869  -12.3434 N   0  0  0  0  0  0  0  0  0  0  0  0
   18.7378  -25.6990  -10.5959 C   0  0  0  0  0  0  0  0  0  0  0  0
   19.2156  -24.7894   -9.8491 O   0  0  0  0  0  0  0  0  0  0  0  0
   17.3886  -26.1026  -10.4410 N   0  0  0  0  0  0  0  0  0  0  0  0
   16.5627  -25.4226   -9.4726 C   0  0  1  0  0  0  0  0  0  0  0  0
   15.1435  -25.2492   -9.9690 C   0  0  0  0  0  0  0  0  0  0  0  0
   14.2513  -24.6077   -8.9370 C   0  0  0  0  0  0  0  0  0  0  0  0
   12.8849  -24.4265   -9.4622 C   0  0  0  0  0  0  0  0  0  0  0  0
   11.9655  -24.0646   -8.7050 O   0  0  0  0  0  0  0  0  0  0  0  0
   16.6314  -26.1543   -8.1995 C   0  0  0  0  0  0  0  0  0  0  0  0
   16.9404  -27.5005   -8.1908 O   0  0  0  0  0  0  0  0  0  0  0  0
   12.6204  -24.6570  -10.7929 O   0  0  0  0  0  0  0  0  0  0  0  0
   16.4177  -25.6004   -7.0989 O   0  0  0  0  0  0  0  0  0  0  0  0
  2  1  1  0
  3  2  2  0
  4  2  1  0
  5  4  1  0
  5  6  1  6
  7  5  1  0
  7  8  2  0
  9 10  1  0
 11 12  1  0
 11 10  1  0
 13 14  1  0
 13 12  1  1
 14  7  1  0
 15 13  1  0
 16 15  2  0
 17 15  1  0
 18 17  1  0
 19 20  1  0
 18 19  1  6
 20 21  1  0
 21 25  1  0
 21 22  2  0
 23 18  1  0
 23 24  1  0
 26 23  2  0
M  END
$$$$
