NME.pdb
     RDKit          3D

 26 25  0  0  1  0  0  0  0  0999 V2000
   27.1736  -18.4599  -17.3411 N   0  0  0  0  0  0  0  0  0  0  0  0
   27.6740  -18.5471  -15.9956 C   0  0  0  0  0  0  0  0  0  0  0  0
   28.7895  -18.0535  -15.7390 O   0  0  0  0  0  0  0  0  0  0  0  0
   26.8193  -19.2236  -15.0055 C   0  0  0  0  0  0  0  0  0  0  0  0
   27.4405  -20.3796  -14.3191 C   0  0  2  0  0  0  0  0  0  0  0  0
   27.5424  -21.4553  -15.3347 N   0  0  0  0  0  0  0  0  0  0  0  0
   26.7191  -20.9518  -13.1855 C   0  0  0  0  0  0  0  0  0  0  0  0
   25.8007  -21.7728  -13.3728 O   0  0  0  0  0  0  0  0  0  0  0  0
   28.0825  -19.6365   -6.7363 C   0  0  0  0  0  0  0  0  0  0  0  0
   26.3895  -20.2697   -6.6598 S   0  0  0  0  0  0  0  0  0  0  0  0
   25.8007  -20.8476   -8.2487 C   0  0  0  0  0  0  0  0  0  0  0  0
   26.6807  -20.4534   -9.4049 C   0  0  0  0  0  0  0  0  0  0  0  0
   26.1591  -20.9183  -10.7196 C   0  0  2  0  0  0  0  0  0  0  0  0
   27.0381  -20.5907  -11.8258 N   0  0  0  0  0  0  0  0  0  0  0  0
   24.8697  -20.2205  -10.9769 C   0  0  0  0  0  0  0  0  0  0  0  0
   24.8369  -18.9673  -11.1813 O   0  0  0  0  0  0  0  0  0  0  0  0
   23.6673  -20.9696  -10.9934 N   0  0  0  0  0  0  0  0  0  0  0  0
   22.5132  -20.4238  -11.6662 C   0  0  1  0  0  0  0  0  0  0  0  0
   22.5700  -20.6620  -13.1597 C   0  0  0  0  0  0  0  0  0  0  0  0
   21.3068  -20.2249  -13.8568 C   0  0  0  0  0  0  0  0  0  0  0  0
   21.3634  -20.5418  -15.2962 C   0  0  0  0  0  0  0  0  0  0  0  0
   20.4735  -20.1309  -16.0637 O   0  0  0  0  0  0  0  0  0  0  0  0
   21.3015  -20.9828  -11.0498 C   0  0  0  0  0  0  0  0  0  0  0  0
   20.0764  -20.3809  -11.2617 O   0  0  0  0  0  0  0  0  0  0  0  0
   22.4012  -21.2938  -15.7974 O   0  0  0  0  0  0  0  0  0  0  0  0
   21.3302  -22.0017  -10.3255 O   0  0  0  0  0  0  0  0  0  0  0  0
  2  1  1  0
  3  2  2  0
  4  2  1  0
  5  4  1  0
  5  6  1  6
  7  5  1  0
  7  8  2  0
  9 10  1  0
 11 12  1  0
 11 10  1  0
 13 14  1  0
 13 12  1  1
 14  7  1  0
 15 13  1  0
 16 15  2  0
 17 15  1  0
 18 17  1  0
 19 20  1  0
 18 19  1  6
 20 21  1  0
 21 25  1  0
 21 22  2  0
 23 18  1  0
 23 24  1  0
 26 23  2  0
M  END
$$$$
