NME.pdb
     RDKit          3D

 26 25  0  0  1  0  0  0  0  0999 V2000
   18.7848  -18.8329  -16.5040 N   0  0  0  0  0  0  0  0  0  0  0  0
   18.9528  -18.4081  -15.1402 C   0  0  0  0  0  0  0  0  0  0  0  0
   18.3175  -19.0010  -14.2464 O   0  0  0  0  0  0  0  0  0  0  0  0
   19.8761  -17.2872  -14.8965 C   0  0  0  0  0  0  0  0  0  0  0  0
   20.4594  -16.6731  -16.1114 C   0  0  2  0  0  0  0  0  0  0  0  0
   21.2437  -17.7414  -16.7767 N   0  0  0  0  0  0  0  0  0  0  0  0
   21.3736  -15.5504  -15.9210 C   0  0  0  0  0  0  0  0  0  0  0  0
   21.1571  -14.7055  -15.0311 O   0  0  0  0  0  0  0  0  0  0  0  0
   27.7851  -12.4587  -14.9230 C   0  0  0  0  0  0  0  0  0  0  0  0
   26.5873  -13.7475  -15.3442 S   0  0  0  0  0  0  0  0  0  0  0  0
   25.8180  -13.4749  -16.9376 C   0  0  0  0  0  0  0  0  0  0  0  0
   24.7636  -14.4912  -17.2871 C   0  0  0  0  0  0  0  0  0  0  0  0
   23.5138  -14.3309  -16.4941 C   0  0  2  0  0  0  0  0  0  0  0  0
   22.5442  -15.3797  -16.7466 N   0  0  0  0  0  0  0  0  0  0  0  0
   22.8726  -13.0497  -16.8981 C   0  0  0  0  0  0  0  0  0  0  0  0
   22.1933  -12.9705  -17.9684 O   0  0  0  0  0  0  0  0  0  0  0  0
   23.0252  -11.9080  -16.0732 N   0  0  0  0  0  0  0  0  0  0  0  0
   22.3674  -10.6803  -16.4508 C   0  0  1  0  0  0  0  0  0  0  0  0
   22.2727   -9.7147  -15.2893 C   0  0  0  0  0  0  0  0  0  0  0  0
   21.4974   -8.4707  -15.6418 C   0  0  0  0  0  0  0  0  0  0  0  0
   21.4569   -7.5352  -14.5021 C   0  0  0  0  0  0  0  0  0  0  0  0
   21.9516   -7.8601  -13.4069 O   0  0  0  0  0  0  0  0  0  0  0  0
   23.0701  -10.1068  -17.6075 C   0  0  0  0  0  0  0  0  0  0  0  0
   24.4508  -10.0765  -17.6333 O   0  0  0  0  0  0  0  0  0  0  0  0
   20.8716   -6.2980  -14.6448 O   0  0  0  0  0  0  0  0  0  0  0  0
   22.4604   -9.6341  -18.5917 O   0  0  0  0  0  0  0  0  0  0  0  0
  2  1  1  0
  3  2  2  0
  4  2  1  0
  5  4  1  0
  5  6  1  1
  7  5  1  0
  7  8  2  0
  9 10  1  0
 11 12  1  0
 11 10  1  0
 13 14  1  0
 13 12  1  6
 14  7  1  0
 15 13  1  0
 16 15  2  0
 17 15  1  0
 18 17  1  0
 19 20  1  0
 18 19  1  1
 20 21  1  0
 21 25  1  0
 21 22  2  0
 23 18  1  0
 23 24  1  0
 26 23  2  0
M  END
$$$$
