NME.pdb
     RDKit          3D

 26 25  0  0  1  0  0  0  0  0999 V2000
   19.0583  -15.1102  -19.7596 N   0  0  0  0  0  0  0  0  0  0  0  0
   19.4266  -15.5301  -18.4343 C   0  0  0  0  0  0  0  0  0  0  0  0
   18.8104  -16.4812  -17.9151 O   0  0  0  0  0  0  0  0  0  0  0  0
   20.5203  -14.7942  -17.7781 C   0  0  0  0  0  0  0  0  0  0  0  0
   21.0456  -13.6348  -18.5352 C   0  0  2  0  0  0  0  0  0  0  0  0
   21.7682  -14.1979  -19.7014 N   0  0  0  0  0  0  0  0  0  0  0  0
   21.9924  -12.7602  -17.8486 C   0  0  0  0  0  0  0  0  0  0  0  0
   21.6880  -12.2318  -16.7620 O   0  0  0  0  0  0  0  0  0  0  0  0
   28.4104  -11.1735  -14.8763 C   0  0  0  0  0  0  0  0  0  0  0  0
   27.1940  -12.0937  -15.8493 S   0  0  0  0  0  0  0  0  0  0  0  0
   26.7246  -11.2363  -17.3491 C   0  0  0  0  0  0  0  0  0  0  0  0
   25.6791  -11.9546  -18.1601 C   0  0  0  0  0  0  0  0  0  0  0  0
   24.2962  -11.7356  -17.6538 C   0  0  2  0  0  0  0  0  0  0  0  0
   23.2965  -12.4784  -18.3971 N   0  0  0  0  0  0  0  0  0  0  0  0
   23.9679  -10.2932  -17.8192 C   0  0  0  0  0  0  0  0  0  0  0  0
   23.6574   -9.8223  -18.9573 O   0  0  0  0  0  0  0  0  0  0  0  0
   24.0031   -9.4401  -16.6886 N   0  0  0  0  0  0  0  0  0  0  0  0
   23.6866   -8.0424  -16.8577 C   0  0  1  0  0  0  0  0  0  0  0  0
   22.9873   -7.4746  -15.6415 C   0  0  0  0  0  0  0  0  0  0  0  0
   22.6263   -6.0214  -15.8161 C   0  0  0  0  0  0  0  0  0  0  0  0
   21.9648   -5.4946  -14.6077 C   0  0  0  0  0  0  0  0  0  0  0  0
   20.7804   -5.1143  -14.6570 O   0  0  0  0  0  0  0  0  0  0  0  0
   24.9214   -7.3176  -17.1902 C   0  0  0  0  0  0  0  0  0  0  0  0
   24.8933   -6.2886  -18.1113 O   0  0  0  0  0  0  0  0  0  0  0  0
   22.6547   -5.4210  -13.4192 O   0  0  0  0  0  0  0  0  0  0  0  0
   26.0214   -7.5968  -16.6650 O   0  0  0  0  0  0  0  0  0  0  0  0
  2  1  1  0
  3  2  2  0
  4  2  1  0
  5  4  1  0
  5  6  1  6
  7  5  1  0
  7  8  2  0
  9 10  1  0
 11 12  1  0
 11 10  1  0
 13 14  1  0
 13 12  1  6
 14  7  1  0
 15 13  1  0
 16 15  2  0
 17 15  1  0
 18 17  1  0
 19 20  1  0
 18 19  1  1
 20 21  1  0
 21 25  1  0
 21 22  2  0
 23 18  1  0
 23 24  1  0
 26 23  2  0
M  END
$$$$
