NME.pdb
     RDKit          3D

 26 25  0  0  1  0  0  0  0  0999 V2000
   27.1865  -19.8912  -18.9108 N   0  0  0  0  0  0  0  0  0  0  0  0
   27.5257  -19.6697  -17.5309 C   0  0  0  0  0  0  0  0  0  0  0  0
   28.6096  -19.1153  -17.2627 O   0  0  0  0  0  0  0  0  0  0  0  0
   26.5536  -20.1212  -16.5212 C   0  0  0  0  0  0  0  0  0  0  0  0
   27.0670  -21.1129  -15.5484 C   0  0  2  0  0  0  0  0  0  0  0  0
   27.2116  -22.3857  -16.2955 N   0  0  0  0  0  0  0  0  0  0  0  0
   26.2294  -21.4097  -14.3896 C   0  0  0  0  0  0  0  0  0  0  0  0
   25.3505  -22.2904  -14.4565 O   0  0  0  0  0  0  0  0  0  0  0  0
   26.7596  -19.9557   -7.3029 C   0  0  0  0  0  0  0  0  0  0  0  0
   25.7368  -21.1371   -8.2146 S   0  0  0  0  0  0  0  0  0  0  0  0
   24.9487  -20.4023   -9.6443 C   0  0  0  0  0  0  0  0  0  0  0  0
   25.8817  -20.1713  -10.8031 C   0  0  0  0  0  0  0  0  0  0  0  0
   25.4447  -20.8582  -12.0495 C   0  0  2  0  0  0  0  0  0  0  0  0
   26.3856  -20.7020  -13.1423 N   0  0  0  0  0  0  0  0  0  0  0  0
   24.1665  -20.2380  -12.4938 C   0  0  0  0  0  0  0  0  0  0  0  0
   24.1376  -19.0437  -12.9252 O   0  0  0  0  0  0  0  0  0  0  0  0
   22.9707  -20.9953  -12.4330 N   0  0  0  0  0  0  0  0  0  0  0  0
   21.7120  -20.3349  -12.6818 C   0  0  1  0  0  0  0  0  0  0  0  0
   21.1271  -20.7288  -14.0209 C   0  0  0  0  0  0  0  0  0  0  0  0
   22.1810  -21.2079  -14.9864 C   0  0  0  0  0  0  0  0  0  0  0  0
   21.5758  -21.6062  -16.2712 C   0  0  0  0  0  0  0  0  0  0  0  0
   21.3995  -22.8101  -16.5342 O   0  0  0  0  0  0  0  0  0  0  0  0
   20.8029  -20.6180  -11.5619 C   0  0  0  0  0  0  0  0  0  0  0  0
   19.6190  -19.9174  -11.4373 O   0  0  0  0  0  0  0  0  0  0  0  0
   21.2031  -20.6477  -17.1855 O   0  0  0  0  0  0  0  0  0  0  0  0
   21.0587  -21.4843  -10.6971 O   0  0  0  0  0  0  0  0  0  0  0  0
  2  1  1  0
  3  2  2  0
  4  2  1  0
  5  4  1  0
  5  6  1  6
  7  5  1  0
  7  8  2  0
  9 10  1  0
 11 12  1  0
 11 10  1  0
 13 14  1  0
 13 12  1  1
 14  7  1  0
 15 13  1  0
 16 15  2  0
 17 15  1  0
 18 17  1  0
 19 20  1  0
 18 19  1  6
 20 21  1  0
 21 25  1  0
 21 22  2  0
 23 18  1  0
 23 24  1  0
 26 23  2  0
M  END
$$$$
