NME.pdb
     RDKit          3D

 26 25  0  0  1  0  0  0  0  0999 V2000
   17.5989  -13.2850  -18.7834 N   0  0  0  0  0  0  0  0  0  0  0  0
   17.3559  -13.1271  -17.3747 C   0  0  0  0  0  0  0  0  0  0  0  0
   16.2742  -13.5314  -16.9050 O   0  0  0  0  0  0  0  0  0  0  0  0
   18.4183  -12.4896  -16.5789 C   0  0  0  0  0  0  0  0  0  0  0  0
   19.7451  -13.1431  -16.6569 C   0  0  2  0  0  0  0  0  0  0  0  0
   19.6106  -14.4346  -15.9407 N   0  0  0  0  0  0  0  0  0  0  0  0
   20.8714  -12.4471  -16.0409 C   0  0  0  0  0  0  0  0  0  0  0  0
   20.8272  -12.1162  -14.8404 O   0  0  0  0  0  0  0  0  0  0  0  0
   28.6121  -11.2016  -15.4322 C   0  0  0  0  0  0  0  0  0  0  0  0
   27.2543  -11.9904  -16.3306 S   0  0  0  0  0  0  0  0  0  0  0  0
   25.6569  -11.3080  -15.8974 C   0  0  0  0  0  0  0  0  0  0  0  0
   24.4967  -12.0088  -16.5527 C   0  0  0  0  0  0  0  0  0  0  0  0
   23.1785  -11.4215  -16.1866 C   0  0  2  0  0  0  0  0  0  0  0  0
   22.0598  -12.1199  -16.7903 N   0  0  0  0  0  0  0  0  0  0  0  0
   23.1377  -10.0247  -16.6994 C   0  0  0  0  0  0  0  0  0  0  0  0
   22.9983   -9.7902  -17.9399 O   0  0  0  0  0  0  0  0  0  0  0  0
   23.2555   -8.9475  -15.7867 N   0  0  0  0  0  0  0  0  0  0  0  0
   23.1582   -7.5964  -16.2841 C   0  0  1  0  0  0  0  0  0  0  0  0
   22.6866   -6.6370  -15.2129 C   0  0  0  0  0  0  0  0  0  0  0  0
   22.5749   -5.2223  -15.7215 C   0  0  0  0  0  0  0  0  0  0  0  0
   22.0405   -4.3282  -14.6771 C   0  0  0  0  0  0  0  0  0  0  0  0
   21.9266   -4.7317  -13.5050 O   0  0  0  0  0  0  0  0  0  0  0  0
   24.4562   -7.2115  -16.8568 C   0  0  0  0  0  0  0  0  0  0  0  0
   24.5090   -6.5439  -18.0649 O   0  0  0  0  0  0  0  0  0  0  0  0
   21.6653   -3.0428  -14.9943 O   0  0  0  0  0  0  0  0  0  0  0  0
   25.5395   -7.4672  -16.2868 O   0  0  0  0  0  0  0  0  0  0  0  0
  2  1  1  0
  3  2  2  0
  4  2  1  0
  5  4  1  0
  5  6  1  1
  7  5  1  0
  7  8  2  0
  9 10  1  0
 11 12  1  0
 11 10  1  0
 13 14  1  0
 13 12  1  6
 14  7  1  0
 15 13  1  0
 16 15  2  0
 17 15  1  0
 18 17  1  0
 19 20  1  0
 18 19  1  1
 20 21  1  0
 21 25  1  0
 21 22  2  0
 23 18  1  0
 23 24  1  0
 26 23  2  0
M  END
$$$$
