NME.pdb
     RDKit          3D

 26 25  0  0  1  0  0  0  0  0999 V2000
   28.1603  -23.4175  -18.6534 N   0  0  0  0  0  0  0  0  0  0  0  0
   26.8529  -22.8858  -18.9294 C   0  0  0  0  0  0  0  0  0  0  0  0
   26.5883  -22.5212  -20.0918 O   0  0  0  0  0  0  0  0  0  0  0  0
   25.9090  -22.8094  -17.8018 C   0  0  0  0  0  0  0  0  0  0  0  0
   26.4609  -23.2101  -16.4872 C   0  0  2  0  0  0  0  0  0  0  0  0
   26.4456  -24.6928  -16.4689 N   0  0  0  0  0  0  0  0  0  0  0  0
   25.7351  -22.7771  -15.2962 C   0  0  0  0  0  0  0  0  0  0  0  0
   24.5764  -23.1826  -15.0824 O   0  0  0  0  0  0  0  0  0  0  0  0
   24.3403  -20.8989   -8.4637 C   0  0  0  0  0  0  0  0  0  0  0  0
   25.2500  -21.4742   -9.9179 S   0  0  0  0  0  0  0  0  0  0  0  0
   25.6912  -20.1375  -11.0242 C   0  0  0  0  0  0  0  0  0  0  0  0
   26.4323  -20.5853  -12.2559 C   0  0  0  0  0  0  0  0  0  0  0  0
   25.6043  -21.4304  -13.1596 C   0  0  2  0  0  0  0  0  0  0  0  0
   26.3245  -21.8745  -14.3376 N   0  0  0  0  0  0  0  0  0  0  0  0
   24.4617  -20.6073  -13.6420 C   0  0  0  0  0  0  0  0  0  0  0  0
   24.6608  -19.5252  -14.2768 O   0  0  0  0  0  0  0  0  0  0  0  0
   23.1377  -21.0423  -13.3874 N   0  0  0  0  0  0  0  0  0  0  0  0
   22.0358  -20.2133  -13.8128 C   0  0  1  0  0  0  0  0  0  0  0  0
   21.4074  -20.7277  -15.0899 C   0  0  0  0  0  0  0  0  0  0  0  0
   22.2363  -20.4024  -16.3063 C   0  0  0  0  0  0  0  0  0  0  0  0
   21.5315  -20.7902  -17.5426 C   0  0  0  0  0  0  0  0  0  0  0  0
   20.4007  -21.3074  -17.4833 O   0  0  0  0  0  0  0  0  0  0  0  0
   21.0708  -20.1108  -12.7087 C   0  0  0  0  0  0  0  0  0  0  0  0
   21.2043  -20.9177  -11.5956 O   0  0  0  0  0  0  0  0  0  0  0  0
   22.1215  -20.5817  -18.7682 O   0  0  0  0  0  0  0  0  0  0  0  0
   20.1124  -19.3078  -12.7323 O   0  0  0  0  0  0  0  0  0  0  0  0
  2  1  1  0
  3  2  2  0
  4  2  1  0
  5  4  1  0
  5  6  1  6
  7  5  1  0
  7  8  2  0
  9 10  1  0
 11 12  1  0
 11 10  1  0
 13 14  1  0
 13 12  1  1
 14  7  1  0
 15 13  1  0
 16 15  2  0
 17 15  1  0
 18 17  1  0
 19 20  1  0
 18 19  1  6
 20 21  1  0
 21 25  1  0
 21 22  2  0
 23 18  1  0
 23 24  1  0
 26 23  2  0
M  END
$$$$
