NME.pdb
     RDKit          3D

 26 25  0  0  1  0  0  0  0  0999 V2000
   30.1672  -22.7806  -17.8093 N   0  0  0  0  0  0  0  0  0  0  0  0
   28.7611  -22.5449  -17.9986 C   0  0  0  0  0  0  0  0  0  0  0  0
   28.3750  -22.0691  -19.0842 O   0  0  0  0  0  0  0  0  0  0  0  0
   27.8677  -22.8876  -16.8793 C   0  0  0  0  0  0  0  0  0  0  0  0
   26.8850  -21.8423  -16.5121 C   0  0  2  0  0  0  0  0  0  0  0  0
   27.6710  -20.6131  -16.2470 N   0  0  0  0  0  0  0  0  0  0  0  0
   26.0731  -22.0756  -15.3208 C   0  0  0  0  0  0  0  0  0  0  0  0
   25.3659  -23.0975  -15.2306 O   0  0  0  0  0  0  0  0  0  0  0  0
   24.5731  -20.5638   -7.6654 C   0  0  0  0  0  0  0  0  0  0  0  0
   25.6078  -20.2384   -9.1133 S   0  0  0  0  0  0  0  0  0  0  0  0
   24.8643  -20.8228  -10.6334 C   0  0  0  0  0  0  0  0  0  0  0  0
   25.7201  -20.6066  -11.8530 C   0  0  0  0  0  0  0  0  0  0  0  0
   25.2371  -21.3569  -13.0448 C   0  0  2  0  0  0  0  0  0  0  0  0
   26.0590  -21.1428  -14.2205 N   0  0  0  0  0  0  0  0  0  0  0  0
   23.8739  -20.8618  -13.3800 C   0  0  0  0  0  0  0  0  0  0  0  0
   23.7107  -19.7360  -13.9451 O   0  0  0  0  0  0  0  0  0  0  0  0
   22.7484  -21.6616  -13.0627 N   0  0  0  0  0  0  0  0  0  0  0  0
   21.4348  -21.2020  -13.4441 C   0  0  1  0  0  0  0  0  0  0  0  0
   20.4181  -22.3228  -13.4149 C   0  0  0  0  0  0  0  0  0  0  0  0
   19.0020  -21.8124  -13.4971 C   0  0  0  0  0  0  0  0  0  0  0  0
   18.0357  -22.9213  -13.3868 C   0  0  0  0  0  0  0  0  0  0  0  0
   16.8127  -22.6937  -13.4340 O   0  0  0  0  0  0  0  0  0  0  0  0
   21.0604  -20.0758  -12.5769 C   0  0  0  0  0  0  0  0  0  0  0  0
   20.2652  -19.0587  -13.0680 O   0  0  0  0  0  0  0  0  0  0  0  0
   18.4824  -24.2136  -13.2309 O   0  0  0  0  0  0  0  0  0  0  0  0
   21.4380  -19.9948  -11.3875 O   0  0  0  0  0  0  0  0  0  0  0  0
  2  1  1  0
  3  2  2  0
  4  2  1  0
  5  4  1  0
  5  6  1  1
  7  5  1  0
  7  8  2  0
  9 10  1  0
 11 12  1  0
 11 10  1  0
 13 14  1  0
 13 12  1  1
 14  7  1  0
 15 13  1  0
 16 15  2  0
 17 15  1  0
 18 17  1  0
 19 20  1  0
 18 19  1  1
 20 21  1  0
 21 25  1  0
 21 22  2  0
 23 18  1  0
 23 24  1  0
 26 23  2  0
M  END
$$$$
