NME.pdb
     RDKit          3D

 26 25  0  0  1  0  0  0  0  0999 V2000
   26.0728  -31.9132   -8.8719 N   0  0  0  0  0  0  0  0  0  0  0  0
   25.4714  -32.1803   -7.5931 C   0  0  0  0  0  0  0  0  0  0  0  0
   24.4868  -31.5015   -7.2414 O   0  0  0  0  0  0  0  0  0  0  0  0
   26.0722  -33.2517   -6.7808 C   0  0  0  0  0  0  0  0  0  0  0  0
   27.3024  -33.8560   -7.3419 C   0  0  2  0  0  0  0  0  0  0  0  0
   26.8523  -34.8364   -8.3594 N   0  0  0  0  0  0  0  0  0  0  0  0
   28.1687  -34.5876   -6.4216 C   0  0  0  0  0  0  0  0  0  0  0  0
   27.8475  -35.7235   -6.0225 O   0  0  0  0  0  0  0  0  0  0  0  0
   34.1073  -33.3834   -7.7482 C   0  0  0  0  0  0  0  0  0  0  0  0
   34.0830  -34.7591   -6.5734 S   0  0  0  0  0  0  0  0  0  0  0  0
   32.4211  -35.2947   -6.1783 C   0  0  0  0  0  0  0  0  0  0  0  0
   31.7122  -34.4049   -5.1922 C   0  0  0  0  0  0  0  0  0  0  0  0
   30.2727  -34.7476   -5.0276 C   0  0  2  0  0  0  0  0  0  0  0  0
   29.4105  -34.0285   -5.9459 N   0  0  0  0  0  0  0  0  0  0  0  0
   29.8588  -34.3518   -3.6537 C   0  0  0  0  0  0  0  0  0  0  0  0
   29.2070  -33.2802   -3.4532 O   0  0  0  0  0  0  0  0  0  0  0  0
   30.1986  -35.1859   -2.5600 N   0  0  0  0  0  0  0  0  0  0  0  0
   29.4487  -35.0689   -1.3327 C   0  0  1  0  0  0  0  0  0  0  0  0
   27.9705  -35.3067   -1.5538 C   0  0  0  0  0  0  0  0  0  0  0  0
   27.1800  -35.2226   -0.2729 C   0  0  0  0  0  0  0  0  0  0  0  0
   25.7522  -35.5012   -0.5164 C   0  0  0  0  0  0  0  0  0  0  0  0
   25.4144  -36.3369   -1.3749 O   0  0  0  0  0  0  0  0  0  0  0  0
   30.0268  -35.9852   -0.3392 C   0  0  0  0  0  0  0  0  0  0  0  0
   29.8984  -35.7146    1.0092 O   0  0  0  0  0  0  0  0  0  0  0  0
   24.7864  -34.8377    0.2053 O   0  0  0  0  0  0  0  0  0  0  0  0
   30.6438  -37.0223   -0.6671 O   0  0  0  0  0  0  0  0  0  0  0  0
  2  1  1  0
  3  2  2  0
  4  2  1  0
  5  4  1  0
  5  6  1  6
  7  5  1  0
  7  8  2  0
  9 10  1  0
 11 12  1  0
 11 10  1  0
 13 14  1  0
 13 12  1  6
 14  7  1  0
 15 13  1  0
 16 15  2  0
 17 15  1  0
 18 17  1  0
 19 20  1  0
 18 19  1  6
 20 21  1  0
 21 25  1  0
 21 22  2  0
 23 18  1  0
 23 24  1  0
 26 23  2  0
M  END
$$$$
