NME.pdb
     RDKit          3D

 26 25  0  0  1  0  0  0  0  0999 V2000
   20.1233  -14.6541  -20.1633 N   0  0  0  0  0  0  0  0  0  0  0  0
   19.8483  -13.2679  -20.4299 C   0  0  0  0  0  0  0  0  0  0  0  0
   19.3162  -12.9613  -21.5147 O   0  0  0  0  0  0  0  0  0  0  0  0
   20.2214  -12.2981  -19.3865 C   0  0  0  0  0  0  0  0  0  0  0  0
   20.9546  -12.8639  -18.2307 C   0  0  2  0  0  0  0  0  0  0  0  0
   19.9367  -13.5326  -17.3848 N   0  0  0  0  0  0  0  0  0  0  0  0
   21.6597  -11.9262  -17.3611 C   0  0  0  0  0  0  0  0  0  0  0  0
   21.0385  -11.2820  -16.4941 O   0  0  0  0  0  0  0  0  0  0  0  0
   28.3788  -11.4081  -16.9419 C   0  0  0  0  0  0  0  0  0  0  0  0
   27.7581  -10.7064  -15.3942 S   0  0  0  0  0  0  0  0  0  0  0  0
   25.9973  -10.3865  -15.4432 C   0  0  0  0  0  0  0  0  0  0  0  0
   25.2636  -11.1756  -16.4947 C   0  0  0  0  0  0  0  0  0  0  0  0
   23.8070  -10.8711  -16.5417 C   0  0  2  0  0  0  0  0  0  0  0  0
   23.0819  -11.7130  -17.4740 N   0  0  0  0  0  0  0  0  0  0  0  0
   23.6441   -9.4694  -17.0156 C   0  0  0  0  0  0  0  0  0  0  0  0
   23.6583   -9.1954  -18.2558 O   0  0  0  0  0  0  0  0  0  0  0  0
   23.4705   -8.4324  -16.0660 N   0  0  0  0  0  0  0  0  0  0  0  0
   23.1752   -7.0994  -16.5332 C   0  0  1  0  0  0  0  0  0  0  0  0
   22.2621   -6.3602  -15.5791 C   0  0  0  0  0  0  0  0  0  0  0  0
   21.9229   -4.9756  -16.0696 C   0  0  0  0  0  0  0  0  0  0  0  0
   21.0582   -4.2722  -15.1037 C   0  0  0  0  0  0  0  0  0  0  0  0
   21.3580   -3.1298  -14.7104 O   0  0  0  0  0  0  0  0  0  0  0  0
   24.4421   -6.3915  -16.7667 C   0  0  0  0  0  0  0  0  0  0  0  0
   24.5174   -5.4081  -17.7339 O   0  0  0  0  0  0  0  0  0  0  0  0
   19.9150   -4.8764  -14.6326 O   0  0  0  0  0  0  0  0  0  0  0  0
   25.4785   -6.6451  -16.1146 O   0  0  0  0  0  0  0  0  0  0  0  0
  2  1  1  0
  3  2  2  0
  4  2  1  0
  5  4  1  0
  5  6  1  1
  7  5  1  0
  7  8  2  0
  9 10  1  0
 11 12  1  0
 11 10  1  0
 13 14  1  0
 13 12  1  6
 14  7  1  0
 15 13  1  0
 16 15  2  0
 17 15  1  0
 18 17  1  0
 19 20  1  0
 18 19  1  1
 20 21  1  0
 21 25  1  0
 21 22  2  0
 23 18  1  0
 23 24  1  0
 26 23  2  0
M  END
$$$$
