NME.pdb
     RDKit          3D

 26 25  0  0  1  0  0  0  0  0999 V2000
   31.8831  -35.0119   -6.7136 N   0  0  0  0  0  0  0  0  0  0  0  0
   30.6063  -35.5622   -7.0815 C   0  0  0  0  0  0  0  0  0  0  0  0
   30.4618  -36.0219   -8.2313 O   0  0  0  0  0  0  0  0  0  0  0  0
   29.5478  -35.5416   -6.0581 C   0  0  0  0  0  0  0  0  0  0  0  0
   29.9031  -34.8547   -4.7950 C   0  0  2  0  0  0  0  0  0  0  0  0
   30.4550  -33.5348   -5.1853 N   0  0  0  0  0  0  0  0  0  0  0  0
   30.9114  -35.4878   -3.9494 C   0  0  0  0  0  0  0  0  0  0  0  0
   30.7356  -36.6429   -3.5165 O   0  0  0  0  0  0  0  0  0  0  0  0
   38.3902  -35.4398   -1.1265 C   0  0  0  0  0  0  0  0  0  0  0  0
   37.1529  -34.6520   -2.1855 S   0  0  0  0  0  0  0  0  0  0  0  0
   35.5559  -35.4554   -2.0895 C   0  0  0  0  0  0  0  0  0  0  0  0
   34.4806  -34.7719   -2.8914 C   0  0  0  0  0  0  0  0  0  0  0  0
   33.1580  -35.4478   -2.7888 C   0  0  2  0  0  0  0  0  0  0  0  0
   32.1308  -34.8071   -3.5875 N   0  0  0  0  0  0  0  0  0  0  0  0
   32.7089  -35.3693   -1.3718 C   0  0  0  0  0  0  0  0  0  0  0  0
   32.0869  -34.3489   -0.9414 O   0  0  0  0  0  0  0  0  0  0  0  0
   32.9811  -36.4503   -0.4974 N   0  0  0  0  0  0  0  0  0  0  0  0
   32.5394  -36.3680    0.8739 C   0  0  1  0  0  0  0  0  0  0  0  0
   31.7384  -37.5865    1.2792 C   0  0  0  0  0  0  0  0  0  0  0  0
   31.2985  -37.5283    2.7199 C   0  0  0  0  0  0  0  0  0  0  0  0
   30.5082  -38.7212    3.0775 C   0  0  0  0  0  0  0  0  0  0  0  0
   31.0650  -39.7137    3.5820 O   0  0  0  0  0  0  0  0  0  0  0  0
   33.7118  -36.1501    1.7334 C   0  0  0  0  0  0  0  0  0  0  0  0
   33.5938  -35.4022    2.8886 O   0  0  0  0  0  0  0  0  0  0  0  0
   29.1503  -38.7421    2.8546 O   0  0  0  0  0  0  0  0  0  0  0  0
   34.8371  -36.6219    1.4596 O   0  0  0  0  0  0  0  0  0  0  0  0
  2  1  1  0
  3  2  2  0
  4  2  1  0
  5  4  1  0
  5  6  1  6
  7  5  1  0
  7  8  2  0
  9 10  1  0
 11 12  1  0
 11 10  1  0
 13 14  1  0
 13 12  1  1
 14  7  1  0
 15 13  1  0
 16 15  2  0
 17 15  1  0
 18 17  1  0
 19 20  1  0
 18 19  1  1
 20 21  1  0
 21 25  1  0
 21 22  2  0
 23 18  1  0
 23 24  1  0
 26 23  2  0
M  END
$$$$
