TDS.pdb
     RDKit          3D

 22 21  0  0  1  0  0  0  0  0999 V2000
   15.7477  -11.4728  -14.2701 C   0  0  0  0  0  0  0  0  0  0  0  0
   16.6194  -10.3130  -14.6183 C   0  0  1  0  0  0  0  0  0  0  0  0
   17.9424  -10.7122  -14.4070 O   0  0  0  0  0  0  0  0  0  0  0  0
   16.4059   -9.8691  -16.0398 C   0  0  2  0  0  0  0  0  0  0  0  0
   16.7070  -10.9130  -16.9561 N   0  0  0  0  0  0  0  0  0  0  0  0
   17.2699   -8.6685  -16.3234 C   0  0  0  0  0  0  0  0  0  0  0  0
   18.0577   -8.6296  -17.3067 O   0  0  0  0  0  0  0  0  0  0  0  0
   17.1915   -7.5495  -15.4554 N   0  0  0  0  0  0  0  0  0  0  0  0
   17.9321   -6.3340  -15.8061 C   0  0  1  0  0  0  0  0  0  0  0  0
   17.0832   -5.1197  -15.5481 C   0  0  0  0  0  0  0  0  0  0  0  0
   17.7696   -3.8373  -15.7487 C   0  0  0  0  0  0  0  0  0  0  0  0
   17.7257   -2.9484  -14.8522 O   0  0  0  0  0  0  0  0  0  0  0  0
   19.2037   -6.3224  -15.0234 C   0  0  0  0  0  0  0  0  0  0  0  0
   19.1910   -6.5144  -13.8002 O   0  0  0  0  0  0  0  0  0  0  0  0
   18.4751   -3.5464  -16.8960 O   0  0  0  0  0  0  0  0  0  0  0  0
   24.0375   -6.4350  -15.3024 O   0  0  0  0  0  0  0  0  0  0  0  0
   22.8243   -6.2732  -15.9704 C   0  0  0  0  0  0  0  0  0  0  0  0
   21.7107   -6.1571  -14.9662 C   0  0  2  0  0  0  0  0  0  0  0  0
   20.4392   -6.0920  -15.6655 N   0  0  0  0  0  0  0  0  0  0  0  0
   21.8610   -4.9463  -14.1270 C   0  0  0  0  0  0  0  0  0  0  0  0
   21.4691   -3.8101  -14.5115 O   0  0  0  0  0  0  0  0  0  0  0  0
   22.4517   -5.0824  -12.8845 O   0  0  0  0  0  0  0  0  0  0  0  0
  2  1  1  6
  2  4  1  0
  3  2  1  0
  4  5  1  6
  4  6  1  0
  6  8  1  0
  7  6  2  0
  8  9  1  0
  9 13  1  0
 10 11  1  0
  9 10  1  1
 11 15  1  0
 12 11  2  0
 13 14  2  0
 13 19  1  0
 16 17  1  0
 18 17  1  6
 18 20  1  0
 19 18  1  0
 20 22  1  0
 21 20  2  0
M  END
$$$$
