TDS.pdb
     RDKit          3D

 22 21  0  0  1  0  0  0  0  0999 V2000
   13.1728   -5.8475   -9.5194 C   0  0  0  0  0  0  0  0  0  0  0  0
   13.9124   -5.5957   -8.2483 C   0  0  1  0  0  0  0  0  0  0  0  0
   13.0169   -4.9900   -7.3621 O   0  0  0  0  0  0  0  0  0  0  0  0
   14.4698   -6.8689   -7.6724 C   0  0  2  0  0  0  0  0  0  0  0  0
   15.1277   -6.6299   -6.4354 N   0  0  0  0  0  0  0  0  0  0  0  0
   15.4292   -7.4846   -8.6566 C   0  0  0  0  0  0  0  0  0  0  0  0
   16.6149   -7.0749   -8.7793 O   0  0  0  0  0  0  0  0  0  0  0  0
   14.9810   -8.5581   -9.4680 N   0  0  0  0  0  0  0  0  0  0  0  0
   15.9220   -9.1653  -10.4140 C   0  0  1  0  0  0  0  0  0  0  0  0
   15.4123  -10.5086  -10.8587 C   0  0  0  0  0  0  0  0  0  0  0  0
   16.2425  -11.1759  -11.8693 C   0  0  0  0  0  0  0  0  0  0  0  0
   17.4192  -10.7722  -12.0894 O   0  0  0  0  0  0  0  0  0  0  0  0
   16.1130   -8.2180  -11.5523 C   0  0  0  0  0  0  0  0  0  0  0  0
   15.1356   -7.7332  -12.1378 O   0  0  0  0  0  0  0  0  0  0  0  0
   15.7903  -12.2461  -12.6100 O   0  0  0  0  0  0  0  0  0  0  0  0
   18.9204   -5.0870  -13.7746 O   0  0  0  0  0  0  0  0  0  0  0  0
   18.6383   -5.9100  -12.6851 C   0  0  0  0  0  0  0  0  0  0  0  0
   17.6497   -6.9658  -13.0971 C   0  0  2  0  0  0  0  0  0  0  0  0
   17.4102   -7.8612  -11.9787 N   0  0  0  0  0  0  0  0  0  0  0  0
   18.1466   -7.7549  -14.2475 C   0  0  0  0  0  0  0  0  0  0  0  0
   18.8566   -8.7872  -14.0970 O   0  0  0  0  0  0  0  0  0  0  0  0
   17.8125   -7.3334  -15.5211 O   0  0  0  0  0  0  0  0  0  0  0  0
  2  1  1  6
  2  4  1  0
  3  2  1  0
  4  5  1  1
  4  6  1  0
  6  8  1  0
  7  6  2  0
  8  9  1  0
  9 13  1  0
 10 11  1  0
  9 10  1  6
 11 15  1  0
 12 11  2  0
 13 14  2  0
 13 19  1  0
 16 17  1  0
 18 17  1  1
 18 20  1  0
 19 18  1  0
 20 22  1  0
 21 20  2  0
M  END
$$$$
