TDS.pdb
     RDKit          3D

 22 21  0  0  1  0  0  0  0  0999 V2000
   18.3761  -12.4096  -17.8901 C   0  0  0  0  0  0  0  0  0  0  0  0
   17.5111  -11.7162  -16.8914 C   0  0  1  0  0  0  0  0  0  0  0  0
   16.4822  -12.5996  -16.5518 O   0  0  0  0  0  0  0  0  0  0  0  0
   18.2946  -11.3013  -15.6760 C   0  0  2  0  0  0  0  0  0  0  0  0
   17.6916  -11.7867  -14.4841 N   0  0  0  0  0  0  0  0  0  0  0  0
   18.3893   -9.7988  -15.6315 C   0  0  0  0  0  0  0  0  0  0  0  0
   18.9698   -9.1390  -16.5350 O   0  0  0  0  0  0  0  0  0  0  0  0
   17.8058   -9.1093  -14.5379 N   0  0  0  0  0  0  0  0  0  0  0  0
   17.9416   -7.6511  -14.4726 C   0  0  1  0  0  0  0  0  0  0  0  0
   16.7248   -7.0477  -13.8267 C   0  0  0  0  0  0  0  0  0  0  0  0
   15.5043   -7.1083  -14.6407 C   0  0  0  0  0  0  0  0  0  0  0  0
   14.4901   -7.7305  -14.2163 O   0  0  0  0  0  0  0  0  0  0  0  0
   19.2003   -7.3342  -13.7346 C   0  0  0  0  0  0  0  0  0  0  0  0
   19.6451   -8.1170  -12.8845 O   0  0  0  0  0  0  0  0  0  0  0  0
   15.4080   -6.5072  -15.8769 O   0  0  0  0  0  0  0  0  0  0  0  0
   23.4270   -6.7943  -14.5535 O   0  0  0  0  0  0  0  0  0  0  0  0
   22.0546   -7.0338  -14.6083 C   0  0  0  0  0  0  0  0  0  0  0  0
   21.3329   -6.0053  -13.7816 C   0  0  2  0  0  0  0  0  0  0  0  0
   19.9020   -6.1374  -13.9939 N   0  0  0  0  0  0  0  0  0  0  0  0
   21.7482   -4.6305  -14.1426 C   0  0  0  0  0  0  0  0  0  0  0  0
   21.1865   -3.9804  -15.0670 O   0  0  0  0  0  0  0  0  0  0  0  0
   22.7863   -4.0548  -13.4339 O   0  0  0  0  0  0  0  0  0  0  0  0
  2  1  1  6
  2  4  1  0
  3  2  1  0
  4  5  1  1
  4  6  1  0
  6  8  1  0
  7  6  2  0
  8  9  1  0
  9 13  1  0
 10 11  1  0
  9 10  1  1
 11 15  1  0
 12 11  2  0
 13 14  2  0
 13 19  1  0
 16 17  1  0
 18 17  1  6
 18 20  1  0
 19 18  1  0
 20 22  1  0
 21 20  2  0
M  END
$$$$
