TDS.pdb
     RDKit          3D

 22 21  0  0  1  0  0  0  0  0999 V2000
    9.8568  -11.7962  -11.3654 C   0  0  0  0  0  0  0  0  0  0  0  0
   11.2429  -11.2733  -11.1883 C   0  0  1  0  0  0  0  0  0  0  0  0
   11.3861  -10.9299   -9.8408 O   0  0  0  0  0  0  0  0  0  0  0  0
   12.2730  -12.2884  -11.6030 C   0  0  2  0  0  0  0  0  0  0  0  0
   12.1410  -13.4906  -10.8565 N   0  0  0  0  0  0  0  0  0  0  0  0
   13.6502  -11.7100  -11.4105 C   0  0  0  0  0  0  0  0  0  0  0  0
   14.3894  -12.0508  -10.4480 O   0  0  0  0  0  0  0  0  0  0  0  0
   14.1263  -10.7533  -12.3431 N   0  0  0  0  0  0  0  0  0  0  0  0
   15.4752  -10.2077  -12.1645 C   0  0  1  0  0  0  0  0  0  0  0  0
   16.2216  -10.2387  -13.4698 C   0  0  0  0  0  0  0  0  0  0  0  0
   17.6007   -9.7395  -13.3999 C   0  0  0  0  0  0  0  0  0  0  0  0
   17.8498   -8.6462  -12.8183 O   0  0  0  0  0  0  0  0  0  0  0  0
   15.3485   -8.8278  -11.6081 C   0  0  0  0  0  0  0  0  0  0  0  0
   14.5225   -8.0338  -12.0776 O   0  0  0  0  0  0  0  0  0  0  0  0
   18.6635  -10.4200  -13.9531 O   0  0  0  0  0  0  0  0  0  0  0  0
   16.2117   -5.9295   -7.8816 O   0  0  0  0  0  0  0  0  0  0  0  0
   16.2570   -7.2003   -8.4535 C   0  0  0  0  0  0  0  0  0  0  0  0
   16.0615   -7.0881   -9.9405 C   0  0  2  0  0  0  0  0  0  0  0  0
   16.1685   -8.4073  -10.5391 N   0  0  0  0  0  0  0  0  0  0  0  0
   17.0725   -6.1974  -10.5548 C   0  0  0  0  0  0  0  0  0  0  0  0
   18.2190   -6.6095  -10.8838 O   0  0  0  0  0  0  0  0  0  0  0  0
   16.7332   -4.8743  -10.7683 O   0  0  0  0  0  0  0  0  0  0  0  0
  2  1  1  1
  2  4  1  0
  3  2  1  0
  4  5  1  1
  4  6  1  0
  6  8  1  0
  7  6  2  0
  8  9  1  0
  9 13  1  0
 10 11  1  0
  9 10  1  6
 11 15  1  0
 12 11  2  0
 13 14  2  0
 13 19  1  0
 16 17  1  0
 18 17  1  1
 18 20  1  0
 19 18  1  0
 20 22  1  0
 21 20  2  0
M  END
$$$$
