TDS.pdb
     RDKit          3D

 22 21  0  0  1  0  0  0  0  0999 V2000
   18.7787  -14.3821  -17.3944 C   0  0  0  0  0  0  0  0  0  0  0  0
   18.4328  -12.9460  -17.1843 C   0  0  1  0  0  0  0  0  0  0  0  0
   17.6239  -12.8779  -16.0461 O   0  0  0  0  0  0  0  0  0  0  0  0
   19.6657  -12.0985  -17.0264 C   0  0  2  0  0  0  0  0  0  0  0  0
   20.4476  -12.5279  -15.9199 N   0  0  0  0  0  0  0  0  0  0  0  0
   19.2626  -10.6587  -16.8454 C   0  0  0  0  0  0  0  0  0  0  0  0
   18.6340  -10.0241  -17.7348 O   0  0  0  0  0  0  0  0  0  0  0  0
   19.6021  -10.0006  -15.6357 N   0  0  0  0  0  0  0  0  0  0  0  0
   19.2313   -8.5917  -15.4734 C   0  0  1  0  0  0  0  0  0  0  0  0
   18.1093   -8.4643  -14.4801 C   0  0  0  0  0  0  0  0  0  0  0  0
   17.7385   -7.0831  -14.1472 C   0  0  0  0  0  0  0  0  0  0  0  0
   18.0612   -6.5928  -13.0285 O   0  0  0  0  0  0  0  0  0  0  0  0
   20.4509   -7.8345  -15.0624 C   0  0  0  0  0  0  0  0  0  0  0  0
   21.2317   -8.3063  -14.2252 O   0  0  0  0  0  0  0  0  0  0  0  0
   17.0362   -6.2752  -15.0148 O   0  0  0  0  0  0  0  0  0  0  0  0
   23.3968   -4.1420  -16.0817 O   0  0  0  0  0  0  0  0  0  0  0  0
   22.2868   -4.9118  -16.4273 C   0  0  0  0  0  0  0  0  0  0  0  0
   21.9176   -5.8048  -15.2749 C   0  0  2  0  0  0  0  0  0  0  0  0
   20.7320   -6.5693  -15.6212 N   0  0  0  0  0  0  0  0  0  0  0  0
   21.6440   -5.0219  -14.0480 C   0  0  0  0  0  0  0  0  0  0  0  0
   20.5437   -4.4339  -13.8582 O   0  0  0  0  0  0  0  0  0  0  0  0
   22.6368   -4.9430  -13.0891 O   0  0  0  0  0  0  0  0  0  0  0  0
  2  1  1  1
  2  4  1  0
  3  2  1  0
  4  5  1  1
  4  6  1  0
  6  8  1  0
  7  6  2  0
  8  9  1  0
  9 13  1  0
 10 11  1  0
  9 10  1  1
 11 15  1  0
 12 11  2  0
 13 14  2  0
 13 19  1  0
 16 17  1  0
 18 17  1  6
 18 20  1  0
 19 18  1  0
 20 22  1  0
 21 20  2  0
M  END
$$$$
