TDS.pdb
     RDKit          3D

 22 21  0  0  1  0  0  0  0  0999 V2000
   15.2791  -15.1140  -15.9694 C   0  0  0  0  0  0  0  0  0  0  0  0
   15.0559  -13.8514  -15.2063 C   0  0  1  0  0  0  0  0  0  0  0  0
   15.0167  -14.1894  -13.8504 O   0  0  0  0  0  0  0  0  0  0  0  0
   16.1351  -12.8405  -15.4835 C   0  0  2  0  0  0  0  0  0  0  0  0
   17.4092  -13.3234  -15.0793 N   0  0  0  0  0  0  0  0  0  0  0  0
   15.8162  -11.5582  -14.7608 C   0  0  0  0  0  0  0  0  0  0  0  0
   14.7236  -10.9519  -14.9265 O   0  0  0  0  0  0  0  0  0  0  0  0
   16.7771  -11.0201  -13.8671 N   0  0  0  0  0  0  0  0  0  0  0  0
   16.4469   -9.7946  -13.1337 C   0  0  1  0  0  0  0  0  0  0  0  0
   16.8964   -9.9120  -11.7033 C   0  0  0  0  0  0  0  0  0  0  0  0
   16.6526   -8.7185  -10.8836 C   0  0  0  0  0  0  0  0  0  0  0  0
   17.4596   -7.7474  -10.9230 O   0  0  0  0  0  0  0  0  0  0  0  0
   17.0815   -8.6436  -13.8423 C   0  0  0  0  0  0  0  0  0  0  0  0
   18.2831   -8.6731  -14.1394 O   0  0  0  0  0  0  0  0  0  0  0  0
   15.5612   -8.6025  -10.0505 O   0  0  0  0  0  0  0  0  0  0  0  0
   16.3831   -4.7098  -16.5059 O   0  0  0  0  0  0  0  0  0  0  0  0
   15.8590   -5.8218  -15.8480 C   0  0  0  0  0  0  0  0  0  0  0  0
   16.8851   -6.3698  -14.8947 C   0  0  2  0  0  0  0  0  0  0  0  0
   16.3216   -7.5043  -14.1838 N   0  0  0  0  0  0  0  0  0  0  0  0
   17.3115   -5.3486  -13.9107 C   0  0  0  0  0  0  0  0  0  0  0  0
   16.8320   -5.2986  -12.7445 O   0  0  0  0  0  0  0  0  0  0  0  0
   18.2671   -4.4278  -14.2981 O   0  0  0  0  0  0  0  0  0  0  0  0
  2  1  1  6
  2  4  1  0
  3  2  1  0
  4  5  1  1
  4  6  1  0
  6  8  1  0
  7  6  2  0
  8  9  1  0
  9 13  1  0
 10 11  1  0
  9 10  1  1
 11 15  1  0
 12 11  2  0
 13 14  2  0
 13 19  1  0
 16 17  1  0
 18 17  1  6
 18 20  1  0
 19 18  1  0
 20 22  1  0
 21 20  2  0
M  END
$$$$
