TDS.pdb
     RDKit          3D

 22 21  0  0  1  0  0  0  0  0999 V2000
   14.1153  -12.9457  -13.4091 C   0  0  0  0  0  0  0  0  0  0  0  0
   15.0863  -11.9877  -14.0137 C   0  0  1  0  0  0  0  0  0  0  0  0
   16.1975  -12.7298  -14.4247 O   0  0  0  0  0  0  0  0  0  0  0  0
   14.4768  -11.2377  -15.1667 C   0  0  2  0  0  0  0  0  0  0  0  0
   14.1251  -12.1182  -16.2255 N   0  0  0  0  0  0  0  0  0  0  0  0
   15.4519  -10.2012  -15.6599 C   0  0  0  0  0  0  0  0  0  0  0  0
   16.0051  -10.2882  -16.7891 O   0  0  0  0  0  0  0  0  0  0  0  0
   15.7537   -9.0948  -14.8253 N   0  0  0  0  0  0  0  0  0  0  0  0
   16.6246   -8.0373  -15.3468 C   0  0  1  0  0  0  0  0  0  0  0  0
   15.9909   -6.6913  -15.1268 C   0  0  0  0  0  0  0  0  0  0  0  0
   16.7821   -5.5538  -15.6125 C   0  0  0  0  0  0  0  0  0  0  0  0
   17.8893   -5.7520  -16.1876 O   0  0  0  0  0  0  0  0  0  0  0  0
   17.9556   -8.1609  -14.6814 C   0  0  0  0  0  0  0  0  0  0  0  0
   18.0439   -8.1587  -13.4463 O   0  0  0  0  0  0  0  0  0  0  0  0
   16.3681   -4.2476  -15.4668 O   0  0  0  0  0  0  0  0  0  0  0  0
   22.6119   -9.3017  -15.2200 O   0  0  0  0  0  0  0  0  0  0  0  0
   21.3154   -9.2683  -15.7318 C   0  0  0  0  0  0  0  0  0  0  0  0
   20.4508   -8.4088  -14.8512 C   0  0  2  0  0  0  0  0  0  0  0  0
   19.1333   -8.2816  -15.4497 N   0  0  0  0  0  0  0  0  0  0  0  0
   21.0311   -7.0580  -14.6734 C   0  0  0  0  0  0  0  0  0  0  0  0
   21.0164   -6.1947  -15.5936 O   0  0  0  0  0  0  0  0  0  0  0  0
   21.6034   -6.7488  -13.4535 O   0  0  0  0  0  0  0  0  0  0  0  0
  2  1  1  6
  2  4  1  0
  3  2  1  0
  4  5  1  6
  4  6  1  0
  6  8  1  0
  7  6  2  0
  8  9  1  0
  9 13  1  0
 10 11  1  0
  9 10  1  1
 11 15  1  0
 12 11  2  0
 13 14  2  0
 13 19  1  0
 16 17  1  0
 18 17  1  6
 18 20  1  0
 19 18  1  0
 20 22  1  0
 21 20  2  0
M  END
$$$$
