TDS.pdb
     RDKit          3D

 22 21  0  0  1  0  0  0  0  0999 V2000
   24.5523  -19.4577  -16.3761 C   0  0  0  0  0  0  0  0  0  0  0  0
   23.3839  -19.0802  -15.5285 C   0  0  1  0  0  0  0  0  0  0  0  0
   23.6454  -17.8100  -15.0063 O   0  0  0  0  0  0  0  0  0  0  0  0
   22.1031  -19.0903  -16.3177 C   0  0  2  0  0  0  0  0  0  0  0  0
   22.1731  -18.2014  -17.4245 N   0  0  0  0  0  0  0  0  0  0  0  0
   20.9586  -18.7047  -15.4178 C   0  0  0  0  0  0  0  0  0  0  0  0
   20.6664  -19.3686  -14.3869 O   0  0  0  0  0  0  0  0  0  0  0  0
   20.1890  -17.5587  -15.7436 N   0  0  0  0  0  0  0  0  0  0  0  0
   19.0730  -17.1888  -14.8681 C   0  0  1  0  0  0  0  0  0  0  0  0
   18.8833  -15.6969  -14.8759 C   0  0  0  0  0  0  0  0  0  0  0  0
   17.8248  -15.2082  -13.9833 C   0  0  0  0  0  0  0  0  0  0  0  0
   17.4562  -15.9057  -12.9967 O   0  0  0  0  0  0  0  0  0  0  0  0
   17.8578  -17.9245  -15.3280 C   0  0  0  0  0  0  0  0  0  0  0  0
   17.5052  -17.8771  -16.5140 O   0  0  0  0  0  0  0  0  0  0  0  0
   17.1957  -13.9973  -14.1741 O   0  0  0  0  0  0  0  0  0  0  0  0
   16.8138  -21.5253  -14.1196 O   0  0  0  0  0  0  0  0  0  0  0  0
   15.7642  -20.6320  -13.9090 C   0  0  0  0  0  0  0  0  0  0  0  0
   15.9236  -19.4473  -14.8218 C   0  0  2  0  0  0  0  0  0  0  0  0
   17.0921  -18.6846  -14.4181 N   0  0  0  0  0  0  0  0  0  0  0  0
   14.7348  -18.5654  -14.7786 C   0  0  0  0  0  0  0  0  0  0  0  0
   14.7459  -17.4523  -14.1843 O   0  0  0  0  0  0  0  0  0  0  0  0
   13.5835  -18.9901  -15.4154 O   0  0  0  0  0  0  0  0  0  0  0  0
  2  1  1  6
  2  4  1  0
  3  2  1  0
  4  5  1  6
  4  6  1  0
  6  8  1  0
  7  6  2  0
  8  9  1  0
  9 13  1  0
 10 11  1  0
  9 10  1  6
 11 15  1  0
 12 11  2  0
 13 14  2  0
 13 19  1  0
 16 17  1  0
 18 17  1  1
 18 20  1  0
 19 18  1  0
 20 22  1  0
 21 20  2  0
M  END
$$$$
