TDS.pdb
     RDKit          3D

 22 21  0  0  1  0  0  0  0  0999 V2000
   17.9329   -8.7763  -18.3136 C   0  0  0  0  0  0  0  0  0  0  0  0
   17.6878   -9.8582  -17.3158 C   0  0  1  0  0  0  0  0  0  0  0  0
   17.4060  -11.0250  -18.0322 O   0  0  0  0  0  0  0  0  0  0  0  0
   18.8719  -10.0504  -16.4079 C   0  0  2  0  0  0  0  0  0  0  0  0
   18.7065  -11.1946  -15.5810 N   0  0  0  0  0  0  0  0  0  0  0  0
   19.0541   -8.8210  -15.5572 C   0  0  0  0  0  0  0  0  0  0  0  0
   18.2511   -8.5236  -14.6323 O   0  0  0  0  0  0  0  0  0  0  0  0
   20.1647   -7.9750  -15.8075 N   0  0  0  0  0  0  0  0  0  0  0  0
   20.3699   -6.8093  -14.9427 C   0  0  1  0  0  0  0  0  0  0  0  0
   21.8004   -6.7539  -14.4818 C   0  0  0  0  0  0  0  0  0  0  0  0
   22.1387   -5.5774  -13.6710 C   0  0  0  0  0  0  0  0  0  0  0  0
   21.4631   -5.3038  -12.6392 O   0  0  0  0  0  0  0  0  0  0  0  0
   19.9638   -5.5897  -15.7025 C   0  0  0  0  0  0  0  0  0  0  0  0
   20.4578   -5.3460  -16.8114 O   0  0  0  0  0  0  0  0  0  0  0  0
   23.1810   -4.7340  -13.9886 O   0  0  0  0  0  0  0  0  0  0  0  0
   16.7352   -2.0408  -16.1530 O   0  0  0  0  0  0  0  0  0  0  0  0
   17.1890   -3.1368  -15.4203 C   0  0  0  0  0  0  0  0  0  0  0  0
   18.5775   -3.5002  -15.8699 C   0  0  2  0  0  0  0  0  0  0  0  0
   19.0113   -4.6957  -15.1681 N   0  0  0  0  0  0  0  0  0  0  0  0
   19.5390   -2.4071  -15.5986 C   0  0  0  0  0  0  0  0  0  0  0  0
   19.9519   -2.1499  -14.4341 O   0  0  0  0  0  0  0  0  0  0  0  0
   19.9894   -1.6538  -16.6666 O   0  0  0  0  0  0  0  0  0  0  0  0
  2  1  1  6
  2  4  1  0
  3  2  1  0
  4  5  1  1
  4  6  1  0
  6  8  1  0
  7  6  2  0
  8  9  1  0
  9 13  1  0
 10 11  1  0
  9 10  1  6
 11 15  1  0
 12 11  2  0
 13 14  2  0
 13 19  1  0
 16 17  1  0
 18 17  1  1
 18 20  1  0
 19 18  1  0
 20 22  1  0
 21 20  2  0
M  END
$$$$
