TDS.pdb
     RDKit          3D

 22 21  0  0  1  0  0  0  0  0999 V2000
   22.7432  -10.2903  -18.1035 C   0  0  0  0  0  0  0  0  0  0  0  0
   21.7811   -9.1507  -18.0598 C   0  0  1  0  0  0  0  0  0  0  0  0
   21.3799   -8.8978  -19.3748 O   0  0  0  0  0  0  0  0  0  0  0  0
   20.5997   -9.4589  -17.1808 C   0  0  2  0  0  0  0  0  0  0  0  0
   19.8699  -10.5754  -17.6717 N   0  0  0  0  0  0  0  0  0  0  0  0
   19.7045   -8.2502  -17.1049 C   0  0  0  0  0  0  0  0  0  0  0  0
   18.7011   -8.1138  -17.8555 O   0  0  0  0  0  0  0  0  0  0  0  0
   20.0029   -7.2369  -16.1584 N   0  0  0  0  0  0  0  0  0  0  0  0
   19.1416   -6.0521  -16.1012 C   0  0  1  0  0  0  0  0  0  0  0  0
   18.6428   -5.8437  -14.6977 C   0  0  0  0  0  0  0  0  0  0  0  0
   17.6586   -6.8338  -14.2430 C   0  0  0  0  0  0  0  0  0  0  0  0
   16.5911   -7.0112  -14.8947 O   0  0  0  0  0  0  0  0  0  0  0  0
   19.9210   -4.8857  -16.6127 C   0  0  0  0  0  0  0  0  0  0  0  0
   21.1243   -4.7677  -16.3460 O   0  0  0  0  0  0  0  0  0  0  0  0
   17.8446   -7.5970  -13.1109 O   0  0  0  0  0  0  0  0  0  0  0  0
   19.7990   -0.9365  -19.4508 O   0  0  0  0  0  0  0  0  0  0  0  0
   19.1079   -2.0143  -18.8988 C   0  0  0  0  0  0  0  0  0  0  0  0
   20.0286   -2.7925  -17.9995 C   0  0  2  0  0  0  0  0  0  0  0  0
   19.2980   -3.8996  -17.4074 N   0  0  0  0  0  0  0  0  0  0  0  0
   20.5754   -1.9429  -16.9168 C   0  0  0  0  0  0  0  0  0  0  0  0
   21.6887   -1.3578  -17.0200 O   0  0  0  0  0  0  0  0  0  0  0  0
   19.8293   -1.7962  -15.7623 O   0  0  0  0  0  0  0  0  0  0  0  0
  2  1  1  6
  2  4  1  0
  3  2  1  0
  4  5  1  6
  4  6  1  0
  6  8  1  0
  7  6  2  0
  8  9  1  0
  9 13  1  0
 10 11  1  0
  9 10  1  1
 11 15  1  0
 12 11  2  0
 13 14  2  0
 13 19  1  0
 16 17  1  0
 18 17  1  6
 18 20  1  0
 19 18  1  0
 20 22  1  0
 21 20  2  0
M  END
$$$$
