TDS.pdb
     RDKit          3D

 22 21  0  0  1  0  0  0  0  0999 V2000
   16.8676   -7.8765  -17.1296 C   0  0  0  0  0  0  0  0  0  0  0  0
   16.3697   -8.8033  -16.0716 C   0  0  1  0  0  0  0  0  0  0  0  0
   15.0479   -9.1256  -16.3931 O   0  0  0  0  0  0  0  0  0  0  0  0
   17.2222  -10.0391  -15.9743 C   0  0  2  0  0  0  0  0  0  0  0  0
   16.6309  -11.0065  -15.1174 N   0  0  0  0  0  0  0  0  0  0  0  0
   18.5888   -9.6644  -15.4641 C   0  0  0  0  0  0  0  0  0  0  0  0
   18.7924   -9.3658  -14.2566 O   0  0  0  0  0  0  0  0  0  0  0  0
   19.6773   -9.6488  -16.3734 N   0  0  0  0  0  0  0  0  0  0  0  0
   21.0023   -9.2645  -15.8778 C   0  0  1  0  0  0  0  0  0  0  0  0
   22.0732   -9.9152  -16.7094 C   0  0  0  0  0  0  0  0  0  0  0  0
   22.1549  -11.3748  -16.5718 C   0  0  0  0  0  0  0  0  0  0  0  0
   22.1811  -11.9022  -15.4242 O   0  0  0  0  0  0  0  0  0  0  0  0
   21.0899   -7.7740  -15.8929 C   0  0  0  0  0  0  0  0  0  0  0  0
   20.7339   -7.1331  -16.8907 O   0  0  0  0  0  0  0  0  0  0  0  0
   22.2081  -12.2193  -17.6592 O   0  0  0  0  0  0  0  0  0  0  0  0
   20.1898   -3.7211  -14.6059 O   0  0  0  0  0  0  0  0  0  0  0  0
   20.1883   -5.1039  -14.7850 C   0  0  0  0  0  0  0  0  0  0  0  0
   21.5975   -5.6221  -14.6979 C   0  0  2  0  0  0  0  0  0  0  0  0
   21.5803   -7.0728  -14.7705 N   0  0  0  0  0  0  0  0  0  0  0  0
   22.2496   -5.2111  -13.4335 C   0  0  0  0  0  0  0  0  0  0  0  0
   22.3507   -5.9905  -12.4461 O   0  0  0  0  0  0  0  0  0  0  0  0
   22.7590   -3.9288  -13.3485 O   0  0  0  0  0  0  0  0  0  0  0  0
  2  1  1  6
  2  4  1  0
  3  2  1  0
  4  5  1  1
  4  6  1  0
  6  8  1  0
  7  6  2  0
  8  9  1  0
  9 13  1  0
 10 11  1  0
  9 10  1  6
 11 15  1  0
 12 11  2  0
 13 14  2  0
 13 19  1  0
 16 17  1  0
 18 17  1  1
 18 20  1  0
 19 18  1  0
 20 22  1  0
 21 20  2  0
M  END
$$$$
