TDS.pdb
     RDKit          3D

 22 21  0  0  1  0  0  0  0  0999 V2000
   16.8078  -11.7923  -18.2056 C   0  0  0  0  0  0  0  0  0  0  0  0
   17.4969  -12.8918  -17.4690 C   0  0  1  0  0  0  0  0  0  0  0  0
   17.3469  -14.0556  -18.2286 O   0  0  0  0  0  0  0  0  0  0  0  0
   18.9498  -12.5763  -17.2390 C   0  0  2  0  0  0  0  0  0  0  0  0
   19.6384  -13.6918  -16.6900 N   0  0  0  0  0  0  0  0  0  0  0  0
   19.0639  -11.3932  -16.3139 C   0  0  0  0  0  0  0  0  0  0  0  0
   18.7893  -11.4760  -15.0865 O   0  0  0  0  0  0  0  0  0  0  0  0
   19.4941  -10.1500  -16.8441 N   0  0  0  0  0  0  0  0  0  0  0  0
   19.5652   -8.9908  -15.9496 C   0  0  1  0  0  0  0  0  0  0  0  0
   20.9879   -8.5183  -15.8290 C   0  0  0  0  0  0  0  0  0  0  0  0
   21.1851   -7.3948  -14.9045 C   0  0  0  0  0  0  0  0  0  0  0  0
   20.2086   -6.9373  -14.2464 O   0  0  0  0  0  0  0  0  0  0  0  0
   18.6530   -7.9357  -16.4828 C   0  0  0  0  0  0  0  0  0  0  0  0
   18.7395   -7.5665  -17.6615 O   0  0  0  0  0  0  0  0  0  0  0  0
   22.4125   -6.7978  -14.7155 O   0  0  0  0  0  0  0  0  0  0  0  0
   14.4984   -5.7181  -16.3240 O   0  0  0  0  0  0  0  0  0  0  0  0
   15.3613   -6.7095  -15.8586 C   0  0  0  0  0  0  0  0  0  0  0  0
   16.7845   -6.2959  -16.1145 C   0  0  2  0  0  0  0  0  0  0  0  0
   17.6788   -7.3427  -15.6514 N   0  0  0  0  0  0  0  0  0  0  0  0
   17.1170   -5.0341  -15.4143 C   0  0  0  0  0  0  0  0  0  0  0  0
   17.5425   -5.0176  -14.2264 O   0  0  0  0  0  0  0  0  0  0  0  0
   16.9505   -3.8444  -16.0985 O   0  0  0  0  0  0  0  0  0  0  0  0
  2  1  1  6
  2  4  1  0
  3  2  1  0
  4  5  1  1
  4  6  1  0
  6  8  1  0
  7  6  2  0
  8  9  1  0
  9 13  1  0
 10 11  1  0
  9 10  1  6
 11 15  1  0
 12 11  2  0
 13 14  2  0
 13 19  1  0
 16 17  1  0
 18 17  1  1
 18 20  1  0
 19 18  1  0
 20 22  1  0
 21 20  2  0
M  END
$$$$
