TDS.pdb
     RDKit          3D

 22 21  0  0  1  0  0  0  0  0999 V2000
   15.2098  -10.3246  -17.2388 C   0  0  0  0  0  0  0  0  0  0  0  0
   16.0168   -9.2786  -16.5453 C   0  0  1  0  0  0  0  0  0  0  0  0
   15.2713   -8.8427  -15.4460 O   0  0  0  0  0  0  0  0  0  0  0  0
   17.3576   -9.8096  -16.1168 C   0  0  2  0  0  0  0  0  0  0  0  0
   17.2158  -10.9152  -15.2350 N   0  0  0  0  0  0  0  0  0  0  0  0
   18.1388   -8.7109  -15.4453 C   0  0  0  0  0  0  0  0  0  0  0  0
   17.9958   -8.4409  -14.2224 O   0  0  0  0  0  0  0  0  0  0  0  0
   19.0627   -7.9599  -16.2160 N   0  0  0  0  0  0  0  0  0  0  0  0
   19.7978   -6.8701  -15.5671 C   0  0  1  0  0  0  0  0  0  0  0  0
   21.2300   -7.2729  -15.3467 C   0  0  0  0  0  0  0  0  0  0  0  0
   21.4448   -8.1785  -14.2111 C   0  0  0  0  0  0  0  0  0  0  0  0
   21.0380   -7.8572  -13.0591 O   0  0  0  0  0  0  0  0  0  0  0  0
   19.6690   -5.6507  -16.4191 C   0  0  0  0  0  0  0  0  0  0  0  0
   19.9376   -5.6961  -17.6270 O   0  0  0  0  0  0  0  0  0  0  0  0
   22.0863   -9.3910  -14.3417 O   0  0  0  0  0  0  0  0  0  0  0  0
   16.8095   -3.1563  -15.8138 O   0  0  0  0  0  0  0  0  0  0  0  0
   17.9581   -2.3904  -16.0096 C   0  0  0  0  0  0  0  0  0  0  0  0
   19.0189   -3.2350  -16.6602 C   0  0  2  0  0  0  0  0  0  0  0  0
   19.2397   -4.4276  -15.8608 N   0  0  0  0  0  0  0  0  0  0  0  0
   20.2968   -2.4977  -16.7879 C   0  0  0  0  0  0  0  0  0  0  0  0
   21.3644   -2.9074  -16.2543 O   0  0  0  0  0  0  0  0  0  0  0  0
   20.3032   -1.3243  -17.5189 O   0  0  0  0  0  0  0  0  0  0  0  0
  2  1  1  1
  2  4  1  0
  3  2  1  0
  4  5  1  1
  4  6  1  0
  6  8  1  0
  7  6  2  0
  8  9  1  0
  9 13  1  0
 10 11  1  0
  9 10  1  6
 11 15  1  0
 12 11  2  0
 13 14  2  0
 13 19  1  0
 16 17  1  0
 18 17  1  1
 18 20  1  0
 19 18  1  0
 20 22  1  0
 21 20  2  0
M  END
$$$$
