TDS.pdb
     RDKit          3D

 22 21  0  0  1  0  0  0  0  0999 V2000
   16.1989  -11.0290  -16.2430 C   0  0  0  0  0  0  0  0  0  0  0  0
   17.6692  -11.2439  -16.3783 C   0  0  1  0  0  0  0  0  0  0  0  0
   17.8504  -12.4842  -16.9972 O   0  0  0  0  0  0  0  0  0  0  0  0
   18.3178  -10.1413  -17.1702 C   0  0  2  0  0  0  0  0  0  0  0  0
   18.7925  -10.6173  -18.4225 N   0  0  0  0  0  0  0  0  0  0  0  0
   19.4559   -9.5578  -16.3749 C   0  0  0  0  0  0  0  0  0  0  0  0
   19.3157   -9.1936  -15.1764 O   0  0  0  0  0  0  0  0  0  0  0  0
   20.7225   -9.4158  -16.9973 N   0  0  0  0  0  0  0  0  0  0  0  0
   21.8403   -8.8930  -16.2060 C   0  0  1  0  0  0  0  0  0  0  0  0
   23.1439   -9.4084  -16.7508 C   0  0  0  0  0  0  0  0  0  0  0  0
   23.3611  -10.8483  -16.5625 C   0  0  0  0  0  0  0  0  0  0  0  0
   23.6086  -11.5868  -17.5571 O   0  0  0  0  0  0  0  0  0  0  0  0
   21.7619   -7.4019  -16.2193 C   0  0  0  0  0  0  0  0  0  0  0  0
   21.6704   -6.7865  -17.2898 O   0  0  0  0  0  0  0  0  0  0  0  0
   23.3048  -11.4501  -15.3243 O   0  0  0  0  0  0  0  0  0  0  0  0
   19.5513   -5.1336  -14.3425 O   0  0  0  0  0  0  0  0  0  0  0  0
   20.4646   -4.6774  -15.2922 C   0  0  0  0  0  0  0  0  0  0  0  0
   21.8310   -5.2197  -14.9746 C   0  0  2  0  0  0  0  0  0  0  0  0
   21.7915   -6.6713  -15.0121 N   0  0  0  0  0  0  0  0  0  0  0  0
   22.2893   -4.7851  -13.6352 C   0  0  0  0  0  0  0  0  0  0  0  0
   22.4746   -5.6020  -12.6914 O   0  0  0  0  0  0  0  0  0  0  0  0
   22.5171   -3.4373  -13.4288 O   0  0  0  0  0  0  0  0  0  0  0  0
  2  1  1  6
  2  4  1  0
  3  2  1  0
  4  5  1  6
  4  6  1  0
  6  8  1  0
  7  6  2  0
  8  9  1  0
  9 13  1  0
 10 11  1  0
  9 10  1  6
 11 15  1  0
 12 11  2  0
 13 14  2  0
 13 19  1  0
 16 17  1  0
 18 17  1  1
 18 20  1  0
 19 18  1  0
 20 22  1  0
 21 20  2  0
M  END
$$$$
