TDS.pdb
     RDKit          3D

 22 21  0  0  1  0  0  0  0  0999 V2000
   17.9032  -12.9984  -15.0991 C   0  0  0  0  0  0  0  0  0  0  0  0
   18.3485  -11.5945  -15.3378 C   0  0  1  0  0  0  0  0  0  0  0  0
   19.1694  -11.2333  -14.2655 O   0  0  0  0  0  0  0  0  0  0  0  0
   19.0756  -11.4612  -16.6480 C   0  0  2  0  0  0  0  0  0  0  0  0
   20.2253  -12.2960  -16.6863 N   0  0  0  0  0  0  0  0  0  0  0  0
   19.4748  -10.0236  -16.8539 C   0  0  0  0  0  0  0  0  0  0  0  0
   20.6771   -9.6805  -17.0142 O   0  0  0  0  0  0  0  0  0  0  0  0
   18.4640   -9.0287  -16.8675 N   0  0  0  0  0  0  0  0  0  0  0  0
   18.8475   -7.6400  -17.1385 C   0  0  1  0  0  0  0  0  0  0  0  0
   17.7048   -6.9055  -17.7839 C   0  0  0  0  0  0  0  0  0  0  0  0
   17.9633   -5.4859  -18.0557 C   0  0  0  0  0  0  0  0  0  0  0  0
   19.0719   -5.1260  -18.5430 O   0  0  0  0  0  0  0  0  0  0  0  0
   19.2769   -7.0168  -15.8513 C   0  0  0  0  0  0  0  0  0  0  0  0
   18.6763   -7.2704  -14.7986 O   0  0  0  0  0  0  0  0  0  0  0  0
   17.0347   -4.5013  -17.7972 O   0  0  0  0  0  0  0  0  0  0  0  0
   22.7519   -5.2317  -13.2215 O   0  0  0  0  0  0  0  0  0  0  0  0
   22.2570   -5.9290  -14.3229 C   0  0  0  0  0  0  0  0  0  0  0  0
   20.8381   -5.5064  -14.5875 C   0  0  2  0  0  0  0  0  0  0  0  0
   20.3732   -6.1288  -15.8149 N   0  0  0  0  0  0  0  0  0  0  0  0
   20.7259   -4.0358  -14.7210 C   0  0  0  0  0  0  0  0  0  0  0  0
   20.8234   -3.4537  -15.8363 O   0  0  0  0  0  0  0  0  0  0  0  0
   20.5069   -3.2913  -13.5769 O   0  0  0  0  0  0  0  0  0  0  0  0
  2  1  1  1
  2  4  1  0
  3  2  1  0
  4  5  1  1
  4  6  1  0
  6  8  1  0
  7  6  2  0
  8  9  1  0
  9 13  1  0
 10 11  1  0
  9 10  1  1
 11 15  1  0
 12 11  2  0
 13 14  2  0
 13 19  1  0
 16 17  1  0
 18 17  1  6
 18 20  1  0
 19 18  1  0
 20 22  1  0
 21 20  2  0
M  END
$$$$
