AGM.pdb
     RDKit          3D

 18 17  0  0  1  0  0  0  0  0999 V2000
   23.9352  -17.8682  -17.5557 C   0  0  0  0  0  0  0  0  0  0  0  0
   24.7476  -19.1172  -17.3049 C   0  0  2  0  0  0  0  0  0  0  0  0
   23.8659  -20.2416  -17.2522 N   0  0  0  0  0  0  0  0  0  0  0  0
   25.4945  -18.9271  -16.0376 C   0  0  0  0  0  0  0  0  0  0  0  0
   26.5380  -18.2258  -16.0676 O   0  0  0  0  0  0  0  0  0  0  0  0
   25.1032  -19.4855  -14.8044 N   0  0  0  0  0  0  0  0  0  0  0  0
   25.8034  -19.3188  -13.5702 C   0  0  0  0  0  0  0  0  0  0  0  0
   25.4087  -20.3544  -12.5559 C   0  0  0  0  0  0  0  0  0  0  0  0
   24.8730  -21.4193  -12.9247 O   0  0  0  0  0  0  0  0  0  0  0  0
   29.1009  -19.7667   -6.6718 C   0  0  0  0  0  0  0  0  0  0  0  0
   27.3183  -19.6003   -7.0118 S   0  0  0  0  0  0  0  0  0  0  0  0
   26.9044  -20.5843   -8.4887 C   0  0  0  0  0  0  0  0  0  0  0  0
   25.4762  -20.3097   -8.8263 C   0  0  0  0  0  0  0  0  0  0  0  0
   25.0123  -20.8928  -10.1245 C   0  0  2  0  0  0  0  0  0  0  0  0
   25.6385  -20.1326  -11.1929 N   0  0  0  0  0  0  0  0  0  0  0  0
   23.5395  -20.8481  -10.3004 C   0  0  0  0  0  0  0  0  0  0  0  0
   22.6992  -21.8790   -9.9042 O   0  0  0  0  0  0  0  0  0  0  0  0
   22.9867  -19.8462  -10.8297 O   0  0  0  0  0  0  0  0  0  0  0  0
  2  1  1  1
  3  2  1  0
  4  6  1  0
  4  2  1  0
  5  4  2  0
  7  6  1  0
  8  9  2  0
  8  7  1  0
 10 11  1  0
 12 13  1  0
 12 11  1  0
 14 13  1  1
 14 16  1  0
 14 15  1  0
 15  8  1  0
 16 17  1  0
 18 16  2  0
M  END
$$$$
