AGM.pdb
     RDKit          3D

 18 17  0  0  1  0  0  0  0  0999 V2000
   22.4661  -20.5405  -16.1653 C   0  0  0  0  0  0  0  0  0  0  0  0
   23.8200  -21.1268  -15.8396 C   0  0  2  0  0  0  0  0  0  0  0  0
   23.6469  -22.4734  -15.3913 N   0  0  0  0  0  0  0  0  0  0  0  0
   24.4520  -20.2669  -14.8095 C   0  0  0  0  0  0  0  0  0  0  0  0
   24.6533  -19.0582  -15.0929 O   0  0  0  0  0  0  0  0  0  0  0  0
   24.8392  -20.7248  -13.5344 N   0  0  0  0  0  0  0  0  0  0  0  0
   25.3536  -19.8989  -12.4882 C   0  0  0  0  0  0  0  0  0  0  0  0
   25.6036  -20.6782  -11.2284 C   0  0  0  0  0  0  0  0  0  0  0  0
   25.3447  -21.8982  -11.1854 O   0  0  0  0  0  0  0  0  0  0  0  0
   28.6128  -19.5593   -3.9724 C   0  0  0  0  0  0  0  0  0  0  0  0
   28.2585  -18.9710   -5.6604 S   0  0  0  0  0  0  0  0  0  0  0  0
   27.2508  -20.2212   -6.5221 C   0  0  0  0  0  0  0  0  0  0  0  0
   27.0716  -19.7611   -7.9312 C   0  0  0  0  0  0  0  0  0  0  0  0
   26.2492  -20.6695   -8.7908 C   0  0  2  0  0  0  0  0  0  0  0  0
   26.1274  -20.0430  -10.0962 N   0  0  0  0  0  0  0  0  0  0  0  0
   24.8910  -20.9259   -8.2506 C   0  0  0  0  0  0  0  0  0  0  0  0
   24.6400  -21.8448   -7.2415 O   0  0  0  0  0  0  0  0  0  0  0  0
   23.8928  -20.3018   -8.7018 O   0  0  0  0  0  0  0  0  0  0  0  0
  2  1  1  1
  3  2  1  0
  4  6  1  0
  4  2  1  0
  5  4  2  0
  7  6  1  0
  8  9  2  0
  8  7  1  0
 10 11  1  0
 12 13  1  0
 12 11  1  0
 14 13  1  1
 14 16  1  0
 14 15  1  0
 15  8  1  0
 16 17  1  0
 18 16  2  0
M  END
$$$$
