AGM.pdb
     RDKit          3D

 18 17  0  0  1  0  0  0  0  0999 V2000
   17.0212  -24.5265   -9.8918 C   0  0  0  0  0  0  0  0  0  0  0  0
   17.2436  -23.6340   -8.6931 C   0  0  2  0  0  0  0  0  0  0  0  0
   17.7890  -22.3889   -9.1365 N   0  0  0  0  0  0  0  0  0  0  0  0
   18.1496  -24.3450   -7.7585 C   0  0  0  0  0  0  0  0  0  0  0  0
   19.3885  -24.2536   -7.9541 O   0  0  0  0  0  0  0  0  0  0  0  0
   17.7034  -25.1155   -6.6663 N   0  0  0  0  0  0  0  0  0  0  0  0
   18.5139  -25.5152   -5.5597 C   0  0  0  0  0  0  0  0  0  0  0  0
   17.7009  -26.1528   -4.4690 C   0  0  0  0  0  0  0  0  0  0  0  0
   16.4548  -26.0973   -4.5033 O   0  0  0  0  0  0  0  0  0  0  0  0
   20.8436  -28.9557    0.4283 C   0  0  0  0  0  0  0  0  0  0  0  0
   19.4216  -30.0835    0.2648 S   0  0  0  0  0  0  0  0  0  0  0  0
   18.0437  -29.1863   -0.5209 C   0  0  0  0  0  0  0  0  0  0  0  0
   18.6190  -28.3442   -1.6115 C   0  0  0  0  0  0  0  0  0  0  0  0
   17.6318  -27.4699   -2.3198 C   0  0  2  0  0  0  0  0  0  0  0  0
   18.3340  -26.8123   -3.4087 N   0  0  0  0  0  0  0  0  0  0  0  0
   17.0224  -26.4370   -1.4458 C   0  0  0  0  0  0  0  0  0  0  0  0
   15.8949  -26.6715   -0.6714 O   0  0  0  0  0  0  0  0  0  0  0  0
   17.5209  -25.2812   -1.3750 O   0  0  0  0  0  0  0  0  0  0  0  0
  2  1  1  6
  3  2  1  0
  4  6  1  0
  4  2  1  0
  5  4  2  0
  7  6  1  0
  8  9  2  0
  8  7  1  0
 10 11  1  0
 12 13  1  0
 12 11  1  0
 14 13  1  1
 14 16  1  0
 14 15  1  0
 15  8  1  0
 16 17  1  0
 18 16  2  0
M  END
$$$$
