AGM.pdb
     RDKit          3D

 18 17  0  0  1  0  0  0  0  0999 V2000
   23.1002  -19.8855  -14.9833 C   0  0  0  0  0  0  0  0  0  0  0  0
   24.4565  -20.5340  -15.1334 C   0  0  2  0  0  0  0  0  0  0  0  0
   24.2813  -21.9434  -15.2984 N   0  0  0  0  0  0  0  0  0  0  0  0
   25.2549  -20.2028  -13.9281 C   0  0  0  0  0  0  0  0  0  0  0  0
   24.8391  -19.2811  -13.1803 O   0  0  0  0  0  0  0  0  0  0  0  0
   26.4499  -20.8596  -13.5730 N   0  0  0  0  0  0  0  0  0  0  0  0
   27.2496  -20.5460  -12.4313 C   0  0  0  0  0  0  0  0  0  0  0  0
   26.6769  -21.1237  -11.1682 C   0  0  0  0  0  0  0  0  0  0  0  0
   26.0891  -22.2242  -11.1937 O   0  0  0  0  0  0  0  0  0  0  0  0
   28.4545  -18.2839   -5.7724 C   0  0  0  0  0  0  0  0  0  0  0  0
   27.9317  -19.8862   -5.0795 S   0  0  0  0  0  0  0  0  0  0  0  0
   26.7320  -20.6570   -6.2141 C   0  0  0  0  0  0  0  0  0  0  0  0
   27.1648  -20.3421   -7.6080 C   0  0  0  0  0  0  0  0  0  0  0  0
   26.3012  -20.9250   -8.6827 C   0  0  2  0  0  0  0  0  0  0  0  0
   26.7981  -20.4332   -9.9565 N   0  0  0  0  0  0  0  0  0  0  0  0
   24.8681  -20.5623   -8.5519 C   0  0  0  0  0  0  0  0  0  0  0  0
   24.0180  -21.1599   -7.6322 O   0  0  0  0  0  0  0  0  0  0  0  0
   24.3607  -19.6759   -9.2910 O   0  0  0  0  0  0  0  0  0  0  0  0
  2  1  1  1
  3  2  1  0
  4  6  1  0
  4  2  1  0
  5  4  2  0
  7  6  1  0
  8  9  2  0
  8  7  1  0
 10 11  1  0
 12 13  1  0
 12 11  1  0
 14 13  1  1
 14 16  1  0
 14 15  1  0
 15  8  1  0
 16 17  1  0
 18 16  2  0
M  END
$$$$
