AGM.pdb
     RDKit          3D

 18 17  0  0  1  0  0  0  0  0999 V2000
   24.6289  -19.0670  -15.8061 C   0  0  0  0  0  0  0  0  0  0  0  0
   24.6221  -19.1274  -14.2964 C   0  0  2  0  0  0  0  0  0  0  0  0
   25.0708  -17.8720  -13.7797 N   0  0  0  0  0  0  0  0  0  0  0  0
   25.4961  -20.2519  -13.8823 C   0  0  0  0  0  0  0  0  0  0  0  0
   25.1491  -21.4175  -14.2028 O   0  0  0  0  0  0  0  0  0  0  0  0
   26.6904  -20.0903  -13.1522 N   0  0  0  0  0  0  0  0  0  0  0  0
   27.5545  -21.1540  -12.7483 C   0  0  0  0  0  0  0  0  0  0  0  0
   27.4010  -21.4796  -11.2897 C   0  0  0  0  0  0  0  0  0  0  0  0
   27.8064  -22.5735  -10.8466 O   0  0  0  0  0  0  0  0  0  0  0  0
   28.0940  -18.8246   -4.1651 C   0  0  0  0  0  0  0  0  0  0  0  0
   28.1118  -18.5889   -5.9720 S   0  0  0  0  0  0  0  0  0  0  0  0
   27.0585  -19.8601   -6.7437 C   0  0  0  0  0  0  0  0  0  0  0  0
   27.2870  -19.7992   -8.2179 C   0  0  0  0  0  0  0  0  0  0  0  0
   26.5363  -20.8201   -9.0146 C   0  0  2  0  0  0  0  0  0  0  0  0
   26.8035  -20.5605  -10.4191 N   0  0  0  0  0  0  0  0  0  0  0  0
   25.0700  -20.7857   -8.7886 C   0  0  0  0  0  0  0  0  0  0  0  0
   24.4739  -21.2455   -7.6228 O   0  0  0  0  0  0  0  0  0  0  0  0
   24.2956  -20.3257   -9.6707 O   0  0  0  0  0  0  0  0  0  0  0  0
  2  1  1  6
  3  2  1  0
  4  6  1  0
  4  2  1  0
  5  4  2  0
  7  6  1  0
  8  9  2  0
  8  7  1  0
 10 11  1  0
 12 13  1  0
 12 11  1  0
 14 13  1  1
 14 16  1  0
 14 15  1  0
 15  8  1  0
 16 17  1  0
 18 16  2  0
M  END
$$$$
