AGM.pdb
     RDKit          3D

 18 17  0  0  1  0  0  0  0  0999 V2000
   24.7354  -20.5158  -17.8285 C   0  0  0  0  0  0  0  0  0  0  0  0
   24.5968  -21.3862  -16.6014 C   0  0  2  0  0  0  0  0  0  0  0  0
   23.2110  -21.5024  -16.2689 N   0  0  0  0  0  0  0  0  0  0  0  0
   25.3875  -20.7646  -15.5112 C   0  0  0  0  0  0  0  0  0  0  0  0
   26.6353  -20.9209  -15.5249 O   0  0  0  0  0  0  0  0  0  0  0  0
   24.8227  -20.0107  -14.4633 N   0  0  0  0  0  0  0  0  0  0  0  0
   25.5601  -19.4022  -13.4016 C   0  0  0  0  0  0  0  0  0  0  0  0
   25.6073  -20.2737  -12.1787 C   0  0  0  0  0  0  0  0  0  0  0  0
   25.2312  -21.4618  -12.2420 O   0  0  0  0  0  0  0  0  0  0  0  0
   29.5881  -19.4627   -6.5657 C   0  0  0  0  0  0  0  0  0  0  0  0
   27.8209  -19.1208   -6.2815 S   0  0  0  0  0  0  0  0  0  0  0  0
   26.8281  -20.2418   -7.3201 C   0  0  0  0  0  0  0  0  0  0  0  0
   26.7857  -19.6614   -8.6951 C   0  0  0  0  0  0  0  0  0  0  0  0
   26.0724  -20.4984   -9.7106 C   0  0  2  0  0  0  0  0  0  0  0  0
   26.0725  -19.7603  -10.9622 N   0  0  0  0  0  0  0  0  0  0  0  0
   24.6713  -20.8147   -9.3376 C   0  0  0  0  0  0  0  0  0  0  0  0
   24.3176  -21.9492   -8.6209 O   0  0  0  0  0  0  0  0  0  0  0  0
   23.7299  -20.0439   -9.6678 O   0  0  0  0  0  0  0  0  0  0  0  0
  2  1  1  6
  3  2  1  0
  4  6  1  0
  4  2  1  0
  5  4  2  0
  7  6  1  0
  8  9  2  0
  8  7  1  0
 10 11  1  0
 12 13  1  0
 12 11  1  0
 14 13  1  1
 14 16  1  0
 14 15  1  0
 15  8  1  0
 16 17  1  0
 18 16  2  0
M  END
$$$$
