AGM.pdb
     RDKit          3D

 18 17  0  0  1  0  0  0  0  0999 V2000
   19.6064  -10.7380  -16.1526 C   0  0  0  0  0  0  0  0  0  0  0  0
   18.2705  -10.4446  -15.5107 C   0  0  2  0  0  0  0  0  0  0  0  0
   17.4829   -9.6649  -16.4141 N   0  0  0  0  0  0  0  0  0  0  0  0
   18.5258   -9.7381  -14.2318 C   0  0  0  0  0  0  0  0  0  0  0  0
   18.9713  -10.4093  -13.2661 O   0  0  0  0  0  0  0  0  0  0  0  0
   18.2987   -8.3612  -14.0367 N   0  0  0  0  0  0  0  0  0  0  0  0
   18.4404   -7.6755  -12.7913 C   0  0  0  0  0  0  0  0  0  0  0  0
   17.1097   -7.3439  -12.1777 C   0  0  0  0  0  0  0  0  0  0  0  0
   16.0653   -7.4523  -12.8519 O   0  0  0  0  0  0  0  0  0  0  0  0
   12.1124   -8.3089   -6.7425 C   0  0  0  0  0  0  0  0  0  0  0  0
   13.6041   -8.6555   -7.7302 S   0  0  0  0  0  0  0  0  0  0  0  0
   14.3826   -7.0757   -8.1982 C   0  0  0  0  0  0  0  0  0  0  0  0
   15.5867   -7.3942   -9.0217 C   0  0  0  0  0  0  0  0  0  0  0  0
   15.8033   -6.4920  -10.1963 C   0  0  2  0  0  0  0  0  0  0  0  0
   17.0320   -6.9120  -10.8484 N   0  0  0  0  0  0  0  0  0  0  0  0
   15.9184   -5.0590   -9.8283 C   0  0  0  0  0  0  0  0  0  0  0  0
   14.8297   -4.2858   -9.4504 O   0  0  0  0  0  0  0  0  0  0  0  0
   17.0380   -4.4798   -9.8469 O   0  0  0  0  0  0  0  0  0  0  0  0
  2  1  1  6
  3  2  1  0
  4  6  1  0
  4  2  1  0
  5  4  2  0
  7  6  1  0
  8  9  2  0
  8  7  1  0
 10 11  1  0
 12 13  1  0
 12 11  1  0
 14 13  1  1
 14 16  1  0
 14 15  1  0
 15  8  1  0
 16 17  1  0
 18 16  2  0
M  END
$$$$
