AGM.pdb
     RDKit          3D

 18 17  0  0  1  0  0  0  0  0999 V2000
   27.3373  -16.5554  -15.3919 C   0  0  0  0  0  0  0  0  0  0  0  0
   26.1383  -16.1529  -16.2184 C   0  0  2  0  0  0  0  0  0  0  0  0
   25.3015  -15.2973  -15.4361 N   0  0  0  0  0  0  0  0  0  0  0  0
   25.4401  -17.3918  -16.6401 C   0  0  0  0  0  0  0  0  0  0  0  0
   26.0619  -18.1963  -17.3802 O   0  0  0  0  0  0  0  0  0  0  0  0
   24.1232  -17.7188  -16.2603 N   0  0  0  0  0  0  0  0  0  0  0  0
   23.3996  -18.8640  -16.7144 C   0  0  0  0  0  0  0  0  0  0  0  0
   23.3266  -19.9355  -15.6638 C   0  0  0  0  0  0  0  0  0  0  0  0
   23.0068  -21.0999  -15.9787 O   0  0  0  0  0  0  0  0  0  0  0  0
   25.3170  -21.0420   -8.0876 C   0  0  0  0  0  0  0  0  0  0  0  0
   25.4357  -20.1407   -9.6669 S   0  0  0  0  0  0  0  0  0  0  0  0
   24.3208  -20.9221  -10.8781 C   0  0  0  0  0  0  0  0  0  0  0  0
   24.4302  -20.1518  -12.1525 C   0  0  0  0  0  0  0  0  0  0  0  0
   23.4862  -20.5818  -13.2317 C   0  0  2  0  0  0  0  0  0  0  0  0
   23.6160  -19.6362  -14.3272 N   0  0  0  0  0  0  0  0  0  0  0  0
   22.0683  -20.6226  -12.7956 C   0  0  0  0  0  0  0  0  0  0  0  0
   21.4444  -21.7833  -12.3605 O   0  0  0  0  0  0  0  0  0  0  0  0
   21.3636  -19.5773  -12.8060 O   0  0  0  0  0  0  0  0  0  0  0  0
  2  1  1  1
  3  2  1  0
  4  6  1  0
  4  2  1  0
  5  4  2  0
  7  6  1  0
  8  9  2  0
  8  7  1  0
 10 11  1  0
 12 13  1  0
 12 11  1  0
 14 13  1  1
 14 16  1  0
 14 15  1  0
 15  8  1  0
 16 17  1  0
 18 16  2  0
M  END
$$$$
