AGM.pdb
     RDKit          3D

 18 17  0  0  1  0  0  0  0  0999 V2000
   24.6415  -19.0965  -16.3029 C   0  0  0  0  0  0  0  0  0  0  0  0
   24.3975  -19.4248  -14.8484 C   0  0  2  0  0  0  0  0  0  0  0  0
   24.0844  -18.2191  -14.1466 N   0  0  0  0  0  0  0  0  0  0  0  0
   25.6168  -20.0838  -14.3202 C   0  0  0  0  0  0  0  0  0  0  0  0
   25.8580  -21.2614  -14.6902 O   0  0  0  0  0  0  0  0  0  0  0  0
   26.5187  -19.4681  -13.4298 N   0  0  0  0  0  0  0  0  0  0  0  0
   27.7120  -20.0704  -12.9250 C   0  0  0  0  0  0  0  0  0  0  0  0
   27.4858  -20.7413  -11.5999 C   0  0  0  0  0  0  0  0  0  0  0  0
   28.1261  -21.7701  -11.3020 O   0  0  0  0  0  0  0  0  0  0  0  0
   28.0883  -19.5340   -4.2900 C   0  0  0  0  0  0  0  0  0  0  0  0
   28.0243  -18.9991   -6.0308 S   0  0  0  0  0  0  0  0  0  0  0  0
   26.9726  -20.1567   -6.9660 C   0  0  0  0  0  0  0  0  0  0  0  0
   27.1431  -19.8475   -8.4168 C   0  0  0  0  0  0  0  0  0  0  0  0
   26.3594  -20.7232   -9.3440 C   0  0  2  0  0  0  0  0  0  0  0  0
   26.5571  -20.2185  -10.6921 N   0  0  0  0  0  0  0  0  0  0  0  0
   24.9057  -20.7479   -9.0469 C   0  0  0  0  0  0  0  0  0  0  0  0
   24.3721  -21.3833   -7.9346 O   0  0  0  0  0  0  0  0  0  0  0  0
   24.0842  -20.1778   -9.8148 O   0  0  0  0  0  0  0  0  0  0  0  0
  2  1  1  6
  3  2  1  0
  4  6  1  0
  4  2  1  0
  5  4  2  0
  7  6  1  0
  8  9  2  0
  8  7  1  0
 10 11  1  0
 12 13  1  0
 12 11  1  0
 14 13  1  1
 14 16  1  0
 14 15  1  0
 15  8  1  0
 16 17  1  0
 18 16  2  0
M  END
$$$$
