AGM.pdb
     RDKit          3D

 18 17  0  0  1  0  0  0  0  0999 V2000
   24.3846  -20.3500  -16.3470 C   0  0  0  0  0  0  0  0  0  0  0  0
   25.7739  -20.8001  -15.9595 C   0  0  2  0  0  0  0  0  0  0  0  0
   25.7813  -22.2241  -15.8311 N   0  0  0  0  0  0  0  0  0  0  0  0
   26.1361  -20.1183  -14.6931 C   0  0  0  0  0  0  0  0  0  0  0  0
   25.8639  -18.8954  -14.5830 O   0  0  0  0  0  0  0  0  0  0  0  0
   26.7663  -20.7600  -13.6084 N   0  0  0  0  0  0  0  0  0  0  0  0
   27.1407  -20.1241  -12.3850 C   0  0  0  0  0  0  0  0  0  0  0  0
   26.5287  -20.7993  -11.1905 C   0  0  0  0  0  0  0  0  0  0  0  0
   25.7351  -21.7495  -11.3471 O   0  0  0  0  0  0  0  0  0  0  0  0
   28.5361  -18.6910   -5.6178 C   0  0  0  0  0  0  0  0  0  0  0  0
   27.8480  -20.2458   -4.9623 S   0  0  0  0  0  0  0  0  0  0  0  0
   26.7035  -20.9503   -6.1931 C   0  0  0  0  0  0  0  0  0  0  0  0
   27.1135  -20.4370   -7.5340 C   0  0  0  0  0  0  0  0  0  0  0  0
   26.3187  -20.9728   -8.6837 C   0  0  2  0  0  0  0  0  0  0  0  0
   26.8435  -20.3684   -9.8963 N   0  0  0  0  0  0  0  0  0  0  0  0
   24.8673  -20.6787   -8.5876 C   0  0  0  0  0  0  0  0  0  0  0  0
   23.9960  -21.4207   -7.8028 O   0  0  0  0  0  0  0  0  0  0  0  0
   24.3631  -19.7199   -9.2325 O   0  0  0  0  0  0  0  0  0  0  0  0
  2  1  1  1
  3  2  1  0
  4  6  1  0
  4  2  1  0
  5  4  2  0
  7  6  1  0
  8  9  2  0
  8  7  1  0
 10 11  1  0
 12 13  1  0
 12 11  1  0
 14 13  1  1
 14 16  1  0
 14 15  1  0
 15  8  1  0
 16 17  1  0
 18 16  2  0
M  END
$$$$
