AGM.pdb
     RDKit          3D

 18 17  0  0  1  0  0  0  0  0999 V2000
   18.4724  -14.1292  -17.2201 C   0  0  0  0  0  0  0  0  0  0  0  0
   19.6305  -13.2157  -17.5473 C   0  0  2  0  0  0  0  0  0  0  0  0
   20.7624  -13.6027  -16.7641 N   0  0  0  0  0  0  0  0  0  0  0  0
   19.2033  -11.8226  -17.2702 C   0  0  0  0  0  0  0  0  0  0  0  0
   18.4775  -11.2481  -18.1215 O   0  0  0  0  0  0  0  0  0  0  0  0
   19.5629  -11.1072  -16.1108 N   0  0  0  0  0  0  0  0  0  0  0  0
   19.1173   -9.7880  -15.7906 C   0  0  0  0  0  0  0  0  0  0  0  0
   20.1421   -9.0251  -15.0000 C   0  0  0  0  0  0  0  0  0  0  0  0
   20.1210   -9.0569  -13.7527 O   0  0  0  0  0  0  0  0  0  0  0  0
   25.9023  -11.4874  -15.0931 C   0  0  0  0  0  0  0  0  0  0  0  0
   25.4592   -9.8053  -15.6363 S   0  0  0  0  0  0  0  0  0  0  0  0
   23.8602   -9.3465  -14.8922 C   0  0  0  0  0  0  0  0  0  0  0  0
   23.4792   -8.0086  -15.4346 C   0  0  0  0  0  0  0  0  0  0  0  0
   22.1488   -7.4983  -14.9758 C   0  0  2  0  0  0  0  0  0  0  0  0
   21.1257   -8.2749  -15.6553 N   0  0  0  0  0  0  0  0  0  0  0  0
   21.9346   -6.0591  -15.2674 C   0  0  0  0  0  0  0  0  0  0  0  0
   21.1393   -5.6097  -16.3120 O   0  0  0  0  0  0  0  0  0  0  0  0
   22.4822   -5.1724  -14.5578 O   0  0  0  0  0  0  0  0  0  0  0  0
  2  1  1  1
  3  2  1  0
  4  6  1  0
  4  2  1  0
  5  4  2  0
  7  6  1  0
  8  9  2  0
  8  7  1  0
 10 11  1  0
 12 13  1  0
 12 11  1  0
 14 13  1  6
 14 16  1  0
 14 15  1  0
 15  8  1  0
 16 17  1  0
 18 16  2  0
M  END
$$$$
