AGM.pdb
     RDKit          3D

 18 17  0  0  1  0  0  0  0  0999 V2000
   17.5762  -12.0164  -14.5613 C   0  0  0  0  0  0  0  0  0  0  0  0
   16.4876  -11.0006  -14.3044 C   0  0  2  0  0  0  0  0  0  0  0  0
   17.0753   -9.6993  -14.2299 N   0  0  0  0  0  0  0  0  0  0  0  0
   15.7987  -11.3805  -13.0470 C   0  0  0  0  0  0  0  0  0  0  0  0
   16.2410  -10.9112  -11.9673 O   0  0  0  0  0  0  0  0  0  0  0  0
   14.6796  -12.2349  -12.9923 N   0  0  0  0  0  0  0  0  0  0  0  0
   13.9731  -12.5850  -11.8007 C   0  0  0  0  0  0  0  0  0  0  0  0
   14.3174  -13.9694  -11.3295 C   0  0  0  0  0  0  0  0  0  0  0  0
   14.9958  -14.7263  -12.0534 O   0  0  0  0  0  0  0  0  0  0  0  0
   13.9258  -18.3434   -4.7421 C   0  0  0  0  0  0  0  0  0  0  0  0
   13.6109  -16.7904   -5.6420 S   0  0  0  0  0  0  0  0  0  0  0  0
   13.9333  -17.0597   -7.4153 C   0  0  0  0  0  0  0  0  0  0  0  0
   13.8376  -15.7343   -8.0962 C   0  0  0  0  0  0  0  0  0  0  0  0
   14.1030  -15.7620   -9.5690 C   0  0  2  0  0  0  0  0  0  0  0  0
   13.8806  -14.4192  -10.0778 N   0  0  0  0  0  0  0  0  0  0  0  0
   13.2320  -16.7083  -10.3094 C   0  0  0  0  0  0  0  0  0  0  0  0
   13.5951  -18.0215  -10.5731 O   0  0  0  0  0  0  0  0  0  0  0  0
   12.1033  -16.3423  -10.7354 O   0  0  0  0  0  0  0  0  0  0  0  0
  2  1  1  1
  3  2  1  0
  4  6  1  0
  4  2  1  0
  5  4  2  0
  7  6  1  0
  8  9  2  0
  8  7  1  0
 10 11  1  0
 12 13  1  0
 12 11  1  0
 14 13  1  1
 14 16  1  0
 14 15  1  0
 15  8  1  0
 16 17  1  0
 18 16  2  0
M  END
$$$$
