GNL.pdb
     RDKit          3D

 21 20  0  0  1  0  0  0  0  0999 V2000
    7.4791  -12.7316   18.6450 N   0  0  0  0  0  0  0  0  0  0  0  0
    8.6484  -13.0087   19.4536 C   0  0  0  0  0  0  0  0  0  0  0  0
    8.2327  -13.8685   20.6039 C   0  0  0  0  0  0  0  0  0  0  0  0
    7.1982  -13.5448   21.1905 O   0  0  0  0  0  0  0  0  0  0  0  0
    9.9089  -17.8973   19.5318 N   0  0  0  0  0  0  0  0  0  0  0  0
    9.0142  -17.8532   20.6242 C   0  0  0  0  0  0  0  0  0  0  0  0
    7.8548  -18.3527   20.3863 O   0  0  0  0  0  0  0  0  0  0  0  0
    9.3287  -17.2986   21.9337 C   0  0  0  0  0  0  0  0  0  0  0  0
    8.8261  -15.8813   22.0845 C   0  0  2  0  0  0  0  0  0  0  0  0
    8.9558  -14.9872   21.0186 N   0  0  0  0  0  0  0  0  0  0  0  0
    9.0426  -15.3573   23.4436 C   0  0  0  0  0  0  0  0  0  0  0  0
   10.1897  -14.8834   23.7775 O   0  0  0  0  0  0  0  0  0  0  0  0
    5.4652  -12.3235   26.2702 C   0  0  0  0  0  0  0  0  0  0  0  0
    6.7417  -12.8827   25.7299 C   0  0  1  0  0  0  0  0  0  0  0  0
    7.7302  -11.7186   25.6631 C   0  0  0  0  0  0  0  0  0  0  0  0
    7.2931  -14.0745   26.3655 C   0  0  0  0  0  0  0  0  0  0  0  0
    8.4010  -14.8513   25.8244 C   0  0  2  0  0  0  0  0  0  0  0  0
    8.0437  -15.3346   24.4484 N   0  0  0  0  0  0  0  0  0  0  0  0
    8.9990  -15.9558   26.5747 C   0  0  0  0  0  0  0  0  0  0  0  0
    9.1074  -17.2741   26.1744 O   0  0  0  0  0  0  0  0  0  0  0  0
    9.5003  -15.7670   27.7560 O   0  0  0  0  0  0  0  0  0  0  0  0
  1  2  1  0
  3  4  2  0
  3  2  1  0
  5  6  1  0
  6  7  2  0
  6  8  1  0
  9  8  1  6
  9 10  1  0
 10  3  1  0
 11  9  1  0
 11 12  2  0
 14 13  1  1
 14 15  1  0
 16 14  1  0
 17 18  1  0
 17 16  1  1
 18 11  1  0
 19 17  1  0
 20 19  1  0
 21 19  2  0
M  END
$$$$
