GNL.pdb
     RDKit          3D

 21 20  0  0  1  0  0  0  0  0999 V2000
    7.4765  -12.8600   18.6327 N   0  0  0  0  0  0  0  0  0  0  0  0
    8.4338  -12.7252   19.7113 C   0  0  0  0  0  0  0  0  0  0  0  0
    8.2056  -13.8361   20.6854 C   0  0  0  0  0  0  0  0  0  0  0  0
    7.0384  -14.0455   21.0216 O   0  0  0  0  0  0  0  0  0  0  0  0
   10.6985  -17.2978   19.4292 N   0  0  0  0  0  0  0  0  0  0  0  0
    9.8338  -17.4173   20.5398 C   0  0  0  0  0  0  0  0  0  0  0  0
    8.7440  -18.0549   20.3030 O   0  0  0  0  0  0  0  0  0  0  0  0
   10.1063  -16.8809   21.8663 C   0  0  0  0  0  0  0  0  0  0  0  0
    9.2915  -15.6411   22.1546 C   0  0  2  0  0  0  0  0  0  0  0  0
    9.2383  -14.6157   21.2069 N   0  0  0  0  0  0  0  0  0  0  0  0
    9.3527  -15.2545   23.5742 C   0  0  0  0  0  0  0  0  0  0  0  0
   10.3707  -14.6121   24.0249 O   0  0  0  0  0  0  0  0  0  0  0  0
    5.5146  -12.8208   26.2622 C   0  0  0  0  0  0  0  0  0  0  0  0
    6.9134  -13.2338   25.9354 C   0  0  1  0  0  0  0  0  0  0  0  0
    7.8075  -12.0416   26.2757 C   0  0  0  0  0  0  0  0  0  0  0  0
    7.4014  -14.4969   26.4783 C   0  0  0  0  0  0  0  0  0  0  0  0
    8.5599  -15.2152   25.9628 C   0  0  2  0  0  0  0  0  0  0  0  0
    8.3352  -15.5475   24.5160 N   0  0  0  0  0  0  0  0  0  0  0  0
    9.0930  -16.3954   26.6435 C   0  0  0  0  0  0  0  0  0  0  0  0
    9.2210  -17.6703   26.1256 O   0  0  0  0  0  0  0  0  0  0  0  0
    9.5072  -16.3289   27.8708 O   0  0  0  0  0  0  0  0  0  0  0  0
  1  2  1  0
  3  4  2  0
  3  2  1  0
  5  6  1  0
  6  7  2  0
  6  8  1  0
  9  8  1  6
  9 10  1  0
 10  3  1  0
 11  9  1  0
 11 12  2  0
 14 13  1  1
 14 15  1  0
 16 14  1  0
 17 18  1  0
 17 16  1  1
 18 11  1  0
 19 17  1  0
 20 19  1  0
 21 19  2  0
M  END
$$$$
