GNL.pdb
     RDKit          3D

 21 20  0  0  1  0  0  0  0  0999 V2000
   10.0861  -20.5298   22.6175 N   0  0  0  0  0  0  0  0  0  0  0  0
    8.9813  -19.5966   22.6972 C   0  0  0  0  0  0  0  0  0  0  0  0
    9.5376  -18.2092   22.7258 C   0  0  0  0  0  0  0  0  0  0  0  0
   10.7104  -18.0912   23.0863 O   0  0  0  0  0  0  0  0  0  0  0  0
    6.3988  -16.3768   21.6136 N   0  0  0  0  0  0  0  0  0  0  0  0
    7.0150  -15.2126   21.1032 C   0  0  0  0  0  0  0  0  0  0  0  0
    6.2633  -14.4984   20.3447 O   0  0  0  0  0  0  0  0  0  0  0  0
    8.3861  -14.8080   21.3820 C   0  0  0  0  0  0  0  0  0  0  0  0
    9.0474  -15.7095   22.3989 C   0  0  2  0  0  0  0  0  0  0  0  0
    8.7948  -17.0834   22.3691 N   0  0  0  0  0  0  0  0  0  0  0  0
    9.1631  -15.0664   23.7185 C   0  0  0  0  0  0  0  0  0  0  0  0
    9.8996  -14.0233   23.8658 O   0  0  0  0  0  0  0  0  0  0  0  0
    5.6536  -12.5316   26.4929 C   0  0  0  0  0  0  0  0  0  0  0  0
    7.0118  -12.9792   26.0584 C   0  0  1  0  0  0  0  0  0  0  0  0
    7.9310  -11.7651   26.1921 C   0  0  0  0  0  0  0  0  0  0  0  0
    7.5611  -14.1899   26.6591 C   0  0  0  0  0  0  0  0  0  0  0  0
    8.7721  -14.8554   26.1961 C   0  0  2  0  0  0  0  0  0  0  0  0
    8.4981  -15.5276   24.8817 N   0  0  0  0  0  0  0  0  0  0  0  0
    9.5137  -15.7784   27.0555 C   0  0  0  0  0  0  0  0  0  0  0  0
    9.9027  -17.0696   26.7532 O   0  0  0  0  0  0  0  0  0  0  0  0
    9.8803  -15.4307   28.2501 O   0  0  0  0  0  0  0  0  0  0  0  0
  1  2  1  0
  3  4  2  0
  3  2  1  0
  5  6  1  0
  6  7  2  0
  6  8  1  0
  9  8  1  6
  9 10  1  0
 10  3  1  0
 11  9  1  0
 11 12  2  0
 14 13  1  1
 14 15  1  0
 16 14  1  0
 17 18  1  0
 17 16  1  1
 18 11  1  0
 19 17  1  0
 20 19  1  0
 21 19  2  0
M  END
$$$$
