GNL.pdb
     RDKit          3D

 21 20  0  0  1  0  0  0  0  0999 V2000
    5.6742  -19.4631   21.5498 N   0  0  0  0  0  0  0  0  0  0  0  0
    5.3637  -18.1359   22.0398 C   0  0  0  0  0  0  0  0  0  0  0  0
    6.5834  -17.2834   21.8960 C   0  0  0  0  0  0  0  0  0  0  0  0
    7.6714  -17.8508   22.0126 O   0  0  0  0  0  0  0  0  0  0  0  0
    8.8321  -12.2878   19.4427 N   0  0  0  0  0  0  0  0  0  0  0  0
    8.1619  -13.4805   19.7944 C   0  0  0  0  0  0  0  0  0  0  0  0
    8.4308  -14.4867   19.0424 O   0  0  0  0  0  0  0  0  0  0  0  0
    7.2324  -13.6138   20.9078 C   0  0  0  0  0  0  0  0  0  0  0  0
    7.4702  -14.8814   21.6958 C   0  0  2  0  0  0  0  0  0  0  0  0
    6.5287  -15.9125   21.6427 N   0  0  0  0  0  0  0  0  0  0  0  0
    8.1180  -14.6163   22.9913 C   0  0  0  0  0  0  0  0  0  0  0  0
    9.2306  -13.9743   23.0372 O   0  0  0  0  0  0  0  0  0  0  0  0
    5.7120  -12.3459   26.9312 C   0  0  0  0  0  0  0  0  0  0  0  0
    6.8871  -12.7557   26.1035 C   0  0  1  0  0  0  0  0  0  0  0  0
    7.8373  -11.5585   26.0782 C   0  0  0  0  0  0  0  0  0  0  0  0
    7.5503  -14.0141   26.4273 C   0  0  0  0  0  0  0  0  0  0  0  0
    8.3725  -14.7696   25.4908 C   0  0  2  0  0  0  0  0  0  0  0  0
    7.5868  -15.0303   24.2381 N   0  0  0  0  0  0  0  0  0  0  0  0
    9.0505  -16.0028   25.8909 C   0  0  0  0  0  0  0  0  0  0  0  0
    9.0459  -17.2121   25.2219 O   0  0  0  0  0  0  0  0  0  0  0  0
    9.7488  -16.0575   26.9826 O   0  0  0  0  0  0  0  0  0  0  0  0
  1  2  1  0
  3  4  2  0
  3  2  1  0
  5  6  1  0
  6  7  2  0
  6  8  1  0
  9  8  1  1
  9 10  1  0
 10  3  1  0
 11  9  1  0
 11 12  2  0
 14 13  1  1
 14 15  1  0
 16 14  1  0
 17 18  1  0
 17 16  1  1
 18 11  1  0
 19 17  1  0
 20 19  1  0
 21 19  2  0
M  END
$$$$
