GNL.pdb
     RDKit          3D

 21 20  0  0  1  0  0  0  0  0999 V2000
    7.3799  -18.9838   19.6999 N   0  0  0  0  0  0  0  0  0  0  0  0
    6.8219  -18.2689   20.8294 C   0  0  0  0  0  0  0  0  0  0  0  0
    7.7760  -17.1859   21.2193 C   0  0  0  0  0  0  0  0  0  0  0  0
    8.8696  -17.5450   21.6603 O   0  0  0  0  0  0  0  0  0  0  0  0
    8.5696  -12.1854   18.8052 N   0  0  0  0  0  0  0  0  0  0  0  0
    7.9767  -13.2793   19.4740 C   0  0  0  0  0  0  0  0  0  0  0  0
    7.6704  -14.2686   18.7139 O   0  0  0  0  0  0  0  0  0  0  0  0
    7.7118  -13.3336   20.9052 C   0  0  0  0  0  0  0  0  0  0  0  0
    8.1221  -14.6575   21.5076 C   0  0  2  0  0  0  0  0  0  0  0  0
    7.4759  -15.8285   21.1031 N   0  0  0  0  0  0  0  0  0  0  0  0
    8.4786  -14.5329   22.9310 C   0  0  0  0  0  0  0  0  0  0  0  0
    9.3843  -13.6985   23.2989 O   0  0  0  0  0  0  0  0  0  0  0  0
    5.8890  -12.1303   26.6672 C   0  0  0  0  0  0  0  0  0  0  0  0
    7.1045  -12.7738   26.0819 C   0  0  1  0  0  0  0  0  0  0  0  0
    8.3059  -12.1751   26.8133 C   0  0  0  0  0  0  0  0  0  0  0  0
    7.1410  -14.2302   26.0045 C   0  0  0  0  0  0  0  0  0  0  0  0
    8.2243  -14.9895   25.3932 C   0  0  2  0  0  0  0  0  0  0  0  0
    7.8749  -15.2915   23.9645 N   0  0  0  0  0  0  0  0  0  0  0  0
    8.7564  -16.2008   26.0178 C   0  0  0  0  0  0  0  0  0  0  0  0
    9.5694  -16.2762   27.1328 O   0  0  0  0  0  0  0  0  0  0  0  0
    8.4914  -17.3743   25.5331 O   0  0  0  0  0  0  0  0  0  0  0  0
  1  2  1  0
  3  4  2  0
  3  2  1  0
  5  6  1  0
  6  7  2  0
  6  8  1  0
  9  8  1  1
  9 10  1  0
 10  3  1  0
 11  9  1  0
 11 12  2  0
 14 13  1  1
 14 15  1  0
 16 14  1  0
 17 18  1  0
 17 16  1  1
 18 11  1  0
 19 17  1  0
 20 19  1  0
 21 19  2  0
M  END
$$$$
