GNL.pdb
     RDKit          3D

 21 20  0  0  1  0  0  0  0  0999 V2000
    5.2449  -18.8843   21.8621 N   0  0  0  0  0  0  0  0  0  0  0  0
    5.2897  -17.4394   21.7704 C   0  0  0  0  0  0  0  0  0  0  0  0
    6.7002  -16.9968   21.9935 C   0  0  0  0  0  0  0  0  0  0  0  0
    7.4869  -17.8479   22.4128 O   0  0  0  0  0  0  0  0  0  0  0  0
    7.0047  -13.0139   19.4309 N   0  0  0  0  0  0  0  0  0  0  0  0
    8.0404  -13.8916   19.8214 C   0  0  0  0  0  0  0  0  0  0  0  0
    8.3616  -14.7666   18.9373 O   0  0  0  0  0  0  0  0  0  0  0  0
    8.7222  -13.8520   21.1078 C   0  0  0  0  0  0  0  0  0  0  0  0
    8.3343  -15.0156   21.9909 C   0  0  2  0  0  0  0  0  0  0  0  0
    7.1372  -15.6946   21.7496 N   0  0  0  0  0  0  0  0  0  0  0  0
    8.7255  -14.8017   23.3943 C   0  0  0  0  0  0  0  0  0  0  0  0
    9.8817  -14.3154   23.6752 O   0  0  0  0  0  0  0  0  0  0  0  0
    5.7689  -12.2650   26.9314 C   0  0  0  0  0  0  0  0  0  0  0  0
    6.9703  -12.8133   26.2313 C   0  0  1  0  0  0  0  0  0  0  0  0
    8.0240  -11.7060   26.2481 C   0  0  0  0  0  0  0  0  0  0  0  0
    7.4850  -14.1086   26.6620 C   0  0  0  0  0  0  0  0  0  0  0  0
    8.4245  -14.9126   25.8909 C   0  0  2  0  0  0  0  0  0  0  0  0
    7.8916  -15.1019   24.5000 N   0  0  0  0  0  0  0  0  0  0  0  0
    8.9203  -16.1962   26.3880 C   0  0  0  0  0  0  0  0  0  0  0  0
    8.9063  -17.4089   25.7254 O   0  0  0  0  0  0  0  0  0  0  0  0
    9.4394  -16.2988   27.5722 O   0  0  0  0  0  0  0  0  0  0  0  0
  1  2  1  0
  3  4  2  0
  3  2  1  0
  5  6  1  0
  6  7  2  0
  6  8  1  0
  9  8  1  1
  9 10  1  0
 10  3  1  0
 11  9  1  0
 11 12  2  0
 14 13  1  1
 14 15  1  0
 16 14  1  0
 17 18  1  0
 17 16  1  1
 18 11  1  0
 19 17  1  0
 20 19  1  0
 21 19  2  0
M  END
$$$$
