GNL.pdb
     RDKit          3D

 21 20  0  0  1  0  0  0  0  0999 V2000
    9.2355  -20.6723   22.0190 N   0  0  0  0  0  0  0  0  0  0  0  0
    8.3157  -19.5535   22.0334 C   0  0  0  0  0  0  0  0  0  0  0  0
    9.1037  -18.2982   22.2293 C   0  0  0  0  0  0  0  0  0  0  0  0
   10.2688  -18.4305   22.6091 O   0  0  0  0  0  0  0  0  0  0  0  0
    6.5420  -13.2976   21.2528 N   0  0  0  0  0  0  0  0  0  0  0  0
    7.2503  -14.5053   21.0658 C   0  0  0  0  0  0  0  0  0  0  0  0
    6.5155  -15.5152   20.7649 O   0  0  0  0  0  0  0  0  0  0  0  0
    8.6942  -14.6496   21.1912 C   0  0  0  0  0  0  0  0  0  0  0  0
    9.0721  -15.7307   22.1774 C   0  0  2  0  0  0  0  0  0  0  0  0
    8.5779  -17.0260   22.0029 N   0  0  0  0  0  0  0  0  0  0  0  0
    9.1668  -15.2173   23.5544 C   0  0  0  0  0  0  0  0  0  0  0  0
    9.9259  -14.2143   23.8185 O   0  0  0  0  0  0  0  0  0  0  0  0
    5.6962  -12.7260   26.2631 C   0  0  0  0  0  0  0  0  0  0  0  0
    7.0850  -13.1917   25.9657 C   0  0  1  0  0  0  0  0  0  0  0  0
    8.0212  -12.0606   26.3910 C   0  0  0  0  0  0  0  0  0  0  0  0
    7.4930  -14.4998   26.4663 C   0  0  0  0  0  0  0  0  0  0  0  0
    8.6884  -15.2074   26.0255 C   0  0  2  0  0  0  0  0  0  0  0  0
    8.4568  -15.7659   24.6512 N   0  0  0  0  0  0  0  0  0  0  0  0
    9.3185  -16.2346   26.8552 C   0  0  0  0  0  0  0  0  0  0  0  0
    9.8522  -16.0739   28.1198 O   0  0  0  0  0  0  0  0  0  0  0  0
    9.4370  -17.4551   26.4326 O   0  0  0  0  0  0  0  0  0  0  0  0
  1  2  1  0
  3  4  2  0
  3  2  1  0
  5  6  1  0
  6  7  2  0
  6  8  1  0
  9  8  1  6
  9 10  1  0
 10  3  1  0
 11  9  1  0
 11 12  2  0
 14 13  1  1
 14 15  1  0
 16 14  1  0
 17 18  1  0
 17 16  1  1
 18 11  1  0
 19 17  1  0
 20 19  1  0
 21 19  2  0
M  END
$$$$
