GNL.pdb
     RDKit          3D

 21 20  0  0  1  0  0  0  0  0999 V2000
   10.9265  -17.2805   18.8949 N   0  0  0  0  0  0  0  0  0  0  0  0
   10.8151  -17.9393   20.1801 C   0  0  0  0  0  0  0  0  0  0  0  0
    9.7398  -17.2602   20.9660 C   0  0  0  0  0  0  0  0  0  0  0  0
    9.6971  -16.0303   20.8965 O   0  0  0  0  0  0  0  0  0  0  0  0
    4.6980  -17.7512   23.2964 N   0  0  0  0  0  0  0  0  0  0  0  0
    5.8661  -18.0703   24.0238 C   0  0  0  0  0  0  0  0  0  0  0  0
    5.7915  -17.8363   25.2848 O   0  0  0  0  0  0  0  0  0  0  0  0
    7.0824  -18.6214   23.4422 C   0  0  0  0  0  0  0  0  0  0  0  0
    7.8974  -17.5674   22.7286 C   0  0  2  0  0  0  0  0  0  0  0  0
    8.8154  -17.9529   21.7483 N   0  0  0  0  0  0  0  0  0  0  0  0
    8.2795  -16.4616   23.6229 C   0  0  0  0  0  0  0  0  0  0  0  0
    8.1746  -15.2440   23.2250 O   0  0  0  0  0  0  0  0  0  0  0  0
    8.0548  -12.1798   25.9722 C   0  0  0  0  0  0  0  0  0  0  0  0
    7.4367  -13.4312   26.5069 C   0  0  1  0  0  0  0  0  0  0  0  0
    5.9580  -13.1194   26.7373 C   0  0  0  0  0  0  0  0  0  0  0  0
    7.6591  -14.6740   25.7760 C   0  0  0  0  0  0  0  0  0  0  0  0
    8.8854  -15.4579   25.8503 C   0  0  2  0  0  0  0  0  0  0  0  0
    8.7717  -16.6458   24.9389 N   0  0  0  0  0  0  0  0  0  0  0  0
    9.4370  -15.8951   27.1329 C   0  0  0  0  0  0  0  0  0  0  0  0
   10.4259  -15.2729   27.8712 O   0  0  0  0  0  0  0  0  0  0  0  0
    9.0138  -16.9777   27.7083 O   0  0  0  0  0  0  0  0  0  0  0  0
  1  2  1  0
  3  4  2  0
  3  2  1  0
  5  6  1  0
  6  7  2  0
  6  8  1  0
  9  8  1  1
  9 10  1  0
 10  3  1  0
 11  9  1  0
 11 12  2  0
 14 13  1  6
 14 15  1  0
 16 14  1  0
 17 18  1  0
 17 16  1  1
 18 11  1  0
 19 17  1  0
 20 19  1  0
 21 19  2  0
M  END
$$$$
