GNL.pdb
     RDKit          3D

 21 20  0  0  1  0  0  0  0  0999 V2000
    7.3120  -12.8919   18.8308 N   0  0  0  0  0  0  0  0  0  0  0  0
    8.4850  -12.9474   19.6788 C   0  0  0  0  0  0  0  0  0  0  0  0
    8.2405  -13.9552   20.7557 C   0  0  0  0  0  0  0  0  0  0  0  0
    7.1077  -13.9825   21.2405 O   0  0  0  0  0  0  0  0  0  0  0  0
   10.6586  -17.6398   19.6361 N   0  0  0  0  0  0  0  0  0  0  0  0
    9.7940  -17.6793   20.7525 C   0  0  0  0  0  0  0  0  0  0  0  0
    8.7022  -18.3286   20.5606 O   0  0  0  0  0  0  0  0  0  0  0  0
   10.0686  -17.0531   22.0385 C   0  0  0  0  0  0  0  0  0  0  0  0
    9.2677  -15.7865   22.2345 C   0  0  2  0  0  0  0  0  0  0  0  0
    9.2223  -14.8349   21.2124 N   0  0  0  0  0  0  0  0  0  0  0  0
    9.3376  -15.2947   23.6208 C   0  0  0  0  0  0  0  0  0  0  0  0
   10.4368  -14.8116   24.0797 O   0  0  0  0  0  0  0  0  0  0  0  0
    5.4836  -12.4361   26.3234 C   0  0  0  0  0  0  0  0  0  0  0  0
    6.8009  -12.9600   25.8496 C   0  0  1  0  0  0  0  0  0  0  0  0
    7.7888  -11.7974   25.9452 C   0  0  0  0  0  0  0  0  0  0  0  0
    7.3020  -14.1956   26.4416 C   0  0  0  0  0  0  0  0  0  0  0  0
    8.4664  -14.9228   25.9529 C   0  0  2  0  0  0  0  0  0  0  0  0
    8.2430  -15.3137   24.5205 N   0  0  0  0  0  0  0  0  0  0  0  0
    9.0113  -16.0705   26.6784 C   0  0  0  0  0  0  0  0  0  0  0  0
    9.1739  -17.3577   26.2023 O   0  0  0  0  0  0  0  0  0  0  0  0
    9.4027  -15.9581   27.9099 O   0  0  0  0  0  0  0  0  0  0  0  0
  1  2  1  0
  3  4  2  0
  3  2  1  0
  5  6  1  0
  6  7  2  0
  6  8  1  0
  9  8  1  6
  9 10  1  0
 10  3  1  0
 11  9  1  0
 11 12  2  0
 14 13  1  1
 14 15  1  0
 16 14  1  0
 17 18  1  0
 17 16  1  1
 18 11  1  0
 19 17  1  0
 20 19  1  0
 21 19  2  0
M  END
$$$$
