GNL.pdb
     RDKit          3D

 21 20  0  0  1  0  0  0  0  0999 V2000
    5.5564  -20.2176   20.6057 N   0  0  0  0  0  0  0  0  0  0  0  0
    6.8066  -19.9623   21.2913 C   0  0  0  0  0  0  0  0  0  0  0  0
    6.5055  -19.2478   22.5696 C   0  0  0  0  0  0  0  0  0  0  0  0
    5.4809  -18.5632   22.5921 O   0  0  0  0  0  0  0  0  0  0  0  0
    5.8803  -20.9668   25.6571 N   0  0  0  0  0  0  0  0  0  0  0  0
    6.9573  -20.5308   26.4605 C   0  0  0  0  0  0  0  0  0  0  0  0
    7.1585  -21.2374   27.5144 O   0  0  0  0  0  0  0  0  0  0  0  0
    7.8023  -19.3819   26.1651 C   0  0  0  0  0  0  0  0  0  0  0  0
    7.3524  -18.6528   24.9200 C   0  0  2  0  0  0  0  0  0  0  0  0
    7.3214  -19.3301   23.6982 N   0  0  0  0  0  0  0  0  0  0  0  0
    7.7941  -17.2481   24.9093 C   0  0  0  0  0  0  0  0  0  0  0  0
    8.8903  -16.9206   24.3235 O   0  0  0  0  0  0  0  0  0  0  0  0
    5.6719  -11.5211   26.1930 C   0  0  0  0  0  0  0  0  0  0  0  0
    6.8470  -12.3995   25.9075 C   0  0  1  0  0  0  0  0  0  0  0  0
    7.9162  -12.0410   26.9395 C   0  0  0  0  0  0  0  0  0  0  0  0
    6.6181  -13.8352   25.7860 C   0  0  0  0  0  0  0  0  0  0  0  0
    7.6689  -14.8117   25.5290 C   0  0  2  0  0  0  0  0  0  0  0  0
    7.0741  -16.1903   25.5182 N   0  0  0  0  0  0  0  0  0  0  0  0
    8.9021  -14.8331   26.3160 C   0  0  0  0  0  0  0  0  0  0  0  0
    9.0804  -15.3803   27.5725 O   0  0  0  0  0  0  0  0  0  0  0  0
    9.9929  -14.2967   25.8637 O   0  0  0  0  0  0  0  0  0  0  0  0
  1  2  1  0
  3  4  2  0
  3  2  1  0
  5  6  1  0
  6  7  2  0
  6  8  1  0
  9  8  1  1
  9 10  1  0
 10  3  1  0
 11  9  1  0
 11 12  2  0
 14 13  1  1
 14 15  1  0
 16 14  1  0
 17 18  1  0
 17 16  1  1
 18 11  1  0
 19 17  1  0
 20 19  1  0
 21 19  2  0
M  END
$$$$
