GNL.pdb
     RDKit          3D

 21 20  0  0  1  0  0  0  0  0999 V2000
   -2.0915  -25.3804   27.8517 N   0  0  0  0  0  0  0  0  0  0  0  0
   -2.9855  -25.4541   28.9890 C   0  0  0  0  0  0  0  0  0  0  0  0
   -3.7779  -24.1877   29.0482 C   0  0  0  0  0  0  0  0  0  0  0  0
   -3.8178  -23.6110   30.1367 O   0  0  0  0  0  0  0  0  0  0  0  0
   -2.7724  -21.2462   27.2874 N   0  0  0  0  0  0  0  0  0  0  0  0
   -3.8191  -21.1210   26.3469 C   0  0  0  0  0  0  0  0  0  0  0  0
   -3.5326  -20.4038   25.3203 O   0  0  0  0  0  0  0  0  0  0  0  0
   -5.1337  -21.7335   26.4806 C   0  0  0  0  0  0  0  0  0  0  0  0
   -5.2587  -22.5345   27.7561 C   0  0  2  0  0  0  0  0  0  0  0  0
   -4.4499  -23.6578   27.9464 N   0  0  0  0  0  0  0  0  0  0  0  0
   -6.6508  -22.6089   28.2306 C   0  0  0  0  0  0  0  0  0  0  0  0
   -7.5809  -21.9814   27.6034 O   0  0  0  0  0  0  0  0  0  0  0  0
  -10.4899  -26.7415   30.3362 C   0  0  0  0  0  0  0  0  0  0  0  0
  -10.2393  -25.2712   30.2385 C   0  0  1  0  0  0  0  0  0  0  0  0
  -10.7646  -24.6554   31.5352 C   0  0  0  0  0  0  0  0  0  0  0  0
   -8.8950  -24.8251   29.8889 C   0  0  0  0  0  0  0  0  0  0  0  0
   -8.5189  -23.4293   29.7046 C   0  0  2  0  0  0  0  0  0  0  0  0
   -7.0577  -23.3486   29.3686 N   0  0  0  0  0  0  0  0  0  0  0  0
   -8.8312  -22.4140   30.7107 C   0  0  0  0  0  0  0  0  0  0  0  0
  -10.0089  -21.7026   30.8403 O   0  0  0  0  0  0  0  0  0  0  0  0
   -7.9626  -22.0786   31.6136 O   0  0  0  0  0  0  0  0  0  0  0  0
  1  2  1  0
  3  4  2  0
  3  2  1  0
  5  6  1  0
  6  7  2  0
  6  8  1  0
  9  8  1  6
  9 10  1  0
 10  3  1  0
 11  9  1  0
 11 12  2  0
 14 13  1  1
 14 15  1  0
 16 14  1  0
 17 18  1  0
 17 16  1  1
 18 11  1  0
 19 17  1  0
 20 19  1  0
 21 19  2  0
M  END
$$$$
