GNL.pdb
     RDKit          3D

 21 20  0  0  1  0  0  0  0  0999 V2000
    4.9920  -18.3254   20.5459 N   0  0  0  0  0  0  0  0  0  0  0  0
    5.0618  -17.0667   21.2592 C   0  0  0  0  0  0  0  0  0  0  0  0
    6.5014  -16.7324   21.4850 C   0  0  0  0  0  0  0  0  0  0  0  0
    7.2554  -17.6750   21.7339 O   0  0  0  0  0  0  0  0  0  0  0  0
    7.1991  -12.7168   19.1112 N   0  0  0  0  0  0  0  0  0  0  0  0
    8.1760  -13.6164   19.5928 C   0  0  0  0  0  0  0  0  0  0  0  0
    8.6035  -14.4583   18.7216 O   0  0  0  0  0  0  0  0  0  0  0  0
    8.6916  -13.6320   20.9549 C   0  0  0  0  0  0  0  0  0  0  0  0
    8.2379  -14.8547   21.7186 C   0  0  2  0  0  0  0  0  0  0  0  0
    6.9993  -15.4305   21.4245 N   0  0  0  0  0  0  0  0  0  0  0  0
    8.6511  -14.8116   23.1314 C   0  0  0  0  0  0  0  0  0  0  0  0
    9.8644  -14.5211   23.4404 O   0  0  0  0  0  0  0  0  0  0  0  0
    5.5927  -12.3220   26.6780 C   0  0  0  0  0  0  0  0  0  0  0  0
    6.8405  -12.8243   26.0264 C   0  0  1  0  0  0  0  0  0  0  0  0
    7.8896  -11.7254   26.1954 C   0  0  0  0  0  0  0  0  0  0  0  0
    7.3249  -14.1490   26.3990 C   0  0  0  0  0  0  0  0  0  0  0  0
    8.2883  -14.9162   25.6200 C   0  0  2  0  0  0  0  0  0  0  0  0
    7.7788  -15.0751   24.2166 N   0  0  0  0  0  0  0  0  0  0  0  0
    8.7975  -16.2053   26.0887 C   0  0  0  0  0  0  0  0  0  0  0  0
    8.7549  -17.4128   25.4178 O   0  0  0  0  0  0  0  0  0  0  0  0
    9.3593  -16.3188   27.2522 O   0  0  0  0  0  0  0  0  0  0  0  0
  1  2  1  0
  3  4  2  0
  3  2  1  0
  5  6  1  0
  6  7  2  0
  6  8  1  0
  9  8  1  1
  9 10  1  0
 10  3  1  0
 11  9  1  0
 11 12  2  0
 14 13  1  1
 14 15  1  0
 16 14  1  0
 17 18  1  0
 17 16  1  1
 18 11  1  0
 19 17  1  0
 20 19  1  0
 21 19  2  0
M  END
$$$$
