GNL.pdb
     RDKit          3D

 21 20  0  0  1  0  0  0  0  0999 V2000
    7.8359  -14.2195   18.4032 N   0  0  0  0  0  0  0  0  0  0  0  0
    8.0731  -13.4166   19.5852 C   0  0  0  0  0  0  0  0  0  0  0  0
    8.0652  -14.3190   20.7771 C   0  0  0  0  0  0  0  0  0  0  0  0
    7.0553  -14.2932   21.4833 O   0  0  0  0  0  0  0  0  0  0  0  0
   11.4473  -17.4576   19.7001 N   0  0  0  0  0  0  0  0  0  0  0  0
   10.4147  -17.6678   20.6409 C   0  0  0  0  0  0  0  0  0  0  0  0
    9.4412  -18.3893   20.2142 O   0  0  0  0  0  0  0  0  0  0  0  0
   10.4042  -17.1340   21.9960 C   0  0  0  0  0  0  0  0  0  0  0  0
    9.3821  -16.0333   22.1636 C   0  0  2  0  0  0  0  0  0  0  0  0
    9.1296  -15.1601   21.1024 N   0  0  0  0  0  0  0  0  0  0  0  0
    9.3932  -15.4680   23.5233 C   0  0  0  0  0  0  0  0  0  0  0  0
   10.2994  -14.6223   23.8634 O   0  0  0  0  0  0  0  0  0  0  0  0
    5.9777  -12.2272   26.3681 C   0  0  0  0  0  0  0  0  0  0  0  0
    7.2650  -12.8986   26.0130 C   0  0  1  0  0  0  0  0  0  0  0  0
    8.3572  -12.1934   26.8171 C   0  0  0  0  0  0  0  0  0  0  0  0
    7.3287  -14.3533   26.1022 C   0  0  0  0  0  0  0  0  0  0  0  0
    8.5358  -15.1349   25.8663 C   0  0  2  0  0  0  0  0  0  0  0  0
    8.4439  -15.7979   24.5223 N   0  0  0  0  0  0  0  0  0  0  0  0
    9.0188  -16.1099   26.8444 C   0  0  0  0  0  0  0  0  0  0  0  0
    9.6948  -15.8468   28.0207 O   0  0  0  0  0  0  0  0  0  0  0  0
    8.8417  -17.3820   26.6633 O   0  0  0  0  0  0  0  0  0  0  0  0
  1  2  1  0
  3  4  2  0
  3  2  1  0
  5  6  1  0
  6  7  2  0
  6  8  1  0
  9  8  1  6
  9 10  1  0
 10  3  1  0
 11  9  1  0
 11 12  2  0
 14 13  1  1
 14 15  1  0
 16 14  1  0
 17 18  1  0
 17 16  1  1
 18 11  1  0
 19 17  1  0
 20 19  1  0
 21 19  2  0
M  END
$$$$
