MWD.pdb
     RDKit          3D

 31 32  0  0  1  0  0  0  0  0999 V2000
    6.9350  -11.5814   19.7567 C   0  0  0  0  0  0  0  0  0  0  0  0
    6.8131  -12.9741   18.6199 S   0  0  0  0  0  0  0  0  0  0  0  0
    7.3798  -14.5131   19.3426 C   0  0  0  0  0  0  0  0  0  0  0  0
    8.3997  -14.2649   20.4524 C   0  0  0  0  0  0  0  0  0  0  0  0
    8.7987  -15.6269   20.9711 C   0  0  2  0  0  0  0  0  0  0  0  0
    7.6235  -16.4464   21.0737 N   0  0  0  0  0  0  0  0  0  0  0  0
    9.4795  -15.5843   22.2724 C   0  0  0  0  0  0  0  0  0  0  0  0
   10.5031  -14.8749   22.4008 O   0  0  0  0  0  0  0  0  0  0  0  0
    9.0431  -16.3119   23.4215 N   0  0  0  0  0  0  0  0  0  0  0  0
    9.7223  -16.2870   24.6882 C   0  0  1  0  0  0  0  0  0  0  0  0
    8.8198  -16.3220   25.8931 C   0  0  0  0  0  0  0  0  0  0  0  0
    7.6746  -15.4050   25.8430 C   0  0  0  0  0  0  0  0  0  0  0  0
    6.3728  -15.7313   25.5267 C   0  0  0  0  0  0  0  0  0  0  0  0
    5.6132  -14.6261   25.5687 N   0  0  0  0  0  0  0  0  0  0  0  0
    6.3708  -13.5671   25.9053 C   0  0  0  0  0  0  0  0  0  0  0  0
    6.0769  -12.2138   26.0899 C   0  0  0  0  0  0  0  0  0  0  0  0
    7.0569  -11.3160   26.4494 C   0  0  0  0  0  0  0  0  0  0  0  0
    8.3363  -11.7878   26.6223 C   0  0  0  0  0  0  0  0  0  0  0  0
    8.6258  -13.1206   26.4405 C   0  0  0  0  0  0  0  0  0  0  0  0
    7.6621  -14.0532   26.0778 C   0  0  0  0  0  0  0  0  0  0  0  0
   10.7753  -17.3446   24.7664 C   0  0  0  0  0  0  0  0  0  0  0  0
   10.5271  -18.5505   24.5093 O   0  0  0  0  0  0  0  0  0  0  0  0
   12.1239  -17.0168   25.1427 N   0  0  0  0  0  0  0  0  0  0  0  0
   13.1103  -18.0765   25.2343 C   0  0  1  0  0  0  0  0  0  0  0  0
   14.4991  -17.5745   25.0028 C   0  0  0  0  0  0  0  0  0  0  0  0
   14.6643  -16.7789   23.7954 C   0  0  0  0  0  0  0  0  0  0  0  0
   14.1708  -17.1527   22.7115 O   0  0  0  0  0  0  0  0  0  0  0  0
   12.9833  -18.8075   26.5309 C   0  0  0  0  0  0  0  0  0  0  0  0
   13.6890  -19.8093   26.8003 O   0  0  0  0  0  0  0  0  0  0  0  0
   15.3702  -15.5961   23.8298 O   0  0  0  0  0  0  0  0  0  0  0  0
   12.0705  -18.3962   27.4882 O   0  0  0  0  0  0  0  0  0  0  0  0
  2  1  1  0
  3  2  1  0
  4  3  1  0
  5  4  1  0
  5  6  1  1
  7  5  1  0
  8  7  2  0
  9  7  1  0
 10  9  1  0
 11 12  1  0
 10 11  1  1
 12 20  1  0
 12 13  2  0
 13 14  1  0
 15 14  1  0
 15 16  2  0
 17 16  1  0
 18 17  2  0
 19 20  2  0
 19 18  1  0
 20 15  1  0
 21 22  2  0
 21 10  1  0
 23 21  1  0
 24 23  1  0
 24 25  1  1
 26 25  1  0
 27 26  2  0
 28 24  1  0
 29 28  2  0
 30 26  1  0
 31 28  1  0
M  END
$$$$
