MWD.pdb
     RDKit          3D

 31 32  0  0  1  0  0  0  0  0999 V2000
    7.6210  -11.5647   19.6037 C   0  0  0  0  0  0  0  0  0  0  0  0
    7.2022  -12.9899   18.5838 S   0  0  0  0  0  0  0  0  0  0  0  0
    7.7421  -14.5410   19.3013 C   0  0  0  0  0  0  0  0  0  0  0  0
    8.2944  -14.3399   20.7113 C   0  0  0  0  0  0  0  0  0  0  0  0
    8.8247  -15.6844   21.1524 C   0  0  2  0  0  0  0  0  0  0  0  0
    7.7557  -16.6425   21.1053 N   0  0  0  0  0  0  0  0  0  0  0  0
    9.4107  -15.6722   22.4996 C   0  0  0  0  0  0  0  0  0  0  0  0
   10.3694  -14.9035   22.7395 O   0  0  0  0  0  0  0  0  0  0  0  0
    8.9507  -16.4942   23.5735 N   0  0  0  0  0  0  0  0  0  0  0  0
    9.5246  -16.4818   24.8914 C   0  0  1  0  0  0  0  0  0  0  0  0
    8.5265  -16.5071   26.0186 C   0  0  0  0  0  0  0  0  0  0  0  0
    7.4599  -15.5023   25.9316 C   0  0  0  0  0  0  0  0  0  0  0  0
    6.1493  -15.7235   25.5649 C   0  0  0  0  0  0  0  0  0  0  0  0
    5.4782  -14.5618   25.5855 N   0  0  0  0  0  0  0  0  0  0  0  0
    6.3038  -13.5672   25.9569 C   0  0  0  0  0  0  0  0  0  0  0  0
    6.1108  -12.1955   26.1390 C   0  0  0  0  0  0  0  0  0  0  0  0
    7.1444  -11.3793   26.5405 C   0  0  0  0  0  0  0  0  0  0  0  0
    8.3751  -11.9514   26.7581 C   0  0  0  0  0  0  0  0  0  0  0  0
    8.5652  -13.3022   26.5787 C   0  0  0  0  0  0  0  0  0  0  0  0
    7.5453  -14.1545   26.1744 C   0  0  0  0  0  0  0  0  0  0  0  0
   10.5532  -17.5541   25.0514 C   0  0  0  0  0  0  0  0  0  0  0  0
   10.3015  -18.7601   24.7982 O   0  0  0  0  0  0  0  0  0  0  0  0
   11.8811  -17.2411   25.5057 N   0  0  0  0  0  0  0  0  0  0  0  0
   12.8031  -18.3228   25.7956 C   0  0  1  0  0  0  0  0  0  0  0  0
   14.2292  -17.9068   25.6303 C   0  0  0  0  0  0  0  0  0  0  0  0
   14.5624  -17.3897   24.3113 C   0  0  0  0  0  0  0  0  0  0  0  0
   13.9361  -17.7679   23.3000 O   0  0  0  0  0  0  0  0  0  0  0  0
   12.5362  -18.8979   27.1484 C   0  0  0  0  0  0  0  0  0  0  0  0
   11.7241  -18.3700   27.9458 O   0  0  0  0  0  0  0  0  0  0  0  0
   15.5777  -16.4710   24.1575 O   0  0  0  0  0  0  0  0  0  0  0  0
   13.1856  -20.0467   27.5691 O   0  0  0  0  0  0  0  0  0  0  0  0
  2  1  1  0
  3  2  1  0
  4  3  1  0
  5  4  1  0
  5  6  1  1
  7  5  1  0
  8  7  2  0
  9  7  1  0
 10  9  1  0
 11 12  1  0
 10 11  1  1
 12 20  1  0
 12 13  2  0
 13 14  1  0
 15 14  1  0
 15 16  2  0
 17 16  1  0
 18 17  2  0
 19 20  2  0
 19 18  1  0
 20 15  1  0
 21 22  2  0
 21 10  1  0
 23 21  1  0
 24 23  1  0
 24 25  1  1
 26 25  1  0
 27 26  2  0
 28 24  1  0
 29 28  2  0
 30 26  1  0
 31 28  1  0
M  END
$$$$
