MWD.pdb
     RDKit          3D

 31 32  0  0  1  0  0  0  0  0999 V2000
    6.7896  -11.6122   19.6078 C   0  0  0  0  0  0  0  0  0  0  0  0
    6.8293  -13.0547   18.5288 S   0  0  0  0  0  0  0  0  0  0  0  0
    7.2692  -14.5600   19.3964 C   0  0  0  0  0  0  0  0  0  0  0  0
    8.0388  -14.2577   20.6809 C   0  0  0  0  0  0  0  0  0  0  0  0
    8.6637  -15.5632   21.1154 C   0  0  2  0  0  0  0  0  0  0  0  0
    7.6395  -16.5680   21.1815 N   0  0  0  0  0  0  0  0  0  0  0  0
    9.3534  -15.4828   22.4101 C   0  0  0  0  0  0  0  0  0  0  0  0
   10.2309  -14.6058   22.5789 O   0  0  0  0  0  0  0  0  0  0  0  0
    9.0842  -16.3546   23.5091 N   0  0  0  0  0  0  0  0  0  0  0  0
    9.7836  -16.2979   24.7638 C   0  0  1  0  0  0  0  0  0  0  0  0
    8.9046  -16.3685   25.9843 C   0  0  0  0  0  0  0  0  0  0  0  0
    7.7045  -15.5243   25.9398 C   0  0  0  0  0  0  0  0  0  0  0  0
    6.4261  -15.9282   25.6177 C   0  0  0  0  0  0  0  0  0  0  0  0
    5.5990  -14.8728   25.6680 N   0  0  0  0  0  0  0  0  0  0  0  0
    6.2886  -13.7718   26.0157 C   0  0  0  0  0  0  0  0  0  0  0  0
    5.9106  -12.4412   26.2118 C   0  0  0  0  0  0  0  0  0  0  0  0
    6.8322  -11.4874   26.5814 C   0  0  0  0  0  0  0  0  0  0  0  0
    8.1382  -11.8801   26.7530 C   0  0  0  0  0  0  0  0  0  0  0  0
    8.5105  -13.1905   26.5599 C   0  0  0  0  0  0  0  0  0  0  0  0
    7.6074  -14.1781   26.1867 C   0  0  0  0  0  0  0  0  0  0  0  0
   10.8820  -17.3095   24.8252 C   0  0  0  0  0  0  0  0  0  0  0  0
   10.6827  -18.5240   24.5664 O   0  0  0  0  0  0  0  0  0  0  0  0
   12.2198  -16.9253   25.1865 N   0  0  0  0  0  0  0  0  0  0  0  0
   13.2430  -17.9472   25.3005 C   0  0  1  0  0  0  0  0  0  0  0  0
   14.6128  -17.4026   25.0525 C   0  0  0  0  0  0  0  0  0  0  0  0
   14.7152  -16.5157   23.9031 C   0  0  0  0  0  0  0  0  0  0  0  0
   15.1770  -15.3625   24.0252 O   0  0  0  0  0  0  0  0  0  0  0  0
   13.1448  -18.6505   26.6149 C   0  0  0  0  0  0  0  0  0  0  0  0
   12.3039  -18.3182   27.4846 O   0  0  0  0  0  0  0  0  0  0  0  0
   14.3030  -16.9366   22.6576 O   0  0  0  0  0  0  0  0  0  0  0  0
   13.9903  -19.7052   26.9174 O   0  0  0  0  0  0  0  0  0  0  0  0
  2  1  1  0
  3  2  1  0
  4  3  1  0
  5  4  1  0
  5  6  1  1
  7  5  1  0
  8  7  2  0
  9  7  1  0
 10  9  1  0
 11 12  1  0
 10 11  1  1
 12 20  1  0
 12 13  2  0
 13 14  1  0
 15 14  1  0
 15 16  2  0
 17 16  1  0
 18 17  2  0
 19 20  2  0
 19 18  1  0
 20 15  1  0
 21 22  2  0
 21 10  1  0
 23 21  1  0
 24 23  1  0
 24 25  1  1
 26 25  1  0
 27 26  2  0
 28 24  1  0
 29 28  2  0
 30 26  1  0
 31 28  1  0
M  END
$$$$
