MWD.pdb
     RDKit          3D

 31 32  0  0  1  0  0  0  0  0999 V2000
    7.8819  -11.8455   19.5990 C   0  0  0  0  0  0  0  0  0  0  0  0
    6.5230  -12.8773   20.1781 S   0  0  0  0  0  0  0  0  0  0  0  0
    7.0584  -14.5094   20.6899 C   0  0  0  0  0  0  0  0  0  0  0  0
    8.4670  -14.8171   20.1851 C   0  0  0  0  0  0  0  0  0  0  0  0
    8.8481  -16.1507   20.7847 C   0  0  2  0  0  0  0  0  0  0  0  0
    7.6793  -16.9835   20.8435 N   0  0  0  0  0  0  0  0  0  0  0  0
    9.4405  -16.0451   22.1250 C   0  0  0  0  0  0  0  0  0  0  0  0
   10.4760  -15.3585   22.2804 O   0  0  0  0  0  0  0  0  0  0  0  0
    8.9038  -16.6853   23.2836 N   0  0  0  0  0  0  0  0  0  0  0  0
    9.5071  -16.6158   24.5865 C   0  0  1  0  0  0  0  0  0  0  0  0
    8.5408  -16.6957   25.7386 C   0  0  0  0  0  0  0  0  0  0  0  0
    7.4684  -15.6934   25.7254 C   0  0  0  0  0  0  0  0  0  0  0  0
    6.1341  -15.9197   25.4615 C   0  0  0  0  0  0  0  0  0  0  0  0
    5.4639  -14.7590   25.5244 N   0  0  0  0  0  0  0  0  0  0  0  0
    6.3132  -13.7601   25.8240 C   0  0  0  0  0  0  0  0  0  0  0  0
    6.1315  -12.3874   26.0097 C   0  0  0  0  0  0  0  0  0  0  0  0
    7.1908  -11.5663   26.3247 C   0  0  0  0  0  0  0  0  0  0  0  0
    8.4359  -12.1345   26.4522 C   0  0  0  0  0  0  0  0  0  0  0  0
    8.6148  -13.4864   26.2693 C   0  0  0  0  0  0  0  0  0  0  0  0
    7.5690  -14.3436   25.9505 C   0  0  0  0  0  0  0  0  0  0  0  0
   10.6117  -17.6117   24.7329 C   0  0  0  0  0  0  0  0  0  0  0  0
   10.3960  -18.8507   24.7206 O   0  0  0  0  0  0  0  0  0  0  0  0
   11.9749  -17.1834   24.8949 N   0  0  0  0  0  0  0  0  0  0  0  0
   13.0199  -18.1816   25.0206 C   0  0  1  0  0  0  0  0  0  0  0  0
   14.0951  -18.0031   23.9976 C   0  0  0  0  0  0  0  0  0  0  0  0
   14.6105  -16.6464   23.8881 C   0  0  0  0  0  0  0  0  0  0  0  0
   13.9373  -15.7496   23.3396 O   0  0  0  0  0  0  0  0  0  0  0  0
   13.5635  -18.2069   26.4119 C   0  0  0  0  0  0  0  0  0  0  0  0
   13.2066  -17.3738   27.2794 O   0  0  0  0  0  0  0  0  0  0  0  0
   15.8538  -16.3292   24.3901 O   0  0  0  0  0  0  0  0  0  0  0  0
   14.4903  -19.1637   26.7917 O   0  0  0  0  0  0  0  0  0  0  0  0
  2  1  1  0
  3  2  1  0
  4  3  1  0
  5  4  1  0
  5  6  1  1
  7  5  1  0
  8  7  2  0
  9  7  1  0
 10  9  1  0
 11 12  1  0
 10 11  1  1
 12 20  1  0
 12 13  2  0
 13 14  1  0
 15 14  1  0
 15 16  2  0
 17 16  1  0
 18 17  2  0
 19 20  2  0
 19 18  1  0
 20 15  1  0
 21 22  2  0
 21 10  1  0
 23 21  1  0
 24 23  1  0
 24 25  1  6
 26 25  1  0
 27 26  2  0
 28 24  1  0
 29 28  2  0
 30 26  1  0
 31 28  1  0
M  END
$$$$
