MWD.pdb
     RDKit          3D

 31 32  0  0  1  0  0  0  0  0999 V2000
    6.9983  -11.5645   19.5014 C   0  0  0  0  0  0  0  0  0  0  0  0
    6.4299  -13.0622   18.6766 S   0  0  0  0  0  0  0  0  0  0  0  0
    7.2529  -14.5389   19.2719 C   0  0  0  0  0  0  0  0  0  0  0  0
    7.9847  -14.2767   20.5870 C   0  0  0  0  0  0  0  0  0  0  0  0
    8.5734  -15.6014   21.0136 C   0  0  2  0  0  0  0  0  0  0  0  0
    7.5061  -16.5445   21.1997 N   0  0  0  0  0  0  0  0  0  0  0  0
    9.3737  -15.5206   22.2430 C   0  0  0  0  0  0  0  0  0  0  0  0
   10.3938  -14.7949   22.2586 O   0  0  0  0  0  0  0  0  0  0  0  0
    9.0593  -16.2279   23.4435 N   0  0  0  0  0  0  0  0  0  0  0  0
    9.8619  -16.1757   24.6350 C   0  0  1  0  0  0  0  0  0  0  0  0
    9.0868  -16.2244   25.9251 C   0  0  0  0  0  0  0  0  0  0  0  0
    7.8723  -15.4004   25.9559 C   0  0  0  0  0  0  0  0  0  0  0  0
    6.5881  -15.8173   25.6759 C   0  0  0  0  0  0  0  0  0  0  0  0
    5.7468  -14.7785   25.7920 N   0  0  0  0  0  0  0  0  0  0  0  0
    6.4325  -13.6760   26.1429 C   0  0  0  0  0  0  0  0  0  0  0  0
    6.0415  -12.3584   26.3938 C   0  0  0  0  0  0  0  0  0  0  0  0
    6.9622  -11.3996   26.7525 C   0  0  0  0  0  0  0  0  0  0  0  0
    8.2805  -11.7741   26.8575 C   0  0  0  0  0  0  0  0  0  0  0  0
    8.6656  -13.0717   26.6103 C   0  0  0  0  0  0  0  0  0  0  0  0
    7.7638  -14.0638   26.2463 C   0  0  0  0  0  0  0  0  0  0  0  0
   10.9449  -17.2053   24.6118 C   0  0  0  0  0  0  0  0  0  0  0  0
   10.7019  -18.4297   24.7659 O   0  0  0  0  0  0  0  0  0  0  0  0
   12.3178  -16.8279   24.4107 N   0  0  0  0  0  0  0  0  0  0  0  0
   13.3371  -17.8594   24.3745 C   0  0  1  0  0  0  0  0  0  0  0  0
   14.2578  -17.7005   23.2078 C   0  0  0  0  0  0  0  0  0  0  0  0
   14.9923  -16.4443   23.1799 C   0  0  0  0  0  0  0  0  0  0  0  0
   14.8073  -15.5765   24.0579 O   0  0  0  0  0  0  0  0  0  0  0  0
   14.0754  -17.9199   25.6718 C   0  0  0  0  0  0  0  0  0  0  0  0
   13.8897  -17.0762   26.5816 O   0  0  0  0  0  0  0  0  0  0  0  0
   15.9070  -16.1923   22.1807 O   0  0  0  0  0  0  0  0  0  0  0  0
   14.9999  -18.9229   25.9132 O   0  0  0  0  0  0  0  0  0  0  0  0
  2  1  1  0
  3  2  1  0
  4  3  1  0
  5  4  1  0
  5  6  1  1
  7  5  1  0
  8  7  2  0
  9  7  1  0
 10  9  1  0
 11 12  1  0
 10 11  1  1
 12 20  1  0
 12 13  2  0
 13 14  1  0
 15 14  1  0
 15 16  2  0
 17 16  1  0
 18 17  2  0
 19 20  2  0
 19 18  1  0
 20 15  1  0
 21 22  2  0
 21 10  1  0
 23 21  1  0
 24 23  1  0
 24 25  1  6
 26 25  1  0
 27 26  2  0
 28 24  1  0
 29 28  2  0
 30 26  1  0
 31 28  1  0
M  END
$$$$
