MWD.pdb
     RDKit          3D

 31 32  0  0  1  0  0  0  0  0999 V2000
    7.9173  -11.6994   19.2953 C   0  0  0  0  0  0  0  0  0  0  0  0
    6.6067  -12.9308   19.4068 S   0  0  0  0  0  0  0  0  0  0  0  0
    7.2245  -14.5722   19.7759 C   0  0  0  0  0  0  0  0  0  0  0  0
    8.5579  -14.5112   20.5187 C   0  0  0  0  0  0  0  0  0  0  0  0
    8.8146  -15.9062   21.0400 C   0  0  2  0  0  0  0  0  0  0  0  0
    7.5716  -16.6253   21.0716 N   0  0  0  0  0  0  0  0  0  0  0  0
    9.4277  -15.9316   22.3749 C   0  0  0  0  0  0  0  0  0  0  0  0
   10.4539  -15.2463   22.5865 O   0  0  0  0  0  0  0  0  0  0  0  0
    8.9213  -16.7003   23.4672 N   0  0  0  0  0  0  0  0  0  0  0  0
    9.4922  -16.6863   24.7864 C   0  0  1  0  0  0  0  0  0  0  0  0
    8.4911  -16.6757   25.9112 C   0  0  0  0  0  0  0  0  0  0  0  0
    7.4402  -15.6566   25.8029 C   0  0  0  0  0  0  0  0  0  0  0  0
    6.1313  -15.8621   25.4211 C   0  0  0  0  0  0  0  0  0  0  0  0
    5.4766  -14.6909   25.4244 N   0  0  0  0  0  0  0  0  0  0  0  0
    6.3116  -13.7052   25.7987 C   0  0  0  0  0  0  0  0  0  0  0  0
    6.1360  -12.3295   25.9678 C   0  0  0  0  0  0  0  0  0  0  0  0
    7.1759  -11.5249   26.3762 C   0  0  0  0  0  0  0  0  0  0  0  0
    8.3955  -12.1127   26.6138 C   0  0  0  0  0  0  0  0  0  0  0  0
    8.5685  -13.4675   26.4472 C   0  0  0  0  0  0  0  0  0  0  0  0
    7.5417  -14.3083   26.0364 C   0  0  0  0  0  0  0  0  0  0  0  0
   10.4953  -17.7802   24.9612 C   0  0  0  0  0  0  0  0  0  0  0  0
   10.1873  -18.9924   24.8286 O   0  0  0  0  0  0  0  0  0  0  0  0
   11.8628  -17.4818   25.2910 N   0  0  0  0  0  0  0  0  0  0  0  0
   12.7927  -18.5738   25.5083 C   0  0  1  0  0  0  0  0  0  0  0  0
   14.1960  -18.1966   25.1580 C   0  0  0  0  0  0  0  0  0  0  0  0
   15.1924  -19.2128   25.4624 C   0  0  0  0  0  0  0  0  0  0  0  0
   14.9434  -20.4237   25.2894 O   0  0  0  0  0  0  0  0  0  0  0  0
   12.6801  -19.0954   26.9037 C   0  0  0  0  0  0  0  0  0  0  0  0
   13.0185  -20.2654   27.2045 O   0  0  0  0  0  0  0  0  0  0  0  0
   16.4308  -18.8532   25.9476 O   0  0  0  0  0  0  0  0  0  0  0  0
   12.1922  -18.2925   27.9216 O   0  0  0  0  0  0  0  0  0  0  0  0
  2  1  1  0
  3  2  1  0
  4  3  1  0
  5  4  1  0
  5  6  1  1
  7  5  1  0
  8  7  2  0
  9  7  1  0
 10  9  1  0
 11 12  1  0
 10 11  1  1
 12 20  1  0
 12 13  2  0
 13 14  1  0
 15 14  1  0
 15 16  2  0
 17 16  1  0
 18 17  2  0
 19 20  2  0
 19 18  1  0
 20 15  1  0
 21 22  2  0
 21 10  1  0
 23 21  1  0
 24 23  1  0
 24 25  1  1
 26 25  1  0
 27 26  2  0
 28 24  1  0
 29 28  2  0
 30 26  1  0
 31 28  1  0
M  END
$$$$
