MWD.pdb
     RDKit          3D

 31 32  0  0  1  0  0  0  0  0999 V2000
    7.3040  -12.1566   16.6260 C   0  0  0  0  0  0  0  0  0  0  0  0
    7.4059  -12.2901   18.4200 S   0  0  0  0  0  0  0  0  0  0  0  0
    7.9885  -13.8948   18.9657 C   0  0  0  0  0  0  0  0  0  0  0  0
    8.1312  -13.9480   20.4857 C   0  0  0  0  0  0  0  0  0  0  0  0
    8.6106  -15.3425   20.8159 C   0  0  2  0  0  0  0  0  0  0  0  0
    7.4846  -16.2342   20.8060 N   0  0  0  0  0  0  0  0  0  0  0  0
    9.2972  -15.4370   22.1113 C   0  0  0  0  0  0  0  0  0  0  0  0
   10.3953  -14.8549   22.2620 O   0  0  0  0  0  0  0  0  0  0  0  0
    8.7855  -16.1621   23.2306 N   0  0  0  0  0  0  0  0  0  0  0  0
    9.4087  -16.1760   24.5259 C   0  0  1  0  0  0  0  0  0  0  0  0
    8.4616  -16.3457   25.6842 C   0  0  0  0  0  0  0  0  0  0  0  0
    7.3864  -15.3494   25.7634 C   0  0  0  0  0  0  0  0  0  0  0  0
    6.0388  -15.5772   25.5808 C   0  0  0  0  0  0  0  0  0  0  0  0
    5.3692  -14.4220   25.7136 N   0  0  0  0  0  0  0  0  0  0  0  0
    6.2319  -13.4255   25.9809 C   0  0  0  0  0  0  0  0  0  0  0  0
    6.0569  -12.0584   26.2098 C   0  0  0  0  0  0  0  0  0  0  0  0
    7.1309  -11.2387   26.4750 C   0  0  0  0  0  0  0  0  0  0  0  0
    8.3840  -11.8027   26.5088 C   0  0  0  0  0  0  0  0  0  0  0  0
    8.5563  -13.1491   26.2834 C   0  0  0  0  0  0  0  0  0  0  0  0
    7.4957  -14.0046   26.0128 C   0  0  0  0  0  0  0  0  0  0  0  0
   10.5251  -17.1677   24.5864 C   0  0  0  0  0  0  0  0  0  0  0  0
   10.3124  -18.4034   24.6840 O   0  0  0  0  0  0  0  0  0  0  0  0
   11.8967  -16.7388   24.5348 N   0  0  0  0  0  0  0  0  0  0  0  0
   12.9508  -17.7353   24.5541 C   0  0  1  0  0  0  0  0  0  0  0  0
   14.2763  -17.1602   24.1714 C   0  0  0  0  0  0  0  0  0  0  0  0
   15.3801  -18.1086   24.1958 C   0  0  0  0  0  0  0  0  0  0  0  0
   15.2037  -19.2844   24.5758 O   0  0  0  0  0  0  0  0  0  0  0  0
   12.9977  -18.4310   25.8753 C   0  0  0  0  0  0  0  0  0  0  0  0
   12.6553  -17.8603   26.9388 O   0  0  0  0  0  0  0  0  0  0  0  0
   16.6415  -17.7223   23.7982 O   0  0  0  0  0  0  0  0  0  0  0  0
   13.4264  -19.7449   25.9678 O   0  0  0  0  0  0  0  0  0  0  0  0
  2  1  1  0
  3  2  1  0
  4  3  1  0
  5  4  1  0
  5  6  1  1
  7  5  1  0
  8  7  2  0
  9  7  1  0
 10  9  1  0
 11 12  1  0
 10 11  1  1
 12 20  1  0
 12 13  2  0
 13 14  1  0
 15 14  1  0
 15 16  2  0
 17 16  1  0
 18 17  2  0
 19 20  2  0
 19 18  1  0
 20 15  1  0
 21 22  2  0
 21 10  1  0
 23 21  1  0
 24 23  1  0
 24 25  1  1
 26 25  1  0
 27 26  2  0
 28 24  1  0
 29 28  2  0
 30 26  1  0
 31 28  1  0
M  END
$$$$
