MWD.pdb
     RDKit          3D

 31 32  0  0  1  0  0  0  0  0999 V2000
    8.1873  -11.4162   20.0182 C   0  0  0  0  0  0  0  0  0  0  0  0
    7.3945  -12.6910   19.0218 S   0  0  0  0  0  0  0  0  0  0  0  0
    7.8752  -14.3491   19.5036 C   0  0  0  0  0  0  0  0  0  0  0  0
    8.4547  -14.3724   20.9168 C   0  0  0  0  0  0  0  0  0  0  0  0
    8.8387  -15.8078   21.1916 C   0  0  2  0  0  0  0  0  0  0  0  0
    7.6855  -16.6416   20.9970 N   0  0  0  0  0  0  0  0  0  0  0  0
    9.3759  -16.0246   22.5418 C   0  0  0  0  0  0  0  0  0  0  0  0
   10.4932  -15.5428   22.8369 O   0  0  0  0  0  0  0  0  0  0  0  0
    8.6956  -16.7620   23.5586 N   0  0  0  0  0  0  0  0  0  0  0  0
    9.1924  -16.9207   24.8982 C   0  0  1  0  0  0  0  0  0  0  0  0
    8.1567  -16.7716   25.9810 C   0  0  0  0  0  0  0  0  0  0  0  0
    7.2509  -15.6270   25.8261 C   0  0  0  0  0  0  0  0  0  0  0  0
    5.9416  -15.6665   25.3953 C   0  0  0  0  0  0  0  0  0  0  0  0
    5.4439  -14.4208   25.3663 N   0  0  0  0  0  0  0  0  0  0  0  0
    6.3843  -13.5468   25.7668 C   0  0  0  0  0  0  0  0  0  0  0  0
    6.3814  -12.1582   25.9209 C   0  0  0  0  0  0  0  0  0  0  0  0
    7.5003  -11.4897   26.3644 C   0  0  0  0  0  0  0  0  0  0  0  0
    8.6241  -12.2269   26.6525 C   0  0  0  0  0  0  0  0  0  0  0  0
    8.6270  -13.5944   26.5007 C   0  0  0  0  0  0  0  0  0  0  0  0
    7.5166  -14.3005   26.0555 C   0  0  0  0  0  0  0  0  0  0  0  0
    9.9598  -18.1939   25.0509 C   0  0  0  0  0  0  0  0  0  0  0  0
    9.7672  -19.1811   24.2958 O   0  0  0  0  0  0  0  0  0  0  0  0
   10.9561  -18.3364   26.0780 N   0  0  0  0  0  0  0  0  0  0  0  0
   12.1852  -19.0460   25.7779 C   0  0  1  0  0  0  0  0  0  0  0  0
   12.8852  -18.4800   24.5846 C   0  0  0  0  0  0  0  0  0  0  0  0
   14.0852  -19.2005   24.1857 C   0  0  0  0  0  0  0  0  0  0  0  0
   15.1786  -18.9802   24.7461 O   0  0  0  0  0  0  0  0  0  0  0  0
   13.0719  -19.1006   26.9790 C   0  0  0  0  0  0  0  0  0  0  0  0
   13.7135  -18.0986   27.3768 O   0  0  0  0  0  0  0  0  0  0  0  0
   14.0331  -20.1406   23.1798 O   0  0  0  0  0  0  0  0  0  0  0  0
   13.2145  -20.2749   27.6999 O   0  0  0  0  0  0  0  0  0  0  0  0
  2  1  1  0
  3  2  1  0
  4  3  1  0
  5  4  1  0
  5  6  1  1
  7  5  1  0
  8  7  2  0
  9  7  1  0
 10  9  1  0
 11 12  1  0
 10 11  1  1
 12 20  1  0
 12 13  2  0
 13 14  1  0
 15 14  1  0
 15 16  2  0
 17 16  1  0
 18 17  2  0
 19 20  2  0
 19 18  1  0
 20 15  1  0
 21 22  2  0
 21 10  1  0
 23 21  1  0
 24 23  1  0
 24 25  1  6
 26 25  1  0
 27 26  2  0
 28 24  1  0
 29 28  2  0
 30 26  1  0
 31 28  1  0
M  END
$$$$
