MWD.pdb
     RDKit          3D

 31 32  0  0  1  0  0  0  0  0999 V2000
    6.6802  -13.1928   16.3991 C   0  0  0  0  0  0  0  0  0  0  0  0
    7.6176  -12.8843   17.9066 S   0  0  0  0  0  0  0  0  0  0  0  0
    6.9928  -13.8018   19.3138 C   0  0  0  0  0  0  0  0  0  0  0  0
    7.9179  -13.6666   20.5219 C   0  0  0  0  0  0  0  0  0  0  0  0
    8.4440  -15.0540   20.8077 C   0  0  2  0  0  0  0  0  0  0  0  0
    7.3456  -15.9795   20.7878 N   0  0  0  0  0  0  0  0  0  0  0  0
    9.1506  -15.1621   22.0913 C   0  0  0  0  0  0  0  0  0  0  0  0
   10.1303  -14.4144   22.3115 O   0  0  0  0  0  0  0  0  0  0  0  0
    8.7873  -16.0804   23.1233 N   0  0  0  0  0  0  0  0  0  0  0  0
    9.4029  -16.1071   24.4220 C   0  0  1  0  0  0  0  0  0  0  0  0
    8.4548  -16.3350   25.5694 C   0  0  0  0  0  0  0  0  0  0  0  0
    7.3894  -15.3347   25.7078 C   0  0  0  0  0  0  0  0  0  0  0  0
    6.0315  -15.5643   25.6387 C   0  0  0  0  0  0  0  0  0  0  0  0
    5.3747  -14.4046   25.7942 N   0  0  0  0  0  0  0  0  0  0  0  0
    6.2560  -13.4034   25.9663 C   0  0  0  0  0  0  0  0  0  0  0  0
    6.0998  -12.0304   26.1727 C   0  0  0  0  0  0  0  0  0  0  0  0
    7.1915  -11.2065   26.3304 C   0  0  0  0  0  0  0  0  0  0  0  0
    8.4432  -11.7721   26.2793 C   0  0  0  0  0  0  0  0  0  0  0  0
    8.5970  -13.1242   26.0760 C   0  0  0  0  0  0  0  0  0  0  0  0
    7.5182  -13.9841   25.9128 C   0  0  0  0  0  0  0  0  0  0  0  0
   10.5496  -17.0646   24.4654 C   0  0  0  0  0  0  0  0  0  0  0  0
   10.4824  -18.2068   23.9432 O   0  0  0  0  0  0  0  0  0  0  0  0
   11.7833  -16.7096   25.1133 N   0  0  0  0  0  0  0  0  0  0  0  0
   12.7900  -17.7320   25.3269 C   0  0  1  0  0  0  0  0  0  0  0  0
   14.1751  -17.1704   25.3112 C   0  0  0  0  0  0  0  0  0  0  0  0
   14.6914  -16.8635   23.9855 C   0  0  0  0  0  0  0  0  0  0  0  0
   13.9561  -16.3513   23.1164 O   0  0  0  0  0  0  0  0  0  0  0  0
   12.5070  -18.5009   26.5761 C   0  0  0  0  0  0  0  0  0  0  0  0
   11.5592  -18.1996   27.3410 O   0  0  0  0  0  0  0  0  0  0  0  0
   16.0045  -17.1339   23.6677 O   0  0  0  0  0  0  0  0  0  0  0  0
   13.2927  -19.5845   26.9329 O   0  0  0  0  0  0  0  0  0  0  0  0
  2  1  1  0
  3  2  1  0
  4  3  1  0
  5  4  1  0
  5  6  1  1
  7  5  1  0
  8  7  2  0
  9  7  1  0
 10  9  1  0
 11 12  1  0
 10 11  1  1
 12 20  1  0
 12 13  2  0
 13 14  1  0
 15 14  1  0
 15 16  2  0
 17 16  1  0
 18 17  2  0
 19 20  2  0
 19 18  1  0
 20 15  1  0
 21 22  2  0
 21 10  1  0
 23 21  1  0
 24 23  1  0
 24 25  1  1
 26 25  1  0
 27 26  2  0
 28 24  1  0
 29 28  2  0
 30 26  1  0
 31 28  1  0
M  END
$$$$
