MWD.pdb
     RDKit          3D

 31 32  0  0  1  0  0  0  0  0999 V2000
    7.2987  -11.6009   19.5288 C   0  0  0  0  0  0  0  0  0  0  0  0
    6.7465  -13.0685   18.6413 S   0  0  0  0  0  0  0  0  0  0  0  0
    7.4608  -14.5806   19.2860 C   0  0  0  0  0  0  0  0  0  0  0  0
    8.1774  -14.3364   20.6128 C   0  0  0  0  0  0  0  0  0  0  0  0
    8.7373  -15.6727   21.0421 C   0  0  2  0  0  0  0  0  0  0  0  0
    7.6551  -16.6081   21.1735 N   0  0  0  0  0  0  0  0  0  0  0  0
    9.4907  -15.6173   22.3022 C   0  0  0  0  0  0  0  0  0  0  0  0
   10.6006  -15.0384   22.3227 O   0  0  0  0  0  0  0  0  0  0  0  0
    9.0323  -16.1904   23.5277 N   0  0  0  0  0  0  0  0  0  0  0  0
    9.7874  -16.1700   24.7507 C   0  0  1  0  0  0  0  0  0  0  0  0
    8.9621  -16.2484   26.0077 C   0  0  0  0  0  0  0  0  0  0  0  0
    7.7441  -15.4291   26.0077 C   0  0  0  0  0  0  0  0  0  0  0  0
    6.4622  -15.8608   25.7398 C   0  0  0  0  0  0  0  0  0  0  0  0
    5.6163  -14.8222   25.8182 N   0  0  0  0  0  0  0  0  0  0  0  0
    6.2967  -13.7054   26.1321 C   0  0  0  0  0  0  0  0  0  0  0  0
    5.8996  -12.3816   26.3366 C   0  0  0  0  0  0  0  0  0  0  0  0
    6.8155  -11.4071   26.6637 C   0  0  0  0  0  0  0  0  0  0  0  0
    8.1352  -11.7721   26.7842 C   0  0  0  0  0  0  0  0  0  0  0  0
    8.5263  -13.0758   26.5827 C   0  0  0  0  0  0  0  0  0  0  0  0
    7.6293  -14.0837   26.2515 C   0  0  0  0  0  0  0  0  0  0  0  0
   10.8686  -17.2018   24.7446 C   0  0  0  0  0  0  0  0  0  0  0  0
   10.6255  -18.4185   24.5389 O   0  0  0  0  0  0  0  0  0  0  0  0
   12.2397  -16.8354   24.9766 N   0  0  0  0  0  0  0  0  0  0  0  0
   13.2424  -17.8783   25.0828 C   0  0  1  0  0  0  0  0  0  0  0  0
   14.6071  -17.3860   24.7230 C   0  0  0  0  0  0  0  0  0  0  0  0
   14.6494  -16.5032   23.5666 C   0  0  0  0  0  0  0  0  0  0  0  0
   14.0696  -16.8125   22.5053 O   0  0  0  0  0  0  0  0  0  0  0  0
   13.2089  -18.5091   26.4366 C   0  0  0  0  0  0  0  0  0  0  0  0
   13.9327  -19.4910   26.7297 O   0  0  0  0  0  0  0  0  0  0  0  0
   15.3321  -15.3079   23.6253 O   0  0  0  0  0  0  0  0  0  0  0  0
   12.3664  -18.0227   27.4228 O   0  0  0  0  0  0  0  0  0  0  0  0
  2  1  1  0
  3  2  1  0
  4  3  1  0
  5  4  1  0
  5  6  1  1
  7  5  1  0
  8  7  2  0
  9  7  1  0
 10  9  1  0
 11 12  1  0
 10 11  1  1
 12 20  1  0
 12 13  2  0
 13 14  1  0
 15 14  1  0
 15 16  2  0
 17 16  1  0
 18 17  2  0
 19 20  2  0
 19 18  1  0
 20 15  1  0
 21 22  2  0
 21 10  1  0
 23 21  1  0
 24 23  1  0
 24 25  1  1
 26 25  1  0
 27 26  2  0
 28 24  1  0
 29 28  2  0
 30 26  1  0
 31 28  1  0
M  END
$$$$
