MWD.pdb
     RDKit          3D

 31 32  0  0  1  0  0  0  0  0999 V2000
    7.1364  -11.4930   19.6290 C   0  0  0  0  0  0  0  0  0  0  0  0
    7.4872  -12.7963   18.4353 S   0  0  0  0  0  0  0  0  0  0  0  0
    7.8263  -14.3762   19.2106 C   0  0  0  0  0  0  0  0  0  0  0  0
    8.6913  -14.2098   20.4586 C   0  0  0  0  0  0  0  0  0  0  0  0
    8.9782  -15.6053   20.9623 C   0  0  2  0  0  0  0  0  0  0  0  0
    7.7584  -16.3636   20.9467 N   0  0  0  0  0  0  0  0  0  0  0  0
    9.5551  -15.6359   22.3132 C   0  0  0  0  0  0  0  0  0  0  0  0
   10.5697  -14.9443   22.5575 O   0  0  0  0  0  0  0  0  0  0  0  0
    9.0254  -16.4165   23.3857 N   0  0  0  0  0  0  0  0  0  0  0  0
    9.5669  -16.4161   24.7174 C   0  0  1  0  0  0  0  0  0  0  0  0
    8.5449  -16.5224   25.8182 C   0  0  0  0  0  0  0  0  0  0  0  0
    7.4999  -15.4917   25.8023 C   0  0  0  0  0  0  0  0  0  0  0  0
    6.1700  -15.6734   25.4865 C   0  0  0  0  0  0  0  0  0  0  0  0
    5.5282  -14.4976   25.5653 N   0  0  0  0  0  0  0  0  0  0  0  0
    6.3922  -13.5322   25.9262 C   0  0  0  0  0  0  0  0  0  0  0  0
    6.2398  -12.1618   26.1511 C   0  0  0  0  0  0  0  0  0  0  0  0
    7.3085  -11.3801   26.5286 C   0  0  0  0  0  0  0  0  0  0  0  0
    8.5333  -11.9855   26.6789 C   0  0  0  0  0  0  0  0  0  0  0  0
    8.6835  -13.3351   26.4573 C   0  0  0  0  0  0  0  0  0  0  0  0
    7.6274  -14.1531   26.0754 C   0  0  0  0  0  0  0  0  0  0  0  0
   10.6420  -17.4425   24.8722 C   0  0  0  0  0  0  0  0  0  0  0  0
   10.4292  -18.6648   24.6657 O   0  0  0  0  0  0  0  0  0  0  0  0
   11.9719  -17.0644   25.2674 N   0  0  0  0  0  0  0  0  0  0  0  0
   12.9419  -18.1002   25.5685 C   0  0  1  0  0  0  0  0  0  0  0  0
   14.3325  -17.6933   25.2010 C   0  0  0  0  0  0  0  0  0  0  0  0
   14.4450  -16.9930   23.9302 C   0  0  0  0  0  0  0  0  0  0  0  0
   14.0206  -17.5099   22.8762 O   0  0  0  0  0  0  0  0  0  0  0  0
   12.8371  -18.5247   26.9970 C   0  0  0  0  0  0  0  0  0  0  0  0
   12.0805  -17.9404   27.8095 O   0  0  0  0  0  0  0  0  0  0  0  0
   15.0233  -15.7439   23.8701 O   0  0  0  0  0  0  0  0  0  0  0  0
   13.5818  -19.5907   27.4744 O   0  0  0  0  0  0  0  0  0  0  0  0
  2  1  1  0
  3  2  1  0
  4  3  1  0
  5  4  1  0
  5  6  1  1
  7  5  1  0
  8  7  2  0
  9  7  1  0
 10  9  1  0
 11 12  1  0
 10 11  1  1
 12 20  1  0
 12 13  2  0
 13 14  1  0
 15 14  1  0
 15 16  2  0
 17 16  1  0
 18 17  2  0
 19 20  2  0
 19 18  1  0
 20 15  1  0
 21 22  2  0
 21 10  1  0
 23 21  1  0
 24 23  1  0
 24 25  1  1
 26 25  1  0
 27 26  2  0
 28 24  1  0
 29 28  2  0
 30 26  1  0
 31 28  1  0
M  END
$$$$
