KDQ.pdb
     RDKit          3D

 27 26  0  0  1  0  0  0  0  0999 V2000
   16.4237  -10.5747  -10.6540 N   0  0  0  0  0  0  0  0  0  0  0  0
   15.4066   -9.5892  -10.8810 C   0  0  1  0  0  0  0  0  0  0  0  0
   14.1081   -9.9873  -10.3000 C   0  0  0  0  0  0  0  0  0  0  0  0
   13.6342  -11.3158  -10.7658 C   0  0  0  0  0  0  0  0  0  0  0  0
   12.3280  -11.8111  -10.2520 C   0  0  0  0  0  0  0  0  0  0  0  0
   12.0343  -13.2240  -10.7675 C   0  0  0  0  0  0  0  0  0  0  0  0
   10.8263  -13.7628  -10.2336 N   0  0  0  0  0  0  0  0  0  0  0  0
   15.8532   -8.2329  -10.4071 C   0  0  0  0  0  0  0  0  0  0  0  0
   16.5165   -8.1224   -9.3267 O   0  0  0  0  0  0  0  0  0  0  0  0
   15.5747   -7.0313  -11.1065 N   0  0  0  0  0  0  0  0  0  0  0  0
   16.0570   -5.7496  -10.6161 C   0  0  1  0  0  0  0  0  0  0  0  0
   16.7130   -4.9481  -11.7047 C   0  0  0  0  0  0  0  0  0  0  0  0
   17.9769   -5.5659  -12.1816 C   0  0  0  0  0  0  0  0  0  0  0  0
   18.7609   -6.0697  -11.3384 O   0  0  0  0  0  0  0  0  0  0  0  0
   14.9677   -4.9803   -9.9620 C   0  0  0  0  0  0  0  0  0  0  0  0
   13.9037   -4.8449  -10.6000 O   0  0  0  0  0  0  0  0  0  0  0  0
   18.3619   -5.6257  -13.5213 O   0  0  0  0  0  0  0  0  0  0  0  0
   13.9923   -3.4762   -3.7919 N   0  0  0  0  0  0  0  0  0  0  0  0
   12.9290   -2.9132   -4.5250 C   0  0  0  0  0  0  0  0  0  0  0  0
   11.9937   -2.3756   -3.8317 O   0  0  0  0  0  0  0  0  0  0  0  0
   12.8466   -2.9151   -6.0171 C   0  0  0  0  0  0  0  0  0  0  0  0
   14.0079   -3.6576   -6.6098 C   0  0  0  0  0  0  0  0  0  0  0  0
   13.9579   -3.6763   -8.1277 C   0  0  2  0  0  0  0  0  0  0  0  0
   15.0783   -4.4077   -8.6803 N   0  0  0  0  0  0  0  0  0  0  0  0
   14.0074   -2.2801   -8.6424 C   0  0  0  0  0  0  0  0  0  0  0  0
   12.8628   -1.5045   -8.7348 O   0  0  0  0  0  0  0  0  0  0  0  0
   15.0935   -1.7700   -9.0070 O   0  0  0  0  0  0  0  0  0  0  0  0
  2  1  1  1
  2  3  1  0
  3  4  1  0
  4  5  1  0
  5  6  1  0
  7  6  1  0
  8  2  1  0
  9  8  2  0
 10  8  1  0
 11 12  1  6
 11 10  1  0
 12 13  1  0
 13 14  2  0
 13 17  1  0
 15 24  1  0
 15 11  1  0
 16 15  2  0
 19 18  1  0
 20 19  2  0
 21 19  1  0
 22 21  1  0
 23 22  1  1
 23 24  1  0
 25 23  1  0
 25 26  1  0
 27 25  2  0
M  END
$$$$
