KDQ.pdb
     RDKit          3D

 27 26  0  0  1  0  0  0  0  0999 V2000
   16.6973  -11.1686  -13.7782 N   0  0  0  0  0  0  0  0  0  0  0  0
   15.6816  -10.1740  -13.9687 C   0  0  1  0  0  0  0  0  0  0  0  0
   14.3409  -10.6713  -13.5983 C   0  0  0  0  0  0  0  0  0  0  0  0
   13.5943  -11.2639  -14.7376 C   0  0  0  0  0  0  0  0  0  0  0  0
   12.2278  -11.7935  -14.4776 C   0  0  0  0  0  0  0  0  0  0  0  0
   11.6256  -12.4080  -15.7457 C   0  0  0  0  0  0  0  0  0  0  0  0
   10.2669  -12.8054  -15.5709 N   0  0  0  0  0  0  0  0  0  0  0  0
   16.0351   -8.8974  -13.2553 C   0  0  0  0  0  0  0  0  0  0  0  0
   15.1171   -8.1743  -12.7513 O   0  0  0  0  0  0  0  0  0  0  0  0
   17.3656   -8.4314  -13.1028 N   0  0  0  0  0  0  0  0  0  0  0  0
   17.6596   -7.2510  -12.3054 C   0  0  1  0  0  0  0  0  0  0  0  0
   17.3157   -7.4575  -10.8573 C   0  0  0  0  0  0  0  0  0  0  0  0
   17.7670   -6.3313  -10.0004 C   0  0  0  0  0  0  0  0  0  0  0  0
   18.5914   -6.5626   -9.0803 O   0  0  0  0  0  0  0  0  0  0  0  0
   19.0750   -6.8312  -12.4689 C   0  0  0  0  0  0  0  0  0  0  0  0
   19.9540   -7.6334  -12.0929 O   0  0  0  0  0  0  0  0  0  0  0  0
   17.3319   -5.0137  -10.1462 O   0  0  0  0  0  0  0  0  0  0  0  0
   20.4475   -2.5787  -17.0040 N   0  0  0  0  0  0  0  0  0  0  0  0
   21.6055   -3.3626  -16.8322 C   0  0  0  0  0  0  0  0  0  0  0  0
   22.5398   -3.1771  -17.6908 O   0  0  0  0  0  0  0  0  0  0  0  0
   21.7855   -4.3621  -15.7359 C   0  0  0  0  0  0  0  0  0  0  0  0
   20.5350   -4.4773  -14.9148 C   0  0  0  0  0  0  0  0  0  0  0  0
   20.6697   -5.5144  -13.8134 C   0  0  2  0  0  0  0  0  0  0  0  0
   19.4631   -5.5939  -13.0176 N   0  0  0  0  0  0  0  0  0  0  0  0
   21.8002   -5.1432  -12.9185 C   0  0  0  0  0  0  0  0  0  0  0  0
   21.5875   -4.7954  -11.5942 O   0  0  0  0  0  0  0  0  0  0  0  0
   22.9794   -5.1362  -13.3455 O   0  0  0  0  0  0  0  0  0  0  0  0
  2  1  1  1
  2  3  1  0
  3  4  1  0
  4  5  1  0
  5  6  1  0
  7  6  1  0
  8  2  1  0
  9  8  2  0
 10  8  1  0
 11 12  1  1
 11 10  1  0
 12 13  1  0
 13 14  2  0
 13 17  1  0
 15 24  1  0
 15 11  1  0
 16 15  2  0
 19 18  1  0
 20 19  2  0
 21 19  1  0
 22 21  1  0
 23 22  1  6
 23 24  1  0
 25 23  1  0
 25 26  1  0
 27 25  2  0
M  END
$$$$
