KDQ.pdb
     RDKit          3D

 27 26  0  0  1  0  0  0  0  0999 V2000
   20.3116  -10.8608  -16.7699 N   0  0  0  0  0  0  0  0  0  0  0  0
   19.2274  -10.5106  -15.8985 C   0  0  1  0  0  0  0  0  0  0  0  0
   18.9345  -11.5776  -14.9200 C   0  0  0  0  0  0  0  0  0  0  0  0
   18.7873  -12.9211  -15.5362 C   0  0  0  0  0  0  0  0  0  0  0  0
   17.4129  -13.3998  -15.8485 C   0  0  0  0  0  0  0  0  0  0  0  0
   17.4445  -14.8100  -16.4472 C   0  0  0  0  0  0  0  0  0  0  0  0
   16.1396  -15.3318  -16.6915 N   0  0  0  0  0  0  0  0  0  0  0  0
   19.4729   -9.1810  -15.2384 C   0  0  0  0  0  0  0  0  0  0  0  0
   18.6130   -8.7022  -14.4318 O   0  0  0  0  0  0  0  0  0  0  0  0
   20.6356   -8.4012  -15.4630 N   0  0  0  0  0  0  0  0  0  0  0  0
   20.7879   -7.0897  -14.8526 C   0  0  1  0  0  0  0  0  0  0  0  0
   22.2180   -6.6288  -14.8730 C   0  0  0  0  0  0  0  0  0  0  0  0
   22.4159   -5.3589  -14.1284 C   0  0  0  0  0  0  0  0  0  0  0  0
   21.4729   -4.9151  -13.4259 O   0  0  0  0  0  0  0  0  0  0  0  0
   19.8910   -6.0927  -15.4912 C   0  0  0  0  0  0  0  0  0  0  0  0
   19.6165   -6.2631  -16.6966 O   0  0  0  0  0  0  0  0  0  0  0  0
   23.5933   -4.6109  -14.1557 O   0  0  0  0  0  0  0  0  0  0  0  0
   13.5480   -4.5999  -17.0457 N   0  0  0  0  0  0  0  0  0  0  0  0
   14.6682   -5.0017  -16.2916 C   0  0  0  0  0  0  0  0  0  0  0  0
   14.5915   -6.1612  -15.7493 O   0  0  0  0  0  0  0  0  0  0  0  0
   15.8941   -4.1681  -16.1035 C   0  0  0  0  0  0  0  0  0  0  0  0
   17.0436   -5.0148  -15.6419 C   0  0  0  0  0  0  0  0  0  0  0  0
   18.3101   -4.1996  -15.4471 C   0  0  2  0  0  0  0  0  0  0  0  0
   19.3471   -4.9854  -14.8123 N   0  0  0  0  0  0  0  0  0  0  0  0
   18.0147   -3.0240  -14.5826 C   0  0  0  0  0  0  0  0  0  0  0  0
   17.2328   -1.9737  -15.0361 O   0  0  0  0  0  0  0  0  0  0  0  0
   18.4700   -2.9562  -13.4160 O   0  0  0  0  0  0  0  0  0  0  0  0
  2  1  1  1
  2  3  1  0
  3  4  1  0
  4  5  1  0
  5  6  1  0
  7  6  1  0
  8  2  1  0
  9  8  2  0
 10  8  1  0
 11 12  1  6
 11 10  1  0
 12 13  1  0
 13 14  2  0
 13 17  1  0
 15 24  1  0
 15 11  1  0
 16 15  2  0
 19 18  1  0
 20 19  2  0
 21 19  1  0
 22 21  1  0
 23 22  1  1
 23 24  1  0
 25 23  1  0
 25 26  1  0
 27 25  2  0
M  END
$$$$
