KDQ.pdb
     RDKit          3D

 27 26  0  0  1  0  0  0  0  0999 V2000
   23.9321  -21.8118  -16.0563 N   0  0  0  0  0  0  0  0  0  0  0  0
   24.1908  -21.6630  -14.6534 C   0  0  1  0  0  0  0  0  0  0  0  0
   25.4012  -20.8570  -14.3942 C   0  0  0  0  0  0  0  0  0  0  0  0
   26.3270  -20.7903  -15.5539 C   0  0  0  0  0  0  0  0  0  0  0  0
   27.4179  -21.7997  -15.6360 C   0  0  0  0  0  0  0  0  0  0  0  0
   28.4029  -21.4548  -16.7581 C   0  0  0  0  0  0  0  0  0  0  0  0
   29.4568  -22.4089  -16.8755 N   0  0  0  0  0  0  0  0  0  0  0  0
   22.9823  -21.1270  -13.9351 C   0  0  0  0  0  0  0  0  0  0  0  0
   23.0230  -20.9322  -12.6782 O   0  0  0  0  0  0  0  0  0  0  0  0
   21.7621  -20.8152  -14.5865 N   0  0  0  0  0  0  0  0  0  0  0  0
   20.6324  -20.2778  -13.8444 C   0  0  1  0  0  0  0  0  0  0  0  0
   20.1991  -18.9423  -14.3799 C   0  0  0  0  0  0  0  0  0  0  0  0
   19.0972  -18.3422  -13.5849 C   0  0  0  0  0  0  0  0  0  0  0  0
   18.8071  -18.8493  -12.4721 O   0  0  0  0  0  0  0  0  0  0  0  0
   19.5013  -21.2402  -13.8166 C   0  0  0  0  0  0  0  0  0  0  0  0
   19.2319  -21.8334  -14.8810 O   0  0  0  0  0  0  0  0  0  0  0  0
   18.3483  -17.2384  -13.9939 O   0  0  0  0  0  0  0  0  0  0  0  0
   18.0064  -25.7088   -9.8739 N   0  0  0  0  0  0  0  0  0  0  0  0
   18.0186  -24.3687   -9.4394 C   0  0  0  0  0  0  0  0  0  0  0  0
   18.1276  -24.1913   -8.1740 O   0  0  0  0  0  0  0  0  0  0  0  0
   17.9139  -23.1908  -10.3530 C   0  0  0  0  0  0  0  0  0  0  0  0
   17.8945  -23.6335  -11.7865 C   0  0  0  0  0  0  0  0  0  0  0  0
   17.6574  -22.4738  -12.7382 C   0  0  2  0  0  0  0  0  0  0  0  0
   18.7338  -21.5085  -12.6669 N   0  0  0  0  0  0  0  0  0  0  0  0
   16.3858  -21.7885  -12.3773 C   0  0  0  0  0  0  0  0  0  0  0  0
   16.3672  -20.4557  -11.9989 O   0  0  0  0  0  0  0  0  0  0  0  0
   15.2946  -22.4058  -12.4075 O   0  0  0  0  0  0  0  0  0  0  0  0
  2  1  1  6
  2  3  1  0
  3  4  1  0
  4  5  1  0
  5  6  1  0
  7  6  1  0
  8  2  1  0
  9  8  2  0
 10  8  1  0
 11 12  1  6
 11 10  1  0
 12 13  1  0
 13 14  2  0
 13 17  1  0
 15 24  1  0
 15 11  1  0
 16 15  2  0
 19 18  1  0
 20 19  2  0
 21 19  1  0
 22 21  1  0
 23 22  1  1
 23 24  1  0
 25 23  1  0
 25 26  1  0
 27 25  2  0
M  END
$$$$
