KDQ.pdb
     RDKit          3D

 27 26  0  0  1  0  0  0  0  0999 V2000
   28.8233  -22.2418  -12.2415 N   0  0  0  0  0  0  0  0  0  0  0  0
   28.5327  -20.8403  -12.1481 C   0  0  1  0  0  0  0  0  0  0  0  0
   29.7482  -20.0360  -11.9081 C   0  0  0  0  0  0  0  0  0  0  0  0
   30.7638  -20.7323  -11.0773 C   0  0  0  0  0  0  0  0  0  0  0  0
   31.5818  -21.7966  -11.7203 C   0  0  0  0  0  0  0  0  0  0  0  0
   32.6520  -22.3242  -10.7587 C   0  0  0  0  0  0  0  0  0  0  0  0
   33.3092  -23.4890  -11.2546 N   0  0  0  0  0  0  0  0  0  0  0  0
   27.7621  -20.3671  -13.3506 C   0  0  0  0  0  0  0  0  0  0  0  0
   27.2916  -19.1851  -13.3806 O   0  0  0  0  0  0  0  0  0  0  0  0
   27.5172  -21.1768  -14.4886 N   0  0  0  0  0  0  0  0  0  0  0  0
   26.6540  -20.7157  -15.5647 C   0  0  1  0  0  0  0  0  0  0  0  0
   27.2127  -21.0653  -16.9151 C   0  0  0  0  0  0  0  0  0  0  0  0
   28.3510  -20.1930  -17.3017 C   0  0  0  0  0  0  0  0  0  0  0  0
   28.2195  -18.9468  -17.2051 O   0  0  0  0  0  0  0  0  0  0  0  0
   25.2711  -21.2330  -15.4030 C   0  0  0  0  0  0  0  0  0  0  0  0
   25.1251  -22.4723  -15.3838 O   0  0  0  0  0  0  0  0  0  0  0  0
   29.5752  -20.6672  -17.7740 O   0  0  0  0  0  0  0  0  0  0  0  0
   22.6371  -20.7153   -9.7821 N   0  0  0  0  0  0  0  0  0  0  0  0
   21.9587  -20.1506  -10.8802 C   0  0  0  0  0  0  0  0  0  0  0  0
   21.3598  -19.0389  -10.6569 O   0  0  0  0  0  0  0  0  0  0  0  0
   21.9085  -20.7666  -12.2408 C   0  0  0  0  0  0  0  0  0  0  0  0
   23.0662  -20.3022  -13.0746 C   0  0  0  0  0  0  0  0  0  0  0  0
   23.0116  -20.8590  -14.4866 C   0  0  2  0  0  0  0  0  0  0  0  0
   24.1391  -20.4055  -15.2731 N   0  0  0  0  0  0  0  0  0  0  0  0
   21.7600  -20.4024  -15.1513 C   0  0  0  0  0  0  0  0  0  0  0  0
   21.7916  -19.5257  -16.2240 O   0  0  0  0  0  0  0  0  0  0  0  0
   20.6404  -20.8031  -14.7531 O   0  0  0  0  0  0  0  0  0  0  0  0
  2  1  1  6
  2  3  1  0
  3  4  1  0
  4  5  1  0
  5  6  1  0
  7  6  1  0
  8  2  1  0
  9  8  2  0
 10  8  1  0
 11 12  1  6
 11 10  1  0
 12 13  1  0
 13 14  2  0
 13 17  1  0
 15 24  1  0
 15 11  1  0
 16 15  2  0
 19 18  1  0
 20 19  2  0
 21 19  1  0
 22 21  1  0
 23 22  1  1
 23 24  1  0
 25 23  1  0
 25 26  1  0
 27 25  2  0
M  END
$$$$
