KDQ.pdb
     RDKit          3D

 27 26  0  0  1  0  0  0  0  0999 V2000
   16.0606  -16.9556  -16.7877 N   0  0  0  0  0  0  0  0  0  0  0  0
   17.2434  -16.1906  -17.0579 C   0  0  1  0  0  0  0  0  0  0  0  0
   17.8611  -16.5600  -18.3478 C   0  0  0  0  0  0  0  0  0  0  0  0
   18.1606  -18.0100  -18.4665 C   0  0  0  0  0  0  0  0  0  0  0  0
   18.9082  -18.4730  -19.6675 C   0  0  0  0  0  0  0  0  0  0  0  0
   19.1367  -19.9876  -19.6230 C   0  0  0  0  0  0  0  0  0  0  0  0
   19.8631  -20.4664  -20.7533 N   0  0  0  0  0  0  0  0  0  0  0  0
   16.9670  -14.7150  -16.9580 C   0  0  0  0  0  0  0  0  0  0  0  0
   16.0922  -14.1787  -17.7107 O   0  0  0  0  0  0  0  0  0  0  0  0
   17.6383  -13.8550  -16.0524 N   0  0  0  0  0  0  0  0  0  0  0  0
   17.3428  -12.4313  -16.0119 C   0  0  1  0  0  0  0  0  0  0  0  0
   16.8198  -12.0092  -14.6680 C   0  0  0  0  0  0  0  0  0  0  0  0
   16.5127  -10.5572  -14.6088 C   0  0  0  0  0  0  0  0  0  0  0  0
   16.5980   -9.9644  -13.5039 O   0  0  0  0  0  0  0  0  0  0  0  0
   18.5265  -11.6257  -16.4071 C   0  0  0  0  0  0  0  0  0  0  0  0
   19.6410  -12.0142  -16.0018 O   0  0  0  0  0  0  0  0  0  0  0  0
   16.1282   -9.7929  -15.7110 O   0  0  0  0  0  0  0  0  0  0  0  0
   21.3525  -11.0676  -21.3438 N   0  0  0  0  0  0  0  0  0  0  0  0
   21.9918  -10.0701  -20.5815 C   0  0  0  0  0  0  0  0  0  0  0  0
   23.0628   -9.5787  -21.0877 O   0  0  0  0  0  0  0  0  0  0  0  0
   21.4959   -9.5786  -19.2603 C   0  0  0  0  0  0  0  0  0  0  0  0
   20.2051  -10.2516  -18.8964 C   0  0  0  0  0  0  0  0  0  0  0  0
   19.6662   -9.7674  -17.5615 C   0  0  2  0  0  0  0  0  0  0  0  0
   18.4504  -10.4661  -17.2023 N   0  0  0  0  0  0  0  0  0  0  0  0
   19.3650   -8.3119  -17.6471 C   0  0  0  0  0  0  0  0  0  0  0  0
   20.3761   -7.3719  -17.7660 O   0  0  0  0  0  0  0  0  0  0  0  0
   18.1810   -7.8997  -17.6132 O   0  0  0  0  0  0  0  0  0  0  0  0
  2  1  1  6
  2  3  1  0
  3  4  1  0
  4  5  1  0
  5  6  1  0
  7  6  1  0
  8  2  1  0
  9  8  2  0
 10  8  1  0
 11 12  1  1
 11 10  1  0
 12 13  1  0
 13 14  2  0
 13 17  1  0
 15 24  1  0
 15 11  1  0
 16 15  2  0
 19 18  1  0
 20 19  2  0
 21 19  1  0
 22 21  1  0
 23 22  1  6
 23 24  1  0
 25 23  1  0
 25 26  1  0
 27 25  2  0
M  END
$$$$
