KDQ.pdb
     RDKit          3D

 27 26  0  0  1  0  0  0  0  0999 V2000
   16.5516  -11.3575  -14.1870 N   0  0  0  0  0  0  0  0  0  0  0  0
   17.2272  -11.2185  -15.4446 C   0  0  1  0  0  0  0  0  0  0  0  0
   16.4200  -11.7344  -16.5688 C   0  0  0  0  0  0  0  0  0  0  0  0
   15.9720  -13.1381  -16.3801 C   0  0  0  0  0  0  0  0  0  0  0  0
   17.0141  -14.1949  -16.2675 C   0  0  0  0  0  0  0  0  0  0  0  0
   16.3779  -15.5793  -16.1038 C   0  0  0  0  0  0  0  0  0  0  0  0
   17.3473  -16.6124  -15.9372 N   0  0  0  0  0  0  0  0  0  0  0  0
   17.6721   -9.7981  -15.6646 C   0  0  0  0  0  0  0  0  0  0  0  0
   18.2432   -9.4712  -16.7538 O   0  0  0  0  0  0  0  0  0  0  0  0
   17.4919   -8.7669  -14.7082 N   0  0  0  0  0  0  0  0  0  0  0  0
   17.8755   -7.3953  -15.0035 C   0  0  1  0  0  0  0  0  0  0  0  0
   16.9346   -6.4065  -14.3752 C   0  0  0  0  0  0  0  0  0  0  0  0
   15.5940   -6.4130  -15.0148 C   0  0  0  0  0  0  0  0  0  0  0  0
   15.5212   -6.4096  -16.2694 O   0  0  0  0  0  0  0  0  0  0  0  0
   19.2811   -7.1323  -14.6018 C   0  0  0  0  0  0  0  0  0  0  0  0
   19.6565   -7.5961  -13.5057 O   0  0  0  0  0  0  0  0  0  0  0  0
   14.3903   -6.4210  -14.3093 O   0  0  0  0  0  0  0  0  0  0  0  0
   24.1849   -7.6460  -18.2843 N   0  0  0  0  0  0  0  0  0  0  0  0
   24.7213   -7.3574  -17.0139 C   0  0  0  0  0  0  0  0  0  0  0  0
   25.9854   -7.5320  -16.8870 O   0  0  0  0  0  0  0  0  0  0  0  0
   23.9131   -6.8754  -15.8531 C   0  0  0  0  0  0  0  0  0  0  0  0
   22.4603   -6.7916  -16.2186 C   0  0  0  0  0  0  0  0  0  0  0  0
   21.5960   -6.3974  -15.0336 C   0  0  2  0  0  0  0  0  0  0  0  0
   20.1918   -6.3979  -15.3855 N   0  0  0  0  0  0  0  0  0  0  0  0
   21.9677   -5.0280  -14.5827 C   0  0  0  0  0  0  0  0  0  0  0  0
   21.3335   -3.9050  -15.0892 O   0  0  0  0  0  0  0  0  0  0  0  0
   22.8700   -4.8579  -13.7284 O   0  0  0  0  0  0  0  0  0  0  0  0
  2  1  1  1
  2  3  1  0
  3  4  1  0
  4  5  1  0
  5  6  1  0
  7  6  1  0
  8  2  1  0
  9  8  2  0
 10  8  1  0
 11 12  1  1
 11 10  1  0
 12 13  1  0
 13 14  2  0
 13 17  1  0
 15 24  1  0
 15 11  1  0
 16 15  2  0
 19 18  1  0
 20 19  2  0
 21 19  1  0
 22 21  1  0
 23 22  1  6
 23 24  1  0
 25 23  1  0
 25 26  1  0
 27 25  2  0
M  END
$$$$
