KDQ.pdb
     RDKit          3D

 27 26  0  0  1  0  0  0  0  0999 V2000
   20.3005  -34.4889   -7.3796 N   0  0  0  0  0  0  0  0  0  0  0  0
   20.9862  -33.6943   -6.4021 C   0  0  1  0  0  0  0  0  0  0  0  0
   21.7611  -32.5994   -7.0208 C   0  0  0  0  0  0  0  0  0  0  0  0
   23.0797  -33.0334   -7.5493 C   0  0  0  0  0  0  0  0  0  0  0  0
   24.0039  -31.9872   -8.0659 C   0  0  0  0  0  0  0  0  0  0  0  0
   25.3413  -32.5989   -8.4967 C   0  0  0  0  0  0  0  0  0  0  0  0
   26.1847  -31.6609   -9.1625 N   0  0  0  0  0  0  0  0  0  0  0  0
   20.0357  -33.1969   -5.3471 C   0  0  0  0  0  0  0  0  0  0  0  0
   18.8652  -32.8178   -5.6723 O   0  0  0  0  0  0  0  0  0  0  0  0
   20.3685  -33.1195   -3.9710 N   0  0  0  0  0  0  0  0  0  0  0  0
   19.4604  -32.5076   -3.0135 C   0  0  1  0  0  0  0  0  0  0  0  0
   19.7056  -33.0052   -1.6171 C   0  0  0  0  0  0  0  0  0  0  0  0
   19.2251  -34.3964   -1.4175 C   0  0  0  0  0  0  0  0  0  0  0  0
   19.8675  -35.1549   -0.6485 O   0  0  0  0  0  0  0  0  0  0  0  0
   19.5311  -31.0253   -3.0779 C   0  0  0  0  0  0  0  0  0  0  0  0
   20.4862  -30.5275   -3.7084 O   0  0  0  0  0  0  0  0  0  0  0  0
   18.0932  -34.9296   -2.0351 O   0  0  0  0  0  0  0  0  0  0  0  0
   17.4187  -26.6400   -6.4760 N   0  0  0  0  0  0  0  0  0  0  0  0
   17.5719  -26.3706   -5.1016 C   0  0  0  0  0  0  0  0  0  0  0  0
   16.6467  -25.6649   -4.5627 O   0  0  0  0  0  0  0  0  0  0  0  0
   18.7208  -26.8525   -4.2765 C   0  0  0  0  0  0  0  0  0  0  0  0
   18.6541  -28.3404   -4.0948 C   0  0  0  0  0  0  0  0  0  0  0  0
   18.7185  -28.7396   -2.6308 C   0  0  2  0  0  0  0  0  0  0  0  0
   18.5887  -30.1725   -2.4717 N   0  0  0  0  0  0  0  0  0  0  0  0
   17.6086  -28.0811   -1.8883 C   0  0  0  0  0  0  0  0  0  0  0  0
   17.7475  -26.8052   -1.3660 O   0  0  0  0  0  0  0  0  0  0  0  0
   16.5146  -28.6700   -1.7169 O   0  0  0  0  0  0  0  0  0  0  0  0
  2  1  1  6
  2  3  1  0
  3  4  1  0
  4  5  1  0
  5  6  1  0
  7  6  1  0
  8  2  1  0
  9  8  2  0
 10  8  1  0
 11 12  1  1
 11 10  1  0
 12 13  1  0
 13 14  2  0
 13 17  1  0
 15 24  1  0
 15 11  1  0
 16 15  2  0
 19 18  1  0
 20 19  2  0
 21 19  1  0
 22 21  1  0
 23 22  1  6
 23 24  1  0
 25 23  1  0
 25 26  1  0
 27 25  2  0
M  END
$$$$
