KDQ.pdb
     RDKit          3D

 27 26  0  0  1  0  0  0  0  0999 V2000
   20.4467  -12.7748  -17.5237 N   0  0  0  0  0  0  0  0  0  0  0  0
   19.1409  -12.1860  -17.5978 C   0  0  1  0  0  0  0  0  0  0  0  0
   18.0860  -13.1153  -17.1445 C   0  0  0  0  0  0  0  0  0  0  0  0
   18.3325  -14.5266  -17.5367 C   0  0  0  0  0  0  0  0  0  0  0  0
   17.2622  -15.5245  -17.2645 C   0  0  0  0  0  0  0  0  0  0  0  0
   17.6860  -16.9242  -17.7223 C   0  0  0  0  0  0  0  0  0  0  0  0
   16.6898  -17.9115  -17.4626 N   0  0  0  0  0  0  0  0  0  0  0  0
   19.0985  -10.8720  -16.8661 C   0  0  0  0  0  0  0  0  0  0  0  0
   18.0119  -10.2126  -16.8038 O   0  0  0  0  0  0  0  0  0  0  0  0
   20.2250  -10.3014  -16.2211 N   0  0  0  0  0  0  0  0  0  0  0  0
   20.0972   -9.0969  -15.4158 C   0  0  1  0  0  0  0  0  0  0  0  0
   21.1040   -9.0631  -14.3009 C   0  0  0  0  0  0  0  0  0  0  0  0
   20.8974   -7.9131  -13.3838 C   0  0  0  0  0  0  0  0  0  0  0  0
   21.4161   -6.8058  -13.6742 O   0  0  0  0  0  0  0  0  0  0  0  0
   20.1840   -7.8762  -16.2577 C   0  0  0  0  0  0  0  0  0  0  0  0
   21.0875   -7.8406  -17.1179 O   0  0  0  0  0  0  0  0  0  0  0  0
   20.1573   -7.9770  -12.2028 O   0  0  0  0  0  0  0  0  0  0  0  0
   15.7181   -4.4343  -18.8760 N   0  0  0  0  0  0  0  0  0  0  0  0
   16.9162   -3.7544  -19.1715 C   0  0  0  0  0  0  0  0  0  0  0  0
   16.8205   -2.7910  -20.0124 O   0  0  0  0  0  0  0  0  0  0  0  0
   18.2420   -4.0938  -18.5714 C   0  0  0  0  0  0  0  0  0  0  0  0
   18.1228   -5.2828  -17.6638 C   0  0  0  0  0  0  0  0  0  0  0  0
   19.4521   -5.6499  -17.0275 C   0  0  2  0  0  0  0  0  0  0  0  0
   19.3110   -6.7786  -16.1322 N   0  0  0  0  0  0  0  0  0  0  0  0
   19.9646   -4.4906  -16.2464 C   0  0  0  0  0  0  0  0  0  0  0  0
   19.7145   -4.3685  -14.8890 O   0  0  0  0  0  0  0  0  0  0  0  0
   20.6391   -3.5914  -16.8026 O   0  0  0  0  0  0  0  0  0  0  0  0
  2  1  1  1
  2  3  1  0
  3  4  1  0
  4  5  1  0
  5  6  1  0
  7  6  1  0
  8  2  1  0
  9  8  2  0
 10  8  1  0
 11 12  1  1
 11 10  1  0
 12 13  1  0
 13 14  2  0
 13 17  1  0
 15 24  1  0
 15 11  1  0
 16 15  2  0
 19 18  1  0
 20 19  2  0
 21 19  1  0
 22 21  1  0
 23 22  1  1
 23 24  1  0
 25 23  1  0
 25 26  1  0
 27 25  2  0
M  END
$$$$
