KDQ.pdb
     RDKit          3D

 27 26  0  0  1  0  0  0  0  0999 V2000
   18.9719  -12.5309  -17.3028 N   0  0  0  0  0  0  0  0  0  0  0  0
   17.9412  -12.0002  -16.4583 C   0  0  1  0  0  0  0  0  0  0  0  0
   17.4692  -12.9903  -15.4689 C   0  0  0  0  0  0  0  0  0  0  0  0
   17.4887  -14.3870  -15.9743 C   0  0  0  0  0  0  0  0  0  0  0  0
   17.2423  -15.4857  -15.0008 C   0  0  0  0  0  0  0  0  0  0  0  0
   17.3163  -16.8544  -15.6860 C   0  0  0  0  0  0  0  0  0  0  0  0
   17.9807  -17.8323  -14.8879 N   0  0  0  0  0  0  0  0  0  0  0  0
   18.3797  -10.7129  -15.8146 C   0  0  0  0  0  0  0  0  0  0  0  0
   17.6050  -10.1095  -15.0052 O   0  0  0  0  0  0  0  0  0  0  0  0
   19.6389  -10.1082  -16.0581 N   0  0  0  0  0  0  0  0  0  0  0  0
   19.9825   -8.8265  -15.4622 C   0  0  1  0  0  0  0  0  0  0  0  0
   21.4491   -8.5269  -15.5934 C   0  0  0  0  0  0  0  0  0  0  0  0
   21.8414   -7.2860  -14.8773 C   0  0  0  0  0  0  0  0  0  0  0  0
   22.8556   -6.6555  -15.2687 O   0  0  0  0  0  0  0  0  0  0  0  0
   19.1556   -7.7312  -16.0303 C   0  0  0  0  0  0  0  0  0  0  0  0
   18.9603   -7.7454  -17.2628 O   0  0  0  0  0  0  0  0  0  0  0  0
   21.1529   -6.7636  -13.7820 O   0  0  0  0  0  0  0  0  0  0  0  0
   13.9570   -7.8903  -16.9980 N   0  0  0  0  0  0  0  0  0  0  0  0
   14.0330   -6.4850  -17.0640 C   0  0  0  0  0  0  0  0  0  0  0  0
   12.9777   -5.8859  -17.4787 O   0  0  0  0  0  0  0  0  0  0  0  0
   15.2427   -5.6928  -16.6866 C   0  0  0  0  0  0  0  0  0  0  0  0
   16.3431   -6.5989  -16.2181 C   0  0  0  0  0  0  0  0  0  0  0  0
   17.5977   -5.8274  -15.8471 C   0  0  2  0  0  0  0  0  0  0  0  0
   18.5930   -6.6974  -15.2572 N   0  0  0  0  0  0  0  0  0  0  0  0
   17.2540   -4.7677  -14.8594 C   0  0  0  0  0  0  0  0  0  0  0  0
   16.5992   -3.6086  -15.2438 O   0  0  0  0  0  0  0  0  0  0  0  0
   17.5513   -4.9002  -13.6482 O   0  0  0  0  0  0  0  0  0  0  0  0
  2  1  1  1
  2  3  1  0
  3  4  1  0
  4  5  1  0
  5  6  1  0
  7  6  1  0
  8  2  1  0
  9  8  2  0
 10  8  1  0
 11 12  1  6
 11 10  1  0
 12 13  1  0
 13 14  2  0
 13 17  1  0
 15 24  1  0
 15 11  1  0
 16 15  2  0
 19 18  1  0
 20 19  2  0
 21 19  1  0
 22 21  1  0
 23 22  1  1
 23 24  1  0
 25 23  1  0
 25 26  1  0
 27 25  2  0
M  END
$$$$
