KDQ.pdb
     RDKit          3D

 27 26  0  0  1  0  0  0  0  0999 V2000
   28.0424  -22.6323  -16.4817 N   0  0  0  0  0  0  0  0  0  0  0  0
   27.3252  -21.4399  -16.1336 C   0  0  1  0  0  0  0  0  0  0  0  0
   26.6715  -20.8228  -17.3058 C   0  0  0  0  0  0  0  0  0  0  0  0
   27.6315  -20.3163  -18.3198 C   0  0  0  0  0  0  0  0  0  0  0  0
   28.3164  -19.0229  -18.0487 C   0  0  0  0  0  0  0  0  0  0  0  0
   29.1483  -18.5774  -19.2561 C   0  0  0  0  0  0  0  0  0  0  0  0
   29.7758  -17.3125  -19.0536 N   0  0  0  0  0  0  0  0  0  0  0  0
   26.3582  -21.6997  -15.0106 C   0  0  0  0  0  0  0  0  0  0  0  0
   25.5187  -22.6518  -15.1005 O   0  0  0  0  0  0  0  0  0  0  0  0
   26.3187  -20.9290  -13.8210 N   0  0  0  0  0  0  0  0  0  0  0  0
   25.3658  -21.2302  -12.7641 C   0  0  1  0  0  0  0  0  0  0  0  0
   25.7935  -20.6483  -11.4464 C   0  0  0  0  0  0  0  0  0  0  0  0
   24.9233  -21.0838  -10.3242 C   0  0  0  0  0  0  0  0  0  0  0  0
   23.6995  -21.2680  -10.5427 O   0  0  0  0  0  0  0  0  0  0  0  0
   23.9974  -20.7845  -13.1316 C   0  0  0  0  0  0  0  0  0  0  0  0
   23.8859  -19.6528  -13.6457 O   0  0  0  0  0  0  0  0  0  0  0  0
   25.3760  -21.3046   -9.0230 O   0  0  0  0  0  0  0  0  0  0  0  0
   18.7066  -24.2260  -14.2551 N   0  0  0  0  0  0  0  0  0  0  0  0
   18.3228  -22.8729  -14.3369 C   0  0  0  0  0  0  0  0  0  0  0  0
   17.1102  -22.6553  -14.6930 O   0  0  0  0  0  0  0  0  0  0  0  0
   19.2316  -21.7248  -14.0385 C   0  0  0  0  0  0  0  0  0  0  0  0
   20.5916  -22.2169  -13.6392 C   0  0  0  0  0  0  0  0  0  0  0  0
   21.5618  -21.0745  -13.3933 C   0  0  2  0  0  0  0  0  0  0  0  0
   22.8427  -21.5648  -12.9302 N   0  0  0  0  0  0  0  0  0  0  0  0
   21.0031  -20.1644  -12.3559 C   0  0  0  0  0  0  0  0  0  0  0  0
   20.2044  -19.0850  -12.6980 O   0  0  0  0  0  0  0  0  0  0  0  0
   21.2442  -20.3546  -11.1400 O   0  0  0  0  0  0  0  0  0  0  0  0
  2  1  1  6
  2  3  1  0
  3  4  1  0
  4  5  1  0
  5  6  1  0
  7  6  1  0
  8  2  1  0
  9  8  2  0
 10  8  1  0
 11 12  1  1
 11 10  1  0
 12 13  1  0
 13 14  2  0
 13 17  1  0
 15 24  1  0
 15 11  1  0
 16 15  2  0
 19 18  1  0
 20 19  2  0
 21 19  1  0
 22 21  1  0
 23 22  1  1
 23 24  1  0
 25 23  1  0
 25 26  1  0
 27 25  2  0
M  END
$$$$
