KDQ.pdb
     RDKit          3D

 27 26  0  0  1  0  0  0  0  0999 V2000
   19.5691  -12.9637  -16.7178 N   0  0  0  0  0  0  0  0  0  0  0  0
   20.1220  -11.8110  -17.3682 C   0  0  1  0  0  0  0  0  0  0  0  0
   20.2250  -11.9943  -18.8303 C   0  0  0  0  0  0  0  0  0  0  0  0
   21.1135  -13.1175  -19.2245 C   0  0  0  0  0  0  0  0  0  0  0  0
   20.6901  -14.5001  -18.8717 C   0  0  0  0  0  0  0  0  0  0  0  0
   21.7151  -15.5302  -19.3583 C   0  0  0  0  0  0  0  0  0  0  0  0
   22.7532  -15.7625  -18.4080 N   0  0  0  0  0  0  0  0  0  0  0  0
   19.3613  -10.5662  -17.0001 C   0  0  0  0  0  0  0  0  0  0  0  0
   19.6611   -9.4536  -17.5401 O   0  0  0  0  0  0  0  0  0  0  0  0
   18.2989  -10.5501  -16.0611 N   0  0  0  0  0  0  0  0  0  0  0  0
   17.5073   -9.3489  -15.8456 C   0  0  1  0  0  0  0  0  0  0  0  0
   16.1678   -9.6656  -15.2428 C   0  0  0  0  0  0  0  0  0  0  0  0
   15.2930  -10.4265  -16.1713 C   0  0  0  0  0  0  0  0  0  0  0  0
   14.7873  -11.5078  -15.7781 O   0  0  0  0  0  0  0  0  0  0  0  0
   18.2478   -8.3580  -15.0234 C   0  0  0  0  0  0  0  0  0  0  0  0
   19.0078   -8.8051  -14.1402 O   0  0  0  0  0  0  0  0  0  0  0  0
   14.9896  -10.0196  -17.4709 O   0  0  0  0  0  0  0  0  0  0  0  0
   23.1138   -6.1803  -15.7667 N   0  0  0  0  0  0  0  0  0  0  0  0
   22.7187   -5.2970  -14.7427 C   0  0  0  0  0  0  0  0  0  0  0  0
   23.6340   -4.5233  -14.2866 O   0  0  0  0  0  0  0  0  0  0  0  0
   21.3336   -5.2252  -14.1865 C   0  0  0  0  0  0  0  0  0  0  0  0
   20.4475   -6.2440  -14.8407 C   0  0  0  0  0  0  0  0  0  0  0  0
   18.9940   -6.0827  -14.4309 C   0  0  2  0  0  0  0  0  0  0  0  0
   18.1338   -6.9646  -15.1912 N   0  0  0  0  0  0  0  0  0  0  0  0
   18.5629   -4.6788  -14.6755 C   0  0  0  0  0  0  0  0  0  0  0  0
   18.9653   -3.6456  -13.8444 O   0  0  0  0  0  0  0  0  0  0  0  0
   17.8203   -4.3966  -15.6460 O   0  0  0  0  0  0  0  0  0  0  0  0
  2  1  1  1
  2  3  1  0
  3  4  1  0
  4  5  1  0
  5  6  1  0
  7  6  1  0
  8  2  1  0
  9  8  2  0
 10  8  1  0
 11 12  1  1
 11 10  1  0
 12 13  1  0
 13 14  2  0
 13 17  1  0
 15 24  1  0
 15 11  1  0
 16 15  2  0
 19 18  1  0
 20 19  2  0
 21 19  1  0
 22 21  1  0
 23 22  1  6
 23 24  1  0
 25 23  1  0
 25 26  1  0
 27 25  2  0
M  END
$$$$
