NFD.pdb
     RDKit          3D

 28 28  0  0  1  0  0  0  0  0999 V2000
    9.9116  -18.5186   17.9079 N   0  0  0  0  0  0  0  0  0  0  0  0
    9.6898  -17.1900   17.4971 C   0  0  0  0  0  0  0  0  0  0  0  0
    9.6725  -16.9212   16.2817 O   0  0  0  0  0  0  0  0  0  0  0  0
    9.4792  -16.1224   18.4854 C   0  0  0  0  0  0  0  0  0  0  0  0
    9.3561  -16.8098   19.8342 C   0  0  2  0  0  0  0  0  0  0  0  0
    8.0232  -17.3660   19.8882 N   0  0  0  0  0  0  0  0  0  0  0  0
    9.5392  -15.8999   20.9773 C   0  0  0  0  0  0  0  0  0  0  0  0
   10.6599  -15.3019   21.1175 O   0  0  0  0  0  0  0  0  0  0  0  0
    8.4982  -15.6884   21.9051 N   0  0  0  0  0  0  0  0  0  0  0  0
    8.6861  -14.9401   23.1227 C   0  0  1  0  0  0  0  0  0  0  0  0
    7.2886  -14.4240   23.5120 C   0  0  0  0  0  0  0  0  0  0  0  0
    7.3450  -13.5987   24.7365 C   0  0  0  0  0  0  0  0  0  0  0  0
    6.6405  -14.0114   25.8663 C   0  0  0  0  0  0  0  0  0  0  0  0
    6.6433  -13.2947   27.0436 C   0  0  0  0  0  0  0  0  0  0  0  0
    7.3822  -12.1292   27.0700 C   0  0  0  0  0  0  0  0  0  0  0  0
    8.0821  -11.7211   25.9447 C   0  0  0  0  0  0  0  0  0  0  0  0
    8.0751  -12.4397   24.7756 C   0  0  0  0  0  0  0  0  0  0  0  0
    9.0511  -15.9324   24.1954 C   0  0  0  0  0  0  0  0  0  0  0  0
    8.4067  -17.0331   24.3018 O   0  0  0  0  0  0  0  0  0  0  0  0
   10.1056  -15.6770   25.1081 N   0  0  0  0  0  0  0  0  0  0  0  0
   10.5444  -16.7765   25.9996 C   0  0  1  0  0  0  0  0  0  0  0  0
   12.0269  -16.9045   25.9773 C   0  0  0  0  0  0  0  0  0  0  0  0
   12.4727  -17.6696   24.8094 C   0  0  0  0  0  0  0  0  0  0  0  0
   12.2825  -18.9015   24.7476 O   0  0  0  0  0  0  0  0  0  0  0  0
   10.0578  -16.3792   27.3740 C   0  0  0  0  0  0  0  0  0  0  0  0
    9.9250  -17.2500   28.4244 O   0  0  0  0  0  0  0  0  0  0  0  0
   13.1115  -17.0362   23.7591 O   0  0  0  0  0  0  0  0  0  0  0  0
    9.7401  -15.1694   27.6147 O   0  0  0  0  0  0  0  0  0  0  0  0
  1  2  1  0
  2  3  2  0
  4  5  1  0
  4  2  1  0
  5  7  1  0
  5  6  1  1
  7  8  2  0
  9 10  1  0
  9  7  1  0
 10 11  1  1
 11 12  1  0
 12 17  2  0
 13 14  2  0
 13 12  1  0
 14 15  1  0
 15 16  2  0
 17 16  1  0
 18 19  2  0
 18 10  1  0
 20 18  1  0
 21 20  1  0
 21 22  1  1
 22 23  1  0
 23 27  1  0
 23 24  2  0
 25 21  1  0
 26 25  1  0
 28 25  2  0
M  END
$$$$
