NFD.pdb
     RDKit          3D

 28 28  0  0  1  0  0  0  0  0999 V2000
   10.0498  -17.2134   16.7848 N   0  0  0  0  0  0  0  0  0  0  0  0
   10.7609  -17.1280   17.9973 C   0  0  0  0  0  0  0  0  0  0  0  0
   11.6442  -17.9686   18.2481 O   0  0  0  0  0  0  0  0  0  0  0  0
   10.4715  -16.0602   18.9652 C   0  0  0  0  0  0  0  0  0  0  0  0
    9.9681  -16.7499   20.2213 C   0  0  2  0  0  0  0  0  0  0  0  0
    8.6063  -17.1503   19.9488 N   0  0  0  0  0  0  0  0  0  0  0  0
    9.9808  -15.8851   21.4129 C   0  0  0  0  0  0  0  0  0  0  0  0
   11.0969  -15.4203   21.8271 O   0  0  0  0  0  0  0  0  0  0  0  0
    8.7838  -15.5717   22.0899 N   0  0  0  0  0  0  0  0  0  0  0  0
    8.7673  -14.8772   23.3529 C   0  0  1  0  0  0  0  0  0  0  0  0
    7.3527  -14.2827   23.4807 C   0  0  0  0  0  0  0  0  0  0  0  0
    7.1778  -13.5914   24.7750 C   0  0  0  0  0  0  0  0  0  0  0  0
    7.8749  -12.4078   25.0121 C   0  0  0  0  0  0  0  0  0  0  0  0
    7.7649  -11.7075   26.1941 C   0  0  0  0  0  0  0  0  0  0  0  0
    6.9237  -12.2261   27.1577 C   0  0  0  0  0  0  0  0  0  0  0  0
    6.2314  -13.4036   26.9191 C   0  0  0  0  0  0  0  0  0  0  0  0
    6.3455  -14.0958   25.7397 C   0  0  0  0  0  0  0  0  0  0  0  0
    8.8516  -15.9256   24.4310 C   0  0  0  0  0  0  0  0  0  0  0  0
    8.0850  -16.9499   24.3956 O   0  0  0  0  0  0  0  0  0  0  0  0
    9.7707  -15.8074   25.5042 N   0  0  0  0  0  0  0  0  0  0  0  0
   10.1601  -17.0372   26.2336 C   0  0  1  0  0  0  0  0  0  0  0  0
   11.5268  -17.4691   25.8332 C   0  0  0  0  0  0  0  0  0  0  0  0
   11.9478  -18.6533   26.5874 C   0  0  0  0  0  0  0  0  0  0  0  0
   11.1540  -19.5963   26.7827 O   0  0  0  0  0  0  0  0  0  0  0  0
   10.1229  -16.6503   27.6939 C   0  0  0  0  0  0  0  0  0  0  0  0
    9.7322  -15.4194   28.1538 O   0  0  0  0  0  0  0  0  0  0  0  0
   13.2315  -18.7414   27.0940 O   0  0  0  0  0  0  0  0  0  0  0  0
   10.4685  -17.4905   28.5869 O   0  0  0  0  0  0  0  0  0  0  0  0
  1  2  1  0
  2  3  2  0
  4  5  1  0
  4  2  1  0
  5  7  1  0
  5  6  1  6
  7  8  2  0
  9 10  1  0
  9  7  1  0
 10 11  1  1
 11 12  1  0
 12 17  2  0
 13 14  2  0
 13 12  1  0
 14 15  1  0
 15 16  2  0
 17 16  1  0
 18 19  2  0
 18 10  1  0
 20 18  1  0
 21 20  1  0
 21 22  1  6
 22 23  1  0
 23 27  1  0
 23 24  2  0
 25 21  1  0
 26 25  1  0
 28 25  2  0
M  END
$$$$
