NFD.pdb
     RDKit          3D

 28 28  0  0  1  0  0  0  0  0999 V2000
   11.7838  -17.4244   17.3878 N   0  0  0  0  0  0  0  0  0  0  0  0
   10.5724  -17.2236   18.0771 C   0  0  0  0  0  0  0  0  0  0  0  0
    9.5953  -17.9510   17.8200 O   0  0  0  0  0  0  0  0  0  0  0  0
   10.4511  -16.1681   19.0930 C   0  0  0  0  0  0  0  0  0  0  0  0
   10.0347  -16.8612   20.3787 C   0  0  2  0  0  0  0  0  0  0  0  0
    8.6870  -17.3385   20.1667 N   0  0  0  0  0  0  0  0  0  0  0  0
   10.0468  -15.9758   21.5551 C   0  0  0  0  0  0  0  0  0  0  0  0
   11.1342  -15.3836   21.8715 O   0  0  0  0  0  0  0  0  0  0  0  0
    8.8803  -15.7812   22.3237 N   0  0  0  0  0  0  0  0  0  0  0  0
    8.8755  -15.0121   23.5429 C   0  0  1  0  0  0  0  0  0  0  0  0
    7.4076  -14.6075   23.7720 C   0  0  0  0  0  0  0  0  0  0  0  0
    7.2630  -13.7870   24.9925 C   0  0  0  0  0  0  0  0  0  0  0  0
    7.8896  -12.5433   25.0526 C   0  0  0  0  0  0  0  0  0  0  0  0
    7.8023  -11.7225   26.1564 C   0  0  0  0  0  0  0  0  0  0  0  0
    7.0582  -12.1806   27.2248 C   0  0  0  0  0  0  0  0  0  0  0  0
    6.4359  -13.4181   27.1624 C   0  0  0  0  0  0  0  0  0  0  0  0
    6.5269  -14.2303   26.0600 C   0  0  0  0  0  0  0  0  0  0  0  0
    9.1998  -15.9647   24.6636 C   0  0  0  0  0  0  0  0  0  0  0  0
    8.5076  -17.0290   24.8257 O   0  0  0  0  0  0  0  0  0  0  0  0
   10.2675  -15.7109   25.5613 N   0  0  0  0  0  0  0  0  0  0  0  0
   10.6422  -16.7728   26.5247 C   0  0  1  0  0  0  0  0  0  0  0  0
   12.1155  -16.9834   26.5201 C   0  0  0  0  0  0  0  0  0  0  0  0
   12.5810  -17.4243   25.2021 C   0  0  0  0  0  0  0  0  0  0  0  0
   12.0044  -18.3559   24.6046 O   0  0  0  0  0  0  0  0  0  0  0  0
   10.1747  -16.2610   27.8674 C   0  0  0  0  0  0  0  0  0  0  0  0
   10.1240  -17.0229   29.0059 O   0  0  0  0  0  0  0  0  0  0  0  0
   13.6673  -16.8137   24.6026 O   0  0  0  0  0  0  0  0  0  0  0  0
    9.7945  -15.0518   27.9936 O   0  0  0  0  0  0  0  0  0  0  0  0
  1  2  1  0
  2  3  2  0
  4  5  1  0
  4  2  1  0
  5  7  1  0
  5  6  1  6
  7  8  2  0
  9 10  1  0
  9  7  1  0
 10 11  1  1
 11 12  1  0
 12 17  2  0
 13 14  2  0
 13 12  1  0
 14 15  1  0
 15 16  2  0
 17 16  1  0
 18 19  2  0
 18 10  1  0
 20 18  1  0
 21 20  1  0
 21 22  1  1
 22 23  1  0
 23 27  1  0
 23 24  2  0
 25 21  1  0
 26 25  1  0
 28 25  2  0
M  END
$$$$
