NFD.pdb
     RDKit          3D

 28 28  0  0  1  0  0  0  0  0999 V2000
    9.9306  -17.5483   17.3710 N   0  0  0  0  0  0  0  0  0  0  0  0
   10.7555  -17.4049   18.5033 C   0  0  0  0  0  0  0  0  0  0  0  0
   11.7291  -18.1667   18.6503 O   0  0  0  0  0  0  0  0  0  0  0  0
   10.4792  -16.3688   19.5087 C   0  0  0  0  0  0  0  0  0  0  0  0
   10.1769  -17.1027   20.8036 C   0  0  2  0  0  0  0  0  0  0  0  0
    8.8488  -17.6544   20.6592 N   0  0  0  0  0  0  0  0  0  0  0  0
   10.2053  -16.2346   21.9925 C   0  0  0  0  0  0  0  0  0  0  0  0
   11.3302  -15.7933   22.4085 O   0  0  0  0  0  0  0  0  0  0  0  0
    9.0136  -15.8927   22.6650 N   0  0  0  0  0  0  0  0  0  0  0  0
    9.0017  -15.0789   23.8547 C   0  0  1  0  0  0  0  0  0  0  0  0
    7.5527  -14.5790   24.0006 C   0  0  0  0  0  0  0  0  0  0  0  0
    7.4163  -13.6623   25.1516 C   0  0  0  0  0  0  0  0  0  0  0  0
    8.4145  -12.7191   25.3901 C   0  0  0  0  0  0  0  0  0  0  0  0
    8.3587  -11.8319   26.4435 C   0  0  0  0  0  0  0  0  0  0  0  0
    7.2587  -11.9080   27.2737 C   0  0  0  0  0  0  0  0  0  0  0  0
    6.2672  -12.8472   27.0340 C   0  0  0  0  0  0  0  0  0  0  0  0
    6.3291  -13.7275   25.9831 C   0  0  0  0  0  0  0  0  0  0  0  0
    9.2167  -16.0059   25.0222 C   0  0  0  0  0  0  0  0  0  0  0  0
    8.4584  -17.0239   25.1854 O   0  0  0  0  0  0  0  0  0  0  0  0
   10.2523  -15.7781   25.9636 N   0  0  0  0  0  0  0  0  0  0  0  0
   10.5703  -16.8542   26.9316 C   0  0  1  0  0  0  0  0  0  0  0  0
   11.9205  -17.4175   26.6587 C   0  0  0  0  0  0  0  0  0  0  0  0
   11.8239  -18.7499   26.0558 C   0  0  0  0  0  0  0  0  0  0  0  0
   10.7100  -19.2715   25.8446 O   0  0  0  0  0  0  0  0  0  0  0  0
   10.5293  -16.1831   28.2849 C   0  0  0  0  0  0  0  0  0  0  0  0
   10.2921  -14.8461   28.4737 O   0  0  0  0  0  0  0  0  0  0  0  0
   12.9672  -19.4484   25.7132 O   0  0  0  0  0  0  0  0  0  0  0  0
   10.7224  -16.8655   29.3430 O   0  0  0  0  0  0  0  0  0  0  0  0
  1  2  1  0
  2  3  2  0
  4  5  1  0
  4  2  1  0
  5  7  1  0
  5  6  1  6
  7  8  2  0
  9 10  1  0
  9  7  1  0
 10 11  1  1
 11 12  1  0
 12 17  2  0
 13 14  2  0
 13 12  1  0
 14 15  1  0
 15 16  2  0
 17 16  1  0
 18 19  2  0
 18 10  1  0
 20 18  1  0
 21 20  1  0
 21 22  1  6
 22 23  1  0
 23 27  1  0
 23 24  2  0
 25 21  1  0
 26 25  1  0
 28 25  2  0
M  END
$$$$
