NFD.pdb
     RDKit          3D

 28 28  0  0  1  0  0  0  0  0999 V2000
   10.2371  -16.3549   18.1211 N   0  0  0  0  0  0  0  0  0  0  0  0
    9.0539  -16.1285   18.8503 C   0  0  0  0  0  0  0  0  0  0  0  0
    7.9705  -16.5469   18.4020 O   0  0  0  0  0  0  0  0  0  0  0  0
    9.0857  -15.4064   20.1303 C   0  0  0  0  0  0  0  0  0  0  0  0
    9.3168  -16.4550   21.2045 C   0  0  2  0  0  0  0  0  0  0  0  0
    8.1445  -17.3004   21.2079 N   0  0  0  0  0  0  0  0  0  0  0  0
    9.4988  -15.8878   22.5511 C   0  0  0  0  0  0  0  0  0  0  0  0
   10.5133  -15.1439   22.7761 O   0  0  0  0  0  0  0  0  0  0  0  0
    8.5719  -16.1580   23.5792 N   0  0  0  0  0  0  0  0  0  0  0  0
    8.7311  -15.6499   24.9187 C   0  0  1  0  0  0  0  0  0  0  0  0
    7.3101  -15.3102   25.4048 C   0  0  0  0  0  0  0  0  0  0  0  0
    7.1528  -13.8573   25.6245 C   0  0  0  0  0  0  0  0  0  0  0  0
    6.5410  -13.4100   26.7943 C   0  0  0  0  0  0  0  0  0  0  0  0
    6.3573  -12.0719   27.0690 C   0  0  0  0  0  0  0  0  0  0  0  0
    6.8083  -11.1679   26.1285 C   0  0  0  0  0  0  0  0  0  0  0  0
    7.4166  -11.6157   24.9658 C   0  0  0  0  0  0  0  0  0  0  0  0
    7.5964  -12.9497   24.6986 C   0  0  0  0  0  0  0  0  0  0  0  0
    9.1736  -16.8061   25.7766 C   0  0  0  0  0  0  0  0  0  0  0  0
    9.0885  -16.7327   27.0515 O   0  0  0  0  0  0  0  0  0  0  0  0
    9.6929  -17.9939   25.2023 N   0  0  0  0  0  0  0  0  0  0  0  0
   10.2096  -19.0450   26.1102 C   0  0  1  0  0  0  0  0  0  0  0  0
    9.9493  -20.3963   25.5435 C   0  0  0  0  0  0  0  0  0  0  0  0
   10.5982  -21.4381   26.3446 C   0  0  0  0  0  0  0  0  0  0  0  0
   11.8306  -21.6205   26.2700 O   0  0  0  0  0  0  0  0  0  0  0  0
   11.6937  -18.7779   26.2081 C   0  0  0  0  0  0  0  0  0  0  0  0
   12.4683  -18.3473   25.1623 O   0  0  0  0  0  0  0  0  0  0  0  0
    9.8528  -22.2345   27.1945 O   0  0  0  0  0  0  0  0  0  0  0  0
   12.3030  -18.9513   27.3133 O   0  0  0  0  0  0  0  0  0  0  0  0
  1  2  1  0
  2  3  2  0
  4  5  1  0
  4  2  1  0
  5  7  1  0
  5  6  1  1
  7  8  2  0
  9 10  1  0
  9  7  1  0
 10 11  1  1
 11 12  1  0
 12 17  2  0
 13 14  2  0
 13 12  1  0
 14 15  1  0
 15 16  2  0
 17 16  1  0
 18 19  2  0
 18 10  1  0
 20 18  1  0
 21 20  1  0
 21 22  1  6
 22 23  1  0
 23 27  1  0
 23 24  2  0
 25 21  1  0
 26 25  1  0
 28 25  2  0
M  END
$$$$
