NFD.pdb
     RDKit          3D

 28 28  0  0  1  0  0  0  0  0999 V2000
    7.1809  -14.0907   16.2353 N   0  0  0  0  0  0  0  0  0  0  0  0
    8.4230  -14.3449   16.8482 C   0  0  0  0  0  0  0  0  0  0  0  0
    9.2583  -15.0589   16.2630 O   0  0  0  0  0  0  0  0  0  0  0  0
    8.7415  -13.7777   18.1663 C   0  0  0  0  0  0  0  0  0  0  0  0
    8.7319  -14.9406   19.1433 C   0  0  2  0  0  0  0  0  0  0  0  0
    7.4213  -15.5426   19.0477 N   0  0  0  0  0  0  0  0  0  0  0  0
    8.9705  -14.5383   20.5394 C   0  0  0  0  0  0  0  0  0  0  0  0
   10.0876  -13.9976   20.8443 O   0  0  0  0  0  0  0  0  0  0  0  0
    7.9857  -14.7441   21.5280 N   0  0  0  0  0  0  0  0  0  0  0  0
    8.1769  -14.3587   22.9037 C   0  0  1  0  0  0  0  0  0  0  0  0
    6.8007  -13.8711   23.3928 C   0  0  0  0  0  0  0  0  0  0  0  0
    6.8669  -13.3973   24.7910 C   0  0  0  0  0  0  0  0  0  0  0  0
    7.4647  -12.1679   25.0636 C   0  0  0  0  0  0  0  0  0  0  0  0
    7.5654  -11.6603   26.3411 C   0  0  0  0  0  0  0  0  0  0  0  0
    7.0439  -12.4244   27.3655 C   0  0  0  0  0  0  0  0  0  0  0  0
    6.4497  -13.6468   27.0914 C   0  0  0  0  0  0  0  0  0  0  0  0
    6.3527  -14.1462   25.8169 C   0  0  0  0  0  0  0  0  0  0  0  0
    8.4446  -15.6216   23.6797 C   0  0  0  0  0  0  0  0  0  0  0  0
    7.7106  -16.6550   23.5026 O   0  0  0  0  0  0  0  0  0  0  0  0
    9.5039  -15.6993   24.6189 N   0  0  0  0  0  0  0  0  0  0  0  0
    9.8739  -17.0320   25.1511 C   0  0  1  0  0  0  0  0  0  0  0  0
   11.2351  -17.4174   24.6890 C   0  0  0  0  0  0  0  0  0  0  0  0
   11.6231  -18.7254   25.2246 C   0  0  0  0  0  0  0  0  0  0  0  0
   10.7757  -19.6309   25.3634 O   0  0  0  0  0  0  0  0  0  0  0  0
    9.8393  -16.8731   26.6534 C   0  0  0  0  0  0  0  0  0  0  0  0
    9.7468  -15.6664   27.2973 O   0  0  0  0  0  0  0  0  0  0  0  0
   12.9350  -18.9737   25.5847 O   0  0  0  0  0  0  0  0  0  0  0  0
    9.8977  -17.8989   27.4063 O   0  0  0  0  0  0  0  0  0  0  0  0
  1  2  1  0
  2  3  2  0
  4  5  1  0
  4  2  1  0
  5  7  1  0
  5  6  1  1
  7  8  2  0
  9 10  1  0
  9  7  1  0
 10 11  1  1
 11 12  1  0
 12 17  2  0
 13 14  2  0
 13 12  1  0
 14 15  1  0
 15 16  2  0
 17 16  1  0
 18 19  2  0
 18 10  1  0
 20 18  1  0
 21 20  1  0
 21 22  1  6
 22 23  1  0
 23 27  1  0
 23 24  2  0
 25 21  1  0
 26 25  1  0
 28 25  2  0
M  END
$$$$
