NFD.pdb
     RDKit          3D

 28 28  0  0  1  0  0  0  0  0999 V2000
    9.8291  -16.9231   17.4270 N   0  0  0  0  0  0  0  0  0  0  0  0
   10.5916  -17.3903   18.5148 C   0  0  0  0  0  0  0  0  0  0  0  0
   11.0409  -18.5511   18.4922 O   0  0  0  0  0  0  0  0  0  0  0  0
   10.8611  -16.5242   19.6715 C   0  0  0  0  0  0  0  0  0  0  0  0
   10.4989  -17.3352   20.9035 C   0  0  2  0  0  0  0  0  0  0  0  0
    9.0659  -17.5198   20.8634 N   0  0  0  0  0  0  0  0  0  0  0  0
   10.8588  -16.6750   22.1695 C   0  0  0  0  0  0  0  0  0  0  0  0
   12.0839  -16.3842   22.3881 O   0  0  0  0  0  0  0  0  0  0  0  0
    9.8717  -16.3665   23.1285 N   0  0  0  0  0  0  0  0  0  0  0  0
   10.1977  -15.9127   24.4572 C   0  0  1  0  0  0  0  0  0  0  0  0
    8.8968  -15.3124   25.0211 C   0  0  0  0  0  0  0  0  0  0  0  0
    9.0820  -14.8438   26.4104 C   0  0  0  0  0  0  0  0  0  0  0  0
    9.3732  -13.5002   26.6404 C   0  0  0  0  0  0  0  0  0  0  0  0
    9.5609  -12.9893   27.9067 C   0  0  0  0  0  0  0  0  0  0  0  0
    9.4490  -13.8694   28.9641 C   0  0  0  0  0  0  0  0  0  0  0  0
    9.1592  -15.2054   28.7323 C   0  0  0  0  0  0  0  0  0  0  0  0
    8.9734  -15.7074   27.4688 C   0  0  0  0  0  0  0  0  0  0  0  0
   10.4561  -17.1415   25.2891 C   0  0  0  0  0  0  0  0  0  0  0  0
    9.5945  -18.0871   25.3272 O   0  0  0  0  0  0  0  0  0  0  0  0
   11.6466  -17.2824   26.0462 N   0  0  0  0  0  0  0  0  0  0  0  0
   11.8416  -18.5297   26.8224 C   0  0  1  0  0  0  0  0  0  0  0  0
   12.9415  -19.3418   26.2347 C   0  0  0  0  0  0  0  0  0  0  0  0
   14.0755  -18.4955   25.8524 C   0  0  0  0  0  0  0  0  0  0  0  0
   14.0835  -17.2799   26.1347 O   0  0  0  0  0  0  0  0  0  0  0  0
   12.1977  -18.0675   28.2163 C   0  0  0  0  0  0  0  0  0  0  0  0
   12.3905  -18.9102   29.2803 O   0  0  0  0  0  0  0  0  0  0  0  0
   15.1528  -19.0331   25.1722 O   0  0  0  0  0  0  0  0  0  0  0  0
   12.3368  -16.8254   28.4620 O   0  0  0  0  0  0  0  0  0  0  0  0
  1  2  1  0
  2  3  2  0
  4  5  1  0
  4  2  1  0
  5  7  1  0
  5  6  1  1
  7  8  2  0
  9 10  1  0
  9  7  1  0
 10 11  1  1
 11 12  1  0
 12 17  2  0
 13 14  2  0
 13 12  1  0
 14 15  1  0
 15 16  2  0
 17 16  1  0
 18 19  2  0
 18 10  1  0
 20 18  1  0
 21 20  1  0
 21 22  1  6
 22 23  1  0
 23 27  1  0
 23 24  2  0
 25 21  1  0
 26 25  1  0
 28 25  2  0
M  END
$$$$
