NFD.pdb
     RDKit          3D

 28 28  0  0  1  0  0  0  0  0999 V2000
   10.3842  -18.8551   18.9118 N   0  0  0  0  0  0  0  0  0  0  0  0
   10.5699  -17.5480   18.4218 C   0  0  0  0  0  0  0  0  0  0  0  0
   10.8942  -17.3822   17.2313 O   0  0  0  0  0  0  0  0  0  0  0  0
   10.3850  -16.3827   19.2985 C   0  0  0  0  0  0  0  0  0  0  0  0
   10.1437  -16.9339   20.6931 C   0  0  2  0  0  0  0  0  0  0  0  0
    8.8738  -17.6225   20.6453 N   0  0  0  0  0  0  0  0  0  0  0  0
   10.0830  -15.8946   21.7343 C   0  0  0  0  0  0  0  0  0  0  0  0
   11.1326  -15.2104   21.9862 O   0  0  0  0  0  0  0  0  0  0  0  0
    8.8887  -15.6541   22.4450 N   0  0  0  0  0  0  0  0  0  0  0  0
    8.8255  -14.7589   23.5731 C   0  0  1  0  0  0  0  0  0  0  0  0
    7.3388  -14.3883   23.7255 C   0  0  0  0  0  0  0  0  0  0  0  0
    7.1247  -13.5031   24.8893 C   0  0  0  0  0  0  0  0  0  0  0  0
    6.3081  -13.9380   25.9319 C   0  0  0  0  0  0  0  0  0  0  0  0
    6.0598  -13.1690   27.0484 C   0  0  0  0  0  0  0  0  0  0  0  0
    6.6586  -11.9265   27.1035 C   0  0  0  0  0  0  0  0  0  0  0  0
    7.4704  -11.4965   26.0650 C   0  0  0  0  0  0  0  0  0  0  0  0
    7.7135  -12.2675   24.9562 C   0  0  0  0  0  0  0  0  0  0  0  0
    9.1550  -15.5723   24.7973 C   0  0  0  0  0  0  0  0  0  0  0  0
    9.0683  -15.0486   25.9618 O   0  0  0  0  0  0  0  0  0  0  0  0
    9.5675  -16.9249   24.6947 N   0  0  0  0  0  0  0  0  0  0  0  0
    9.9095  -17.6510   25.9405 C   0  0  1  0  0  0  0  0  0  0  0  0
    9.7404  -19.1175   25.7513 C   0  0  0  0  0  0  0  0  0  0  0  0
   10.2276  -19.8592   26.9178 C   0  0  0  0  0  0  0  0  0  0  0  0
   11.1513  -20.6903   26.8007 O   0  0  0  0  0  0  0  0  0  0  0  0
   11.3562  -17.3048   26.2065 C   0  0  0  0  0  0  0  0  0  0  0  0
   12.3262  -17.2570   25.2390 O   0  0  0  0  0  0  0  0  0  0  0  0
    9.6691  -19.6487   28.1652 O   0  0  0  0  0  0  0  0  0  0  0  0
   11.7415  -17.0340   27.3901 O   0  0  0  0  0  0  0  0  0  0  0  0
  1  2  1  0
  2  3  2  0
  4  5  1  0
  4  2  1  0
  5  7  1  0
  5  6  1  6
  7  8  2  0
  9 10  1  0
  9  7  1  0
 10 11  1  1
 11 12  1  0
 12 17  2  0
 13 14  2  0
 13 12  1  0
 14 15  1  0
 15 16  2  0
 17 16  1  0
 18 19  2  0
 18 10  1  0
 20 18  1  0
 21 20  1  0
 21 22  1  6
 22 23  1  0
 23 27  1  0
 23 24  2  0
 25 21  1  0
 26 25  1  0
 28 25  2  0
M  END
$$$$
