IFF.pdb
     RDKit          3D

 31 32  0  0  1  0  0  0  0  0999 V2000
   10.4552  -22.6818   21.2061 C   0  0  0  0  0  0  0  0  0  0  0  0
    9.4418  -21.6363   20.7472 C   0  0  0  0  0  0  0  0  0  0  0  0
    9.6765  -20.3964   21.5568 C   0  0  2  0  0  0  0  0  0  0  0  0
    9.7523  -20.6858   23.0401 C   0  0  0  0  0  0  0  0  0  0  0  0
    8.7580  -19.2737   21.2266 C   0  0  2  0  0  0  0  0  0  0  0  0
    8.8265  -19.0685   19.7671 N   0  0  0  0  0  0  0  0  0  0  0  0
    9.0399  -18.0004   21.9314 C   0  0  0  0  0  0  0  0  0  0  0  0
   10.0236  -17.2904   21.6120 O   0  0  0  0  0  0  0  0  0  0  0  0
    8.1889  -17.5724   22.9835 N   0  0  0  0  0  0  0  0  0  0  0  0
    8.4226  -16.3114   23.7299 C   0  0  1  0  0  0  0  0  0  0  0  0
    7.1175  -15.7318   24.1499 C   0  0  0  0  0  0  0  0  0  0  0  0
    7.1260  -14.4231   24.7858 C   0  0  0  0  0  0  0  0  0  0  0  0
    7.7471  -13.3279   24.2120 C   0  0  0  0  0  0  0  0  0  0  0  0
    7.7200  -12.0800   24.7999 C   0  0  0  0  0  0  0  0  0  0  0  0
    7.0667  -11.8781   25.9915 C   0  0  0  0  0  0  0  0  0  0  0  0
    6.4477  -12.9482   26.5731 C   0  0  0  0  0  0  0  0  0  0  0  0
    6.4757  -14.2038   25.9805 C   0  0  0  0  0  0  0  0  0  0  0  0
    9.4292  -16.5172   24.7695 C   0  0  0  0  0  0  0  0  0  0  0  0
   10.5293  -15.8531   24.6795 O   0  0  0  0  0  0  0  0  0  0  0  0
    9.3395  -17.3710   25.8890 N   0  0  0  0  0  0  0  0  0  0  0  0
   10.5110  -17.6314   26.7496 C   0  0  1  0  0  0  0  0  0  0  0  0
   10.1425  -17.1620   28.1369 C   0  0  0  0  0  0  0  0  0  0  0  0
    9.7840  -15.7556   28.2496 C   0  0  0  0  0  0  0  0  0  0  0  0
    8.4657  -15.3582   28.2050 C   0  0  0  0  0  0  0  0  0  0  0  0
    8.1517  -14.0209   28.3275 C   0  0  0  0  0  0  0  0  0  0  0  0
    9.1284  -13.0624   28.4946 C   0  0  0  0  0  0  0  0  0  0  0  0
   10.4338  -13.4701   28.5373 C   0  0  0  0  0  0  0  0  0  0  0  0
   10.7595  -14.7970   28.4168 C   0  0  0  0  0  0  0  0  0  0  0  0
   10.8857  -19.0377   26.7911 C   0  0  0  0  0  0  0  0  0  0  0  0
   10.1801  -19.9350   26.2804 O   0  0  0  0  0  0  0  0  0  0  0  0
   12.0546  -19.4294   27.4060 O   0  0  0  0  0  0  0  0  0  0  0  0
  1  2  1  0
  3  5  1  0
  3  2  1  0
  3  4  1  1
  5  6  1  6
  7  9  1  0
  7  5  1  0
  8  7  2  0
 10  9  1  0
 11 12  1  0
 10 11  1  1
 12 17  1  0
 13 12  2  0
 13 14  1  0
 14 15  2  0
 15 16  1  0
 17 16  2  0
 18 10  1  0
 18 20  1  0
 19 18  2  0
 21 20  1  0
 21 29  1  0
 21 22  1  1
 23 22  1  0
 23 24  2  0
 25 24  1  0
 26 25  2  0
 27 28  2  0
 27 26  1  0
 28 23  1  0
 29 30  2  0
 29 31  1  0
M  END
$$$$
