IFF.pdb
     RDKit          3D

 31 32  0  0  1  0  0  0  0  0999 V2000
   10.7286  -20.7985   19.0761 C   0  0  0  0  0  0  0  0  0  0  0  0
   10.4326  -19.3251   18.8077 C   0  0  0  0  0  0  0  0  0  0  0  0
   10.3562  -18.6324   20.1352 C   0  0  2  0  0  0  0  0  0  0  0  0
    9.4888  -19.3809   21.1236 C   0  0  0  0  0  0  0  0  0  0  0  0
   10.0246  -17.1849   20.0457 C   0  0  2  0  0  0  0  0  0  0  0  0
   11.0576  -16.5517   19.2038 N   0  0  0  0  0  0  0  0  0  0  0  0
    9.9272  -16.4789   21.3456 C   0  0  0  0  0  0  0  0  0  0  0  0
   10.9446  -16.2895   22.0546 O   0  0  0  0  0  0  0  0  0  0  0  0
    8.6680  -16.0080   21.8006 N   0  0  0  0  0  0  0  0  0  0  0  0
    8.4916  -15.3728   23.1300 C   0  0  1  0  0  0  0  0  0  0  0  0
    7.2905  -14.4939   23.1067 C   0  0  0  0  0  0  0  0  0  0  0  0
    6.9036  -13.8357   24.3454 C   0  0  0  0  0  0  0  0  0  0  0  0
    7.3662  -12.5775   24.6882 C   0  0  0  0  0  0  0  0  0  0  0  0
    6.9667  -11.9411   25.8453 C   0  0  0  0  0  0  0  0  0  0  0  0
    6.0839  -12.5422   26.7096 C   0  0  0  0  0  0  0  0  0  0  0  0
    5.6165  -13.7850   26.3876 C   0  0  0  0  0  0  0  0  0  0  0  0
    6.0194  -14.4246   25.2227 C   0  0  0  0  0  0  0  0  0  0  0  0
    8.5633  -16.3804   24.1863 C   0  0  0  0  0  0  0  0  0  0  0  0
    8.1486  -17.5686   23.9114 O   0  0  0  0  0  0  0  0  0  0  0  0
    9.0470  -16.2082   25.5003 N   0  0  0  0  0  0  0  0  0  0  0  0
    9.3515  -17.3679   26.3626 C   0  0  1  0  0  0  0  0  0  0  0  0
   10.7867  -17.2128   26.8065 C   0  0  0  0  0  0  0  0  0  0  0  0
   11.1166  -15.9406   27.4324 C   0  0  0  0  0  0  0  0  0  0  0  0
   10.1425  -14.9936   27.6609 C   0  0  0  0  0  0  0  0  0  0  0  0
   10.4787  -13.8016   28.2675 C   0  0  0  0  0  0  0  0  0  0  0  0
   11.7733  -13.5287   28.6549 C   0  0  0  0  0  0  0  0  0  0  0  0
   12.7314  -14.4775   28.4224 C   0  0  0  0  0  0  0  0  0  0  0  0
   12.4102  -15.6670   27.8199 C   0  0  0  0  0  0  0  0  0  0  0  0
    8.4840  -17.4537   27.5287 C   0  0  0  0  0  0  0  0  0  0  0  0
    8.5632  -18.3882   28.3559 O   0  0  0  0  0  0  0  0  0  0  0  0
    7.5310  -16.4865   27.7608 O   0  0  0  0  0  0  0  0  0  0  0  0
  1  2  1  0
  3  5  1  0
  3  2  1  0
  3  4  1  1
  5  6  1  6
  7  9  1  0
  7  5  1  0
  8  7  2  0
 10  9  1  0
 11 12  1  0
 10 11  1  6
 12 17  1  0
 13 12  2  0
 13 14  1  0
 14 15  2  0
 15 16  1  0
 17 16  2  0
 18 10  1  0
 18 20  1  0
 19 18  2  0
 21 20  1  0
 21 29  1  0
 21 22  1  1
 23 22  1  0
 23 24  2  0
 25 24  1  0
 26 25  2  0
 27 28  2  0
 27 26  1  0
 28 23  1  0
 29 30  2  0
 29 31  1  0
M  END
$$$$
