IFF.pdb
     RDKit          3D

 31 32  0  0  1  0  0  0  0  0999 V2000
    9.9990  -17.6948   15.7865 C   0  0  0  0  0  0  0  0  0  0  0  0
    9.4162  -18.3250   17.0489 C   0  0  0  0  0  0  0  0  0  0  0  0
   10.1352  -17.7298   18.2221 C   0  0  2  0  0  0  0  0  0  0  0  0
   11.6391  -17.8054   18.0717 C   0  0  0  0  0  0  0  0  0  0  0  0
    9.6544  -18.2216   19.5413 C   0  0  2  0  0  0  0  0  0  0  0  0
    8.2393  -18.6045   19.3749 N   0  0  0  0  0  0  0  0  0  0  0  0
    9.7911  -17.2595   20.6607 C   0  0  0  0  0  0  0  0  0  0  0  0
   10.9133  -16.8016   20.9844 O   0  0  0  0  0  0  0  0  0  0  0  0
    8.6401  -16.8462   21.3810 N   0  0  0  0  0  0  0  0  0  0  0  0
    8.7248  -15.9793   22.5823 C   0  0  1  0  0  0  0  0  0  0  0  0
    7.4144  -15.3098   22.8068 C   0  0  0  0  0  0  0  0  0  0  0  0
    7.2531  -14.5159   24.0156 C   0  0  0  0  0  0  0  0  0  0  0  0
    7.6961  -13.2081   24.1042 C   0  0  0  0  0  0  0  0  0  0  0  0
    7.5068  -12.4467   25.2390 C   0  0  0  0  0  0  0  0  0  0  0  0
    6.8633  -12.9669   26.3357 C   0  0  0  0  0  0  0  0  0  0  0  0
    6.4189  -14.2571   26.2666 C   0  0  0  0  0  0  0  0  0  0  0  0
    6.6100  -15.0226   25.1239 C   0  0  0  0  0  0  0  0  0  0  0  0
    9.2979  -16.7217   23.7033 C   0  0  0  0  0  0  0  0  0  0  0  0
    9.0096  -17.9732   23.8042 O   0  0  0  0  0  0  0  0  0  0  0  0
   10.1524  -16.2249   24.7099 N   0  0  0  0  0  0  0  0  0  0  0  0
   10.8027  -17.1305   25.6783 C   0  0  1  0  0  0  0  0  0  0  0  0
   11.7059  -16.2740   26.5336 C   0  0  0  0  0  0  0  0  0  0  0  0
   11.0290  -15.3553   27.4375 C   0  0  0  0  0  0  0  0  0  0  0  0
   10.5245  -14.1583   26.9786 C   0  0  0  0  0  0  0  0  0  0  0  0
    9.8757  -13.3114   27.8526 C   0  0  0  0  0  0  0  0  0  0  0  0
    9.7164  -13.6319   29.1840 C   0  0  0  0  0  0  0  0  0  0  0  0
   10.2221  -14.8236   29.6271 C   0  0  0  0  0  0  0  0  0  0  0  0
   10.8694  -15.6747   28.7682 C   0  0  0  0  0  0  0  0  0  0  0  0
    9.8517  -17.8373   26.5245 C   0  0  0  0  0  0  0  0  0  0  0  0
    8.6263  -17.5886   26.5085 O   0  0  0  0  0  0  0  0  0  0  0  0
   10.2830  -18.8229   27.3848 O   0  0  0  0  0  0  0  0  0  0  0  0
  1  2  1  0
  3  5  1  0
  3  2  1  0
  3  4  1  6
  5  6  1  6
  7  9  1  0
  7  5  1  0
  8  7  2  0
 10  9  1  0
 11 12  1  0
 10 11  1  1
 12 17  1  0
 13 12  2  0
 13 14  1  0
 14 15  2  0
 15 16  1  0
 17 16  2  0
 18 10  1  0
 18 20  1  0
 19 18  2  0
 21 20  1  0
 21 29  1  0
 21 22  1  1
 23 22  1  0
 23 24  2  0
 25 24  1  0
 26 25  2  0
 27 28  2  0
 27 26  1  0
 28 23  1  0
 29 30  2  0
 29 31  1  0
M  END
$$$$
