IFF.pdb
     RDKit          3D

 31 32  0  0  1  0  0  0  0  0999 V2000
    9.5455  -22.0877   21.2271 C   0  0  0  0  0  0  0  0  0  0  0  0
    8.8517  -20.8890   20.5849 C   0  0  0  0  0  0  0  0  0  0  0  0
    9.3448  -19.6568   21.2824 C   0  0  2  0  0  0  0  0  0  0  0  0
    9.3034  -19.7950   22.7887 C   0  0  0  0  0  0  0  0  0  0  0  0
    8.7263  -18.3950   20.7941 C   0  0  2  0  0  0  0  0  0  0  0  0
    8.8515  -18.3880   19.3240 N   0  0  0  0  0  0  0  0  0  0  0  0
    9.3027  -17.1510   21.3579 C   0  0  0  0  0  0  0  0  0  0  0  0
   10.4424  -16.7548   21.0146 O   0  0  0  0  0  0  0  0  0  0  0  0
    8.5601  -16.3926   22.3000 N   0  0  0  0  0  0  0  0  0  0  0  0
    9.0786  -15.1341   22.8909 C   0  0  1  0  0  0  0  0  0  0  0  0
    8.1128  -14.0300   22.6378 C   0  0  0  0  0  0  0  0  0  0  0  0
    7.8020  -13.7002   21.2550 C   0  0  0  0  0  0  0  0  0  0  0  0
    8.5455  -12.7864   20.5293 C   0  0  0  0  0  0  0  0  0  0  0  0
    8.2708  -12.5051   19.2069 C   0  0  0  0  0  0  0  0  0  0  0  0
    7.2357  -13.1306   18.5552 C   0  0  0  0  0  0  0  0  0  0  0  0
    6.4903  -14.0361   19.2560 C   0  0  0  0  0  0  0  0  0  0  0  0
    6.7676  -14.3184   20.5871 C   0  0  0  0  0  0  0  0  0  0  0  0
    9.4925  -15.3572   24.2748 C   0  0  0  0  0  0  0  0  0  0  0  0
   10.3928  -14.5770   24.7650 O   0  0  0  0  0  0  0  0  0  0  0  0
    9.0121  -16.3429   25.1623 N   0  0  0  0  0  0  0  0  0  0  0  0
    9.4785  -16.4062   26.5621 C   0  0  1  0  0  0  0  0  0  0  0  0
    8.3003  -16.0306   27.4290 C   0  0  0  0  0  0  0  0  0  0  0  0
    7.7443  -14.7059   27.1936 C   0  0  0  0  0  0  0  0  0  0  0  0
    8.3939  -13.5781   27.6453 C   0  0  0  0  0  0  0  0  0  0  0  0
    7.8529  -12.3339   27.3977 C   0  0  0  0  0  0  0  0  0  0  0  0
    6.6703  -12.1859   26.7048 C   0  0  0  0  0  0  0  0  0  0  0  0
    6.0351  -13.3138   26.2616 C   0  0  0  0  0  0  0  0  0  0  0  0
    6.5625  -14.5570   26.5012 C   0  0  0  0  0  0  0  0  0  0  0  0
    9.9654  -17.7251   26.9409 C   0  0  0  0  0  0  0  0  0  0  0  0
   10.4100  -17.9731   28.0831 O   0  0  0  0  0  0  0  0  0  0  0  0
    9.9487  -18.7611   26.0331 O   0  0  0  0  0  0  0  0  0  0  0  0
  1  2  1  0
  3  5  1  0
  3  2  1  0
  3  4  1  1
  5  6  1  6
  7  9  1  0
  7  5  1  0
  8  7  2  0
 10  9  1  0
 11 12  1  0
 10 11  1  1
 12 17  1  0
 13 12  2  0
 13 14  1  0
 14 15  2  0
 15 16  1  0
 17 16  2  0
 18 10  1  0
 18 20  1  0
 19 18  2  0
 21 20  1  0
 21 29  1  0
 21 22  1  1
 23 22  1  0
 23 24  2  0
 25 24  1  0
 26 25  2  0
 27 28  2  0
 27 26  1  0
 28 23  1  0
 29 30  2  0
 29 31  1  0
M  END
$$$$
