IFF.pdb
     RDKit          3D

 31 32  0  0  1  0  0  0  0  0999 V2000
   11.7118  -20.8424   18.3543 C   0  0  0  0  0  0  0  0  0  0  0  0
   10.6196  -19.7866   18.2027 C   0  0  0  0  0  0  0  0  0  0  0  0
   10.6791  -18.9009   19.4108 C   0  0  2  0  0  0  0  0  0  0  0  0
   10.5871  -19.6849   20.7019 C   0  0  0  0  0  0  0  0  0  0  0  0
    9.7445  -17.7444   19.3616 C   0  0  2  0  0  0  0  0  0  0  0  0
   10.0618  -16.9786   18.1411 N   0  0  0  0  0  0  0  0  0  0  0  0
    9.7831  -16.8519   20.5446 C   0  0  0  0  0  0  0  0  0  0  0  0
   10.8152  -16.1961   20.8246 O   0  0  0  0  0  0  0  0  0  0  0  0
    8.6395  -16.7328   21.3767 N   0  0  0  0  0  0  0  0  0  0  0  0
    8.6361  -15.9023   22.6063 C   0  0  1  0  0  0  0  0  0  0  0  0
    7.2950  -15.2813   22.7843 C   0  0  0  0  0  0  0  0  0  0  0  0
    7.0604  -14.4997   23.9891 C   0  0  0  0  0  0  0  0  0  0  0  0
    7.4628  -13.1808   24.1031 C   0  0  0  0  0  0  0  0  0  0  0  0
    7.2044  -12.4319   25.2327 C   0  0  0  0  0  0  0  0  0  0  0  0
    6.5295  -12.9765   26.2983 C   0  0  0  0  0  0  0  0  0  0  0  0
    6.1244  -14.2779   26.2037 C   0  0  0  0  0  0  0  0  0  0  0  0
    6.3852  -15.0307   25.0663 C   0  0  0  0  0  0  0  0  0  0  0  0
    9.1767  -16.6618   23.7321 C   0  0  0  0  0  0  0  0  0  0  0  0
    8.7395  -17.8599   23.9127 O   0  0  0  0  0  0  0  0  0  0  0  0
   10.1453  -16.2348   24.6647 N   0  0  0  0  0  0  0  0  0  0  0  0
   10.6775  -17.1535   25.6912 C   0  0  1  0  0  0  0  0  0  0  0  0
   11.7568  -16.3988   26.4305 C   0  0  0  0  0  0  0  0  0  0  0  0
   11.2925  -15.3185   27.2887 C   0  0  0  0  0  0  0  0  0  0  0  0
   11.0265  -14.0704   26.7697 C   0  0  0  0  0  0  0  0  0  0  0  0
   10.5749  -13.0676   27.6018 C   0  0  0  0  0  0  0  0  0  0  0  0
   10.3807  -13.2809   28.9499 C   0  0  0  0  0  0  0  0  0  0  0  0
   10.6486  -14.5249   29.4529 C   0  0  0  0  0  0  0  0  0  0  0  0
   11.0981  -15.5308   28.6361 C   0  0  0  0  0  0  0  0  0  0  0  0
    9.6625  -17.6052   26.6324 C   0  0  0  0  0  0  0  0  0  0  0  0
    8.5088  -17.1233   26.6567 O   0  0  0  0  0  0  0  0  0  0  0  0
    9.9490  -18.5990   27.5422 O   0  0  0  0  0  0  0  0  0  0  0  0
  1  2  1  0
  3  5  1  0
  3  2  1  0
  3  4  1  1
  5  6  1  6
  7  9  1  0
  7  5  1  0
  8  7  2  0
 10  9  1  0
 11 12  1  0
 10 11  1  1
 12 17  1  0
 13 12  2  0
 13 14  1  0
 14 15  2  0
 15 16  1  0
 17 16  2  0
 18 10  1  0
 18 20  1  0
 19 18  2  0
 21 20  1  0
 21 29  1  0
 21 22  1  1
 23 22  1  0
 23 24  2  0
 25 24  1  0
 26 25  2  0
 27 28  2  0
 27 26  1  0
 28 23  1  0
 29 30  2  0
 29 31  1  0
M  END
$$$$
