IFF.pdb
     RDKit          3D

 31 32  0  0  1  0  0  0  0  0999 V2000
    8.0294  -12.3583   18.4671 C   0  0  0  0  0  0  0  0  0  0  0  0
    8.2769  -13.5325   19.4107 C   0  0  0  0  0  0  0  0  0  0  0  0
    9.3394  -14.3906   18.7922 C   0  0  2  0  0  0  0  0  0  0  0  0
    9.0392  -14.7224   17.3466 C   0  0  0  0  0  0  0  0  0  0  0  0
    9.7028  -15.5843   19.6023 C   0  0  2  0  0  0  0  0  0  0  0  0
    8.6835  -16.6178   19.3382 N   0  0  0  0  0  0  0  0  0  0  0  0
    9.8165  -15.3454   21.0609 C   0  0  0  0  0  0  0  0  0  0  0  0
   10.7130  -14.6005   21.5247 O   0  0  0  0  0  0  0  0  0  0  0  0
    8.9012  -15.9650   21.9513 N   0  0  0  0  0  0  0  0  0  0  0  0
    8.8327  -15.6124   23.3910 C   0  0  1  0  0  0  0  0  0  0  0  0
    7.4231  -15.3128   23.7639 C   0  0  0  0  0  0  0  0  0  0  0  0
    7.1907  -14.3759   24.8527 C   0  0  0  0  0  0  0  0  0  0  0  0
    7.3918  -13.0144   24.7102 C   0  0  0  0  0  0  0  0  0  0  0  0
    7.1335  -12.1255   25.7333 C   0  0  0  0  0  0  0  0  0  0  0  0
    6.6614  -12.5666   26.9457 C   0  0  0  0  0  0  0  0  0  0  0  0
    6.4568  -13.9081   27.1049 C   0  0  0  0  0  0  0  0  0  0  0  0
    6.7172  -14.8018   26.0745 C   0  0  0  0  0  0  0  0  0  0  0  0
    9.5390  -16.6109   24.1913 C   0  0  0  0  0  0  0  0  0  0  0  0
    9.8772  -17.7121   23.6148 O   0  0  0  0  0  0  0  0  0  0  0  0
    9.9088  -16.5122   25.5491 N   0  0  0  0  0  0  0  0  0  0  0  0
   10.7161  -17.5627   26.2015 C   0  0  1  0  0  0  0  0  0  0  0  0
   10.8993  -17.1383   27.6393 C   0  0  0  0  0  0  0  0  0  0  0  0
   10.4229  -15.8019   27.9653 C   0  0  0  0  0  0  0  0  0  0  0  0
    9.9325  -15.5148   29.2203 C   0  0  0  0  0  0  0  0  0  0  0  0
    9.4997  -14.2373   29.5079 C   0  0  0  0  0  0  0  0  0  0  0  0
    9.5444  -13.2310   28.5667 C   0  0  0  0  0  0  0  0  0  0  0  0
   10.0335  -13.5291   27.3241 C   0  0  0  0  0  0  0  0  0  0  0  0
   10.4672  -14.7956   27.0252 C   0  0  0  0  0  0  0  0  0  0  0  0
   10.0879  -18.8754   26.1539 C   0  0  0  0  0  0  0  0  0  0  0  0
   10.6604  -19.9079   26.5660 O   0  0  0  0  0  0  0  0  0  0  0  0
    8.8167  -19.0213   25.6438 O   0  0  0  0  0  0  0  0  0  0  0  0
  1  2  1  0
  3  5  1  0
  3  2  1  0
  3  4  1  6
  5  6  1  1
  7  9  1  0
  7  5  1  0
  8  7  2  0
 10  9  1  0
 11 12  1  0
 10 11  1  1
 12 17  1  0
 13 12  2  0
 13 14  1  0
 14 15  2  0
 15 16  1  0
 17 16  2  0
 18 10  1  0
 18 20  1  0
 19 18  2  0
 21 20  1  0
 21 29  1  0
 21 22  1  1
 23 22  1  0
 23 24  2  0
 25 24  1  0
 26 25  2  0
 27 28  2  0
 27 26  1  0
 28 23  1  0
 29 30  2  0
 29 31  1  0
M  END
$$$$
