IFF.pdb
     RDKit          3D

 31 32  0  0  1  0  0  0  0  0999 V2000
   11.7922  -20.0655   17.6316 C   0  0  0  0  0  0  0  0  0  0  0  0
   10.4375  -19.9385   18.3239 C   0  0  0  0  0  0  0  0  0  0  0  0
   10.6110  -19.0054   19.4845 C   0  0  2  0  0  0  0  0  0  0  0  0
   10.6440  -19.7370   20.8087 C   0  0  0  0  0  0  0  0  0  0  0  0
    9.6744  -17.8495   19.4786 C   0  0  2  0  0  0  0  0  0  0  0  0
    9.9260  -17.0902   18.2388 N   0  0  0  0  0  0  0  0  0  0  0  0
    9.7751  -16.9506   20.6530 C   0  0  0  0  0  0  0  0  0  0  0  0
   10.8811  -16.4795   21.0119 O   0  0  0  0  0  0  0  0  0  0  0  0
    8.6077  -16.6138   21.3865 N   0  0  0  0  0  0  0  0  0  0  0  0
    8.6558  -15.7914   22.6206 C   0  0  1  0  0  0  0  0  0  0  0  0
    7.3218  -15.1765   22.8618 C   0  0  0  0  0  0  0  0  0  0  0  0
    7.1484  -14.3742   24.0634 C   0  0  0  0  0  0  0  0  0  0  0  0
    7.6631  -13.0950   24.1772 C   0  0  0  0  0  0  0  0  0  0  0  0
    7.4637  -12.3234   25.3034 C   0  0  0  0  0  0  0  0  0  0  0  0
    6.7373  -12.8044   26.3657 C   0  0  0  0  0  0  0  0  0  0  0  0
    6.2213  -14.0659   26.2713 C   0  0  0  0  0  0  0  0  0  0  0  0
    6.4228  -14.8417   25.1373 C   0  0  0  0  0  0  0  0  0  0  0  0
    9.2482  -16.5562   23.7163 C   0  0  0  0  0  0  0  0  0  0  0  0
    8.9029  -17.7910   23.8414 O   0  0  0  0  0  0  0  0  0  0  0  0
   10.1776  -16.0982   24.6737 N   0  0  0  0  0  0  0  0  0  0  0  0
   10.8371  -17.0318   25.6088 C   0  0  1  0  0  0  0  0  0  0  0  0
   11.7342  -16.1983   26.4927 C   0  0  0  0  0  0  0  0  0  0  0  0
   11.0523  -15.3683   27.4752 C   0  0  0  0  0  0  0  0  0  0  0  0
   10.5523  -14.1323   27.1287 C   0  0  0  0  0  0  0  0  0  0  0  0
    9.8986  -13.3710   28.0749 C   0  0  0  0  0  0  0  0  0  0  0  0
    9.7301  -13.8161   29.3687 C   0  0  0  0  0  0  0  0  0  0  0  0
   10.2314  -15.0454   29.7001 C   0  0  0  0  0  0  0  0  0  0  0  0
   10.8835  -15.8123   28.7685 C   0  0  0  0  0  0  0  0  0  0  0  0
    9.8933  -17.7761   26.4306 C   0  0  0  0  0  0  0  0  0  0  0  0
   10.2572  -18.6656   27.2307 O   0  0  0  0  0  0  0  0  0  0  0  0
    8.5430  -17.5157   26.3501 O   0  0  0  0  0  0  0  0  0  0  0  0
  1  2  1  0
  3  5  1  0
  3  2  1  0
  3  4  1  1
  5  6  1  6
  7  9  1  0
  7  5  1  0
  8  7  2  0
 10  9  1  0
 11 12  1  0
 10 11  1  1
 12 17  1  0
 13 12  2  0
 13 14  1  0
 14 15  2  0
 15 16  1  0
 17 16  2  0
 18 10  1  0
 18 20  1  0
 19 18  2  0
 21 20  1  0
 21 29  1  0
 21 22  1  1
 23 22  1  0
 23 24  2  0
 25 24  1  0
 26 25  2  0
 27 28  2  0
 27 26  1  0
 28 23  1  0
 29 30  2  0
 29 31  1  0
M  END
$$$$
