IFF.pdb
     RDKit          3D

 31 32  0  0  1  0  0  0  0  0999 V2000
    6.3972  -22.7780   21.8650 C   0  0  0  0  0  0  0  0  0  0  0  0
    5.4332  -21.9534   22.7143 C   0  0  0  0  0  0  0  0  0  0  0  0
    5.9146  -20.5337   22.6911 C   0  0  2  0  0  0  0  0  0  0  0  0
    7.3938  -20.4247   22.9911 C   0  0  0  0  0  0  0  0  0  0  0  0
    5.0844  -19.5986   23.4971 C   0  0  2  0  0  0  0  0  0  0  0  0
    3.7327  -19.5946   22.9057 N   0  0  0  0  0  0  0  0  0  0  0  0
    5.6028  -18.2126   23.5866 C   0  0  0  0  0  0  0  0  0  0  0  0
    5.4360  -17.3995   22.6460 O   0  0  0  0  0  0  0  0  0  0  0  0
    6.2987  -17.7929   24.7502 N   0  0  0  0  0  0  0  0  0  0  0  0
    6.9172  -16.4488   24.8632 C   0  0  1  0  0  0  0  0  0  0  0  0
    6.6540  -15.8917   26.2182 C   0  0  0  0  0  0  0  0  0  0  0  0
    7.0426  -14.5132   26.4755 C   0  0  0  0  0  0  0  0  0  0  0  0
    6.1415  -13.4660   26.3992 C   0  0  0  0  0  0  0  0  0  0  0  0
    6.5055  -12.1654   26.6813 C   0  0  0  0  0  0  0  0  0  0  0  0
    7.7925  -11.8602   27.0529 C   0  0  0  0  0  0  0  0  0  0  0  0
    8.6963  -12.8816   27.1335 C   0  0  0  0  0  0  0  0  0  0  0  0
    8.3288  -14.1903   26.8492 C   0  0  0  0  0  0  0  0  0  0  0  0
    8.3080  -16.4920   24.4159 C   0  0  0  0  0  0  0  0  0  0  0  0
    9.0592  -17.4293   24.8813 O   0  0  0  0  0  0  0  0  0  0  0  0
    8.9426  -15.6147   23.5115 N   0  0  0  0  0  0  0  0  0  0  0  0
   10.2809  -15.9152   22.9642 C   0  0  1  0  0  0  0  0  0  0  0  0
   10.3190  -15.3358   21.5700 C   0  0  0  0  0  0  0  0  0  0  0  0
    9.0902  -14.6972   21.1213 C   0  0  0  0  0  0  0  0  0  0  0  0
    8.0726  -15.4399   20.5639 C   0  0  0  0  0  0  0  0  0  0  0  0
    6.9129  -14.8127   20.1590 C   0  0  0  0  0  0  0  0  0  0  0  0
    6.7420  -13.4518   20.2976 C   0  0  0  0  0  0  0  0  0  0  0  0
    7.7602  -12.7256   20.8528 C   0  0  0  0  0  0  0  0  0  0  0  0
    8.9185  -13.3372   21.2596 C   0  0  0  0  0  0  0  0  0  0  0  0
   11.3615  -15.3502   23.7598 C   0  0  0  0  0  0  0  0  0  0  0  0
   12.5665  -15.5328   23.4799 O   0  0  0  0  0  0  0  0  0  0  0  0
   11.0821  -14.5801   24.8673 O   0  0  0  0  0  0  0  0  0  0  0  0
  1  2  1  0
  3  5  1  0
  3  2  1  0
  3  4  1  1
  5  6  1  6
  7  9  1  0
  7  5  1  0
  8  7  2  0
 10  9  1  0
 11 12  1  0
 10 11  1  1
 12 17  1  0
 13 12  2  0
 13 14  1  0
 14 15  2  0
 15 16  1  0
 17 16  2  0
 18 10  1  0
 18 20  1  0
 19 18  2  0
 21 20  1  0
 21 29  1  0
 21 22  1  6
 23 22  1  0
 23 24  2  0
 25 24  1  0
 26 25  2  0
 27 28  2  0
 27 26  1  0
 28 23  1  0
 29 30  2  0
 29 31  1  0
M  END
$$$$
