IFF.pdb
     RDKit          3D

 31 32  0  0  1  0  0  0  0  0999 V2000
   12.6261  -19.2172   18.1532 C   0  0  0  0  0  0  0  0  0  0  0  0
   11.2017  -19.2949   18.6969 C   0  0  0  0  0  0  0  0  0  0  0  0
   11.1666  -18.5190   19.9793 C   0  0  2  0  0  0  0  0  0  0  0  0
   10.6939  -19.3596   21.1454 C   0  0  0  0  0  0  0  0  0  0  0  0
   10.4634  -17.2119   19.8782 C   0  0  2  0  0  0  0  0  0  0  0  0
   11.2026  -16.3933   18.8982 N   0  0  0  0  0  0  0  0  0  0  0  0
   10.3232  -16.4711   21.1546 C   0  0  0  0  0  0  0  0  0  0  0  0
   11.2943  -15.8507   21.6503 O   0  0  0  0  0  0  0  0  0  0  0  0
    9.0754  -16.4594   21.8307 N   0  0  0  0  0  0  0  0  0  0  0  0
    8.8742  -15.7391   23.1124 C   0  0  1  0  0  0  0  0  0  0  0  0
    7.4730  -15.2430   23.1904 C   0  0  0  0  0  0  0  0  0  0  0  0
    7.1119  -14.3953   24.3165 C   0  0  0  0  0  0  0  0  0  0  0  0
    6.3215  -14.8485   25.3578 C   0  0  0  0  0  0  0  0  0  0  0  0
    6.0133  -14.0534   26.4423 C   0  0  0  0  0  0  0  0  0  0  0  0
    6.4865  -12.7665   26.5279 C   0  0  0  0  0  0  0  0  0  0  0  0
    7.2687  -12.3015   25.5087 C   0  0  0  0  0  0  0  0  0  0  0  0
    7.5782  -13.1027   24.4175 C   0  0  0  0  0  0  0  0  0  0  0  0
    9.3616  -16.5465   24.2291 C   0  0  0  0  0  0  0  0  0  0  0  0
   10.5281  -17.0817   24.1184 O   0  0  0  0  0  0  0  0  0  0  0  0
    8.6969  -16.8141   25.4443 N   0  0  0  0  0  0  0  0  0  0  0  0
    9.3532  -17.5783   26.5242 C   0  0  1  0  0  0  0  0  0  0  0  0
    8.9764  -16.9050   27.8225 C   0  0  0  0  0  0  0  0  0  0  0  0
    9.5606  -15.5895   28.0404 C   0  0  0  0  0  0  0  0  0  0  0  0
    8.7594  -14.4845   28.2272 C   0  0  0  0  0  0  0  0  0  0  0  0
    9.3376  -13.2515   28.4451 C   0  0  0  0  0  0  0  0  0  0  0  0
   10.7065  -13.0925   28.4815 C   0  0  0  0  0  0  0  0  0  0  0  0
   11.4910  -14.1979   28.2946 C   0  0  0  0  0  0  0  0  0  0  0  0
   10.9285  -15.4297   28.0770 C   0  0  0  0  0  0  0  0  0  0  0  0
    8.9470  -18.9761   26.5607 C   0  0  0  0  0  0  0  0  0  0  0  0
    9.4728  -19.8071   27.3330 O   0  0  0  0  0  0  0  0  0  0  0  0
    7.9489  -19.4334   25.7285 O   0  0  0  0  0  0  0  0  0  0  0  0
  1  2  1  0
  3  5  1  0
  3  2  1  0
  3  4  1  1
  5  6  1  6
  7  9  1  0
  7  5  1  0
  8  7  2  0
 10  9  1  0
 11 12  1  0
 10 11  1  1
 12 17  1  0
 13 12  2  0
 13 14  1  0
 14 15  2  0
 15 16  1  0
 17 16  2  0
 18 10  1  0
 18 20  1  0
 19 18  2  0
 21 20  1  0
 21 29  1  0
 21 22  1  1
 23 22  1  0
 23 24  2  0
 25 24  1  0
 26 25  2  0
 27 28  2  0
 27 26  1  0
 28 23  1  0
 29 30  2  0
 29 31  1  0
M  END
$$$$
