IFF.pdb
     RDKit          3D

 31 32  0  0  1  0  0  0  0  0999 V2000
   11.8498  -20.9647   18.5970 C   0  0  0  0  0  0  0  0  0  0  0  0
   10.7886  -19.8938   18.3571 C   0  0  0  0  0  0  0  0  0  0  0  0
   10.7494  -19.0186   19.5738 C   0  0  2  0  0  0  0  0  0  0  0  0
   10.6659  -19.8203   20.8545 C   0  0  0  0  0  0  0  0  0  0  0  0
    9.7432  -17.9251   19.5022 C   0  0  2  0  0  0  0  0  0  0  0  0
    9.9871  -17.1891   18.2469 N   0  0  0  0  0  0  0  0  0  0  0  0
    9.7493  -16.9866   20.6497 C   0  0  0  0  0  0  0  0  0  0  0  0
   10.7603  -16.2902   20.9080 O   0  0  0  0  0  0  0  0  0  0  0  0
    8.5985  -16.8692   21.4719 N   0  0  0  0  0  0  0  0  0  0  0  0
    8.5842  -16.0414   22.7033 C   0  0  1  0  0  0  0  0  0  0  0  0
    7.2508  -15.3975   22.8553 C   0  0  0  0  0  0  0  0  0  0  0  0
    7.0020  -14.6222   24.0613 C   0  0  0  0  0  0  0  0  0  0  0  0
    7.4802  -13.3338   24.2220 C   0  0  0  0  0  0  0  0  0  0  0  0
    7.2096  -12.5884   25.3510 C   0  0  0  0  0  0  0  0  0  0  0  0
    6.4457  -13.1058   26.3689 C   0  0  0  0  0  0  0  0  0  0  0  0
    5.9648  -14.3769   26.2278 C   0  0  0  0  0  0  0  0  0  0  0  0
    6.2379  -15.1263   25.0911 C   0  0  0  0  0  0  0  0  0  0  0  0
    9.0884  -16.8126   23.8379 C   0  0  0  0  0  0  0  0  0  0  0  0
    8.6178  -17.9987   24.0138 O   0  0  0  0  0  0  0  0  0  0  0  0
   10.0540  -16.4091   24.7841 N   0  0  0  0  0  0  0  0  0  0  0  0
   10.5486  -17.3400   25.8183 C   0  0  1  0  0  0  0  0  0  0  0  0
   11.7143  -16.6576   26.4939 C   0  0  0  0  0  0  0  0  0  0  0  0
   11.3832  -15.4731   27.2728 C   0  0  0  0  0  0  0  0  0  0  0  0
   11.1852  -15.5568   28.6336 C   0  0  0  0  0  0  0  0  0  0  0  0
   10.8856  -14.4176   29.3508 C   0  0  0  0  0  0  0  0  0  0  0  0
   10.7779  -13.1869   28.7390 C   0  0  0  0  0  0  0  0  0  0  0  0
   10.9770  -13.1173   27.3870 C   0  0  0  0  0  0  0  0  0  0  0  0
   11.2754  -14.2428   26.6622 C   0  0  0  0  0  0  0  0  0  0  0  0
    9.5375  -17.6794   26.8095 C   0  0  0  0  0  0  0  0  0  0  0  0
    9.7418  -18.5156   27.7165 O   0  0  0  0  0  0  0  0  0  0  0  0
    8.3000  -17.0750   26.7774 O   0  0  0  0  0  0  0  0  0  0  0  0
  1  2  1  0
  3  5  1  0
  3  2  1  0
  3  4  1  1
  5  6  1  6
  7  9  1  0
  7  5  1  0
  8  7  2  0
 10  9  1  0
 11 12  1  0
 10 11  1  1
 12 17  1  0
 13 12  2  0
 13 14  1  0
 14 15  2  0
 15 16  1  0
 17 16  2  0
 18 10  1  0
 18 20  1  0
 19 18  2  0
 21 20  1  0
 21 29  1  0
 21 22  1  1
 23 22  1  0
 23 24  2  0
 25 24  1  0
 26 25  2  0
 27 28  2  0
 27 26  1  0
 28 23  1  0
 29 30  2  0
 29 31  1  0
M  END
$$$$
