IFF.pdb
     RDKit          3D

 31 32  0  0  1  0  0  0  0  0999 V2000
   11.6627  -20.8926   18.4217 C   0  0  0  0  0  0  0  0  0  0  0  0
   10.7825  -19.6719   18.1654 C   0  0  0  0  0  0  0  0  0  0  0  0
   10.8003  -18.8351   19.4093 C   0  0  2  0  0  0  0  0  0  0  0  0
   10.5628  -19.6575   20.6572 C   0  0  0  0  0  0  0  0  0  0  0  0
    9.9420  -17.6222   19.3367 C   0  0  2  0  0  0  0  0  0  0  0  0
   10.3833  -16.8449   18.1628 N   0  0  0  0  0  0  0  0  0  0  0  0
    9.9570  -16.7659   20.5467 C   0  0  0  0  0  0  0  0  0  0  0  0
   11.0097  -16.1943   20.9194 O   0  0  0  0  0  0  0  0  0  0  0  0
    8.7670  -16.5857   21.2989 N   0  0  0  0  0  0  0  0  0  0  0  0
    8.7291  -15.7763   22.5420 C   0  0  1  0  0  0  0  0  0  0  0  0
    7.4102  -15.0951   22.6529 C   0  0  0  0  0  0  0  0  0  0  0  0
    7.1179  -14.3721   23.8814 C   0  0  0  0  0  0  0  0  0  0  0  0
    6.4211  -14.9483   24.9287 C   0  0  0  0  0  0  0  0  0  0  0  0
    6.1793  -14.2720   26.1067 C   0  0  0  0  0  0  0  0  0  0  0  0
    6.6279  -12.9856   26.2838 C   0  0  0  0  0  0  0  0  0  0  0  0
    7.3179  -12.4002   25.2602 C   0  0  0  0  0  0  0  0  0  0  0  0
    7.5605  -13.0818   24.0749 C   0  0  0  0  0  0  0  0  0  0  0  0
    9.1658  -16.5792   23.6827 C   0  0  0  0  0  0  0  0  0  0  0  0
    8.6746  -17.7636   23.8058 O   0  0  0  0  0  0  0  0  0  0  0  0
   10.0848  -16.2087   24.6868 N   0  0  0  0  0  0  0  0  0  0  0  0
   10.5071  -17.1654   25.7295 C   0  0  1  0  0  0  0  0  0  0  0  0
   11.5514  -16.4634   26.5646 C   0  0  0  0  0  0  0  0  0  0  0  0
   11.0621  -15.3727   27.3954 C   0  0  0  0  0  0  0  0  0  0  0  0
   10.8208  -15.5628   28.7383 C   0  0  0  0  0  0  0  0  0  0  0  0
   10.3701  -14.5097   29.5064 C   0  0  0  0  0  0  0  0  0  0  0  0
   10.1525  -13.2614   28.9633 C   0  0  0  0  0  0  0  0  0  0  0  0
   10.3960  -13.0857   27.6283 C   0  0  0  0  0  0  0  0  0  0  0  0
   10.8444  -14.1248   26.8535 C   0  0  0  0  0  0  0  0  0  0  0  0
    9.4093  -17.6007   26.5812 C   0  0  0  0  0  0  0  0  0  0  0  0
    8.2745  -17.0777   26.5320 O   0  0  0  0  0  0  0  0  0  0  0  0
    9.5922  -18.6244   27.4846 O   0  0  0  0  0  0  0  0  0  0  0  0
  1  2  1  0
  3  5  1  0
  3  2  1  0
  3  4  1  1
  5  6  1  6
  7  9  1  0
  7  5  1  0
  8  7  2  0
 10  9  1  0
 11 12  1  0
 10 11  1  1
 12 17  1  0
 13 12  2  0
 13 14  1  0
 14 15  2  0
 15 16  1  0
 17 16  2  0
 18 10  1  0
 18 20  1  0
 19 18  2  0
 21 20  1  0
 21 29  1  0
 21 22  1  1
 23 22  1  0
 23 24  2  0
 25 24  1  0
 26 25  2  0
 27 28  2  0
 27 26  1  0
 28 23  1  0
 29 30  2  0
 29 31  1  0
M  END
$$$$
