IFF.pdb
     RDKit          3D

 31 32  0  0  1  0  0  0  0  0999 V2000
    8.3917  -21.4524   21.7312 C   0  0  0  0  0  0  0  0  0  0  0  0
    8.6970  -20.2834   20.7980 C   0  0  0  0  0  0  0  0  0  0  0  0
    7.5460  -19.3266   20.8840 C   0  0  2  0  0  0  0  0  0  0  0  0
    6.2274  -19.9829   20.5371 C   0  0  0  0  0  0  0  0  0  0  0  0
    7.7681  -18.0444   20.1630 C   0  0  2  0  0  0  0  0  0  0  0  0
    8.5774  -18.3503   18.9679 N   0  0  0  0  0  0  0  0  0  0  0  0
    8.4221  -16.9785   20.9590 C   0  0  0  0  0  0  0  0  0  0  0  0
    9.6642  -16.8091   20.9129 O   0  0  0  0  0  0  0  0  0  0  0  0
    7.6378  -16.1340   21.7873 N   0  0  0  0  0  0  0  0  0  0  0  0
    8.2439  -15.1374   22.7045 C   0  0  1  0  0  0  0  0  0  0  0  0
    7.7494  -13.7766   22.3586 C   0  0  0  0  0  0  0  0  0  0  0  0
    7.7463  -13.3888   20.9562 C   0  0  0  0  0  0  0  0  0  0  0  0
    8.7983  -12.7000   20.3788 C   0  0  0  0  0  0  0  0  0  0  0  0
    8.8083  -12.3678   19.0397 C   0  0  0  0  0  0  0  0  0  0  0  0
    7.7603  -12.7137   18.2215 C   0  0  0  0  0  0  0  0  0  0  0  0
    6.7124  -13.3942   18.7743 C   0  0  0  0  0  0  0  0  0  0  0  0
    6.7034  -13.7279   20.1222 C   0  0  0  0  0  0  0  0  0  0  0  0
    8.0958  -15.5706   24.0926 C   0  0  0  0  0  0  0  0  0  0  0  0
    7.1475  -15.0442   24.7875 O   0  0  0  0  0  0  0  0  0  0  0  0
    8.8801  -16.5208   24.7797 N   0  0  0  0  0  0  0  0  0  0  0  0
    9.5589  -16.1816   26.0466 C   0  0  1  0  0  0  0  0  0  0  0  0
    8.4751  -15.8367   27.0402 C   0  0  0  0  0  0  0  0  0  0  0  0
    7.9542  -14.4799   26.9557 C   0  0  0  0  0  0  0  0  0  0  0  0
    6.6298  -14.2506   26.6537 C   0  0  0  0  0  0  0  0  0  0  0  0
    6.1581  -12.9561   26.5928 C   0  0  0  0  0  0  0  0  0  0  0  0
    6.9818  -11.8759   26.8278 C   0  0  0  0  0  0  0  0  0  0  0  0
    8.2950  -12.1172   27.1268 C   0  0  0  0  0  0  0  0  0  0  0  0
    8.7767  -13.3998   27.1904 C   0  0  0  0  0  0  0  0  0  0  0  0
   10.3720  -17.2718   26.5666 C   0  0  0  0  0  0  0  0  0  0  0  0
   10.9436  -17.2112   27.6771 O   0  0  0  0  0  0  0  0  0  0  0  0
   10.5377  -18.4274   25.8353 O   0  0  0  0  0  0  0  0  0  0  0  0
  1  2  1  0
  3  5  1  0
  3  2  1  0
  3  4  1  6
  5  6  1  6
  7  9  1  0
  7  5  1  0
  8  7  2  0
 10  9  1  0
 11 12  1  0
 10 11  1  1
 12 17  1  0
 13 12  2  0
 13 14  1  0
 14 15  2  0
 15 16  1  0
 17 16  2  0
 18 10  1  0
 18 20  1  0
 19 18  2  0
 21 20  1  0
 21 29  1  0
 21 22  1  1
 23 22  1  0
 23 24  2  0
 25 24  1  0
 26 25  2  0
 27 28  2  0
 27 26  1  0
 28 23  1  0
 29 30  2  0
 29 31  1  0
M  END
$$$$
