ACK.pdb
     RDKit          3D

 21 20  0  0  1  0  0  0  0  0999 V2000
   27.4653  -20.8811  -18.2709 C   0  0  0  0  0  0  0  0  0  0  0  0
   28.2093  -20.3579  -17.0498 C   0  0  2  0  0  0  0  0  0  0  0  0
   29.6200  -20.6701  -17.1879 N   0  0  0  0  0  0  0  0  0  0  0  0
   27.7131  -20.9650  -15.8018 C   0  0  0  0  0  0  0  0  0  0  0  0
   26.9344  -21.9782  -15.8245 O   0  0  0  0  0  0  0  0  0  0  0  0
   28.0499  -20.4876  -14.5059 N   0  0  0  0  0  0  0  0  0  0  0  0
   27.5623  -21.0979  -13.2839 C   0  0  1  0  0  0  0  0  0  0  0  0
   28.5163  -20.6420  -12.1751 C   0  0  0  0  0  0  0  0  0  0  0  0
   30.1211  -21.4312  -12.3202 S   0  0  0  0  0  0  0  0  0  0  0  0
   26.1699  -20.6843  -12.9822 C   0  0  0  0  0  0  0  0  0  0  0  0
   25.8884  -19.4775  -13.0562 O   0  0  0  0  0  0  0  0  0  0  0  0
   25.1464  -21.5674  -12.6177 N   0  0  0  0  0  0  0  0  0  0  0  0
   23.8048  -21.2664  -12.3274 C   0  0  1  0  0  0  0  0  0  0  0  0
   22.7885  -22.3351  -12.5471 C   0  0  0  0  0  0  0  0  0  0  0  0
   21.3859  -21.8851  -12.2181 C   0  0  0  0  0  0  0  0  0  0  0  0
   20.5716  -21.8244  -13.4791 C   0  0  0  0  0  0  0  0  0  0  0  0
   19.1575  -21.3945  -13.3137 C   0  0  0  0  0  0  0  0  0  0  0  0
   18.5435  -21.4108  -14.6339 N   0  0  0  0  0  0  0  0  0  0  0  0
   23.6888  -20.8021  -10.9275 C   0  0  0  0  0  0  0  0  0  0  0  0
   24.3964  -21.2157   -9.9740 O   0  0  0  0  0  0  0  0  0  0  0  0
   22.7380  -19.8436  -10.6282 O   0  0  0  0  0  0  0  0  0  0  0  0
  2  1  1  6
  2  3  1  0
  4  2  1  0
  5  4  2  0
  6  4  1  0
  7  6  1  0
  7 10  1  0
  7  8  1  1
  9  8  1  0
 10 11  2  0
 12 10  1  0
 12 13  1  0
 13 14  1  1
 14 15  1  0
 15 16  1  0
 16 17  1  0
 18 17  1  0
 19 13  1  0
 19 21  1  0
 20 19  2  0
M  END
$$$$
