ACK.pdb
     RDKit          3D

 21 20  0  0  1  0  0  0  0  0999 V2000
   13.6303  -10.8348  -12.1308 C   0  0  0  0  0  0  0  0  0  0  0  0
   15.1209  -10.8176  -11.8211 C   0  0  2  0  0  0  0  0  0  0  0  0
   15.3345  -11.3802  -10.5003 N   0  0  0  0  0  0  0  0  0  0  0  0
   15.6717   -9.4508  -11.8449 C   0  0  0  0  0  0  0  0  0  0  0  0
   15.7145   -8.7750  -12.9289 O   0  0  0  0  0  0  0  0  0  0  0  0
   16.1865   -8.7893  -10.6968 N   0  0  0  0  0  0  0  0  0  0  0  0
   16.6724   -7.4230  -10.7194 C   0  0  1  0  0  0  0  0  0  0  0  0
   16.4296   -6.8658   -9.3130 C   0  0  0  0  0  0  0  0  0  0  0  0
   17.2731   -5.3010   -9.0690 S   0  0  0  0  0  0  0  0  0  0  0  0
   18.1128   -7.3590  -11.0686 C   0  0  0  0  0  0  0  0  0  0  0  0
   18.8740   -8.2046  -10.5718 O   0  0  0  0  0  0  0  0  0  0  0  0
   18.6751   -6.4045  -11.9249 N   0  0  0  0  0  0  0  0  0  0  0  0
   19.8986   -6.4713  -12.6127 C   0  0  1  0  0  0  0  0  0  0  0  0
   20.1018   -7.6019  -13.5633 C   0  0  0  0  0  0  0  0  0  0  0  0
   21.4218   -7.5245  -14.2911 C   0  0  0  0  0  0  0  0  0  0  0  0
   21.5240   -8.6645  -15.2641 C   0  0  0  0  0  0  0  0  0  0  0  0
   22.7347   -8.6688  -16.1278 C   0  0  0  0  0  0  0  0  0  0  0  0
   22.6669   -9.8610  -16.9611 N   0  0  0  0  0  0  0  0  0  0  0  0
   20.1292   -5.2071  -13.3456 C   0  0  0  0  0  0  0  0  0  0  0  0
   19.2241   -4.4134  -13.7086 O   0  0  0  0  0  0  0  0  0  0  0  0
   21.4291   -4.8573  -13.6626 O   0  0  0  0  0  0  0  0  0  0  0  0
  2  1  1  1
  2  3  1  0
  4  2  1  0
  5  4  2  0
  6  4  1  0
  7  6  1  0
  7 10  1  0
  7  8  1  1
  9  8  1  0
 10 11  2  0
 12 10  1  0
 12 13  1  0
 13 14  1  6
 14 15  1  0
 15 16  1  0
 16 17  1  0
 18 17  1  0
 19 13  1  0
 19 21  1  0
 20 19  2  0
M  END
$$$$
