ACK.pdb
     RDKit          3D

 21 20  0  0  1  0  0  0  0  0999 V2000
   25.5861  -13.6178  -19.8998 C   0  0  0  0  0  0  0  0  0  0  0  0
   25.1129  -12.1711  -19.9386 C   0  0  2  0  0  0  0  0  0  0  0  0
   26.1702  -11.3440  -20.4907 N   0  0  0  0  0  0  0  0  0  0  0  0
   24.7742  -11.6672  -18.5956 C   0  0  0  0  0  0  0  0  0  0  0  0
   23.8642  -12.2239  -17.8917 O   0  0  0  0  0  0  0  0  0  0  0  0
   25.4135  -10.5520  -17.9888 N   0  0  0  0  0  0  0  0  0  0  0  0
   25.0218  -10.0182  -16.6984 C   0  0  1  0  0  0  0  0  0  0  0  0
   26.2828   -9.3813  -16.1052 C   0  0  0  0  0  0  0  0  0  0  0  0
   27.3960  -10.6203  -15.4382 S   0  0  0  0  0  0  0  0  0  0  0  0
   23.9367   -9.0148  -16.8265 C   0  0  0  0  0  0  0  0  0  0  0  0
   24.0195   -8.1758  -17.7378 O   0  0  0  0  0  0  0  0  0  0  0  0
   22.8196   -8.9495  -15.9849 N   0  0  0  0  0  0  0  0  0  0  0  0
   21.7110   -8.0914  -16.0816 C   0  0  1  0  0  0  0  0  0  0  0  0
   20.3796   -8.7031  -16.3577 C   0  0  0  0  0  0  0  0  0  0  0  0
   19.3051   -7.6746  -16.6144 C   0  0  0  0  0  0  0  0  0  0  0  0
   17.9933   -8.3691  -16.8462 C   0  0  0  0  0  0  0  0  0  0  0  0
   16.8611   -7.4921  -17.2473 C   0  0  0  0  0  0  0  0  0  0  0  0
   15.6773   -8.3339  -17.3491 N   0  0  0  0  0  0  0  0  0  0  0  0
   21.5981   -7.2807  -14.8493 C   0  0  0  0  0  0  0  0  0  0  0  0
   22.0625   -7.6111  -13.7285 O   0  0  0  0  0  0  0  0  0  0  0  0
   20.9365   -6.0681  -14.9170 O   0  0  0  0  0  0  0  0  0  0  0  0
  2  1  1  1
  2  3  1  0
  4  2  1  0
  5  4  2  0
  6  4  1  0
  7  6  1  0
  7 10  1  0
  7  8  1  6
  9  8  1  0
 10 11  2  0
 12 10  1  0
 12 13  1  0
 13 14  1  1
 14 15  1  0
 15 16  1  0
 16 17  1  0
 18 17  1  0
 19 13  1  0
 19 21  1  0
 20 19  2  0
M  END
$$$$
