ACK.pdb
     RDKit          3D

 21 20  0  0  1  0  0  0  0  0999 V2000
   21.1624   -8.1647  -11.1080 C   0  0  0  0  0  0  0  0  0  0  0  0
   20.4486   -8.3847  -12.4348 C   0  0  2  0  0  0  0  0  0  0  0  0
   21.3329   -7.9917  -13.5166 N   0  0  0  0  0  0  0  0  0  0  0  0
   19.2086   -7.5938  -12.5299 C   0  0  0  0  0  0  0  0  0  0  0  0
   19.2072   -6.4290  -13.0558 O   0  0  0  0  0  0  0  0  0  0  0  0
   17.9470   -8.0479  -12.0579 N   0  0  0  0  0  0  0  0  0  0  0  0
   16.7159   -7.3039  -12.2430 C   0  0  1  0  0  0  0  0  0  0  0  0
   15.9651   -8.0069  -13.3786 C   0  0  0  0  0  0  0  0  0  0  0  0
   14.3170   -7.3319  -13.5965 S   0  0  0  0  0  0  0  0  0  0  0  0
   15.8971   -7.2821  -11.0061 C   0  0  0  0  0  0  0  0  0  0  0  0
   15.9589   -8.2614  -10.2456 O   0  0  0  0  0  0  0  0  0  0  0  0
   15.0549   -6.2264  -10.6364 N   0  0  0  0  0  0  0  0  0  0  0  0
   14.2307   -6.1320   -9.5022 C   0  0  1  0  0  0  0  0  0  0  0  0
   14.4980   -5.0269   -8.5377 C   0  0  0  0  0  0  0  0  0  0  0  0
   13.4564   -4.9354   -7.4493 C   0  0  0  0  0  0  0  0  0  0  0  0
   13.7405   -3.7404   -6.5844 C   0  0  0  0  0  0  0  0  0  0  0  0
   12.7883   -3.5135   -5.4647 C   0  0  0  0  0  0  0  0  0  0  0  0
   13.2411   -2.3314   -4.7451 N   0  0  0  0  0  0  0  0  0  0  0  0
   12.8142   -6.0453   -9.9201 C   0  0  0  0  0  0  0  0  0  0  0  0
   11.8340   -6.3724   -9.2037 O   0  0  0  0  0  0  0  0  0  0  0  0
   12.5293   -5.5720  -11.1879 O   0  0  0  0  0  0  0  0  0  0  0  0
  2  1  1  1
  2  3  1  0
  4  2  1  0
  5  4  2  0
  6  4  1  0
  7  6  1  0
  7 10  1  0
  7  8  1  6
  9  8  1  0
 10 11  2  0
 12 10  1  0
 12 13  1  0
 13 14  1  6
 14 15  1  0
 15 16  1  0
 16 17  1  0
 18 17  1  0
 19 13  1  0
 19 21  1  0
 20 19  2  0
M  END
$$$$
