ACK.pdb
     RDKit          3D

 21 20  0  0  1  0  0  0  0  0999 V2000
   22.4647  -13.1471  -19.3412 C   0  0  0  0  0  0  0  0  0  0  0  0
   23.8559  -12.7545  -18.8628 C   0  0  2  0  0  0  0  0  0  0  0  0
   24.4902  -13.9114  -18.2579 N   0  0  0  0  0  0  0  0  0  0  0  0
   23.8089  -11.6692  -17.8667 C   0  0  0  0  0  0  0  0  0  0  0  0
   22.8107  -11.5386  -17.0793 O   0  0  0  0  0  0  0  0  0  0  0  0
   24.8405  -10.7049  -17.7038 N   0  0  0  0  0  0  0  0  0  0  0  0
   24.7857   -9.6433  -16.7172 C   0  0  1  0  0  0  0  0  0  0  0  0
   26.2416   -9.2802  -16.4071 C   0  0  0  0  0  0  0  0  0  0  0  0
   26.9664  -10.4160  -15.2222 S   0  0  0  0  0  0  0  0  0  0  0  0
   24.0459   -8.4615  -17.2239 C   0  0  0  0  0  0  0  0  0  0  0  0
   24.2934   -8.0644  -18.3737 O   0  0  0  0  0  0  0  0  0  0  0  0
   23.0822   -7.7600  -16.4893 N   0  0  0  0  0  0  0  0  0  0  0  0
   22.2920   -6.6765  -16.9092 C   0  0  1  0  0  0  0  0  0  0  0  0
   21.0946   -6.9719  -17.7471 C   0  0  0  0  0  0  0  0  0  0  0  0
   20.3261   -5.7299  -18.1280 C   0  0  0  0  0  0  0  0  0  0  0  0
   19.1755   -6.1069  -19.0173 C   0  0  0  0  0  0  0  0  0  0  0  0
   18.3030   -4.9844  -19.4539 C   0  0  0  0  0  0  0  0  0  0  0  0
   17.2475   -5.5534  -20.2800 N   0  0  0  0  0  0  0  0  0  0  0  0
   21.8492   -5.8959  -15.7331 C   0  0  0  0  0  0  0  0  0  0  0  0
   21.8497   -6.3201  -14.5495 O   0  0  0  0  0  0  0  0  0  0  0  0
   21.3989   -4.6036  -15.9320 O   0  0  0  0  0  0  0  0  0  0  0  0
  2  1  1  1
  2  3  1  0
  4  2  1  0
  5  4  2  0
  6  4  1  0
  7  6  1  0
  7 10  1  0
  7  8  1  6
  9  8  1  0
 10 11  2  0
 12 10  1  0
 12 13  1  0
 13 14  1  1
 14 15  1  0
 15 16  1  0
 16 17  1  0
 18 17  1  0
 19 13  1  0
 19 21  1  0
 20 19  2  0
M  END
$$$$
