ACK.pdb
     RDKit          3D

 21 20  0  0  1  0  0  0  0  0999 V2000
   26.7057  -16.7789  -14.3424 C   0  0  0  0  0  0  0  0  0  0  0  0
   25.8563  -17.4691  -15.4010 C   0  0  2  0  0  0  0  0  0  0  0  0
   26.3251  -18.8328  -15.5659 N   0  0  0  0  0  0  0  0  0  0  0  0
   25.9363  -16.7834  -16.7031 C   0  0  0  0  0  0  0  0  0  0  0  0
   26.8430  -17.0832  -17.5525 O   0  0  0  0  0  0  0  0  0  0  0  0
   25.0370  -15.7608  -17.1109 N   0  0  0  0  0  0  0  0  0  0  0  0
   25.1397  -15.0757  -18.3852 C   0  0  1  0  0  0  0  0  0  0  0  0
   23.7404  -15.1297  -19.0069 C   0  0  0  0  0  0  0  0  0  0  0  0
   23.6250  -14.0872  -20.4626 S   0  0  0  0  0  0  0  0  0  0  0  0
   25.5866  -13.6711  -18.2180 C   0  0  0  0  0  0  0  0  0  0  0  0
   25.0307  -12.9789  -17.3502 O   0  0  0  0  0  0  0  0  0  0  0  0
   26.5984  -13.0699  -18.9766 N   0  0  0  0  0  0  0  0  0  0  0  0
   27.1353  -11.7789  -18.8365 C   0  0  1  0  0  0  0  0  0  0  0  0
   28.6192  -11.6444  -18.7820 C   0  0  0  0  0  0  0  0  0  0  0  0
   29.0695  -10.2244  -18.5393 C   0  0  0  0  0  0  0  0  0  0  0  0
   30.5708  -10.1695  -18.5368 C   0  0  0  0  0  0  0  0  0  0  0  0
   31.1667   -8.8265  -18.3064 C   0  0  0  0  0  0  0  0  0  0  0  0
   32.6138   -8.9826  -18.3492 N   0  0  0  0  0  0  0  0  0  0  0  0
   26.6342  -10.9090  -19.9233 C   0  0  0  0  0  0  0  0  0  0  0  0
   26.4595  -11.2765  -21.1129 O   0  0  0  0  0  0  0  0  0  0  0  0
   26.3310   -9.5928  -19.6265 O   0  0  0  0  0  0  0  0  0  0  0  0
  2  1  1  1
  2  3  1  0
  4  2  1  0
  5  4  2  0
  6  4  1  0
  7  6  1  0
  7 10  1  0
  7  8  1  1
  9  8  1  0
 10 11  2  0
 12 10  1  0
 12 13  1  0
 13 14  1  6
 14 15  1  0
 15 16  1  0
 16 17  1  0
 18 17  1  0
 19 13  1  0
 19 21  1  0
 20 19  2  0
M  END
$$$$
