ACK.pdb
     RDKit          3D

 21 20  0  0  1  0  0  0  0  0999 V2000
   27.5512  -17.8369  -14.6122 C   0  0  0  0  0  0  0  0  0  0  0  0
   28.1002  -19.2316  -14.3445 C   0  0  2  0  0  0  0  0  0  0  0  0
   28.7118  -19.7385  -15.5593 N   0  0  0  0  0  0  0  0  0  0  0  0
   27.0422  -20.1678  -13.9244 C   0  0  0  0  0  0  0  0  0  0  0  0
   26.4589  -20.9276  -14.7705 O   0  0  0  0  0  0  0  0  0  0  0  0
   26.5955  -20.2996  -12.5814 N   0  0  0  0  0  0  0  0  0  0  0  0
   25.5623  -21.2337  -12.1770 C   0  0  1  0  0  0  0  0  0  0  0  0
   25.7231  -21.4110  -10.6637 C   0  0  0  0  0  0  0  0  0  0  0  0
   25.5422  -19.8519   -9.7942 S   0  0  0  0  0  0  0  0  0  0  0  0
   24.2069  -20.7282  -12.5058 C   0  0  0  0  0  0  0  0  0  0  0  0
   24.0032  -19.5060  -12.4297 O   0  0  0  0  0  0  0  0  0  0  0  0
   23.1361  -21.5405  -12.8982 N   0  0  0  0  0  0  0  0  0  0  0  0
   21.8582  -21.1425  -13.3265 C   0  0  1  0  0  0  0  0  0  0  0  0
   21.2612  -21.8560  -14.4916 C   0  0  0  0  0  0  0  0  0  0  0  0
   19.8977  -21.3275  -14.8654 C   0  0  0  0  0  0  0  0  0  0  0  0
   19.3428  -22.1358  -16.0035 C   0  0  0  0  0  0  0  0  0  0  0  0
   17.9941  -21.7329  -16.4836 C   0  0  0  0  0  0  0  0  0  0  0  0
   17.5947  -22.6910  -17.5048 N   0  0  0  0  0  0  0  0  0  0  0  0
   20.9050  -21.2260  -12.1983 C   0  0  0  0  0  0  0  0  0  0  0  0
   20.9665  -22.0702  -11.2686 O   0  0  0  0  0  0  0  0  0  0  0  0
   19.8642  -20.3168  -12.1468 O   0  0  0  0  0  0  0  0  0  0  0  0
  2  1  1  6
  2  3  1  0
  4  2  1  0
  5  4  2  0
  6  4  1  0
  7  6  1  0
  7 10  1  0
  7  8  1  1
  9  8  1  0
 10 11  2  0
 12 10  1  0
 12 13  1  0
 13 14  1  6
 14 15  1  0
 15 16  1  0
 16 17  1  0
 18 17  1  0
 19 13  1  0
 19 21  1  0
 20 19  2  0
M  END
$$$$
