ACK.pdb
     RDKit          3D

 21 20  0  0  1  0  0  0  0  0999 V2000
   14.1047  -13.1711  -14.8207 C   0  0  0  0  0  0  0  0  0  0  0  0
   15.6001  -12.9473  -14.6420 C   0  0  2  0  0  0  0  0  0  0  0  0
   16.0312  -13.5979  -13.4183 N   0  0  0  0  0  0  0  0  0  0  0  0
   15.9353  -11.5146  -14.5563 C   0  0  0  0  0  0  0  0  0  0  0  0
   15.8976  -10.7647  -15.5905 O   0  0  0  0  0  0  0  0  0  0  0  0
   16.3174  -10.8663  -13.3503 N   0  0  0  0  0  0  0  0  0  0  0  0
   16.7323   -9.4777  -13.2930 C   0  0  1  0  0  0  0  0  0  0  0  0
   16.3014   -8.9655  -11.9148 C   0  0  0  0  0  0  0  0  0  0  0  0
   17.1369   -9.8459  -10.5933 S   0  0  0  0  0  0  0  0  0  0  0  0
   18.1981   -9.3356  -13.4717 C   0  0  0  0  0  0  0  0  0  0  0  0
   18.9376  -10.1774  -12.9373 O   0  0  0  0  0  0  0  0  0  0  0  0
   18.8072   -8.3109  -14.2062 N   0  0  0  0  0  0  0  0  0  0  0  0
   20.1788   -8.1030  -14.4304 C   0  0  1  0  0  0  0  0  0  0  0  0
   20.6882   -8.2614  -15.8227 C   0  0  0  0  0  0  0  0  0  0  0  0
   22.1944   -8.2068  -15.9044 C   0  0  0  0  0  0  0  0  0  0  0  0
   22.6272   -8.4464  -17.3229 C   0  0  0  0  0  0  0  0  0  0  0  0
   24.0864   -8.6491  -17.5266 C   0  0  0  0  0  0  0  0  0  0  0  0
   24.2968   -8.8761  -18.9494 N   0  0  0  0  0  0  0  0  0  0  0  0
   20.5653   -6.7585  -13.9494 C   0  0  0  0  0  0  0  0  0  0  0  0
   19.8206   -5.7457  -13.9767 O   0  0  0  0  0  0  0  0  0  0  0  0
   21.8346   -6.5850  -13.4286 O   0  0  0  0  0  0  0  0  0  0  0  0
  2  1  1  1
  2  3  1  0
  4  2  1  0
  5  4  2  0
  6  4  1  0
  7  6  1  0
  7 10  1  0
  7  8  1  1
  9  8  1  0
 10 11  2  0
 12 10  1  0
 12 13  1  0
 13 14  1  6
 14 15  1  0
 15 16  1  0
 16 17  1  0
 18 17  1  0
 19 13  1  0
 19 21  1  0
 20 19  2  0
M  END
$$$$
