ACK.pdb
     RDKit          3D

 21 20  0  0  1  0  0  0  0  0999 V2000
   19.9716  -25.9329  -15.6221 C   0  0  0  0  0  0  0  0  0  0  0  0
   20.0445  -25.0530  -14.3817 C   0  0  2  0  0  0  0  0  0  0  0  0
   20.9688  -23.9621  -14.6313 N   0  0  0  0  0  0  0  0  0  0  0  0
   20.5101  -25.8034  -13.2017 C   0  0  0  0  0  0  0  0  0  0  0  0
   21.7074  -25.6807  -12.7715 O   0  0  0  0  0  0  0  0  0  0  0  0
   19.6896  -26.7004  -12.4650 N   0  0  0  0  0  0  0  0  0  0  0  0
   20.1703  -27.4664  -11.3312 C   0  0  1  0  0  0  0  0  0  0  0  0
   19.2223  -27.1436  -10.1717 C   0  0  0  0  0  0  0  0  0  0  0  0
   19.7171  -25.6483   -9.3122 S   0  0  0  0  0  0  0  0  0  0  0  0
   20.1757  -28.9224  -11.6158 C   0  0  0  0  0  0  0  0  0  0  0  0
   19.1352  -29.4370  -12.0559 O   0  0  0  0  0  0  0  0  0  0  0  0
   21.2807  -29.7599  -11.4206 N   0  0  0  0  0  0  0  0  0  0  0  0
   21.3679  -31.1449  -11.6420 C   0  0  1  0  0  0  0  0  0  0  0  0
   22.7102  -31.7843  -11.5303 C   0  0  0  0  0  0  0  0  0  0  0  0
   23.1653  -31.9435  -10.1000 C   0  0  0  0  0  0  0  0  0  0  0  0
   24.5013  -32.6300  -10.0739 C   0  0  0  0  0  0  0  0  0  0  0  0
   24.9927  -33.0340   -8.7296 C   0  0  0  0  0  0  0  0  0  0  0  0
   26.2763  -33.6948   -8.9192 N   0  0  0  0  0  0  0  0  0  0  0  0
   20.4428  -31.8553  -10.7321 C   0  0  0  0  0  0  0  0  0  0  0  0
   20.0025  -31.3896   -9.6504 O   0  0  0  0  0  0  0  0  0  0  0  0
   20.0214  -33.1254  -11.0814 O   0  0  0  0  0  0  0  0  0  0  0  0
  2  1  1  6
  2  3  1  0
  4  2  1  0
  5  4  2  0
  6  4  1  0
  7  6  1  0
  7 10  1  0
  7  8  1  1
  9  8  1  0
 10 11  2  0
 12 10  1  0
 12 13  1  0
 13 14  1  1
 14 15  1  0
 15 16  1  0
 16 17  1  0
 18 17  1  0
 19 13  1  0
 19 21  1  0
 20 19  2  0
M  END
$$$$
