ACK.pdb
     RDKit          3D

 21 20  0  0  1  0  0  0  0  0999 V2000
   13.8747  -10.8357  -13.0454 C   0  0  0  0  0  0  0  0  0  0  0  0
   15.3304  -11.0570  -12.6581 C   0  0  2  0  0  0  0  0  0  0  0  0
   15.5320  -12.4646  -12.3670 N   0  0  0  0  0  0  0  0  0  0  0  0
   15.7086  -10.2719  -11.4694 C   0  0  0  0  0  0  0  0  0  0  0  0
   15.2520  -10.5647  -10.3122 O   0  0  0  0  0  0  0  0  0  0  0  0
   16.5878   -9.1557  -11.5103 N   0  0  0  0  0  0  0  0  0  0  0  0
   16.9005   -8.3490  -10.3462 C   0  0  1  0  0  0  0  0  0  0  0  0
   18.3211   -7.8201  -10.5690 C   0  0  0  0  0  0  0  0  0  0  0  0
   18.4114   -6.7617  -12.0151 S   0  0  0  0  0  0  0  0  0  0  0  0
   15.9423   -7.2284  -10.1822 C   0  0  0  0  0  0  0  0  0  0  0  0
   15.3465   -6.8150  -11.1898 O   0  0  0  0  0  0  0  0  0  0  0  0
   15.6628   -6.6021   -8.9615 N   0  0  0  0  0  0  0  0  0  0  0  0
   14.7624   -5.5524   -8.7124 C   0  0  1  0  0  0  0  0  0  0  0  0
   14.3561   -5.3045   -7.2994 C   0  0  0  0  0  0  0  0  0  0  0  0
   13.2861   -4.2473   -7.1751 C   0  0  0  0  0  0  0  0  0  0  0  0
   12.9577   -4.0364   -5.7245 C   0  0  0  0  0  0  0  0  0  0  0  0
   11.8358   -3.1004   -5.4465 C   0  0  0  0  0  0  0  0  0  0  0  0
   11.6179   -3.1022   -4.0069 N   0  0  0  0  0  0  0  0  0  0  0  0
   15.3021   -4.2902   -9.2640 C   0  0  0  0  0  0  0  0  0  0  0  0
   14.6096   -3.2838   -9.5616 O   0  0  0  0  0  0  0  0  0  0  0  0
   16.6655   -4.1929   -9.4738 O   0  0  0  0  0  0  0  0  0  0  0  0
  2  1  1  1
  2  3  1  0
  4  2  1  0
  5  4  2  0
  6  4  1  0
  7  6  1  0
  7 10  1  0
  7  8  1  6
  9  8  1  0
 10 11  2  0
 12 10  1  0
 12 13  1  0
 13 14  1  1
 14 15  1  0
 15 16  1  0
 16 17  1  0
 18 17  1  0
 19 13  1  0
 19 21  1  0
 20 19  2  0
M  END
$$$$
