YDK.pdb
     RDKit          3D

 30 30  0  0  1  0  0  0  0  0999 V2000
    7.1854  -13.0870   15.7686 O   0  0  0  0  0  0  0  0  0  0  0  0
    7.3498  -13.5076   17.0934 C   0  0  0  0  0  0  0  0  0  0  0  0
    7.9780  -12.6932   18.0145 C   0  0  0  0  0  0  0  0  0  0  0  0
    8.1475  -13.0944   19.3242 C   0  0  0  0  0  0  0  0  0  0  0  0
    7.6999  -14.3202   19.7712 C   0  0  0  0  0  0  0  0  0  0  0  0
    7.8554  -14.7940   21.1523 C   0  0  0  0  0  0  0  0  0  0  0  0
    9.2928  -14.8656   21.5985 C   0  0  2  0  0  0  0  0  0  0  0  0
   10.1541  -15.4841   20.6444 N   0  0  0  0  0  0  0  0  0  0  0  0
    9.3599  -15.6427   22.8631 C   0  0  0  0  0  0  0  0  0  0  0  0
    8.4030  -15.4670   23.6885 O   0  0  0  0  0  0  0  0  0  0  0  0
    7.0687  -15.1285   18.8286 C   0  0  0  0  0  0  0  0  0  0  0  0
    6.8967  -14.7364   17.5253 C   0  0  0  0  0  0  0  0  0  0  0  0
   10.4168  -16.5427   23.1724 N   0  0  0  0  0  0  0  0  0  0  0  0
   10.4796  -17.2046   24.4532 C   0  0  1  0  0  0  0  0  0  0  0  0
   11.4863  -18.3188   24.5129 C   0  0  0  0  0  0  0  0  0  0  0  0
   11.2573  -19.3907   23.5439 C   0  0  0  0  0  0  0  0  0  0  0  0
   10.1008  -19.7789   23.2557 O   0  0  0  0  0  0  0  0  0  0  0  0
   10.8554  -16.2084   25.5077 C   0  0  0  0  0  0  0  0  0  0  0  0
   11.9591  -15.5878   25.4738 O   0  0  0  0  0  0  0  0  0  0  0  0
   12.3270  -20.0048   22.9191 O   0  0  0  0  0  0  0  0  0  0  0  0
    9.9938  -15.9102   26.5973 N   0  0  0  0  0  0  0  0  0  0  0  0
   10.3124  -14.8793   27.5793 C   0  0  1  0  0  0  0  0  0  0  0  0
    9.0725  -14.1056   27.9741 C   0  0  0  0  0  0  0  0  0  0  0  0
    8.2898  -13.6526   26.7600 C   0  0  0  0  0  0  0  0  0  0  0  0
    7.0097  -13.0049   27.2723 C   0  0  0  0  0  0  0  0  0  0  0  0
    6.2001  -12.5777   26.0659 C   0  0  0  0  0  0  0  0  0  0  0  0
    4.9583  -12.0213   26.5780 N   0  0  0  0  0  0  0  0  0  0  0  0
   10.7911  -15.5938   28.7901 C   0  0  0  0  0  0  0  0  0  0  0  0
   11.2608  -14.9066   29.7298 O   0  0  0  0  0  0  0  0  0  0  0  0
   10.7497  -16.9704   28.9428 O   0  0  0  0  0  0  0  0  0  0  0  0
  1  2  1  0
  2 12  2  0
  3  2  1  0
  3  4  2  0
  4  5  1  0
  5 11  2  0
  5  6  1  0
  6  7  1  0
  7  8  1  6
  9 10  2  0
  9  7  1  0
 12 11  1  0
 13  9  1  0
 14 13  1  0
 14 15  1  6
 16 15  1  0
 16 20  1  0
 17 16  2  0
 18 14  1  0
 19 18  2  0
 21 18  1  0
 22 21  1  0
 23 24  1  0
 22 23  1  1
 25 24  1  0
 26 25  1  0
 27 26  1  0
 28 30  1  0
 28 22  1  0
 29 28  2  0
M  END
$$$$
