YDK.pdb
     RDKit          3D

 30 30  0  0  1  0  0  0  0  0999 V2000
    4.9618  -10.1720   27.0887 O   0  0  0  0  0  0  0  0  0  0  0  0
    5.7535  -11.2510   26.6789 C   0  0  0  0  0  0  0  0  0  0  0  0
    5.9079  -12.3558   27.4924 C   0  0  0  0  0  0  0  0  0  0  0  0
    6.6854  -13.4273   27.1017 C   0  0  0  0  0  0  0  0  0  0  0  0
    7.3403  -13.4441   25.8878 C   0  0  0  0  0  0  0  0  0  0  0  0
    8.1786  -14.5576   25.4259 C   0  0  0  0  0  0  0  0  0  0  0  0
    7.4614  -15.4927   24.4869 C   0  0  2  0  0  0  0  0  0  0  0  0
    6.3988  -16.2154   25.1060 N   0  0  0  0  0  0  0  0  0  0  0  0
    8.4419  -16.4707   23.9490 C   0  0  0  0  0  0  0  0  0  0  0  0
    8.4868  -17.6065   24.5284 O   0  0  0  0  0  0  0  0  0  0  0  0
    7.1733  -12.3215   25.0802 C   0  0  0  0  0  0  0  0  0  0  0  0
    6.4022  -11.2530   25.4619 C   0  0  0  0  0  0  0  0  0  0  0  0
    9.3007  -16.1927   22.8499 N   0  0  0  0  0  0  0  0  0  0  0  0
   10.3467  -17.1121   22.4716 C   0  0  1  0  0  0  0  0  0  0  0  0
   11.0680  -16.7269   21.2107 C   0  0  0  0  0  0  0  0  0  0  0  0
   12.0691  -17.6977   20.7684 C   0  0  0  0  0  0  0  0  0  0  0  0
   12.8662  -17.4399   19.8360 O   0  0  0  0  0  0  0  0  0  0  0  0
   11.3681  -17.1779   23.5662 C   0  0  0  0  0  0  0  0  0  0  0  0
   11.9688  -16.1419   23.9789 O   0  0  0  0  0  0  0  0  0  0  0  0
   12.1561  -18.9353   21.3787 O   0  0  0  0  0  0  0  0  0  0  0  0
   11.7136  -18.4040   24.1954 N   0  0  0  0  0  0  0  0  0  0  0  0
   12.4734  -18.4507   25.4400 C   0  0  1  0  0  0  0  0  0  0  0  0
   11.7520  -19.2758   26.4844 C   0  0  0  0  0  0  0  0  0  0  0  0
   12.5721  -19.4114   27.7496 C   0  0  0  0  0  0  0  0  0  0  0  0
   11.7398  -20.2227   28.7343 C   0  0  0  0  0  0  0  0  0  0  0  0
   12.5795  -20.4326   29.9770 C   0  0  0  0  0  0  0  0  0  0  0  0
   11.7911  -21.2637   30.8725 N   0  0  0  0  0  0  0  0  0  0  0  0
   13.7442  -19.1515   25.1240 C   0  0  0  0  0  0  0  0  0  0  0  0
   14.8127  -18.6511   25.5528 O   0  0  0  0  0  0  0  0  0  0  0  0
   13.8190  -20.3219   24.3860 O   0  0  0  0  0  0  0  0  0  0  0  0
  1  2  1  0
  2 12  2  0
  3  2  1  0
  3  4  2  0
  4  5  1  0
  5 11  2  0
  5  6  1  0
  6  7  1  0
  7  8  1  1
  9 10  2  0
  9  7  1  0
 12 11  1  0
 13  9  1  0
 14 13  1  0
 14 15  1  6
 16 15  1  0
 16 20  1  0
 17 16  2  0
 18 14  1  0
 19 18  2  0
 21 18  1  0
 22 21  1  0
 23 24  1  0
 22 23  1  1
 25 24  1  0
 26 25  1  0
 27 26  1  0
 28 30  1  0
 28 22  1  0
 29 28  2  0
M  END
$$$$
