YDK.pdb
     RDKit          3D

 30 30  0  0  1  0  0  0  0  0999 V2000
    7.4240  -11.4434   18.7594 O   0  0  0  0  0  0  0  0  0  0  0  0
    7.9226  -12.4813   19.5552 C   0  0  0  0  0  0  0  0  0  0  0  0
    7.1047  -13.1222   20.4643 C   0  0  0  0  0  0  0  0  0  0  0  0
    7.5821  -14.1471   21.2559 C   0  0  0  0  0  0  0  0  0  0  0  0
    8.8907  -14.5761   21.1762 C   0  0  0  0  0  0  0  0  0  0  0  0
    9.4475  -15.6604   21.9950 C   0  0  0  0  0  0  0  0  0  0  0  0
    9.5167  -16.9789   21.2690 C   0  0  2  0  0  0  0  0  0  0  0  0
    8.2373  -17.5571   21.0171 N   0  0  0  0  0  0  0  0  0  0  0  0
   10.3083  -17.9322   22.0890 C   0  0  0  0  0  0  0  0  0  0  0  0
    9.6516  -18.6579   22.9074 O   0  0  0  0  0  0  0  0  0  0  0  0
    9.7013  -13.9184   20.2540 C   0  0  0  0  0  0  0  0  0  0  0  0
    9.2337  -12.8990   19.4639 C   0  0  0  0  0  0  0  0  0  0  0  0
   11.7219  -18.0575   21.9951 N   0  0  0  0  0  0  0  0  0  0  0  0
   12.4170  -19.1447   22.6410 C   0  0  1  0  0  0  0  0  0  0  0  0
   13.6386  -19.6107   21.9000 C   0  0  0  0  0  0  0  0  0  0  0  0
   13.3755  -20.0830   20.5406 C   0  0  0  0  0  0  0  0  0  0  0  0
   14.1191  -19.7697   19.5814 O   0  0  0  0  0  0  0  0  0  0  0  0
   12.8627  -18.7078   24.0035 C   0  0  0  0  0  0  0  0  0  0  0  0
   13.3819  -17.5694   24.2005 O   0  0  0  0  0  0  0  0  0  0  0  0
   12.2859  -20.8948   20.2842 O   0  0  0  0  0  0  0  0  0  0  0  0
   12.7255  -19.5475   25.1413 N   0  0  0  0  0  0  0  0  0  0  0  0
   13.2379  -19.1669   26.4532 C   0  0  1  0  0  0  0  0  0  0  0  0
   12.7427  -20.1155   27.5242 C   0  0  0  0  0  0  0  0  0  0  0  0
   13.3441  -19.7915   28.8751 C   0  0  0  0  0  0  0  0  0  0  0  0
   12.8659  -20.8654   29.8439 C   0  0  0  0  0  0  0  0  0  0  0  0
   13.4233  -20.5277   31.2109 C   0  0  0  0  0  0  0  0  0  0  0  0
   12.8879  -21.5179   32.1313 N   0  0  0  0  0  0  0  0  0  0  0  0
   14.7139  -19.3146   26.3808 C   0  0  0  0  0  0  0  0  0  0  0  0
   15.4200  -18.4047   26.8804 O   0  0  0  0  0  0  0  0  0  0  0  0
   15.3552  -20.3946   25.7958 O   0  0  0  0  0  0  0  0  0  0  0  0
  1  2  1  0
  2 12  2  0
  3  2  1  0
  3  4  2  0
  4  5  1  0
  5 11  2  0
  5  6  1  0
  6  7  1  0
  7  8  1  1
  9 10  2  0
  9  7  1  0
 12 11  1  0
 13  9  1  0
 14 13  1  0
 14 15  1  6
 16 15  1  0
 16 20  1  0
 17 16  2  0
 18 14  1  0
 19 18  2  0
 21 18  1  0
 22 21  1  0
 23 24  1  0
 22 23  1  1
 25 24  1  0
 26 25  1  0
 27 26  1  0
 28 30  1  0
 28 22  1  0
 29 28  2  0
M  END
$$$$
