YDK.pdb
     RDKit          3D

 30 30  0  0  1  0  0  0  0  0999 V2000
    8.4426  -13.2293   28.7725 O   0  0  0  0  0  0  0  0  0  0  0  0
    8.0546  -13.5157   27.4585 C   0  0  0  0  0  0  0  0  0  0  0  0
    8.9892  -13.9103   26.5221 C   0  0  0  0  0  0  0  0  0  0  0  0
    8.6216  -14.1959   25.2227 C   0  0  0  0  0  0  0  0  0  0  0  0
    7.3114  -14.1010   24.8018 C   0  0  0  0  0  0  0  0  0  0  0  0
    6.8687  -14.3929   23.4326 C   0  0  0  0  0  0  0  0  0  0  0  0
    6.6558  -15.8625   23.1766 C   0  0  2  0  0  0  0  0  0  0  0  0
    5.8537  -16.5018   24.1677 N   0  0  0  0  0  0  0  0  0  0  0  0
    7.9800  -16.5354   23.1400 C   0  0  0  0  0  0  0  0  0  0  0  0
    8.1009  -17.5889   23.8495 O   0  0  0  0  0  0  0  0  0  0  0  0
    6.3823  -13.7016   25.7597 C   0  0  0  0  0  0  0  0  0  0  0  0
    6.7403  -13.4161   27.0528 C   0  0  0  0  0  0  0  0  0  0  0  0
    9.0768  -16.0612   22.3687 N   0  0  0  0  0  0  0  0  0  0  0  0
   10.2824  -16.8422   22.2309 C   0  0  1  0  0  0  0  0  0  0  0  0
   11.1533  -16.4183   21.0817 C   0  0  0  0  0  0  0  0  0  0  0  0
   12.3123  -17.2813   20.8533 C   0  0  0  0  0  0  0  0  0  0  0  0
   12.2071  -18.3761   20.2521 O   0  0  0  0  0  0  0  0  0  0  0  0
   11.1007  -16.7149   23.4799 C   0  0  0  0  0  0  0  0  0  0  0  0
   11.5789  -15.6024   23.8515 O   0  0  0  0  0  0  0  0  0  0  0  0
   13.5632  -16.9007   21.3030 O   0  0  0  0  0  0  0  0  0  0  0  0
   11.3808  -17.8340   24.3090 N   0  0  0  0  0  0  0  0  0  0  0  0
   12.0311  -17.6946   25.6075 C   0  0  1  0  0  0  0  0  0  0  0  0
   11.4138  -18.6297   26.6256 C   0  0  0  0  0  0  0  0  0  0  0  0
   12.1024  -18.5214   27.9694 C   0  0  0  0  0  0  0  0  0  0  0  0
   11.3638  -19.4509   28.9239 C   0  0  0  0  0  0  0  0  0  0  0  0
   11.8970  -19.1915   30.3174 C   0  0  0  0  0  0  0  0  0  0  0  0
   11.1373  -20.0458   31.2158 N   0  0  0  0  0  0  0  0  0  0  0  0
   13.4403  -18.1214   25.4136 C   0  0  0  0  0  0  0  0  0  0  0  0
   14.3214  -17.5768   26.1229 O   0  0  0  0  0  0  0  0  0  0  0  0
   13.8383  -19.0825   24.4982 O   0  0  0  0  0  0  0  0  0  0  0  0
  1  2  1  0
  2 12  2  0
  3  2  1  0
  3  4  2  0
  4  5  1  0
  5 11  2  0
  5  6  1  0
  6  7  1  0
  7  8  1  1
  9 10  2  0
  9  7  1  0
 12 11  1  0
 13  9  1  0
 14 13  1  0
 14 15  1  6
 16 15  1  0
 16 20  1  0
 17 16  2  0
 18 14  1  0
 19 18  2  0
 21 18  1  0
 22 21  1  0
 23 24  1  0
 22 23  1  1
 25 24  1  0
 26 25  1  0
 27 26  1  0
 28 30  1  0
 28 22  1  0
 29 28  2  0
M  END
$$$$
