YDK.pdb
     RDKit          3D

 30 30  0  0  1  0  0  0  0  0999 V2000
    6.5156  -11.4254   18.7848 O   0  0  0  0  0  0  0  0  0  0  0  0
    7.3518  -12.3777   19.3790 C   0  0  0  0  0  0  0  0  0  0  0  0
    8.6451  -12.5530   18.9288 C   0  0  0  0  0  0  0  0  0  0  0  0
    9.4812  -13.4880   19.5048 C   0  0  0  0  0  0  0  0  0  0  0  0
    9.0662  -14.2859   20.5506 C   0  0  0  0  0  0  0  0  0  0  0  0
    9.9152  -15.2944   21.1972 C   0  0  0  0  0  0  0  0  0  0  0  0
   10.0529  -16.5608   20.3925 C   0  0  2  0  0  0  0  0  0  0  0  0
    8.8669  -17.3531   20.3719 N   0  0  0  0  0  0  0  0  0  0  0  0
   11.1508  -17.3762   20.9733 C   0  0  0  0  0  0  0  0  0  0  0  0
   10.8261  -18.1819   21.9077 O   0  0  0  0  0  0  0  0  0  0  0  0
    7.7587  -14.0955   20.9918 C   0  0  0  0  0  0  0  0  0  0  0  0
    6.9221  -13.1682   20.4242 C   0  0  0  0  0  0  0  0  0  0  0  0
   12.5022  -17.2910   20.5380 N   0  0  0  0  0  0  0  0  0  0  0  0
   13.5265  -18.1211   21.1246 C   0  0  1  0  0  0  0  0  0  0  0  0
   14.8515  -18.0406   20.4199 C   0  0  0  0  0  0  0  0  0  0  0  0
   15.8703  -18.9492   20.9461 C   0  0  0  0  0  0  0  0  0  0  0  0
   17.0893  -18.6598   20.9104 O   0  0  0  0  0  0  0  0  0  0  0  0
   13.7518  -17.7005   22.5452 C   0  0  0  0  0  0  0  0  0  0  0  0
   14.0431  -16.5053   22.8471 O   0  0  0  0  0  0  0  0  0  0  0  0
   15.5027  -20.1616   21.5000 O   0  0  0  0  0  0  0  0  0  0  0  0
   13.6499  -18.6200   23.6235 N   0  0  0  0  0  0  0  0  0  0  0  0
   13.8768  -18.2205   25.0082 C   0  0  1  0  0  0  0  0  0  0  0  0
   13.0602  -19.0708   25.9580 C   0  0  0  0  0  0  0  0  0  0  0  0
   13.3564  -18.7310   27.4032 C   0  0  0  0  0  0  0  0  0  0  0  0
   12.6318  -19.7614   28.2598 C   0  0  0  0  0  0  0  0  0  0  0  0
   12.8668  -19.3951   29.7104 C   0  0  0  0  0  0  0  0  0  0  0  0
   12.1695  -20.3924   30.5062 N   0  0  0  0  0  0  0  0  0  0  0  0
   15.3089  -18.4953   25.2898 C   0  0  0  0  0  0  0  0  0  0  0  0
   15.9261  -17.6916   26.0309 O   0  0  0  0  0  0  0  0  0  0  0  0
   16.0015  -19.5836   24.7840 O   0  0  0  0  0  0  0  0  0  0  0  0
  1  2  1  0
  2 12  2  0
  3  2  1  0
  3  4  2  0
  4  5  1  0
  5 11  2  0
  5  6  1  0
  6  7  1  0
  7  8  1  1
  9 10  2  0
  9  7  1  0
 12 11  1  0
 13  9  1  0
 14 13  1  0
 14 15  1  6
 16 15  1  0
 16 20  1  0
 17 16  2  0
 18 14  1  0
 19 18  2  0
 21 18  1  0
 22 21  1  0
 23 24  1  0
 22 23  1  1
 25 24  1  0
 26 25  1  0
 27 26  1  0
 28 30  1  0
 28 22  1  0
 29 28  2  0
M  END
$$$$
