YDK.pdb
     RDKit          3D

 30 30  0  0  1  0  0  0  0  0999 V2000
    7.1986  -12.9869   27.2647 O   0  0  0  0  0  0  0  0  0  0  0  0
    7.1491  -13.3713   25.9198 C   0  0  0  0  0  0  0  0  0  0  0  0
    7.5547  -12.5018   24.9270 C   0  0  0  0  0  0  0  0  0  0  0  0
    7.5115  -12.8667   23.5966 C   0  0  0  0  0  0  0  0  0  0  0  0
    7.0638  -14.1095   23.1993 C   0  0  0  0  0  0  0  0  0  0  0  0
    6.9978  -14.5461   21.7990 C   0  0  0  0  0  0  0  0  0  0  0  0
    8.3532  -14.7873   21.1864 C   0  0  2  0  0  0  0  0  0  0  0  0
    8.2939  -15.2392   19.8347 N   0  0  0  0  0  0  0  0  0  0  0  0
    9.0636  -15.8134   21.9926 C   0  0  0  0  0  0  0  0  0  0  0  0
    8.6109  -17.0041   21.9219 O   0  0  0  0  0  0  0  0  0  0  0  0
    6.6588  -14.9736   24.2140 C   0  0  0  0  0  0  0  0  0  0  0  0
    6.6990  -14.6178   25.5383 C   0  0  0  0  0  0  0  0  0  0  0  0
   10.1901  -15.5226   22.8106 N   0  0  0  0  0  0  0  0  0  0  0  0
   10.8842  -16.5697   23.5207 C   0  0  1  0  0  0  0  0  0  0  0  0
   12.3166  -16.2432   23.8373 C   0  0  0  0  0  0  0  0  0  0  0  0
   13.1969  -16.1978   22.6697 C   0  0  0  0  0  0  0  0  0  0  0  0
   13.8805  -15.1818   22.4021 O   0  0  0  0  0  0  0  0  0  0  0  0
   10.1891  -16.8304   24.8224 C   0  0  0  0  0  0  0  0  0  0  0  0
   10.0726  -15.9307   25.7065 O   0  0  0  0  0  0  0  0  0  0  0  0
   13.2925  -17.2899   21.8270 O   0  0  0  0  0  0  0  0  0  0  0  0
    9.6264  -18.0981   25.1301 N   0  0  0  0  0  0  0  0  0  0  0  0
    8.9716  -18.3679   26.4057 C   0  0  1  0  0  0  0  0  0  0  0  0
    8.1551  -19.6409   26.3369 C   0  0  0  0  0  0  0  0  0  0  0  0
    7.5514  -19.9875   27.6813 C   0  0  0  0  0  0  0  0  0  0  0  0
    6.7360  -21.2596   27.4879 C   0  0  0  0  0  0  0  0  0  0  0  0
    6.0351  -21.5557   28.7973 C   0  0  0  0  0  0  0  0  0  0  0  0
    5.1309  -22.6649   28.5400 N   0  0  0  0  0  0  0  0  0  0  0  0
   10.0598  -18.5940   27.3908 C   0  0  0  0  0  0  0  0  0  0  0  0
   11.0841  -19.2076   27.0033 O   0  0  0  0  0  0  0  0  0  0  0  0
   10.0107  -18.1685   28.7086 O   0  0  0  0  0  0  0  0  0  0  0  0
  1  2  1  0
  2 12  2  0
  3  2  1  0
  3  4  2  0
  4  5  1  0
  5 11  2  0
  5  6  1  0
  6  7  1  0
  7  8  1  6
  9 10  2  0
  9  7  1  0
 12 11  1  0
 13  9  1  0
 14 13  1  0
 14 15  1  1
 16 15  1  0
 16 20  1  0
 17 16  2  0
 18 14  1  0
 19 18  2  0
 21 18  1  0
 22 21  1  0
 23 24  1  0
 22 23  1  6
 25 24  1  0
 26 25  1  0
 27 26  1  0
 28 30  1  0
 28 22  1  0
 29 28  2  0
M  END
$$$$
