YDK.pdb
     RDKit          3D

 30 30  0  0  1  0  0  0  0  0999 V2000
    7.0239  -11.6894   18.7666 O   0  0  0  0  0  0  0  0  0  0  0  0
    7.4427  -12.6122   19.7320 C   0  0  0  0  0  0  0  0  0  0  0  0
    6.5215  -13.2464   20.5414 C   0  0  0  0  0  0  0  0  0  0  0  0
    6.9195  -14.1586   21.4978 C   0  0  0  0  0  0  0  0  0  0  0  0
    8.2480  -14.4771   21.6883 C   0  0  0  0  0  0  0  0  0  0  0  0
    8.7231  -15.4391   22.6907 C   0  0  0  0  0  0  0  0  0  0  0  0
    9.2582  -16.7118   22.0872 C   0  0  2  0  0  0  0  0  0  0  0  0
    8.2483  -17.5325   21.5032 N   0  0  0  0  0  0  0  0  0  0  0  0
    9.9391  -17.4932   23.1519 C   0  0  0  0  0  0  0  0  0  0  0  0
    9.2557  -18.4206   23.7002 O   0  0  0  0  0  0  0  0  0  0  0  0
    9.1633  -13.8278   20.8630 C   0  0  0  0  0  0  0  0  0  0  0  0
    8.7751  -12.9202   19.9104 C   0  0  0  0  0  0  0  0  0  0  0  0
   11.2782  -17.2502   23.5648 N   0  0  0  0  0  0  0  0  0  0  0  0
   11.9065  -18.0699   24.5726 C   0  0  1  0  0  0  0  0  0  0  0  0
   13.3833  -17.8309   24.7167 C   0  0  0  0  0  0  0  0  0  0  0  0
   14.1455  -18.0041   23.4801 C   0  0  0  0  0  0  0  0  0  0  0  0
   14.7970  -17.0609   22.9731 O   0  0  0  0  0  0  0  0  0  0  0  0
   11.2781  -17.7875   25.9034 C   0  0  0  0  0  0  0  0  0  0  0  0
   11.1895  -16.6097   26.3610 O   0  0  0  0  0  0  0  0  0  0  0  0
   14.1616  -19.2285   22.8378 O   0  0  0  0  0  0  0  0  0  0  0  0
   10.7506  -18.8253   26.7178 N   0  0  0  0  0  0  0  0  0  0  0  0
   10.1190  -18.5566   28.0052 C   0  0  1  0  0  0  0  0  0  0  0  0
    9.2214  -19.7037   28.4181 C   0  0  0  0  0  0  0  0  0  0  0  0
    8.0868  -19.9031   27.4360 C   0  0  0  0  0  0  0  0  0  0  0  0
    7.2390  -21.0536   27.9635 C   0  0  0  0  0  0  0  0  0  0  0  0
    6.1956  -21.3706   26.9126 C   0  0  0  0  0  0  0  0  0  0  0  0
    5.4431  -22.5116   27.4090 N   0  0  0  0  0  0  0  0  0  0  0  0
   11.2199  -18.4776   28.9989 C   0  0  0  0  0  0  0  0  0  0  0  0
   10.9279  -18.1425   30.1730 O   0  0  0  0  0  0  0  0  0  0  0  0
   12.5464  -18.7515   28.7068 O   0  0  0  0  0  0  0  0  0  0  0  0
  1  2  1  0
  2 12  2  0
  3  2  1  0
  3  4  2  0
  4  5  1  0
  5 11  2  0
  5  6  1  0
  6  7  1  0
  7  8  1  1
  9 10  2  0
  9  7  1  0
 12 11  1  0
 13  9  1  0
 14 13  1  0
 14 15  1  1
 16 15  1  0
 16 20  1  0
 17 16  2  0
 18 14  1  0
 19 18  2  0
 21 18  1  0
 22 21  1  0
 23 24  1  0
 22 23  1  1
 25 24  1  0
 26 25  1  0
 27 26  1  0
 28 30  1  0
 28 22  1  0
 29 28  2  0
M  END
$$$$
