YDK.pdb
     RDKit          3D

 30 30  0  0  1  0  0  0  0  0999 V2000
    8.6316  -12.3021   27.5051 O   0  0  0  0  0  0  0  0  0  0  0  0
    8.0523  -12.9562   26.4115 C   0  0  0  0  0  0  0  0  0  0  0  0
    7.9057  -12.3053   25.2028 C   0  0  0  0  0  0  0  0  0  0  0  0
    7.3364  -12.9373   24.1158 C   0  0  0  0  0  0  0  0  0  0  0  0
    6.8902  -14.2406   24.1860 C   0  0  0  0  0  0  0  0  0  0  0  0
    6.2778  -14.9575   23.0604 C   0  0  0  0  0  0  0  0  0  0  0  0
    6.3973  -16.4553   23.1730 C   0  0  2  0  0  0  0  0  0  0  0  0
    5.9528  -16.9684   24.4275 N   0  0  0  0  0  0  0  0  0  0  0  0
    7.8226  -16.8335   22.9907 C   0  0  0  0  0  0  0  0  0  0  0  0
    8.3109  -17.6377   23.8525 O   0  0  0  0  0  0  0  0  0  0  0  0
    7.0461  -14.8817   25.4128 C   0  0  0  0  0  0  0  0  0  0  0  0
    7.6109  -14.2599   26.4974 C   0  0  0  0  0  0  0  0  0  0  0  0
    8.6306  -16.3465   21.9264 N   0  0  0  0  0  0  0  0  0  0  0  0
    9.9451  -16.8894   21.6817 C   0  0  1  0  0  0  0  0  0  0  0  0
   10.5717  -16.4113   20.4021 C   0  0  0  0  0  0  0  0  0  0  0  0
   11.7830  -17.1355   20.0167 C   0  0  0  0  0  0  0  0  0  0  0  0
   12.9203  -16.6223   20.1357 O   0  0  0  0  0  0  0  0  0  0  0  0
   10.8605  -16.4938   22.8003 C   0  0  0  0  0  0  0  0  0  0  0  0
   11.1426  -15.2808   23.0320 O   0  0  0  0  0  0  0  0  0  0  0  0
   11.6950  -18.4174   19.5061 O   0  0  0  0  0  0  0  0  0  0  0  0
   11.4573  -17.4580   23.6563 N   0  0  0  0  0  0  0  0  0  0  0  0
   12.3893  -17.0851   24.7150 C   0  0  1  0  0  0  0  0  0  0  0  0
   12.0059  -17.7346   26.0277 C   0  0  0  0  0  0  0  0  0  0  0  0
   11.4204  -16.7286   26.9956 C   0  0  0  0  0  0  0  0  0  0  0  0
   11.1617  -17.4674   28.3025 C   0  0  0  0  0  0  0  0  0  0  0  0
   10.5635  -16.4745   29.2771 C   0  0  0  0  0  0  0  0  0  0  0  0
   10.2600  -17.2177   30.4894 N   0  0  0  0  0  0  0  0  0  0  0  0
   13.7098  -17.6370   24.3184 C   0  0  0  0  0  0  0  0  0  0  0  0
   13.7262  -18.5912   23.5028 O   0  0  0  0  0  0  0  0  0  0  0  0
   14.9212  -17.1618   24.7946 O   0  0  0  0  0  0  0  0  0  0  0  0
  1  2  1  0
  2 12  2  0
  3  2  1  0
  3  4  2  0
  4  5  1  0
  5 11  2  0
  5  6  1  0
  6  7  1  0
  7  8  1  1
  9 10  2  0
  9  7  1  0
 12 11  1  0
 13  9  1  0
 14 13  1  0
 14 15  1  6
 16 15  1  0
 16 20  1  0
 17 16  2  0
 18 14  1  0
 19 18  2  0
 21 18  1  0
 22 21  1  0
 23 24  1  0
 22 23  1  1
 25 24  1  0
 26 25  1  0
 27 26  1  0
 28 30  1  0
 28 22  1  0
 29 28  2  0
M  END
$$$$
