YDK.pdb
     RDKit          3D

 30 30  0  0  1  0  0  0  0  0999 V2000
    5.5126  -10.8604   27.7743 O   0  0  0  0  0  0  0  0  0  0  0  0
    6.1601  -11.7833   26.9448 C   0  0  0  0  0  0  0  0  0  0  0  0
    6.4836  -13.0408   27.4140 C   0  0  0  0  0  0  0  0  0  0  0  0
    7.1222  -13.9614   26.6077 C   0  0  0  0  0  0  0  0  0  0  0  0
    7.4648  -13.6696   25.3038 C   0  0  0  0  0  0  0  0  0  0  0  0
    8.1442  -14.6121   24.4060 C   0  0  0  0  0  0  0  0  0  0  0  0
    7.2642  -15.7525   23.9640 C   0  0  2  0  0  0  0  0  0  0  0  0
    6.9703  -16.6809   25.0063 N   0  0  0  0  0  0  0  0  0  0  0  0
    7.9481  -16.4826   22.8654 C   0  0  0  0  0  0  0  0  0  0  0  0
    8.5152  -17.5811   23.1811 O   0  0  0  0  0  0  0  0  0  0  0  0
    7.1308  -12.3967   24.8474 C   0  0  0  0  0  0  0  0  0  0  0  0
    6.4962  -11.4766   25.6429 C   0  0  0  0  0  0  0  0  0  0  0  0
    7.9900  -16.0145   21.5231 N   0  0  0  0  0  0  0  0  0  0  0  0
    8.6034  -16.8004   20.4798 C   0  0  1  0  0  0  0  0  0  0  0  0
    8.3817  -16.2543   19.0973 C   0  0  0  0  0  0  0  0  0  0  0  0
    8.8505  -17.1281   18.0217 C   0  0  0  0  0  0  0  0  0  0  0  0
    9.3887  -18.2343   18.2621 O   0  0  0  0  0  0  0  0  0  0  0  0
   10.0840  -16.8536   20.7051 C   0  0  0  0  0  0  0  0  0  0  0  0
   10.7403  -15.8298   21.0596 O   0  0  0  0  0  0  0  0  0  0  0  0
    8.7072  -16.7448   16.7009 O   0  0  0  0  0  0  0  0  0  0  0  0
   10.8251  -18.0534   20.5328 N   0  0  0  0  0  0  0  0  0  0  0  0
   12.1998  -18.1907   21.0016 C   0  0  1  0  0  0  0  0  0  0  0  0
   12.4178  -19.5402   21.6524 C   0  0  0  0  0  0  0  0  0  0  0  0
   13.8468  -19.7055   22.1242 C   0  0  0  0  0  0  0  0  0  0  0  0
   13.9750  -21.1235   22.6659 C   0  0  0  0  0  0  0  0  0  0  0  0
   15.3593  -21.2597   23.2648 C   0  0  0  0  0  0  0  0  0  0  0  0
   15.4520  -22.6136   23.7868 N   0  0  0  0  0  0  0  0  0  0  0  0
   13.0580  -18.1407   19.7906 C   0  0  0  0  0  0  0  0  0  0  0  0
   12.5638  -18.5309   18.7045 O   0  0  0  0  0  0  0  0  0  0  0  0
   14.3683  -17.6899   19.7894 O   0  0  0  0  0  0  0  0  0  0  0  0
  1  2  1  0
  2 12  2  0
  3  2  1  0
  3  4  2  0
  4  5  1  0
  5 11  2  0
  5  6  1  0
  6  7  1  0
  7  8  1  1
  9 10  2  0
  9  7  1  0
 12 11  1  0
 13  9  1  0
 14 13  1  0
 14 15  1  6
 16 15  1  0
 16 20  1  0
 17 16  2  0
 18 14  1  0
 19 18  2  0
 21 18  1  0
 22 21  1  0
 23 24  1  0
 22 23  1  6
 25 24  1  0
 26 25  1  0
 27 26  1  0
 28 30  1  0
 28 22  1  0
 29 28  2  0
M  END
$$$$
