YDK.pdb
     RDKit          3D

 30 30  0  0  1  0  0  0  0  0999 V2000
    7.1964  -12.9363   15.8579 O   0  0  0  0  0  0  0  0  0  0  0  0
    7.3163  -13.4001   17.1730 C   0  0  0  0  0  0  0  0  0  0  0  0
    6.1998  -13.8012   17.8792 C   0  0  0  0  0  0  0  0  0  0  0  0
    6.3024  -14.2608   19.1766 C   0  0  0  0  0  0  0  0  0  0  0  0
    7.5177  -14.3403   19.8242 C   0  0  0  0  0  0  0  0  0  0  0  0
    7.6807  -14.8209   21.2020 C   0  0  0  0  0  0  0  0  0  0  0  0
    9.0816  -14.6501   21.7300 C   0  0  2  0  0  0  0  0  0  0  0  0
   10.0909  -14.8766   20.7479 N   0  0  0  0  0  0  0  0  0  0  0  0
    9.2896  -15.6096   22.8453 C   0  0  0  0  0  0  0  0  0  0  0  0
    8.3871  -15.6362   23.7467 O   0  0  0  0  0  0  0  0  0  0  0  0
    8.6331  -13.9316   19.0968 C   0  0  0  0  0  0  0  0  0  0  0  0
    8.5388  -13.4738   17.8070 C   0  0  0  0  0  0  0  0  0  0  0  0
   10.4201  -16.4677   22.9376 N   0  0  0  0  0  0  0  0  0  0  0  0
   10.6344  -17.2933   24.1016 C   0  0  1  0  0  0  0  0  0  0  0  0
   11.7149  -18.3230   23.9259 C   0  0  0  0  0  0  0  0  0  0  0  0
   11.8596  -19.2435   25.0537 C   0  0  0  0  0  0  0  0  0  0  0  0
   11.1123  -19.1739   26.0577 O   0  0  0  0  0  0  0  0  0  0  0  0
   11.0299  -16.4261   25.2580 C   0  0  0  0  0  0  0  0  0  0  0  0
   12.0850  -15.7255   25.2340 O   0  0  0  0  0  0  0  0  0  0  0  0
   12.8372  -20.2211   25.0336 O   0  0  0  0  0  0  0  0  0  0  0  0
   10.2425  -16.3462   26.4378 N   0  0  0  0  0  0  0  0  0  0  0  0
   10.5626  -15.4261   27.5239 C   0  0  1  0  0  0  0  0  0  0  0  0
    9.3225  -14.7027   28.0042 C   0  0  0  0  0  0  0  0  0  0  0  0
    8.7918  -13.7511   26.9531 C   0  0  0  0  0  0  0  0  0  0  0  0
    7.4580  -13.2222   27.4648 C   0  0  0  0  0  0  0  0  0  0  0  0
    6.9514  -12.2112   26.4576 C   0  0  0  0  0  0  0  0  0  0  0  0
    5.6608  -11.7530   26.9459 N   0  0  0  0  0  0  0  0  0  0  0  0
   11.0478  -16.2653   28.6490 C   0  0  0  0  0  0  0  0  0  0  0  0
   11.4615  -15.6817   29.6806 O   0  0  0  0  0  0  0  0  0  0  0  0
   11.0705  -17.6506   28.6267 O   0  0  0  0  0  0  0  0  0  0  0  0
  1  2  1  0
  2 12  2  0
  3  2  1  0
  3  4  2  0
  4  5  1  0
  5 11  2  0
  5  6  1  0
  6  7  1  0
  7  8  1  6
  9 10  2  0
  9  7  1  0
 12 11  1  0
 13  9  1  0
 14 13  1  0
 14 15  1  6
 16 15  1  0
 16 20  1  0
 17 16  2  0
 18 14  1  0
 19 18  2  0
 21 18  1  0
 22 21  1  0
 23 24  1  0
 22 23  1  1
 25 24  1  0
 26 25  1  0
 27 26  1  0
 28 30  1  0
 28 22  1  0
 29 28  2  0
M  END
$$$$
