YDK.pdb
     RDKit          3D

 30 30  0  0  1  0  0  0  0  0999 V2000
    6.0356  -10.5962   26.8650 O   0  0  0  0  0  0  0  0  0  0  0  0
    6.3843  -11.8007   26.2433 C   0  0  0  0  0  0  0  0  0  0  0  0
    6.3455  -12.9888   26.9456 C   0  0  0  0  0  0  0  0  0  0  0  0
    6.6866  -14.1843   26.3460 C   0  0  0  0  0  0  0  0  0  0  0  0
    7.0797  -14.2474   25.0253 C   0  0  0  0  0  0  0  0  0  0  0  0
    7.4526  -15.4920   24.3413 C   0  0  0  0  0  0  0  0  0  0  0  0
    7.9056  -15.2773   22.9203 C   0  0  2  0  0  0  0  0  0  0  0  0
    6.8552  -15.4033   21.9635 N   0  0  0  0  0  0  0  0  0  0  0  0
    8.9544  -16.2796   22.5992 C   0  0  0  0  0  0  0  0  0  0  0  0
    8.7819  -17.4525   23.0707 O   0  0  0  0  0  0  0  0  0  0  0  0
    7.1130  -13.0395   24.3323 C   0  0  0  0  0  0  0  0  0  0  0  0
    6.7753  -11.8476   24.9216 C   0  0  0  0  0  0  0  0  0  0  0  0
   10.1022  -15.9853   21.8124 N   0  0  0  0  0  0  0  0  0  0  0  0
   11.1315  -16.9739   21.5991 C   0  0  1  0  0  0  0  0  0  0  0  0
   11.9398  -16.7504   20.3520 C   0  0  0  0  0  0  0  0  0  0  0  0
   12.9552  -17.7732   20.1005 C   0  0  0  0  0  0  0  0  0  0  0  0
   12.8585  -18.9265   20.5818 O   0  0  0  0  0  0  0  0  0  0  0  0
   12.0838  -16.9551   22.7560 C   0  0  0  0  0  0  0  0  0  0  0  0
   12.7929  -15.9386   23.0177 O   0  0  0  0  0  0  0  0  0  0  0  0
   14.0566  -17.4829   19.3165 O   0  0  0  0  0  0  0  0  0  0  0  0
   12.2391  -18.0748   23.6165 N   0  0  0  0  0  0  0  0  0  0  0  0
   13.2240  -18.0962   24.6926 C   0  0  1  0  0  0  0  0  0  0  0  0
   12.9566  -19.2389   25.6490 C   0  0  0  0  0  0  0  0  0  0  0  0
   11.9245  -18.8623   26.6905 C   0  0  0  0  0  0  0  0  0  0  0  0
   11.6085  -20.1257   27.4807 C   0  0  0  0  0  0  0  0  0  0  0  0
   10.7273  -19.7266   28.6460 C   0  0  0  0  0  0  0  0  0  0  0  0
   10.5117  -20.9308   29.4319 N   0  0  0  0  0  0  0  0  0  0  0  0
   14.5365  -18.3575   24.0485 C   0  0  0  0  0  0  0  0  0  0  0  0
   15.5744  -18.0743   24.6953 O   0  0  0  0  0  0  0  0  0  0  0  0
   14.6818  -18.8940   22.7792 O   0  0  0  0  0  0  0  0  0  0  0  0
  1  2  1  0
  2 12  2  0
  3  2  1  0
  3  4  2  0
  4  5  1  0
  5 11  2  0
  5  6  1  0
  6  7  1  0
  7  8  1  6
  9 10  2  0
  9  7  1  0
 12 11  1  0
 13  9  1  0
 14 13  1  0
 14 15  1  6
 16 15  1  0
 16 20  1  0
 17 16  2  0
 18 14  1  0
 19 18  2  0
 21 18  1  0
 22 21  1  0
 23 24  1  0
 22 23  1  1
 25 24  1  0
 26 25  1  0
 27 26  1  0
 28 30  1  0
 28 22  1  0
 29 28  2  0
M  END
$$$$
