YDK.pdb
     RDKit          3D

 30 30  0  0  1  0  0  0  0  0999 V2000
    6.2002  -10.5425   27.4090 O   0  0  0  0  0  0  0  0  0  0  0  0
    6.3417  -11.5495   26.4472 C   0  0  0  0  0  0  0  0  0  0  0  0
    5.7217  -12.7716   26.6156 C   0  0  0  0  0  0  0  0  0  0  0  0
    5.8521  -13.7741   25.6758 C   0  0  0  0  0  0  0  0  0  0  0  0
    6.6033  -13.6027   24.5317 C   0  0  0  0  0  0  0  0  0  0  0  0
    6.7740  -14.6360   23.5026 C   0  0  0  0  0  0  0  0  0  0  0  0
    7.0745  -15.9985   24.0716 C   0  0  2  0  0  0  0  0  0  0  0  0
    7.1961  -16.0070   25.4927 N   0  0  0  0  0  0  0  0  0  0  0  0
    8.3517  -16.4857   23.4893 C   0  0  0  0  0  0  0  0  0  0  0  0
    8.2562  -17.2595   22.4793 O   0  0  0  0  0  0  0  0  0  0  0  0
    7.2214  -12.3639   24.3783 C   0  0  0  0  0  0  0  0  0  0  0  0
    7.0963  -11.3629   25.3080 C   0  0  0  0  0  0  0  0  0  0  0  0
    9.6301  -16.1311   24.0019 N   0  0  0  0  0  0  0  0  0  0  0  0
   10.7605  -17.0168   23.8600 C   0  0  1  0  0  0  0  0  0  0  0  0
   12.0224  -16.3268   23.4240 C   0  0  0  0  0  0  0  0  0  0  0  0
   12.8214  -17.0840   22.4604 C   0  0  0  0  0  0  0  0  0  0  0  0
   12.6183  -18.3035   22.2538 O   0  0  0  0  0  0  0  0  0  0  0  0
   11.0443  -17.6727   25.1772 C   0  0  0  0  0  0  0  0  0  0  0  0
   11.3068  -16.9955   26.2149 O   0  0  0  0  0  0  0  0  0  0  0  0
   13.8302  -16.4602   21.7497 O   0  0  0  0  0  0  0  0  0  0  0  0
   11.0332  -19.0854   25.3281 N   0  0  0  0  0  0  0  0  0  0  0  0
   10.8527  -19.7259   26.6265 C   0  0  1  0  0  0  0  0  0  0  0  0
   10.1116  -21.0384   26.4846 C   0  0  0  0  0  0  0  0  0  0  0  0
    8.6637  -20.8206   26.1000 C   0  0  0  0  0  0  0  0  0  0  0  0
    8.0759  -22.1906   25.7867 C   0  0  0  0  0  0  0  0  0  0  0  0
    6.6261  -21.9872   25.3993 C   0  0  0  0  0  0  0  0  0  0  0  0
    6.0859  -23.3067   25.1140 N   0  0  0  0  0  0  0  0  0  0  0  0
   12.2152  -20.0400   27.1270 C   0  0  0  0  0  0  0  0  0  0  0  0
   12.3169  -20.5632   28.2636 O   0  0  0  0  0  0  0  0  0  0  0  0
   13.3773  -19.7903   26.4148 O   0  0  0  0  0  0  0  0  0  0  0  0
  1  2  1  0
  2 12  2  0
  3  2  1  0
  3  4  2  0
  4  5  1  0
  5 11  2  0
  5  6  1  0
  6  7  1  0
  7  8  1  1
  9 10  2  0
  9  7  1  0
 12 11  1  0
 13  9  1  0
 14 13  1  0
 14 15  1  1
 16 15  1  0
 16 20  1  0
 17 16  2  0
 18 14  1  0
 19 18  2  0
 21 18  1  0
 22 21  1  0
 23 24  1  0
 22 23  1  6
 25 24  1  0
 26 25  1  0
 27 26  1  0
 28 30  1  0
 28 22  1  0
 29 28  2  0
M  END
$$$$
