YDK.pdb
     RDKit          3D

 30 30  0  0  1  0  0  0  0  0999 V2000
    5.3076  -10.9065   27.2748 O   0  0  0  0  0  0  0  0  0  0  0  0
    6.0550  -11.9064   26.6418 C   0  0  0  0  0  0  0  0  0  0  0  0
    6.2143  -13.1433   27.2341 C   0  0  0  0  0  0  0  0  0  0  0  0
    6.9484  -14.1391   26.6219 C   0  0  0  0  0  0  0  0  0  0  0  0
    7.5535  -13.9459   25.3975 C   0  0  0  0  0  0  0  0  0  0  0  0
    8.3444  -14.9710   24.7050 C   0  0  0  0  0  0  0  0  0  0  0  0
    7.5366  -15.7882   23.7302 C   0  0  2  0  0  0  0  0  0  0  0  0
    6.5827  -16.6427   24.3582 N   0  0  0  0  0  0  0  0  0  0  0  0
    8.4648  -16.6295   22.9313 C   0  0  0  0  0  0  0  0  0  0  0  0
    8.7375  -17.7818   23.4064 O   0  0  0  0  0  0  0  0  0  0  0  0
    7.3822  -12.6924   24.8147 C   0  0  0  0  0  0  0  0  0  0  0  0
    6.6540  -11.6981   25.4172 C   0  0  0  0  0  0  0  0  0  0  0  0
    9.0383  -16.2081   21.6999 N   0  0  0  0  0  0  0  0  0  0  0  0
   10.2059  -16.8623   21.1604 C   0  0  1  0  0  0  0  0  0  0  0  0
   10.6065  -16.3659   19.7997 C   0  0  0  0  0  0  0  0  0  0  0  0
   11.6708  -17.1427   19.1639 C   0  0  0  0  0  0  0  0  0  0  0  0
   12.3666  -17.9576   19.8141 O   0  0  0  0  0  0  0  0  0  0  0  0
   11.3692  -16.6350   22.0773 C   0  0  0  0  0  0  0  0  0  0  0  0
   11.9098  -15.4957   22.1966 O   0  0  0  0  0  0  0  0  0  0  0  0
   11.9334  -16.9902   17.8149 O   0  0  0  0  0  0  0  0  0  0  0  0
   11.9236  -17.6845   22.8581 N   0  0  0  0  0  0  0  0  0  0  0  0
   12.9395  -17.4411   23.8765 C   0  0  1  0  0  0  0  0  0  0  0  0
   12.3902  -17.7026   25.2629 C   0  0  0  0  0  0  0  0  0  0  0  0
   11.9395  -19.1392   25.4204 C   0  0  0  0  0  0  0  0  0  0  0  0
   11.3890  -19.2802   26.8338 C   0  0  0  0  0  0  0  0  0  0  0  0
   10.8098  -20.6737   26.9609 C   0  0  0  0  0  0  0  0  0  0  0  0
   10.3943  -20.8233   28.3462 N   0  0  0  0  0  0  0  0  0  0  0  0
   14.0166  -18.4343   23.6337 C   0  0  0  0  0  0  0  0  0  0  0  0
   15.0558  -18.3560   24.3336 O   0  0  0  0  0  0  0  0  0  0  0  0
   13.9417  -19.4394   22.6828 O   0  0  0  0  0  0  0  0  0  0  0  0
  1  2  1  0
  2 12  2  0
  3  2  1  0
  3  4  2  0
  4  5  1  0
  5 11  2  0
  5  6  1  0
  6  7  1  0
  7  8  1  1
  9 10  2  0
  9  7  1  0
 12 11  1  0
 13  9  1  0
 14 13  1  0
 14 15  1  6
 16 15  1  0
 16 20  1  0
 17 16  2  0
 18 14  1  0
 19 18  2  0
 21 18  1  0
 22 21  1  0
 23 24  1  0
 22 23  1  1
 25 24  1  0
 26 25  1  0
 27 26  1  0
 28 30  1  0
 28 22  1  0
 29 28  2  0
M  END
$$$$
