YDK.pdb
     RDKit          3D

 30 30  0  0  1  0  0  0  0  0999 V2000
    7.7127  -11.9831   27.5321 O   0  0  0  0  0  0  0  0  0  0  0  0
    7.5079  -12.7782   26.3985 C   0  0  0  0  0  0  0  0  0  0  0  0
    7.6594  -12.2470   25.1332 C   0  0  0  0  0  0  0  0  0  0  0  0
    7.4607  -13.0187   24.0061 C   0  0  0  0  0  0  0  0  0  0  0  0
    7.1036  -14.3483   24.0910 C   0  0  0  0  0  0  0  0  0  0  0  0
    6.8803  -15.2115   22.9243 C   0  0  0  0  0  0  0  0  0  0  0  0
    6.9718  -16.6809   23.2450 C   0  0  2  0  0  0  0  0  0  0  0  0
    6.2708  -17.0486   24.4316 N   0  0  0  0  0  0  0  0  0  0  0  0
    8.4030  -17.0420   23.4156 C   0  0  0  0  0  0  0  0  0  0  0  0
    8.6791  -17.8250   24.3843 O   0  0  0  0  0  0  0  0  0  0  0  0
    6.9551  -14.8673   25.3750 C   0  0  0  0  0  0  0  0  0  0  0  0
    7.1510  -14.1065   26.4996 C   0  0  0  0  0  0  0  0  0  0  0  0
    9.4371  -16.5612   22.5658 N   0  0  0  0  0  0  0  0  0  0  0  0
   10.7686  -17.1142   22.6278 C   0  0  1  0  0  0  0  0  0  0  0  0
   11.7334  -16.4859   21.6619 C   0  0  0  0  0  0  0  0  0  0  0  0
   11.5426  -16.8919   20.2694 C   0  0  0  0  0  0  0  0  0  0  0  0
   10.9152  -17.9349   19.9699 O   0  0  0  0  0  0  0  0  0  0  0  0
   11.3243  -16.9143   24.0051 C   0  0  0  0  0  0  0  0  0  0  0  0
   11.5766  -15.7592   24.4598 O   0  0  0  0  0  0  0  0  0  0  0  0
   12.0582  -16.1223   19.2428 O   0  0  0  0  0  0  0  0  0  0  0  0
   11.5956  -18.0089   24.8693 N   0  0  0  0  0  0  0  0  0  0  0  0
   12.1500  -17.8236   26.2060 C   0  0  1  0  0  0  0  0  0  0  0  0
   11.4669  -18.7318   27.2063 C   0  0  0  0  0  0  0  0  0  0  0  0
   12.1306  -18.6612   28.5651 C   0  0  0  0  0  0  0  0  0  0  0  0
   11.4777  -19.7279   29.4349 C   0  0  0  0  0  0  0  0  0  0  0  0
   12.0261  -19.5711   30.8378 C   0  0  0  0  0  0  0  0  0  0  0  0
   11.3738  -20.5842   31.6517 N   0  0  0  0  0  0  0  0  0  0  0  0
   13.5722  -18.2443   26.1272 C   0  0  0  0  0  0  0  0  0  0  0  0
   14.3605  -17.8158   27.0052 O   0  0  0  0  0  0  0  0  0  0  0  0
   14.0782  -19.0795   25.1441 O   0  0  0  0  0  0  0  0  0  0  0  0
  1  2  1  0
  2 12  2  0
  3  2  1  0
  3  4  2  0
  4  5  1  0
  5 11  2  0
  5  6  1  0
  6  7  1  0
  7  8  1  1
  9 10  2  0
  9  7  1  0
 12 11  1  0
 13  9  1  0
 14 13  1  0
 14 15  1  6
 16 15  1  0
 16 20  1  0
 17 16  2  0
 18 14  1  0
 19 18  2  0
 21 18  1  0
 22 21  1  0
 23 24  1  0
 22 23  1  1
 25 24  1  0
 26 25  1  0
 27 26  1  0
 28 30  1  0
 28 22  1  0
 29 28  2  0
M  END
$$$$
