YDK.pdb
     RDKit          3D

 30 30  0  0  1  0  0  0  0  0999 V2000
    4.9745  -11.1171   28.0970 O   0  0  0  0  0  0  0  0  0  0  0  0
    5.8931  -11.7899   27.2830 C   0  0  0  0  0  0  0  0  0  0  0  0
    5.5249  -12.9392   26.6125 C   0  0  0  0  0  0  0  0  0  0  0  0
    6.4198  -13.6135   25.8064 C   0  0  0  0  0  0  0  0  0  0  0  0
    7.7156  -13.1732   25.6344 C   0  0  0  0  0  0  0  0  0  0  0  0
    8.7054  -13.8533   24.7895 C   0  0  0  0  0  0  0  0  0  0  0  0
    8.2021  -15.1496   24.2092 C   0  0  2  0  0  0  0  0  0  0  0  0
    7.6215  -16.0193   25.1793 N   0  0  0  0  0  0  0  0  0  0  0  0
    9.3403  -15.8569   23.5675 C   0  0  0  0  0  0  0  0  0  0  0  0
    9.9965  -15.1995   22.6929 O   0  0  0  0  0  0  0  0  0  0  0  0
    8.0696  -12.0125   26.3182 C   0  0  0  0  0  0  0  0  0  0  0  0
    7.1856  -11.3371   27.1210 C   0  0  0  0  0  0  0  0  0  0  0  0
    9.7089  -17.1935   23.8846 N   0  0  0  0  0  0  0  0  0  0  0  0
   10.7878  -17.8528   23.1891 C   0  0  1  0  0  0  0  0  0  0  0  0
   10.9652  -19.2955   23.5707 C   0  0  0  0  0  0  0  0  0  0  0  0
   12.1488  -19.9311   22.9914 C   0  0  0  0  0  0  0  0  0  0  0  0
   13.2753  -19.8378   23.5331 O   0  0  0  0  0  0  0  0  0  0  0  0
   10.5247  -17.8118   21.7143 C   0  0  0  0  0  0  0  0  0  0  0  0
    9.5641  -18.4509   21.1917 O   0  0  0  0  0  0  0  0  0  0  0  0
   12.0459  -20.6566   21.8189 O   0  0  0  0  0  0  0  0  0  0  0  0
   11.3385  -17.0548   20.8293 N   0  0  0  0  0  0  0  0  0  0  0  0
   11.0815  -16.9996   19.3942 C   0  0  1  0  0  0  0  0  0  0  0  0
   10.6554  -15.6091   18.9734 C   0  0  0  0  0  0  0  0  0  0  0  0
    9.3525  -15.6362   18.2031 C   0  0  0  0  0  0  0  0  0  0  0  0
    9.0843  -14.2124   17.7326 C   0  0  0  0  0  0  0  0  0  0  0  0
    7.7261  -14.2014   17.0628 C   0  0  0  0  0  0  0  0  0  0  0  0
    7.4596  -12.8209   16.6922 N   0  0  0  0  0  0  0  0  0  0  0  0
   12.3787  -17.2839   18.7293 C   0  0  0  0  0  0  0  0  0  0  0  0
   13.3918  -17.4284   19.4565 O   0  0  0  0  0  0  0  0  0  0  0  0
   12.5358  -17.3987   17.3574 O   0  0  0  0  0  0  0  0  0  0  0  0
  1  2  1  0
  2 12  2  0
  3  2  1  0
  3  4  2  0
  4  5  1  0
  5 11  2  0
  5  6  1  0
  6  7  1  0
  7  8  1  1
  9 10  2  0
  9  7  1  0
 12 11  1  0
 13  9  1  0
 14 13  1  0
 14 15  1  1
 16 15  1  0
 16 20  1  0
 17 16  2  0
 18 14  1  0
 19 18  2  0
 21 18  1  0
 22 21  1  0
 23 24  1  0
 22 23  1  6
 25 24  1  0
 26 25  1  0
 27 26  1  0
 28 30  1  0
 28 22  1  0
 29 28  2  0
M  END
$$$$
