YDK.pdb
     RDKit          3D

 30 30  0  0  1  0  0  0  0  0999 V2000
    7.0827  -13.0033   15.3729 O   0  0  0  0  0  0  0  0  0  0  0  0
    7.2909  -13.5722   16.6347 C   0  0  0  0  0  0  0  0  0  0  0  0
    7.9159  -12.8523   17.6334 C   0  0  0  0  0  0  0  0  0  0  0  0
    8.1282  -13.3999   18.8825 C   0  0  0  0  0  0  0  0  0  0  0  0
    7.7283  -14.6840   19.1893 C   0  0  0  0  0  0  0  0  0  0  0  0
    7.9305  -15.3125   20.5007 C   0  0  0  0  0  0  0  0  0  0  0  0
    9.3398  -15.1743   21.0159 C   0  0  2  0  0  0  0  0  0  0  0  0
   10.3329  -15.5461   20.0620 N   0  0  0  0  0  0  0  0  0  0  0  0
    9.4947  -16.0385   22.2145 C   0  0  0  0  0  0  0  0  0  0  0  0
    8.5817  -15.9482   23.1012 O   0  0  0  0  0  0  0  0  0  0  0  0
    7.0996  -15.3953   18.1699 C   0  0  0  0  0  0  0  0  0  0  0  0
    6.8853  -14.8576   16.9262 C   0  0  0  0  0  0  0  0  0  0  0  0
   10.5871  -16.9304   22.3992 N   0  0  0  0  0  0  0  0  0  0  0  0
   10.7335  -17.6847   23.6207 C   0  0  1  0  0  0  0  0  0  0  0  0
   11.8459  -18.6945   23.5818 C   0  0  0  0  0  0  0  0  0  0  0  0
   11.6259  -19.7981   22.6470 C   0  0  0  0  0  0  0  0  0  0  0  0
   10.5223  -20.3883   22.5763 O   0  0  0  0  0  0  0  0  0  0  0  0
   11.0248  -16.7451   24.7512 C   0  0  0  0  0  0  0  0  0  0  0  0
   11.7843  -15.7422   24.6041 O   0  0  0  0  0  0  0  0  0  0  0  0
   12.6454  -20.2173   21.8122 O   0  0  0  0  0  0  0  0  0  0  0  0
   10.4643  -16.9317   26.0433 N   0  0  0  0  0  0  0  0  0  0  0  0
   10.2041  -15.8149   26.9452 C   0  0  1  0  0  0  0  0  0  0  0  0
    8.9879  -15.0309   26.4998 C   0  0  0  0  0  0  0  0  0  0  0  0
    8.7115  -13.8623   27.4216 C   0  0  0  0  0  0  0  0  0  0  0  0
    7.4375  -13.1933   26.9217 C   0  0  0  0  0  0  0  0  0  0  0  0
    7.1457  -12.0245   27.8394 C   0  0  0  0  0  0  0  0  0  0  0  0
    5.8936  -11.4433   27.3825 N   0  0  0  0  0  0  0  0  0  0  0  0
    9.8837  -16.4142   28.2658 C   0  0  0  0  0  0  0  0  0  0  0  0
    9.3741  -17.5614   28.2816 O   0  0  0  0  0  0  0  0  0  0  0  0
   10.1137  -15.7831   29.4778 O   0  0  0  0  0  0  0  0  0  0  0  0
  1  2  1  0
  2 12  2  0
  3  2  1  0
  3  4  2  0
  4  5  1  0
  5 11  2  0
  5  6  1  0
  6  7  1  0
  7  8  1  6
  9 10  2  0
  9  7  1  0
 12 11  1  0
 13  9  1  0
 14 13  1  0
 14 15  1  6
 16 15  1  0
 16 20  1  0
 17 16  2  0
 18 14  1  0
 19 18  2  0
 21 18  1  0
 22 21  1  0
 23 24  1  0
 22 23  1  6
 25 24  1  0
 26 25  1  0
 27 26  1  0
 28 30  1  0
 28 22  1  0
 29 28  2  0
M  END
$$$$
