CLL.pdb
     RDKit          3D

 23 22  0  0  1  0  0  0  0  0999 V2000
   13.3957  -17.9201   20.1649 N   0  0  0  0  0  0  0  0  0  0  0  0
   12.0782  -18.2131   20.6326 C   0  0  1  0  0  0  0  0  0  0  0  0
   12.0791  -19.4534   21.4823 C   0  0  0  0  0  0  0  0  0  0  0  0
   13.8075  -20.0128   21.6157 S   0  0  0  0  0  0  0  0  0  0  0  0
   11.4901  -17.0405   21.3428 C   0  0  0  0  0  0  0  0  0  0  0  0
   12.2615  -16.2621   21.9273 O   0  0  0  0  0  0  0  0  0  0  0  0
    6.2042  -13.9232   21.3621 C   0  0  0  0  0  0  0  0  0  0  0  0
    7.5575  -14.1143   22.0223 C   0  0  2  0  0  0  0  0  0  0  0  0
    8.4205  -12.9355   21.6313 C   0  0  0  0  0  0  0  0  0  0  0  0
    8.1662  -15.3657   21.4247 C   0  0  0  0  0  0  0  0  0  0  0  0
    9.4489  -15.7344   22.0905 C   0  0  2  0  0  0  0  0  0  0  0  0
   10.0896  -16.8006   21.3637 N   0  0  0  0  0  0  0  0  0  0  0  0
    9.2735  -16.1427   23.5067 C   0  0  0  0  0  0  0  0  0  0  0  0
    8.8255  -17.2813   23.7724 O   0  0  0  0  0  0  0  0  0  0  0  0
   10.7018  -14.1576   28.3489 C   0  0  0  0  0  0  0  0  0  0  0  0
    9.7656  -13.5665   27.3428 C   0  0  2  0  0  0  0  0  0  0  0  0
    9.1066  -12.3046   27.9194 C   0  0  0  0  0  0  0  0  0  0  0  0
    8.7908  -14.4553   26.6993 C   0  0  0  0  0  0  0  0  0  0  0  0
    9.2928  -15.6404   26.0004 C   0  0  2  0  0  0  0  0  0  0  0  0
    9.5929  -15.2948   24.5870 N   0  0  0  0  0  0  0  0  0  0  0  0
    8.4121  -16.7845   25.9397 C   0  0  0  0  0  0  0  0  0  0  0  0
    7.3632  -16.9374   25.2720 O   0  0  0  0  0  0  0  0  0  0  0  0
    8.7436  -17.9207   26.7321 O   0  0  0  0  0  0  0  0  0  0  0  0
  2  1  1  1
  2  5  1  0
  3  2  1  0
  4  3  1  0
  5 12  1  0
  5  6  2  0
  8  7  1  6
  8 10  1  0
  8  9  1  0
 11 10  1  6
 11 13  1  0
 12 11  1  0
 13 14  2  0
 16 18  1  0
 16 15  1  1
 17 16  1  0
 19 18  1  6
 19 21  1  0
 20 13  1  0
 20 19  1  0
 21 23  1  0
 22 21  2  0
M  END
$$$$
