CLL.pdb
     RDKit          3D

 23 22  0  0  1  0  0  0  0  0999 V2000
    6.3764  -19.0679   22.9374 N   0  0  0  0  0  0  0  0  0  0  0  0
    6.2951  -18.1114   23.9952 C   0  0  1  0  0  0  0  0  0  0  0  0
    6.5288  -18.7696   25.3265 C   0  0  0  0  0  0  0  0  0  0  0  0
    8.2696  -19.3050   25.3636 S   0  0  0  0  0  0  0  0  0  0  0  0
    7.2259  -16.9703   23.7566 C   0  0  0  0  0  0  0  0  0  0  0  0
    8.1004  -17.1000   22.8843 O   0  0  0  0  0  0  0  0  0  0  0  0
    6.0645  -12.4687   23.6976 C   0  0  0  0  0  0  0  0  0  0  0  0
    6.1472  -13.2207   25.0135 C   0  0  2  0  0  0  0  0  0  0  0  0
    5.6807  -12.2791   26.1012 C   0  0  0  0  0  0  0  0  0  0  0  0
    7.6100  -13.5318   25.2517 C   0  0  0  0  0  0  0  0  0  0  0  0
    8.0797  -14.6756   24.4177 C   0  0  2  0  0  0  0  0  0  0  0  0
    7.1334  -15.7593   24.4943 N   0  0  0  0  0  0  0  0  0  0  0  0
    9.4233  -15.1694   24.8102 C   0  0  0  0  0  0  0  0  0  0  0  0
   10.4436  -14.6853   24.2695 O   0  0  0  0  0  0  0  0  0  0  0  0
    9.9555  -15.6949   30.6755 C   0  0  0  0  0  0  0  0  0  0  0  0
   10.6153  -15.4591   29.3538 C   0  0  2  0  0  0  0  0  0  0  0  0
   11.2683  -14.0690   29.3356 C   0  0  0  0  0  0  0  0  0  0  0  0
    9.8386  -15.7218   28.1364 C   0  0  0  0  0  0  0  0  0  0  0  0
   10.5680  -16.0423   26.9076 C   0  0  2  0  0  0  0  0  0  0  0  0
    9.6095  -16.1756   25.7802 N   0  0  0  0  0  0  0  0  0  0  0  0
   11.3388  -17.2647   26.9058 C   0  0  0  0  0  0  0  0  0  0  0  0
   12.5273  -17.4476   27.2572 O   0  0  0  0  0  0  0  0  0  0  0  0
   10.6990  -18.4528   26.4502 O   0  0  0  0  0  0  0  0  0  0  0  0
  2  1  1  6
  2  5  1  0
  3  2  1  0
  4  3  1  0
  5 12  1  0
  5  6  2  0
  8  7  1  6
  8 10  1  0
  8  9  1  0
 11 10  1  1
 11 13  1  0
 12 11  1  0
 13 14  2  0
 16 18  1  0
 16 15  1  1
 17 16  1  0
 19 18  1  1
 19 21  1  0
 20 13  1  0
 20 19  1  0
 21 23  1  0
 22 21  2  0
M  END
$$$$
