CLL.pdb
     RDKit          3D

 23 22  0  0  1  0  0  0  0  0999 V2000
   11.4974  -19.2383   19.9845 N   0  0  0  0  0  0  0  0  0  0  0  0
   10.4390  -19.0409   20.9233 C   0  0  1  0  0  0  0  0  0  0  0  0
   10.6548  -19.8797   22.1521 C   0  0  0  0  0  0  0  0  0  0  0  0
   10.4226  -21.6191   21.6636 S   0  0  0  0  0  0  0  0  0  0  0  0
   10.2748  -17.5940   21.2470 C   0  0  0  0  0  0  0  0  0  0  0  0
   11.2983  -16.9134   21.4247 O   0  0  0  0  0  0  0  0  0  0  0  0
    6.3575  -13.0819   20.2917 C   0  0  0  0  0  0  0  0  0  0  0  0
    7.5156  -13.5491   21.1546 C   0  0  2  0  0  0  0  0  0  0  0  0
    8.7651  -12.8720   20.6376 C   0  0  0  0  0  0  0  0  0  0  0  0
    7.6578  -15.0402   20.9309 C   0  0  0  0  0  0  0  0  0  0  0  0
    8.7586  -15.6244   21.7504 C   0  0  2  0  0  0  0  0  0  0  0  0
    8.9932  -16.9895   21.3543 N   0  0  0  0  0  0  0  0  0  0  0  0
    8.4870  -15.5768   23.2089 C   0  0  0  0  0  0  0  0  0  0  0  0
    7.6423  -16.3551   23.7075 O   0  0  0  0  0  0  0  0  0  0  0  0
    6.0742  -11.9040   26.3071 C   0  0  0  0  0  0  0  0  0  0  0  0
    7.3624  -12.6609   26.3816 C   0  0  2  0  0  0  0  0  0  0  0  0
    8.5410  -11.7162   26.1029 C   0  0  0  0  0  0  0  0  0  0  0  0
    7.4706  -13.9175   25.6309 C   0  0  0  0  0  0  0  0  0  0  0  0
    8.7914  -14.5389   25.5113 C   0  0  2  0  0  0  0  0  0  0  0  0
    9.1463  -14.6814   24.0756 N   0  0  0  0  0  0  0  0  0  0  0  0
    8.9461  -15.8582   26.0803 C   0  0  0  0  0  0  0  0  0  0  0  0
    8.1571  -16.4979   26.8136 O   0  0  0  0  0  0  0  0  0  0  0  0
   10.1468  -16.5687   25.7936 O   0  0  0  0  0  0  0  0  0  0  0  0
  2  1  1  6
  2  5  1  0
  3  2  1  0
  4  3  1  0
  5 12  1  0
  5  6  2  0
  8  7  1  6
  8 10  1  0
  8  9  1  0
 11 10  1  6
 11 13  1  0
 12 11  1  0
 13 14  2  0
 16 18  1  0
 16 15  1  6
 17 16  1  0
 19 18  1  6
 19 21  1  0
 20 13  1  0
 20 19  1  0
 21 23  1  0
 22 21  2  0
M  END
$$$$
