CLL.pdb
     RDKit          3D

 23 22  0  0  1  0  0  0  0  0999 V2000
    9.3211  -17.7485   20.2871 N   0  0  0  0  0  0  0  0  0  0  0  0
    8.4763  -17.6515   21.4349 C   0  0  1  0  0  0  0  0  0  0  0  0
    8.5261  -18.9198   22.2405 C   0  0  0  0  0  0  0  0  0  0  0  0
   10.2284  -19.0940   22.8648 S   0  0  0  0  0  0  0  0  0  0  0  0
    8.8176  -16.4493   22.2496 C   0  0  0  0  0  0  0  0  0  0  0  0
    9.9359  -15.9326   22.0917 O   0  0  0  0  0  0  0  0  0  0  0  0
    5.9313  -12.9618   26.4849 C   0  0  0  0  0  0  0  0  0  0  0  0
    7.2156  -13.2062   25.7137 C   0  0  2  0  0  0  0  0  0  0  0  0
    7.4227  -12.0222   24.7958 C   0  0  0  0  0  0  0  0  0  0  0  0
    6.9884  -14.4348   24.8580 C   0  0  0  0  0  0  0  0  0  0  0  0
    8.2082  -14.8101   24.0862 C   0  0  2  0  0  0  0  0  0  0  0  0
    7.9049  -15.8934   23.1862 N   0  0  0  0  0  0  0  0  0  0  0  0
    9.3493  -15.1975   24.9527 C   0  0  0  0  0  0  0  0  0  0  0  0
   10.4677  -14.6611   24.7811 O   0  0  0  0  0  0  0  0  0  0  0  0
   11.2964  -13.7462   28.0644 C   0  0  0  0  0  0  0  0  0  0  0  0
   10.0541  -14.5048   28.4095 C   0  0  2  0  0  0  0  0  0  0  0  0
    9.5600  -14.0927   29.8043 C   0  0  0  0  0  0  0  0  0  0  0  0
   10.0620  -15.9619   28.2332 C   0  0  0  0  0  0  0  0  0  0  0  0
   10.3487  -16.4946   26.8995 C   0  0  2  0  0  0  0  0  0  0  0  0
    9.2326  -16.1578   25.9784 N   0  0  0  0  0  0  0  0  0  0  0  0
   10.5207  -17.9254   26.7910 C   0  0  0  0  0  0  0  0  0  0  0  0
    9.7568  -18.7743   26.2761 O   0  0  0  0  0  0  0  0  0  0  0  0
   11.7102  -18.4942   27.3296 O   0  0  0  0  0  0  0  0  0  0  0  0
  2  1  1  6
  2  5  1  0
  3  2  1  0
  4  3  1  0
  5 12  1  0
  5  6  2  0
  8  7  1  1
  8 10  1  0
  8  9  1  0
 11 10  1  1
 11 13  1  0
 12 11  1  0
 13 14  2  0
 16 18  1  0
 16 15  1  1
 17 16  1  0
 19 18  1  1
 19 21  1  0
 20 13  1  0
 20 19  1  0
 21 23  1  0
 22 21  2  0
M  END
$$$$
