CLL.pdb
     RDKit          3D

 23 22  0  0  1  0  0  0  0  0999 V2000
    6.6600  -20.0826   22.3277 N   0  0  0  0  0  0  0  0  0  0  0  0
    6.4589  -18.7004   22.6270 C   0  0  1  0  0  0  0  0  0  0  0  0
    5.8013  -18.5371   23.9690 C   0  0  0  0  0  0  0  0  0  0  0  0
    5.3914  -20.2057   24.5738 S   0  0  0  0  0  0  0  0  0  0  0  0
    7.7386  -17.9403   22.5272 C   0  0  0  0  0  0  0  0  0  0  0  0
    8.8007  -18.5521   22.7273 O   0  0  0  0  0  0  0  0  0  0  0  0
    6.3908  -14.2386   20.9191 C   0  0  0  0  0  0  0  0  0  0  0  0
    7.6481  -13.7079   21.5834 C   0  0  2  0  0  0  0  0  0  0  0  0
    7.9276  -12.3431   20.9947 C   0  0  0  0  0  0  0  0  0  0  0  0
    8.7791  -14.6344   21.1890 C   0  0  0  0  0  0  0  0  0  0  0  0
    8.9571  -15.7453   22.1682 C   0  0  2  0  0  0  0  0  0  0  0  0
    7.7661  -16.5546   22.2133 N   0  0  0  0  0  0  0  0  0  0  0  0
    9.2783  -15.2691   23.5369 C   0  0  0  0  0  0  0  0  0  0  0  0
   10.3497  -14.6551   23.7438 O   0  0  0  0  0  0  0  0  0  0  0  0
    7.7825  -11.9938   26.3451 C   0  0  0  0  0  0  0  0  0  0  0  0
    6.9686  -13.2360   26.1655 C   0  0  2  0  0  0  0  0  0  0  0  0
    5.5372  -13.0012   26.6708 C   0  0  0  0  0  0  0  0  0  0  0  0
    7.5258  -14.5042   26.6507 C   0  0  0  0  0  0  0  0  0  0  0  0
    8.7396  -15.0152   26.0101 C   0  0  2  0  0  0  0  0  0  0  0  0
    8.4195  -15.4787   24.6353 N   0  0  0  0  0  0  0  0  0  0  0  0
    9.3957  -16.1318   26.6513 C   0  0  0  0  0  0  0  0  0  0  0  0
    9.4199  -17.3359   26.3063 O   0  0  0  0  0  0  0  0  0  0  0  0
   10.1301  -15.8750   27.8443 O   0  0  0  0  0  0  0  0  0  0  0  0
  2  1  1  1
  2  5  1  0
  3  2  1  0
  4  3  1  0
  5 12  1  0
  5  6  2  0
  8  7  1  6
  8 10  1  0
  8  9  1  0
 11 10  1  6
 11 13  1  0
 12 11  1  0
 13 14  2  0
 16 18  1  0
 16 15  1  1
 17 16  1  0
 19 18  1  1
 19 21  1  0
 20 13  1  0
 20 19  1  0
 21 23  1  0
 22 21  2  0
M  END
$$$$
