CLL.pdb
     RDKit          3D

 23 22  0  0  1  0  0  0  0  0999 V2000
    6.4123  -19.5580   22.0737 N   0  0  0  0  0  0  0  0  0  0  0  0
    6.1632  -18.1741   22.3254 C   0  0  1  0  0  0  0  0  0  0  0  0
    5.5258  -17.9851   23.6738 C   0  0  0  0  0  0  0  0  0  0  0  0
    6.6372  -18.7386   24.9046 S   0  0  0  0  0  0  0  0  0  0  0  0
    7.4102  -17.3700   22.1709 C   0  0  0  0  0  0  0  0  0  0  0  0
    8.4923  -17.9751   22.0969 O   0  0  0  0  0  0  0  0  0  0  0  0
    8.6553  -14.2900   19.1971 C   0  0  0  0  0  0  0  0  0  0  0  0
    7.5651  -13.8924   20.1755 C   0  0  2  0  0  0  0  0  0  0  0  0
    7.0693  -12.5234   19.7665 C   0  0  0  0  0  0  0  0  0  0  0  0
    8.2176  -13.7726   21.5369 C   0  0  0  0  0  0  0  0  0  0  0  0
    8.5526  -15.1065   22.1139 C   0  0  2  0  0  0  0  0  0  0  0  0
    7.3851  -15.9506   22.1076 N   0  0  0  0  0  0  0  0  0  0  0  0
    9.0912  -15.0251   23.4946 C   0  0  0  0  0  0  0  0  0  0  0  0
   10.2844  -14.6914   23.6755 O   0  0  0  0  0  0  0  0  0  0  0  0
    8.1394  -11.8589   26.4762 C   0  0  0  0  0  0  0  0  0  0  0  0
    7.2319  -13.0310   26.2753 C   0  0  2  0  0  0  0  0  0  0  0  0
    5.8187  -12.6896   26.7710 C   0  0  0  0  0  0  0  0  0  0  0  0
    7.6828  -14.3444   26.7505 C   0  0  0  0  0  0  0  0  0  0  0  0
    8.7605  -15.0116   26.0168 C   0  0  2  0  0  0  0  0  0  0  0  0
    8.3098  -15.3105   24.6330 N   0  0  0  0  0  0  0  0  0  0  0  0
    9.2318  -16.2695   26.5497 C   0  0  0  0  0  0  0  0  0  0  0  0
    9.7072  -16.5173   27.6821 O   0  0  0  0  0  0  0  0  0  0  0  0
    9.1649  -17.4151   25.7061 O   0  0  0  0  0  0  0  0  0  0  0  0
  2  1  1  1
  2  5  1  0
  3  2  1  0
  4  3  1  0
  5 12  1  0
  5  6  2  0
  8  7  1  6
  8 10  1  0
  8  9  1  0
 11 10  1  1
 11 13  1  0
 12 11  1  0
 13 14  2  0
 16 18  1  0
 16 15  1  1
 17 16  1  0
 19 18  1  1
 19 21  1  0
 20 13  1  0
 20 19  1  0
 21 23  1  0
 22 21  2  0
M  END
$$$$
