SKK.pdb
     RDKit          3D

 25 24  0  0  1  0  0  0  0  0999 V2000
   10.2638  -13.1717   19.8091 O   0  0  0  0  0  0  0  0  0  0  0  0
    9.5891  -13.8101   18.7703 C   0  0  0  0  0  0  0  0  0  0  0  0
    8.0991  -13.7219   19.0077 C   0  0  2  0  0  0  0  0  0  0  0  0
    7.7017  -12.3314   19.0618 N   0  0  0  0  0  0  0  0  0  0  0  0
    7.6916  -14.4596   20.2324 C   0  0  0  0  0  0  0  0  0  0  0  0
    7.2846  -13.8600   21.2678 O   0  0  0  0  0  0  0  0  0  0  0  0
    7.7313  -15.8774   20.3221 N   0  0  0  0  0  0  0  0  0  0  0  0
    7.3488  -16.6094   21.5079 C   0  0  1  0  0  0  0  0  0  0  0  0
    7.1527  -18.0842   21.2449 C   0  0  0  0  0  0  0  0  0  0  0  0
    6.7411  -18.7384   22.5250 C   0  0  0  0  0  0  0  0  0  0  0  0
    6.5554  -20.2141   22.4231 C   0  0  0  0  0  0  0  0  0  0  0  0
    5.9700  -20.6942   23.7517 C   0  0  0  0  0  0  0  0  0  0  0  0
    5.6897  -22.1001   23.7278 N   0  0  0  0  0  0  0  0  0  0  0  0
    8.4661  -16.4153   22.5034 C   0  0  0  0  0  0  0  0  0  0  0  0
    9.6778  -16.4371   22.1272 O   0  0  0  0  0  0  0  0  0  0  0  0
    8.1845  -16.2058   23.8730 N   0  0  0  0  0  0  0  0  0  0  0  0
    9.3198  -15.9088   24.7659 C   0  0  1  0  0  0  0  0  0  0  0  0
    8.7975  -15.2584   26.0147 C   0  0  0  0  0  0  0  0  0  0  0  0
    9.9030  -15.0836   27.0105 C   0  0  0  0  0  0  0  0  0  0  0  0
    9.3984  -14.5404   28.3221 C   0  0  0  0  0  0  0  0  0  0  0  0
   10.4713  -14.3885   29.3469 C   0  0  0  0  0  0  0  0  0  0  0  0
   10.0167  -13.7431   30.5514 N   0  0  0  0  0  0  0  0  0  0  0  0
   10.0071  -17.1873   24.9961 C   0  0  0  0  0  0  0  0  0  0  0  0
   11.3823  -17.3190   25.2113 O   0  0  0  0  0  0  0  0  0  0  0  0
    9.3509  -18.2906   25.0090 O   0  0  0  0  0  0  0  0  0  0  0  0
  2  1  1  0
  3  2  1  0
  3  4  1  1
  5  3  1  0
  6  5  2  0
  7  5  1  0
  8  7  1  0
  8  9  1  6
 10  9  1  0
 11 10  1  0
 12 11  1  0
 13 12  1  0
 14 15  2  0
 14  8  1  0
 16 14  1  0
 17 16  1  0
 17 18  1  1
 19 20  1  0
 19 18  1  0
 20 21  1  0
 22 21  1  0
 23 17  1  0
 24 23  1  0
 25 23  2  0
M  END
$$$$
