SKK.pdb
     RDKit          3D

 25 24  0  0  1  0  0  0  0  0999 V2000
   11.0397  -13.1779   19.0936 O   0  0  0  0  0  0  0  0  0  0  0  0
   10.5035  -14.3348   18.5317 C   0  0  0  0  0  0  0  0  0  0  0  0
    8.9953  -14.2373   18.5200 C   0  0  2  0  0  0  0  0  0  0  0  0
    8.6035  -12.8584   18.3210 N   0  0  0  0  0  0  0  0  0  0  0  0
    8.3966  -14.8073   19.7557 C   0  0  0  0  0  0  0  0  0  0  0  0
    7.6286  -14.1317   20.4979 O   0  0  0  0  0  0  0  0  0  0  0  0
    8.6448  -16.1397   20.1835 N   0  0  0  0  0  0  0  0  0  0  0  0
    7.9229  -16.7753   21.2618 C   0  0  1  0  0  0  0  0  0  0  0  0
    8.2148  -18.2540   21.3672 C   0  0  0  0  0  0  0  0  0  0  0  0
    7.4094  -18.8120   22.4968 C   0  0  0  0  0  0  0  0  0  0  0  0
    7.4863  -20.2952   22.6258 C   0  0  0  0  0  0  0  0  0  0  0  0
    6.5924  -20.6992   23.7989 C   0  0  0  0  0  0  0  0  0  0  0  0
    6.4601  -22.1236   23.8957 N   0  0  0  0  0  0  0  0  0  0  0  0
    8.3573  -16.0805   22.5289 C   0  0  0  0  0  0  0  0  0  0  0  0
    9.5885  -15.8990   22.7768 O   0  0  0  0  0  0  0  0  0  0  0  0
    7.4018  -15.6188   23.4632 N   0  0  0  0  0  0  0  0  0  0  0  0
    7.8690  -14.7074   24.5240 C   0  0  1  0  0  0  0  0  0  0  0  0
    6.7420  -13.7924   24.9085 C   0  0  0  0  0  0  0  0  0  0  0  0
    7.1673  -12.8836   26.0209 C   0  0  0  0  0  0  0  0  0  0  0  0
    6.0401  -11.9995   26.4876 C   0  0  0  0  0  0  0  0  0  0  0  0
    6.4426  -11.0572   27.5713 C   0  0  0  0  0  0  0  0  0  0  0  0
    5.3484  -10.2616   28.0653 N   0  0  0  0  0  0  0  0  0  0  0  0
    8.3495  -15.5625   25.6185 C   0  0  0  0  0  0  0  0  0  0  0  0
    9.4359  -15.2563   26.4435 O   0  0  0  0  0  0  0  0  0  0  0  0
    7.7720  -16.6790   25.8791 O   0  0  0  0  0  0  0  0  0  0  0  0
  2  1  1  0
  3  2  1  0
  3  4  1  1
  5  3  1  0
  6  5  2  0
  7  5  1  0
  8  7  1  0
  8  9  1  1
 10  9  1  0
 11 10  1  0
 12 11  1  0
 13 12  1  0
 14 15  2  0
 14  8  1  0
 16 14  1  0
 17 16  1  0
 17 18  1  1
 19 20  1  0
 19 18  1  0
 20 21  1  0
 22 21  1  0
 23 17  1  0
 24 23  1  0
 25 23  2  0
M  END
$$$$
