SKK.pdb
     RDKit          3D

 25 24  0  0  1  0  0  0  0  0999 V2000
   10.0809  -13.3694   19.6819 O   0  0  0  0  0  0  0  0  0  0  0  0
    9.1722  -13.9673   18.8109 C   0  0  0  0  0  0  0  0  0  0  0  0
    7.7667  -13.7532   19.3237 C   0  0  2  0  0  0  0  0  0  0  0  0
    7.5048  -12.3340   19.4323 N   0  0  0  0  0  0  0  0  0  0  0  0
    7.5377  -14.4561   20.6136 C   0  0  0  0  0  0  0  0  0  0  0  0
    7.3814  -13.8262   21.6979 O   0  0  0  0  0  0  0  0  0  0  0  0
    7.4793  -15.8724   20.7148 N   0  0  0  0  0  0  0  0  0  0  0  0
    7.0991  -16.5676   21.9232 C   0  0  1  0  0  0  0  0  0  0  0  0
    6.8733  -18.0447   21.7000 C   0  0  0  0  0  0  0  0  0  0  0  0
    6.5161  -18.6682   23.0113 C   0  0  0  0  0  0  0  0  0  0  0  0
    6.3794  -20.1520   22.9636 C   0  0  0  0  0  0  0  0  0  0  0  0
    5.8472  -20.6062   24.3233 C   0  0  0  0  0  0  0  0  0  0  0  0
    5.6389  -22.0242   24.3618 N   0  0  0  0  0  0  0  0  0  0  0  0
    8.2325  -16.3691   22.8996 C   0  0  0  0  0  0  0  0  0  0  0  0
    9.4387  -16.4664   22.5178 O   0  0  0  0  0  0  0  0  0  0  0  0
    7.9723  -16.0712   24.2570 N   0  0  0  0  0  0  0  0  0  0  0  0
    9.1309  -15.8410   25.1398 C   0  0  1  0  0  0  0  0  0  0  0  0
    8.6480  -15.2326   26.4250 C   0  0  0  0  0  0  0  0  0  0  0  0
    9.7889  -15.0658   27.3814 C   0  0  0  0  0  0  0  0  0  0  0  0
    9.3618  -14.3796   28.6530 C   0  0  0  0  0  0  0  0  0  0  0  0
   10.4813  -14.1809   29.6180 C   0  0  0  0  0  0  0  0  0  0  0  0
   10.0756  -13.5091   30.8256 N   0  0  0  0  0  0  0  0  0  0  0  0
    9.7895  -17.1449   25.3019 C   0  0  0  0  0  0  0  0  0  0  0  0
    9.1211  -18.3727   25.3168 O   0  0  0  0  0  0  0  0  0  0  0  0
   11.0629  -17.2219   25.4455 O   0  0  0  0  0  0  0  0  0  0  0  0
  2  1  1  0
  3  2  1  0
  3  4  1  1
  5  3  1  0
  6  5  2  0
  7  5  1  0
  8  7  1  0
  8  9  1  6
 10  9  1  0
 11 10  1  0
 12 11  1  0
 13 12  1  0
 14 15  2  0
 14  8  1  0
 16 14  1  0
 17 16  1  0
 17 18  1  1
 19 20  1  0
 19 18  1  0
 20 21  1  0
 22 21  1  0
 23 17  1  0
 24 23  1  0
 25 23  2  0
M  END
$$$$
