SKK.pdb
     RDKit          3D

 25 24  0  0  1  0  0  0  0  0999 V2000
    9.0587  -18.7646   20.4961 O   0  0  0  0  0  0  0  0  0  0  0  0
    8.0757  -17.9641   19.9173 C   0  0  0  0  0  0  0  0  0  0  0  0
    8.5926  -16.5505   19.7810 C   0  0  2  0  0  0  0  0  0  0  0  0
    9.7045  -16.5316   18.8548 N   0  0  0  0  0  0  0  0  0  0  0  0
    8.9630  -15.9697   21.0985 C   0  0  0  0  0  0  0  0  0  0  0  0
   10.1619  -15.9289   21.4962 O   0  0  0  0  0  0  0  0  0  0  0  0
    8.0026  -15.4254   21.9935 N   0  0  0  0  0  0  0  0  0  0  0  0
    8.3480  -14.8337   23.2658 C   0  0  1  0  0  0  0  0  0  0  0  0
    7.1794  -14.1345   23.9203 C   0  0  0  0  0  0  0  0  0  0  0  0
    7.6617  -13.4978   25.1844 C   0  0  0  0  0  0  0  0  0  0  0  0
    6.5945  -12.8111   25.9667 C   0  0  0  0  0  0  0  0  0  0  0  0
    7.2678  -12.1294   27.1585 C   0  0  0  0  0  0  0  0  0  0  0  0
    6.3160  -11.4384   27.9783 N   0  0  0  0  0  0  0  0  0  0  0  0
    8.8191  -15.9662   24.1448 C   0  0  0  0  0  0  0  0  0  0  0  0
    8.1619  -17.0496   24.2105 O   0  0  0  0  0  0  0  0  0  0  0  0
   10.0007  -15.8418   24.9112 N   0  0  0  0  0  0  0  0  0  0  0  0
   10.4590  -17.0285   25.6570 C   0  0  1  0  0  0  0  0  0  0  0  0
   11.8356  -17.3971   25.1834 C   0  0  0  0  0  0  0  0  0  0  0  0
   12.3783  -18.5316   25.9974 C   0  0  0  0  0  0  0  0  0  0  0  0
   13.7795  -18.9007   25.5846 C   0  0  0  0  0  0  0  0  0  0  0  0
   14.3946  -19.9412   26.4584 C   0  0  0  0  0  0  0  0  0  0  0  0
   15.7750  -20.2027   26.1419 N   0  0  0  0  0  0  0  0  0  0  0  0
   10.3885  -16.6716   27.0810 C   0  0  0  0  0  0  0  0  0  0  0  0
   10.3654  -17.5972   28.1285 O   0  0  0  0  0  0  0  0  0  0  0  0
   10.3405  -15.4419   27.4463 O   0  0  0  0  0  0  0  0  0  0  0  0
  2  1  1  0
  3  2  1  0
  3  4  1  6
  5  3  1  0
  6  5  2  0
  7  5  1  0
  8  7  1  0
  8  9  1  1
 10  9  1  0
 11 10  1  0
 12 11  1  0
 13 12  1  0
 14 15  2  0
 14  8  1  0
 16 14  1  0
 17 16  1  0
 17 18  1  6
 19 20  1  0
 19 18  1  0
 20 21  1  0
 22 21  1  0
 23 17  1  0
 24 23  1  0
 25 23  2  0
M  END
$$$$
