SKK.pdb
     RDKit          3D

 25 24  0  0  1  0  0  0  0  0999 V2000
   10.2388  -19.3391   18.8822 O   0  0  0  0  0  0  0  0  0  0  0  0
    9.7619  -18.9601   20.1355 C   0  0  0  0  0  0  0  0  0  0  0  0
    8.3804  -19.5363   20.3445 C   0  0  2  0  0  0  0  0  0  0  0  0
    7.4849  -19.0194   19.3319 N   0  0  0  0  0  0  0  0  0  0  0  0
    7.8737  -19.2693   21.7164 C   0  0  0  0  0  0  0  0  0  0  0  0
    7.4078  -18.1423   22.0479 O   0  0  0  0  0  0  0  0  0  0  0  0
    7.8785  -20.2547   22.7405 N   0  0  0  0  0  0  0  0  0  0  0  0
    7.3841  -20.0140   24.0768 C   0  0  1  0  0  0  0  0  0  0  0  0
    7.1441  -21.2905   24.8486 C   0  0  0  0  0  0  0  0  0  0  0  0
    5.7972  -21.8201   24.4727 C   0  0  0  0  0  0  0  0  0  0  0  0
    5.4890  -23.1623   25.0435 C   0  0  0  0  0  0  0  0  0  0  0  0
    4.0889  -23.5514   24.5670 C   0  0  0  0  0  0  0  0  0  0  0  0
    3.7437  -24.8821   24.9740 N   0  0  0  0  0  0  0  0  0  0  0  0
    8.4371  -19.1889   24.7751 C   0  0  0  0  0  0  0  0  0  0  0  0
    9.6688  -19.3738   24.5326 O   0  0  0  0  0  0  0  0  0  0  0  0
    8.0716  -18.1949   25.7118 N   0  0  0  0  0  0  0  0  0  0  0  0
    9.1563  -17.4264   26.3502 C   0  0  1  0  0  0  0  0  0  0  0  0
    8.5885  -16.1480   26.8965 C   0  0  0  0  0  0  0  0  0  0  0  0
    9.6594  -15.3548   27.5808 C   0  0  0  0  0  0  0  0  0  0  0  0
    9.1331  -14.0536   28.1284 C   0  0  0  0  0  0  0  0  0  0  0  0
   10.1917  -13.2068   28.7501 C   0  0  0  0  0  0  0  0  0  0  0  0
    9.6770  -11.9961   29.3360 N   0  0  0  0  0  0  0  0  0  0  0  0
    9.7404  -18.3092   27.3698 C   0  0  0  0  0  0  0  0  0  0  0  0
   11.0972  -18.3415   27.7052 O   0  0  0  0  0  0  0  0  0  0  0  0
    9.0024  -19.1284   28.0272 O   0  0  0  0  0  0  0  0  0  0  0  0
  2  1  1  0
  3  2  1  0
  3  4  1  6
  5  3  1  0
  6  5  2  0
  7  5  1  0
  8  7  1  0
  8  9  1  1
 10  9  1  0
 11 10  1  0
 12 11  1  0
 13 12  1  0
 14 15  2  0
 14  8  1  0
 16 14  1  0
 17 16  1  0
 17 18  1  1
 19 20  1  0
 19 18  1  0
 20 21  1  0
 22 21  1  0
 23 17  1  0
 24 23  1  0
 25 23  2  0
M  END
$$$$
