SKK.pdb
     RDKit          3D

 25 24  0  0  1  0  0  0  0  0999 V2000
   10.4810  -13.4250   17.9484 O   0  0  0  0  0  0  0  0  0  0  0  0
    9.8526  -13.4371   19.1922 C   0  0  0  0  0  0  0  0  0  0  0  0
    8.3904  -13.7759   19.0149 C   0  0  2  0  0  0  0  0  0  0  0  0
    7.6603  -12.5812   18.6486 N   0  0  0  0  0  0  0  0  0  0  0  0
    7.8224  -14.4182   20.2294 C   0  0  0  0  0  0  0  0  0  0  0  0
    7.3977  -13.7388   21.2067 O   0  0  0  0  0  0  0  0  0  0  0  0
    7.7190  -15.8283   20.3736 N   0  0  0  0  0  0  0  0  0  0  0  0
    7.1596  -16.4685   21.5420 C   0  0  1  0  0  0  0  0  0  0  0  0
    6.6933  -17.8791   21.2672 C   0  0  0  0  0  0  0  0  0  0  0  0
    6.1689  -18.4568   22.5428 C   0  0  0  0  0  0  0  0  0  0  0  0
    5.8150  -19.9025   22.4570 C   0  0  0  0  0  0  0  0  0  0  0  0
    5.0660  -20.2669   23.7396 C   0  0  0  0  0  0  0  0  0  0  0  0
    4.6506  -21.6391   23.7365 N   0  0  0  0  0  0  0  0  0  0  0  0
    8.2560  -16.4891   22.5786 C   0  0  0  0  0  0  0  0  0  0  0  0
    9.4330  -16.8466   22.2672 O   0  0  0  0  0  0  0  0  0  0  0  0
    7.9931  -16.1107   23.9153 N   0  0  0  0  0  0  0  0  0  0  0  0
    9.1431  -15.9952   24.8311 C   0  0  1  0  0  0  0  0  0  0  0  0
    8.7320  -15.1835   26.0259 C   0  0  0  0  0  0  0  0  0  0  0  0
    9.8491  -15.1238   27.0223 C   0  0  0  0  0  0  0  0  0  0  0  0
    9.4716  -14.3269   28.2439 C   0  0  0  0  0  0  0  0  0  0  0  0
   10.5851  -14.1963   29.2274 C   0  0  0  0  0  0  0  0  0  0  0  0
   10.2259  -13.4273   30.3909 N   0  0  0  0  0  0  0  0  0  0  0  0
    9.5539  -17.3698   25.1504 C   0  0  0  0  0  0  0  0  0  0  0  0
   10.8778  -17.7753   25.3434 O   0  0  0  0  0  0  0  0  0  0  0  0
    8.6807  -18.3031   25.2702 O   0  0  0  0  0  0  0  0  0  0  0  0
  2  1  1  0
  3  2  1  0
  3  4  1  1
  5  3  1  0
  6  5  2  0
  7  5  1  0
  8  7  1  0
  8  9  1  6
 10  9  1  0
 11 10  1  0
 12 11  1  0
 13 12  1  0
 14 15  2  0
 14  8  1  0
 16 14  1  0
 17 16  1  0
 17 18  1  1
 19 20  1  0
 19 18  1  0
 20 21  1  0
 22 21  1  0
 23 17  1  0
 24 23  1  0
 25 23  2  0
M  END
$$$$
