SKK.pdb
     RDKit          3D

 25 24  0  0  1  0  0  0  0  0999 V2000
    9.8758  -20.2823   19.8313 O   0  0  0  0  0  0  0  0  0  0  0  0
    9.0175  -19.6324   18.9466 C   0  0  0  0  0  0  0  0  0  0  0  0
    9.7109  -18.4187   18.3716 C   0  0  2  0  0  0  0  0  0  0  0  0
   10.8422  -18.8429   17.5750 N   0  0  0  0  0  0  0  0  0  0  0  0
   10.1135  -17.4594   19.4336 C   0  0  0  0  0  0  0  0  0  0  0  0
   11.3246  -17.2818   19.7479 O   0  0  0  0  0  0  0  0  0  0  0  0
    9.1721  -16.6828   20.1620 N   0  0  0  0  0  0  0  0  0  0  0  0
    9.5433  -15.7713   21.2200 C   0  0  1  0  0  0  0  0  0  0  0  0
    8.4682  -14.7518   21.5155 C   0  0  0  0  0  0  0  0  0  0  0  0
    8.3388  -13.8493   20.3304 C   0  0  0  0  0  0  0  0  0  0  0  0
    6.9383  -13.4374   20.0279 C   0  0  0  0  0  0  0  0  0  0  0  0
    6.9731  -12.6058   18.7451 C   0  0  0  0  0  0  0  0  0  0  0  0
    5.6557  -12.2238   18.3277 N   0  0  0  0  0  0  0  0  0  0  0  0
    9.7878  -16.6205   22.4433 C   0  0  0  0  0  0  0  0  0  0  0  0
    9.0544  -17.6266   22.6885 O   0  0  0  0  0  0  0  0  0  0  0  0
   10.8375  -16.3116   23.3386 N   0  0  0  0  0  0  0  0  0  0  0  0
   11.2762  -17.3695   24.2676 C   0  0  1  0  0  0  0  0  0  0  0  0
   12.6432  -17.8378   23.8587 C   0  0  0  0  0  0  0  0  0  0  0  0
   13.1566  -18.8541   24.8322 C   0  0  0  0  0  0  0  0  0  0  0  0
   14.5091  -19.3840   24.4319 C   0  0  0  0  0  0  0  0  0  0  0  0
   15.0274  -20.4315   25.3583 C   0  0  0  0  0  0  0  0  0  0  0  0
   16.2253  -21.0703   24.8775 N   0  0  0  0  0  0  0  0  0  0  0  0
   11.2190  -16.7836   25.6142 C   0  0  0  0  0  0  0  0  0  0  0  0
   10.9538  -15.4370   25.8807 O   0  0  0  0  0  0  0  0  0  0  0  0
   11.4204  -17.5098   26.6535 O   0  0  0  0  0  0  0  0  0  0  0  0
  2  1  1  0
  3  2  1  0
  3  4  1  1
  5  3  1  0
  6  5  2  0
  7  5  1  0
  8  7  1  0
  8  9  1  1
 10  9  1  0
 11 10  1  0
 12 11  1  0
 13 12  1  0
 14 15  2  0
 14  8  1  0
 16 14  1  0
 17 16  1  0
 17 18  1  6
 19 20  1  0
 19 18  1  0
 20 21  1  0
 22 21  1  0
 23 17  1  0
 24 23  1  0
 25 23  2  0
M  END
$$$$
