SKK.pdb
     RDKit          3D

 25 24  0  0  1  0  0  0  0  0999 V2000
    8.0134  -21.6949   20.8721 O   0  0  0  0  0  0  0  0  0  0  0  0
    6.9072  -20.9964   20.3922 C   0  0  0  0  0  0  0  0  0  0  0  0
    7.3418  -20.0623   19.2863 C   0  0  2  0  0  0  0  0  0  0  0  0
    7.8790  -20.8349   18.1869 N   0  0  0  0  0  0  0  0  0  0  0  0
    8.3126  -19.0468   19.7725 C   0  0  0  0  0  0  0  0  0  0  0  0
    9.5508  -19.1415   19.5377 O   0  0  0  0  0  0  0  0  0  0  0  0
    7.9184  -17.9096   20.5282 N   0  0  0  0  0  0  0  0  0  0  0  0
    8.8414  -16.8873   20.9653 C   0  0  1  0  0  0  0  0  0  0  0  0
    8.1575  -15.5742   21.2667 C   0  0  0  0  0  0  0  0  0  0  0  0
    8.1931  -14.7322   20.0314 C   0  0  0  0  0  0  0  0  0  0  0  0
    7.4364  -13.4526   20.1440 C   0  0  0  0  0  0  0  0  0  0  0  0
    7.5734  -12.7213   18.8080 C   0  0  0  0  0  0  0  0  0  0  0  0
    6.8719  -11.4709   18.8163 N   0  0  0  0  0  0  0  0  0  0  0  0
    9.4974  -17.4170   22.2168 C   0  0  0  0  0  0  0  0  0  0  0  0
    8.8077  -17.9889   23.1154 O   0  0  0  0  0  0  0  0  0  0  0  0
   10.8916  -17.2863   22.4119 N   0  0  0  0  0  0  0  0  0  0  0  0
   11.4722  -17.8983   23.6214 C   0  0  1  0  0  0  0  0  0  0  0  0
   12.8683  -18.3563   23.3108 C   0  0  0  0  0  0  0  0  0  0  0  0
   13.4936  -18.9750   24.5234 C   0  0  0  0  0  0  0  0  0  0  0  0
   14.8721  -19.5103   24.2348 C   0  0  0  0  0  0  0  0  0  0  0  0
   15.4759  -20.2327   25.3913 C   0  0  0  0  0  0  0  0  0  0  0  0
   16.6742  -20.9531   25.0461 N   0  0  0  0  0  0  0  0  0  0  0  0
   11.3947  -16.8778   24.6761 C   0  0  0  0  0  0  0  0  0  0  0  0
   11.2948  -17.1577   26.0422 O   0  0  0  0  0  0  0  0  0  0  0  0
   11.4137  -15.6285   24.3813 O   0  0  0  0  0  0  0  0  0  0  0  0
  2  1  1  0
  3  2  1  0
  3  4  1  6
  5  3  1  0
  6  5  2  0
  7  5  1  0
  8  7  1  0
  8  9  1  1
 10  9  1  0
 11 10  1  0
 12 11  1  0
 13 12  1  0
 14 15  2  0
 14  8  1  0
 16 14  1  0
 17 16  1  0
 17 18  1  6
 19 20  1  0
 19 18  1  0
 20 21  1  0
 22 21  1  0
 23 17  1  0
 24 23  1  0
 25 23  2  0
M  END
$$$$
