SKK.pdb
     RDKit          3D

 25 24  0  0  1  0  0  0  0  0999 V2000
   -1.8153  -30.9431   28.1339 O   0  0  0  0  0  0  0  0  0  0  0  0
   -1.9499  -30.8208   26.7523 C   0  0  0  0  0  0  0  0  0  0  0  0
   -1.2652  -29.5554   26.2892 C   0  0  2  0  0  0  0  0  0  0  0  0
    0.0274  -29.4451   26.9305 N   0  0  0  0  0  0  0  0  0  0  0  0
   -2.1056  -28.3534   26.5327 C   0  0  0  0  0  0  0  0  0  0  0  0
   -1.8770  -27.5629   27.4919 O   0  0  0  0  0  0  0  0  0  0  0  0
   -3.2140  -28.0138   25.7107 N   0  0  0  0  0  0  0  0  0  0  0  0
   -4.0351  -26.8447   25.9275 C   0  0  1  0  0  0  0  0  0  0  0  0
   -4.8057  -26.4362   24.6938 C   0  0  0  0  0  0  0  0  0  0  0  0
   -3.8542  -25.7885   23.7393 C   0  0  0  0  0  0  0  0  0  0  0  0
   -4.4759  -25.3650   22.4521 C   0  0  0  0  0  0  0  0  0  0  0  0
   -3.3500  -24.8792   21.5384 C   0  0  0  0  0  0  0  0  0  0  0  0
   -3.8304  -24.5828   20.2205 N   0  0  0  0  0  0  0  0  0  0  0  0
   -4.9985  -27.2036   27.0322 C   0  0  0  0  0  0  0  0  0  0  0  0
   -5.5709  -28.3359   27.0478 O   0  0  0  0  0  0  0  0  0  0  0  0
   -5.2815  -26.2858   28.0698 N   0  0  0  0  0  0  0  0  0  0  0  0
   -6.2602  -26.6941   29.0945 C   0  0  1  0  0  0  0  0  0  0  0  0
   -5.5263  -27.0204   30.3634 C   0  0  0  0  0  0  0  0  0  0  0  0
   -6.4979  -27.3492   31.4553 C   0  0  0  0  0  0  0  0  0  0  0  0
   -5.7996  -27.6919   32.7456 C   0  0  0  0  0  0  0  0  0  0  0  0
   -6.7273  -28.1922   33.8008 C   0  0  0  0  0  0  0  0  0  0  0  0
   -6.0545  -28.5528   35.0220 N   0  0  0  0  0  0  0  0  0  0  0  0
   -7.2126  -25.5818   29.2196 C   0  0  0  0  0  0  0  0  0  0  0  0
   -8.5095  -25.7038   29.7271 O   0  0  0  0  0  0  0  0  0  0  0  0
   -6.8865  -24.3959   28.8516 O   0  0  0  0  0  0  0  0  0  0  0  0
  2  1  1  0
  3  2  1  0
  3  4  1  1
  5  3  1  0
  6  5  2  0
  7  5  1  0
  8  7  1  0
  8  9  1  6
 10  9  1  0
 11 10  1  0
 12 11  1  0
 13 12  1  0
 14 15  2  0
 14  8  1  0
 16 14  1  0
 17 16  1  0
 17 18  1  1
 19 20  1  0
 19 18  1  0
 20 21  1  0
 22 21  1  0
 23 17  1  0
 24 23  1  0
 25 23  2  0
M  END
$$$$
