SKK.pdb
     RDKit          3D

 25 24  0  0  1  0  0  0  0  0999 V2000
   10.7304  -13.0290   19.6894 O   0  0  0  0  0  0  0  0  0  0  0  0
   10.6252  -13.9230   18.6257 C   0  0  0  0  0  0  0  0  0  0  0  0
    9.1664  -14.1677   18.3153 C   0  0  2  0  0  0  0  0  0  0  0  0
    8.5374  -12.9187   17.9425 N   0  0  0  0  0  0  0  0  0  0  0  0
    8.4635  -14.8213   19.4506 C   0  0  0  0  0  0  0  0  0  0  0  0
    7.6138  -14.2040   20.1535 O   0  0  0  0  0  0  0  0  0  0  0  0
    8.6967  -16.1736   19.8201 N   0  0  0  0  0  0  0  0  0  0  0  0
    8.0318  -16.8205   20.9280 C   0  0  1  0  0  0  0  0  0  0  0  0
    8.4326  -18.2689   21.0836 C   0  0  0  0  0  0  0  0  0  0  0  0
    7.6168  -18.8657   22.1855 C   0  0  0  0  0  0  0  0  0  0  0  0
    6.2647  -19.3284   21.7610 C   0  0  0  0  0  0  0  0  0  0  0  0
    5.5222  -19.7851   23.0174 C   0  0  0  0  0  0  0  0  0  0  0  0
    4.1649  -20.1444   22.7272 N   0  0  0  0  0  0  0  0  0  0  0  0
    8.4236  -16.0496   22.1647 C   0  0  0  0  0  0  0  0  0  0  0  0
    9.6405  -15.7744   22.3961 O   0  0  0  0  0  0  0  0  0  0  0  0
    7.4432  -15.6197   23.0883 N   0  0  0  0  0  0  0  0  0  0  0  0
    7.8930  -14.8031   24.2309 C   0  0  1  0  0  0  0  0  0  0  0  0
    6.7360  -13.9841   24.7269 C   0  0  0  0  0  0  0  0  0  0  0  0
    7.1349  -13.2048   25.9426 C   0  0  0  0  0  0  0  0  0  0  0  0
    5.9972  -12.3743   26.4771 C   0  0  0  0  0  0  0  0  0  0  0  0
    6.3851  -11.5258   27.6406 C   0  0  0  0  0  0  0  0  0  0  0  0
    5.3379  -10.6325   28.0644 N   0  0  0  0  0  0  0  0  0  0  0  0
    8.4319  -15.7449   25.2222 C   0  0  0  0  0  0  0  0  0  0  0  0
    9.4687  -15.4494   26.1123 O   0  0  0  0  0  0  0  0  0  0  0  0
    7.9584  -16.9340   25.3210 O   0  0  0  0  0  0  0  0  0  0  0  0
  2  1  1  0
  3  2  1  0
  3  4  1  1
  5  3  1  0
  6  5  2  0
  7  5  1  0
  8  7  1  0
  8  9  1  1
 10  9  1  0
 11 10  1  0
 12 11  1  0
 13 12  1  0
 14 15  2  0
 14  8  1  0
 16 14  1  0
 17 16  1  0
 17 18  1  1
 19 20  1  0
 19 18  1  0
 20 21  1  0
 22 21  1  0
 23 17  1  0
 24 23  1  0
 25 23  2  0
M  END
$$$$
