SKK.pdb
     RDKit          3D

 25 24  0  0  1  0  0  0  0  0999 V2000
   10.8512  -13.2782   19.5723 O   0  0  0  0  0  0  0  0  0  0  0  0
   10.4382  -14.2475   18.6603 C   0  0  0  0  0  0  0  0  0  0  0  0
    8.9302  -14.2360   18.5607 C   0  0  2  0  0  0  0  0  0  0  0  0
    8.4780  -12.8954   18.2562 N   0  0  0  0  0  0  0  0  0  0  0  0
    8.2924  -14.7657   19.7948 C   0  0  0  0  0  0  0  0  0  0  0  0
    7.4746  -14.0789   20.4705 O   0  0  0  0  0  0  0  0  0  0  0  0
    8.5563  -16.0695   20.2949 N   0  0  0  0  0  0  0  0  0  0  0  0
    7.8519  -16.6478   21.4163 C   0  0  1  0  0  0  0  0  0  0  0  0
    8.1491  -18.1182   21.5962 C   0  0  0  0  0  0  0  0  0  0  0  0
    6.9050  -18.8892   21.2903 C   0  0  0  0  0  0  0  0  0  0  0  0
    7.0614  -20.3677   21.4015 C   0  0  0  0  0  0  0  0  0  0  0  0
    5.7175  -20.9986   21.0348 C   0  0  0  0  0  0  0  0  0  0  0  0
    5.7473  -22.4248   21.1781 N   0  0  0  0  0  0  0  0  0  0  0  0
    8.3033  -15.8854   22.6379 C   0  0  0  0  0  0  0  0  0  0  0  0
    9.5281  -15.5988   22.8046 O   0  0  0  0  0  0  0  0  0  0  0  0
    7.3710  -15.4763   23.6189 N   0  0  0  0  0  0  0  0  0  0  0  0
    7.8445  -14.5561   24.6693 C   0  0  1  0  0  0  0  0  0  0  0  0
    6.6924  -13.7088   25.1274 C   0  0  0  0  0  0  0  0  0  0  0  0
    7.1240  -12.8029   26.2397 C   0  0  0  0  0  0  0  0  0  0  0  0
    5.9912  -11.9430   26.7370 C   0  0  0  0  0  0  0  0  0  0  0  0
    6.3673  -11.0923   27.9028 C   0  0  0  0  0  0  0  0  0  0  0  0
    5.2588  -10.3467   28.4409 N   0  0  0  0  0  0  0  0  0  0  0  0
    8.4269  -15.3996   25.7227 C   0  0  0  0  0  0  0  0  0  0  0  0
    9.3938  -14.9697   26.6364 O   0  0  0  0  0  0  0  0  0  0  0  0
    8.0621  -16.6228   25.8586 O   0  0  0  0  0  0  0  0  0  0  0  0
  2  1  1  0
  3  2  1  0
  3  4  1  1
  5  3  1  0
  6  5  2  0
  7  5  1  0
  8  7  1  0
  8  9  1  1
 10  9  1  0
 11 10  1  0
 12 11  1  0
 13 12  1  0
 14 15  2  0
 14  8  1  0
 16 14  1  0
 17 16  1  0
 17 18  1  1
 19 20  1  0
 19 18  1  0
 20 21  1  0
 22 21  1  0
 23 17  1  0
 24 23  1  0
 25 23  2  0
M  END
$$$$
