HHY.pdb
     RDKit          3D

 33 35  0  0  1  0  0  0  0  0999 V2000
    8.2644  -17.2295   17.7697 N   0  0  0  0  0  0  0  0  0  0  0  0
    8.8604  -16.2658   18.6612 C   0  0  1  0  0  0  0  0  0  0  0  0
    7.8806  -15.0911   18.7827 C   0  0  0  0  0  0  0  0  0  0  0  0
    7.8263  -14.2964   17.5458 C   0  0  0  0  0  0  0  0  0  0  0  0
    8.2466  -13.0070   17.3703 C   0  0  0  0  0  0  0  0  0  0  0  0
    8.0214  -12.6438   16.0829 N   0  0  0  0  0  0  0  0  0  0  0  0
    7.4671  -13.6984   15.4681 C   0  0  0  0  0  0  0  0  0  0  0  0
    7.3470  -14.7148   16.3677 N   0  0  0  0  0  0  0  0  0  0  0  0
    9.0427  -16.8326   20.0027 C   0  0  0  0  0  0  0  0  0  0  0  0
    8.0558  -17.3146   20.6475 O   0  0  0  0  0  0  0  0  0  0  0  0
   10.3334  -16.8404   20.5808 N   0  0  0  0  0  0  0  0  0  0  0  0
   10.5117  -17.3625   21.9099 C   0  0  1  0  0  0  0  0  0  0  0  0
   11.4464  -18.5687   21.8767 C   0  0  0  0  0  0  0  0  0  0  0  0
   10.7817  -19.7448   21.2820 C   0  0  0  0  0  0  0  0  0  0  0  0
    9.4573  -19.8496   20.8374 C   0  0  0  0  0  0  0  0  0  0  0  0
    9.2579  -21.0893   20.3656 N   0  0  0  0  0  0  0  0  0  0  0  0
   10.4006  -21.7770   20.4918 C   0  0  0  0  0  0  0  0  0  0  0  0
   11.3126  -20.9589   21.0448 N   0  0  0  0  0  0  0  0  0  0  0  0
   11.1900  -16.2875   22.7177 C   0  0  0  0  0  0  0  0  0  0  0  0
   12.4201  -16.0611   22.6137 O   0  0  0  0  0  0  0  0  0  0  0  0
   10.7100  -14.8312   31.3383 O   0  0  0  0  0  0  0  0  0  0  0  0
   10.4578  -14.9398   29.9867 C   0  0  0  0  0  0  0  0  0  0  0  0
   10.3564  -13.8165   29.1831 C   0  0  0  0  0  0  0  0  0  0  0  0
   10.1038  -13.9256   27.8294 C   0  0  0  0  0  0  0  0  0  0  0  0
    9.9545  -15.1885   27.2966 C   0  0  0  0  0  0  0  0  0  0  0  0
    9.6770  -15.3133   25.8516 C   0  0  0  0  0  0  0  0  0  0  0  0
   10.9437  -15.3453   25.0011 C   0  0  2  0  0  0  0  0  0  0  0  0
   10.4654  -15.4829   23.6330 N   0  0  0  0  0  0  0  0  0  0  0  0
   11.8510  -16.4274   25.3866 C   0  0  0  0  0  0  0  0  0  0  0  0
   11.5510  -17.6617   25.3458 O   0  0  0  0  0  0  0  0  0  0  0  0
   10.0571  -16.2973   28.1037 C   0  0  0  0  0  0  0  0  0  0  0  0
   10.3093  -16.2025   29.4584 C   0  0  0  0  0  0  0  0  0  0  0  0
   13.1277  -16.1251   25.8287 O   0  0  0  0  0  0  0  0  0  0  0  0
  2  1  1  6
  2  3  1  0
  3  4  1  0
  4  8  1  0
  5  6  1  0
  5  4  2  0
  6  7  1  0
  7  8  2  0
  9  2  1  0
  9 10  2  0
 11  9  1  0
 12 11  1  0
 12 13  1  6
 13 14  1  0
 14 15  2  0
 14 18  1  0
 15 16  1  0
 16 17  1  0
 18 17  2  0
 19 12  1  0
 20 19  2  0
 22 23  2  0
 22 21  1  0
 24 23  1  0
 25 24  2  0
 27 26  1  1
 26 25  1  0
 27 28  1  0
 28 19  1  0
 29 27  1  0
 29 33  1  0
 30 29  2  0
 31 25  1  0
 31 32  2  0
 32 22  1  0
M  END
$$$$
