HHY.pdb
     RDKit          3D

 33 35  0  0  1  0  0  0  0  0999 V2000
    9.5504  -18.1482   18.8805 N   0  0  0  0  0  0  0  0  0  0  0  0
   10.3945  -18.2829   20.0415 C   0  0  1  0  0  0  0  0  0  0  0  0
   11.6175  -17.3825   19.8223 C   0  0  0  0  0  0  0  0  0  0  0  0
   12.5418  -17.9510   18.8288 C   0  0  0  0  0  0  0  0  0  0  0  0
   12.2874  -18.9619   17.9436 C   0  0  0  0  0  0  0  0  0  0  0  0
   13.4014  -19.1868   17.2030 N   0  0  0  0  0  0  0  0  0  0  0  0
   14.3357  -18.3234   17.6261 C   0  0  0  0  0  0  0  0  0  0  0  0
   13.8072  -17.5634   18.6259 N   0  0  0  0  0  0  0  0  0  0  0  0
    9.7067  -17.8113   21.2494 C   0  0  0  0  0  0  0  0  0  0  0  0
    9.0594  -16.7145   21.2459 O   0  0  0  0  0  0  0  0  0  0  0  0
    9.7677  -18.5897   22.4286 N   0  0  0  0  0  0  0  0  0  0  0  0
    8.9456  -18.2353   23.5551 C   0  0  1  0  0  0  0  0  0  0  0  0
    8.4826  -19.4954   24.2814 C   0  0  0  0  0  0  0  0  0  0  0  0
    7.1414  -19.9126   23.8278 C   0  0  0  0  0  0  0  0  0  0  0  0
    6.3309  -19.2983   22.8643 C   0  0  0  0  0  0  0  0  0  0  0  0
    5.1909  -19.9962   22.7516 N   0  0  0  0  0  0  0  0  0  0  0  0
    5.2431  -21.0287   23.6036 C   0  0  0  0  0  0  0  0  0  0  0  0
    6.4217  -20.9700   24.2474 N   0  0  0  0  0  0  0  0  0  0  0  0
    9.8157  -17.4586   24.5080 C   0  0  0  0  0  0  0  0  0  0  0  0
   11.0671  -17.5515   24.4838 O   0  0  0  0  0  0  0  0  0  0  0  0
    4.9652  -12.1507   26.5508 O   0  0  0  0  0  0  0  0  0  0  0  0
    6.2194  -12.7045   26.3999 C   0  0  0  0  0  0  0  0  0  0  0  0
    7.1440  -12.6784   27.4306 C   0  0  0  0  0  0  0  0  0  0  0  0
    8.3999  -13.2331   27.2792 C   0  0  0  0  0  0  0  0  0  0  0  0
    8.7105  -13.8164   26.0691 C   0  0  0  0  0  0  0  0  0  0  0  0
   10.0538  -14.4051   25.8969 C   0  0  0  0  0  0  0  0  0  0  0  0
   10.1367  -15.8525   26.3735 C   0  0  2  0  0  0  0  0  0  0  0  0
    9.2563  -16.5867   25.4760 N   0  0  0  0  0  0  0  0  0  0  0  0
    9.7534  -16.0034   27.7781 C   0  0  0  0  0  0  0  0  0  0  0  0
    8.7083  -16.6086   28.1740 O   0  0  0  0  0  0  0  0  0  0  0  0
    7.7848  -13.8368   25.0522 C   0  0  0  0  0  0  0  0  0  0  0  0
    6.5257  -13.2859   25.1902 C   0  0  0  0  0  0  0  0  0  0  0  0
   10.5578  -15.4657   28.7684 O   0  0  0  0  0  0  0  0  0  0  0  0
  2  1  1  6
  2  3  1  0
  3  4  1  0
  4  8  1  0
  5  6  1  0
  5  4  2  0
  6  7  1  0
  7  8  2  0
  9  2  1  0
  9 10  2  0
 11  9  1  0
 12 11  1  0
 12 13  1  1
 13 14  1  0
 14 15  2  0
 14 18  1  0
 15 16  1  0
 16 17  1  0
 18 17  2  0
 19 12  1  0
 20 19  2  0
 22 23  2  0
 22 21  1  0
 24 23  1  0
 25 24  2  0
 27 26  1  6
 26 25  1  0
 27 28  1  0
 28 19  1  0
 29 27  1  0
 29 33  1  0
 30 29  2  0
 31 25  1  0
 31 32  2  0
 32 22  1  0
M  END
$$$$
