HHY.pdb
     RDKit          3D

 33 35  0  0  1  0  0  0  0  0999 V2000
   12.7134  -16.0955   20.2036 N   0  0  0  0  0  0  0  0  0  0  0  0
   12.6591  -14.7145   20.6142 C   0  0  1  0  0  0  0  0  0  0  0  0
   12.8849  -13.8578   19.3614 C   0  0  0  0  0  0  0  0  0  0  0  0
   14.1721  -14.1626   18.7174 C   0  0  0  0  0  0  0  0  0  0  0  0
   15.4172  -13.7764   19.1305 C   0  0  0  0  0  0  0  0  0  0  0  0
   16.3381  -14.2630   18.2614 N   0  0  0  0  0  0  0  0  0  0  0  0
   15.6689  -14.9435   17.3198 C   0  0  0  0  0  0  0  0  0  0  0  0
   14.3369  -14.8818   17.6002 N   0  0  0  0  0  0  0  0  0  0  0  0
   11.3351  -14.3768   21.1503 C   0  0  0  0  0  0  0  0  0  0  0  0
   11.0694  -13.1923   21.5355 O   0  0  0  0  0  0  0  0  0  0  0  0
   10.3465  -15.3844   21.2374 N   0  0  0  0  0  0  0  0  0  0  0  0
    9.0705  -15.0764   21.8270 C   0  0  1  0  0  0  0  0  0  0  0  0
    7.9468  -15.6662   20.9789 C   0  0  0  0  0  0  0  0  0  0  0  0
    7.9388  -15.0854   19.6220 C   0  0  0  0  0  0  0  0  0  0  0  0
    8.4378  -13.8404   19.2176 C   0  0  0  0  0  0  0  0  0  0  0  0
    8.2317  -13.7009   17.8995 N   0  0  0  0  0  0  0  0  0  0  0  0
    7.6224  -14.8057   17.4492 C   0  0  0  0  0  0  0  0  0  0  0  0
    7.4502  -15.6339   18.4939 N   0  0  0  0  0  0  0  0  0  0  0  0
    9.0295  -15.7589   23.1689 C   0  0  0  0  0  0  0  0  0  0  0  0
    9.9886  -16.4527   23.5859 O   0  0  0  0  0  0  0  0  0  0  0  0
    7.4372  -10.4590   27.4110 O   0  0  0  0  0  0  0  0  0  0  0  0
    7.2451  -11.7800   27.0640 C   0  0  0  0  0  0  0  0  0  0  0  0
    6.2851  -12.1456   26.1351 C   0  0  0  0  0  0  0  0  0  0  0  0
    6.0929  -13.4687   25.7878 C   0  0  0  0  0  0  0  0  0  0  0  0
    6.8857  -14.4206   26.3931 C   0  0  0  0  0  0  0  0  0  0  0  0
    6.6814  -15.8379   26.0326 C   0  0  0  0  0  0  0  0  0  0  0  0
    7.8494  -16.4286   25.2477 C   0  0  2  0  0  0  0  0  0  0  0  0
    7.9019  -15.6463   24.0211 N   0  0  0  0  0  0  0  0  0  0  0  0
    7.6852  -17.8601   24.9900 C   0  0  0  0  0  0  0  0  0  0  0  0
    7.6921  -18.7553   25.8921 O   0  0  0  0  0  0  0  0  0  0  0  0
    7.8361  -14.0466   27.3142 C   0  0  0  0  0  0  0  0  0  0  0  0
    8.0386  -12.7275   27.6705 C   0  0  0  0  0  0  0  0  0  0  0  0
    7.5077  -18.3056   23.6912 O   0  0  0  0  0  0  0  0  0  0  0  0
  2  1  1  6
  2  3  1  0
  3  4  1  0
  4  8  1  0
  5  6  1  0
  5  4  2  0
  6  7  1  0
  7  8  2  0
  9  2  1  0
  9 10  2  0
 11  9  1  0
 12 11  1  0
 12 13  1  6
 13 14  1  0
 14 15  2  0
 14 18  1  0
 15 16  1  0
 16 17  1  0
 18 17  2  0
 19 12  1  0
 20 19  2  0
 22 23  2  0
 22 21  1  0
 24 23  1  0
 25 24  2  0
 27 26  1  1
 26 25  1  0
 27 28  1  0
 28 19  1  0
 29 27  1  0
 29 33  1  0
 30 29  2  0
 31 25  1  0
 31 32  2  0
 32 22  1  0
M  END
$$$$
