HHY.pdb
     RDKit          3D

 33 35  0  0  1  0  0  0  0  0999 V2000
    8.8737  -17.2219   18.2708 N   0  0  0  0  0  0  0  0  0  0  0  0
    9.2922  -16.2679   19.2674 C   0  0  1  0  0  0  0  0  0  0  0  0
    8.1912  -15.2040   19.3700 C   0  0  0  0  0  0  0  0  0  0  0  0
    8.0646  -14.4289   18.1259 C   0  0  0  0  0  0  0  0  0  0  0  0
    8.5995  -13.1992   17.8579 C   0  0  0  0  0  0  0  0  0  0  0  0
    8.2498  -12.8339   16.5991 N   0  0  0  0  0  0  0  0  0  0  0  0
    7.5059  -13.8281   16.0936 C   0  0  0  0  0  0  0  0  0  0  0  0
    7.3920  -14.8090   17.0325 N   0  0  0  0  0  0  0  0  0  0  0  0
    9.4191  -16.9040   20.5840 C   0  0  0  0  0  0  0  0  0  0  0  0
    8.4496  -17.5572   21.0897 O   0  0  0  0  0  0  0  0  0  0  0  0
   10.6360  -16.7862   21.2949 N   0  0  0  0  0  0  0  0  0  0  0  0
   10.8194  -17.5281   22.5141 C   0  0  1  0  0  0  0  0  0  0  0  0
   12.1420  -18.2888   22.4693 C   0  0  0  0  0  0  0  0  0  0  0  0
   12.0229  -19.5229   21.6683 C   0  0  0  0  0  0  0  0  0  0  0  0
   10.8830  -20.0230   21.0255 C   0  0  0  0  0  0  0  0  0  0  0  0
   11.2048  -21.1692   20.4073 N   0  0  0  0  0  0  0  0  0  0  0  0
   12.5020  -21.4184   20.6306 C   0  0  0  0  0  0  0  0  0  0  0  0
   12.9862  -20.4213   21.3910 N   0  0  0  0  0  0  0  0  0  0  0  0
   10.9144  -16.5224   23.6312 C   0  0  0  0  0  0  0  0  0  0  0  0
   11.3531  -15.3623   23.4390 O   0  0  0  0  0  0  0  0  0  0  0  0
    6.0625  -11.1625   27.7254 O   0  0  0  0  0  0  0  0  0  0  0  0
    6.7220  -12.1731   27.0573 C   0  0  0  0  0  0  0  0  0  0  0  0
    6.1670  -13.4363   26.9390 C   0  0  0  0  0  0  0  0  0  0  0  0
    6.8277  -14.4482   26.2698 C   0  0  0  0  0  0  0  0  0  0  0  0
    8.0602  -14.1661   25.7200 C   0  0  0  0  0  0  0  0  0  0  0  0
    8.7762  -15.2446   25.0093 C   0  0  0  0  0  0  0  0  0  0  0  0
    9.9522  -15.8050   25.8042 C   0  0  2  0  0  0  0  0  0  0  0  0
   10.5109  -16.8445   24.9517 N   0  0  0  0  0  0  0  0  0  0  0  0
    9.5502  -16.3153   27.1160 C   0  0  0  0  0  0  0  0  0  0  0  0
    8.9171  -17.4022   27.2980 O   0  0  0  0  0  0  0  0  0  0  0  0
    8.6021  -12.9081   25.8433 C   0  0  0  0  0  0  0  0  0  0  0  0
    7.9524  -11.8875   26.5097 C   0  0  0  0  0  0  0  0  0  0  0  0
    9.8635  -15.5947   28.2559 O   0  0  0  0  0  0  0  0  0  0  0  0
  2  1  1  6
  2  3  1  0
  3  4  1  0
  4  8  1  0
  5  6  1  0
  5  4  2  0
  6  7  1  0
  7  8  2  0
  9  2  1  0
  9 10  2  0
 11  9  1  0
 12 11  1  0
 12 13  1  6
 13 14  1  0
 14 15  2  0
 14 18  1  0
 15 16  1  0
 16 17  1  0
 18 17  2  0
 19 12  1  0
 20 19  2  0
 22 23  2  0
 22 21  1  0
 24 23  1  0
 25 24  2  0
 27 26  1  6
 26 25  1  0
 27 28  1  0
 28 19  1  0
 29 27  1  0
 29 33  1  0
 30 29  2  0
 31 25  1  0
 31 32  2  0
 32 22  1  0
M  END
$$$$
