HHY.pdb
     RDKit          3D

 33 35  0  0  1  0  0  0  0  0999 V2000
    9.2928  -16.8291   16.8822 N   0  0  0  0  0  0  0  0  0  0  0  0
    9.2094  -15.9291   18.0054 C   0  0  1  0  0  0  0  0  0  0  0  0
    7.8841  -15.1659   17.8798 C   0  0  0  0  0  0  0  0  0  0  0  0
    7.8378  -14.3519   16.6552 C   0  0  0  0  0  0  0  0  0  0  0  0
    8.3395  -13.0921   16.4782 C   0  0  0  0  0  0  0  0  0  0  0  0
    8.0910  -12.6960   15.2048 N   0  0  0  0  0  0  0  0  0  0  0  0
    7.4418  -13.7012   14.6002 C   0  0  0  0  0  0  0  0  0  0  0  0
    7.2860  -14.7196   15.4920 N   0  0  0  0  0  0  0  0  0  0  0  0
    9.1768  -16.6701   19.2719 C   0  0  0  0  0  0  0  0  0  0  0  0
    8.0881  -17.1634   19.7119 O   0  0  0  0  0  0  0  0  0  0  0  0
   10.3730  -16.8348   20.0080 N   0  0  0  0  0  0  0  0  0  0  0  0
   10.3759  -17.6726   21.1779 C   0  0  1  0  0  0  0  0  0  0  0  0
   11.4780  -18.7227   21.0663 C   0  0  0  0  0  0  0  0  0  0  0  0
   11.0147  -19.9077   20.3181 C   0  0  0  0  0  0  0  0  0  0  0  0
    9.7292  -20.1621   19.8226 C   0  0  0  0  0  0  0  0  0  0  0  0
    9.7336  -21.3521   19.2036 N   0  0  0  0  0  0  0  0  0  0  0  0
   10.9686  -21.8647   19.2850 C   0  0  0  0  0  0  0  0  0  0  0  0
   11.7332  -20.9876   19.9580 N   0  0  0  0  0  0  0  0  0  0  0  0
   10.7106  -16.7894   22.3510 C   0  0  0  0  0  0  0  0  0  0  0  0
   11.6524  -15.9611   22.3057 O   0  0  0  0  0  0  0  0  0  0  0  0
   10.4954  -13.8990   30.6775 O   0  0  0  0  0  0  0  0  0  0  0  0
   10.1876  -14.4333   29.4438 C   0  0  0  0  0  0  0  0  0  0  0  0
   10.2404  -15.7989   29.2198 C   0  0  0  0  0  0  0  0  0  0  0  0
    9.9321  -16.3338   27.9841 C   0  0  0  0  0  0  0  0  0  0  0  0
    9.5684  -15.4681   26.9744 C   0  0  0  0  0  0  0  0  0  0  0  0
    9.2443  -16.0315   25.6485 C   0  0  0  0  0  0  0  0  0  0  0  0
   10.4628  -16.1536   24.7378 C   0  0  2  0  0  0  0  0  0  0  0  0
    9.9736  -16.8563   23.5604 N   0  0  0  0  0  0  0  0  0  0  0  0
   11.5766  -16.8518   25.3817 C   0  0  0  0  0  0  0  0  0  0  0  0
   11.6210  -18.1079   25.5703 O   0  0  0  0  0  0  0  0  0  0  0  0
    9.5192  -14.1136   27.2077 C   0  0  0  0  0  0  0  0  0  0  0  0
    9.8250  -13.5657   28.4382 C   0  0  0  0  0  0  0  0  0  0  0  0
   12.6710  -16.1301   25.8267 O   0  0  0  0  0  0  0  0  0  0  0  0
  2  1  1  6
  2  3  1  0
  3  4  1  0
  4  8  1  0
  5  6  1  0
  5  4  2  0
  6  7  1  0
  7  8  2  0
  9  2  1  0
  9 10  2  0
 11  9  1  0
 12 11  1  0
 12 13  1  6
 13 14  1  0
 14 15  2  0
 14 18  1  0
 15 16  1  0
 16 17  1  0
 18 17  2  0
 19 12  1  0
 20 19  2  0
 22 23  2  0
 22 21  1  0
 24 23  1  0
 25 24  2  0
 27 26  1  1
 26 25  1  0
 27 28  1  0
 28 19  1  0
 29 27  1  0
 29 33  1  0
 30 29  2  0
 31 25  1  0
 31 32  2  0
 32 22  1  0
M  END
$$$$
