HHY.pdb
     RDKit          3D

 33 35  0  0  1  0  0  0  0  0999 V2000
    7.1964  -17.8994   19.5859 N   0  0  0  0  0  0  0  0  0  0  0  0
    7.8982  -16.6497   19.7419 C   0  0  1  0  0  0  0  0  0  0  0  0
    6.8668  -15.5993   20.1749 C   0  0  0  0  0  0  0  0  0  0  0  0
    7.4500  -14.2494   20.2208 C   0  0  0  0  0  0  0  0  0  0  0  0
    7.6296  -13.3884   19.1737 C   0  0  0  0  0  0  0  0  0  0  0  0
    8.1983  -12.2473   19.6369 N   0  0  0  0  0  0  0  0  0  0  0  0
    8.3689  -12.4011   20.9577 C   0  0  0  0  0  0  0  0  0  0  0  0
    7.9087  -13.6324   21.3169 N   0  0  0  0  0  0  0  0  0  0  0  0
    8.9091  -16.7428   20.8019 C   0  0  0  0  0  0  0  0  0  0  0  0
    8.8670  -17.6796   21.6638 O   0  0  0  0  0  0  0  0  0  0  0  0
    9.9403  -15.7768   20.8612 N   0  0  0  0  0  0  0  0  0  0  0  0
   11.0178  -15.9468   21.7997 C   0  0  1  0  0  0  0  0  0  0  0  0
   12.1415  -14.9614   21.4896 C   0  0  0  0  0  0  0  0  0  0  0  0
   12.7201  -15.2119   20.1550 C   0  0  0  0  0  0  0  0  0  0  0  0
   12.7131  -14.3608   19.0422 C   0  0  0  0  0  0  0  0  0  0  0  0
   13.3463  -14.9707   18.0292 N   0  0  0  0  0  0  0  0  0  0  0  0
   13.7556  -16.1743   18.4518 C   0  0  0  0  0  0  0  0  0  0  0  0
   13.3737  -16.3106   19.7334 N   0  0  0  0  0  0  0  0  0  0  0  0
   10.4749  -15.5991   23.1608 C   0  0  0  0  0  0  0  0  0  0  0  0
   10.4480  -14.4157   23.5779 O   0  0  0  0  0  0  0  0  0  0  0  0
    6.1744  -11.0537   26.2879 O   0  0  0  0  0  0  0  0  0  0  0  0
    6.6743  -12.3267   26.1093 C   0  0  0  0  0  0  0  0  0  0  0  0
    7.7561  -12.7824   26.8440 C   0  0  0  0  0  0  0  0  0  0  0  0
    8.2564  -14.0574   26.6649 C   0  0  0  0  0  0  0  0  0  0  0  0
    7.6475  -14.8686   25.7310 C   0  0  0  0  0  0  0  0  0  0  0  0
    8.1811  -16.2305   25.5285 C   0  0  0  0  0  0  0  0  0  0  0  0
    9.7033  -16.2658   25.4242 C   0  0  2  0  0  0  0  0  0  0  0  0
    9.9694  -16.5973   24.0318 N   0  0  0  0  0  0  0  0  0  0  0  0
   10.3070  -17.2244   26.3512 C   0  0  0  0  0  0  0  0  0  0  0  0
   10.2335  -17.1395   27.6171 O   0  0  0  0  0  0  0  0  0  0  0  0
    6.5738  -14.4060   25.0068 C   0  0  0  0  0  0  0  0  0  0  0  0
    6.0636  -13.1336   25.1758 C   0  0  0  0  0  0  0  0  0  0  0  0
   11.0110  -18.3075   25.8532 O   0  0  0  0  0  0  0  0  0  0  0  0
  2  1  1  1
  2  3  1  0
  3  4  1  0
  4  8  1  0
  5  6  1  0
  5  4  2  0
  6  7  1  0
  7  8  2  0
  9  2  1  0
  9 10  2  0
 11  9  1  0
 12 11  1  0
 12 13  1  6
 13 14  1  0
 14 15  2  0
 14 18  1  0
 15 16  1  0
 16 17  1  0
 18 17  2  0
 19 12  1  0
 20 19  2  0
 22 23  2  0
 22 21  1  0
 24 23  1  0
 25 24  2  0
 27 26  1  6
 26 25  1  0
 27 28  1  0
 28 19  1  0
 29 27  1  0
 29 33  1  0
 30 29  2  0
 31 25  1  0
 31 32  2  0
 32 22  1  0
M  END
$$$$
