HHY.pdb
     RDKit          3D

 33 35  0  0  1  0  0  0  0  0999 V2000
    7.5751  -17.0792   19.7840 N   0  0  0  0  0  0  0  0  0  0  0  0
    8.7966  -16.4119   20.1597 C   0  0  1  0  0  0  0  0  0  0  0  0
    8.4459  -14.9448   20.4413 C   0  0  0  0  0  0  0  0  0  0  0  0
    8.0272  -14.2404   19.2194 C   0  0  0  0  0  0  0  0  0  0  0  0
    7.9052  -14.7637   17.9619 C   0  0  0  0  0  0  0  0  0  0  0  0
    7.4941  -13.7848   17.1176 N   0  0  0  0  0  0  0  0  0  0  0  0
    7.3631  -12.6668   17.8459 C   0  0  0  0  0  0  0  0  0  0  0  0
    7.6910  -12.9469   19.1385 N   0  0  0  0  0  0  0  0  0  0  0  0
    9.3486  -16.9813   21.3948 C   0  0  0  0  0  0  0  0  0  0  0  0
    8.5865  -17.3012   22.3638 O   0  0  0  0  0  0  0  0  0  0  0  0
   10.7454  -17.1746   21.5035 N   0  0  0  0  0  0  0  0  0  0  0  0
   11.2928  -17.7237   22.7157 C   0  0  1  0  0  0  0  0  0  0  0  0
   12.2151  -18.8953   22.3891 C   0  0  0  0  0  0  0  0  0  0  0  0
   11.4532  -20.0475   21.8690 C   0  0  0  0  0  0  0  0  0  0  0  0
   10.6152  -20.9153   22.5814 C   0  0  0  0  0  0  0  0  0  0  0  0
   10.1170  -21.8267   21.7327 N   0  0  0  0  0  0  0  0  0  0  0  0
   10.6034  -21.5743   20.5103 C   0  0  0  0  0  0  0  0  0  0  0  0
   11.4073  -20.5009   20.6024 N   0  0  0  0  0  0  0  0  0  0  0  0
   12.1365  -16.6465   23.3450 C   0  0  0  0  0  0  0  0  0  0  0  0
   12.2410  -15.5060   22.8318 O   0  0  0  0  0  0  0  0  0  0  0  0
    9.6475  -16.2700   30.1454 O   0  0  0  0  0  0  0  0  0  0  0  0
   10.3587  -15.9004   29.0230 C   0  0  0  0  0  0  0  0  0  0  0  0
   11.6416  -15.3884   29.1228 C   0  0  0  0  0  0  0  0  0  0  0  0
   12.3537  -15.0183   27.9985 C   0  0  0  0  0  0  0  0  0  0  0  0
   11.7508  -15.1728   26.7681 C   0  0  0  0  0  0  0  0  0  0  0  0
   12.5028  -14.7726   25.5619 C   0  0  0  0  0  0  0  0  0  0  0  0
   13.5802  -15.7793   25.1689 C   0  0  2  0  0  0  0  0  0  0  0  0
   12.8509  -16.8758   24.5481 N   0  0  0  0  0  0  0  0  0  0  0  0
   14.3814  -16.2187   26.3125 C   0  0  0  0  0  0  0  0  0  0  0  0
   15.1690  -15.4656   26.9664 O   0  0  0  0  0  0  0  0  0  0  0  0
   10.4764  -15.6822   26.6804 C   0  0  0  0  0  0  0  0  0  0  0  0
    9.7533  -16.0561   27.7964 C   0  0  0  0  0  0  0  0  0  0  0  0
   14.3015  -17.5334   26.7391 O   0  0  0  0  0  0  0  0  0  0  0  0
  2  1  1  1
  2  3  1  0
  3  4  1  0
  4  8  1  0
  5  6  1  0
  5  4  2  0
  6  7  1  0
  7  8  2  0
  9  2  1  0
  9 10  2  0
 11  9  1  0
 12 11  1  0
 12 13  1  6
 13 14  1  0
 14 15  2  0
 14 18  1  0
 15 16  1  0
 16 17  1  0
 18 17  2  0
 19 12  1  0
 20 19  2  0
 22 23  2  0
 22 21  1  0
 24 23  1  0
 25 24  2  0
 27 26  1  1
 26 25  1  0
 27 28  1  0
 28 19  1  0
 29 27  1  0
 29 33  1  0
 30 29  2  0
 31 25  1  0
 31 32  2  0
 32 22  1  0
M  END
$$$$
