HHY.pdb
     RDKit          3D

 33 35  0  0  1  0  0  0  0  0999 V2000
   12.3742  -15.2024   17.6656 N   0  0  0  0  0  0  0  0  0  0  0  0
   12.9735  -15.0883   18.9718 C   0  0  1  0  0  0  0  0  0  0  0  0
   14.1332  -14.0903   18.8551 C   0  0  0  0  0  0  0  0  0  0  0  0
   15.0457  -14.4411   17.7556 C   0  0  0  0  0  0  0  0  0  0  0  0
   15.3407  -13.6894   16.6520 C   0  0  0  0  0  0  0  0  0  0  0  0
   16.2252  -14.3705   15.8812 N   0  0  0  0  0  0  0  0  0  0  0  0
   16.4746  -15.5322   16.5023 C   0  0  0  0  0  0  0  0  0  0  0  0
   15.7493  -15.5757   17.6550 N   0  0  0  0  0  0  0  0  0  0  0  0
   12.0169  -14.5457   19.9439 C   0  0  0  0  0  0  0  0  0  0  0  0
   12.2342  -13.4317   20.5217 O   0  0  0  0  0  0  0  0  0  0  0  0
   10.8411  -15.2743   20.2380 N   0  0  0  0  0  0  0  0  0  0  0  0
    9.8772  -14.7249   21.1543 C   0  0  1  0  0  0  0  0  0  0  0  0
    8.4636  -15.0804   20.7016 C   0  0  0  0  0  0  0  0  0  0  0  0
    8.1344  -14.4336   19.4163 C   0  0  0  0  0  0  0  0  0  0  0  0
    7.8239  -13.0868   19.1871 C   0  0  0  0  0  0  0  0  0  0  0  0
    7.5885  -12.9156   17.8777 N   0  0  0  0  0  0  0  0  0  0  0  0
    7.7366  -14.0976   17.2650 C   0  0  0  0  0  0  0  0  0  0  0  0
    8.0653  -15.0059   18.1999 N   0  0  0  0  0  0  0  0  0  0  0  0
   10.1062  -15.3909   22.4856 C   0  0  0  0  0  0  0  0  0  0  0  0
   10.7212  -16.4807   22.5810 O   0  0  0  0  0  0  0  0  0  0  0  0
   10.0256  -16.4181   31.2408 O   0  0  0  0  0  0  0  0  0  0  0  0
    9.8896  -15.9394   29.9544 C   0  0  0  0  0  0  0  0  0  0  0  0
    9.0193  -16.5335   29.0559 C   0  0  0  0  0  0  0  0  0  0  0  0
    8.8834  -16.0538   27.7677 C   0  0  0  0  0  0  0  0  0  0  0  0
    9.6406  -14.9625   27.3980 C   0  0  0  0  0  0  0  0  0  0  0  0
    9.5063  -14.4482   26.0203 C   0  0  0  0  0  0  0  0  0  0  0  0
    9.9337  -15.4603   24.9611 C   0  0  2  0  0  0  0  0  0  0  0  0
    9.6350  -14.8132   23.6916 N   0  0  0  0  0  0  0  0  0  0  0  0
    9.2501  -16.7466   25.1062 C   0  0  0  0  0  0  0  0  0  0  0  0
    8.1015  -17.0048   24.6274 O   0  0  0  0  0  0  0  0  0  0  0  0
   10.5018  -14.3801   28.2983 C   0  0  0  0  0  0  0  0  0  0  0  0
   10.6474  -14.8496   29.5891 C   0  0  0  0  0  0  0  0  0  0  0  0
    9.8643  -17.7730   25.8033 O   0  0  0  0  0  0  0  0  0  0  0  0
  2  1  1  6
  2  3  1  0
  3  4  1  0
  4  8  1  0
  5  6  1  0
  5  4  2  0
  6  7  1  0
  7  8  2  0
  9  2  1  0
  9 10  2  0
 11  9  1  0
 12 11  1  0
 12 13  1  6
 13 14  1  0
 14 15  2  0
 14 18  1  0
 15 16  1  0
 16 17  1  0
 18 17  2  0
 19 12  1  0
 20 19  2  0
 22 23  2  0
 22 21  1  0
 24 23  1  0
 25 24  2  0
 27 26  1  1
 26 25  1  0
 27 28  1  0
 28 19  1  0
 29 27  1  0
 29 33  1  0
 30 29  2  0
 31 25  1  0
 31 32  2  0
 32 22  1  0
M  END
$$$$
