HHY.pdb
     RDKit          3D

 33 35  0  0  1  0  0  0  0  0999 V2000
    6.6553  -17.2464   18.3064 N   0  0  0  0  0  0  0  0  0  0  0  0
    7.6070  -16.6808   19.2300 C   0  0  1  0  0  0  0  0  0  0  0  0
    7.6276  -15.1651   18.9913 C   0  0  0  0  0  0  0  0  0  0  0  0
    8.1642  -14.8297   17.6631 C   0  0  0  0  0  0  0  0  0  0  0  0
    8.6811  -15.6923   16.7364 C   0  0  0  0  0  0  0  0  0  0  0  0
    9.0658  -14.9844   15.6451 N   0  0  0  0  0  0  0  0  0  0  0  0
    8.7895  -13.6964   15.8945 C   0  0  0  0  0  0  0  0  0  0  0  0
    8.2350  -13.6012   17.1355 N   0  0  0  0  0  0  0  0  0  0  0  0
    7.1897  -16.9059   20.6190 C   0  0  0  0  0  0  0  0  0  0  0  0
    6.1206  -16.3827   21.0725 O   0  0  0  0  0  0  0  0  0  0  0  0
    7.9894  -17.7150   21.4591 N   0  0  0  0  0  0  0  0  0  0  0  0
    7.6176  -17.8896   22.8382 C   0  0  1  0  0  0  0  0  0  0  0  0
    7.5955  -19.3748   23.1897 C   0  0  0  0  0  0  0  0  0  0  0  0
    7.3375  -19.5806   24.6284 C   0  0  0  0  0  0  0  0  0  0  0  0
    7.0941  -18.6065   25.6054 C   0  0  0  0  0  0  0  0  0  0  0  0
    6.9093  -19.2166   26.7857 N   0  0  0  0  0  0  0  0  0  0  0  0
    7.0253  -20.5381   26.5995 C   0  0  0  0  0  0  0  0  0  0  0  0
    7.2832  -20.7477   25.2970 N   0  0  0  0  0  0  0  0  0  0  0  0
    8.6953  -17.2447   23.6695 C   0  0  0  0  0  0  0  0  0  0  0  0
    9.9070  -17.3178   23.3509 O   0  0  0  0  0  0  0  0  0  0  0  0
    4.9350  -11.9730   27.7768 O   0  0  0  0  0  0  0  0  0  0  0  0
    6.0204  -12.5699   27.1703 C   0  0  0  0  0  0  0  0  0  0  0  0
    7.2561  -12.6148   27.7941 C   0  0  0  0  0  0  0  0  0  0  0  0
    8.3430  -13.2127   27.1864 C   0  0  0  0  0  0  0  0  0  0  0  0
    8.1646  -13.7664   25.9363 C   0  0  0  0  0  0  0  0  0  0  0  0
    9.3235  -14.4010   25.2769 C   0  0  0  0  0  0  0  0  0  0  0  0
    9.4563  -15.8860   25.6028 C   0  0  2  0  0  0  0  0  0  0  0  0
    8.3856  -16.5251   24.8514 N   0  0  0  0  0  0  0  0  0  0  0  0
    9.3679  -16.1553   27.0389 C   0  0  0  0  0  0  0  0  0  0  0  0
   10.2141  -15.7507   27.8965 O   0  0  0  0  0  0  0  0  0  0  0  0
    6.9332  -13.7163   25.3259 C   0  0  0  0  0  0  0  0  0  0  0  0
    5.8383  -13.1216   25.9222 C   0  0  0  0  0  0  0  0  0  0  0  0
    8.3067  -16.8951   27.5323 O   0  0  0  0  0  0  0  0  0  0  0  0
  2  1  1  6
  2  3  1  0
  3  4  1  0
  4  8  1  0
  5  6  1  0
  5  4  2  0
  6  7  1  0
  7  8  2  0
  9  2  1  0
  9 10  2  0
 11  9  1  0
 12 11  1  0
 12 13  1  1
 13 14  1  0
 14 15  2  0
 14 18  1  0
 15 16  1  0
 16 17  1  0
 18 17  2  0
 19 12  1  0
 20 19  2  0
 22 23  2  0
 22 21  1  0
 24 23  1  0
 25 24  2  0
 27 26  1  1
 26 25  1  0
 27 28  1  0
 28 19  1  0
 29 27  1  0
 29 33  1  0
 30 29  2  0
 31 25  1  0
 31 32  2  0
 32 22  1  0
M  END
$$$$
