HHY.pdb
     RDKit          3D

 33 35  0  0  1  0  0  0  0  0999 V2000
   12.1562  -19.1506   17.1703 N   0  0  0  0  0  0  0  0  0  0  0  0
   11.4213  -19.4020   18.3849 C   0  0  1  0  0  0  0  0  0  0  0  0
   12.3168  -20.2588   19.2897 C   0  0  0  0  0  0  0  0  0  0  0  0
   12.4058  -21.6473   18.8112 C   0  0  0  0  0  0  0  0  0  0  0  0
   11.5879  -22.6919   19.1427 C   0  0  0  0  0  0  0  0  0  0  0  0
   12.0079  -23.8027   18.4871 N   0  0  0  0  0  0  0  0  0  0  0  0
   13.0753  -23.4485   17.7573 C   0  0  0  0  0  0  0  0  0  0  0  0
   13.3200  -22.1229   17.9565 N   0  0  0  0  0  0  0  0  0  0  0  0
   11.1385  -18.1503   19.0973 C   0  0  0  0  0  0  0  0  0  0  0  0
   12.0498  -17.2775   19.2707 O   0  0  0  0  0  0  0  0  0  0  0  0
    9.8354  -17.9167   19.5948 N   0  0  0  0  0  0  0  0  0  0  0  0
    9.5101  -16.6315   20.1543 C   0  0  1  0  0  0  0  0  0  0  0  0
    8.1200  -16.1985   19.6959 C   0  0  0  0  0  0  0  0  0  0  0  0
    7.7674  -14.8710   20.2364 C   0  0  0  0  0  0  0  0  0  0  0  0
    6.7526  -14.5574   21.1499 C   0  0  0  0  0  0  0  0  0  0  0  0
    6.7705  -13.2356   21.3770 N   0  0  0  0  0  0  0  0  0  0  0  0
    7.7547  -12.6958   20.6458 C   0  0  0  0  0  0  0  0  0  0  0  0
    8.3495  -13.6886   19.9620 N   0  0  0  0  0  0  0  0  0  0  0  0
    9.4597  -16.8025   21.6497 C   0  0  0  0  0  0  0  0  0  0  0  0
    8.9942  -17.8405   22.1798 O   0  0  0  0  0  0  0  0  0  0  0  0
    9.7576  -14.4160   30.1336 O   0  0  0  0  0  0  0  0  0  0  0  0
    9.8138  -14.4582   28.7562 C   0  0  0  0  0  0  0  0  0  0  0  0
   10.7897  -15.1893   28.0998 C   0  0  0  0  0  0  0  0  0  0  0  0
   10.8457  -15.2314   26.7203 C   0  0  0  0  0  0  0  0  0  0  0  0
    9.8997  -14.5228   26.0102 C   0  0  0  0  0  0  0  0  0  0  0  0
    9.9573  -14.5568   24.5351 C   0  0  0  0  0  0  0  0  0  0  0  0
    9.7796  -15.9604   23.9630 C   0  0  2  0  0  0  0  0  0  0  0  0
    9.9375  -15.7947   22.5252 N   0  0  0  0  0  0  0  0  0  0  0  0
    8.4886  -16.5517   24.3182 C   0  0  0  0  0  0  0  0  0  0  0  0
    7.4034  -16.3286   23.6953 O   0  0  0  0  0  0  0  0  0  0  0  0
    8.9349  -13.7999   26.6721 C   0  0  0  0  0  0  0  0  0  0  0  0
    8.8675  -13.7493   28.0508 C   0  0  0  0  0  0  0  0  0  0  0  0
    8.4053  -17.4158   25.3967 O   0  0  0  0  0  0  0  0  0  0  0  0
  2  1  1  6
  2  3  1  0
  3  4  1  0
  4  8  1  0
  5  6  1  0
  5  4  2  0
  6  7  1  0
  7  8  2  0
  9  2  1  0
  9 10  2  0
 11  9  1  0
 12 11  1  0
 12 13  1  6
 13 14  1  0
 14 15  2  0
 14 18  1  0
 15 16  1  0
 16 17  1  0
 18 17  2  0
 19 12  1  0
 20 19  2  0
 22 23  2  0
 22 21  1  0
 24 23  1  0
 25 24  2  0
 27 26  1  1
 26 25  1  0
 27 28  1  0
 28 19  1  0
 29 27  1  0
 29 33  1  0
 30 29  2  0
 31 25  1  0
 31 32  2  0
 32 22  1  0
M  END
$$$$
