QWR.pdb
     RDKit          3D

 35 36  0  0  1  0  0  0  0  0999 V2000
    8.9125  -13.3752   17.3702 N   0  0  0  0  0  0  0  0  0  0  0  0
    8.0035  -14.4446   17.2215 C   0  0  0  0  0  0  0  0  0  0  0  0
    7.5282  -14.7909   16.1262 O   0  0  0  0  0  0  0  0  0  0  0  0
    7.5960  -15.1943   18.4420 C   0  0  0  0  0  0  0  0  0  0  0  0
    8.2623  -14.5918   19.6566 C   0  0  0  0  0  0  0  0  0  0  0  0
    9.0241  -15.6942   20.3686 C   0  0  2  0  0  0  0  0  0  0  0  0
    8.2431  -16.9063   20.2730 N   0  0  0  0  0  0  0  0  0  0  0  0
    9.2491  -15.3141   21.8051 C   0  0  0  0  0  0  0  0  0  0  0  0
    9.7480  -14.1855   22.0933 O   0  0  0  0  0  0  0  0  0  0  0  0
    8.9120  -16.2015   22.8591 N   0  0  0  0  0  0  0  0  0  0  0  0
    9.1791  -15.8196   24.2709 C   0  0  1  0  0  0  0  0  0  0  0  0
    8.0033  -16.0995   25.0923 C   0  0  0  0  0  0  0  0  0  0  0  0
    7.0596  -15.0622   25.4284 C   0  0  0  0  0  0  0  0  0  0  0  0
    5.6890  -15.0982   25.3527 C   0  0  0  0  0  0  0  0  0  0  0  0
    5.1874  -13.9193   25.7341 N   0  0  0  0  0  0  0  0  0  0  0  0
    6.1953  -13.0949   26.0646 C   0  0  0  0  0  0  0  0  0  0  0  0
    6.1699  -11.7821   26.5388 C   0  0  0  0  0  0  0  0  0  0  0  0
    7.3458  -11.1318   26.8429 C   0  0  0  0  0  0  0  0  0  0  0  0
    8.5268  -11.8139   26.6640 C   0  0  0  0  0  0  0  0  0  0  0  0
    8.5443  -13.1205   26.1902 C   0  0  0  0  0  0  0  0  0  0  0  0
    7.3657  -13.7739   25.8852 C   0  0  0  0  0  0  0  0  0  0  0  0
   10.5042  -16.2195   24.6278 C   0  0  0  0  0  0  0  0  0  0  0  0
   11.4172  -15.3907   24.9078 O   0  0  0  0  0  0  0  0  0  0  0  0
   10.5962  -22.0041   30.2320 N   0  0  0  0  0  0  0  0  0  0  0  0
   10.6328  -20.6414   30.6188 C   0  0  0  0  0  0  0  0  0  0  0  0
   10.5273  -20.3480   31.8909 N   0  0  0  0  0  0  0  0  0  0  0  0
   10.7798  -19.6302   29.6348 N   0  0  0  0  0  0  0  0  0  0  0  0
   11.2231  -19.9453   28.3116 C   0  0  0  0  0  0  0  0  0  0  0  0
   11.4005  -18.7379   27.4280 C   0  0  0  0  0  0  0  0  0  0  0  0
   11.9678  -19.1624   26.1139 C   0  0  0  0  0  0  0  0  0  0  0  0
   12.2002  -17.9696   25.1833 C   0  0  2  0  0  0  0  0  0  0  0  0
   10.8782  -17.5928   24.7019 N   0  0  0  0  0  0  0  0  0  0  0  0
   13.1874  -18.2566   24.1605 C   0  0  0  0  0  0  0  0  0  0  0  0
   14.5472  -18.4217   24.3460 O   0  0  0  0  0  0  0  0  0  0  0  0
   12.8262  -18.3804   22.9372 O   0  0  0  0  0  0  0  0  0  0  0  0
  2  1  1  0
  2  3  2  0
  4  5  1  0
  4  2  1  0
  5  6  1  0
  6  8  1  0
  6  7  1  1
  8 10  1  0
  8  9  2  0
 10 11  1  0
 11 22  1  0
 11 12  1  1
 13 14  2  0
 13 12  1  0
 15 14  1  0
 16 21  2  0
 16 15  1  0
 17 16  1  0
 18 19  1  0
 18 17  2  0
 19 20  2  0
 20 21  1  0
 21 13  1  0
 22 23  2  0
 22 32  1  0
 24 25  1  0
 25 27  1  0
 26 25  2  0
 27 28  1  0
 28 29  1  0
 31 30  1  1
 30 29  1  0
 31 33  1  0
 32 31  1  0
 33 34  1  0
 35 33  2  0
M  END
$$$$
