QWR.pdb
     RDKit          3D

 35 36  0  0  1  0  0  0  0  0999 V2000
    8.4121  -17.0045   15.2665 N   0  0  0  0  0  0  0  0  0  0  0  0
    7.1531  -17.5230   15.6384 C   0  0  0  0  0  0  0  0  0  0  0  0
    6.1914  -17.6110   14.8555 O   0  0  0  0  0  0  0  0  0  0  0  0
    6.9722  -17.9879   17.0415 C   0  0  0  0  0  0  0  0  0  0  0  0
    8.2849  -17.8933   17.7832 C   0  0  0  0  0  0  0  0  0  0  0  0
    8.0494  -18.3455   19.2124 C   0  0  2  0  0  0  0  0  0  0  0  0
    6.6280  -18.5364   19.3888 N   0  0  0  0  0  0  0  0  0  0  0  0
    8.5734  -17.3111   20.1684 C   0  0  0  0  0  0  0  0  0  0  0  0
    9.7871  -16.9509   20.1127 O   0  0  0  0  0  0  0  0  0  0  0  0
    7.7298  -16.7215   21.1445 N   0  0  0  0  0  0  0  0  0  0  0  0
    8.2974  -15.7990   22.1629 C   0  0  1  0  0  0  0  0  0  0  0  0
    7.2833  -14.8317   22.5772 C   0  0  0  0  0  0  0  0  0  0  0  0
    7.6207  -13.7002   23.4050 C   0  0  0  0  0  0  0  0  0  0  0  0
    8.4078  -12.6192   23.0931 C   0  0  0  0  0  0  0  0  0  0  0  0
    8.4886  -11.8034   24.1491 N   0  0  0  0  0  0  0  0  0  0  0  0
    7.7703  -12.3167   25.1616 C   0  0  0  0  0  0  0  0  0  0  0  0
    7.5356  -11.8203   26.4451 C   0  0  0  0  0  0  0  0  0  0  0  0
    6.7303  -12.5152   27.3208 C   0  0  0  0  0  0  0  0  0  0  0  0
    6.1755  -13.6977   26.8896 C   0  0  0  0  0  0  0  0  0  0  0  0
    6.4147  -14.1862   25.6106 C   0  0  0  0  0  0  0  0  0  0  0  0
    7.2219  -13.4902   24.7312 C   0  0  0  0  0  0  0  0  0  0  0  0
    9.1000  -16.5433   23.0821 C   0  0  0  0  0  0  0  0  0  0  0  0
    8.7483  -17.6668   23.5437 O   0  0  0  0  0  0  0  0  0  0  0  0
   16.7438  -15.3974   22.9818 N   0  0  0  0  0  0  0  0  0  0  0  0
   16.9734  -16.1781   24.1419 C   0  0  0  0  0  0  0  0  0  0  0  0
   18.0459  -15.9406   24.8550 N   0  0  0  0  0  0  0  0  0  0  0  0
   16.0506  -17.1921   24.5066 N   0  0  0  0  0  0  0  0  0  0  0  0
   14.9532  -17.5339   23.6547 C   0  0  0  0  0  0  0  0  0  0  0  0
   13.6352  -17.6391   24.3769 C   0  0  0  0  0  0  0  0  0  0  0  0
   12.6293  -16.7633   23.7062 C   0  0  0  0  0  0  0  0  0  0  0  0
   11.2370  -16.9216   24.3223 C   0  0  2  0  0  0  0  0  0  0  0  0
   10.3653  -16.0644   23.5305 N   0  0  0  0  0  0  0  0  0  0  0  0
   11.2387  -16.6744   25.7512 C   0  0  0  0  0  0  0  0  0  0  0  0
   10.6116  -15.6347   26.4119 O   0  0  0  0  0  0  0  0  0  0  0  0
   11.8704  -17.4643   26.5380 O   0  0  0  0  0  0  0  0  0  0  0  0
  2  1  1  0
  2  3  2  0
  4  5  1  0
  4  2  1  0
  5  6  1  0
  6  8  1  0
  6  7  1  6
  8 10  1  0
  8  9  2  0
 10 11  1  0
 11 22  1  0
 11 12  1  1
 13 14  2  0
 13 12  1  0
 15 14  1  0
 16 21  2  0
 16 15  1  0
 17 16  1  0
 18 19  1  0
 18 17  2  0
 19 20  2  0
 20 21  1  0
 21 13  1  0
 22 23  2  0
 22 32  1  0
 24 25  1  0
 25 27  1  0
 26 25  2  0
 27 28  1  0
 28 29  1  0
 31 30  1  6
 30 29  1  0
 31 33  1  0
 32 31  1  0
 33 34  1  0
 35 33  2  0
M  END
$$$$
