QWR.pdb
     RDKit          3D

 35 36  0  0  1  0  0  0  0  0999 V2000
    8.4984  -12.2657   18.0530 N   0  0  0  0  0  0  0  0  0  0  0  0
    7.7213  -13.2998   17.4883 C   0  0  0  0  0  0  0  0  0  0  0  0
    7.2362  -13.2444   16.3450 O   0  0  0  0  0  0  0  0  0  0  0  0
    7.4726  -14.5182   18.3075 C   0  0  0  0  0  0  0  0  0  0  0  0
    8.1217  -14.3625   19.6628 C   0  0  0  0  0  0  0  0  0  0  0  0
    8.4097  -15.7495   20.2067 C   0  0  2  0  0  0  0  0  0  0  0  0
    7.1637  -16.4807   20.2397 N   0  0  0  0  0  0  0  0  0  0  0  0
    9.0059  -15.6452   21.5823 C   0  0  0  0  0  0  0  0  0  0  0  0
    9.9960  -14.8820   21.7897 O   0  0  0  0  0  0  0  0  0  0  0  0
    8.4793  -16.3916   22.6675 N   0  0  0  0  0  0  0  0  0  0  0  0
    9.1846  -16.4053   23.9762 C   0  0  1  0  0  0  0  0  0  0  0  0
    8.2164  -16.5534   25.0608 C   0  0  0  0  0  0  0  0  0  0  0  0
    7.2881  -15.4990   25.3859 C   0  0  0  0  0  0  0  0  0  0  0  0
    5.9155  -15.5354   25.3699 C   0  0  0  0  0  0  0  0  0  0  0  0
    5.4308  -14.3383   25.7149 N   0  0  0  0  0  0  0  0  0  0  0  0
    6.4520  -13.5013   25.9624 C   0  0  0  0  0  0  0  0  0  0  0  0
    6.4470  -12.1671   26.3735 C   0  0  0  0  0  0  0  0  0  0  0  0
    7.6349  -11.5058   26.5961 C   0  0  0  0  0  0  0  0  0  0  0  0
    8.8071  -12.1984   26.4007 C   0  0  0  0  0  0  0  0  0  0  0  0
    8.8042  -13.5263   25.9901 C   0  0  0  0  0  0  0  0  0  0  0  0
    7.6136  -14.1909   25.7668 C   0  0  0  0  0  0  0  0  0  0  0  0
   10.3728  -17.1922   23.8663 C   0  0  0  0  0  0  0  0  0  0  0  0
   10.4894  -18.1444   23.0425 O   0  0  0  0  0  0  0  0  0  0  0  0
   14.6315  -13.8350   18.6760 N   0  0  0  0  0  0  0  0  0  0  0  0
   15.6462  -14.7338   19.0889 C   0  0  0  0  0  0  0  0  0  0  0  0
   16.7344  -14.8255   18.3660 N   0  0  0  0  0  0  0  0  0  0  0  0
   15.4687  -15.5107   20.2626 N   0  0  0  0  0  0  0  0  0  0  0  0
   14.2757  -15.4053   21.0453 C   0  0  0  0  0  0  0  0  0  0  0  0
   14.2939  -16.2476   22.2944 C   0  0  0  0  0  0  0  0  0  0  0  0
   12.9778  -16.1338   22.9900 C   0  0  0  0  0  0  0  0  0  0  0  0
   12.8563  -17.1329   24.1433 C   0  0  2  0  0  0  0  0  0  0  0  0
   11.5159  -16.9412   24.6799 N   0  0  0  0  0  0  0  0  0  0  0  0
   13.9426  -17.0056   25.0954 C   0  0  0  0  0  0  0  0  0  0  0  0
   14.5351  -15.8321   25.5231 O   0  0  0  0  0  0  0  0  0  0  0  0
   14.4520  -18.0524   25.6311 O   0  0  0  0  0  0  0  0  0  0  0  0
  2  1  1  0
  2  3  2  0
  4  5  1  0
  4  2  1  0
  5  6  1  0
  6  8  1  0
  6  7  1  1
  8 10  1  0
  8  9  2  0
 10 11  1  0
 11 22  1  0
 11 12  1  1
 13 14  2  0
 13 12  1  0
 15 14  1  0
 16 21  2  0
 16 15  1  0
 17 16  1  0
 18 19  1  0
 18 17  2  0
 19 20  2  0
 20 21  1  0
 21 13  1  0
 22 23  2  0
 22 32  1  0
 24 25  1  0
 25 27  1  0
 26 25  2  0
 27 28  1  0
 28 29  1  0
 31 30  1  6
 30 29  1  0
 31 33  1  0
 32 31  1  0
 33 34  1  0
 35 33  2  0
M  END
$$$$
