QWR.pdb
     RDKit          3D

 35 36  0  0  1  0  0  0  0  0999 V2000
   11.5678  -15.7588   12.1994 N   0  0  0  0  0  0  0  0  0  0  0  0
   10.3605  -16.4900   12.1891 C   0  0  0  0  0  0  0  0  0  0  0  0
    9.7823  -16.8408   11.1460 O   0  0  0  0  0  0  0  0  0  0  0  0
    9.7519  -16.8582   13.4974 C   0  0  0  0  0  0  0  0  0  0  0  0
   10.5601  -16.2565   14.6231 C   0  0  0  0  0  0  0  0  0  0  0  0
   10.6310  -17.2750   15.7457 C   0  0  2  0  0  0  0  0  0  0  0  0
    9.2904  -17.4795   16.2446 N   0  0  0  0  0  0  0  0  0  0  0  0
   11.5368  -16.7728   16.8347 C   0  0  0  0  0  0  0  0  0  0  0  0
   12.7815  -16.6604   16.6248 O   0  0  0  0  0  0  0  0  0  0  0  0
   11.0237  -16.4176   18.1085 N   0  0  0  0  0  0  0  0  0  0  0  0
   11.9231  -15.8368   19.1402 C   0  0  1  0  0  0  0  0  0  0  0  0
   11.3687  -14.5765   19.6300 C   0  0  0  0  0  0  0  0  0  0  0  0
   10.1307  -14.5391   20.3684 C   0  0  0  0  0  0  0  0  0  0  0  0
    9.7248  -15.3546   21.3959 C   0  0  0  0  0  0  0  0  0  0  0  0
    8.4974  -15.0018   21.7908 N   0  0  0  0  0  0  0  0  0  0  0  0
    8.0738  -13.9655   21.0484 C   0  0  0  0  0  0  0  0  0  0  0  0
    6.8803  -13.2433   21.1032 C   0  0  0  0  0  0  0  0  0  0  0  0
    6.6709  -12.1841   20.2473 C   0  0  0  0  0  0  0  0  0  0  0  0
    7.6660  -11.8705   19.3511 C   0  0  0  0  0  0  0  0  0  0  0  0
    8.8512  -12.5949   19.3016 C   0  0  0  0  0  0  0  0  0  0  0  0
    9.0627  -13.6571   20.1595 C   0  0  0  0  0  0  0  0  0  0  0  0
   12.3946  -16.8779   19.9986 C   0  0  0  0  0  0  0  0  0  0  0  0
   11.7873  -17.9783   20.1372 O   0  0  0  0  0  0  0  0  0  0  0  0
   20.3962  -18.5006   23.2755 N   0  0  0  0  0  0  0  0  0  0  0  0
   19.6300  -19.6168   23.6939 C   0  0  0  0  0  0  0  0  0  0  0  0
   20.2478  -20.6261   24.2551 N   0  0  0  0  0  0  0  0  0  0  0  0
   18.2248  -19.6236   23.4992 N   0  0  0  0  0  0  0  0  0  0  0  0
   17.5800  -18.6027   22.7321 C   0  0  0  0  0  0  0  0  0  0  0  0
   16.0791  -18.7292   22.6948 C   0  0  0  0  0  0  0  0  0  0  0  0
   15.5130  -17.6736   21.8037 C   0  0  0  0  0  0  0  0  0  0  0  0
   13.9887  -17.7711   21.7042 C   0  0  2  0  0  0  0  0  0  0  0  0
   13.5979  -16.7421   20.7503 N   0  0  0  0  0  0  0  0  0  0  0  0
   13.3493  -17.7039   23.0040 C   0  0  0  0  0  0  0  0  0  0  0  0
   12.6226  -16.6449   23.5151 O   0  0  0  0  0  0  0  0  0  0  0  0
   13.4306  -18.6962   23.8109 O   0  0  0  0  0  0  0  0  0  0  0  0
  2  1  1  0
  2  3  2  0
  4  5  1  0
  4  2  1  0
  5  6  1  0
  6  8  1  0
  6  7  1  1
  8 10  1  0
  8  9  2  0
 10 11  1  0
 11 22  1  0
 11 12  1  1
 13 14  2  0
 13 12  1  0
 15 14  1  0
 16 21  2  0
 16 15  1  0
 17 16  1  0
 18 19  1  0
 18 17  2  0
 19 20  2  0
 20 21  1  0
 21 13  1  0
 22 23  2  0
 22 32  1  0
 24 25  1  0
 25 27  1  0
 26 25  2  0
 27 28  1  0
 28 29  1  0
 31 30  1  1
 30 29  1  0
 31 33  1  0
 32 31  1  0
 33 34  1  0
 35 33  2  0
M  END
$$$$
