QWR.pdb
     RDKit          3D

 35 36  0  0  1  0  0  0  0  0999 V2000
    7.0465  -19.7858   18.7888 N   0  0  0  0  0  0  0  0  0  0  0  0
    7.8083  -18.6479   18.4467 C   0  0  0  0  0  0  0  0  0  0  0  0
    8.6565  -18.6407   17.5378 O   0  0  0  0  0  0  0  0  0  0  0  0
    7.5809  -17.3936   19.2165 C   0  0  0  0  0  0  0  0  0  0  0  0
    6.4711  -17.6051   20.2195 C   0  0  0  0  0  0  0  0  0  0  0  0
    6.2370  -16.2922   20.9434 C   0  0  2  0  0  0  0  0  0  0  0  0
    6.2560  -15.2337   19.9599 N   0  0  0  0  0  0  0  0  0  0  0  0
    7.3069  -16.0813   21.9777 C   0  0  0  0  0  0  0  0  0  0  0  0
    8.3209  -15.3710   21.7075 O   0  0  0  0  0  0  0  0  0  0  0  0
    7.2064  -16.6672   23.2656 N   0  0  0  0  0  0  0  0  0  0  0  0
    8.2334  -16.3761   24.3004 C   0  0  1  0  0  0  0  0  0  0  0  0
    7.5851  -16.1100   25.5828 C   0  0  0  0  0  0  0  0  0  0  0  0
    7.0309  -14.8142   25.8878 C   0  0  0  0  0  0  0  0  0  0  0  0
    5.7401  -14.4980   26.2335 C   0  0  0  0  0  0  0  0  0  0  0  0
    5.6339  -13.1773   26.4109 N   0  0  0  0  0  0  0  0  0  0  0  0
    6.8284  -12.6031   26.1916 C   0  0  0  0  0  0  0  0  0  0  0  0
    7.2166  -11.2649   26.2769 C   0  0  0  0  0  0  0  0  0  0  0  0
    8.5236  -10.9050   26.0311 C   0  0  0  0  0  0  0  0  0  0  0  0
    9.4170  -11.8982   25.7033 C   0  0  0  0  0  0  0  0  0  0  0  0
    9.0229  -13.2284   25.6191 C   0  0  0  0  0  0  0  0  0  0  0  0
    7.7125  -13.5907   25.8657 C   0  0  0  0  0  0  0  0  0  0  0  0
    9.3328  -17.2762   24.1438 C   0  0  0  0  0  0  0  0  0  0  0  0
    9.1961  -18.5331   24.1614 O   0  0  0  0  0  0  0  0  0  0  0  0
   13.2522  -20.9373   20.2879 N   0  0  0  0  0  0  0  0  0  0  0  0
   14.5427  -20.4605   20.6275 C   0  0  0  0  0  0  0  0  0  0  0  0
   15.4604  -21.3284   20.9739 N   0  0  0  0  0  0  0  0  0  0  0  0
   14.8159  -19.0690   20.5884 N   0  0  0  0  0  0  0  0  0  0  0  0
   13.8809  -18.1174   21.1051 C   0  0  0  0  0  0  0  0  0  0  0  0
   13.9211  -17.9809   22.6050 C   0  0  0  0  0  0  0  0  0  0  0  0
   12.8513  -17.0382   23.0474 C   0  0  0  0  0  0  0  0  0  0  0  0
   11.7719  -17.7482   23.8682 C   0  0  2  0  0  0  0  0  0  0  0  0
   10.6635  -16.8062   23.9444 N   0  0  0  0  0  0  0  0  0  0  0  0
   12.2786  -18.2323   25.1377 C   0  0  0  0  0  0  0  0  0  0  0  0
   12.9876  -19.3989   25.3552 O   0  0  0  0  0  0  0  0  0  0  0  0
   12.0804  -17.5554   26.2076 O   0  0  0  0  0  0  0  0  0  0  0  0
  2  1  1  0
  2  3  2  0
  4  5  1  0
  4  2  1  0
  5  6  1  0
  6  8  1  0
  6  7  1  6
  8 10  1  0
  8  9  2  0
 10 11  1  0
 11 22  1  0
 11 12  1  1
 13 14  2  0
 13 12  1  0
 15 14  1  0
 16 21  2  0
 16 15  1  0
 17 16  1  0
 18 19  1  0
 18 17  2  0
 19 20  2  0
 20 21  1  0
 21 13  1  0
 22 23  2  0
 22 32  1  0
 24 25  1  0
 25 27  1  0
 26 25  2  0
 27 28  1  0
 28 29  1  0
 31 30  1  1
 30 29  1  0
 31 33  1  0
 32 31  1  0
 33 34  1  0
 35 33  2  0
M  END
$$$$
