QWR.pdb
     RDKit          3D

 35 36  0  0  1  0  0  0  0  0999 V2000
    7.3020  -13.6498   17.9966 N   0  0  0  0  0  0  0  0  0  0  0  0
    8.5101  -13.2594   18.6132 C   0  0  0  0  0  0  0  0  0  0  0  0
    8.9605  -12.1018   18.5633 O   0  0  0  0  0  0  0  0  0  0  0  0
    9.2815  -14.2905   19.3612 C   0  0  0  0  0  0  0  0  0  0  0  0
    8.4596  -15.5521   19.4848 C   0  0  0  0  0  0  0  0  0  0  0  0
    9.2754  -16.5688   20.2613 C   0  0  2  0  0  0  0  0  0  0  0  0
    8.7114  -17.8753   20.0102 N   0  0  0  0  0  0  0  0  0  0  0  0
    9.2372  -16.2419   21.7277 C   0  0  0  0  0  0  0  0  0  0  0  0
    9.9515  -15.3020   22.1882 O   0  0  0  0  0  0  0  0  0  0  0  0
    8.4096  -16.9712   22.6195 N   0  0  0  0  0  0  0  0  0  0  0  0
    8.5177  -16.7526   24.0861 C   0  0  1  0  0  0  0  0  0  0  0  0
    7.2661  -16.2000   24.5996 C   0  0  0  0  0  0  0  0  0  0  0  0
    6.9142  -14.8178   24.3873 C   0  0  0  0  0  0  0  0  0  0  0  0
    6.5670  -14.1962   23.2132 C   0  0  0  0  0  0  0  0  0  0  0  0
    6.3378  -12.8993   23.4428 N   0  0  0  0  0  0  0  0  0  0  0  0
    6.5241  -12.6406   24.7477 C   0  0  0  0  0  0  0  0  0  0  0  0
    6.3822  -11.4493   25.4616 C   0  0  0  0  0  0  0  0  0  0  0  0
    6.6026  -11.4253   26.8214 C   0  0  0  0  0  0  0  0  0  0  0  0
    6.9623  -12.6005   27.4390 C   0  0  0  0  0  0  0  0  0  0  0  0
    7.1028  -13.7826   26.7214 C   0  0  0  0  0  0  0  0  0  0  0  0
    6.8818  -13.8082   25.3577 C   0  0  0  0  0  0  0  0  0  0  0  0
    9.1938  -17.8620   24.6823 C   0  0  0  0  0  0  0  0  0  0  0  0
    9.2406  -19.0049   24.1435 O   0  0  0  0  0  0  0  0  0  0  0  0
   16.7023  -16.9176   24.4398 N   0  0  0  0  0  0  0  0  0  0  0  0
   16.0031  -16.2040   23.4349 C   0  0  0  0  0  0  0  0  0  0  0  0
   16.6178  -15.2256   22.8183 N   0  0  0  0  0  0  0  0  0  0  0  0
   14.6657  -16.5554   23.1181 N   0  0  0  0  0  0  0  0  0  0  0  0
   14.0264  -17.6713   23.7448 C   0  0  0  0  0  0  0  0  0  0  0  0
   13.4916  -17.3694   25.1206 C   0  0  0  0  0  0  0  0  0  0  0  0
   12.0111  -17.1905   25.0504 C   0  0  0  0  0  0  0  0  0  0  0  0
   11.2806  -18.1053   26.0365 C   0  0  2  0  0  0  0  0  0  0  0  0
    9.8740  -17.7430   25.9292 N   0  0  0  0  0  0  0  0  0  0  0  0
   11.8501  -18.0411   27.3686 C   0  0  0  0  0  0  0  0  0  0  0  0
   11.7532  -16.9893   28.2603 O   0  0  0  0  0  0  0  0  0  0  0  0
   12.5265  -19.0292   27.8252 O   0  0  0  0  0  0  0  0  0  0  0  0
  2  1  1  0
  2  3  2  0
  4  5  1  0
  4  2  1  0
  5  6  1  0
  6  8  1  0
  6  7  1  1
  8 10  1  0
  8  9  2  0
 10 11  1  0
 11 22  1  0
 11 12  1  1
 13 14  2  0
 13 12  1  0
 15 14  1  0
 16 21  2  0
 16 15  1  0
 17 16  1  0
 18 19  1  0
 18 17  2  0
 19 20  2  0
 20 21  1  0
 21 13  1  0
 22 23  2  0
 22 32  1  0
 24 25  1  0
 25 27  1  0
 26 25  2  0
 27 28  1  0
 28 29  1  0
 31 30  1  6
 30 29  1  0
 31 33  1  0
 32 31  1  0
 33 34  1  0
 35 33  2  0
M  END
$$$$
