QWR.pdb
     RDKit          3D

 35 36  0  0  1  0  0  0  0  0999 V2000
   14.5369  -18.3811   21.5326 N   0  0  0  0  0  0  0  0  0  0  0  0
   13.6902  -18.7782   20.4754 C   0  0  0  0  0  0  0  0  0  0  0  0
   14.0837  -19.4281   19.4914 O   0  0  0  0  0  0  0  0  0  0  0  0
   12.2524  -18.3973   20.5468 C   0  0  0  0  0  0  0  0  0  0  0  0
   11.9892  -17.6374   21.8258 C   0  0  0  0  0  0  0  0  0  0  0  0
   10.5017  -17.3473   21.9010 C   0  0  2  0  0  0  0  0  0  0  0  0
   10.1683  -16.4542   20.8149 N   0  0  0  0  0  0  0  0  0  0  0  0
   10.1692  -16.7243   23.2276 C   0  0  0  0  0  0  0  0  0  0  0  0
   10.7910  -15.6918   23.6187 O   0  0  0  0  0  0  0  0  0  0  0  0
    9.1626  -17.2732   24.0629 N   0  0  0  0  0  0  0  0  0  0  0  0
    8.9084  -16.6910   25.4071 C   0  0  1  0  0  0  0  0  0  0  0  0
    7.5407  -16.1812   25.4772 C   0  0  0  0  0  0  0  0  0  0  0  0
    7.1934  -14.8900   24.9371 C   0  0  0  0  0  0  0  0  0  0  0  0
    6.9612  -14.5470   23.6280 C   0  0  0  0  0  0  0  0  0  0  0  0
    6.6915  -13.2401   23.5476 N   0  0  0  0  0  0  0  0  0  0  0  0
    6.7377  -12.7016   24.7774 C   0  0  0  0  0  0  0  0  0  0  0  0
    6.5060  -11.3911   25.1989 C   0  0  0  0  0  0  0  0  0  0  0  0
    6.5837  -11.0688   26.5362 C   0  0  0  0  0  0  0  0  0  0  0  0
    6.8937  -12.0709   27.4259 C   0  0  0  0  0  0  0  0  0  0  0  0
    7.1244  -13.3733   26.9986 C   0  0  0  0  0  0  0  0  0  0  0  0
    7.0464  -13.6980   25.6579 C   0  0  0  0  0  0  0  0  0  0  0  0
    9.4888  -17.5328   26.4059 C   0  0  0  0  0  0  0  0  0  0  0  0
    9.4171  -17.2774   27.6423 O   0  0  0  0  0  0  0  0  0  0  0  0
   12.3054  -22.3292   22.0571 N   0  0  0  0  0  0  0  0  0  0  0  0
   13.6004  -22.0690   22.5701 C   0  0  0  0  0  0  0  0  0  0  0  0
   14.5945  -21.9413   21.7271 N   0  0  0  0  0  0  0  0  0  0  0  0
   13.7968  -21.9537   23.9704 N   0  0  0  0  0  0  0  0  0  0  0  0
   12.6934  -22.0137   24.8789 C   0  0  0  0  0  0  0  0  0  0  0  0
   12.3237  -20.6793   25.4726 C   0  0  0  0  0  0  0  0  0  0  0  0
   11.1844  -20.8555   26.4213 C   0  0  0  0  0  0  0  0  0  0  0  0
   10.8052  -19.5395   27.1048 C   0  0  2  0  0  0  0  0  0  0  0  0
   10.1816  -18.7311   26.0660 N   0  0  0  0  0  0  0  0  0  0  0  0
   11.9312  -18.9323   27.7878 C   0  0  0  0  0  0  0  0  0  0  0  0
   12.5181  -19.3651   28.9621 O   0  0  0  0  0  0  0  0  0  0  0  0
   12.4838  -17.8819   27.3047 O   0  0  0  0  0  0  0  0  0  0  0  0
  2  1  1  0
  2  3  2  0
  4  5  1  0
  4  2  1  0
  5  6  1  0
  6  8  1  0
  6  7  1  6
  8 10  1  0
  8  9  2  0
 10 11  1  0
 11 22  1  0
 11 12  1  1
 13 14  2  0
 13 12  1  0
 15 14  1  0
 16 21  2  0
 16 15  1  0
 17 16  1  0
 18 19  1  0
 18 17  2  0
 19 20  2  0
 20 21  1  0
 21 13  1  0
 22 23  2  0
 22 32  1  0
 24 25  1  0
 25 27  1  0
 26 25  2  0
 27 28  1  0
 28 29  1  0
 31 30  1  6
 30 29  1  0
 31 33  1  0
 32 31  1  0
 33 34  1  0
 35 33  2  0
M  END
$$$$
