QWR.pdb
     RDKit          3D

 35 36  0  0  1  0  0  0  0  0999 V2000
    9.8777  -14.7975   15.4078 N   0  0  0  0  0  0  0  0  0  0  0  0
    8.7705  -15.6663   15.5147 C   0  0  0  0  0  0  0  0  0  0  0  0
    8.1158  -16.0634   14.5353 O   0  0  0  0  0  0  0  0  0  0  0  0
    8.3698  -16.1290   16.8722 C   0  0  0  0  0  0  0  0  0  0  0  0
    9.3376  -15.5914   17.9003 C   0  0  0  0  0  0  0  0  0  0  0  0
    9.3780  -16.5675   19.0614 C   0  0  2  0  0  0  0  0  0  0  0  0
    8.1100  -17.2592   19.1040 N   0  0  0  0  0  0  0  0  0  0  0  0
    9.6265  -15.8253   20.3443 C   0  0  0  0  0  0  0  0  0  0  0  0
   10.7275  -15.2257   20.5288 O   0  0  0  0  0  0  0  0  0  0  0  0
    8.6442  -15.7804   21.3667 N   0  0  0  0  0  0  0  0  0  0  0  0
    8.9376  -15.0979   22.6545 C   0  0  1  0  0  0  0  0  0  0  0  0
    7.8483  -14.1841   22.9921 C   0  0  0  0  0  0  0  0  0  0  0  0
    7.2461  -14.1874   24.3023 C   0  0  0  0  0  0  0  0  0  0  0  0
    6.6542  -15.2331   24.9669 C   0  0  0  0  0  0  0  0  0  0  0  0
    6.1981  -14.8118   26.1507 N   0  0  0  0  0  0  0  0  0  0  0  0
    6.4737  -13.5047   26.2922 C   0  0  0  0  0  0  0  0  0  0  0  0
    6.2184  -12.6378   27.3562 C   0  0  0  0  0  0  0  0  0  0  0  0
    6.6227  -11.3223   27.2911 C   0  0  0  0  0  0  0  0  0  0  0  0
    7.2764  -10.9021   26.1562 C   0  0  0  0  0  0  0  0  0  0  0  0
    7.5260  -11.7708   25.1003 C   0  0  0  0  0  0  0  0  0  0  0  0
    7.1214  -13.0904   25.1643 C   0  0  0  0  0  0  0  0  0  0  0  0
    9.4905  -16.0409   23.5756 C   0  0  0  0  0  0  0  0  0  0  0  0
    9.8782  -15.7184   24.7352 O   0  0  0  0  0  0  0  0  0  0  0  0
    9.7139  -22.9308   26.1772 N   0  0  0  0  0  0  0  0  0  0  0  0
   10.8684  -23.5501   25.6373 C   0  0  0  0  0  0  0  0  0  0  0  0
   11.4828  -24.4605   26.3507 N   0  0  0  0  0  0  0  0  0  0  0  0
   11.3348  -23.1779   24.3503 N   0  0  0  0  0  0  0  0  0  0  0  0
   10.7323  -22.0989   23.6293 C   0  0  0  0  0  0  0  0  0  0  0  0
   10.7298  -20.7937   24.3819 C   0  0  0  0  0  0  0  0  0  0  0  0
   10.1968  -19.7127   23.5008 C   0  0  0  0  0  0  0  0  0  0  0  0
   10.2287  -18.3479   24.1929 C   0  0  2  0  0  0  0  0  0  0  0  0
    9.6292  -17.4200   23.2436 N   0  0  0  0  0  0  0  0  0  0  0  0
   11.5565  -18.0023   24.6623 C   0  0  0  0  0  0  0  0  0  0  0  0
   12.6345  -17.6185   23.8868 O   0  0  0  0  0  0  0  0  0  0  0  0
   11.8234  -18.0382   25.9151 O   0  0  0  0  0  0  0  0  0  0  0  0
  2  1  1  0
  2  3  2  0
  4  5  1  0
  4  2  1  0
  5  6  1  0
  6  8  1  0
  6  7  1  1
  8 10  1  0
  8  9  2  0
 10 11  1  0
 11 22  1  0
 11 12  1  1
 13 14  2  0
 13 12  1  0
 15 14  1  0
 16 21  2  0
 16 15  1  0
 17 16  1  0
 18 19  1  0
 18 17  2  0
 19 20  2  0
 20 21  1  0
 21 13  1  0
 22 23  2  0
 22 32  1  0
 24 25  1  0
 25 27  1  0
 26 25  2  0
 27 28  1  0
 28 29  1  0
 31 30  1  6
 30 29  1  0
 31 33  1  0
 32 31  1  0
 33 34  1  0
 35 33  2  0
M  END
$$$$
