QWR.pdb
     RDKit          3D

 35 36  0  0  1  0  0  0  0  0999 V2000
   11.1821  -15.2000   15.6214 N   0  0  0  0  0  0  0  0  0  0  0  0
   10.0076  -15.9088   15.2897 C   0  0  0  0  0  0  0  0  0  0  0  0
    9.6936  -16.2047   14.1238 O   0  0  0  0  0  0  0  0  0  0  0  0
    9.1010  -16.3221   16.3965 C   0  0  0  0  0  0  0  0  0  0  0  0
    9.6884  -15.8975   17.7221 C   0  0  0  0  0  0  0  0  0  0  0  0
    9.2634  -16.9104   18.7690 C   0  0  2  0  0  0  0  0  0  0  0  0
    7.9079  -17.3134   18.4720 N   0  0  0  0  0  0  0  0  0  0  0  0
    9.3520  -16.2976   20.1383 C   0  0  0  0  0  0  0  0  0  0  0  0
   10.4563  -15.8410   20.5602 O   0  0  0  0  0  0  0  0  0  0  0  0
    8.2132  -16.2180   20.9803 N   0  0  0  0  0  0  0  0  0  0  0  0
    8.3517  -15.7356   22.3798 C   0  0  1  0  0  0  0  0  0  0  0  0
    7.1354  -15.0350   22.7864 C   0  0  0  0  0  0  0  0  0  0  0  0
    6.8483  -14.7764   24.1757 C   0  0  0  0  0  0  0  0  0  0  0  0
    6.3443  -15.6389   25.1178 C   0  0  0  0  0  0  0  0  0  0  0  0
    6.2031  -14.9984   26.2827 N   0  0  0  0  0  0  0  0  0  0  0  0
    6.6033  -13.7241   26.1391 C   0  0  0  0  0  0  0  0  0  0  0  0
    6.6641  -12.6860   27.0706 C   0  0  0  0  0  0  0  0  0  0  0  0
    7.1429  -11.4486   26.6995 C   0  0  0  0  0  0  0  0  0  0  0  0
    7.5519  -11.2774   25.3975 C   0  0  0  0  0  0  0  0  0  0  0  0
    7.4873  -12.3153   24.4753 C   0  0  0  0  0  0  0  0  0  0  0  0
    7.0076  -13.5569   24.8461 C   0  0  0  0  0  0  0  0  0  0  0  0
    8.9813  -16.7468   23.1698 C   0  0  0  0  0  0  0  0  0  0  0  0
    8.6247  -17.9596   23.1399 O   0  0  0  0  0  0  0  0  0  0  0  0
   16.0146  -18.5313   21.0890 N   0  0  0  0  0  0  0  0  0  0  0  0
   14.8725  -19.1731   20.5488 C   0  0  0  0  0  0  0  0  0  0  0  0
   14.9925  -19.8147   19.4135 N   0  0  0  0  0  0  0  0  0  0  0  0
   13.6335  -19.1099   21.2369 N   0  0  0  0  0  0  0  0  0  0  0  0
   13.5088  -18.3964   22.4707 C   0  0  0  0  0  0  0  0  0  0  0  0
   12.1354  -18.4819   23.0842 C   0  0  0  0  0  0  0  0  0  0  0  0
   12.0943  -17.6576   24.3282 C   0  0  0  0  0  0  0  0  0  0  0  0
   10.6667  -17.4967   24.8565 C   0  0  2  0  0  0  0  0  0  0  0  0
   10.0695  -16.4484   24.0406 N   0  0  0  0  0  0  0  0  0  0  0  0
   10.6341  -17.2782   26.2897 C   0  0  0  0  0  0  0  0  0  0  0  0
   10.0642  -16.2062   26.9507 O   0  0  0  0  0  0  0  0  0  0  0  0
   11.1737  -18.1298   27.0808 O   0  0  0  0  0  0  0  0  0  0  0  0
  2  1  1  0
  2  3  2  0
  4  5  1  0
  4  2  1  0
  5  6  1  0
  6  8  1  0
  6  7  1  6
  8 10  1  0
  8  9  2  0
 10 11  1  0
 11 22  1  0
 11 12  1  1
 13 14  2  0
 13 12  1  0
 15 14  1  0
 16 21  2  0
 16 15  1  0
 17 16  1  0
 18 19  1  0
 18 17  2  0
 19 20  2  0
 20 21  1  0
 21 13  1  0
 22 23  2  0
 22 32  1  0
 24 25  1  0
 25 27  1  0
 26 25  2  0
 27 28  1  0
 28 29  1  0
 31 30  1  6
 30 29  1  0
 31 33  1  0
 32 31  1  0
 33 34  1  0
 35 33  2  0
M  END
$$$$
