QWR.pdb
     RDKit          3D

 35 36  0  0  1  0  0  0  0  0999 V2000
    7.4672  -12.3142   19.2193 N   0  0  0  0  0  0  0  0  0  0  0  0
    7.5039  -13.4255   18.3499 C   0  0  0  0  0  0  0  0  0  0  0  0
    7.2492  -13.3523   17.1353 O   0  0  0  0  0  0  0  0  0  0  0  0
    7.8673  -14.7519   18.9212 C   0  0  0  0  0  0  0  0  0  0  0  0
    7.8801  -14.6710   20.4297 C   0  0  0  0  0  0  0  0  0  0  0  0
    8.3080  -16.0237   20.9679 C   0  0  2  0  0  0  0  0  0  0  0  0
    7.1464  -16.8831   20.9823 N   0  0  0  0  0  0  0  0  0  0  0  0
    8.8753  -15.8671   22.3508 C   0  0  0  0  0  0  0  0  0  0  0  0
    9.8094  -15.0378   22.5644 O   0  0  0  0  0  0  0  0  0  0  0  0
    8.3831  -16.6366   23.4360 N   0  0  0  0  0  0  0  0  0  0  0  0
    9.0207  -16.5323   24.7750 C   0  0  1  0  0  0  0  0  0  0  0  0
    8.0171  -16.1800   25.7771 C   0  0  0  0  0  0  0  0  0  0  0  0
    7.0306  -15.1594   25.5233 C   0  0  0  0  0  0  0  0  0  0  0  0
    5.7732  -15.3016   24.9901 C   0  0  0  0  0  0  0  0  0  0  0  0
    5.1868  -14.1038   24.8980 N   0  0  0  0  0  0  0  0  0  0  0  0
    6.0266  -13.1625   25.3598 C   0  0  0  0  0  0  0  0  0  0  0  0
    5.8555  -11.7827   25.4861 C   0  0  0  0  0  0  0  0  0  0  0  0
    6.8594  -11.0057   26.0213 C   0  0  0  0  0  0  0  0  0  0  0  0
    8.0181  -11.6306   26.4197 C   0  0  0  0  0  0  0  0  0  0  0  0
    8.1818  -13.0047   26.2897 C   0  0  0  0  0  0  0  0  0  0  0  0
    7.1756  -13.7853   25.7535 C   0  0  0  0  0  0  0  0  0  0  0  0
    9.9582  -17.5989   24.9382 C   0  0  0  0  0  0  0  0  0  0  0  0
    9.6087  -18.8118   25.0134 O   0  0  0  0  0  0  0  0  0  0  0  0
   16.0132  -15.4374   21.1896 N   0  0  0  0  0  0  0  0  0  0  0  0
   16.6291  -15.9665   22.3510 C   0  0  0  0  0  0  0  0  0  0  0  0
   17.7644  -16.6064   22.2220 N   0  0  0  0  0  0  0  0  0  0  0  0
   16.0133  -15.7977   23.6178 N   0  0  0  0  0  0  0  0  0  0  0  0
   14.6233  -16.0785   23.8073 C   0  0  0  0  0  0  0  0  0  0  0  0
   14.3519  -17.0964   24.8844 C   0  0  0  0  0  0  0  0  0  0  0  0
   13.4842  -18.1808   24.3366 C   0  0  0  0  0  0  0  0  0  0  0  0
   12.2841  -18.4616   25.2443 C   0  0  2  0  0  0  0  0  0  0  0  0
   11.3610  -17.3585   25.0153 N   0  0  0  0  0  0  0  0  0  0  0  0
   12.6787  -18.6802   26.6225 C   0  0  0  0  0  0  0  0  0  0  0  0
   13.3479  -19.7793   27.1274 O   0  0  0  0  0  0  0  0  0  0  0  0
   12.4068  -17.8013   27.5146 O   0  0  0  0  0  0  0  0  0  0  0  0
  2  1  1  0
  2  3  2  0
  4  5  1  0
  4  2  1  0
  5  6  1  0
  6  8  1  0
  6  7  1  1
  8 10  1  0
  8  9  2  0
 10 11  1  0
 11 22  1  0
 11 12  1  1
 13 14  2  0
 13 12  1  0
 15 14  1  0
 16 21  2  0
 16 15  1  0
 17 16  1  0
 18 19  1  0
 18 17  2  0
 19 20  2  0
 20 21  1  0
 21 13  1  0
 22 23  2  0
 22 32  1  0
 24 25  1  0
 25 27  1  0
 26 25  2  0
 27 28  1  0
 28 29  1  0
 31 30  1  6
 30 29  1  0
 31 33  1  0
 32 31  1  0
 33 34  1  0
 35 33  2  0
M  END
$$$$
