QWR.pdb
     RDKit          3D

 35 36  0  0  1  0  0  0  0  0999 V2000
    5.3360  -18.3170   18.7663 N   0  0  0  0  0  0  0  0  0  0  0  0
    6.7079  -18.0095   18.6426 C   0  0  0  0  0  0  0  0  0  0  0  0
    7.6013  -18.8731   18.6021 O   0  0  0  0  0  0  0  0  0  0  0  0
    7.1009  -16.5758   18.5561 C   0  0  0  0  0  0  0  0  0  0  0  0
    8.0863  -16.2500   19.6539 C   0  0  0  0  0  0  0  0  0  0  0  0
    7.3506  -15.4704   20.7278 C   0  0  2  0  0  0  0  0  0  0  0  0
    7.0596  -14.1564   20.2015 N   0  0  0  0  0  0  0  0  0  0  0  0
    8.2009  -15.3759   21.9635 C   0  0  0  0  0  0  0  0  0  0  0  0
    9.0539  -14.4459   22.0785 O   0  0  0  0  0  0  0  0  0  0  0  0
    8.0689  -16.3164   23.0171 N   0  0  0  0  0  0  0  0  0  0  0  0
    8.8940  -16.1810   24.2465 C   0  0  1  0  0  0  0  0  0  0  0  0
    8.0268  -16.0174   25.4113 C   0  0  0  0  0  0  0  0  0  0  0  0
    7.1298  -14.8942   25.5261 C   0  0  0  0  0  0  0  0  0  0  0  0
    5.7708  -14.8641   25.3319 C   0  0  0  0  0  0  0  0  0  0  0  0
    5.3190  -13.6192   25.5135 N   0  0  0  0  0  0  0  0  0  0  0  0
    6.3488  -12.8153   25.8263 C   0  0  0  0  0  0  0  0  0  0  0  0
    6.3718  -11.4519   26.1256 C   0  0  0  0  0  0  0  0  0  0  0  0
    7.5593  -10.8331   26.4498 C   0  0  0  0  0  0  0  0  0  0  0  0
    8.7030  -11.5970   26.4666 C   0  0  0  0  0  0  0  0  0  0  0  0
    8.6725  -12.9538   26.1662 C   0  0  0  0  0  0  0  0  0  0  0  0
    7.4822  -13.5757   25.8413 C   0  0  0  0  0  0  0  0  0  0  0  0
    9.9785  -17.1107   24.1945 C   0  0  0  0  0  0  0  0  0  0  0  0
    9.8053  -18.3603   24.1095 O   0  0  0  0  0  0  0  0  0  0  0  0
   13.7072  -13.6236   19.1715 N   0  0  0  0  0  0  0  0  0  0  0  0
   14.8889  -14.2611   19.6246 C   0  0  0  0  0  0  0  0  0  0  0  0
   16.0461  -13.7679   19.2603 N   0  0  0  0  0  0  0  0  0  0  0  0
   14.8004  -15.4090   20.4536 N   0  0  0  0  0  0  0  0  0  0  0  0
   14.1602  -15.3501   21.7316 C   0  0  0  0  0  0  0  0  0  0  0  0
   13.4240  -16.6122   22.0995 C   0  0  0  0  0  0  0  0  0  0  0  0
   13.6071  -16.8883   23.5552 C   0  0  0  0  0  0  0  0  0  0  0  0
   12.4181  -17.6525   24.1427 C   0  0  2  0  0  0  0  0  0  0  0  0
   11.3369  -16.6800   24.2240 N   0  0  0  0  0  0  0  0  0  0  0  0
   12.7574  -18.3258   25.3814 C   0  0  0  0  0  0  0  0  0  0  0  0
   13.5779  -19.4289   25.5259 O   0  0  0  0  0  0  0  0  0  0  0  0
   12.2779  -17.9045   26.4926 O   0  0  0  0  0  0  0  0  0  0  0  0
  2  1  1  0
  2  3  2  0
  4  5  1  0
  4  2  1  0
  5  6  1  0
  6  8  1  0
  6  7  1  6
  8 10  1  0
  8  9  2  0
 10 11  1  0
 11 22  1  0
 11 12  1  1
 13 14  2  0
 13 12  1  0
 15 14  1  0
 16 21  2  0
 16 15  1  0
 17 16  1  0
 18 19  1  0
 18 17  2  0
 19 20  2  0
 20 21  1  0
 21 13  1  0
 22 23  2  0
 22 32  1  0
 24 25  1  0
 25 27  1  0
 26 25  2  0
 27 28  1  0
 28 29  1  0
 31 30  1  1
 30 29  1  0
 31 33  1  0
 32 31  1  0
 33 34  1  0
 35 33  2  0
M  END
$$$$
