QWR.pdb
     RDKit          3D

 35 36  0  0  1  0  0  0  0  0999 V2000
    8.6422  -12.7683   15.7837 N   0  0  0  0  0  0  0  0  0  0  0  0
    8.0882  -13.9908   15.3467 C   0  0  0  0  0  0  0  0  0  0  0  0
    7.9784  -14.3022   14.1482 O   0  0  0  0  0  0  0  0  0  0  0  0
    7.6126  -14.9542   16.3778 C   0  0  0  0  0  0  0  0  0  0  0  0
    7.9078  -14.4122   17.7567 C   0  0  0  0  0  0  0  0  0  0  0  0
    8.5862  -15.5091   18.5562 C   0  0  2  0  0  0  0  0  0  0  0  0
    7.8021  -16.7141   18.4103 N   0  0  0  0  0  0  0  0  0  0  0  0
    8.6819  -15.1041   20.0003 C   0  0  0  0  0  0  0  0  0  0  0  0
    9.4501  -14.1572   20.3453 O   0  0  0  0  0  0  0  0  0  0  0  0
    7.9227  -15.7665   20.9987 N   0  0  0  0  0  0  0  0  0  0  0  0
    8.1355  -15.4449   22.4346 C   0  0  1  0  0  0  0  0  0  0  0  0
    6.8793  -15.0029   23.0363 C   0  0  0  0  0  0  0  0  0  0  0  0
    6.7591  -14.8038   24.4594 C   0  0  0  0  0  0  0  0  0  0  0  0
    6.3522  -15.7017   25.4153 C   0  0  0  0  0  0  0  0  0  0  0  0
    6.3576  -15.1128   26.6154 N   0  0  0  0  0  0  0  0  0  0  0  0
    6.7609  -13.8384   26.4818 C   0  0  0  0  0  0  0  0  0  0  0  0
    6.9470  -12.8444   27.4442 C   0  0  0  0  0  0  0  0  0  0  0  0
    7.4015  -11.5975   27.0742 C   0  0  0  0  0  0  0  0  0  0  0  0
    7.6604  -11.3726   25.7421 C   0  0  0  0  0  0  0  0  0  0  0  0
    7.4716  -12.3669   24.7895 C   0  0  0  0  0  0  0  0  0  0  0  0
    7.0162  -13.6180   25.1591 C   0  0  0  0  0  0  0  0  0  0  0  0
    8.9864  -16.4327   23.0206 C   0  0  0  0  0  0  0  0  0  0  0  0
    8.7063  -17.6658   23.0184 O   0  0  0  0  0  0  0  0  0  0  0  0
   15.4753  -19.7977   23.4006 N   0  0  0  0  0  0  0  0  0  0  0  0
   15.7722  -18.7767   22.4638 C   0  0  0  0  0  0  0  0  0  0  0  0
   17.0273  -18.5307   22.1817 N   0  0  0  0  0  0  0  0  0  0  0  0
   14.7191  -18.0462   21.8558 N   0  0  0  0  0  0  0  0  0  0  0  0
   13.4125  -18.0104   22.4373 C   0  0  0  0  0  0  0  0  0  0  0  0
   13.4151  -17.7267   23.9170 C   0  0  0  0  0  0  0  0  0  0  0  0
   12.4678  -16.6109   24.2110 C   0  0  0  0  0  0  0  0  0  0  0  0
   11.0217  -17.1035   24.3074 C   0  0  2  0  0  0  0  0  0  0  0  0
   10.2222  -16.0852   23.6400 N   0  0  0  0  0  0  0  0  0  0  0  0
   10.6386  -17.4150   25.6709 C   0  0  0  0  0  0  0  0  0  0  0  0
   10.2909  -16.5134   26.6594 O   0  0  0  0  0  0  0  0  0  0  0  0
   10.6002  -18.6342   26.0637 O   0  0  0  0  0  0  0  0  0  0  0  0
  2  1  1  0
  2  3  2  0
  4  5  1  0
  4  2  1  0
  5  6  1  0
  6  8  1  0
  6  7  1  1
  8 10  1  0
  8  9  2  0
 10 11  1  0
 11 22  1  0
 11 12  1  1
 13 14  2  0
 13 12  1  0
 15 14  1  0
 16 21  2  0
 16 15  1  0
 17 16  1  0
 18 19  1  0
 18 17  2  0
 19 20  2  0
 20 21  1  0
 21 13  1  0
 22 23  2  0
 22 32  1  0
 24 25  1  0
 25 27  1  0
 26 25  2  0
 27 28  1  0
 28 29  1  0
 31 30  1  1
 30 29  1  0
 31 33  1  0
 32 31  1  0
 33 34  1  0
 35 33  2  0
M  END
$$$$
