QWR.pdb
     RDKit          3D

 35 36  0  0  1  0  0  0  0  0999 V2000
    8.4923  -12.8929   17.5670 N   0  0  0  0  0  0  0  0  0  0  0  0
    8.3503  -14.2511   17.2104 C   0  0  0  0  0  0  0  0  0  0  0  0
    7.6247  -14.6415   16.2795 O   0  0  0  0  0  0  0  0  0  0  0  0
    9.1110  -15.2652   17.9918 C   0  0  0  0  0  0  0  0  0  0  0  0
    9.1172  -14.8829   19.4534 C   0  0  0  0  0  0  0  0  0  0  0  0
    9.8879  -15.9467   20.2129 C   0  0  2  0  0  0  0  0  0  0  0  0
    9.2242  -17.2126   19.9998 N   0  0  0  0  0  0  0  0  0  0  0  0
    9.9277  -15.6026   21.6753 C   0  0  0  0  0  0  0  0  0  0  0  0
   10.4430  -14.5097   22.0572 O   0  0  0  0  0  0  0  0  0  0  0  0
    9.3952  -16.4846   22.6502 N   0  0  0  0  0  0  0  0  0  0  0  0
    9.4574  -16.1288   24.0924 C   0  0  1  0  0  0  0  0  0  0  0  0
    8.1065  -15.9369   24.6155 C   0  0  0  0  0  0  0  0  0  0  0  0
    7.4195  -14.6771   24.4727 C   0  0  0  0  0  0  0  0  0  0  0  0
    6.6713  -14.2284   23.4123 C   0  0  0  0  0  0  0  0  0  0  0  0
    6.2258  -12.9942   23.6678 N   0  0  0  0  0  0  0  0  0  0  0  0
    6.6604  -12.6080   24.8788 C   0  0  0  0  0  0  0  0  0  0  0  0
    6.4375  -11.4233   25.5829 C   0  0  0  0  0  0  0  0  0  0  0  0
    6.9690  -11.2550   26.8428 C   0  0  0  0  0  0  0  0  0  0  0  0
    7.7159  -12.2817   27.3719 C   0  0  0  0  0  0  0  0  0  0  0  0
    7.9346  -13.4580   26.6644 C   0  0  0  0  0  0  0  0  0  0  0  0
    7.4018  -13.6282   25.4009 C   0  0  0  0  0  0  0  0  0  0  0  0
   10.4461  -16.9349   24.7374 C   0  0  0  0  0  0  0  0  0  0  0  0
   10.3836  -18.1973   24.7725 O   0  0  0  0  0  0  0  0  0  0  0  0
   10.5520  -20.7973   31.2843 N   0  0  0  0  0  0  0  0  0  0  0  0
   11.9600  -20.8408   31.1306 C   0  0  0  0  0  0  0  0  0  0  0  0
   12.6688  -21.4811   32.0266 N   0  0  0  0  0  0  0  0  0  0  0  0
   12.5713  -20.1973   30.0238 N   0  0  0  0  0  0  0  0  0  0  0  0
   11.8276  -19.3138   29.1794 C   0  0  0  0  0  0  0  0  0  0  0  0
   12.6259  -18.7615   28.0271 C   0  0  0  0  0  0  0  0  0  0  0  0
   11.7875  -17.7930   27.2603 C   0  0  0  0  0  0  0  0  0  0  0  0
   12.5453  -17.2057   26.0671 C   0  0  2  0  0  0  0  0  0  0  0  0
   11.5818  -16.3586   25.3775 N   0  0  0  0  0  0  0  0  0  0  0  0
   13.1767  -18.2318   25.2600 C   0  0  0  0  0  0  0  0  0  0  0  0
   12.8719  -18.5603   23.9523 O   0  0  0  0  0  0  0  0  0  0  0  0
   14.1211  -18.9444   25.7523 O   0  0  0  0  0  0  0  0  0  0  0  0
  2  1  1  0
  2  3  2  0
  4  5  1  0
  4  2  1  0
  5  6  1  0
  6  8  1  0
  6  7  1  1
  8 10  1  0
  8  9  2  0
 10 11  1  0
 11 22  1  0
 11 12  1  1
 13 14  2  0
 13 12  1  0
 15 14  1  0
 16 21  2  0
 16 15  1  0
 17 16  1  0
 18 19  1  0
 18 17  2  0
 19 20  2  0
 20 21  1  0
 21 13  1  0
 22 23  2  0
 22 32  1  0
 24 25  1  0
 25 27  1  0
 26 25  2  0
 27 28  1  0
 28 29  1  0
 31 30  1  1
 30 29  1  0
 31 33  1  0
 32 31  1  0
 33 34  1  0
 35 33  2  0
M  END
$$$$
