QWR.pdb
     RDKit          3D

 35 36  0  0  1  0  0  0  0  0999 V2000
   10.4980  -16.6051   15.7205 N   0  0  0  0  0  0  0  0  0  0  0  0
    9.3867  -16.0013   15.0937 C   0  0  0  0  0  0  0  0  0  0  0  0
    9.1544  -16.0943   13.8760 O   0  0  0  0  0  0  0  0  0  0  0  0
    8.4468  -15.2137   15.9385 C   0  0  0  0  0  0  0  0  0  0  0  0
    8.8737  -15.2922   17.3856 C   0  0  0  0  0  0  0  0  0  0  0  0
    7.8923  -14.4788   18.2087 C   0  0  2  0  0  0  0  0  0  0  0  0
    7.9099  -13.1234   17.7081 N   0  0  0  0  0  0  0  0  0  0  0  0
    8.2851  -14.5191   19.6587 C   0  0  0  0  0  0  0  0  0  0  0  0
    9.4018  -14.0475   20.0281 O   0  0  0  0  0  0  0  0  0  0  0  0
    7.4236  -15.0807   20.6358 N   0  0  0  0  0  0  0  0  0  0  0  0
    7.8046  -15.0513   22.0725 C   0  0  1  0  0  0  0  0  0  0  0  0
    6.6056  -14.9568   22.9026 C   0  0  0  0  0  0  0  0  0  0  0  0
    6.6936  -14.7189   24.3221 C   0  0  0  0  0  0  0  0  0  0  0  0
    6.5927  -15.6267   25.3474 C   0  0  0  0  0  0  0  0  0  0  0  0
    6.7065  -14.9942   26.5196 N   0  0  0  0  0  0  0  0  0  0  0  0
    6.8825  -13.6808   26.2992 C   0  0  0  0  0  0  0  0  0  0  0  0
    7.0711  -12.6311   27.2001 C   0  0  0  0  0  0  0  0  0  0  0  0
    7.2619  -11.3471   26.7384 C   0  0  0  0  0  0  0  0  0  0  0  0
    7.2593  -11.1418   25.3784 C   0  0  0  0  0  0  0  0  0  0  0  0
    7.0697  -12.1918   24.4876 C   0  0  0  0  0  0  0  0  0  0  0  0
    6.8785  -13.4800   24.9491 C   0  0  0  0  0  0  0  0  0  0  0  0
    8.8526  -15.9952   22.3047 C   0  0  0  0  0  0  0  0  0  0  0  0
    8.9501  -17.0809   21.6640 O   0  0  0  0  0  0  0  0  0  0  0  0
   17.2188  -15.9653   24.0512 N   0  0  0  0  0  0  0  0  0  0  0  0
   16.9910  -16.9646   23.0726 C   0  0  0  0  0  0  0  0  0  0  0  0
   17.9689  -17.7827   22.7728 N   0  0  0  0  0  0  0  0  0  0  0  0
   15.7245  -17.0607   22.4408 N   0  0  0  0  0  0  0  0  0  0  0  0
   14.6486  -16.1911   22.8056 C   0  0  0  0  0  0  0  0  0  0  0  0
   13.4119  -16.9174   23.2671 C   0  0  0  0  0  0  0  0  0  0  0  0
   12.2123  -16.0643   23.0182 C   0  0  0  0  0  0  0  0  0  0  0  0
   10.9237  -16.7450   23.4864 C   0  0  2  0  0  0  0  0  0  0  0  0
    9.8698  -15.7621   23.2755 N   0  0  0  0  0  0  0  0  0  0  0  0
   11.0391  -17.2692   24.8335 C   0  0  0  0  0  0  0  0  0  0  0  0
   11.7195  -18.4077   25.2231 O   0  0  0  0  0  0  0  0  0  0  0  0
   10.4728  -16.6611   25.8091 O   0  0  0  0  0  0  0  0  0  0  0  0
  2  1  1  0
  2  3  2  0
  4  5  1  0
  4  2  1  0
  5  6  1  0
  6  8  1  0
  6  7  1  6
  8 10  1  0
  8  9  2  0
 10 11  1  0
 11 22  1  0
 11 12  1  1
 13 14  2  0
 13 12  1  0
 15 14  1  0
 16 21  2  0
 16 15  1  0
 17 16  1  0
 18 19  1  0
 18 17  2  0
 19 20  2  0
 20 21  1  0
 21 13  1  0
 22 23  2  0
 22 32  1  0
 24 25  1  0
 25 27  1  0
 26 25  2  0
 27 28  1  0
 28 29  1  0
 31 30  1  1
 30 29  1  0
 31 33  1  0
 32 31  1  0
 33 34  1  0
 35 33  2  0
M  END
$$$$
