QWR.pdb
     RDKit          3D

 35 36  0  0  1  0  0  0  0  0999 V2000
   10.8833  -21.1697   19.3644 N   0  0  0  0  0  0  0  0  0  0  0  0
   10.2369  -20.9358   18.1317 C   0  0  0  0  0  0  0  0  0  0  0  0
   10.1564  -21.7871   17.2293 O   0  0  0  0  0  0  0  0  0  0  0  0
    9.6206  -19.5993   17.9049 C   0  0  0  0  0  0  0  0  0  0  0  0
    9.7943  -18.7421   19.1367 C   0  0  0  0  0  0  0  0  0  0  0  0
    9.0049  -17.4624   18.9324 C   0  0  2  0  0  0  0  0  0  0  0  0
    9.5803  -16.7608   17.8079 N   0  0  0  0  0  0  0  0  0  0  0  0
    9.0650  -16.6210   20.1762 C   0  0  0  0  0  0  0  0  0  0  0  0
   10.1046  -15.9446   20.4364 O   0  0  0  0  0  0  0  0  0  0  0  0
    7.9709  -16.5664   21.0773 N   0  0  0  0  0  0  0  0  0  0  0  0
    8.1428  -15.9615   22.4245 C   0  0  1  0  0  0  0  0  0  0  0  0
    6.8607  -15.4536   22.9083 C   0  0  0  0  0  0  0  0  0  0  0  0
    6.6662  -15.1087   24.2949 C   0  0  0  0  0  0  0  0  0  0  0  0
    6.3461  -15.9357   25.3432 C   0  0  0  0  0  0  0  0  0  0  0  0
    6.2334  -15.2161   26.4642 N   0  0  0  0  0  0  0  0  0  0  0  0
    6.4726  -13.9236   26.1870 C   0  0  0  0  0  0  0  0  0  0  0  0
    6.4946  -12.8088   27.0271 C   0  0  0  0  0  0  0  0  0  0  0  0
    6.7963  -11.5640   26.5195 C   0  0  0  0  0  0  0  0  0  0  0  0
    7.0701  -11.4628   25.1754 C   0  0  0  0  0  0  0  0  0  0  0  0
    7.0450  -12.5770   24.3449 C   0  0  0  0  0  0  0  0  0  0  0  0
    6.7430  -13.8261   24.8527 C   0  0  0  0  0  0  0  0  0  0  0  0
    9.0112  -16.7845   23.2066 C   0  0  0  0  0  0  0  0  0  0  0  0
    8.9077  -18.0440   23.2470 O   0  0  0  0  0  0  0  0  0  0  0  0
   16.3403  -17.6234   21.0896 N   0  0  0  0  0  0  0  0  0  0  0  0
   15.3036  -18.4605   20.6074 C   0  0  0  0  0  0  0  0  0  0  0  0
   15.5246  -19.1764   19.5332 N   0  0  0  0  0  0  0  0  0  0  0  0
   14.0589  -18.5080   21.2864 N   0  0  0  0  0  0  0  0  0  0  0  0
   13.8306  -17.7321   22.4664 C   0  0  0  0  0  0  0  0  0  0  0  0
   12.4439  -17.8868   23.0348 C   0  0  0  0  0  0  0  0  0  0  0  0
   12.2971  -17.0094   24.2338 C   0  0  0  0  0  0  0  0  0  0  0  0
   10.8889  -17.0900   24.8281 C   0  0  2  0  0  0  0  0  0  0  0  0
   10.0662  -16.2300   23.9884 N   0  0  0  0  0  0  0  0  0  0  0  0
   10.8747  -16.7893   26.2466 C   0  0  0  0  0  0  0  0  0  0  0  0
   11.4482  -17.5381   27.2572 O   0  0  0  0  0  0  0  0  0  0  0  0
   10.2839  -15.7350   26.6729 O   0  0  0  0  0  0  0  0  0  0  0  0
  2  1  1  0
  2  3  2  0
  4  5  1  0
  4  2  1  0
  5  6  1  0
  6  8  1  0
  6  7  1  6
  8 10  1  0
  8  9  2  0
 10 11  1  0
 11 22  1  0
 11 12  1  1
 13 14  2  0
 13 12  1  0
 15 14  1  0
 16 21  2  0
 16 15  1  0
 17 16  1  0
 18 19  1  0
 18 17  2  0
 19 20  2  0
 20 21  1  0
 21 13  1  0
 22 23  2  0
 22 32  1  0
 24 25  1  0
 25 27  1  0
 26 25  2  0
 27 28  1  0
 28 29  1  0
 31 30  1  6
 30 29  1  0
 31 33  1  0
 32 31  1  0
 33 34  1  0
 35 33  2  0
M  END
$$$$
