DGC.pdb
     RDKit          3D

 19 18  0  0  1  0  0  0  0  0999 V2000
    9.0975  -19.0099   21.1055 N   0  0  0  0  0  0  0  0  0  0  0  0
    9.4894  -17.7820   20.3889 C   0  0  1  0  0  0  0  0  0  0  0  0
    9.0208  -18.0177   18.9711 C   0  0  0  0  0  0  0  0  0  0  0  0
   10.0549  -18.4991   18.0506 C   0  0  0  0  0  0  0  0  0  0  0  0
   11.2247  -18.7340   18.4452 O   0  0  0  0  0  0  0  0  0  0  0  0
    8.7703  -16.6635   21.0477 C   0  0  0  0  0  0  0  0  0  0  0  0
    9.0830  -15.4482   20.8268 O   0  0  0  0  0  0  0  0  0  0  0  0
    9.7827  -18.7140   16.7079 O   0  0  0  0  0  0  0  0  0  0  0  0
    7.6885  -16.8588   21.9643 N   0  0  0  0  0  0  0  0  0  0  0  0
    6.9146  -15.7498   22.4698 C   0  0  0  0  0  0  0  0  0  0  0  0
    7.4649  -15.0676   23.6280 C   0  0  0  0  0  0  0  0  0  0  0  0
    8.5839  -15.4331   24.0540 O   0  0  0  0  0  0  0  0  0  0  0  0
    6.7963  -14.0328   24.2773 N   0  0  0  0  0  0  0  0  0  0  0  0
    7.3296  -13.3385   25.4413 C   0  0  1  0  0  0  0  0  0  0  0  0
    6.3090  -12.3217   25.9615 C   0  0  0  0  0  0  0  0  0  0  0  0
    7.0360  -11.4210   27.3737 S   0  0  0  0  0  0  0  0  0  0  0  0
    7.5946  -14.3244   26.5078 C   0  0  0  0  0  0  0  0  0  0  0  0
    6.8408  -15.3105   26.6828 O   0  0  0  0  0  0  0  0  0  0  0  0
    8.6961  -14.1561   27.3292 O   0  0  0  0  0  0  0  0  0  0  0  0
  2  3  1  0
  2  1  1  1
  3  4  1  0
  4  8  1  0
  4  5  2  0
  6  2  1  0
  7  6  2  0
  9  6  1  0
 10 11  1  0
 10  9  1  0
 11 12  2  0
 13 14  1  0
 13 11  1  0
 14 15  1  1
 16 15  1  0
 17 19  1  0
 17 14  1  0
 18 17  2  0
M  END
$$$$
