DGC.pdb
     RDKit          3D

 19 18  0  0  1  0  0  0  0  0999 V2000
    9.5441  -16.3421   19.9699 N   0  0  0  0  0  0  0  0  0  0  0  0
    9.4659  -17.2196   21.1526 C   0  0  1  0  0  0  0  0  0  0  0  0
   10.8958  -17.3178   21.6334 C   0  0  0  0  0  0  0  0  0  0  0  0
   11.8215  -17.9558   20.6928 C   0  0  0  0  0  0  0  0  0  0  0  0
   11.8181  -19.1996   20.5130 O   0  0  0  0  0  0  0  0  0  0  0  0
    8.5832  -16.5328   22.1279 C   0  0  0  0  0  0  0  0  0  0  0  0
    8.1641  -17.1215   23.1772 O   0  0  0  0  0  0  0  0  0  0  0  0
   12.7373  -17.2116   19.9645 O   0  0  0  0  0  0  0  0  0  0  0  0
    8.1434  -15.1799   21.9697 N   0  0  0  0  0  0  0  0  0  0  0  0
    7.2257  -14.5681   22.9013 C   0  0  0  0  0  0  0  0  0  0  0  0
    7.8112  -14.0668   24.1323 C   0  0  0  0  0  0  0  0  0  0  0  0
    9.0515  -14.1562   24.2772 O   0  0  0  0  0  0  0  0  0  0  0  0
    7.0482  -13.4983   25.1492 N   0  0  0  0  0  0  0  0  0  0  0  0
    7.6191  -12.9647   26.3783 C   0  0  1  0  0  0  0  0  0  0  0  0
    6.5647  -12.1574   27.1417 C   0  0  0  0  0  0  0  0  0  0  0  0
    5.8129  -10.9407   26.0066 S   0  0  0  0  0  0  0  0  0  0  0  0
    8.0571  -14.0879   27.2304 C   0  0  0  0  0  0  0  0  0  0  0  0
    7.7279  -15.2687   26.9687 O   0  0  0  0  0  0  0  0  0  0  0  0
    8.8460  -13.8316   28.3387 O   0  0  0  0  0  0  0  0  0  0  0  0
  2  3  1  0
  2  1  1  6
  3  4  1  0
  4  8  1  0
  4  5  2  0
  6  2  1  0
  7  6  2  0
  9  6  1  0
 10 11  1  0
 10  9  1  0
 11 12  2  0
 13 14  1  0
 13 11  1  0
 14 15  1  1
 16 15  1  0
 17 19  1  0
 17 14  1  0
 18 17  2  0
M  END
$$$$
