DGC.pdb
     RDKit          3D

 19 18  0  0  1  0  0  0  0  0999 V2000
   10.3661  -17.6448   20.6689 N   0  0  0  0  0  0  0  0  0  0  0  0
    9.8913  -16.5737   19.7732 C   0  0  1  0  0  0  0  0  0  0  0  0
    9.1461  -17.3091   18.6827 C   0  0  0  0  0  0  0  0  0  0  0  0
    9.9925  -17.8670   17.6239 C   0  0  0  0  0  0  0  0  0  0  0  0
   10.8993  -18.6983   17.8805 O   0  0  0  0  0  0  0  0  0  0  0  0
    9.0017  -15.7087   20.5871 C   0  0  0  0  0  0  0  0  0  0  0  0
    8.4305  -14.6844   20.0892 O   0  0  0  0  0  0  0  0  0  0  0  0
    9.8254  -17.4991   16.2974 O   0  0  0  0  0  0  0  0  0  0  0  0
    8.7199  -15.9540   21.9688 N   0  0  0  0  0  0  0  0  0  0  0  0
    7.8502  -15.0884   22.7296 C   0  0  0  0  0  0  0  0  0  0  0  0
    7.7023  -15.4156   24.1369 C   0  0  0  0  0  0  0  0  0  0  0  0
    6.9447  -14.7031   24.8338 O   0  0  0  0  0  0  0  0  0  0  0  0
    8.3698  -16.4822   24.7337 N   0  0  0  0  0  0  0  0  0  0  0  0
    8.2436  -16.8195   26.1450 C   0  0  1  0  0  0  0  0  0  0  0  0
    7.4401  -18.1133   26.3075 C   0  0  0  0  0  0  0  0  0  0  0  0
    5.8826  -17.9664   25.3658 S   0  0  0  0  0  0  0  0  0  0  0  0
    9.5913  -17.0304   26.7097 C   0  0  0  0  0  0  0  0  0  0  0  0
   10.6150  -16.9659   25.9891 O   0  0  0  0  0  0  0  0  0  0  0  0
    9.7261  -17.3045   28.0599 O   0  0  0  0  0  0  0  0  0  0  0  0
  2  3  1  0
  2  1  1  1
  3  4  1  0
  4  8  1  0
  4  5  2  0
  6  2  1  0
  7  6  2  0
  9  6  1  0
 10 11  1  0
 10  9  1  0
 11 12  2  0
 13 14  1  0
 13 11  1  0
 14 15  1  6
 16 15  1  0
 17 19  1  0
 17 14  1  0
 18 17  2  0
M  END
$$$$
