DGC.pdb
     RDKit          3D

 19 18  0  0  1  0  0  0  0  0999 V2000
   10.9240  -16.4071   19.8524 N   0  0  0  0  0  0  0  0  0  0  0  0
   10.1815  -17.5655   20.3833 C   0  0  1  0  0  0  0  0  0  0  0  0
   11.1576  -18.2260   21.3300 C   0  0  0  0  0  0  0  0  0  0  0  0
   11.8621  -19.3877   20.7797 C   0  0  0  0  0  0  0  0  0  0  0  0
   12.3965  -19.3511   19.6429 O   0  0  0  0  0  0  0  0  0  0  0  0
    8.9924  -17.0180   21.0820 C   0  0  0  0  0  0  0  0  0  0  0  0
    7.8152  -17.4237   20.8119 O   0  0  0  0  0  0  0  0  0  0  0  0
   11.9664  -20.5727   21.4924 O   0  0  0  0  0  0  0  0  0  0  0  0
    9.0737  -16.0115   22.0964 N   0  0  0  0  0  0  0  0  0  0  0  0
    7.9101  -15.5899   22.8400 C   0  0  0  0  0  0  0  0  0  0  0  0
    8.1565  -14.6678   23.9348 C   0  0  0  0  0  0  0  0  0  0  0  0
    9.3437  -14.4321   24.2544 O   0  0  0  0  0  0  0  0  0  0  0  0
    7.1279  -14.0448   24.6372 N   0  0  0  0  0  0  0  0  0  0  0  0
    7.3536  -13.1345   25.7515 C   0  0  1  0  0  0  0  0  0  0  0  0
    6.0307  -12.4969   26.1870 C   0  0  0  0  0  0  0  0  0  0  0  0
    6.3648  -11.2809   27.5075 S   0  0  0  0  0  0  0  0  0  0  0  0
    7.9035  -13.8972   26.8897 C   0  0  0  0  0  0  0  0  0  0  0  0
    7.5146  -15.0624   27.1394 O   0  0  0  0  0  0  0  0  0  0  0  0
    8.8663  -13.3143   27.6956 O   0  0  0  0  0  0  0  0  0  0  0  0
  2  3  1  0
  2  1  1  1
  3  4  1  0
  4  8  1  0
  4  5  2  0
  6  2  1  0
  7  6  2  0
  9  6  1  0
 10 11  1  0
 10  9  1  0
 11 12  2  0
 13 14  1  0
 13 11  1  0
 14 15  1  1
 16 15  1  0
 17 19  1  0
 17 14  1  0
 18 17  2  0
M  END
$$$$
