DGC.pdb
     RDKit          3D

 19 18  0  0  1  0  0  0  0  0999 V2000
    9.5518  -16.9979   20.0561 N   0  0  0  0  0  0  0  0  0  0  0  0
    8.1471  -17.0229   19.6077 C   0  0  1  0  0  0  0  0  0  0  0  0
    7.7875  -18.4912   19.6051 C   0  0  0  0  0  0  0  0  0  0  0  0
    8.4572  -19.2896   18.5742 C   0  0  0  0  0  0  0  0  0  0  0  0
    9.6910  -19.1813   18.3612 O   0  0  0  0  0  0  0  0  0  0  0  0
    7.3725  -16.2487   20.6090 C   0  0  0  0  0  0  0  0  0  0  0  0
    6.1189  -16.0601   20.4812 O   0  0  0  0  0  0  0  0  0  0  0  0
    7.7553  -20.1957   17.7936 O   0  0  0  0  0  0  0  0  0  0  0  0
    7.9619  -15.6658   21.7759 N   0  0  0  0  0  0  0  0  0  0  0  0
    7.1679  -14.9589   22.7527 C   0  0  0  0  0  0  0  0  0  0  0  0
    7.9025  -14.3547   23.8504 C   0  0  0  0  0  0  0  0  0  0  0  0
    9.1445  -14.5074   23.8865 O   0  0  0  0  0  0  0  0  0  0  0  0
    7.2792  -13.6211   24.8567 N   0  0  0  0  0  0  0  0  0  0  0  0
    8.0062  -12.9145   25.9026 C   0  0  1  0  0  0  0  0  0  0  0  0
    7.1833  -11.7237   26.4036 C   0  0  0  0  0  0  0  0  0  0  0  0
    5.5108  -12.3045   26.8503 S   0  0  0  0  0  0  0  0  0  0  0  0
    8.2345  -13.8356   27.0336 C   0  0  0  0  0  0  0  0  0  0  0  0
    8.9862  -13.5210   27.9860 O   0  0  0  0  0  0  0  0  0  0  0  0
    7.6065  -15.0693   27.0416 O   0  0  0  0  0  0  0  0  0  0  0  0
  2  3  1  0
  2  1  1  1
  3  4  1  0
  4  8  1  0
  4  5  2  0
  6  2  1  0
  7  6  2  0
  9  6  1  0
 10 11  1  0
 10  9  1  0
 11 12  2  0
 13 14  1  0
 13 11  1  0
 14 15  1  1
 16 15  1  0
 17 19  1  0
 17 14  1  0
 18 17  2  0
M  END
$$$$
