DGC.pdb
     RDKit          3D

 19 18  0  0  1  0  0  0  0  0999 V2000
    8.8784  -19.3119   22.0365 N   0  0  0  0  0  0  0  0  0  0  0  0
    9.5006  -18.0322   21.6489 C   0  0  1  0  0  0  0  0  0  0  0  0
    8.9782  -17.7766   20.2535 C   0  0  0  0  0  0  0  0  0  0  0  0
    9.8740  -18.1963   19.1718 C   0  0  0  0  0  0  0  0  0  0  0  0
   11.0490  -18.5762   19.4052 O   0  0  0  0  0  0  0  0  0  0  0  0
    9.0283  -17.0218   22.6277 C   0  0  0  0  0  0  0  0  0  0  0  0
    9.3881  -15.8019   22.5522 O   0  0  0  0  0  0  0  0  0  0  0  0
    9.4598  -18.1904   17.8484 O   0  0  0  0  0  0  0  0  0  0  0  0
    8.1468  -17.3327   23.7116 N   0  0  0  0  0  0  0  0  0  0  0  0
    7.8243  -16.3598   24.7283 C   0  0  0  0  0  0  0  0  0  0  0  0
    8.9188  -15.9626   25.5965 C   0  0  0  0  0  0  0  0  0  0  0  0
   10.0545  -16.4397   25.3733 O   0  0  0  0  0  0  0  0  0  0  0  0
    8.7505  -15.0802   26.6607 N   0  0  0  0  0  0  0  0  0  0  0  0
    9.8599  -14.4852   27.3931 C   0  0  1  0  0  0  0  0  0  0  0  0
    9.3956  -13.2147   28.1117 C   0  0  0  0  0  0  0  0  0  0  0  0
    8.1336  -12.3819   27.0879 S   0  0  0  0  0  0  0  0  0  0  0  0
   10.3375  -15.4482   28.4051 C   0  0  0  0  0  0  0  0  0  0  0  0
    9.7316  -16.5256   28.6136 O   0  0  0  0  0  0  0  0  0  0  0  0
   11.4755  -15.1554   29.1370 O   0  0  0  0  0  0  0  0  0  0  0  0
  2  3  1  0
  2  1  1  1
  3  4  1  0
  4  8  1  0
  4  5  2  0
  6  2  1  0
  7  6  2  0
  9  6  1  0
 10 11  1  0
 10  9  1  0
 11 12  2  0
 13 14  1  0
 13 11  1  0
 14 15  1  1
 16 15  1  0
 17 19  1  0
 17 14  1  0
 18 17  2  0
M  END
$$$$
