DGC.pdb
     RDKit          3D

 19 18  0  0  1  0  0  0  0  0999 V2000
    9.3072  -17.6115   20.9214 N   0  0  0  0  0  0  0  0  0  0  0  0
    9.2438  -16.2826   20.2848 C   0  0  1  0  0  0  0  0  0  0  0  0
    8.3724  -16.4983   19.0684 C   0  0  0  0  0  0  0  0  0  0  0  0
    9.0770  -16.9987   17.8845 C   0  0  0  0  0  0  0  0  0  0  0  0
   10.2298  -17.4920   17.9686 O   0  0  0  0  0  0  0  0  0  0  0  0
    8.6215  -15.3710   21.2766 C   0  0  0  0  0  0  0  0  0  0  0  0
    9.0666  -14.1929   21.4701 O   0  0  0  0  0  0  0  0  0  0  0  0
    8.4989  -16.9471   16.6251 O   0  0  0  0  0  0  0  0  0  0  0  0
    7.4926  -15.7364   22.0771 N   0  0  0  0  0  0  0  0  0  0  0  0
    6.8012  -14.7702   22.8973 C   0  0  0  0  0  0  0  0  0  0  0  0
    7.5200  -14.3028   24.0696 C   0  0  0  0  0  0  0  0  0  0  0  0
    8.7421  -14.5601   24.1562 O   0  0  0  0  0  0  0  0  0  0  0  0
    6.9027  -13.5879   25.0929 N   0  0  0  0  0  0  0  0  0  0  0  0
    7.6025  -13.1236   26.2829 C   0  0  1  0  0  0  0  0  0  0  0  0
    6.6556  -12.3035   27.1644 C   0  0  0  0  0  0  0  0  0  0  0  0
    5.9013  -10.9820   26.1552 S   0  0  0  0  0  0  0  0  0  0  0  0
    8.0650  -14.2944   27.0543 C   0  0  0  0  0  0  0  0  0  0  0  0
    7.6371  -15.4461   26.8061 O   0  0  0  0  0  0  0  0  0  0  0  0
    8.9884  -14.1161   28.0702 O   0  0  0  0  0  0  0  0  0  0  0  0
  2  3  1  0
  2  1  1  1
  3  4  1  0
  4  8  1  0
  4  5  2  0
  6  2  1  0
  7  6  2  0
  9  6  1  0
 10 11  1  0
 10  9  1  0
 11 12  2  0
 13 14  1  0
 13 11  1  0
 14 15  1  1
 16 15  1  0
 17 19  1  0
 17 14  1  0
 18 17  2  0
M  END
$$$$
