DGC.pdb
     RDKit          3D

 19 18  0  0  1  0  0  0  0  0999 V2000
    9.0106  -17.6024   20.7446 N   0  0  0  0  0  0  0  0  0  0  0  0
   10.3456  -17.6376   21.3703 C   0  0  1  0  0  0  0  0  0  0  0  0
   11.2807  -17.1953   20.2678 C   0  0  0  0  0  0  0  0  0  0  0  0
   11.5981  -18.2269   19.2760 C   0  0  0  0  0  0  0  0  0  0  0  0
   11.4223  -19.4469   19.5211 O   0  0  0  0  0  0  0  0  0  0  0  0
   10.3050  -16.6780   22.5014 C   0  0  0  0  0  0  0  0  0  0  0  0
   11.3315  -16.4533   23.2220 O   0  0  0  0  0  0  0  0  0  0  0  0
   12.1049  -17.8968   18.0281 O   0  0  0  0  0  0  0  0  0  0  0  0
    9.1318  -15.9423   22.8635 N   0  0  0  0  0  0  0  0  0  0  0  0
    9.1553  -14.9449   23.9070 C   0  0  0  0  0  0  0  0  0  0  0  0
    9.4356  -15.4335   25.2457 C   0  0  0  0  0  0  0  0  0  0  0  0
    8.9191  -16.5174   25.6005 O   0  0  0  0  0  0  0  0  0  0  0  0
   10.2484  -14.7436   26.1417 N   0  0  0  0  0  0  0  0  0  0  0  0
   10.5250  -15.2064   27.4947 C   0  0  1  0  0  0  0  0  0  0  0  0
   11.9179  -14.7455   27.9346 C   0  0  0  0  0  0  0  0  0  0  0  0
   12.2280  -15.3346   29.6349 S   0  0  0  0  0  0  0  0  0  0  0  0
    9.5266  -14.6247   28.4137 C   0  0  0  0  0  0  0  0  0  0  0  0
    9.1751  -15.2257   29.4560 O   0  0  0  0  0  0  0  0  0  0  0  0
    8.9689  -13.3926   28.1181 O   0  0  0  0  0  0  0  0  0  0  0  0
  2  3  1  0
  2  1  1  6
  3  4  1  0
  4  8  1  0
  4  5  2  0
  6  2  1  0
  7  6  2  0
  9  6  1  0
 10 11  1  0
 10  9  1  0
 11 12  2  0
 13 14  1  0
 13 11  1  0
 14 15  1  1
 16 15  1  0
 17 19  1  0
 17 14  1  0
 18 17  2  0
M  END
$$$$
