DGC.pdb
     RDKit          3D

 19 18  0  0  1  0  0  0  0  0999 V2000
    8.2804  -17.8886   20.3976 N   0  0  0  0  0  0  0  0  0  0  0  0
    9.3276  -18.0789   21.4185 C   0  0  1  0  0  0  0  0  0  0  0  0
   10.4506  -17.1730   20.9672 C   0  0  0  0  0  0  0  0  0  0  0  0
   11.2084  -17.6578   19.8099 C   0  0  0  0  0  0  0  0  0  0  0  0
   11.1005  -18.8432   19.4067 O   0  0  0  0  0  0  0  0  0  0  0  0
    8.7367  -17.6526   22.7112 C   0  0  0  0  0  0  0  0  0  0  0  0
    9.3351  -17.8572   23.8173 O   0  0  0  0  0  0  0  0  0  0  0  0
   12.0740  -16.8270   19.1146 O   0  0  0  0  0  0  0  0  0  0  0  0
    7.4727  -16.9890   22.8143 N   0  0  0  0  0  0  0  0  0  0  0  0
    6.9969  -16.4568   24.0692 C   0  0  0  0  0  0  0  0  0  0  0  0
    7.6459  -15.2419   24.5301 C   0  0  0  0  0  0  0  0  0  0  0  0
    8.6040  -14.7922   23.8613 O   0  0  0  0  0  0  0  0  0  0  0  0
    7.2457  -14.5674   25.6809 N   0  0  0  0  0  0  0  0  0  0  0  0
    7.8824  -13.3477   26.1586 C   0  0  1  0  0  0  0  0  0  0  0  0
    6.8663  -12.4830   26.9109 C   0  0  0  0  0  0  0  0  0  0  0  0
    5.2189  -12.7132   26.1577 S   0  0  0  0  0  0  0  0  0  0  0  0
    8.9710  -13.7078   27.0886 C   0  0  0  0  0  0  0  0  0  0  0  0
    9.1325  -14.8899   27.4730 O   0  0  0  0  0  0  0  0  0  0  0  0
    9.8289  -12.7214   27.5440 O   0  0  0  0  0  0  0  0  0  0  0  0
  2  3  1  0
  2  1  1  6
  3  4  1  0
  4  8  1  0
  4  5  2  0
  6  2  1  0
  7  6  2  0
  9  6  1  0
 10 11  1  0
 10  9  1  0
 11 12  2  0
 13 14  1  0
 13 11  1  0
 14 15  1  1
 16 15  1  0
 17 19  1  0
 17 14  1  0
 18 17  2  0
M  END
$$$$
