DGC.pdb
     RDKit          3D

 19 18  0  0  1  0  0  0  0  0999 V2000
   10.3597  -16.6748   20.3209 N   0  0  0  0  0  0  0  0  0  0  0  0
    9.1256  -17.4818   20.2974 C   0  0  1  0  0  0  0  0  0  0  0  0
    9.5216  -18.7796   20.9640 C   0  0  0  0  0  0  0  0  0  0  0  0
   10.3687  -19.6579   20.1518 C   0  0  0  0  0  0  0  0  0  0  0  0
   10.0816  -19.9229   18.9574 O   0  0  0  0  0  0  0  0  0  0  0  0
    8.1146  -16.7263   21.0779 C   0  0  0  0  0  0  0  0  0  0  0  0
    6.8699  -16.8184   20.8217 O   0  0  0  0  0  0  0  0  0  0  0  0
   11.5204  -20.2308   20.6700 O   0  0  0  0  0  0  0  0  0  0  0  0
    8.4523  -15.8528   22.1602 N   0  0  0  0  0  0  0  0  0  0  0  0
    7.4386  -15.2637   23.0027 C   0  0  0  0  0  0  0  0  0  0  0  0
    7.9219  -14.4225   24.0835 C   0  0  0  0  0  0  0  0  0  0  0  0
    9.1570  -14.3595   24.2777 O   0  0  0  0  0  0  0  0  0  0  0  0
    7.0674  -13.6927   24.9061 N   0  0  0  0  0  0  0  0  0  0  0  0
    7.4807  -13.1056   26.1734 C   0  0  1  0  0  0  0  0  0  0  0  0
    6.2704  -12.5057   26.8955 C   0  0  0  0  0  0  0  0  0  0  0  0
    5.9499  -10.8361   26.2294 S   0  0  0  0  0  0  0  0  0  0  0  0
    8.0585  -14.1634   27.0259 C   0  0  0  0  0  0  0  0  0  0  0  0
    7.7897  -15.3724   26.8329 O   0  0  0  0  0  0  0  0  0  0  0  0
    8.9127  -13.8128   28.0573 O   0  0  0  0  0  0  0  0  0  0  0  0
  2  3  1  0
  2  1  1  1
  3  4  1  0
  4  8  1  0
  4  5  2  0
  6  2  1  0
  7  6  2  0
  9  6  1  0
 10 11  1  0
 10  9  1  0
 11 12  2  0
 13 14  1  0
 13 11  1  0
 14 15  1  1
 16 15  1  0
 17 19  1  0
 17 14  1  0
 18 17  2  0
M  END
$$$$
