DGC.pdb
     RDKit          3D

 19 18  0  0  1  0  0  0  0  0999 V2000
   -3.6915  -25.0289   29.2753 N   0  0  0  0  0  0  0  0  0  0  0  0
   -3.7296  -25.0706   30.7490 C   0  0  1  0  0  0  0  0  0  0  0  0
   -2.2756  -25.0023   31.1570 C   0  0  0  0  0  0  0  0  0  0  0  0
   -1.5347  -26.2593   31.0165 C   0  0  0  0  0  0  0  0  0  0  0  0
   -0.3086  -26.3298   31.2828 O   0  0  0  0  0  0  0  0  0  0  0  0
   -4.4995  -23.8787   31.1833 C   0  0  0  0  0  0  0  0  0  0  0  0
   -4.8250  -23.7036   32.4026 O   0  0  0  0  0  0  0  0  0  0  0  0
   -2.1582  -27.4201   30.5843 O   0  0  0  0  0  0  0  0  0  0  0  0
   -4.9268  -22.8509   30.2835 N   0  0  0  0  0  0  0  0  0  0  0  0
   -5.7116  -21.7266   30.7357 C   0  0  0  0  0  0  0  0  0  0  0  0
   -7.1315  -21.7821   30.4352 C   0  0  0  0  0  0  0  0  0  0  0  0
   -7.8471  -20.8133   30.7765 O   0  0  0  0  0  0  0  0  0  0  0  0
   -7.7202  -22.8666   29.7897 N   0  0  0  0  0  0  0  0  0  0  0  0
   -9.1270  -22.9105   29.4150 C   0  0  1  0  0  0  0  0  0  0  0  0
   -9.2997  -23.6895   28.1075 C   0  0  0  0  0  0  0  0  0  0  0  0
   -8.3791  -22.8351   26.7821 S   0  0  0  0  0  0  0  0  0  0  0  0
   -9.8844  -23.6026   30.4766 C   0  0  0  0  0  0  0  0  0  0  0  0
   -9.4892  -24.6936   30.9508 O   0  0  0  0  0  0  0  0  0  0  0  0
  -11.0525  -23.0357   30.9567 O   0  0  0  0  0  0  0  0  0  0  0  0
  2  3  1  0
  2  1  1  6
  3  4  1  0
  4  8  1  0
  4  5  2  0
  6  2  1  0
  7  6  2  0
  9  6  1  0
 10 11  1  0
 10  9  1  0
 11 12  2  0
 13 14  1  0
 13 11  1  0
 14 15  1  6
 16 15  1  0
 17 19  1  0
 17 14  1  0
 18 17  2  0
M  END
$$$$
