DGC.pdb
     RDKit          3D

 19 18  0  0  1  0  0  0  0  0999 V2000
    9.7394  -18.5235   21.7630 N   0  0  0  0  0  0  0  0  0  0  0  0
    9.9966  -17.1432   21.3116 C   0  0  1  0  0  0  0  0  0  0  0  0
    9.6656  -17.1704   19.8368 C   0  0  0  0  0  0  0  0  0  0  0  0
   10.8065  -17.4242   18.9521 C   0  0  0  0  0  0  0  0  0  0  0  0
   11.8565  -17.9681   19.3776 O   0  0  0  0  0  0  0  0  0  0  0  0
    9.0790  -16.2704   22.0851 C   0  0  0  0  0  0  0  0  0  0  0  0
    9.1090  -15.0020   21.9681 O   0  0  0  0  0  0  0  0  0  0  0  0
   10.7717  -17.0738   17.6109 O   0  0  0  0  0  0  0  0  0  0  0  0
    8.1054  -16.7759   23.0045 N   0  0  0  0  0  0  0  0  0  0  0  0
    7.2144  -15.8965   23.7236 C   0  0  0  0  0  0  0  0  0  0  0  0
    7.8304  -15.0622   24.7405 C   0  0  0  0  0  0  0  0  0  0  0  0
    9.0714  -15.1310   24.8907 O   0  0  0  0  0  0  0  0  0  0  0  0
    7.0956  -14.1988   25.5491 N   0  0  0  0  0  0  0  0  0  0  0  0
    7.7017  -13.2968   26.5190 C   0  0  1  0  0  0  0  0  0  0  0  0
    6.6177  -12.4752   27.2232 C   0  0  0  0  0  0  0  0  0  0  0  0
    5.5714  -11.6693   25.9623 S   0  0  0  0  0  0  0  0  0  0  0  0
    8.4181  -14.0951   27.5334 C   0  0  0  0  0  0  0  0  0  0  0  0
    8.2841  -15.3400   27.5939 O   0  0  0  0  0  0  0  0  0  0  0  0
    9.2531  -13.4564   28.4341 O   0  0  0  0  0  0  0  0  0  0  0  0
  2  3  1  0
  2  1  1  1
  3  4  1  0
  4  8  1  0
  4  5  2  0
  6  2  1  0
  7  6  2  0
  9  6  1  0
 10 11  1  0
 10  9  1  0
 11 12  2  0
 13 14  1  0
 13 11  1  0
 14 15  1  1
 16 15  1  0
 17 19  1  0
 17 14  1  0
 18 17  2  0
M  END
$$$$
