DGC.pdb
     RDKit          3D

 19 18  0  0  1  0  0  0  0  0999 V2000
   10.6647  -17.4888   20.8107 N   0  0  0  0  0  0  0  0  0  0  0  0
    9.8386  -18.3066   21.7183 C   0  0  1  0  0  0  0  0  0  0  0  0
   10.7844  -18.6873   22.8345 C   0  0  0  0  0  0  0  0  0  0  0  0
   11.9347  -19.4962   22.4208 C   0  0  0  0  0  0  0  0  0  0  0  0
   13.0444  -18.9691   22.1560 O   0  0  0  0  0  0  0  0  0  0  0  0
    8.7328  -17.4325   22.1822 C   0  0  0  0  0  0  0  0  0  0  0  0
    7.7160  -17.9076   22.7853 O   0  0  0  0  0  0  0  0  0  0  0  0
   11.8432  -20.8751   22.3054 O   0  0  0  0  0  0  0  0  0  0  0  0
    8.7233  -16.0137   21.9935 N   0  0  0  0  0  0  0  0  0  0  0  0
    7.6548  -15.1888   22.5055 C   0  0  0  0  0  0  0  0  0  0  0  0
    7.9685  -14.4056   23.6877 C   0  0  0  0  0  0  0  0  0  0  0  0
    9.1698  -14.2934   24.0219 O   0  0  0  0  0  0  0  0  0  0  0  0
    6.9889  -13.7834   24.4576 N   0  0  0  0  0  0  0  0  0  0  0  0
    7.2878  -12.9152   25.5882 C   0  0  1  0  0  0  0  0  0  0  0  0
    6.0291  -12.1538   26.0148 C   0  0  0  0  0  0  0  0  0  0  0  0
    6.4658  -10.9868   27.3495 S   0  0  0  0  0  0  0  0  0  0  0  0
    7.7411  -13.7444   26.7225 C   0  0  0  0  0  0  0  0  0  0  0  0
    8.4487  -13.2621   27.6379 O   0  0  0  0  0  0  0  0  0  0  0  0
    7.3776  -15.0792   26.7754 O   0  0  0  0  0  0  0  0  0  0  0  0
  2  3  1  0
  2  1  1  6
  3  4  1  0
  4  8  1  0
  4  5  2  0
  6  2  1  0
  7  6  2  0
  9  6  1  0
 10 11  1  0
 10  9  1  0
 11 12  2  0
 13 14  1  0
 13 11  1  0
 14 15  1  1
 16 15  1  0
 17 19  1  0
 17 14  1  0
 18 17  2  0
M  END
$$$$
