TCL.pdb
     RDKit          3D

 22 21  0  0  1  0  0  0  0  0999 V2000
   19.0730  -13.1394  -19.0878 C   0  0  0  0  0  0  0  0  0  0  0  0
   18.8945  -12.0133  -18.1236 C   0  0  1  0  0  0  0  0  0  0  0  0
   19.4361  -12.3158  -16.8570 O   0  0  0  0  0  0  0  0  0  0  0  0
   19.4959  -10.7171  -18.5579 C   0  0  2  0  0  0  0  0  0  0  0  0
   20.9119  -10.7737  -18.7446 N   0  0  0  0  0  0  0  0  0  0  0  0
   19.1031   -9.6443  -17.5831 C   0  0  0  0  0  0  0  0  0  0  0  0
   17.8988   -9.4219  -17.3022 O   0  0  0  0  0  0  0  0  0  0  0  0
   20.0759   -8.8243  -16.9276 N   0  0  0  0  0  0  0  0  0  0  0  0
   19.7207   -7.7865  -16.0014 C   0  0  1  0  0  0  0  0  0  0  0  0
   20.3795   -7.9375  -14.6558 C   0  0  0  0  0  0  0  0  0  0  0  0
   22.0997   -8.4776  -14.8482 S   0  0  0  0  0  0  0  0  0  0  0  0
   19.9130   -6.4269  -16.5702 C   0  0  0  0  0  0  0  0  0  0  0  0
   20.9435   -6.1847  -17.2644 O   0  0  0  0  0  0  0  0  0  0  0  0
   17.3839   -2.6248  -20.1636 C   0  0  0  0  0  0  0  0  0  0  0  0
   18.1941   -2.6913  -18.9227 C   0  0  1  0  0  0  0  0  0  0  0  0
   17.8161   -1.4736  -18.0595 C   0  0  0  0  0  0  0  0  0  0  0  0
   18.2680   -3.9207  -18.1459 C   0  0  0  0  0  0  0  0  0  0  0  0
   19.1580   -4.0342  -16.9816 C   0  0  2  0  0  0  0  0  0  0  0  0
   18.9999   -5.3856  -16.3750 N   0  0  0  0  0  0  0  0  0  0  0  0
   18.8632   -3.1256  -15.9011 C   0  0  0  0  0  0  0  0  0  0  0  0
   19.5334   -1.9425  -15.7300 O   0  0  0  0  0  0  0  0  0  0  0  0
   17.9751   -3.3890  -15.0586 O   0  0  0  0  0  0  0  0  0  0  0  0
  2  1  1  6
  2  3  1  0
  2  4  1  0
  4  5  1  1
  6  4  1  0
  7  6  2  0
  8  6  1  0
  9  8  1  0
  9 12  1  0
  9 10  1  1
 11 10  1  0
 12 19  1  0
 13 12  2  0
 15 14  1  6
 16 15  1  0
 17 15  1  0
 18 17  1  6
 18 20  1  0
 19 18  1  0
 20 21  1  0
 22 20  2  0
M  END
$$$$
