TCL.pdb
     RDKit          3D

 22 21  0  0  1  0  0  0  0  0999 V2000
   27.1939  -10.5660  -15.7580 C   0  0  0  0  0  0  0  0  0  0  0  0
   27.7694  -11.3350  -16.9013 C   0  0  1  0  0  0  0  0  0  0  0  0
   28.6048  -12.3828  -16.4617 O   0  0  0  0  0  0  0  0  0  0  0  0
   26.7588  -11.9382  -17.8207 C   0  0  2  0  0  0  0  0  0  0  0  0
   27.3304  -12.7321  -18.8628 N   0  0  0  0  0  0  0  0  0  0  0  0
   25.8810  -10.8483  -18.3660 C   0  0  0  0  0  0  0  0  0  0  0  0
   26.1059  -10.3229  -19.4849 O   0  0  0  0  0  0  0  0  0  0  0  0
   24.7491  -10.3550  -17.6423 N   0  0  0  0  0  0  0  0  0  0  0  0
   23.8174   -9.4166  -18.2016 C   0  0  1  0  0  0  0  0  0  0  0  0
   23.2225   -9.8736  -19.5072 C   0  0  0  0  0  0  0  0  0  0  0  0
   21.9971   -8.6759  -20.1001 S   0  0  0  0  0  0  0  0  0  0  0  0
   22.7762   -8.9999  -17.2265 C   0  0  0  0  0  0  0  0  0  0  0  0
   22.1192   -9.8849  -16.6039 O   0  0  0  0  0  0  0  0  0  0  0  0
   21.0304   -6.2133  -12.8031 C   0  0  0  0  0  0  0  0  0  0  0  0
   21.4783   -5.4853  -14.0156 C   0  0  1  0  0  0  0  0  0  0  0  0
   22.2059   -4.2120  -13.5463 C   0  0  0  0  0  0  0  0  0  0  0  0
   22.1974   -6.1762  -15.0766 C   0  0  0  0  0  0  0  0  0  0  0  0
   21.5519   -7.2280  -15.8751 C   0  0  2  0  0  0  0  0  0  0  0  0
   22.4803   -7.6596  -16.9573 N   0  0  0  0  0  0  0  0  0  0  0  0
   20.3613   -6.8139  -16.5758 C   0  0  0  0  0  0  0  0  0  0  0  0
   19.1114   -6.9035  -16.0208 O   0  0  0  0  0  0  0  0  0  0  0  0
   20.4219   -6.3565  -17.7398 O   0  0  0  0  0  0  0  0  0  0  0  0
  2  1  1  1
  2  3  1  0
  2  4  1  0
  4  5  1  6
  6  4  1  0
  7  6  2  0
  8  6  1  0
  9  8  1  0
  9 12  1  0
  9 10  1  6
 11 10  1  0
 12 19  1  0
 13 12  2  0
 15 14  1  1
 16 15  1  0
 17 15  1  0
 18 17  1  6
 18 20  1  0
 19 18  1  0
 20 21  1  0
 22 20  2  0
M  END
$$$$
