TCL.pdb
     RDKit          3D

 22 21  0  0  1  0  0  0  0  0999 V2000
   18.5671  -12.0649  -18.7829 C   0  0  0  0  0  0  0  0  0  0  0  0
   18.4804  -13.2121  -17.8312 C   0  0  1  0  0  0  0  0  0  0  0  0
   18.0703  -14.3983  -18.4747 O   0  0  0  0  0  0  0  0  0  0  0  0
   19.7504  -13.5231  -17.1095 C   0  0  2  0  0  0  0  0  0  0  0  0
   19.6890  -14.7162  -16.3249 N   0  0  0  0  0  0  0  0  0  0  0  0
   20.1493  -12.3324  -16.2856 C   0  0  0  0  0  0  0  0  0  0  0  0
   19.4059  -11.8844  -15.3772 O   0  0  0  0  0  0  0  0  0  0  0  0
   21.3905  -11.6505  -16.4924 N   0  0  0  0  0  0  0  0  0  0  0  0
   21.7752  -10.4905  -15.7391 C   0  0  1  0  0  0  0  0  0  0  0  0
   23.2665  -10.3426  -15.5925 C   0  0  0  0  0  0  0  0  0  0  0  0
   23.9288  -11.6345  -14.5062 S   0  0  0  0  0  0  0  0  0  0  0  0
   21.1356   -9.2475  -16.2437 C   0  0  0  0  0  0  0  0  0  0  0  0
   21.1295   -9.0136  -17.4878 O   0  0  0  0  0  0  0  0  0  0  0  0
   17.4001   -5.5331  -17.2853 C   0  0  0  0  0  0  0  0  0  0  0  0
   17.5883   -5.9603  -15.8771 C   0  0  1  0  0  0  0  0  0  0  0  0
   16.1902   -6.1024  -15.2478 C   0  0  0  0  0  0  0  0  0  0  0  0
   18.4613   -7.0781  -15.5479 C   0  0  0  0  0  0  0  0  0  0  0  0
   19.8889   -7.0588  -15.8973 C   0  0  2  0  0  0  0  0  0  0  0  0
   20.5307   -8.3086  -15.4018 N   0  0  0  0  0  0  0  0  0  0  0  0
   20.6510   -6.0017  -15.2793 C   0  0  0  0  0  0  0  0  0  0  0  0
   20.8141   -4.7728  -15.8636 O   0  0  0  0  0  0  0  0  0  0  0  0
   21.2092   -6.1696  -14.1712 O   0  0  0  0  0  0  0  0  0  0  0  0
  2  1  1  6
  2  3  1  0
  2  4  1  0
  4  5  1  1
  6  4  1  0
  7  6  2  0
  8  6  1  0
  9  8  1  0
  9 12  1  0
  9 10  1  6
 11 10  1  0
 12 19  1  0
 13 12  2  0
 15 14  1  6
 16 15  1  0
 17 15  1  0
 18 17  1  1
 18 20  1  0
 19 18  1  0
 20 21  1  0
 22 20  2  0
M  END
$$$$
