TCL.pdb
     RDKit          3D

 22 21  0  0  1  0  0  0  0  0999 V2000
   25.5390  -23.4577  -14.4653 C   0  0  0  0  0  0  0  0  0  0  0  0
   24.0625  -23.3805  -14.6740 C   0  0  1  0  0  0  0  0  0  0  0  0
   23.7284  -22.5397  -15.7560 O   0  0  0  0  0  0  0  0  0  0  0  0
   23.3963  -24.6944  -14.9196 C   0  0  2  0  0  0  0  0  0  0  0  0
   23.9332  -25.4125  -16.0327 N   0  0  0  0  0  0  0  0  0  0  0  0
   21.9169  -24.4749  -15.0571 C   0  0  0  0  0  0  0  0  0  0  0  0
   21.3174  -24.7033  -16.1374 O   0  0  0  0  0  0  0  0  0  0  0  0
   21.1185  -23.9966  -13.9699 N   0  0  0  0  0  0  0  0  0  0  0  0
   19.7170  -23.7135  -14.1002 C   0  0  1  0  0  0  0  0  0  0  0  0
   18.9183  -24.0824  -12.8782 C   0  0  0  0  0  0  0  0  0  0  0  0
   19.2780  -25.7870  -12.3755 S   0  0  0  0  0  0  0  0  0  0  0  0
   19.4577  -22.3175  -14.5389 C   0  0  0  0  0  0  0  0  0  0  0  0
   19.9515  -21.3574  -13.8779 O   0  0  0  0  0  0  0  0  0  0  0  0
   19.2376  -20.6970  -19.9065 C   0  0  0  0  0  0  0  0  0  0  0  0
   19.3989  -20.7185  -18.4319 C   0  0  1  0  0  0  0  0  0  0  0  0
   20.5319  -19.7378  -18.0778 C   0  0  0  0  0  0  0  0  0  0  0  0
   18.2462  -20.5750  -17.5540 C   0  0  0  0  0  0  0  0  0  0  0  0
   18.3928  -20.6090  -16.0918 C   0  0  2  0  0  0  0  0  0  0  0  0
   18.6846  -22.0051  -15.6618 N   0  0  0  0  0  0  0  0  0  0  0  0
   17.2057  -20.2532  -15.3541 C   0  0  0  0  0  0  0  0  0  0  0  0
   16.9281  -18.9634  -14.9830 O   0  0  0  0  0  0  0  0  0  0  0  0
   16.3726  -21.1226  -15.0110 O   0  0  0  0  0  0  0  0  0  0  0  0
  2  1  1  6
  2  3  1  0
  2  4  1  0
  4  5  1  6
  6  4  1  0
  7  6  2  0
  8  6  1  0
  9  8  1  0
  9 12  1  0
  9 10  1  1
 11 10  1  0
 12 19  1  0
 13 12  2  0
 15 14  1  6
 16 15  1  0
 17 15  1  0
 18 17  1  6
 18 20  1  0
 19 18  1  0
 20 21  1  0
 22 20  2  0
M  END
$$$$
