TCL.pdb
     RDKit          3D

 22 21  0  0  1  0  0  0  0  0999 V2000
   14.1714  -12.2687  -17.0158 C   0  0  0  0  0  0  0  0  0  0  0  0
   14.8151  -11.3839  -15.9999 C   0  0  1  0  0  0  0  0  0  0  0  0
   14.0665  -11.3240  -14.8061 O   0  0  0  0  0  0  0  0  0  0  0  0
   16.2070  -11.7733  -15.6239 C   0  0  2  0  0  0  0  0  0  0  0  0
   16.2901  -13.0296  -14.9472 N   0  0  0  0  0  0  0  0  0  0  0  0
   16.8258  -10.6645  -14.8218 C   0  0  0  0  0  0  0  0  0  0  0  0
   16.7820  -10.6598  -13.5661 O   0  0  0  0  0  0  0  0  0  0  0  0
   17.4935   -9.5621  -15.4439 N   0  0  0  0  0  0  0  0  0  0  0  0
   17.9620   -8.4216  -14.7084 C   0  0  1  0  0  0  0  0  0  0  0  0
   19.4472   -8.2040  -14.8283 C   0  0  0  0  0  0  0  0  0  0  0  0
   20.3475   -9.3799  -13.7821 S   0  0  0  0  0  0  0  0  0  0  0  0
   17.1885   -7.1903  -15.0157 C   0  0  0  0  0  0  0  0  0  0  0  0
   16.9037   -6.9206  -16.2193 O   0  0  0  0  0  0  0  0  0  0  0  0
   12.4666   -5.6175  -12.8965 C   0  0  0  0  0  0  0  0  0  0  0  0
   13.6477   -5.6769  -13.7922 C   0  0  1  0  0  0  0  0  0  0  0  0
   13.1490   -5.4371  -15.2291 C   0  0  0  0  0  0  0  0  0  0  0  0
   14.8520   -4.9168  -13.4888 C   0  0  0  0  0  0  0  0  0  0  0  0
   16.0518   -5.0214  -14.3315 C   0  0  2  0  0  0  0  0  0  0  0  0
   16.7524   -6.3007  -14.0285 N   0  0  0  0  0  0  0  0  0  0  0  0
   17.0501   -4.0077  -14.0950 C   0  0  0  0  0  0  0  0  0  0  0  0
   18.2165   -4.2654  -13.4230 O   0  0  0  0  0  0  0  0  0  0  0  0
   16.8852   -2.8322  -14.4930 O   0  0  0  0  0  0  0  0  0  0  0  0
  2  1  1  6
  2  3  1  0
  2  4  1  0
  4  5  1  1
  6  4  1  0
  7  6  2  0
  8  6  1  0
  9  8  1  0
  9 12  1  0
  9 10  1  6
 11 10  1  0
 12 19  1  0
 13 12  2  0
 15 14  1  1
 16 15  1  0
 17 15  1  0
 18 17  1  1
 18 20  1  0
 19 18  1  0
 20 21  1  0
 22 20  2  0
M  END
$$$$
