TCL.pdb
     RDKit          3D

 22 21  0  0  1  0  0  0  0  0999 V2000
   18.9958  -13.4909  -14.7024 C   0  0  0  0  0  0  0  0  0  0  0  0
   17.9955  -12.7369  -15.5150 C   0  0  1  0  0  0  0  0  0  0  0  0
   18.1039  -11.3442  -15.3210 O   0  0  0  0  0  0  0  0  0  0  0  0
   18.0739  -12.9806  -16.9863 C   0  0  2  0  0  0  0  0  0  0  0  0
   17.8319  -14.3393  -17.3582 N   0  0  0  0  0  0  0  0  0  0  0  0
   19.3996  -12.4900  -17.4938 C   0  0  0  0  0  0  0  0  0  0  0  0
   20.4129  -13.2327  -17.5066 O   0  0  0  0  0  0  0  0  0  0  0  0
   19.5754  -11.1577  -17.9862 N   0  0  0  0  0  0  0  0  0  0  0  0
   20.8062  -10.6993  -18.5659 C   0  0  1  0  0  0  0  0  0  0  0  0
   20.6054   -9.7922  -19.7510 C   0  0  0  0  0  0  0  0  0  0  0  0
   22.2037   -9.3011  -20.4525 S   0  0  0  0  0  0  0  0  0  0  0  0
   21.7242  -10.1088  -17.5573 C   0  0  0  0  0  0  0  0  0  0  0  0
   21.2566   -9.3386  -16.6682 O   0  0  0  0  0  0  0  0  0  0  0  0
   26.3681  -10.3078  -14.2900 C   0  0  0  0  0  0  0  0  0  0  0  0
   26.4406  -10.1158  -15.7592 C   0  0  1  0  0  0  0  0  0  0  0  0
   27.7741  -10.7189  -16.2377 C   0  0  0  0  0  0  0  0  0  0  0  0
   25.3237  -10.4892  -16.6156 C   0  0  0  0  0  0  0  0  0  0  0  0
   24.0191   -9.8220  -16.5008 C   0  0  2  0  0  0  0  0  0  0  0  0
   23.0992  -10.3644  -17.5395 N   0  0  0  0  0  0  0  0  0  0  0  0
   24.0388   -8.4022  -16.7536 C   0  0  0  0  0  0  0  0  0  0  0  0
   24.2771   -7.8789  -17.9977 O   0  0  0  0  0  0  0  0  0  0  0  0
   23.8441   -7.5783  -15.8312 O   0  0  0  0  0  0  0  0  0  0  0  0
  2  1  1  1
  2  3  1  0
  2  4  1  0
  4  5  1  1
  6  4  1  0
  7  6  2  0
  8  6  1  0
  9  8  1  0
  9 12  1  0
  9 10  1  6
 11 10  1  0
 12 19  1  0
 13 12  2  0
 15 14  1  1
 16 15  1  0
 17 15  1  0
 18 17  1  6
 18 20  1  0
 19 18  1  0
 20 21  1  0
 22 20  2  0
M  END
$$$$
