TCL.pdb
     RDKit          3D

 22 21  0  0  1  0  0  0  0  0999 V2000
   19.9226  -15.5395  -16.5687 C   0  0  0  0  0  0  0  0  0  0  0  0
   18.5196  -15.7862  -17.0161 C   0  0  1  0  0  0  0  0  0  0  0  0
   18.0535  -17.0533  -16.6085 O   0  0  0  0  0  0  0  0  0  0  0  0
   17.5249  -14.7800  -16.5379 C   0  0  2  0  0  0  0  0  0  0  0  0
   16.1783  -15.0790  -16.9128 N   0  0  0  0  0  0  0  0  0  0  0  0
   17.9452  -13.4159  -17.0048 C   0  0  0  0  0  0  0  0  0  0  0  0
   17.6581  -12.9986  -18.1545 O   0  0  0  0  0  0  0  0  0  0  0  0
   18.6910  -12.5261  -16.1678 N   0  0  0  0  0  0  0  0  0  0  0  0
   19.1091  -11.2217  -16.5978 C   0  0  1  0  0  0  0  0  0  0  0  0
   17.9756  -10.3686  -17.1026 C   0  0  0  0  0  0  0  0  0  0  0  0
   16.7419  -10.1157  -15.7981 S   0  0  0  0  0  0  0  0  0  0  0  0
   19.9254  -10.5201  -15.5730 C   0  0  0  0  0  0  0  0  0  0  0  0
   19.5813  -10.5823  -14.3564 O   0  0  0  0  0  0  0  0  0  0  0  0
   25.4764  -10.3171  -15.8384 C   0  0  0  0  0  0  0  0  0  0  0  0
   24.0720  -10.3189  -15.3606 C   0  0  1  0  0  0  0  0  0  0  0  0
   24.0381  -11.0963  -14.0319 C   0  0  0  0  0  0  0  0  0  0  0  0
   23.3037   -9.0835  -15.3004 C   0  0  0  0  0  0  0  0  0  0  0  0
   21.8988   -9.0799  -14.8685 C   0  0  2  0  0  0  0  0  0  0  0  0
   21.0717   -9.7835  -15.8885 N   0  0  0  0  0  0  0  0  0  0  0  0
   21.2978   -7.7727  -14.7675 C   0  0  0  0  0  0  0  0  0  0  0  0
   21.4215   -6.9897  -13.6496 O   0  0  0  0  0  0  0  0  0  0  0  0
   20.6222   -7.2970  -15.7083 O   0  0  0  0  0  0  0  0  0  0  0  0
  2  1  1  1
  2  3  1  0
  2  4  1  0
  4  5  1  6
  6  4  1  0
  7  6  2  0
  8  6  1  0
  9  8  1  0
  9 12  1  0
  9 10  1  1
 11 10  1  0
 12 19  1  0
 13 12  2  0
 15 14  1  1
 16 15  1  0
 17 15  1  0
 18 17  1  6
 18 20  1  0
 19 18  1  0
 20 21  1  0
 22 20  2  0
M  END
$$$$
