TCL.pdb
     RDKit          3D

 22 21  0  0  1  0  0  0  0  0999 V2000
   24.1451  -36.2281    6.1362 C   0  0  0  0  0  0  0  0  0  0  0  0
   25.2980  -36.8723    5.4397 C   0  0  1  0  0  0  0  0  0  0  0  0
   25.0722  -38.2455    5.2103 O   0  0  0  0  0  0  0  0  0  0  0  0
   25.6536  -36.2621    4.1238 C   0  0  2  0  0  0  0  0  0  0  0  0
   26.7049  -36.9457    3.4378 N   0  0  0  0  0  0  0  0  0  0  0  0
   25.9723  -34.8088    4.3283 C   0  0  0  0  0  0  0  0  0  0  0  0
   26.9799  -34.4440    4.9843 O   0  0  0  0  0  0  0  0  0  0  0  0
   25.1483  -33.7702    3.7890 N   0  0  0  0  0  0  0  0  0  0  0  0
   25.4339  -32.3756    3.9753 C   0  0  1  0  0  0  0  0  0  0  0  0
   24.7829  -31.4911    2.9451 C   0  0  0  0  0  0  0  0  0  0  0  0
   25.7272  -31.5180    1.3974 S   0  0  0  0  0  0  0  0  0  0  0  0
   25.1563  -31.9190    5.3621 C   0  0  0  0  0  0  0  0  0  0  0  0
   24.0435  -32.1989    5.8965 O   0  0  0  0  0  0  0  0  0  0  0  0
   29.0836  -31.6341    9.4163 C   0  0  0  0  0  0  0  0  0  0  0  0
   27.8032  -31.7684    8.6792 C   0  0  1  0  0  0  0  0  0  0  0  0
   26.9142  -32.7432    9.4732 C   0  0  0  0  0  0  0  0  0  0  0  0
   27.0734  -30.5903    8.2325 C   0  0  0  0  0  0  0  0  0  0  0  0
   25.8022  -30.7118    7.5045 C   0  0  2  0  0  0  0  0  0  0  0  0
   26.0755  -31.1848    6.1186 N   0  0  0  0  0  0  0  0  0  0  0  0
   25.0873  -29.4729    7.3201 C   0  0  0  0  0  0  0  0  0  0  0  0
   24.3751  -28.8764    8.3278 O   0  0  0  0  0  0  0  0  0  0  0  0
   25.0819  -28.8878    6.2131 O   0  0  0  0  0  0  0  0  0  0  0  0
  2  1  1  6
  2  3  1  0
  2  4  1  0
  4  5  1  1
  6  4  1  0
  7  6  2  0
  8  6  1  0
  9  8  1  0
  9 12  1  0
  9 10  1  6
 11 10  1  0
 12 19  1  0
 13 12  2  0
 15 14  1  1
 16 15  1  0
 17 15  1  0
 18 17  1  1
 18 20  1  0
 19 18  1  0
 20 21  1  0
 22 20  2  0
M  END
$$$$
