TCL.pdb
     RDKit          3D

 22 21  0  0  1  0  0  0  0  0999 V2000
   18.8337  -29.5788  -12.0284 C   0  0  0  0  0  0  0  0  0  0  0  0
   18.8983  -28.7611  -10.7807 C   0  0  1  0  0  0  0  0  0  0  0  0
   19.3429  -29.5199   -9.6781 O   0  0  0  0  0  0  0  0  0  0  0  0
   19.7786  -27.5578  -10.8667 C   0  0  2  0  0  0  0  0  0  0  0  0
   21.1498  -27.8655  -11.1278 N   0  0  0  0  0  0  0  0  0  0  0  0
   19.6172  -26.7427   -9.6157 C   0  0  0  0  0  0  0  0  0  0  0  0
   20.5785  -26.5491   -8.8302 O   0  0  0  0  0  0  0  0  0  0  0  0
   18.3661  -26.1480   -9.2561 N   0  0  0  0  0  0  0  0  0  0  0  0
   18.2285  -25.2279   -8.1626 C   0  0  1  0  0  0  0  0  0  0  0  0
   17.7347  -23.8695   -8.5852 C   0  0  0  0  0  0  0  0  0  0  0  0
   19.0501  -22.9503   -9.4293 S   0  0  0  0  0  0  0  0  0  0  0  0
   17.4298  -25.7912   -7.0430 C   0  0  0  0  0  0  0  0  0  0  0  0
   16.3957  -26.4744   -7.3006 O   0  0  0  0  0  0  0  0  0  0  0  0
   19.6625  -27.1531   -2.0127 C   0  0  0  0  0  0  0  0  0  0  0  0
   18.8262  -27.0986   -3.2368 C   0  0  1  0  0  0  0  0  0  0  0  0
   18.3869  -28.5387   -3.5594 C   0  0  0  0  0  0  0  0  0  0  0  0
   17.7307  -26.1460   -3.3491 C   0  0  0  0  0  0  0  0  0  0  0  0
   16.9139  -26.0642   -4.5684 C   0  0  2  0  0  0  0  0  0  0  0  0
   17.7673  -25.6027   -5.6988 N   0  0  0  0  0  0  0  0  0  0  0  0
   15.8429  -25.0996   -4.5180 C   0  0  0  0  0  0  0  0  0  0  0  0
   15.9631  -23.8377   -5.0392 O   0  0  0  0  0  0  0  0  0  0  0  0
   14.7466  -25.3778   -3.9810 O   0  0  0  0  0  0  0  0  0  0  0  0
  2  1  1  6
  2  3  1  0
  2  4  1  0
  4  5  1  1
  6  4  1  0
  7  6  2  0
  8  6  1  0
  9  8  1  0
  9 12  1  0
  9 10  1  6
 11 10  1  0
 12 19  1  0
 13 12  2  0
 15 14  1  1
 16 15  1  0
 17 15  1  0
 18 17  1  1
 18 20  1  0
 19 18  1  0
 20 21  1  0
 22 20  2  0
M  END
$$$$
