TCL.pdb
     RDKit          3D

 22 21  0  0  1  0  0  0  0  0999 V2000
   19.3465  -10.4186  -17.6613 C   0  0  0  0  0  0  0  0  0  0  0  0
   17.9060  -10.6316  -17.9920 C   0  0  1  0  0  0  0  0  0  0  0  0
   17.6859  -11.8874  -18.5949 O   0  0  0  0  0  0  0  0  0  0  0  0
   16.9766  -10.5373  -16.8267 C   0  0  2  0  0  0  0  0  0  0  0  0
   15.6120  -10.8063  -17.1560 N   0  0  0  0  0  0  0  0  0  0  0  0
   17.1404   -9.1930  -16.1775 C   0  0  0  0  0  0  0  0  0  0  0  0
   16.6609   -8.1525  -16.6932 O   0  0  0  0  0  0  0  0  0  0  0  0
   17.8477   -9.0294  -14.9441 N   0  0  0  0  0  0  0  0  0  0  0  0
   18.0845   -7.7449  -14.3481 C   0  0  1  0  0  0  0  0  0  0  0  0
   17.3914   -7.5656  -13.0234 C   0  0  0  0  0  0  0  0  0  0  0  0
   18.1253   -8.6521  -11.7709 S   0  0  0  0  0  0  0  0  0  0  0  0
   19.5307   -7.4107  -14.2739 C   0  0  0  0  0  0  0  0  0  0  0  0
   20.3713   -8.3345  -14.0675 O   0  0  0  0  0  0  0  0  0  0  0  0
   23.8703   -6.9542  -17.3002 C   0  0  0  0  0  0  0  0  0  0  0  0
   23.3780   -6.5311  -15.9663 C   0  0  1  0  0  0  0  0  0  0  0  0
   24.4046   -5.5392  -15.3893 C   0  0  0  0  0  0  0  0  0  0  0  0
   22.0062   -6.0764  -15.7881 C   0  0  0  0  0  0  0  0  0  0  0  0
   21.4702   -5.7764  -14.4527 C   0  0  2  0  0  0  0  0  0  0  0  0
   20.0182   -6.1083  -14.4226 N   0  0  0  0  0  0  0  0  0  0  0  0
   21.5221   -4.3852  -14.0760 C   0  0  0  0  0  0  0  0  0  0  0  0
   22.6378   -3.8133  -13.5223 O   0  0  0  0  0  0  0  0  0  0  0  0
   20.5325   -3.6348  -14.2347 O   0  0  0  0  0  0  0  0  0  0  0  0
  2  1  1  1
  2  3  1  0
  2  4  1  0
  4  5  1  6
  6  4  1  0
  7  6  2  0
  8  6  1  0
  9  8  1  0
  9 12  1  0
  9 10  1  1
 11 10  1  0
 12 19  1  0
 13 12  2  0
 15 14  1  6
 16 15  1  0
 17 15  1  0
 18 17  1  6
 18 20  1  0
 19 18  1  0
 20 21  1  0
 22 20  2  0
M  END
$$$$
