PSK.pdb
     RDKit          3D

 23 23  0  0  1  0  0  0  0  0999 V2000
   19.7813  -22.0425  -17.4955 N   0  0  0  0  0  0  0  0  0  0  0  0
   20.6333  -22.7905  -18.3848 C   0  0  0  0  0  0  0  0  0  0  0  0
   20.0756  -24.1768  -18.5000 C   0  0  0  0  0  0  0  0  0  0  0  0
   18.6649  -24.0011  -17.9334 C   0  0  0  0  0  0  0  0  0  0  0  0
   18.9326  -22.9994  -16.8261 C   0  0  1  0  0  0  0  0  0  0  0  0
   19.7038  -23.6750  -15.7652 C   0  0  0  0  0  0  0  0  0  0  0  0
   20.9275  -23.9017  -15.9689 O   0  0  0  0  0  0  0  0  0  0  0  0
   18.2989  -23.7086  -11.8778 O   0  0  0  0  0  0  0  0  0  0  0  0
   19.6412  -23.7380  -12.2423 C   0  0  0  0  0  0  0  0  0  0  0  0
   19.8732  -24.5955  -13.4654 C   0  0  2  0  0  0  0  0  0  0  0  0
   19.0788  -24.0667  -14.5283 N   0  0  0  0  0  0  0  0  0  0  0  0
   19.6078  -26.0269  -13.2031 C   0  0  0  0  0  0  0  0  0  0  0  0
   18.4394  -26.4866  -13.4308 O   0  0  0  0  0  0  0  0  0  0  0  0
   20.5403  -26.9411  -12.7185 N   0  0  0  0  0  0  0  0  0  0  0  0
   20.1973  -28.3138  -12.3645 C   0  0  1  0  0  0  0  0  0  0  0  0
   21.3778  -29.1667  -12.1742 C   0  0  0  0  0  0  0  0  0  0  0  0
   21.0245  -30.5843  -11.8586 C   0  0  0  0  0  0  0  0  0  0  0  0
   22.2188  -31.4488  -11.5502 C   0  0  0  0  0  0  0  0  0  0  0  0
   21.6653  -32.8054  -11.1096 C   0  0  0  0  0  0  0  0  0  0  0  0
   22.7359  -33.7444  -10.8531 N   0  0  0  0  0  0  0  0  0  0  0  0
   19.3621  -28.2225  -11.1607 C   0  0  0  0  0  0  0  0  0  0  0  0
   19.5306  -27.2085  -10.2282 O   0  0  0  0  0  0  0  0  0  0  0  0
   18.4668  -29.0544  -10.9288 O   0  0  0  0  0  0  0  0  0  0  0  0
  1  5  1  0
  1  2  1  0
  2  3  1  0
  3  4  1  0
  5  6  1  1
  5  4  1  0
  6 11  1  0
  7  6  2  0
  8  9  1  0
 10  9  1  1
 10 12  1  0
 11 10  1  0
 12 13  2  0
 12 14  1  0
 14 15  1  0
 15 16  1  1
 15 21  1  0
 17 16  1  0
 17 18  1  0
 18 19  1  0
 19 20  1  0
 21 22  1  0
 23 21  2  0
M  END
$$$$
