PSK.pdb
     RDKit          3D

 23 23  0  0  1  0  0  0  0  0999 V2000
   21.6270  -14.0706  -18.8520 N   0  0  0  0  0  0  0  0  0  0  0  0
   21.7190  -15.1940  -17.9543 C   0  0  0  0  0  0  0  0  0  0  0  0
   20.3476  -15.4660  -17.4144 C   0  0  0  0  0  0  0  0  0  0  0  0
   19.4622  -14.6738  -18.3789 C   0  0  0  0  0  0  0  0  0  0  0  0
   20.3380  -13.4605  -18.6277 C   0  0  1  0  0  0  0  0  0  0  0  0
   20.3872  -12.6612  -17.3886 C   0  0  0  0  0  0  0  0  0  0  0  0
   19.3014  -12.4015  -16.8023 O   0  0  0  0  0  0  0  0  0  0  0  0
   24.0079  -10.8435  -15.9446 O   0  0  0  0  0  0  0  0  0  0  0  0
   23.0170  -11.3527  -15.1114 C   0  0  0  0  0  0  0  0  0  0  0  0
   21.6508  -11.2836  -15.7545 C   0  0  2  0  0  0  0  0  0  0  0  0
   21.6405  -12.1884  -16.8598 N   0  0  0  0  0  0  0  0  0  0  0  0
   21.2815   -9.9027  -16.1353 C   0  0  0  0  0  0  0  0  0  0  0  0
   21.7427   -9.4217  -17.2236 O   0  0  0  0  0  0  0  0  0  0  0  0
   20.4557   -9.0591  -15.3959 N   0  0  0  0  0  0  0  0  0  0  0  0
   20.1601   -7.6875  -15.7943 C   0  0  1  0  0  0  0  0  0  0  0  0
   18.7680   -7.3028  -15.5277 C   0  0  0  0  0  0  0  0  0  0  0  0
   18.4806   -5.8803  -15.8857 C   0  0  0  0  0  0  0  0  0  0  0  0
   17.1323   -5.4010  -15.4155 C   0  0  0  0  0  0  0  0  0  0  0  0
   16.1068   -5.9712  -16.3972 C   0  0  0  0  0  0  0  0  0  0  0  0
   14.7672   -5.5447  -16.0547 N   0  0  0  0  0  0  0  0  0  0  0  0
   21.1290   -6.8440  -15.0836 C   0  0  0  0  0  0  0  0  0  0  0  0
   21.7470   -7.2652  -13.9145 O   0  0  0  0  0  0  0  0  0  0  0  0
   21.4349   -5.7139  -15.5039 O   0  0  0  0  0  0  0  0  0  0  0  0
  1  5  1  0
  1  2  1  0
  2  3  1  0
  3  4  1  0
  5  6  1  1
  5  4  1  0
  6 11  1  0
  7  6  2  0
  8  9  1  0
 10  9  1  6
 10 12  1  0
 11 10  1  0
 12 13  2  0
 12 14  1  0
 14 15  1  0
 15 16  1  1
 15 21  1  0
 17 16  1  0
 17 18  1  0
 18 19  1  0
 19 20  1  0
 21 22  1  0
 23 21  2  0
M  END
$$$$
