PSK.pdb
     RDKit          3D

 23 23  0  0  1  0  0  0  0  0999 V2000
   19.2850  -11.0106  -15.6384 N   0  0  0  0  0  0  0  0  0  0  0  0
   17.9006  -11.3742  -15.4722 C   0  0  0  0  0  0  0  0  0  0  0  0
   17.0739  -10.1379  -15.6568 C   0  0  0  0  0  0  0  0  0  0  0  0
   18.0709   -9.1833  -16.3174 C   0  0  0  0  0  0  0  0  0  0  0  0
   19.3469   -9.5691  -15.5935 C   0  0  1  0  0  0  0  0  0  0  0  0
   19.2394   -9.1210  -14.1920 C   0  0  0  0  0  0  0  0  0  0  0  0
   18.6615   -9.8784  -13.3658 O   0  0  0  0  0  0  0  0  0  0  0  0
   20.9994   -6.1223  -10.8407 O   0  0  0  0  0  0  0  0  0  0  0  0
   20.8240   -6.4253  -12.1871 C   0  0  0  0  0  0  0  0  0  0  0  0
   19.7808   -7.5003  -12.3906 C   0  0  2  0  0  0  0  0  0  0  0  0
   19.7790   -7.8526  -13.7749 N   0  0  0  0  0  0  0  0  0  0  0  0
   18.4487   -7.0867  -11.8982 C   0  0  0  0  0  0  0  0  0  0  0  0
   17.6934   -6.4056  -12.6689 O   0  0  0  0  0  0  0  0  0  0  0  0
   17.9309   -7.3806  -10.6389 N   0  0  0  0  0  0  0  0  0  0  0  0
   16.6038   -6.9568  -10.2068 C   0  0  1  0  0  0  0  0  0  0  0  0
   15.7886   -8.0660   -9.6947 C   0  0  0  0  0  0  0  0  0  0  0  0
   14.4184   -7.6358   -9.2805 C   0  0  0  0  0  0  0  0  0  0  0  0
   13.5717   -8.7584   -8.7404 C   0  0  0  0  0  0  0  0  0  0  0  0
   12.1878   -8.1631   -8.4736 C   0  0  0  0  0  0  0  0  0  0  0  0
   11.2438   -9.1927   -8.0962 N   0  0  0  0  0  0  0  0  0  0  0  0
   16.8227   -5.9037   -9.2077 C   0  0  0  0  0  0  0  0  0  0  0  0
   15.8940   -4.8952   -8.9920 O   0  0  0  0  0  0  0  0  0  0  0  0
   17.8540   -5.8744   -8.5127 O   0  0  0  0  0  0  0  0  0  0  0  0
  1  5  1  0
  1  2  1  0
  2  3  1  0
  3  4  1  0
  5  6  1  1
  5  4  1  0
  6 11  1  0
  7  6  2  0
  8  9  1  0
 10  9  1  6
 10 12  1  0
 11 10  1  0
 12 13  2  0
 12 14  1  0
 14 15  1  0
 15 16  1  1
 15 21  1  0
 17 16  1  0
 17 18  1  0
 18 19  1  0
 19 20  1  0
 21 22  1  0
 23 21  2  0
M  END
$$$$
