PSK.pdb
     RDKit          3D

 23 23  0  0  1  0  0  0  0  0999 V2000
   19.4716  -10.9630  -16.0978 N   0  0  0  0  0  0  0  0  0  0  0  0
   18.1533  -11.5405  -16.0294 C   0  0  0  0  0  0  0  0  0  0  0  0
   17.1605  -10.4188  -15.9805 C   0  0  0  0  0  0  0  0  0  0  0  0
   18.0077   -9.2238  -16.4236 C   0  0  0  0  0  0  0  0  0  0  0  0
   19.3330   -9.5643  -15.7688 C   0  0  1  0  0  0  0  0  0  0  0  0
   19.1798   -9.4209  -14.3084 C   0  0  0  0  0  0  0  0  0  0  0  0
   18.6291  -10.3592  -13.6710 O   0  0  0  0  0  0  0  0  0  0  0  0
   20.6663   -6.0278  -12.2386 O   0  0  0  0  0  0  0  0  0  0  0  0
   20.7018   -7.3138  -11.7088 C   0  0  0  0  0  0  0  0  0  0  0  0
   19.5491   -8.1578  -12.2029 C   0  0  2  0  0  0  0  0  0  0  0  0
   19.6459   -8.2417  -13.6257 N   0  0  0  0  0  0  0  0  0  0  0  0
   18.2413   -7.6423  -11.7425 C   0  0  0  0  0  0  0  0  0  0  0  0
   17.5859   -6.8593  -12.5078 O   0  0  0  0  0  0  0  0  0  0  0  0
   17.6454   -7.9415  -10.5195 N   0  0  0  0  0  0  0  0  0  0  0  0
   16.3977   -7.3320  -10.0734 C   0  0  1  0  0  0  0  0  0  0  0  0
   15.4709   -8.3009   -9.4739 C   0  0  0  0  0  0  0  0  0  0  0  0
   14.1727   -7.6844   -9.0633 C   0  0  0  0  0  0  0  0  0  0  0  0
   13.1935   -8.6711   -8.4835 C   0  0  0  0  0  0  0  0  0  0  0  0
   11.8832   -7.9078   -8.2802 C   0  0  0  0  0  0  0  0  0  0  0  0
   10.8281   -8.7954   -7.8412 N   0  0  0  0  0  0  0  0  0  0  0  0
   16.7817   -6.2625   -9.1439 C   0  0  0  0  0  0  0  0  0  0  0  0
   16.0102   -5.1200   -8.9838 O   0  0  0  0  0  0  0  0  0  0  0  0
   17.8184   -6.3393   -8.4608 O   0  0  0  0  0  0  0  0  0  0  0  0
  1  5  1  0
  1  2  1  0
  2  3  1  0
  3  4  1  0
  5  6  1  1
  5  4  1  0
  6 11  1  0
  7  6  2  0
  8  9  1  0
 10  9  1  6
 10 12  1  0
 11 10  1  0
 12 13  2  0
 12 14  1  0
 14 15  1  0
 15 16  1  1
 15 21  1  0
 17 16  1  0
 17 18  1  0
 18 19  1  0
 19 20  1  0
 21 22  1  0
 23 21  2  0
M  END
$$$$
