PSK.pdb
     RDKit          3D

 23 23  0  0  1  0  0  0  0  0999 V2000
   12.7491   -9.4958   -9.4637 N   0  0  0  0  0  0  0  0  0  0  0  0
   12.8185  -10.3965  -10.5863 C   0  0  0  0  0  0  0  0  0  0  0  0
   14.1656  -11.0530  -10.5680 C   0  0  0  0  0  0  0  0  0  0  0  0
   14.6529  -10.7415   -9.1512 C   0  0  0  0  0  0  0  0  0  0  0  0
   14.0957   -9.3428   -8.9666 C   0  0  1  0  0  0  0  0  0  0  0  0
   14.8397   -8.4260   -9.8513 C   0  0  0  0  0  0  0  0  0  0  0  0
   14.4759   -8.3320  -11.0551 O   0  0  0  0  0  0  0  0  0  0  0  0
   17.3798   -5.6786   -8.1699 O   0  0  0  0  0  0  0  0  0  0  0  0
   16.7717   -5.4263   -9.3955 C   0  0  0  0  0  0  0  0  0  0  0  0
   16.5819   -6.6918  -10.2003 C   0  0  2  0  0  0  0  0  0  0  0  0
   15.9524   -7.6573   -9.3565 N   0  0  0  0  0  0  0  0  0  0  0  0
   17.8504   -7.1768  -10.7866 C   0  0  0  0  0  0  0  0  0  0  0  0
   18.5552   -8.0083  -10.1231 O   0  0  0  0  0  0  0  0  0  0  0  0
   18.3578   -6.7995  -12.0278 N   0  0  0  0  0  0  0  0  0  0  0  0
   19.5469   -7.4044  -12.6172 C   0  0  1  0  0  0  0  0  0  0  0  0
   19.2504   -8.1906  -13.8218 C   0  0  0  0  0  0  0  0  0  0  0  0
   20.4813   -8.7013  -14.4987 C   0  0  0  0  0  0  0  0  0  0  0  0
   20.1957   -9.5319  -15.7223 C   0  0  0  0  0  0  0  0  0  0  0  0
   21.5479  -10.0515  -16.2145 C   0  0  0  0  0  0  0  0  0  0  0  0
   21.3836  -10.9287  -17.3534 N   0  0  0  0  0  0  0  0  0  0  0  0
   20.4760   -6.2974  -12.8753 C   0  0  0  0  0  0  0  0  0  0  0  0
   21.8517   -6.4803  -12.8696 O   0  0  0  0  0  0  0  0  0  0  0  0
   20.0642   -5.1474  -13.1101 O   0  0  0  0  0  0  0  0  0  0  0  0
  1  5  1  0
  1  2  1  0
  2  3  1  0
  3  4  1  0
  5  6  1  6
  5  4  1  0
  6 11  1  0
  7  6  2  0
  8  9  1  0
 10  9  1  1
 10 12  1  0
 11 10  1  0
 12 13  2  0
 12 14  1  0
 14 15  1  0
 15 16  1  6
 15 21  1  0
 17 16  1  0
 17 18  1  0
 18 19  1  0
 19 20  1  0
 21 22  1  0
 23 21  2  0
M  END
$$$$
