PSK.pdb
     RDKit          3D

 23 23  0  0  1  0  0  0  0  0999 V2000
   27.4939  -21.4949  -17.9572 N   0  0  0  0  0  0  0  0  0  0  0  0
   28.4766  -20.4668  -17.7258 C   0  0  0  0  0  0  0  0  0  0  0  0
   29.0435  -20.6714  -16.3536 C   0  0  0  0  0  0  0  0  0  0  0  0
   28.5880  -22.0960  -16.0297 C   0  0  0  0  0  0  0  0  0  0  0  0
   27.2167  -22.1039  -16.6781 C   0  0  1  0  0  0  0  0  0  0  0  0
   26.3298  -21.2184  -15.8997 C   0  0  0  0  0  0  0  0  0  0  0  0
   26.1191  -21.4996  -14.6886 O   0  0  0  0  0  0  0  0  0  0  0  0
   24.1350  -17.8746  -17.5843 O   0  0  0  0  0  0  0  0  0  0  0  0
   24.8288  -17.8622  -16.3784 C   0  0  0  0  0  0  0  0  0  0  0  0
   24.8555  -19.2277  -15.7307 C   0  0  2  0  0  0  0  0  0  0  0  0
   25.7192  -20.0625  -16.5038 N   0  0  0  0  0  0  0  0  0  0  0  0
   23.4993  -19.7950  -15.5663 C   0  0  0  0  0  0  0  0  0  0  0  0
   23.0509  -20.5842  -16.4632 O   0  0  0  0  0  0  0  0  0  0  0  0
   22.6464  -19.5399  -14.4950 N   0  0  0  0  0  0  0  0  0  0  0  0
   21.2804  -20.0470  -14.4289 C   0  0  1  0  0  0  0  0  0  0  0  0
   20.7456  -20.0708  -13.0612 C   0  0  0  0  0  0  0  0  0  0  0  0
   19.3047  -20.4646  -13.0086 C   0  0  0  0  0  0  0  0  0  0  0  0
   19.0903  -21.9345  -12.7590 C   0  0  0  0  0  0  0  0  0  0  0  0
   17.5757  -22.1482  -12.7241 C   0  0  0  0  0  0  0  0  0  0  0  0
   17.2530  -23.5386  -12.4866 N   0  0  0  0  0  0  0  0  0  0  0  0
   20.4923  -19.2002  -15.3328 C   0  0  0  0  0  0  0  0  0  0  0  0
   19.3337  -19.6607  -15.9425 O   0  0  0  0  0  0  0  0  0  0  0  0
   20.8341  -18.0319  -15.5883 O   0  0  0  0  0  0  0  0  0  0  0  0
  1  5  1  0
  1  2  1  0
  2  3  1  0
  3  4  1  0
  5  6  1  1
  5  4  1  0
  6 11  1  0
  7  6  2  0
  8  9  1  0
 10  9  1  6
 10 12  1  0
 11 10  1  0
 12 13  2  0
 12 14  1  0
 14 15  1  0
 15 16  1  1
 15 21  1  0
 17 16  1  0
 17 18  1  0
 18 19  1  0
 19 20  1  0
 21 22  1  0
 23 21  2  0
M  END
$$$$
