PSK.pdb
     RDKit          3D

 23 23  0  0  1  0  0  0  0  0999 V2000
   28.9594  -19.3805  -18.0100 N   0  0  0  0  0  0  0  0  0  0  0  0
   28.9247  -20.2762  -19.1382 C   0  0  0  0  0  0  0  0  0  0  0  0
   27.6739  -19.9926  -19.9136 C   0  0  0  0  0  0  0  0  0  0  0  0
   27.2512  -18.6337  -19.3510 C   0  0  0  0  0  0  0  0  0  0  0  0
   27.6419  -18.8017  -17.8949 C   0  0  1  0  0  0  0  0  0  0  0  0
   26.7305  -19.7854  -17.2800 C   0  0  0  0  0  0  0  0  0  0  0  0
   25.7649  -20.2158  -17.9675 O   0  0  0  0  0  0  0  0  0  0  0  0
   27.3394  -21.1090  -13.3379 O   0  0  0  0  0  0  0  0  0  0  0  0
   26.8173  -21.9689  -14.2988 C   0  0  0  0  0  0  0  0  0  0  0  0
   26.0563  -21.2207  -15.3694 C   0  0  2  0  0  0  0  0  0  0  0  0
   26.9351  -20.2442  -15.9303 N   0  0  0  0  0  0  0  0  0  0  0  0
   24.7974  -20.6376  -14.8562 C   0  0  0  0  0  0  0  0  0  0  0  0
   24.7951  -19.4194  -14.4761 O   0  0  0  0  0  0  0  0  0  0  0  0
   23.5845  -21.3138  -14.7477 N   0  0  0  0  0  0  0  0  0  0  0  0
   22.3677  -20.6870  -14.2438 C   0  0  1  0  0  0  0  0  0  0  0  0
   21.1455  -21.2925  -14.7886 C   0  0  0  0  0  0  0  0  0  0  0  0
   19.9016  -20.6045  -14.3265 C   0  0  0  0  0  0  0  0  0  0  0  0
   18.6409  -21.1742  -14.9222 C   0  0  0  0  0  0  0  0  0  0  0  0
   17.4846  -20.3552  -14.3453 C   0  0  0  0  0  0  0  0  0  0  0  0
   16.2186  -20.7808  -14.9020 N   0  0  0  0  0  0  0  0  0  0  0  0
   22.4438  -20.7782  -12.7806 C   0  0  0  0  0  0  0  0  0  0  0  0
   22.0066  -19.7483  -11.9594 O   0  0  0  0  0  0  0  0  0  0  0  0
   22.9054  -21.7868  -12.2176 O   0  0  0  0  0  0  0  0  0  0  0  0
  1  5  1  0
  1  2  1  0
  2  3  1  0
  3  4  1  0
  5  6  1  1
  5  4  1  0
  6 11  1  0
  7  6  2  0
  8  9  1  0
 10  9  1  1
 10 12  1  0
 11 10  1  0
 12 13  2  0
 12 14  1  0
 14 15  1  0
 15 16  1  6
 15 21  1  0
 17 16  1  0
 17 18  1  0
 18 19  1  0
 19 20  1  0
 21 22  1  0
 23 21  2  0
M  END
$$$$
