PSK.pdb
     RDKit          3D

 23 23  0  0  1  0  0  0  0  0999 V2000
   26.4359  -17.7228  -18.0594 N   0  0  0  0  0  0  0  0  0  0  0  0
   27.4519  -18.2649  -17.1934 C   0  0  0  0  0  0  0  0  0  0  0  0
   27.0972  -19.6918  -16.9035 C   0  0  0  0  0  0  0  0  0  0  0  0
   26.0504  -19.9853  -17.9805 C   0  0  0  0  0  0  0  0  0  0  0  0
   25.3307  -18.6513  -18.0399 C   0  0  1  0  0  0  0  0  0  0  0  0
   24.5712  -18.4773  -16.7871 C   0  0  0  0  0  0  0  0  0  0  0  0
   25.2162  -18.3412  -15.7120 O   0  0  0  0  0  0  0  0  0  0  0  0
   22.4157  -15.8871  -15.7260 O   0  0  0  0  0  0  0  0  0  0  0  0
   21.6067  -17.0178  -15.6754 C   0  0  0  0  0  0  0  0  0  0  0  0
   22.4200  -18.2869  -15.5619 C   0  0  2  0  0  0  0  0  0  0  0  0
   23.1312  -18.4626  -16.7882 N   0  0  0  0  0  0  0  0  0  0  0  0
   21.5859  -19.4553  -15.2055 C   0  0  0  0  0  0  0  0  0  0  0  0
   21.1487  -20.2058  -16.1404 O   0  0  0  0  0  0  0  0  0  0  0  0
   21.2257  -19.8201  -13.9103 N   0  0  0  0  0  0  0  0  0  0  0  0
   20.4522  -21.0192  -13.6087 C   0  0  1  0  0  0  0  0  0  0  0  0
   20.3987  -21.3180  -12.1717 C   0  0  0  0  0  0  0  0  0  0  0  0
   19.6634  -22.5838  -11.8694 C   0  0  0  0  0  0  0  0  0  0  0  0
   19.7733  -23.0158  -10.4306 C   0  0  0  0  0  0  0  0  0  0  0  0
   19.0680  -24.3699  -10.3332 C   0  0  0  0  0  0  0  0  0  0  0  0
   19.2166  -24.9388   -9.0111 N   0  0  0  0  0  0  0  0  0  0  0  0
   19.1236  -20.7991  -14.1933 C   0  0  0  0  0  0  0  0  0  0  0  0
   18.4349  -21.8112  -14.8471 O   0  0  0  0  0  0  0  0  0  0  0  0
   18.5613  -19.6917  -14.1251 O   0  0  0  0  0  0  0  0  0  0  0  0
  1  5  1  0
  1  2  1  0
  2  3  1  0
  3  4  1  0
  5  6  1  1
  5  4  1  0
  6 11  1  0
  7  6  2  0
  8  9  1  0
 10  9  1  6
 10 12  1  0
 11 10  1  0
 12 13  2  0
 12 14  1  0
 14 15  1  0
 15 16  1  1
 15 21  1  0
 17 16  1  0
 17 18  1  0
 18 19  1  0
 19 20  1  0
 21 22  1  0
 23 21  2  0
M  END
$$$$
