PSK.pdb
     RDKit          3D

 23 23  0  0  1  0  0  0  0  0999 V2000
   17.1615  -12.3204  -14.4699 N   0  0  0  0  0  0  0  0  0  0  0  0
   15.7640  -12.0078  -14.6297 C   0  0  0  0  0  0  0  0  0  0  0  0
   15.4975  -11.8224  -16.0929 C   0  0  0  0  0  0  0  0  0  0  0  0
   16.7460  -12.4413  -16.7253 C   0  0  0  0  0  0  0  0  0  0  0  0
   17.8046  -12.0151  -15.7258 C   0  0  1  0  0  0  0  0  0  0  0  0
   17.9871  -10.5553  -15.8367 C   0  0  0  0  0  0  0  0  0  0  0  0
   18.2986  -10.0764  -16.9609 O   0  0  0  0  0  0  0  0  0  0  0  0
   17.5301   -7.9513  -12.4913 O   0  0  0  0  0  0  0  0  0  0  0  0
   17.2001   -7.5850  -13.7922 C   0  0  0  0  0  0  0  0  0  0  0  0
   18.0610   -8.2949  -14.8120 C   0  0  2  0  0  0  0  0  0  0  0  0
   17.8148   -9.6970  -14.6932 N   0  0  0  0  0  0  0  0  0  0  0  0
   19.4921   -7.9463  -14.6752 C   0  0  0  0  0  0  0  0  0  0  0  0
   20.1954   -8.5673  -13.8103 O   0  0  0  0  0  0  0  0  0  0  0  0
   20.1581   -6.9782  -15.4231 N   0  0  0  0  0  0  0  0  0  0  0  0
   21.5828   -6.7024  -15.2770 C   0  0  1  0  0  0  0  0  0  0  0  0
   22.2779   -6.5892  -16.5658 C   0  0  0  0  0  0  0  0  0  0  0  0
   23.7252   -6.2471  -16.4163 C   0  0  0  0  0  0  0  0  0  0  0  0
   24.4298   -6.0208  -17.7282 C   0  0  0  0  0  0  0  0  0  0  0  0
   25.8894   -5.7161  -17.3855 C   0  0  0  0  0  0  0  0  0  0  0  0
   26.6963   -5.6274  -18.5832 N   0  0  0  0  0  0  0  0  0  0  0  0
   21.6755   -5.4784  -14.4717 C   0  0  0  0  0  0  0  0  0  0  0  0
   22.7471   -5.2405  -13.6224 O   0  0  0  0  0  0  0  0  0  0  0  0
   20.7930   -4.6031  -14.5196 O   0  0  0  0  0  0  0  0  0  0  0  0
  1  5  1  0
  1  2  1  0
  2  3  1  0
  3  4  1  0
  5  6  1  1
  5  4  1  0
  6 11  1  0
  7  6  2  0
  8  9  1  0
 10  9  1  1
 10 12  1  0
 11 10  1  0
 12 13  2  0
 12 14  1  0
 14 15  1  0
 15 16  1  6
 15 21  1  0
 17 16  1  0
 17 18  1  0
 18 19  1  0
 19 20  1  0
 21 22  1  0
 23 21  2  0
M  END
$$$$
