PSK.pdb
     RDKit          3D

 23 23  0  0  1  0  0  0  0  0999 V2000
   18.1185  -10.7502  -16.8471 N   0  0  0  0  0  0  0  0  0  0  0  0
   19.4440  -10.6518  -17.4034 C   0  0  0  0  0  0  0  0  0  0  0  0
   20.3868  -11.3562  -16.4754 C   0  0  0  0  0  0  0  0  0  0  0  0
   19.4276  -12.1680  -15.6022 C   0  0  0  0  0  0  0  0  0  0  0  0
   18.2697  -11.1954  -15.4823 C   0  0  1  0  0  0  0  0  0  0  0  0
   18.7018  -10.0599  -14.6453 C   0  0  0  0  0  0  0  0  0  0  0  0
   19.0458  -10.2928  -13.4547 O   0  0  0  0  0  0  0  0  0  0  0  0
   20.7137   -5.8439  -14.2152 O   0  0  0  0  0  0  0  0  0  0  0  0
   20.2400   -6.8906  -14.9998 C   0  0  0  0  0  0  0  0  0  0  0  0
   19.1078   -7.6313  -14.3255 C   0  0  2  0  0  0  0  0  0  0  0  0
   18.7313   -8.7194  -15.1710 N   0  0  0  0  0  0  0  0  0  0  0  0
   17.9755   -6.7392  -13.9937 C   0  0  0  0  0  0  0  0  0  0  0  0
   17.0885   -6.5158  -14.8835 O   0  0  0  0  0  0  0  0  0  0  0  0
   17.7845   -6.1054  -12.7681 N   0  0  0  0  0  0  0  0  0  0  0  0
   16.7018   -5.1594  -12.5230 C   0  0  1  0  0  0  0  0  0  0  0  0
   16.4221   -4.9691  -11.0938 C   0  0  0  0  0  0  0  0  0  0  0  0
   15.8191   -6.1783  -10.4547 C   0  0  0  0  0  0  0  0  0  0  0  0
   15.4638   -5.9797   -9.0045 C   0  0  0  0  0  0  0  0  0  0  0  0
   14.8195   -7.2863   -8.5369 C   0  0  0  0  0  0  0  0  0  0  0  0
   14.3563   -7.1767   -7.1704 N   0  0  0  0  0  0  0  0  0  0  0  0
   17.0942   -3.9151  -13.1960 C   0  0  0  0  0  0  0  0  0  0  0  0
   16.1568   -2.9753  -13.6014 O   0  0  0  0  0  0  0  0  0  0  0  0
   18.2876   -3.6538  -13.4301 O   0  0  0  0  0  0  0  0  0  0  0  0
  1  5  1  0
  1  2  1  0
  2  3  1  0
  3  4  1  0
  5  6  1  1
  5  4  1  0
  6 11  1  0
  7  6  2  0
  8  9  1  0
 10  9  1  6
 10 12  1  0
 11 10  1  0
 12 13  2  0
 12 14  1  0
 14 15  1  0
 15 16  1  1
 15 21  1  0
 17 16  1  0
 17 18  1  0
 18 19  1  0
 19 20  1  0
 21 22  1  0
 23 21  2  0
M  END
$$$$
