PSK.pdb
     RDKit          3D

 23 23  0  0  1  0  0  0  0  0999 V2000
   20.1965  -12.6954  -16.4926 N   0  0  0  0  0  0  0  0  0  0  0  0
   18.8234  -12.9063  -16.8749 C   0  0  0  0  0  0  0  0  0  0  0  0
   18.4972  -11.9405  -17.9735 C   0  0  0  0  0  0  0  0  0  0  0  0
   19.8877  -11.4801  -18.4165 C   0  0  0  0  0  0  0  0  0  0  0  0
   20.6069  -11.4429  -17.0814 C   0  0  1  0  0  0  0  0  0  0  0  0
   20.0553  -10.3283  -16.2877 C   0  0  0  0  0  0  0  0  0  0  0  0
   18.9031  -10.4609  -15.7928 O   0  0  0  0  0  0  0  0  0  0  0  0
   22.2664   -6.7903  -15.6716 O   0  0  0  0  0  0  0  0  0  0  0  0
   21.4118   -7.2867  -14.6924 C   0  0  0  0  0  0  0  0  0  0  0  0
   20.2615   -8.0636  -15.2909 C   0  0  2  0  0  0  0  0  0  0  0  0
   20.8102   -9.1193  -16.0815 N   0  0  0  0  0  0  0  0  0  0  0  0
   19.3354   -7.1951  -16.0500 C   0  0  0  0  0  0  0  0  0  0  0  0
   19.3959   -7.1988  -17.3246 O   0  0  0  0  0  0  0  0  0  0  0  0
   18.3797   -6.3532  -15.4861 N   0  0  0  0  0  0  0  0  0  0  0  0
   17.5658   -5.4347  -16.2743 C   0  0  1  0  0  0  0  0  0  0  0  0
   16.1399   -5.7865  -16.2690 C   0  0  0  0  0  0  0  0  0  0  0  0
   15.3058   -4.8396  -17.0701 C   0  0  0  0  0  0  0  0  0  0  0  0
   13.8420   -5.1940  -17.0895 C   0  0  0  0  0  0  0  0  0  0  0  0
   13.1560   -4.1401  -17.9610 C   0  0  0  0  0  0  0  0  0  0  0  0
   11.7736   -4.4899  -18.2072 N   0  0  0  0  0  0  0  0  0  0  0  0
   17.8233   -4.0971  -15.7267 C   0  0  0  0  0  0  0  0  0  0  0  0
   17.9008   -2.9756  -16.5406 O   0  0  0  0  0  0  0  0  0  0  0  0
   17.9829   -3.9164  -14.5064 O   0  0  0  0  0  0  0  0  0  0  0  0
  1  5  1  0
  1  2  1  0
  2  3  1  0
  3  4  1  0
  5  6  1  1
  5  4  1  0
  6 11  1  0
  7  6  2  0
  8  9  1  0
 10  9  1  6
 10 12  1  0
 11 10  1  0
 12 13  2  0
 12 14  1  0
 14 15  1  0
 15 16  1  1
 15 21  1  0
 17 16  1  0
 17 18  1  0
 18 19  1  0
 19 20  1  0
 21 22  1  0
 23 21  2  0
M  END
$$$$
