PSK.pdb
     RDKit          3D

 23 23  0  0  1  0  0  0  0  0999 V2000
   18.9095  -25.2827   -7.7104 N   0  0  0  0  0  0  0  0  0  0  0  0
   18.4912  -26.4969   -8.3638 C   0  0  0  0  0  0  0  0  0  0  0  0
   17.0647  -26.3234   -8.7897 C   0  0  0  0  0  0  0  0  0  0  0  0
   16.8795  -24.8087   -8.6740 C   0  0  0  0  0  0  0  0  0  0  0  0
   17.7141  -24.5198   -7.4407 C   0  0  1  0  0  0  0  0  0  0  0  0
   17.0251  -25.0933   -6.2689 C   0  0  0  0  0  0  0  0  0  0  0  0
   15.7705  -25.2124   -6.3133 O   0  0  0  0  0  0  0  0  0  0  0  0
   17.4444  -26.9874   -1.8141 O   0  0  0  0  0  0  0  0  0  0  0  0
   18.0533  -26.5395   -2.9820 C   0  0  0  0  0  0  0  0  0  0  0  0
   17.0649  -25.8740   -3.9122 C   0  0  2  0  0  0  0  0  0  0  0  0
   17.7628  -25.5073   -5.1034 N   0  0  0  0  0  0  0  0  0  0  0  0
   16.3761  -24.7322   -3.2718 C   0  0  0  0  0  0  0  0  0  0  0  0
   16.9161  -23.5776   -3.3313 O   0  0  0  0  0  0  0  0  0  0  0  0
   15.1618  -24.8045   -2.5933 N   0  0  0  0  0  0  0  0  0  0  0  0
   14.5282  -23.6466   -1.9727 C   0  0  1  0  0  0  0  0  0  0  0  0
   13.2294  -23.3159   -2.5734 C   0  0  0  0  0  0  0  0  0  0  0  0
   12.5917  -22.1154   -1.9517 C   0  0  0  0  0  0  0  0  0  0  0  0
   11.2584  -21.7604   -2.5558 C   0  0  0  0  0  0  0  0  0  0  0  0
   10.8485  -20.4226   -1.9369 C   0  0  0  0  0  0  0  0  0  0  0  0
    9.6119  -19.9409   -2.5137 N   0  0  0  0  0  0  0  0  0  0  0  0
   14.4295  -23.9602   -0.5419 C   0  0  0  0  0  0  0  0  0  0  0  0
   14.8071  -23.0493    0.4347 O   0  0  0  0  0  0  0  0  0  0  0  0
   14.0016  -25.0597   -0.1478 O   0  0  0  0  0  0  0  0  0  0  0  0
  1  5  1  0
  1  2  1  0
  2  3  1  0
  3  4  1  0
  5  6  1  1
  5  4  1  0
  6 11  1  0
  7  6  2  0
  8  9  1  0
 10  9  1  1
 10 12  1  0
 11 10  1  0
 12 13  2  0
 12 14  1  0
 14 15  1  0
 15 16  1  6
 15 21  1  0
 17 16  1  0
 17 18  1  0
 18 19  1  0
 19 20  1  0
 21 22  1  0
 23 21  2  0
M  END
$$$$
