KEW.pdb
     RDKit          3D

 33 34  0  0  1  0  0  0  0  0999 V2000
   23.3375  -19.7563  -16.1508 N   0  0  0  0  0  0  0  0  0  0  0  0
   23.6145  -19.5467  -14.7651 C   0  0  1  0  0  0  0  0  0  0  0  0
   22.3428  -19.5030  -13.9842 C   0  0  0  0  0  0  0  0  0  0  0  0
   21.6109  -18.2069  -14.0335 C   0  0  0  0  0  0  0  0  0  0  0  0
   20.4322  -18.1993  -14.9648 C   0  0  0  0  0  0  0  0  0  0  0  0
   20.4876  -17.0263  -15.9249 C   0  0  0  0  0  0  0  0  0  0  0  0
   19.2536  -17.0114  -16.6820 N   0  0  0  0  0  0  0  0  0  0  0  0
   24.4504  -20.6182  -14.1638 C   0  0  0  0  0  0  0  0  0  0  0  0
   24.0375  -21.8095  -14.3140 O   0  0  0  0  0  0  0  0  0  0  0  0
   25.6396  -20.4207  -13.4552 N   0  0  0  0  0  0  0  0  0  0  0  0
   26.4710  -21.5239  -12.9627 C   0  0  1  0  0  0  0  0  0  0  0  0
   27.6374  -21.6167  -13.8833 C   0  0  0  0  0  0  0  0  0  0  0  0
   28.3912  -20.3354  -14.0889 C   0  0  0  0  0  0  0  0  0  0  0  0
   28.2362  -19.8484  -15.4615 C   0  0  0  0  0  0  0  0  0  0  0  0
   28.2639  -20.5684  -16.4567 O   0  0  0  0  0  0  0  0  0  0  0  0
   26.8793  -21.2780  -11.5505 C   0  0  0  0  0  0  0  0  0  0  0  0
   27.9485  -21.7741  -11.1278 O   0  0  0  0  0  0  0  0  0  0  0  0
   28.0445  -18.4805  -15.6617 O   0  0  0  0  0  0  0  0  0  0  0  0
   26.0996  -20.4980  -10.6577 N   0  0  0  0  0  0  0  0  0  0  0  0
   25.4481  -20.9314   -9.4748 C   0  0  1  0  0  0  0  0  0  0  0  0
   25.9641  -20.4417   -8.1813 C   0  0  0  0  0  0  0  0  0  0  0  0
   27.4162  -20.3454   -8.0349 C   0  0  0  0  0  0  0  0  0  0  0  0
   28.4435  -20.6806   -8.8761 C   0  0  0  0  0  0  0  0  0  0  0  0
   29.6220  -20.4006   -8.2729 N   0  0  0  0  0  0  0  0  0  0  0  0
   29.3542  -19.8904   -7.0548 C   0  0  0  0  0  0  0  0  0  0  0  0
   30.1905  -19.4445   -6.0403 C   0  0  0  0  0  0  0  0  0  0  0  0
   29.6605  -18.9616   -4.8712 C   0  0  0  0  0  0  0  0  0  0  0  0
   28.2986  -18.9069   -4.6752 C   0  0  0  0  0  0  0  0  0  0  0  0
   27.4716  -19.3475   -5.6778 C   0  0  0  0  0  0  0  0  0  0  0  0
   27.9931  -19.8374   -6.8630 C   0  0  0  0  0  0  0  0  0  0  0  0
   23.9535  -20.6482   -9.4726 C   0  0  0  0  0  0  0  0  0  0  0  0
   23.4415  -19.9925  -10.3820 O   0  0  0  0  0  0  0  0  0  0  0  0
   23.1938  -21.1463   -8.4240 O   0  0  0  0  0  0  0  0  0  0  0  0
  2  1  1  6
  3  2  1  0
  4  3  1  0
  5  4  1  0
  6  5  1  0
  7  6  1  0
  8  2  1  0
  8  9  2  0
 10  8  1  0
 11 10  1  0
 11 12  1  6
 13 12  1  0
 13 14  1  0
 14 18  1  0
 14 15  2  0
 16 11  1  0
 17 16  2  0
 19 16  1  0
 20 21  1  1
 20 19  1  0
 21 22  1  0
 22 23  2  0
 23 24  1  0
 25 24  1  0
 26 25  2  0
 27 26  1  0
 28 29  1  0
 28 27  2  0
 29 30  2  0
 30 22  1  0
 30 25  1  0
 31 33  1  0
 31 20  1  0
 32 31  2  0
M  END
$$$$
