KEW.pdb
     RDKit          3D

 33 34  0  0  1  0  0  0  0  0999 V2000
   22.1897  -25.8198  -14.8180 N   0  0  0  0  0  0  0  0  0  0  0  0
   22.3422  -24.6711  -15.6535 C   0  0  1  0  0  0  0  0  0  0  0  0
   21.4565  -23.5662  -15.1806 C   0  0  0  0  0  0  0  0  0  0  0  0
   20.0112  -23.7290  -15.5006 C   0  0  0  0  0  0  0  0  0  0  0  0
   19.6167  -23.2094  -16.8537 C   0  0  0  0  0  0  0  0  0  0  0  0
   18.3457  -22.3843  -16.7854 C   0  0  0  0  0  0  0  0  0  0  0  0
   18.0175  -21.9593  -18.1300 N   0  0  0  0  0  0  0  0  0  0  0  0
   23.7277  -24.1338  -15.6677 C   0  0  0  0  0  0  0  0  0  0  0  0
   24.3525  -24.1502  -14.5624 O   0  0  0  0  0  0  0  0  0  0  0  0
   24.3887  -23.6186  -16.7871 N   0  0  0  0  0  0  0  0  0  0  0  0
   25.6993  -22.9646  -16.7125 C   0  0  1  0  0  0  0  0  0  0  0  0
   26.2362  -22.9358  -18.1008 C   0  0  0  0  0  0  0  0  0  0  0  0
   27.5808  -22.2863  -18.2514 C   0  0  0  0  0  0  0  0  0  0  0  0
   28.0698  -22.4026  -19.6271 C   0  0  0  0  0  0  0  0  0  0  0  0
   27.4123  -22.8638  -20.5569 O   0  0  0  0  0  0  0  0  0  0  0  0
   25.5681  -21.6011  -16.1251 C   0  0  0  0  0  0  0  0  0  0  0  0
   24.4331  -21.1793  -15.8058 O   0  0  0  0  0  0  0  0  0  0  0  0
   29.3645  -21.9642  -19.9094 O   0  0  0  0  0  0  0  0  0  0  0  0
   26.6861  -20.7539  -15.9107 N   0  0  0  0  0  0  0  0  0  0  0  0
   27.0024  -20.0209  -14.7385 C   0  0  1  0  0  0  0  0  0  0  0  0
   27.0631  -20.7543  -13.4588 C   0  0  0  0  0  0  0  0  0  0  0  0
   25.8259  -20.8498  -12.6844 C   0  0  0  0  0  0  0  0  0  0  0  0
   24.5135  -20.9350  -13.0660 C   0  0  0  0  0  0  0  0  0  0  0  0
   23.7326  -20.9989  -11.9628 N   0  0  0  0  0  0  0  0  0  0  0  0
   24.5361  -20.9546  -10.8819 C   0  0  0  0  0  0  0  0  0  0  0  0
   24.2526  -20.9860   -9.5233 C   0  0  0  0  0  0  0  0  0  0  0  0
   25.2691  -20.9247   -8.6046 C   0  0  0  0  0  0  0  0  0  0  0  0
   26.5842  -20.8314   -9.0020 C   0  0  0  0  0  0  0  0  0  0  0  0
   26.8648  -20.8005  -10.3450 C   0  0  0  0  0  0  0  0  0  0  0  0
   25.8486  -20.8616  -11.2831 C   0  0  0  0  0  0  0  0  0  0  0  0
   28.3061  -19.2447  -14.8475 C   0  0  0  0  0  0  0  0  0  0  0  0
   29.0955  -19.4769  -15.7650 O   0  0  0  0  0  0  0  0  0  0  0  0
   28.5748  -18.2775  -13.8898 O   0  0  0  0  0  0  0  0  0  0  0  0
  2  1  1  1
  3  2  1  0
  4  3  1  0
  5  4  1  0
  6  5  1  0
  7  6  1  0
  8  2  1  0
  8  9  2  0
 10  8  1  0
 11 10  1  0
 11 12  1  6
 13 12  1  0
 13 14  1  0
 14 18  1  0
 14 15  2  0
 16 11  1  0
 17 16  2  0
 19 16  1  0
 20 21  1  1
 20 19  1  0
 21 22  1  0
 22 23  2  0
 23 24  1  0
 25 24  1  0
 26 25  2  0
 27 26  1  0
 28 29  1  0
 28 27  2  0
 29 30  2  0
 30 22  1  0
 30 25  1  0
 31 33  1  0
 31 20  1  0
 32 31  2  0
M  END
$$$$
