KEW.pdb
     RDKit          3D

 33 34  0  0  1  0  0  0  0  0999 V2000
   24.8712  -15.9957  -17.5805 N   0  0  0  0  0  0  0  0  0  0  0  0
   26.0424  -16.2396  -16.7996 C   0  0  1  0  0  0  0  0  0  0  0  0
   26.0341  -15.3864  -15.5744 C   0  0  0  0  0  0  0  0  0  0  0  0
   26.2085  -13.9271  -15.8149 C   0  0  0  0  0  0  0  0  0  0  0  0
   27.2566  -13.5915  -16.8374 C   0  0  0  0  0  0  0  0  0  0  0  0
   27.4677  -12.0935  -16.9487 C   0  0  0  0  0  0  0  0  0  0  0  0
   28.4874  -11.8603  -17.9497 N   0  0  0  0  0  0  0  0  0  0  0  0
   26.1605  -17.6480  -16.3405 C   0  0  0  0  0  0  0  0  0  0  0  0
   25.0996  -18.1915  -15.9028 O   0  0  0  0  0  0  0  0  0  0  0  0
   27.3318  -18.4117  -16.3523 N   0  0  0  0  0  0  0  0  0  0  0  0
   27.3877  -19.7996  -15.8814 C   0  0  1  0  0  0  0  0  0  0  0  0
   28.6387  -20.3840  -16.4382 C   0  0  0  0  0  0  0  0  0  0  0  0
   28.9350  -21.7893  -16.0027 C   0  0  0  0  0  0  0  0  0  0  0  0
   28.2887  -22.7614  -16.8874 C   0  0  0  0  0  0  0  0  0  0  0  0
   28.0993  -22.5829  -18.0882 O   0  0  0  0  0  0  0  0  0  0  0  0
   27.3522  -19.8459  -14.3921 C   0  0  0  0  0  0  0  0  0  0  0  0
   27.9871  -18.9873  -13.7381 O   0  0  0  0  0  0  0  0  0  0  0  0
   27.8567  -23.9705  -16.3403 O   0  0  0  0  0  0  0  0  0  0  0  0
   26.6219  -20.8313  -13.6785 N   0  0  0  0  0  0  0  0  0  0  0  0
   26.5767  -21.0250  -12.2742 C   0  0  1  0  0  0  0  0  0  0  0  0
   26.2796  -19.8558  -11.4235 C   0  0  0  0  0  0  0  0  0  0  0  0
   26.1261  -20.0955   -9.9888 C   0  0  0  0  0  0  0  0  0  0  0  0
   25.0160  -20.2035   -9.1942 C   0  0  0  0  0  0  0  0  0  0  0  0
   25.4031  -20.4250   -7.9166 N   0  0  0  0  0  0  0  0  0  0  0  0
   26.7500  -20.4585   -7.8906 C   0  0  0  0  0  0  0  0  0  0  0  0
   27.6452  -20.6508   -6.8471 C   0  0  0  0  0  0  0  0  0  0  0  0
   28.9957  -20.6394   -7.0854 C   0  0  0  0  0  0  0  0  0  0  0  0
   29.4940  -20.4388   -8.3533 C   0  0  0  0  0  0  0  0  0  0  0  0
   28.6094  -20.2488   -9.3851 C   0  0  0  0  0  0  0  0  0  0  0  0
   27.2436  -20.2579   -9.1587 C   0  0  0  0  0  0  0  0  0  0  0  0
   25.6095  -22.1192  -11.8484 C   0  0  0  0  0  0  0  0  0  0  0  0
   25.9416  -22.9504  -11.0012 O   0  0  0  0  0  0  0  0  0  0  0  0
   24.3546  -22.1507  -12.4394 O   0  0  0  0  0  0  0  0  0  0  0  0
  2  1  1  1
  3  2  1  0
  4  3  1  0
  5  4  1  0
  6  5  1  0
  7  6  1  0
  8  2  1  0
  8  9  2  0
 10  8  1  0
 11 10  1  0
 11 12  1  1
 13 12  1  0
 13 14  1  0
 14 18  1  0
 14 15  2  0
 16 11  1  0
 17 16  2  0
 19 16  1  0
 20 21  1  1
 20 19  1  0
 21 22  1  0
 22 23  2  0
 23 24  1  0
 25 24  1  0
 26 25  2  0
 27 26  1  0
 28 29  1  0
 28 27  2  0
 29 30  2  0
 30 22  1  0
 30 25  1  0
 31 33  1  0
 31 20  1  0
 32 31  2  0
M  END
$$$$
