KEW.pdb
     RDKit          3D

 33 34  0  0  1  0  0  0  0  0999 V2000
   27.7261  -27.3292  -18.3260 N   0  0  0  0  0  0  0  0  0  0  0  0
   26.8993  -26.8944  -17.2452 C   0  0  1  0  0  0  0  0  0  0  0  0
   26.9899  -27.8549  -16.1058 C   0  0  0  0  0  0  0  0  0  0  0  0
   27.5793  -29.1815  -16.4382 C   0  0  0  0  0  0  0  0  0  0  0  0
   27.9760  -29.3367  -17.8788 C   0  0  0  0  0  0  0  0  0  0  0  0
   28.6242  -30.6836  -18.1367 C   0  0  0  0  0  0  0  0  0  0  0  0
   28.9391  -30.7637  -19.5476 N   0  0  0  0  0  0  0  0  0  0  0  0
   27.2805  -25.5603  -16.7128 C   0  0  0  0  0  0  0  0  0  0  0  0
   28.5238  -25.3108  -16.6483 O   0  0  0  0  0  0  0  0  0  0  0  0
   26.3900  -24.5715  -16.2830 N   0  0  0  0  0  0  0  0  0  0  0  0
   26.8128  -23.2130  -15.9272 C   0  0  1  0  0  0  0  0  0  0  0  0
   26.5847  -22.3705  -17.1333 C   0  0  0  0  0  0  0  0  0  0  0  0
   25.4780  -21.3645  -17.0086 C   0  0  0  0  0  0  0  0  0  0  0  0
   25.1097  -20.8228  -18.3187 C   0  0  0  0  0  0  0  0  0  0  0  0
   25.6371  -19.8391  -18.8320 O   0  0  0  0  0  0  0  0  0  0  0  0
   26.0535  -22.7253  -14.7410 C   0  0  0  0  0  0  0  0  0  0  0  0
   25.2399  -23.4926  -14.1779 O   0  0  0  0  0  0  0  0  0  0  0  0
   24.0955  -21.4579  -19.0370 O   0  0  0  0  0  0  0  0  0  0  0  0
   26.2164  -21.4159  -14.2189 N   0  0  0  0  0  0  0  0  0  0  0  0
   25.8235  -20.9400  -12.9418 C   0  0  1  0  0  0  0  0  0  0  0  0
   26.6384  -21.3340  -11.7757 C   0  0  0  0  0  0  0  0  0  0  0  0
   26.2598  -20.7768  -10.4774 C   0  0  0  0  0  0  0  0  0  0  0  0
   25.0384  -20.5049   -9.9210 C   0  0  0  0  0  0  0  0  0  0  0  0
   25.2182  -19.9860   -8.6844 N   0  0  0  0  0  0  0  0  0  0  0  0
   26.5435  -19.9246   -8.4484 C   0  0  0  0  0  0  0  0  0  0  0  0
   27.2620  -19.4779   -7.3477 C   0  0  0  0  0  0  0  0  0  0  0  0
   28.6328  -19.5200   -7.3550 C   0  0  0  0  0  0  0  0  0  0  0  0
   29.3253  -20.0016   -8.4434 C   0  0  0  0  0  0  0  0  0  0  0  0
   28.6154  -20.4433   -9.5316 C   0  0  0  0  0  0  0  0  0  0  0  0
   27.2315  -20.4066   -9.5377 C   0  0  0  0  0  0  0  0  0  0  0  0
   25.6918  -19.4259  -12.8782 C   0  0  0  0  0  0  0  0  0  0  0  0
   26.3952  -18.7080  -13.5916 O   0  0  0  0  0  0  0  0  0  0  0  0
   24.7643  -18.8853  -11.9994 O   0  0  0  0  0  0  0  0  0  0  0  0
  2  1  1  6
  3  2  1  0
  4  3  1  0
  5  4  1  0
  6  5  1  0
  7  6  1  0
  8  2  1  0
  8  9  2  0
 10  8  1  0
 11 10  1  0
 11 12  1  6
 13 12  1  0
 13 14  1  0
 14 18  1  0
 14 15  2  0
 16 11  1  0
 17 16  2  0
 19 16  1  0
 20 21  1  1
 20 19  1  0
 21 22  1  0
 22 23  2  0
 23 24  1  0
 25 24  1  0
 26 25  2  0
 27 26  1  0
 28 29  1  0
 28 27  2  0
 29 30  2  0
 30 22  1  0
 30 25  1  0
 31 33  1  0
 31 20  1  0
 32 31  2  0
M  END
$$$$
