KEW.pdb
     RDKit          3D

 33 34  0  0  1  0  0  0  0  0999 V2000
   28.0143  -19.3223  -16.7330 N   0  0  0  0  0  0  0  0  0  0  0  0
   28.2112  -18.5017  -15.5804 C   0  0  1  0  0  0  0  0  0  0  0  0
   28.3249  -17.0676  -15.9797 C   0  0  0  0  0  0  0  0  0  0  0  0
   28.8272  -16.8305  -17.3615 C   0  0  0  0  0  0  0  0  0  0  0  0
   30.3054  -17.0424  -17.5252 C   0  0  0  0  0  0  0  0  0  0  0  0
   30.7737  -16.6551  -18.9149 C   0  0  0  0  0  0  0  0  0  0  0  0
   32.1481  -17.0872  -19.0586 N   0  0  0  0  0  0  0  0  0  0  0  0
   27.0973  -18.5869  -14.6004 C   0  0  0  0  0  0  0  0  0  0  0  0
   26.8512  -17.5367  -13.9305 O   0  0  0  0  0  0  0  0  0  0  0  0
   26.3093  -19.7171  -14.3610 N   0  0  0  0  0  0  0  0  0  0  0  0
   25.2485  -19.7539  -13.3490 C   0  0  1  0  0  0  0  0  0  0  0  0
   24.1289  -20.5375  -13.9396 C   0  0  0  0  0  0  0  0  0  0  0  0
   22.9793  -20.8055  -13.0127 C   0  0  0  0  0  0  0  0  0  0  0  0
   21.9409  -21.5960  -13.6777 C   0  0  0  0  0  0  0  0  0  0  0  0
   22.1504  -22.3612  -14.6158 O   0  0  0  0  0  0  0  0  0  0  0  0
   25.7571  -20.3544  -12.0832 C   0  0  0  0  0  0  0  0  0  0  0  0
   26.8825  -20.9034  -12.0757 O   0  0  0  0  0  0  0  0  0  0  0  0
   20.6263  -21.4788  -13.2237 O   0  0  0  0  0  0  0  0  0  0  0  0
   25.0122  -20.3292  -10.8757 N   0  0  0  0  0  0  0  0  0  0  0  0
   25.4121  -20.8121   -9.6036 C   0  0  1  0  0  0  0  0  0  0  0  0
   26.6192  -20.2255   -8.9888 C   0  0  0  0  0  0  0  0  0  0  0  0
   26.9986  -20.7145   -7.6635 C   0  0  0  0  0  0  0  0  0  0  0  0
   26.6484  -21.8430   -6.9713 C   0  0  0  0  0  0  0  0  0  0  0  0
   27.2687  -21.8378   -5.7687 N   0  0  0  0  0  0  0  0  0  0  0  0
   28.0104  -20.7157   -5.6888 C   0  0  0  0  0  0  0  0  0  0  0  0
   28.8315  -20.2257   -4.6822 C   0  0  0  0  0  0  0  0  0  0  0  0
   29.4897  -19.0340   -4.8474 C   0  0  0  0  0  0  0  0  0  0  0  0
   29.3548  -18.2996   -6.0044 C   0  0  0  0  0  0  0  0  0  0  0  0
   28.5433  -18.7837   -6.9997 C   0  0  0  0  0  0  0  0  0  0  0  0
   27.8730  -19.9852   -6.8462 C   0  0  0  0  0  0  0  0  0  0  0  0
   24.3140  -20.7254   -8.5544 C   0  0  0  0  0  0  0  0  0  0  0  0
   23.3138  -20.0334   -8.7540 O   0  0  0  0  0  0  0  0  0  0  0  0
   24.4741  -21.4426   -7.3777 O   0  0  0  0  0  0  0  0  0  0  0  0
  2  1  1  6
  3  2  1  0
  4  3  1  0
  5  4  1  0
  6  5  1  0
  7  6  1  0
  8  2  1  0
  8  9  2  0
 10  8  1  0
 11 10  1  0
 11 12  1  6
 13 12  1  0
 13 14  1  0
 14 18  1  0
 14 15  2  0
 16 11  1  0
 17 16  2  0
 19 16  1  0
 20 21  1  1
 20 19  1  0
 21 22  1  0
 22 23  2  0
 23 24  1  0
 25 24  1  0
 26 25  2  0
 27 26  1  0
 28 29  1  0
 28 27  2  0
 29 30  2  0
 30 22  1  0
 30 25  1  0
 31 33  1  0
 31 20  1  0
 32 31  2  0
M  END
$$$$
