KEW.pdb
     RDKit          3D

 33 34  0  0  1  0  0  0  0  0999 V2000
   25.8714  -17.0944  -18.4812 N   0  0  0  0  0  0  0  0  0  0  0  0
   26.5337  -17.6837  -17.3610 C   0  0  1  0  0  0  0  0  0  0  0  0
   27.5862  -16.7625  -16.8389 C   0  0  0  0  0  0  0  0  0  0  0  0
   28.9888  -17.1710  -17.1282 C   0  0  0  0  0  0  0  0  0  0  0  0
   29.7313  -16.2292  -18.0329 C   0  0  0  0  0  0  0  0  0  0  0  0
   31.1453  -16.7095  -18.2984 C   0  0  0  0  0  0  0  0  0  0  0  0
   31.7909  -15.7405  -19.1589 N   0  0  0  0  0  0  0  0  0  0  0  0
   25.6206  -17.9786  -16.2262 C   0  0  0  0  0  0  0  0  0  0  0  0
   25.6508  -17.1673  -15.2498 O   0  0  0  0  0  0  0  0  0  0  0  0
   24.7426  -19.0643  -16.1497 N   0  0  0  0  0  0  0  0  0  0  0  0
   23.9035  -19.3345  -14.9776 C   0  0  1  0  0  0  0  0  0  0  0  0
   22.5456  -19.6567  -15.4961 C   0  0  0  0  0  0  0  0  0  0  0  0
   21.8528  -18.5337  -16.2112 C   0  0  0  0  0  0  0  0  0  0  0  0
   21.5223  -17.4464  -15.2872 C   0  0  0  0  0  0  0  0  0  0  0  0
   21.0285  -17.6122  -14.1745 O   0  0  0  0  0  0  0  0  0  0  0  0
   24.4814  -20.4448  -14.1684 C   0  0  0  0  0  0  0  0  0  0  0  0
   25.2251  -21.2845  -14.7250 O   0  0  0  0  0  0  0  0  0  0  0  0
   21.7810  -16.1347  -15.6878 O   0  0  0  0  0  0  0  0  0  0  0  0
   24.2214  -20.5907  -12.7811 N   0  0  0  0  0  0  0  0  0  0  0  0
   25.1392  -20.9579  -11.7640 C   0  0  1  0  0  0  0  0  0  0  0  0
   26.3862  -20.1772  -11.6423 C   0  0  0  0  0  0  0  0  0  0  0  0
   27.4140  -20.6966  -10.7405 C   0  0  0  0  0  0  0  0  0  0  0  0
   28.2536  -21.7742  -10.8363 C   0  0  0  0  0  0  0  0  0  0  0  0
   29.0270  -21.8356   -9.7277 N   0  0  0  0  0  0  0  0  0  0  0  0
   28.6870  -20.8069   -8.9265 C   0  0  0  0  0  0  0  0  0  0  0  0
   29.1640  -20.4123   -7.6839 C   0  0  0  0  0  0  0  0  0  0  0  0
   28.6409  -19.3069   -7.0631 C   0  0  0  0  0  0  0  0  0  0  0  0
   27.6389  -18.5671   -7.6502 C   0  0  0  0  0  0  0  0  0  0  0  0
   27.1672  -18.9568   -8.8786 C   0  0  0  0  0  0  0  0  0  0  0  0
   27.6861  -20.0705   -9.5165 C   0  0  0  0  0  0  0  0  0  0  0  0
   24.5183  -20.9890  -10.3757 C   0  0  0  0  0  0  0  0  0  0  0  0
   24.9547  -21.7548   -9.5142 O   0  0  0  0  0  0  0  0  0  0  0  0
   23.4554  -20.1366  -10.1141 O   0  0  0  0  0  0  0  0  0  0  0  0
  2  1  1  6
  3  2  1  0
  4  3  1  0
  5  4  1  0
  6  5  1  0
  7  6  1  0
  8  2  1  0
  8  9  2  0
 10  8  1  0
 11 10  1  0
 11 12  1  6
 13 12  1  0
 13 14  1  0
 14 18  1  0
 14 15  2  0
 16 11  1  0
 17 16  2  0
 19 16  1  0
 20 21  1  1
 20 19  1  0
 21 22  1  0
 22 23  2  0
 23 24  1  0
 25 24  1  0
 26 25  2  0
 27 26  1  0
 28 29  1  0
 28 27  2  0
 29 30  2  0
 30 22  1  0
 30 25  1  0
 31 33  1  0
 31 20  1  0
 32 31  2  0
M  END
$$$$
