KEW.pdb
     RDKit          3D

 33 34  0  0  1  0  0  0  0  0999 V2000
   27.4392  -16.6822  -14.4786 N   0  0  0  0  0  0  0  0  0  0  0  0
   26.1755  -17.2812  -14.7706 C   0  0  1  0  0  0  0  0  0  0  0  0
   25.7735  -16.9814  -16.1769 C   0  0  0  0  0  0  0  0  0  0  0  0
   26.4983  -15.8490  -16.8174 C   0  0  0  0  0  0  0  0  0  0  0  0
   27.8255  -16.2241  -17.4129 C   0  0  0  0  0  0  0  0  0  0  0  0
   28.4277  -15.0762  -18.2006 C   0  0  0  0  0  0  0  0  0  0  0  0
   29.7016  -15.5178  -18.7282 N   0  0  0  0  0  0  0  0  0  0  0  0
   26.1798  -18.7608  -14.6321 C   0  0  0  0  0  0  0  0  0  0  0  0
   25.1476  -19.3713  -15.0493 O   0  0  0  0  0  0  0  0  0  0  0  0
   27.2169  -19.5234  -14.0859 N   0  0  0  0  0  0  0  0  0  0  0  0
   27.0909  -20.9556  -13.7963 C   0  0  1  0  0  0  0  0  0  0  0  0
   28.2005  -21.6322  -14.5226 C   0  0  0  0  0  0  0  0  0  0  0  0
   28.2742  -21.3373  -15.9923 C   0  0  0  0  0  0  0  0  0  0  0  0
   29.4081  -22.0279  -16.6110 C   0  0  0  0  0  0  0  0  0  0  0  0
   30.1948  -22.7474  -16.0004 O   0  0  0  0  0  0  0  0  0  0  0  0
   27.1434  -21.1962  -12.3263 C   0  0  0  0  0  0  0  0  0  0  0  0
   28.2239  -21.5520  -11.8030 O   0  0  0  0  0  0  0  0  0  0  0  0
   29.6162  -21.8638  -17.9813 O   0  0  0  0  0  0  0  0  0  0  0  0
   26.0096  -21.0369  -11.4881 N   0  0  0  0  0  0  0  0  0  0  0  0
   25.9638  -21.1145  -10.0727 C   0  0  1  0  0  0  0  0  0  0  0  0
   26.8762  -20.2467   -9.3021 C   0  0  0  0  0  0  0  0  0  0  0  0
   26.6906  -20.2031   -7.8519 C   0  0  0  0  0  0  0  0  0  0  0  0
   25.5633  -20.2137   -7.0744 C   0  0  0  0  0  0  0  0  0  0  0  0
   25.9212  -20.1527   -5.7709 N   0  0  0  0  0  0  0  0  0  0  0  0
   27.2665  -20.1028   -5.7115 C   0  0  0  0  0  0  0  0  0  0  0  0
   28.1374  -20.0308   -4.6327 C   0  0  0  0  0  0  0  0  0  0  0  0
   29.4923  -19.9896   -4.8411 C   0  0  0  0  0  0  0  0  0  0  0  0
   30.0189  -20.0183   -6.1131 C   0  0  0  0  0  0  0  0  0  0  0  0
   29.1583  -20.0896   -7.1797 C   0  0  0  0  0  0  0  0  0  0  0  0
   27.7885  -20.1318   -6.9838 C   0  0  0  0  0  0  0  0  0  0  0  0
   24.5727  -20.8842   -9.5019 C   0  0  0  0  0  0  0  0  0  0  0  0
   23.8731  -19.9587   -9.9179 O   0  0  0  0  0  0  0  0  0  0  0  0
   24.1223  -21.7408   -8.5078 O   0  0  0  0  0  0  0  0  0  0  0  0
  2  1  1  6
  3  2  1  0
  4  3  1  0
  5  4  1  0
  6  5  1  0
  7  6  1  0
  8  2  1  0
  8  9  2  0
 10  8  1  0
 11 10  1  0
 11 12  1  6
 13 12  1  0
 13 14  1  0
 14 18  1  0
 14 15  2  0
 16 11  1  0
 17 16  2  0
 19 16  1  0
 20 21  1  1
 20 19  1  0
 21 22  1  0
 22 23  2  0
 23 24  1  0
 25 24  1  0
 26 25  2  0
 27 26  1  0
 28 29  1  0
 28 27  2  0
 29 30  2  0
 30 22  1  0
 30 25  1  0
 31 33  1  0
 31 20  1  0
 32 31  2  0
M  END
$$$$
