KEW.pdb
     RDKit          3D

 33 34  0  0  1  0  0  0  0  0999 V2000
   38.0131  -25.7773  -21.4656 N   0  0  0  0  0  0  0  0  0  0  0  0
   36.9494  -26.6489  -21.8522 C   0  0  1  0  0  0  0  0  0  0  0  0
   37.2342  -28.0438  -21.4025 C   0  0  0  0  0  0  0  0  0  0  0  0
   38.2153  -28.7925  -22.2361 C   0  0  0  0  0  0  0  0  0  0  0  0
   37.6480  -30.0066  -22.9151 C   0  0  0  0  0  0  0  0  0  0  0  0
   38.6212  -31.1697  -22.8820 C   0  0  0  0  0  0  0  0  0  0  0  0
   38.0038  -32.2867  -23.5656 N   0  0  0  0  0  0  0  0  0  0  0  0
   35.6365  -26.2698  -21.2681 C   0  0  0  0  0  0  0  0  0  0  0  0
   35.6497  -25.8535  -20.0686 O   0  0  0  0  0  0  0  0  0  0  0  0
   34.4045  -26.3344  -21.9263 N   0  0  0  0  0  0  0  0  0  0  0  0
   33.1308  -26.0104  -21.2754 C   0  0  1  0  0  0  0  0  0  0  0  0
   32.3088  -25.2945  -22.2894 C   0  0  0  0  0  0  0  0  0  0  0  0
   30.9064  -24.9733  -21.8623 C   0  0  0  0  0  0  0  0  0  0  0  0
   30.0306  -24.7966  -23.0229 C   0  0  0  0  0  0  0  0  0  0  0  0
   29.2261  -25.6383  -23.4152 O   0  0  0  0  0  0  0  0  0  0  0  0
   32.4691  -27.2506  -20.7797 C   0  0  0  0  0  0  0  0  0  0  0  0
   32.5122  -28.2882  -21.4792 O   0  0  0  0  0  0  0  0  0  0  0  0
   30.1080  -23.5989  -23.7352 O   0  0  0  0  0  0  0  0  0  0  0  0
   31.7866  -27.3043  -19.5368 N   0  0  0  0  0  0  0  0  0  0  0  0
   31.0817  -28.4044  -18.9851 C   0  0  1  0  0  0  0  0  0  0  0  0
   30.8702  -28.4287  -17.5244 C   0  0  0  0  0  0  0  0  0  0  0  0
   30.1387  -29.5696  -16.9743 C   0  0  0  0  0  0  0  0  0  0  0  0
   28.8206  -29.7357  -16.6422 C   0  0  0  0  0  0  0  0  0  0  0  0
   28.6369  -30.9875  -16.1624 N   0  0  0  0  0  0  0  0  0  0  0  0
   29.8265  -31.6200  -16.1856 C   0  0  0  0  0  0  0  0  0  0  0  0
   30.1927  -32.9045  -15.8071 C   0  0  0  0  0  0  0  0  0  0  0  0
   31.4953  -33.3155  -15.9309 C   0  0  0  0  0  0  0  0  0  0  0  0
   32.4641  -32.4732  -16.4289 C   0  0  0  0  0  0  0  0  0  0  0  0
   32.1025  -31.2034  -16.8033 C   0  0  0  0  0  0  0  0  0  0  0  0
   30.7913  -30.7755  -16.6837 C   0  0  0  0  0  0  0  0  0  0  0  0
   29.7153  -28.6220  -19.6175 C   0  0  0  0  0  0  0  0  0  0  0  0
   29.1201  -29.6903  -19.4647 O   0  0  0  0  0  0  0  0  0  0  0  0
   29.1673  -27.5894  -20.3647 O   0  0  0  0  0  0  0  0  0  0  0  0
  2  1  1  1
  3  2  1  0
  4  3  1  0
  5  4  1  0
  6  5  1  0
  7  6  1  0
  8  2  1  0
  8  9  2  0
 10  8  1  0
 11 10  1  0
 11 12  1  6
 13 12  1  0
 13 14  1  0
 14 18  1  0
 14 15  2  0
 16 11  1  0
 17 16  2  0
 19 16  1  0
 20 21  1  1
 20 19  1  0
 21 22  1  0
 22 23  2  0
 23 24  1  0
 25 24  1  0
 26 25  2  0
 27 26  1  0
 28 29  1  0
 28 27  2  0
 29 30  2  0
 30 22  1  0
 30 25  1  0
 31 33  1  0
 31 20  1  0
 32 31  2  0
M  END
$$$$
