KEW.pdb
     RDKit          3D

 33 34  0  0  1  0  0  0  0  0999 V2000
   29.0279  -22.1615  -17.6836 N   0  0  0  0  0  0  0  0  0  0  0  0
   28.6978  -22.6257  -16.3735 C   0  0  1  0  0  0  0  0  0  0  0  0
   29.9265  -22.7094  -15.5295 C   0  0  0  0  0  0  0  0  0  0  0  0
   31.1056  -23.3410  -16.1843 C   0  0  0  0  0  0  0  0  0  0  0  0
   31.1194  -24.8415  -16.1146 C   0  0  0  0  0  0  0  0  0  0  0  0
   32.4382  -25.4103  -16.6025 C   0  0  0  0  0  0  0  0  0  0  0  0
   32.3488  -26.8542  -16.5466 N   0  0  0  0  0  0  0  0  0  0  0  0
   27.7454  -21.7376  -15.6574 C   0  0  0  0  0  0  0  0  0  0  0  0
   28.0115  -20.4961  -15.6686 O   0  0  0  0  0  0  0  0  0  0  0  0
   26.5949  -22.1556  -14.9815 N   0  0  0  0  0  0  0  0  0  0  0  0
   25.6952  -21.2307  -14.2843 C   0  0  1  0  0  0  0  0  0  0  0  0
   24.3827  -21.3121  -14.9824 C   0  0  0  0  0  0  0  0  0  0  0  0
   23.2826  -20.4957  -14.3696 C   0  0  0  0  0  0  0  0  0  0  0  0
   22.0043  -20.7499  -15.0378 C   0  0  0  0  0  0  0  0  0  0  0  0
   21.8888  -21.3600  -16.0980 O   0  0  0  0  0  0  0  0  0  0  0  0
   25.5950  -21.5903  -12.8413 C   0  0  0  0  0  0  0  0  0  0  0  0
   25.4918  -22.7954  -12.5170 O   0  0  0  0  0  0  0  0  0  0  0  0
   20.8373  -20.2721  -14.4396 O   0  0  0  0  0  0  0  0  0  0  0  0
   25.6120  -20.6148  -11.8109 N   0  0  0  0  0  0  0  0  0  0  0  0
   25.5035  -20.8322  -10.4136 C   0  0  1  0  0  0  0  0  0  0  0  0
   26.3375  -20.0067   -9.5180 C   0  0  0  0  0  0  0  0  0  0  0  0
   27.6564  -20.5301   -9.1629 C   0  0  0  0  0  0  0  0  0  0  0  0
   28.5025  -21.3905   -9.8103 C   0  0  0  0  0  0  0  0  0  0  0  0
   29.6151  -21.5685   -9.0611 N   0  0  0  0  0  0  0  0  0  0  0  0
   29.4848  -20.8294   -7.9419 C   0  0  0  0  0  0  0  0  0  0  0  0
   30.3268  -20.6544   -6.8521 C   0  0  0  0  0  0  0  0  0  0  0  0
   29.9562  -19.8326   -5.8185 C   0  0  0  0  0  0  0  0  0  0  0  0
   28.7512  -19.1664   -5.8346 C   0  0  0  0  0  0  0  0  0  0  0  0
   27.9186  -19.3391   -6.9118 C   0  0  0  0  0  0  0  0  0  0  0  0
   28.2802  -20.1656   -7.9619 C   0  0  0  0  0  0  0  0  0  0  0  0
   24.0780  -20.7168   -9.8955 C   0  0  0  0  0  0  0  0  0  0  0  0
   23.1988  -20.2110  -10.5956 O   0  0  0  0  0  0  0  0  0  0  0  0
   23.8031  -21.1939   -8.6220 O   0  0  0  0  0  0  0  0  0  0  0  0
  2  1  1  6
  3  2  1  0
  4  3  1  0
  5  4  1  0
  6  5  1  0
  7  6  1  0
  8  2  1  0
  8  9  2  0
 10  8  1  0
 11 10  1  0
 11 12  1  6
 13 12  1  0
 13 14  1  0
 14 18  1  0
 14 15  2  0
 16 11  1  0
 17 16  2  0
 19 16  1  0
 20 21  1  1
 20 19  1  0
 21 22  1  0
 22 23  2  0
 23 24  1  0
 25 24  1  0
 26 25  2  0
 27 26  1  0
 28 29  1  0
 28 27  2  0
 29 30  2  0
 30 22  1  0
 30 25  1  0
 31 33  1  0
 31 20  1  0
 32 31  2  0
M  END
$$$$
