KEW.pdb
     RDKit          3D

 33 34  0  0  1  0  0  0  0  0999 V2000
   26.0010  -18.8434  -16.6744 N   0  0  0  0  0  0  0  0  0  0  0  0
   26.5295  -19.6801  -15.6441 C   0  0  1  0  0  0  0  0  0  0  0  0
   27.9551  -19.3293  -15.3732 C   0  0  0  0  0  0  0  0  0  0  0  0
   28.9186  -19.7145  -16.4415 C   0  0  0  0  0  0  0  0  0  0  0  0
   28.9138  -21.1787  -16.7775 C   0  0  0  0  0  0  0  0  0  0  0  0
   29.9163  -21.5037  -17.8685 C   0  0  0  0  0  0  0  0  0  0  0  0
   29.9543  -22.9426  -18.0245 N   0  0  0  0  0  0  0  0  0  0  0  0
   25.8039  -19.5533  -14.3534 C   0  0  0  0  0  0  0  0  0  0  0  0
   26.0212  -18.4968  -13.6834 O   0  0  0  0  0  0  0  0  0  0  0  0
   24.9128  -20.4930  -13.8257 N   0  0  0  0  0  0  0  0  0  0  0  0
   24.3097  -20.3653  -12.4949 C   0  0  1  0  0  0  0  0  0  0  0  0
   22.9915  -21.0540  -12.5613 C   0  0  0  0  0  0  0  0  0  0  0  0
   22.2298  -21.0996  -11.2690 C   0  0  0  0  0  0  0  0  0  0  0  0
   21.4303  -19.8859  -11.0867 C   0  0  0  0  0  0  0  0  0  0  0  0
   20.9792  -19.2114  -12.0092 O   0  0  0  0  0  0  0  0  0  0  0  0
   25.2061  -20.9516  -11.4585 C   0  0  0  0  0  0  0  0  0  0  0  0
   25.6766  -22.0986  -11.6348 O   0  0  0  0  0  0  0  0  0  0  0  0
   21.1586  -19.4607   -9.7854 O   0  0  0  0  0  0  0  0  0  0  0  0
   25.5514  -20.2575  -10.2701 N   0  0  0  0  0  0  0  0  0  0  0  0
   26.3072  -20.7451   -9.1734 C   0  0  1  0  0  0  0  0  0  0  0  0
   27.2562  -19.8211   -8.5215 C   0  0  0  0  0  0  0  0  0  0  0  0
   28.1292  -20.3791   -7.4891 C   0  0  0  0  0  0  0  0  0  0  0  0
   28.9822  -21.4503   -7.4950 C   0  0  0  0  0  0  0  0  0  0  0  0
   29.5669  -21.5603   -6.2797 N   0  0  0  0  0  0  0  0  0  0  0  0
   29.0934  -20.5688   -5.4997 C   0  0  0  0  0  0  0  0  0  0  0  0
   29.3602  -20.2295   -4.1802 C   0  0  0  0  0  0  0  0  0  0  0  0
   28.7346  -19.1535   -3.6042 C   0  0  0  0  0  0  0  0  0  0  0  0
   27.8344  -18.3893   -4.3127 C   0  0  0  0  0  0  0  0  0  0  0  0
   27.5705  -18.7244   -5.6170 C   0  0  0  0  0  0  0  0  0  0  0  0
   28.1949  -19.8079   -6.2109 C   0  0  0  0  0  0  0  0  0  0  0  0
   25.4477  -21.3280   -8.0619 C   0  0  0  0  0  0  0  0  0  0  0  0
   24.3002  -20.9168   -7.8798 O   0  0  0  0  0  0  0  0  0  0  0  0
   25.9925  -22.3267   -7.2678 O   0  0  0  0  0  0  0  0  0  0  0  0
  2  1  1  6
  3  2  1  0
  4  3  1  0
  5  4  1  0
  6  5  1  0
  7  6  1  0
  8  2  1  0
  8  9  2  0
 10  8  1  0
 11 10  1  0
 11 12  1  6
 13 12  1  0
 13 14  1  0
 14 18  1  0
 14 15  2  0
 16 11  1  0
 17 16  2  0
 19 16  1  0
 20 21  1  1
 20 19  1  0
 21 22  1  0
 22 23  2  0
 23 24  1  0
 25 24  1  0
 26 25  2  0
 27 26  1  0
 28 29  1  0
 28 27  2  0
 29 30  2  0
 30 22  1  0
 30 25  1  0
 31 33  1  0
 31 20  1  0
 32 31  2  0
M  END
$$$$
