GFI.pdb
     RDKit          3D

 24 24  0  0  1  0  0  0  0  0999 V2000
   29.0687  -33.9691  -14.7150 N   0  0  0  0  0  0  0  0  0  0  0  0
   29.1043  -33.8396  -16.1619 C   0  0  0  0  0  0  0  0  0  0  0  0
   28.8199  -32.4057  -16.4946 C   0  0  0  0  0  0  0  0  0  0  0  0
   28.6723  -31.5336  -15.5917 O   0  0  0  0  0  0  0  0  0  0  0  0
   28.7028  -31.9583  -17.8344 N   0  0  0  0  0  0  0  0  0  0  0  0
   28.4867  -30.5635  -18.1737 C   0  0  1  0  0  0  0  0  0  0  0  0
   29.5834  -30.0432  -19.0078 C   0  0  0  0  0  0  0  0  0  0  0  0
   30.9125  -29.9445  -18.4426 C   0  0  0  0  0  0  0  0  0  0  0  0
   31.3883  -28.7091  -18.0547 C   0  0  0  0  0  0  0  0  0  0  0  0
   32.6512  -28.5286  -17.4976 C   0  0  0  0  0  0  0  0  0  0  0  0
   33.4651  -29.6204  -17.3230 C   0  0  0  0  0  0  0  0  0  0  0  0
   33.0080  -30.8661  -17.7050 C   0  0  0  0  0  0  0  0  0  0  0  0
   31.7706  -31.0147  -18.2464 C   0  0  0  0  0  0  0  0  0  0  0  0
   27.1635  -30.4446  -18.8998 C   0  0  0  0  0  0  0  0  0  0  0  0
   26.9205  -31.2826  -19.7851 O   0  0  0  0  0  0  0  0  0  0  0  0
   23.4198  -26.2565  -18.4190 C   0  0  0  0  0  0  0  0  0  0  0  0
   24.3993  -27.2611  -17.8560 C   0  0  0  0  0  0  0  0  0  0  0  0
   23.9631  -28.6784  -18.1348 C   0  0  2  0  0  0  0  0  0  0  0  0
   24.0855  -29.4225  -16.8061 C   0  0  0  0  0  0  0  0  0  0  0  0
   24.9196  -29.3187  -19.1393 C   0  0  2  0  0  0  0  0  0  0  0  0
   26.2489  -29.4329  -18.5887 N   0  0  0  0  0  0  0  0  0  0  0  0
   24.9040  -28.6400  -20.4315 C   0  0  0  0  0  0  0  0  0  0  0  0
   25.8214  -27.8457  -20.7892 O   0  0  0  0  0  0  0  0  0  0  0  0
   23.8678  -28.8433  -21.3288 O   0  0  0  0  0  0  0  0  0  0  0  0
  1  2  1  0
  3  2  1  0
  4  3  2  0
  5  3  1  0
  6 14  1  0
  6  5  1  0
  6  7  1  6
  8  7  1  0
  9  8  2  0
 10 11  2  0
 10  9  1  0
 11 12  1  0
 12 13  2  0
 13  8  1  0
 14 21  1  0
 15 14  2  0
 17 16  1  0
 18 17  1  0
 18 19  1  1
 20 18  1  0
 20 22  1  0
 20 21  1  1
 22 23  2  0
 22 24  1  0
M  END
$$$$
