GFI.pdb
     RDKit          3D

 24 24  0  0  1  0  0  0  0  0999 V2000
   26.8458  -21.7680  -13.4853 N   0  0  0  0  0  0  0  0  0  0  0  0
   26.8340  -20.5237  -12.7348 C   0  0  0  0  0  0  0  0  0  0  0  0
   26.8082  -20.8750  -11.2775 C   0  0  0  0  0  0  0  0  0  0  0  0
   26.7637  -22.0764  -10.8871 O   0  0  0  0  0  0  0  0  0  0  0  0
   26.8322  -19.8801  -10.2683 N   0  0  0  0  0  0  0  0  0  0  0  0
   26.7893  -20.2041   -8.8540 C   0  0  1  0  0  0  0  0  0  0  0  0
   27.4573  -19.1663   -8.0503 C   0  0  0  0  0  0  0  0  0  0  0  0
   27.8180  -19.4603   -6.6795 C   0  0  0  0  0  0  0  0  0  0  0  0
   28.3799  -20.6840   -6.3796 C   0  0  0  0  0  0  0  0  0  0  0  0
   28.7604  -21.0431   -5.0896 C   0  0  0  0  0  0  0  0  0  0  0  0
   28.5722  -20.1482   -4.0656 C   0  0  0  0  0  0  0  0  0  0  0  0
   28.0111  -18.9177   -4.3443 C   0  0  0  0  0  0  0  0  0  0  0  0
   27.6485  -18.5922   -5.6129 C   0  0  0  0  0  0  0  0  0  0  0  0
   25.3410  -20.3494   -8.4377 C   0  0  0  0  0  0  0  0  0  0  0  0
   24.5707  -19.4137   -8.7138 O   0  0  0  0  0  0  0  0  0  0  0  0
   23.0261  -25.2001   -8.8863 C   0  0  0  0  0  0  0  0  0  0  0  0
   23.2536  -23.7074   -8.8096 C   0  0  0  0  0  0  0  0  0  0  0  0
   23.1795  -23.2067   -7.3882 C   0  0  2  0  0  0  0  0  0  0  0  0
   21.7234  -23.3799   -6.9593 C   0  0  0  0  0  0  0  0  0  0  0  0
   23.5219  -21.7183   -7.3527 C   0  0  2  0  0  0  0  0  0  0  0  0
   24.8850  -21.4902   -7.7687 N   0  0  0  0  0  0  0  0  0  0  0  0
   23.2201  -21.1097   -6.0607 C   0  0  0  0  0  0  0  0  0  0  0  0
   24.0814  -21.0187   -5.1385 O   0  0  0  0  0  0  0  0  0  0  0  0
   21.9597  -20.6007   -5.7916 O   0  0  0  0  0  0  0  0  0  0  0  0
  1  2  1  0
  3  2  1  0
  4  3  2  0
  5  3  1  0
  6 14  1  0
  6  5  1  0
  6  7  1  1
  8  7  1  0
  9  8  2  0
 10 11  2  0
 10  9  1  0
 11 12  1  0
 12 13  2  0
 13  8  1  0
 14 21  1  0
 15 14  2  0
 17 16  1  0
 18 17  1  0
 18 19  1  6
 20 18  1  0
 20 22  1  0
 20 21  1  1
 22 23  2  0
 22 24  1  0
M  END
$$$$
