GFI.pdb
     RDKit          3D

 24 24  0  0  1  0  0  0  0  0999 V2000
   29.3110  -22.0976  -13.5065 N   0  0  0  0  0  0  0  0  0  0  0  0
   29.5525  -20.9311  -12.6743 C   0  0  0  0  0  0  0  0  0  0  0  0
   28.9183  -21.1883  -11.3403 C   0  0  0  0  0  0  0  0  0  0  0  0
   28.1042  -22.1395  -11.1670 O   0  0  0  0  0  0  0  0  0  0  0  0
   29.1996  -20.3798  -10.2106 N   0  0  0  0  0  0  0  0  0  0  0  0
   28.4895  -20.5247   -8.9529 C   0  0  1  0  0  0  0  0  0  0  0  0
   29.2114  -19.8593   -7.8550 C   0  0  0  0  0  0  0  0  0  0  0  0
   28.6439  -19.8812   -6.5235 C   0  0  0  0  0  0  0  0  0  0  0  0
   28.2498  -18.6945   -5.9408 C   0  0  0  0  0  0  0  0  0  0  0  0
   27.6901  -18.6291   -4.6679 C   0  0  0  0  0  0  0  0  0  0  0  0
   27.5192  -19.7894   -3.9542 C   0  0  0  0  0  0  0  0  0  0  0  0
   27.9073  -20.9881   -4.5192 C   0  0  0  0  0  0  0  0  0  0  0  0
   28.4511  -21.0241   -5.7639 C   0  0  0  0  0  0  0  0  0  0  0  0
   27.1038  -19.9359   -9.1123 C   0  0  0  0  0  0  0  0  0  0  0  0
   27.0204  -18.7053   -9.2661 O   0  0  0  0  0  0  0  0  0  0  0  0
   24.0300  -22.2130  -12.6860 C   0  0  0  0  0  0  0  0  0  0  0  0
   24.3750  -21.9632  -11.2354 C   0  0  0  0  0  0  0  0  0  0  0  0
   24.3316  -20.4927  -10.8996 C   0  0  2  0  0  0  0  0  0  0  0  0
   25.4572  -19.8465  -11.7054 C   0  0  0  0  0  0  0  0  0  0  0  0
   24.6264  -20.2997   -9.4132 C   0  0  2  0  0  0  0  0  0  0  0  0
   25.9611  -20.7425   -9.0879 N   0  0  0  0  0  0  0  0  0  0  0  0
   23.6098  -20.9095   -8.5615 C   0  0  0  0  0  0  0  0  0  0  0  0
   22.3807  -20.6301   -8.6698 O   0  0  0  0  0  0  0  0  0  0  0  0
   23.9581  -21.8316   -7.5875 O   0  0  0  0  0  0  0  0  0  0  0  0
  1  2  1  0
  3  2  1  0
  4  3  2  0
  5  3  1  0
  6 14  1  0
  6  5  1  0
  6  7  1  1
  8  7  1  0
  9  8  2  0
 10 11  2  0
 10  9  1  0
 11 12  1  0
 12 13  2  0
 13  8  1  0
 14 21  1  0
 15 14  2  0
 17 16  1  0
 18 17  1  0
 18 19  1  6
 20 18  1  0
 20 22  1  0
 20 21  1  1
 22 23  2  0
 22 24  1  0
M  END
$$$$
