GFI.pdb
     RDKit          3D

 24 24  0  0  1  0  0  0  0  0999 V2000
   28.0560  -30.5094  -21.9479 N   0  0  0  0  0  0  0  0  0  0  0  0
   27.9856  -29.6663  -20.7664 C   0  0  0  0  0  0  0  0  0  0  0  0
   27.7695  -30.5624  -19.5839 C   0  0  0  0  0  0  0  0  0  0  0  0
   27.9231  -31.8143  -19.6656 O   0  0  0  0  0  0  0  0  0  0  0  0
   27.3835  -30.0513  -18.3196 N   0  0  0  0  0  0  0  0  0  0  0  0
   27.2381  -30.8972  -17.1489 C   0  0  1  0  0  0  0  0  0  0  0  0
   28.1734  -30.4966  -16.0841 C   0  0  0  0  0  0  0  0  0  0  0  0
   29.5860  -30.7668  -16.2488 C   0  0  0  0  0  0  0  0  0  0  0  0
   30.3926  -29.8047  -16.8204 C   0  0  0  0  0  0  0  0  0  0  0  0
   31.7603  -29.9824  -17.0091 C   0  0  0  0  0  0  0  0  0  0  0  0
   32.3402  -31.1621  -16.6129 C   0  0  0  0  0  0  0  0  0  0  0  0
   31.5505  -32.1385  -16.0388 C   0  0  0  0  0  0  0  0  0  0  0  0
   30.2175  -31.9394  -15.8659 C   0  0  0  0  0  0  0  0  0  0  0  0
   25.8073  -30.8043  -16.6631 C   0  0  0  0  0  0  0  0  0  0  0  0
   25.3187  -29.6680  -16.5396 O   0  0  0  0  0  0  0  0  0  0  0  0
   20.4284  -33.2018  -17.5539 C   0  0  0  0  0  0  0  0  0  0  0  0
   21.3609  -32.6129  -16.5197 C   0  0  0  0  0  0  0  0  0  0  0  0
   22.7797  -32.5404  -17.0283 C   0  0  2  0  0  0  0  0  0  0  0  0
   23.2055  -33.9848  -17.2862 C   0  0  0  0  0  0  0  0  0  0  0  0
   23.6817  -31.9550  -15.9433 C   0  0  2  0  0  0  0  0  0  0  0  0
   25.0623  -31.9500  -16.3643 N   0  0  0  0  0  0  0  0  0  0  0  0
   23.4914  -32.6073  -14.6513 C   0  0  0  0  0  0  0  0  0  0  0  0
   24.2624  -33.5196  -14.2345 O   0  0  0  0  0  0  0  0  0  0  0  0
   22.4433  -32.2460  -13.8201 O   0  0  0  0  0  0  0  0  0  0  0  0
  1  2  1  0
  3  2  1  0
  4  3  2  0
  5  3  1  0
  6 14  1  0
  6  5  1  0
  6  7  1  1
  8  7  1  0
  9  8  2  0
 10 11  2  0
 10  9  1  0
 11 12  1  0
 12 13  2  0
 13  8  1  0
 14 21  1  0
 15 14  2  0
 17 16  1  0
 18 17  1  0
 18 19  1  1
 20 18  1  0
 20 22  1  0
 20 21  1  6
 22 23  2  0
 22 24  1  0
M  END
$$$$
