GFI.pdb
     RDKit          3D

 24 24  0  0  1  0  0  0  0  0999 V2000
   31.2285  -21.9625  -10.6996 N   0  0  0  0  0  0  0  0  0  0  0  0
   30.7043  -20.7524  -10.0893 C   0  0  0  0  0  0  0  0  0  0  0  0
   29.2570  -20.9925   -9.7801 C   0  0  0  0  0  0  0  0  0  0  0  0
   28.6562  -22.0274  -10.1871 O   0  0  0  0  0  0  0  0  0  0  0  0
   28.4930  -20.0733   -9.0183 N   0  0  0  0  0  0  0  0  0  0  0  0
   27.1146  -20.3297   -8.6421 C   0  0  1  0  0  0  0  0  0  0  0  0
   26.7364  -19.5546   -7.4482 C   0  0  0  0  0  0  0  0  0  0  0  0
   27.5262  -19.6882   -6.2424 C   0  0  0  0  0  0  0  0  0  0  0  0
   27.4818  -20.8730   -5.5371 C   0  0  0  0  0  0  0  0  0  0  0  0
   28.2144  -21.0850   -4.3726 C   0  0  0  0  0  0  0  0  0  0  0  0
   29.0179  -20.0781   -3.8978 C   0  0  0  0  0  0  0  0  0  0  0  0
   29.0765  -18.8840   -4.5887 C   0  0  0  0  0  0  0  0  0  0  0  0
   28.3510  -18.7031   -5.7233 C   0  0  0  0  0  0  0  0  0  0  0  0
   26.2226  -19.9735   -9.8123 C   0  0  0  0  0  0  0  0  0  0  0  0
   26.4223  -18.8814  -10.3712 O   0  0  0  0  0  0  0  0  0  0  0  0
   24.8554  -20.5869  -14.8363 C   0  0  0  0  0  0  0  0  0  0  0  0
   24.1374  -21.4310  -13.8078 C   0  0  0  0  0  0  0  0  0  0  0  0
   24.9669  -21.6113  -12.5603 C   0  0  2  0  0  0  0  0  0  0  0  0
   24.7397  -23.0541  -12.1121 C   0  0  0  0  0  0  0  0  0  0  0  0
   24.4534  -20.6769  -11.4663 C   0  0  2  0  0  0  0  0  0  0  0  0
   25.2128  -20.8373  -10.2494 N   0  0  0  0  0  0  0  0  0  0  0  0
   23.0156  -20.8098  -11.2522 C   0  0  0  0  0  0  0  0  0  0  0  0
   22.1659  -20.4063  -12.0981 O   0  0  0  0  0  0  0  0  0  0  0  0
   22.5198  -21.3920  -10.0966 O   0  0  0  0  0  0  0  0  0  0  0  0
  1  2  1  0
  3  2  1  0
  4  3  2  0
  5  3  1  0
  6 14  1  0
  6  5  1  0
  6  7  1  1
  8  7  1  0
  9  8  2  0
 10 11  2  0
 10  9  1  0
 11 12  1  0
 12 13  2  0
 13  8  1  0
 14 21  1  0
 15 14  2  0
 17 16  1  0
 18 17  1  0
 18 19  1  1
 20 18  1  0
 20 22  1  0
 20 21  1  1
 22 23  2  0
 22 24  1  0
M  END
$$$$
