GFI.pdb
     RDKit          3D

 24 24  0  0  1  0  0  0  0  0999 V2000
   30.6481  -24.8656  -16.3054 N   0  0  0  0  0  0  0  0  0  0  0  0
   29.4188  -24.3403  -16.8752 C   0  0  0  0  0  0  0  0  0  0  0  0
   29.1011  -23.0602  -16.1622 C   0  0  0  0  0  0  0  0  0  0  0  0
   29.8144  -22.6400  -15.2071 O   0  0  0  0  0  0  0  0  0  0  0  0
   27.9881  -22.2602  -16.5230 N   0  0  0  0  0  0  0  0  0  0  0  0
   27.6372  -21.0463  -15.8085 C   0  0  1  0  0  0  0  0  0  0  0  0
   27.1264  -20.0164  -16.7291 C   0  0  0  0  0  0  0  0  0  0  0  0
   26.7143  -18.7356  -16.1948 C   0  0  0  0  0  0  0  0  0  0  0  0
   25.3799  -18.5194  -15.9199 C   0  0  0  0  0  0  0  0  0  0  0  0
   24.9021  -17.3200  -15.3995 C   0  0  0  0  0  0  0  0  0  0  0  0
   25.7888  -16.3030  -15.1459 C   0  0  0  0  0  0  0  0  0  0  0  0
   27.1291  -16.4988  -15.4141 C   0  0  0  0  0  0  0  0  0  0  0  0
   27.5693  -17.6798  -15.9221 C   0  0  0  0  0  0  0  0  0  0  0  0
   26.5976  -21.3875  -14.7622 C   0  0  0  0  0  0  0  0  0  0  0  0
   25.6966  -22.1788  -15.0890 O   0  0  0  0  0  0  0  0  0  0  0  0
   25.9208  -20.9351   -8.5861 C   0  0  0  0  0  0  0  0  0  0  0  0
   25.3562  -21.2097   -9.9615 C   0  0  0  0  0  0  0  0  0  0  0  0
   26.3411  -20.8527  -11.0475 C   0  0  2  0  0  0  0  0  0  0  0  0
   26.5814  -19.3496  -10.9161 C   0  0  0  0  0  0  0  0  0  0  0  0
   25.7155  -21.1263  -12.4140 C   0  0  2  0  0  0  0  0  0  0  0  0
   26.6467  -20.8355  -13.4777 N   0  0  0  0  0  0  0  0  0  0  0  0
   24.4365  -20.4442  -12.5859 C   0  0  0  0  0  0  0  0  0  0  0  0
   23.3675  -20.8691  -12.0594 O   0  0  0  0  0  0  0  0  0  0  0  0
   24.3436  -19.2879  -13.3439 O   0  0  0  0  0  0  0  0  0  0  0  0
  1  2  1  0
  3  2  1  0
  4  3  2  0
  5  3  1  0
  6 14  1  0
  6  5  1  0
  6  7  1  6
  8  7  1  0
  9  8  2  0
 10 11  2  0
 10  9  1  0
 11 12  1  0
 12 13  2  0
 13  8  1  0
 14 21  1  0
 15 14  2  0
 17 16  1  0
 18 17  1  0
 18 19  1  6
 20 18  1  0
 20 22  1  0
 20 21  1  6
 22 23  2  0
 22 24  1  0
M  END
$$$$
