GFI.pdb
     RDKit          3D

 24 24  0  0  1  0  0  0  0  0999 V2000
   28.6472  -23.0642  -16.7202 N   0  0  0  0  0  0  0  0  0  0  0  0
   28.3227  -21.7081  -16.3113 C   0  0  0  0  0  0  0  0  0  0  0  0
   27.6171  -21.7906  -14.9910 C   0  0  0  0  0  0  0  0  0  0  0  0
   26.7291  -22.6622  -14.7686 O   0  0  0  0  0  0  0  0  0  0  0  0
   27.9101  -20.8978  -13.9299 N   0  0  0  0  0  0  0  0  0  0  0  0
   27.2768  -21.0010  -12.6278 C   0  0  1  0  0  0  0  0  0  0  0  0
   28.1131  -20.3912  -11.5800 C   0  0  0  0  0  0  0  0  0  0  0  0
   27.6867  -20.4776  -10.1992 C   0  0  0  0  0  0  0  0  0  0  0  0
   26.6889  -19.6378   -9.7497 C   0  0  0  0  0  0  0  0  0  0  0  0
   26.2173  -19.6607   -8.4402 C   0  0  0  0  0  0  0  0  0  0  0  0
   26.7623  -20.5533   -7.5508 C   0  0  0  0  0  0  0  0  0  0  0  0
   27.7626  -21.4028   -7.9804 C   0  0  0  0  0  0  0  0  0  0  0  0
   28.2047  -21.3599   -9.2647 C   0  0  0  0  0  0  0  0  0  0  0  0
   25.9265  -20.3196  -12.6944 C   0  0  0  0  0  0  0  0  0  0  0  0
   25.8998  -19.1423  -13.0922 O   0  0  0  0  0  0  0  0  0  0  0  0
   21.6027  -23.1125  -14.4394 C   0  0  0  0  0  0  0  0  0  0  0  0
   22.3936  -22.4841  -13.3144 C   0  0  0  0  0  0  0  0  0  0  0  0
   22.6403  -21.0162  -13.5614 C   0  0  2  0  0  0  0  0  0  0  0  0
   23.5107  -20.9437  -14.8149 C   0  0  0  0  0  0  0  0  0  0  0  0
   23.4251  -20.4264  -12.3911 C   0  0  2  0  0  0  0  0  0  0  0  0
   24.7538  -20.9861  -12.3237 N   0  0  0  0  0  0  0  0  0  0  0  0
   22.7044  -20.5381  -11.1266 C   0  0  0  0  0  0  0  0  0  0  0  0
   21.5906  -19.9711  -10.9308 O   0  0  0  0  0  0  0  0  0  0  0  0
   23.2211  -21.2809  -10.0770 O   0  0  0  0  0  0  0  0  0  0  0  0
  1  2  1  0
  3  2  1  0
  4  3  2  0
  5  3  1  0
  6 14  1  0
  6  5  1  0
  6  7  1  1
  8  7  1  0
  9  8  2  0
 10 11  2  0
 10  9  1  0
 11 12  1  0
 12 13  2  0
 13  8  1  0
 14 21  1  0
 15 14  2  0
 17 16  1  0
 18 17  1  0
 18 19  1  6
 20 18  1  0
 20 22  1  0
 20 21  1  1
 22 23  2  0
 22 24  1  0
M  END
$$$$
