GFI.pdb
     RDKit          3D

 24 24  0  0  1  0  0  0  0  0999 V2000
   28.9928  -23.1284  -17.5245 N   0  0  0  0  0  0  0  0  0  0  0  0
   28.4026  -21.8455  -17.1815 C   0  0  0  0  0  0  0  0  0  0  0  0
   27.5835  -22.0419  -15.9411 C   0  0  0  0  0  0  0  0  0  0  0  0
   27.1921  -23.1886  -15.5813 O   0  0  0  0  0  0  0  0  0  0  0  0
   27.2087  -20.9544  -15.1130 N   0  0  0  0  0  0  0  0  0  0  0  0
   26.3984  -21.1263  -13.9209 C   0  0  1  0  0  0  0  0  0  0  0  0
   26.8914  -20.2852  -12.8171 C   0  0  0  0  0  0  0  0  0  0  0  0
   26.3407  -20.4691  -11.4910 C   0  0  0  0  0  0  0  0  0  0  0  0
   25.1691  -19.8237  -11.1538 C   0  0  0  0  0  0  0  0  0  0  0  0
   24.5707  -19.9517   -9.9035 C   0  0  0  0  0  0  0  0  0  0  0  0
   25.1644  -20.7520   -8.9591 C   0  0  0  0  0  0  0  0  0  0  0  0
   26.3379  -21.4070   -9.2762 C   0  0  0  0  0  0  0  0  0  0  0  0
   26.9012  -21.2648  -10.5046 C   0  0  0  0  0  0  0  0  0  0  0  0
   24.9652  -20.7746  -14.2588 C   0  0  0  0  0  0  0  0  0  0  0  0
   24.7505  -19.6453  -14.7317 O   0  0  0  0  0  0  0  0  0  0  0  0
   20.4004  -23.9765  -13.2408 C   0  0  0  0  0  0  0  0  0  0  0  0
   21.7997  -23.7223  -13.7538 C   0  0  0  0  0  0  0  0  0  0  0  0
   21.8141  -22.6592  -14.8245 C   0  0  2  0  0  0  0  0  0  0  0  0
   22.6348  -23.2370  -15.9763 C   0  0  0  0  0  0  0  0  0  0  0  0
   22.5260  -21.4142  -14.2983 C   0  0  2  0  0  0  0  0  0  0  0  0
   23.9220  -21.6824  -14.0481 N   0  0  0  0  0  0  0  0  0  0  0  0
   21.8499  -20.8351  -13.1414 C   0  0  0  0  0  0  0  0  0  0  0  0
   22.2886  -20.9729  -11.9629 O   0  0  0  0  0  0  0  0  0  0  0  0
   20.6842  -20.1013  -13.2929 O   0  0  0  0  0  0  0  0  0  0  0  0
  1  2  1  0
  3  2  1  0
  4  3  2  0
  5  3  1  0
  6 14  1  0
  6  5  1  0
  6  7  1  1
  8  7  1  0
  9  8  2  0
 10 11  2  0
 10  9  1  0
 11 12  1  0
 12 13  2  0
 13  8  1  0
 14 21  1  0
 15 14  2  0
 17 16  1  0
 18 17  1  0
 18 19  1  6
 20 18  1  0
 20 22  1  0
 20 21  1  1
 22 23  2  0
 22 24  1  0
M  END
$$$$
