GFI.pdb
     RDKit          3D

 24 24  0  0  1  0  0  0  0  0999 V2000
   29.8672  -22.2098  -13.0717 N   0  0  0  0  0  0  0  0  0  0  0  0
   29.7799  -20.9297  -12.3894 C   0  0  0  0  0  0  0  0  0  0  0  0
   29.0534  -21.1547  -11.0973 C   0  0  0  0  0  0  0  0  0  0  0  0
   28.4060  -22.2181  -10.8787 O   0  0  0  0  0  0  0  0  0  0  0  0
   29.0564  -20.1888  -10.0601 N   0  0  0  0  0  0  0  0  0  0  0  0
   28.2703  -20.3433   -8.8496 C   0  0  1  0  0  0  0  0  0  0  0  0
   28.7841  -19.4848   -7.7688 C   0  0  0  0  0  0  0  0  0  0  0  0
   28.3718  -19.7454   -6.4058 C   0  0  0  0  0  0  0  0  0  0  0  0
   29.0775  -20.6610   -5.6530 C   0  0  0  0  0  0  0  0  0  0  0  0
   28.7508  -20.9645   -4.3343 C   0  0  0  0  0  0  0  0  0  0  0  0
   27.6823  -20.3311   -3.7495 C   0  0  0  0  0  0  0  0  0  0  0  0
   26.9623  -19.4113   -4.4858 C   0  0  0  0  0  0  0  0  0  0  0  0
   27.3026  -19.1332   -5.7716 C   0  0  0  0  0  0  0  0  0  0  0  0
   26.8302  -19.9981   -9.1641 C   0  0  0  0  0  0  0  0  0  0  0  0
   26.5732  -18.8128   -9.4362 O   0  0  0  0  0  0  0  0  0  0  0  0
   25.1852  -21.5223  -13.3793 C   0  0  0  0  0  0  0  0  0  0  0  0
   25.2559  -20.8355  -12.0342 C   0  0  0  0  0  0  0  0  0  0  0  0
   24.3416  -21.4898  -11.0279 C   0  0  2  0  0  0  0  0  0  0  0  0
   22.9210  -21.2525  -11.5375 C   0  0  0  0  0  0  0  0  0  0  0  0
   24.4934  -20.7976   -9.6746 C   0  0  2  0  0  0  0  0  0  0  0  0
   25.8265  -20.9725   -9.1497 N   0  0  0  0  0  0  0  0  0  0  0  0
   23.4596  -21.2001   -8.7258 C   0  0  0  0  0  0  0  0  0  0  0  0
   23.6299  -22.1434   -7.9002 O   0  0  0  0  0  0  0  0  0  0  0  0
   22.2341  -20.5541   -8.6933 O   0  0  0  0  0  0  0  0  0  0  0  0
  1  2  1  0
  3  2  1  0
  4  3  2  0
  5  3  1  0
  6 14  1  0
  6  5  1  0
  6  7  1  1
  8  7  1  0
  9  8  2  0
 10 11  2  0
 10  9  1  0
 11 12  1  0
 12 13  2  0
 13  8  1  0
 14 21  1  0
 15 14  2  0
 17 16  1  0
 18 17  1  0
 18 19  1  6
 20 18  1  0
 20 22  1  0
 20 21  1  1
 22 23  2  0
 22 24  1  0
M  END
$$$$
