GFI.pdb
     RDKit          3D

 24 24  0  0  1  0  0  0  0  0999 V2000
   28.8369  -22.5680  -17.4262 N   0  0  0  0  0  0  0  0  0  0  0  0
   28.2461  -21.3210  -16.9708 C   0  0  0  0  0  0  0  0  0  0  0  0
   27.3671  -21.6388  -15.7985 C   0  0  0  0  0  0  0  0  0  0  0  0
   26.9819  -22.8190  -15.5610 O   0  0  0  0  0  0  0  0  0  0  0  0
   26.9260  -20.6343  -14.9011 N   0  0  0  0  0  0  0  0  0  0  0  0
   26.1119  -20.9330  -13.7369 C   0  0  1  0  0  0  0  0  0  0  0  0
   26.4556  -20.0520  -12.6078 C   0  0  0  0  0  0  0  0  0  0  0  0
   25.8084  -20.2600  -11.3296 C   0  0  0  0  0  0  0  0  0  0  0  0
   26.4576  -20.9939  -10.3586 C   0  0  0  0  0  0  0  0  0  0  0  0
   25.9083  -21.2349   -9.1024 C   0  0  0  0  0  0  0  0  0  0  0  0
   24.6681  -20.7248   -8.8081 C   0  0  0  0  0  0  0  0  0  0  0  0
   24.0011  -19.9874   -9.7663 C   0  0  0  0  0  0  0  0  0  0  0  0
   24.5601  -19.7668  -10.9850 C   0  0  0  0  0  0  0  0  0  0  0  0
   24.6548  -20.7703  -14.1143 C   0  0  0  0  0  0  0  0  0  0  0  0
   24.3212  -19.7033  -14.6577 O   0  0  0  0  0  0  0  0  0  0  0  0
   21.4697  -25.3847  -14.8142 C   0  0  0  0  0  0  0  0  0  0  0  0
   21.8774  -24.1369  -14.0642 C   0  0  0  0  0  0  0  0  0  0  0  0
   21.8454  -22.9187  -14.9540 C   0  0  2  0  0  0  0  0  0  0  0  0
   22.8554  -23.1883  -16.0682 C   0  0  0  0  0  0  0  0  0  0  0  0
   22.3097  -21.6967  -14.1636 C   0  0  2  0  0  0  0  0  0  0  0  0
   23.7189  -21.7791  -13.8627 N   0  0  0  0  0  0  0  0  0  0  0  0
   21.4951  -21.4616  -12.9753 C   0  0  0  0  0  0  0  0  0  0  0  0
   20.2785  -21.1218  -13.0460 O   0  0  0  0  0  0  0  0  0  0  0  0
   22.0319  -21.6038  -11.7058 O   0  0  0  0  0  0  0  0  0  0  0  0
  1  2  1  0
  3  2  1  0
  4  3  2  0
  5  3  1  0
  6 14  1  0
  6  5  1  0
  6  7  1  1
  8  7  1  0
  9  8  2  0
 10 11  2  0
 10  9  1  0
 11 12  1  0
 12 13  2  0
 13  8  1  0
 14 21  1  0
 15 14  2  0
 17 16  1  0
 18 17  1  0
 18 19  1  6
 20 18  1  0
 20 22  1  0
 20 21  1  1
 22 23  2  0
 22 24  1  0
M  END
$$$$
