GFI.pdb
     RDKit          3D

 24 24  0  0  1  0  0  0  0  0999 V2000
   20.7777  -15.1798  -17.3633 N   0  0  0  0  0  0  0  0  0  0  0  0
   21.5689  -14.2260  -18.1222 C   0  0  0  0  0  0  0  0  0  0  0  0
   22.0220  -13.1578  -17.1728 C   0  0  0  0  0  0  0  0  0  0  0  0
   21.7643  -13.2182  -15.9368 O   0  0  0  0  0  0  0  0  0  0  0  0
   22.7597  -12.0304  -17.6130 N   0  0  0  0  0  0  0  0  0  0  0  0
   23.2421  -11.0102  -16.6999 C   0  0  1  0  0  0  0  0  0  0  0  0
   24.6858  -10.7786  -16.8763 C   0  0  0  0  0  0  0  0  0  0  0  0
   25.6210  -11.7912  -16.4340 C   0  0  0  0  0  0  0  0  0  0  0  0
   26.8999  -11.4161  -16.0781 C   0  0  0  0  0  0  0  0  0  0  0  0
   27.8570  -12.3255  -15.6369 C   0  0  0  0  0  0  0  0  0  0  0  0
   27.5236  -13.6544  -15.5492 C   0  0  0  0  0  0  0  0  0  0  0  0
   26.2486  -14.0510  -15.9009 C   0  0  0  0  0  0  0  0  0  0  0  0
   25.3329  -13.1425  -16.3285 C   0  0  0  0  0  0  0  0  0  0  0  0
   22.4643   -9.7354  -16.9487 C   0  0  0  0  0  0  0  0  0  0  0  0
   22.3382   -9.3643  -18.1283 O   0  0  0  0  0  0  0  0  0  0  0  0
   17.3811   -7.0776  -16.4060 C   0  0  0  0  0  0  0  0  0  0  0  0
   18.8702   -6.8251  -16.3373 C   0  0  0  0  0  0  0  0  0  0  0  0
   19.6407   -8.1036  -16.1169 C   0  0  2  0  0  0  0  0  0  0  0  0
   19.1884   -8.6352  -14.7579 C   0  0  0  0  0  0  0  0  0  0  0  0
   21.1347   -7.7930  -16.0435 C   0  0  2  0  0  0  0  0  0  0  0  0
   21.9085   -9.0023  -15.8949 N   0  0  0  0  0  0  0  0  0  0  0  0
   21.4456   -6.7987  -15.0210 C   0  0  0  0  0  0  0  0  0  0  0  0
   21.9125   -7.1163  -13.8889 O   0  0  0  0  0  0  0  0  0  0  0  0
   21.2380   -5.4489  -15.2556 O   0  0  0  0  0  0  0  0  0  0  0  0
  1  2  1  0
  3  2  1  0
  4  3  2  0
  5  3  1  0
  6 14  1  0
  6  5  1  0
  6  7  1  6
  8  7  1  0
  9  8  2  0
 10 11  2  0
 10  9  1  0
 11 12  1  0
 12 13  2  0
 13  8  1  0
 14 21  1  0
 15 14  2  0
 17 16  1  0
 18 17  1  0
 18 19  1  1
 20 18  1  0
 20 22  1  0
 20 21  1  1
 22 23  2  0
 22 24  1  0
M  END
$$$$
