GFI.pdb
     RDKit          3D

 24 24  0  0  1  0  0  0  0  0999 V2000
   18.3006  -12.5730  -17.9558 N   0  0  0  0  0  0  0  0  0  0  0  0
   18.8679  -11.3187  -18.4210 C   0  0  0  0  0  0  0  0  0  0  0  0
   20.0443  -11.0028  -17.5468 C   0  0  0  0  0  0  0  0  0  0  0  0
   19.9442  -10.9753  -16.2872 O   0  0  0  0  0  0  0  0  0  0  0  0
   21.3233  -10.7203  -18.0883 N   0  0  0  0  0  0  0  0  0  0  0  0
   22.4357  -10.2767  -17.2679 C   0  0  1  0  0  0  0  0  0  0  0  0
   23.6992  -10.8929  -17.7073 C   0  0  0  0  0  0  0  0  0  0  0  0
   24.9275  -10.5446  -17.0249 C   0  0  0  0  0  0  0  0  0  0  0  0
   25.1961  -11.1075  -15.7945 C   0  0  0  0  0  0  0  0  0  0  0  0
   26.3557  -10.8306  -15.0758 C   0  0  0  0  0  0  0  0  0  0  0  0
   27.2770   -9.9616  -15.6058 C   0  0  0  0  0  0  0  0  0  0  0  0
   27.0272   -9.3869  -16.8362 C   0  0  0  0  0  0  0  0  0  0  0  0
   25.8870   -9.6745  -17.5172 C   0  0  0  0  0  0  0  0  0  0  0  0
   22.5227   -8.7675  -17.3509 C   0  0  0  0  0  0  0  0  0  0  0  0
   22.6899   -8.2660  -18.4759 O   0  0  0  0  0  0  0  0  0  0  0  0
   19.9229   -3.7324  -16.7566 C   0  0  0  0  0  0  0  0  0  0  0  0
   21.2481   -4.3984  -16.4627 C   0  0  0  0  0  0  0  0  0  0  0  0
   21.1398   -5.9021  -16.5250 C   0  0  2  0  0  0  0  0  0  0  0  0
   20.1471   -6.2954  -15.4324 C   0  0  0  0  0  0  0  0  0  0  0  0
   22.4952   -6.5255  -16.1964 C   0  0  2  0  0  0  0  0  0  0  0  0
   22.4192   -7.9668  -16.2085 N   0  0  0  0  0  0  0  0  0  0  0  0
   23.0602   -6.0039  -14.9556 C   0  0  0  0  0  0  0  0  0  0  0  0
   23.0011   -6.6422  -13.8649 O   0  0  0  0  0  0  0  0  0  0  0  0
   23.6923   -4.7711  -14.9253 O   0  0  0  0  0  0  0  0  0  0  0  0
  1  2  1  0
  3  2  1  0
  4  3  2  0
  5  3  1  0
  6 14  1  0
  6  5  1  0
  6  7  1  6
  8  7  1  0
  9  8  2  0
 10 11  2  0
 10  9  1  0
 11 12  1  0
 12 13  2  0
 13  8  1  0
 14 21  1  0
 15 14  2  0
 17 16  1  0
 18 17  1  0
 18 19  1  1
 20 18  1  0
 20 22  1  0
 20 21  1  1
 22 23  2  0
 22 24  1  0
M  END
$$$$
