GFI.pdb
     RDKit          3D

 24 24  0  0  1  0  0  0  0  0999 V2000
   21.9064  -22.3475   -6.1793 N   0  0  0  0  0  0  0  0  0  0  0  0
   23.2912  -22.6662   -6.4831 C   0  0  0  0  0  0  0  0  0  0  0  0
   23.8611  -21.5147   -7.2558 C   0  0  0  0  0  0  0  0  0  0  0  0
   23.1484  -20.5270   -7.5935 O   0  0  0  0  0  0  0  0  0  0  0  0
   25.2235  -21.4769   -7.6447 N   0  0  0  0  0  0  0  0  0  0  0  0
   25.7723  -20.4060   -8.4568 C   0  0  1  0  0  0  0  0  0  0  0  0
   27.2186  -20.2514   -8.2259 C   0  0  0  0  0  0  0  0  0  0  0  0
   27.6871  -19.9023   -6.9014 C   0  0  0  0  0  0  0  0  0  0  0  0
   27.5221  -18.6096   -6.4487 C   0  0  0  0  0  0  0  0  0  0  0  0
   27.9384  -18.1938   -5.1871 C   0  0  0  0  0  0  0  0  0  0  0  0
   28.5401  -19.1013   -4.3508 C   0  0  0  0  0  0  0  0  0  0  0  0
   28.7150  -20.4004   -4.7848 C   0  0  0  0  0  0  0  0  0  0  0  0
   28.2992  -20.7804   -6.0214 C   0  0  0  0  0  0  0  0  0  0  0  0
   25.4961  -20.7166   -9.9126 C   0  0  0  0  0  0  0  0  0  0  0  0
   25.9774  -21.7656  -10.3741 O   0  0  0  0  0  0  0  0  0  0  0  0
   22.0038  -21.3221  -11.2347 C   0  0  0  0  0  0  0  0  0  0  0  0
   21.8571  -20.3143  -12.3522 C   0  0  0  0  0  0  0  0  0  0  0  0
   23.0358  -19.3740  -12.4103 C   0  0  2  0  0  0  0  0  0  0  0  0
   23.1278  -18.9083  -13.8625 C   0  0  0  0  0  0  0  0  0  0  0  0
   24.3138  -20.1354  -12.0631 C   0  0  2  0  0  0  0  0  0  0  0  0
   24.7301  -19.8589  -10.7091 N   0  0  0  0  0  0  0  0  0  0  0  0
   25.3784  -19.9062  -13.0353 C   0  0  0  0  0  0  0  0  0  0  0  0
   26.2127  -18.9629  -12.9144 O   0  0  0  0  0  0  0  0  0  0  0  0
   25.5172  -20.7257  -14.1439 O   0  0  0  0  0  0  0  0  0  0  0  0
  1  2  1  0
  3  2  1  0
  4  3  2  0
  5  3  1  0
  6 14  1  0
  6  5  1  0
  6  7  1  6
  8  7  1  0
  9  8  2  0
 10 11  2  0
 10  9  1  0
 11 12  1  0
 12 13  2  0
 13  8  1  0
 14 21  1  0
 15 14  2  0
 17 16  1  0
 18 17  1  0
 18 19  1  6
 20 18  1  0
 20 22  1  0
 20 21  1  1
 22 23  2  0
 22 24  1  0
M  END
$$$$
