GFI.pdb
     RDKit          3D

 24 24  0  0  1  0  0  0  0  0999 V2000
   28.7504  -22.4411  -14.0966 N   0  0  0  0  0  0  0  0  0  0  0  0
   28.8949  -21.2029  -13.3500 C   0  0  0  0  0  0  0  0  0  0  0  0
   28.3252  -21.4308  -11.9820 C   0  0  0  0  0  0  0  0  0  0  0  0
   27.4087  -22.2772  -11.7794 O   0  0  0  0  0  0  0  0  0  0  0  0
   28.7850  -20.7102  -10.8514 N   0  0  0  0  0  0  0  0  0  0  0  0
   28.1264  -20.7843   -9.5599 C   0  0  1  0  0  0  0  0  0  0  0  0
   28.9446  -20.1557   -8.5090 C   0  0  0  0  0  0  0  0  0  0  0  0
   28.4115  -20.0550   -7.1668 C   0  0  0  0  0  0  0  0  0  0  0  0
   28.7187  -21.0351   -6.2459 C   0  0  0  0  0  0  0  0  0  0  0  0
   28.2524  -21.0100   -4.9345 C   0  0  0  0  0  0  0  0  0  0  0  0
   27.4520  -19.9701   -4.5312 C   0  0  0  0  0  0  0  0  0  0  0  0
   27.1322  -18.9787   -5.4377 C   0  0  0  0  0  0  0  0  0  0  0  0
   27.6010  -19.0271   -6.7123 C   0  0  0  0  0  0  0  0  0  0  0  0
   26.7801  -20.1001   -9.6666 C   0  0  0  0  0  0  0  0  0  0  0  0
   26.7733  -18.9005   -9.9919 O   0  0  0  0  0  0  0  0  0  0  0  0
   23.4216  -19.8028  -13.5360 C   0  0  0  0  0  0  0  0  0  0  0  0
   23.6334  -19.4986  -12.0702 C   0  0  0  0  0  0  0  0  0  0  0  0
   24.0310  -20.7329  -11.2987 C   0  0  2  0  0  0  0  0  0  0  0  0
   22.8284  -21.6729  -11.3653 C   0  0  0  0  0  0  0  0  0  0  0  0
   24.2777  -20.3638   -9.8370 C   0  0  2  0  0  0  0  0  0  0  0  0
   25.5895  -20.7882   -9.4098 N   0  0  0  0  0  0  0  0  0  0  0  0
   23.2179  -20.8450   -8.9561 C   0  0  0  0  0  0  0  0  0  0  0  0
   23.4535  -21.5795   -7.9534 O   0  0  0  0  0  0  0  0  0  0  0  0
   21.8935  -20.5101   -9.1886 O   0  0  0  0  0  0  0  0  0  0  0  0
  1  2  1  0
  3  2  1  0
  4  3  2  0
  5  3  1  0
  6 14  1  0
  6  5  1  0
  6  7  1  1
  8  7  1  0
  9  8  2  0
 10 11  2  0
 10  9  1  0
 11 12  1  0
 12 13  2  0
 13  8  1  0
 14 21  1  0
 15 14  2  0
 17 16  1  0
 18 17  1  0
 18 19  1  1
 20 18  1  0
 20 22  1  0
 20 21  1  1
 22 23  2  0
 22 24  1  0
M  END
$$$$
