LTV.pdb
     RDKit          3D

 23 22  0  0  1  0  0  0  0  0999 V2000
   26.9734  -28.5330  -18.4271 C   0  0  0  0  0  0  0  0  0  0  0  0
   27.7901  -28.6652  -17.1590 C   0  0  2  0  0  0  0  0  0  0  0  0
   27.2147  -29.8144  -16.3822 C   0  0  0  0  0  0  0  0  0  0  0  0
   27.8272  -27.3674  -16.3860 C   0  0  0  0  0  0  0  0  0  0  0  0
   28.4662  -26.2621  -17.1689 C   0  0  2  0  0  0  0  0  0  0  0  0
   29.8705  -26.4993  -17.2797 N   0  0  0  0  0  0  0  0  0  0  0  0
   28.1923  -24.9231  -16.5839 C   0  0  0  0  0  0  0  0  0  0  0  0
   29.1548  -24.1978  -16.2207 O   0  0  0  0  0  0  0  0  0  0  0  0
   28.8636  -22.2201  -17.0565 C   0  0  0  0  0  0  0  0  0  0  0  0
   27.3726  -22.0410  -17.0333 C   0  0  1  0  0  0  0  0  0  0  0  0
   26.9014  -22.2264  -18.3292 O   0  0  0  0  0  0  0  0  0  0  0  0
   26.6606  -22.9675  -16.1063 C   0  0  2  0  0  0  0  0  0  0  0  0
   26.9219  -24.3687  -16.3895 N   0  0  0  0  0  0  0  0  0  0  0  0
   25.1962  -22.8133  -16.0545 C   0  0  0  0  0  0  0  0  0  0  0  0
   24.4189  -23.6171  -16.6870 O   0  0  0  0  0  0  0  0  0  0  0  0
   23.0283  -22.3385  -12.9151 C   0  0  0  0  0  0  0  0  0  0  0  0
   22.5434  -21.3172  -13.9215 C   0  0  1  0  0  0  0  0  0  0  0  0
   23.0437  -19.9693  -13.4904 C   0  0  0  0  0  0  0  0  0  0  0  0
   23.0330  -21.7365  -15.2711 C   0  0  2  0  0  0  0  0  0  0  0  0
   24.4938  -21.8064  -15.3334 N   0  0  0  0  0  0  0  0  0  0  0  0
   22.5233  -20.8260  -16.2950 C   0  0  0  0  0  0  0  0  0  0  0  0
   21.2015  -20.8393  -16.7040 O   0  0  0  0  0  0  0  0  0  0  0  0
   23.3001  -19.9986  -16.8302 O   0  0  0  0  0  0  0  0  0  0  0  0
  2  3  1  1
  2  1  1  0
  4  2  1  0
  5  7  1  0
  5  4  1  0
  5  6  1  1
  7 13  1  0
  7  8  2  0
 10  9  1  6
 11 10  1  0
 12 10  1  0
 12 13  1  6
 14 20  1  0
 14 12  1  0
 15 14  2  0
 17 16  1  1
 17 19  1  0
 18 17  1  0
 19 21  1  0
 19 20  1  1
 21 22  1  0
 23 21  2  0
M  END
$$$$
