LTV.pdb
     RDKit          3D

 23 22  0  0  1  0  0  0  0  0999 V2000
   20.5010  -18.8748  -16.0114 C   0  0  0  0  0  0  0  0  0  0  0  0
   20.1124  -18.3270  -17.3684 C   0  0  2  0  0  0  0  0  0  0  0  0
   20.6283  -19.2917  -18.3972 C   0  0  0  0  0  0  0  0  0  0  0  0
   20.6098  -16.9129  -17.5583 C   0  0  0  0  0  0  0  0  0  0  0  0
   20.0120  -15.9659  -16.5639 C   0  0  2  0  0  0  0  0  0  0  0  0
   18.5944  -16.1385  -16.5257 N   0  0  0  0  0  0  0  0  0  0  0  0
   20.3733  -14.5509  -16.8425 C   0  0  0  0  0  0  0  0  0  0  0  0
   21.5663  -14.2598  -17.1187 O   0  0  0  0  0  0  0  0  0  0  0  0
   19.0169  -10.0527  -18.4335 C   0  0  0  0  0  0  0  0  0  0  0  0
   18.7556  -11.4904  -18.0864 C   0  0  1  0  0  0  0  0  0  0  0  0
   18.6301  -12.1997  -19.2767 O   0  0  0  0  0  0  0  0  0  0  0  0
   19.8135  -12.1167  -17.2418 C   0  0  2  0  0  0  0  0  0  0  0  0
   19.4844  -13.4700  -16.8271 N   0  0  0  0  0  0  0  0  0  0  0  0
   20.1722  -11.3761  -16.0197 C   0  0  0  0  0  0  0  0  0  0  0  0
   19.3743  -11.3236  -15.0143 O   0  0  0  0  0  0  0  0  0  0  0  0
   23.2153  -11.4573  -13.6912 C   0  0  0  0  0  0  0  0  0  0  0  0
   23.0409  -10.0140  -14.1126 C   0  0  1  0  0  0  0  0  0  0  0  0
   24.0929   -9.7005  -15.1363 C   0  0  0  0  0  0  0  0  0  0  0  0
   21.6428   -9.8508  -14.6183 C   0  0  2  0  0  0  0  0  0  0  0  0
   21.3861  -10.6625  -15.8092 N   0  0  0  0  0  0  0  0  0  0  0  0
   21.3706   -8.4414  -14.8952 C   0  0  0  0  0  0  0  0  0  0  0  0
   21.2205   -7.9567  -16.1825 O   0  0  0  0  0  0  0  0  0  0  0  0
   21.2670   -7.6318  -13.9422 O   0  0  0  0  0  0  0  0  0  0  0  0
  2  3  1  6
  2  1  1  0
  4  2  1  0
  5  7  1  0
  5  4  1  0
  5  6  1  6
  7 13  1  0
  7  8  2  0
 10  9  1  6
 11 10  1  0
 12 10  1  0
 12 13  1  1
 14 20  1  0
 14 12  1  0
 15 14  2  0
 17 16  1  6
 17 19  1  0
 18 17  1  0
 19 21  1  0
 19 20  1  6
 21 22  1  0
 23 21  2  0
M  END
$$$$
