LTV.pdb
     RDKit          3D

 23 22  0  0  1  0  0  0  0  0999 V2000
   25.3079  -21.1189   -7.8767 C   0  0  0  0  0  0  0  0  0  0  0  0
   26.7231  -20.6902   -8.2021 C   0  0  2  0  0  0  0  0  0  0  0  0
   27.1024  -19.6312   -7.2071 C   0  0  0  0  0  0  0  0  0  0  0  0
   26.8507  -20.2458   -9.6406 C   0  0  0  0  0  0  0  0  0  0  0  0
   26.4796  -21.3325  -10.6021 C   0  0  2  0  0  0  0  0  0  0  0  0
   27.6533  -22.0386  -11.0080 N   0  0  0  0  0  0  0  0  0  0  0  0
   25.7304  -20.8158  -11.7777 C   0  0  0  0  0  0  0  0  0  0  0  0
   26.2716  -19.9656  -12.5316 O   0  0  0  0  0  0  0  0  0  0  0  0
   25.3589  -21.9928  -14.8899 C   0  0  0  0  0  0  0  0  0  0  0  0
   23.9317  -21.7722  -14.4773 C   0  0  1  0  0  0  0  0  0  0  0  0
   23.4034  -23.0020  -14.0975 O   0  0  0  0  0  0  0  0  0  0  0  0
   23.7619  -20.7918  -13.3661 C   0  0  2  0  0  0  0  0  0  0  0  0
   24.4336  -21.1958  -12.1424 N   0  0  0  0  0  0  0  0  0  0  0  0
   22.3689  -20.4811  -13.0001 C   0  0  0  0  0  0  0  0  0  0  0  0
   21.8470  -20.9362  -11.9181 O   0  0  0  0  0  0  0  0  0  0  0  0
   20.4792  -17.2313  -12.4692 C   0  0  0  0  0  0  0  0  0  0  0  0
   19.6847  -18.0129  -13.4933 C   0  0  1  0  0  0  0  0  0  0  0  0
   19.9615  -17.4202  -14.8442 C   0  0  0  0  0  0  0  0  0  0  0  0
   20.0774  -19.4514  -13.3763 C   0  0  2  0  0  0  0  0  0  0  0  0
   21.4718  -19.6780  -13.7599 N   0  0  0  0  0  0  0  0  0  0  0  0
   19.1863  -20.2822  -14.1842 C   0  0  0  0  0  0  0  0  0  0  0  0
   17.8553  -20.4728  -13.8574 O   0  0  0  0  0  0  0  0  0  0  0  0
   19.6301  -20.8483  -15.2123 O   0  0  0  0  0  0  0  0  0  0  0  0
  2  3  1  1
  2  1  1  0
  4  2  1  0
  5  7  1  0
  5  4  1  0
  5  6  1  6
  7 13  1  0
  7  8  2  0
 10  9  1  1
 11 10  1  0
 12 10  1  0
 12 13  1  1
 14 20  1  0
 14 12  1  0
 15 14  2  0
 17 16  1  1
 17 19  1  0
 18 17  1  0
 19 21  1  0
 19 20  1  6
 21 22  1  0
 23 21  2  0
M  END
$$$$
