LTV.pdb
     RDKit          3D

 23 22  0  0  1  0  0  0  0  0999 V2000
   19.1066  -13.1074  -21.6236 C   0  0  0  0  0  0  0  0  0  0  0  0
   18.6253  -13.7674  -20.3488 C   0  0  2  0  0  0  0  0  0  0  0  0
   17.1282  -13.8507  -20.4340 C   0  0  0  0  0  0  0  0  0  0  0  0
   19.1243  -13.0368  -19.1240 C   0  0  0  0  0  0  0  0  0  0  0  0
   20.6187  -12.9410  -19.0935 C   0  0  2  0  0  0  0  0  0  0  0  0
   21.1815  -14.2422  -18.9177 N   0  0  0  0  0  0  0  0  0  0  0  0
   21.1039  -12.0004  -18.0495 C   0  0  0  0  0  0  0  0  0  0  0  0
   21.3463  -12.4320  -16.8922 O   0  0  0  0  0  0  0  0  0  0  0  0
   23.3170   -7.7578  -16.7353 C   0  0  0  0  0  0  0  0  0  0  0  0
   22.8959   -8.8128  -17.7179 C   0  0  1  0  0  0  0  0  0  0  0  0
   24.0232   -9.5554  -18.0545 O   0  0  0  0  0  0  0  0  0  0  0  0
   21.8294   -9.7257  -17.2140 C   0  0  2  0  0  0  0  0  0  0  0  0
   21.3259  -10.6308  -18.2334 N   0  0  0  0  0  0  0  0  0  0  0  0
   20.6548   -9.0640  -16.6197 C   0  0  0  0  0  0  0  0  0  0  0  0
   19.7779   -8.4783  -17.3534 O   0  0  0  0  0  0  0  0  0  0  0  0
   19.2842   -9.6543  -12.6712 C   0  0  0  0  0  0  0  0  0  0  0  0
   18.3768   -9.1863  -13.7887 C   0  0  1  0  0  0  0  0  0  0  0  0
   17.1979   -8.4945  -13.1684 C   0  0  0  0  0  0  0  0  0  0  0  0
   19.1811   -8.3081  -14.6937 C   0  0  2  0  0  0  0  0  0  0  0  0
   20.3583   -8.9942  -15.2289 N   0  0  0  0  0  0  0  0  0  0  0  0
   19.5788   -7.0908  -13.9884 C   0  0  0  0  0  0  0  0  0  0  0  0
   18.7535   -5.9836  -13.9021 O   0  0  0  0  0  0  0  0  0  0  0  0
   20.7048   -7.0340  -13.4377 O   0  0  0  0  0  0  0  0  0  0  0  0
  2  3  1  6
  2  1  1  0
  4  2  1  0
  5  7  1  0
  5  4  1  0
  5  6  1  1
  7 13  1  0
  7  8  2  0
 10  9  1  1
 11 10  1  0
 12 10  1  0
 12 13  1  6
 14 20  1  0
 14 12  1  0
 15 14  2  0
 17 16  1  1
 17 19  1  0
 18 17  1  0
 19 21  1  0
 19 20  1  1
 21 22  1  0
 23 21  2  0
M  END
$$$$
