LTV.pdb
     RDKit          3D

 23 22  0  0  1  0  0  0  0  0999 V2000
   18.8083  -12.7239  -20.5321 C   0  0  0  0  0  0  0  0  0  0  0  0
   17.5412  -12.9191  -19.7265 C   0  0  2  0  0  0  0  0  0  0  0  0
   16.3878  -12.6153  -20.6389 C   0  0  0  0  0  0  0  0  0  0  0  0
   17.5531  -12.0877  -18.4649 C   0  0  0  0  0  0  0  0  0  0  0  0
   18.7440  -12.3823  -17.6058 C   0  0  2  0  0  0  0  0  0  0  0  0
   18.5858  -13.6587  -16.9840 N   0  0  0  0  0  0  0  0  0  0  0  0
   18.9893  -11.3196  -16.5955 C   0  0  0  0  0  0  0  0  0  0  0  0
   18.3815  -11.3607  -15.4940 O   0  0  0  0  0  0  0  0  0  0  0  0
   21.8437   -8.0972  -14.3112 C   0  0  0  0  0  0  0  0  0  0  0  0
   21.5229   -9.2181  -15.2579 C   0  0  1  0  0  0  0  0  0  0  0  0
   21.7870  -10.4171  -14.6033 O   0  0  0  0  0  0  0  0  0  0  0  0
   20.1147   -9.2181  -15.7496 C   0  0  2  0  0  0  0  0  0  0  0  0
   19.8621  -10.2371  -16.7544 N   0  0  0  0  0  0  0  0  0  0  0  0
   19.6383   -7.9427  -16.3128 C   0  0  0  0  0  0  0  0  0  0  0  0
   20.0973   -7.4928  -17.4250 O   0  0  0  0  0  0  0  0  0  0  0  0
   16.2069   -6.8261  -17.3127 C   0  0  0  0  0  0  0  0  0  0  0  0
   16.7171   -5.7405  -16.3896 C   0  0  1  0  0  0  0  0  0  0  0  0
   16.0581   -5.9220  -15.0533 C   0  0  0  0  0  0  0  0  0  0  0  0
   18.2086   -5.8432  -16.3429 C   0  0  2  0  0  0  0  0  0  0  0  0
   18.6589   -7.0920  -15.7260 N   0  0  0  0  0  0  0  0  0  0  0  0
   18.7687   -4.6945  -15.6331 C   0  0  0  0  0  0  0  0  0  0  0  0
   18.9324   -3.4604  -16.2373 O   0  0  0  0  0  0  0  0  0  0  0  0
   19.1176   -4.8173  -14.4341 O   0  0  0  0  0  0  0  0  0  0  0  0
  2  3  1  6
  2  1  1  0
  4  2  1  0
  5  7  1  0
  5  4  1  0
  5  6  1  1
  7 13  1  0
  7  8  2  0
 10  9  1  1
 11 10  1  0
 12 10  1  0
 12 13  1  6
 14 20  1  0
 14 12  1  0
 15 14  2  0
 17 16  1  6
 17 19  1  0
 18 17  1  0
 19 21  1  0
 19 20  1  1
 21 22  1  0
 23 21  2  0
M  END
$$$$
