LTV.pdb
     RDKit          3D

 23 22  0  0  1  0  0  0  0  0999 V2000
   18.6196  -17.4139  -17.4141 C   0  0  0  0  0  0  0  0  0  0  0  0
   18.9089  -16.3169  -18.4167 C   0  0  2  0  0  0  0  0  0  0  0  0
   19.8732  -16.8806  -19.4205 C   0  0  0  0  0  0  0  0  0  0  0  0
   19.4041  -15.0615  -17.7371 C   0  0  0  0  0  0  0  0  0  0  0  0
   18.3793  -14.4774  -16.8142 C   0  0  2  0  0  0  0  0  0  0  0  0
   17.1519  -14.2820  -17.5186 N   0  0  0  0  0  0  0  0  0  0  0  0
   18.8424  -13.2142  -16.1817 C   0  0  0  0  0  0  0  0  0  0  0  0
   19.9194  -13.2070  -15.5302 O   0  0  0  0  0  0  0  0  0  0  0  0
   20.4909  -10.4129  -17.4362 C   0  0  0  0  0  0  0  0  0  0  0  0
   19.2686   -9.8508  -16.7685 C   0  0  1  0  0  0  0  0  0  0  0  0
   18.3158   -9.6142  -17.7542 O   0  0  0  0  0  0  0  0  0  0  0  0
   18.6881  -10.7329  -15.7151 C   0  0  2  0  0  0  0  0  0  0  0  0
   18.1739  -11.9861  -16.2414 N   0  0  0  0  0  0  0  0  0  0  0  0
   17.6061  -10.1366  -14.9122 C   0  0  0  0  0  0  0  0  0  0  0  0
   16.3801  -10.2073  -15.2893 O   0  0  0  0  0  0  0  0  0  0  0  0
   16.3016  -10.6496  -11.4669 C   0  0  0  0  0  0  0  0  0  0  0  0
   16.6092   -9.1691  -11.5341 C   0  0  1  0  0  0  0  0  0  0  0  0
   17.8881   -8.9278  -10.7862 C   0  0  0  0  0  0  0  0  0  0  0  0
   16.6744   -8.7804  -12.9770 C   0  0  2  0  0  0  0  0  0  0  0  0
   17.7740   -9.4431  -13.6801 N   0  0  0  0  0  0  0  0  0  0  0  0
   16.7932   -7.3286  -13.1007 C   0  0  0  0  0  0  0  0  0  0  0  0
   15.7535   -6.4723  -12.7839 O   0  0  0  0  0  0  0  0  0  0  0  0
   17.8695   -6.8277  -13.5071 O   0  0  0  0  0  0  0  0  0  0  0  0
  2  3  1  6
  2  1  1  0
  4  2  1  0
  5  7  1  0
  5  4  1  0
  5  6  1  6
  7 13  1  0
  7  8  2  0
 10  9  1  6
 11 10  1  0
 12 10  1  0
 12 13  1  6
 14 20  1  0
 14 12  1  0
 15 14  2  0
 17 16  1  6
 17 19  1  0
 18 17  1  0
 19 21  1  0
 19 20  1  1
 21 22  1  0
 23 21  2  0
M  END
$$$$
