LTV.pdb
     RDKit          3D

 23 22  0  0  1  0  0  0  0  0999 V2000
   13.1031   -6.6477   -7.6644 C   0  0  0  0  0  0  0  0  0  0  0  0
   14.3018   -5.7889   -8.0077 C   0  0  2  0  0  0  0  0  0  0  0  0
   13.8973   -4.3595   -7.7872 C   0  0  0  0  0  0  0  0  0  0  0  0
   14.8027   -6.0697   -9.4053 C   0  0  0  0  0  0  0  0  0  0  0  0
   15.3578   -7.4544   -9.5384 C   0  0  2  0  0  0  0  0  0  0  0  0
   16.4639   -7.6178   -8.6493 N   0  0  0  0  0  0  0  0  0  0  0  0
   15.7414   -7.7777  -10.9379 C   0  0  0  0  0  0  0  0  0  0  0  0
   14.8425   -7.9475  -11.8024 O   0  0  0  0  0  0  0  0  0  0  0  0
   15.3392   -6.9721  -13.7412 C   0  0  0  0  0  0  0  0  0  0  0  0
   16.8370   -6.9221  -13.6423 C   0  0  1  0  0  0  0  0  0  0  0  0
   17.1877   -5.6834  -13.1148 O   0  0  0  0  0  0  0  0  0  0  0  0
   17.4304   -8.0060  -12.8070 C   0  0  2  0  0  0  0  0  0  0  0  0
   17.0528   -7.9173  -11.4065 N   0  0  0  0  0  0  0  0  0  0  0  0
   18.9001   -8.1033  -12.8425 C   0  0  0  0  0  0  0  0  0  0  0  0
   19.6285   -7.5081  -11.9677 O   0  0  0  0  0  0  0  0  0  0  0  0
   21.1783  -10.5464  -15.5510 C   0  0  0  0  0  0  0  0  0  0  0  0
   21.6994  -10.1463  -14.1874 C   0  0  1  0  0  0  0  0  0  0  0  0
   23.1993  -10.1596  -14.2431 C   0  0  0  0  0  0  0  0  0  0  0  0
   21.1223   -8.8080  -13.8515 C   0  0  2  0  0  0  0  0  0  0  0  0
   19.6595   -8.8323  -13.8012 N   0  0  0  0  0  0  0  0  0  0  0  0
   21.5815   -7.8077  -14.8137 C   0  0  0  0  0  0  0  0  0  0  0  0
   20.7573   -7.3008  -15.8029 O   0  0  0  0  0  0  0  0  0  0  0  0
   22.7614   -7.3853  -14.7525 O   0  0  0  0  0  0  0  0  0  0  0  0
  2  3  1  6
  2  1  1  0
  4  2  1  0
  5  7  1  0
  5  4  1  0
  5  6  1  1
  7 13  1  0
  7  8  2  0
 10  9  1  1
 11 10  1  0
 12 10  1  0
 12 13  1  1
 14 20  1  0
 14 12  1  0
 15 14  2  0
 17 16  1  6
 17 19  1  0
 18 17  1  0
 19 21  1  0
 19 20  1  6
 21 22  1  0
 23 21  2  0
M  END
$$$$
