LTV.pdb
     RDKit          3D

 23 22  0  0  1  0  0  0  0  0999 V2000
   14.5747  -11.9348  -16.3212 C   0  0  0  0  0  0  0  0  0  0  0  0
   15.1888  -12.8744  -15.3051 C   0  0  2  0  0  0  0  0  0  0  0  0
   14.3428  -12.7981  -14.0667 C   0  0  0  0  0  0  0  0  0  0  0  0
   16.6463  -12.5560  -15.0657 C   0  0  0  0  0  0  0  0  0  0  0  0
   17.4524  -12.6192  -16.3264 C   0  0  2  0  0  0  0  0  0  0  0  0
   17.7307  -13.9818  -16.6527 N   0  0  0  0  0  0  0  0  0  0  0  0
   18.7040  -11.8217  -16.2379 C   0  0  0  0  0  0  0  0  0  0  0  0
   19.7318  -12.3380  -15.7268 O   0  0  0  0  0  0  0  0  0  0  0  0
   21.0088  -10.8625  -18.7914 C   0  0  0  0  0  0  0  0  0  0  0  0
   20.6522   -9.5846  -18.0874 C   0  0  1  0  0  0  0  0  0  0  0  0
   19.7104   -8.9186  -18.8651 O   0  0  0  0  0  0  0  0  0  0  0  0
   20.1154   -9.7761  -16.7090 C   0  0  2  0  0  0  0  0  0  0  0  0
   18.8578  -10.5039  -16.6835 N   0  0  0  0  0  0  0  0  0  0  0  0
   19.9048   -8.5422  -15.9319 C   0  0  0  0  0  0  0  0  0  0  0  0
   18.7341   -8.0304  -15.7987 O   0  0  0  0  0  0  0  0  0  0  0  0
   23.0359   -6.2358  -14.1261 C   0  0  0  0  0  0  0  0  0  0  0  0
   21.6630   -6.2713  -13.4899 C   0  0  1  0  0  0  0  0  0  0  0  0
   21.4493   -4.9674  -12.7776 C   0  0  0  0  0  0  0  0  0  0  0  0
   20.6642   -6.5360  -14.5712 C   0  0  2  0  0  0  0  0  0  0  0  0
   20.9198   -7.7998  -15.2642 N   0  0  0  0  0  0  0  0  0  0  0  0
   20.6504   -5.4273  -15.5240 C   0  0  0  0  0  0  0  0  0  0  0  0
   19.9188   -4.2735  -15.3047 O   0  0  0  0  0  0  0  0  0  0  0  0
   21.3203   -5.5113  -16.5816 O   0  0  0  0  0  0  0  0  0  0  0  0
  2  3  1  1
  2  1  1  0
  4  2  1  0
  5  7  1  0
  5  4  1  0
  5  6  1  1
  7 13  1  0
  7  8  2  0
 10  9  1  6
 11 10  1  0
 12 10  1  0
 12 13  1  6
 14 20  1  0
 14 12  1  0
 15 14  2  0
 17 16  1  6
 17 19  1  0
 18 17  1  0
 19 21  1  0
 19 20  1  6
 21 22  1  0
 23 21  2  0
M  END
$$$$
