LTV.pdb
     RDKit          3D

 23 22  0  0  1  0  0  0  0  0999 V2000
   23.8368  -20.9585   -9.3381 C   0  0  0  0  0  0  0  0  0  0  0  0
   25.2850  -21.3551   -9.1432 C   0  0  2  0  0  0  0  0  0  0  0  0
   25.6866  -20.8963   -7.7708 C   0  0  0  0  0  0  0  0  0  0  0  0
   26.1620  -20.8104  -10.2466 C   0  0  0  0  0  0  0  0  0  0  0  0
   25.6851  -21.2264  -11.6040 C   0  0  2  0  0  0  0  0  0  0  0  0
   25.8930  -22.6288  -11.7791 N   0  0  0  0  0  0  0  0  0  0  0  0
   26.3308  -20.4476  -12.6934 C   0  0  0  0  0  0  0  0  0  0  0  0
   27.5866  -20.4190  -12.7731 O   0  0  0  0  0  0  0  0  0  0  0  0
   26.9963  -21.3276  -15.8026 C   0  0  0  0  0  0  0  0  0  0  0  0
   26.2869  -20.0235  -16.0301 C   0  0  1  0  0  0  0  0  0  0  0  0
   24.9784  -20.3106  -16.4056 O   0  0  0  0  0  0  0  0  0  0  0  0
   26.2784  -19.1181  -14.8448 C   0  0  2  0  0  0  0  0  0  0  0  0
   25.6546  -19.7155  -13.6761 N   0  0  0  0  0  0  0  0  0  0  0  0
   25.6294  -17.8112  -15.0481 C   0  0  0  0  0  0  0  0  0  0  0  0
   24.3839  -17.6379  -14.7856 O   0  0  0  0  0  0  0  0  0  0  0  0
   27.4417  -14.4984  -17.0372 C   0  0  0  0  0  0  0  0  0  0  0  0
   26.4886  -14.2151  -15.8959 C   0  0  1  0  0  0  0  0  0  0  0  0
   25.7960  -12.9149  -16.1834 C   0  0  0  0  0  0  0  0  0  0  0  0
   25.5569  -15.3792  -15.7783 C   0  0  2  0  0  0  0  0  0  0  0  0
   26.2679  -16.6356  -15.5353 N   0  0  0  0  0  0  0  0  0  0  0  0
   24.7325  -15.4858  -16.9809 C   0  0  0  0  0  0  0  0  0  0  0  0
   23.4693  -14.9272  -17.0629 O   0  0  0  0  0  0  0  0  0  0  0  0
   25.1730  -16.1024  -17.9810 O   0  0  0  0  0  0  0  0  0  0  0  0
  2  3  1  1
  2  1  1  0
  4  2  1  0
  5  7  1  0
  5  4  1  0
  5  6  1  6
  7 13  1  0
  7  8  2  0
 10  9  1  1
 11 10  1  0
 12 10  1  0
 12 13  1  1
 14 20  1  0
 14 12  1  0
 15 14  2  0
 17 16  1  6
 17 19  1  0
 18 17  1  0
 19 21  1  0
 19 20  1  6
 21 22  1  0
 23 21  2  0
M  END
$$$$
