LTV.pdb
     RDKit          3D

 23 22  0  0  1  0  0  0  0  0999 V2000
   26.6917  -18.6336   -6.4103 C   0  0  0  0  0  0  0  0  0  0  0  0
   26.8679  -20.1313   -6.5457 C   0  0  2  0  0  0  0  0  0  0  0  0
   28.0278  -20.5190   -5.6741 C   0  0  0  0  0  0  0  0  0  0  0  0
   27.0301  -20.5418   -7.9908 C   0  0  0  0  0  0  0  0  0  0  0  0
   25.8998  -20.0572   -8.8455 C   0  0  2  0  0  0  0  0  0  0  0  0
   24.7037  -20.7615   -8.5077 N   0  0  0  0  0  0  0  0  0  0  0  0
   26.1989  -20.1723  -10.2972 C   0  0  0  0  0  0  0  0  0  0  0  0
   27.3968  -20.2240  -10.6800 O   0  0  0  0  0  0  0  0  0  0  0  0
   25.5398  -22.9545  -12.5862 C   0  0  0  0  0  0  0  0  0  0  0  0
   24.9878  -21.7262  -13.2512 C   0  0  1  0  0  0  0  0  0  0  0  0
   23.6063  -21.7375  -13.0869 O   0  0  0  0  0  0  0  0  0  0  0  0
   25.5422  -20.4454  -12.7247 C   0  0  2  0  0  0  0  0  0  0  0  0
   25.2439  -20.2309  -11.3187 N   0  0  0  0  0  0  0  0  0  0  0  0
   25.1164  -19.2281  -13.4371 C   0  0  0  0  0  0  0  0  0  0  0  0
   24.1813  -18.4784  -12.9748 O   0  0  0  0  0  0  0  0  0  0  0  0
   27.2249  -16.3200  -14.9313 C   0  0  0  0  0  0  0  0  0  0  0  0
   26.2734  -16.7910  -16.0101 C   0  0  1  0  0  0  0  0  0  0  0  0
   27.0593  -17.6033  -16.9977 C   0  0  0  0  0  0  0  0  0  0  0  0
   25.1710  -17.5538  -15.3467 C   0  0  2  0  0  0  0  0  0  0  0  0
   25.6598  -18.7531  -14.6644 N   0  0  0  0  0  0  0  0  0  0  0  0
   24.1458  -17.9084  -16.3266 C   0  0  0  0  0  0  0  0  0  0  0  0
   23.8844  -19.2203  -16.6808 O   0  0  0  0  0  0  0  0  0  0  0  0
   23.4720  -17.0022  -16.8736 O   0  0  0  0  0  0  0  0  0  0  0  0
  2  3  1  1
  2  1  1  0
  4  2  1  0
  5  7  1  0
  5  4  1  0
  5  6  1  6
  7 13  1  0
  7  8  2  0
 10  9  1  1
 11 10  1  0
 12 10  1  0
 12 13  1  1
 14 20  1  0
 14 12  1  0
 15 14  2  0
 17 16  1  1
 17 19  1  0
 18 17  1  0
 19 21  1  0
 19 20  1  6
 21 22  1  0
 23 21  2  0
M  END
$$$$
