LTV.pdb
     RDKit          3D

 23 22  0  0  1  0  0  0  0  0999 V2000
   33.9344  -22.9764  -10.5318 C   0  0  0  0  0  0  0  0  0  0  0  0
   33.8673  -22.5380  -11.9795 C   0  0  2  0  0  0  0  0  0  0  0  0
   35.2148  -21.9769  -12.3328 C   0  0  0  0  0  0  0  0  0  0  0  0
   32.7274  -21.5745  -12.2145 C   0  0  0  0  0  0  0  0  0  0  0  0
   31.4009  -22.1719  -11.8588 C   0  0  2  0  0  0  0  0  0  0  0  0
   31.2136  -23.3923  -12.5773 N   0  0  0  0  0  0  0  0  0  0  0  0
   30.2749  -21.2307  -12.0965 C   0  0  0  0  0  0  0  0  0  0  0  0
   30.3855  -20.0298  -11.7359 O   0  0  0  0  0  0  0  0  0  0  0  0
   26.4817  -19.5145  -14.6168 C   0  0  0  0  0  0  0  0  0  0  0  0
   27.6704  -20.3971  -14.3645 C   0  0  1  0  0  0  0  0  0  0  0  0
   28.7756  -19.8054  -14.9680 O   0  0  0  0  0  0  0  0  0  0  0  0
   27.9586  -20.6352  -12.9205 C   0  0  2  0  0  0  0  0  0  0  0  0
   29.0580  -21.5606  -12.7042 N   0  0  0  0  0  0  0  0  0  0  0  0
   26.8257  -21.1312  -12.1197 C   0  0  0  0  0  0  0  0  0  0  0  0
   26.5310  -22.3810  -12.0850 O   0  0  0  0  0  0  0  0  0  0  0  0
   26.2884  -20.8984   -8.5279 C   0  0  0  0  0  0  0  0  0  0  0  0
   24.9576  -20.4382   -9.0829 C   0  0  1  0  0  0  0  0  0  0  0  0
   24.8745  -18.9494   -8.9109 C   0  0  0  0  0  0  0  0  0  0  0  0
   24.8776  -20.8838  -10.5084 C   0  0  2  0  0  0  0  0  0  0  0  0
   25.9594  -20.3292  -11.3238 N   0  0  0  0  0  0  0  0  0  0  0  0
   23.5785  -20.5243  -11.0744 C   0  0  0  0  0  0  0  0  0  0  0  0
   23.4502  -19.6211  -12.1149 O   0  0  0  0  0  0  0  0  0  0  0  0
   22.5354  -21.0448  -10.6105 O   0  0  0  0  0  0  0  0  0  0  0  0
  2  3  1  1
  2  1  1  0
  4  2  1  0
  5  7  1  0
  5  4  1  0
  5  6  1  6
  7 13  1  0
  7  8  2  0
 10  9  1  1
 11 10  1  0
 12 10  1  0
 12 13  1  6
 14 20  1  0
 14 12  1  0
 15 14  2  0
 17 16  1  6
 17 19  1  0
 18 17  1  0
 19 21  1  0
 19 20  1  6
 21 22  1  0
 23 21  2  0
M  END
$$$$
