PWT.pdb
     RDKit          3D

 29 31  0  0  1  0  0  0  0  0999 V2000
    7.1874  -15.9909   21.5869 N   0  0  0  0  0  0  0  0  0  0  0  0
    6.3524  -15.4453   20.5055 C   0  0  0  0  0  0  0  0  0  0  0  0
    6.9876  -14.1501   20.0938 C   0  0  0  0  0  0  0  0  0  0  0  0
    8.2830  -14.1070   20.8616 C   0  0  0  0  0  0  0  0  0  0  0  0
    8.4979  -15.5772   21.1910 C   0  0  1  0  0  0  0  0  0  0  0  0
    9.4766  -15.6486   22.3199 C   0  0  0  0  0  0  0  0  0  0  0  0
   10.6323  -15.2282   22.1028 O   0  0  0  0  0  0  0  0  0  0  0  0
    9.1376  -16.1617   23.5810 N   0  0  0  0  0  0  0  0  0  0  0  0
    9.9141  -16.1283   24.7651 C   0  0  1  0  0  0  0  0  0  0  0  0
    9.4898  -15.1546   25.8384 C   0  0  0  0  0  0  0  0  0  0  0  0
    8.0569  -14.8343   25.8279 C   0  0  0  0  0  0  0  0  0  0  0  0
    6.9221  -15.5826   25.6683 C   0  0  0  0  0  0  0  0  0  0  0  0
    5.8409  -14.7921   25.7504 N   0  0  0  0  0  0  0  0  0  0  0  0
    6.2219  -13.5367   25.9611 C   0  0  0  0  0  0  0  0  0  0  0  0
    5.4921  -12.3594   26.1203 C   0  0  0  0  0  0  0  0  0  0  0  0
    6.1386  -11.1726   26.3341 C   0  0  0  0  0  0  0  0  0  0  0  0
    7.5101  -11.1232   26.3950 C   0  0  0  0  0  0  0  0  0  0  0  0
    8.2135  -12.3215   26.2313 C   0  0  0  0  0  0  0  0  0  0  0  0
    7.5992  -13.5167   26.0168 C   0  0  0  0  0  0  0  0  0  0  0  0
   10.2422  -17.4728   25.2542 C   0  0  0  0  0  0  0  0  0  0  0  0
    9.3281  -18.3363   25.2432 O   0  0  0  0  0  0  0  0  0  0  0  0
   13.2415  -21.1650   26.3845 C   0  0  0  0  0  0  0  0  0  0  0  0
   13.1362  -19.7063   26.0232 C   0  0  1  0  0  0  0  0  0  0  0  0
   13.6657  -19.3912   24.7955 O   0  0  0  0  0  0  0  0  0  0  0  0
   11.7215  -19.2035   26.2230 C   0  0  2  0  0  0  0  0  0  0  0  0
   11.5087  -17.8812   25.7400 N   0  0  0  0  0  0  0  0  0  0  0  0
   11.3264  -19.3985   27.6294 C   0  0  0  0  0  0  0  0  0  0  0  0
   11.2397  -20.5565   28.1084 O   0  0  0  0  0  0  0  0  0  0  0  0
   11.0352  -18.3448   28.4825 O   0  0  0  0  0  0  0  0  0  0  0  0
  2  1  1  0
  3  4  1  0
  3  2  1  0
  4  5  1  0
  5  1  1  0
  5  6  1  1
  6  7  2  0
  6  8  1  0
  8  9  1  0
  9 20  1  0
  9 10  1  1
 10 11  1  0
 11 19  1  0
 12 11  2  0
 12 13  1  0
 13 14  1  0
 14 15  1  0
 15 16  2  0
 17 16  1  0
 18 17  2  0
 19 14  2  0
 19 18  1  0
 20 21  2  0
 23 22  1  6
 24 23  1  0
 25 23  1  0
 26 20  1  0
 25 26  1  1
 27 25  1  0
 27 29  1  0
 28 27  2  0
M  END
$$$$
