PWT.pdb
     RDKit          3D

 29 31  0  0  1  0  0  0  0  0999 V2000
    7.3914  -16.0352   21.1166 N   0  0  0  0  0  0  0  0  0  0  0  0
    6.6710  -15.3782   20.0149 C   0  0  0  0  0  0  0  0  0  0  0  0
    6.9959  -13.9166   20.1099 C   0  0  0  0  0  0  0  0  0  0  0  0
    8.0507  -13.8360   21.1824 C   0  0  0  0  0  0  0  0  0  0  0  0
    8.5900  -15.2591   21.1953 C   0  0  1  0  0  0  0  0  0  0  0  0
    9.3065  -15.4586   22.4931 C   0  0  0  0  0  0  0  0  0  0  0  0
   10.3929  -14.8617   22.6448 O   0  0  0  0  0  0  0  0  0  0  0  0
    8.8022  -16.2767   23.5153 N   0  0  0  0  0  0  0  0  0  0  0  0
    9.3799  -16.5311   24.7833 C   0  0  1  0  0  0  0  0  0  0  0  0
    8.4718  -16.4300   25.9855 C   0  0  0  0  0  0  0  0  0  0  0  0
    7.4400  -15.3911   25.8746 C   0  0  0  0  0  0  0  0  0  0  0  0
    6.1185  -15.4054   25.5191 C   0  0  0  0  0  0  0  0  0  0  0  0
    5.6153  -14.1634   25.5891 N   0  0  0  0  0  0  0  0  0  0  0  0
    6.5639  -13.3201   25.9820 C   0  0  0  0  0  0  0  0  0  0  0  0
    6.5475  -11.9443   26.2078 C   0  0  0  0  0  0  0  0  0  0  0  0
    7.6822  -11.3011   26.6213 C   0  0  0  0  0  0  0  0  0  0  0  0
    8.8494  -11.9980   26.8197 C   0  0  0  0  0  0  0  0  0  0  0  0
    8.8333  -13.3772   26.5846 C   0  0  0  0  0  0  0  0  0  0  0  0
    7.7212  -14.0445   26.1724 C   0  0  0  0  0  0  0  0  0  0  0  0
   10.2501  -17.7132   24.7719 C   0  0  0  0  0  0  0  0  0  0  0  0
   10.2357  -18.4377   23.7441 O   0  0  0  0  0  0  0  0  0  0  0  0
   12.3838  -18.6826   23.2563 C   0  0  0  0  0  0  0  0  0  0  0  0
   13.0554  -18.9513   24.5778 C   0  0  1  0  0  0  0  0  0  0  0  0
   14.0193  -18.0329   24.9160 O   0  0  0  0  0  0  0  0  0  0  0  0
   12.0277  -19.1838   25.6659 C   0  0  2  0  0  0  0  0  0  0  0  0
   11.1090  -18.1082   25.8269 N   0  0  0  0  0  0  0  0  0  0  0  0
   12.7122  -19.5783   26.9100 C   0  0  0  0  0  0  0  0  0  0  0  0
   12.5993  -18.8760   27.9454 O   0  0  0  0  0  0  0  0  0  0  0  0
   13.4991  -20.7158   27.0080 O   0  0  0  0  0  0  0  0  0  0  0  0
  2  1  1  0
  3  4  1  0
  3  2  1  0
  4  5  1  0
  5  1  1  0
  5  6  1  1
  6  7  2  0
  6  8  1  0
  8  9  1  0
  9 20  1  0
  9 10  1  1
 10 11  1  0
 11 19  1  0
 12 11  2  0
 12 13  1  0
 13 14  1  0
 14 15  1  0
 15 16  2  0
 17 16  1  0
 18 17  2  0
 19 14  2  0
 19 18  1  0
 20 21  2  0
 23 22  1  6
 24 23  1  0
 25 23  1  0
 26 20  1  0
 25 26  1  1
 27 25  1  0
 27 29  1  0
 28 27  2  0
M  END
$$$$
