PWT.pdb
     RDKit          3D

 29 31  0  0  1  0  0  0  0  0999 V2000
    7.4661  -15.4406   20.8208 N   0  0  0  0  0  0  0  0  0  0  0  0
    6.8625  -14.6727   19.7207 C   0  0  0  0  0  0  0  0  0  0  0  0
    7.2359  -13.2382   19.9520 C   0  0  0  0  0  0  0  0  0  0  0  0
    8.2040  -13.2842   21.1054 C   0  0  0  0  0  0  0  0  0  0  0  0
    8.6842  -14.7273   21.0506 C   0  0  1  0  0  0  0  0  0  0  0  0
    9.2861  -15.0537   22.3805 C   0  0  0  0  0  0  0  0  0  0  0  0
   10.3170  -14.4307   22.7105 O   0  0  0  0  0  0  0  0  0  0  0  0
    8.7366  -16.0152   23.2419 N   0  0  0  0  0  0  0  0  0  0  0  0
    9.2098  -16.4025   24.5196 C   0  0  1  0  0  0  0  0  0  0  0  0
    8.2320  -16.3249   25.6675 C   0  0  0  0  0  0  0  0  0  0  0  0
    7.2811  -15.2100   25.5737 C   0  0  0  0  0  0  0  0  0  0  0  0
    6.0079  -15.0920   25.0858 C   0  0  0  0  0  0  0  0  0  0  0  0
    5.5735  -13.8328   25.2485 N   0  0  0  0  0  0  0  0  0  0  0  0
    6.5209  -13.1067   25.8320 C   0  0  0  0  0  0  0  0  0  0  0  0
    6.5603  -11.7663   26.2138 C   0  0  0  0  0  0  0  0  0  0  0  0
    7.6785  -11.2540   26.8133 C   0  0  0  0  0  0  0  0  0  0  0  0
    8.7742  -12.0490   27.0472 C   0  0  0  0  0  0  0  0  0  0  0  0
    8.7034  -13.3894   26.6524 C   0  0  0  0  0  0  0  0  0  0  0  0
    7.6061  -13.9274   26.0538 C   0  0  0  0  0  0  0  0  0  0  0  0
    9.9980  -17.6398   24.4701 C   0  0  0  0  0  0  0  0  0  0  0  0
    9.4762  -18.6416   23.9172 O   0  0  0  0  0  0  0  0  0  0  0  0
   13.1943  -18.7111   22.8992 C   0  0  0  0  0  0  0  0  0  0  0  0
   13.3014  -19.0880   24.3539 C   0  0  1  0  0  0  0  0  0  0  0  0
   14.2579  -18.3874   25.0475 O   0  0  0  0  0  0  0  0  0  0  0  0
   11.9386  -19.0749   25.0146 C   0  0  2  0  0  0  0  0  0  0  0  0
   11.3037  -17.8008   24.9955 N   0  0  0  0  0  0  0  0  0  0  0  0
   12.0394  -19.6740   26.3573 C   0  0  0  0  0  0  0  0  0  0  0  0
   11.7137  -19.0106   27.3732 O   0  0  0  0  0  0  0  0  0  0  0  0
   12.4873  -20.9685   26.5724 O   0  0  0  0  0  0  0  0  0  0  0  0
  2  1  1  0
  3  4  1  0
  3  2  1  0
  4  5  1  0
  5  1  1  0
  5  6  1  1
  6  7  2  0
  6  8  1  0
  8  9  1  0
  9 20  1  0
  9 10  1  1
 10 11  1  0
 11 19  1  0
 12 11  2  0
 12 13  1  0
 13 14  1  0
 14 15  1  0
 15 16  2  0
 17 16  1  0
 18 17  2  0
 19 14  2  0
 19 18  1  0
 20 21  2  0
 23 22  1  6
 24 23  1  0
 25 23  1  0
 26 20  1  0
 25 26  1  1
 27 25  1  0
 27 29  1  0
 28 27  2  0
M  END
$$$$
