PWT.pdb
     RDKit          3D

 29 31  0  0  1  0  0  0  0  0999 V2000
    7.6482  -15.6149   20.9406 N   0  0  0  0  0  0  0  0  0  0  0  0
    7.1422  -14.9732   19.7173 C   0  0  0  0  0  0  0  0  0  0  0  0
    6.8652  -13.5426   20.0741 C   0  0  0  0  0  0  0  0  0  0  0  0
    7.4053  -13.3936   21.4725 C   0  0  0  0  0  0  0  0  0  0  0  0
    8.3872  -14.5537   21.5514 C   0  0  1  0  0  0  0  0  0  0  0  0
    8.6598  -14.8169   22.9985 C   0  0  0  0  0  0  0  0  0  0  0  0
    8.3180  -13.9356   23.8147 O   0  0  0  0  0  0  0  0  0  0  0  0
    9.2725  -15.9960   23.4485 N   0  0  0  0  0  0  0  0  0  0  0  0
    9.7104  -16.2959   24.7618 C   0  0  1  0  0  0  0  0  0  0  0  0
    8.6533  -16.3794   25.8368 C   0  0  0  0  0  0  0  0  0  0  0  0
    7.5657  -15.4043   25.6883 C   0  0  0  0  0  0  0  0  0  0  0  0
    6.2879  -15.4797   25.2038 C   0  0  0  0  0  0  0  0  0  0  0  0
    5.6937  -14.2804   25.2998 N   0  0  0  0  0  0  0  0  0  0  0  0
    6.5388  -13.4061   25.8354 C   0  0  0  0  0  0  0  0  0  0  0  0
    6.4038  -12.0527   26.1423 C   0  0  0  0  0  0  0  0  0  0  0  0
    7.4460  -11.3672   26.7045 C   0  0  0  0  0  0  0  0  0  0  0  0
    8.6356  -11.9991   26.9741 C   0  0  0  0  0  0  0  0  0  0  0  0
    8.7395  -13.3573   26.6545 C   0  0  0  0  0  0  0  0  0  0  0  0
    7.7214  -14.0655   26.0945 C   0  0  0  0  0  0  0  0  0  0  0  0
   10.6945  -17.3847   24.7859 C   0  0  0  0  0  0  0  0  0  0  0  0
   10.8342  -18.0206   25.8618 O   0  0  0  0  0  0  0  0  0  0  0  0
   11.8030  -20.0262   21.7157 C   0  0  0  0  0  0  0  0  0  0  0  0
   12.9281  -19.3865   22.4868 C   0  0  1  0  0  0  0  0  0  0  0  0
   13.6595  -18.4762   21.7634 O   0  0  0  0  0  0  0  0  0  0  0  0
   12.4340  -18.8524   23.8153 C   0  0  2  0  0  0  0  0  0  0  0  0
   11.5042  -17.7812   23.6931 N   0  0  0  0  0  0  0  0  0  0  0  0
   13.5876  -18.5486   24.6806 C   0  0  0  0  0  0  0  0  0  0  0  0
   13.8004  -17.3710   25.0627 O   0  0  0  0  0  0  0  0  0  0  0  0
   14.4809  -19.5176   25.1119 O   0  0  0  0  0  0  0  0  0  0  0  0
  2  1  1  0
  3  4  1  0
  3  2  1  0
  4  5  1  0
  5  1  1  0
  5  6  1  1
  6  7  2  0
  6  8  1  0
  8  9  1  0
  9 20  1  0
  9 10  1  1
 10 11  1  0
 11 19  1  0
 12 11  2  0
 12 13  1  0
 13 14  1  0
 14 15  1  0
 15 16  2  0
 17 16  1  0
 18 17  2  0
 19 14  2  0
 19 18  1  0
 20 21  2  0
 23 22  1  6
 24 23  1  0
 25 23  1  0
 26 20  1  0
 25 26  1  6
 27 25  1  0
 27 29  1  0
 28 27  2  0
M  END
$$$$
