PWT.pdb
     RDKit          3D

 29 31  0  0  1  0  0  0  0  0999 V2000
    7.8557  -15.1630   18.6225 N   0  0  0  0  0  0  0  0  0  0  0  0
    7.5604  -14.5337   17.3259 C   0  0  0  0  0  0  0  0  0  0  0  0
    7.8228  -13.0668   17.4987 C   0  0  0  0  0  0  0  0  0  0  0  0
    8.4372  -12.9547   18.8696 C   0  0  0  0  0  0  0  0  0  0  0  0
    8.9469  -14.3704   19.0982 C   0  0  1  0  0  0  0  0  0  0  0  0
    9.1673  -14.5390   20.5680 C   0  0  0  0  0  0  0  0  0  0  0  0
   10.2064  -14.0429   21.0515 O   0  0  0  0  0  0  0  0  0  0  0  0
    8.2611  -15.2216   21.3934 N   0  0  0  0  0  0  0  0  0  0  0  0
    8.2410  -15.2599   22.8092 C   0  0  1  0  0  0  0  0  0  0  0  0
    6.9380  -14.9116   23.4881 C   0  0  0  0  0  0  0  0  0  0  0  0
    7.0248  -14.8309   24.9516 C   0  0  0  0  0  0  0  0  0  0  0  0
    7.0678  -15.7670   25.9491 C   0  0  0  0  0  0  0  0  0  0  0  0
    7.1544  -15.1575   27.1414 N   0  0  0  0  0  0  0  0  0  0  0  0
    7.1710  -13.8402   26.9680 C   0  0  0  0  0  0  0  0  0  0  0  0
    7.2523  -12.7853   27.8761 C   0  0  0  0  0  0  0  0  0  0  0  0
    7.2551  -11.4918   27.4299 C   0  0  0  0  0  0  0  0  0  0  0  0
    7.1783  -11.2142   26.0867 C   0  0  0  0  0  0  0  0  0  0  0  0
    7.0977  -12.2944   25.2012 C   0  0  0  0  0  0  0  0  0  0  0  0
    7.0922  -13.5910   25.6145 C   0  0  0  0  0  0  0  0  0  0  0  0
    8.9094  -16.4525   23.3436 C   0  0  0  0  0  0  0  0  0  0  0  0
    8.4521  -17.5756   23.0104 O   0  0  0  0  0  0  0  0  0  0  0  0
   11.8490  -18.1818   22.5787 C   0  0  0  0  0  0  0  0  0  0  0  0
   11.9675  -17.9585   24.0638 C   0  0  1  0  0  0  0  0  0  0  0  0
   12.9446  -17.0617   24.4216 O   0  0  0  0  0  0  0  0  0  0  0  0
   10.6133  -17.6581   24.6723 C   0  0  2  0  0  0  0  0  0  0  0  0
   10.0320  -16.4444   24.2077 N   0  0  0  0  0  0  0  0  0  0  0  0
   10.7032  -17.7560   26.1400 C   0  0  0  0  0  0  0  0  0  0  0  0
   10.4501  -16.7570   26.8583 O   0  0  0  0  0  0  0  0  0  0  0  0
   11.0623  -18.9237   26.7959 O   0  0  0  0  0  0  0  0  0  0  0  0
  2  1  1  0
  3  4  1  0
  3  2  1  0
  4  5  1  0
  5  1  1  0
  5  6  1  1
  6  7  2  0
  6  8  1  0
  8  9  1  0
  9 20  1  0
  9 10  1  6
 10 11  1  0
 11 19  1  0
 12 11  2  0
 12 13  1  0
 13 14  1  0
 14 15  1  0
 15 16  2  0
 17 16  1  0
 18 17  2  0
 19 14  2  0
 19 18  1  0
 20 21  2  0
 23 22  1  6
 24 23  1  0
 25 23  1  0
 26 20  1  0
 25 26  1  1
 27 25  1  0
 27 29  1  0
 28 27  2  0
M  END
$$$$
