PWT.pdb
     RDKit          3D

 29 31  0  0  1  0  0  0  0  0999 V2000
    7.5235  -15.7945   20.9003 N   0  0  0  0  0  0  0  0  0  0  0  0
    6.7982  -15.1345   19.8037 C   0  0  0  0  0  0  0  0  0  0  0  0
    6.9424  -13.6584   20.0298 C   0  0  0  0  0  0  0  0  0  0  0  0
    7.9140  -13.5479   21.1757 C   0  0  0  0  0  0  0  0  0  0  0  0
    8.6154  -14.8974   21.1195 C   0  0  1  0  0  0  0  0  0  0  0  0
    9.2711  -15.1209   22.4452 C   0  0  0  0  0  0  0  0  0  0  0  0
   10.1813  -14.3315   22.7739 O   0  0  0  0  0  0  0  0  0  0  0  0
    8.8993  -16.1661   23.3042 N   0  0  0  0  0  0  0  0  0  0  0  0
    9.5143  -16.5437   24.5230 C   0  0  1  0  0  0  0  0  0  0  0  0
    8.6547  -16.5168   25.7642 C   0  0  0  0  0  0  0  0  0  0  0  0
    7.5522  -15.5484   25.7117 C   0  0  0  0  0  0  0  0  0  0  0  0
    6.2358  -15.6335   25.3472 C   0  0  0  0  0  0  0  0  0  0  0  0
    5.6457  -14.4370   25.4916 N   0  0  0  0  0  0  0  0  0  0  0  0
    6.5313  -13.5553   25.9430 C   0  0  0  0  0  0  0  0  0  0  0  0
    6.4169  -12.2010   26.2545 C   0  0  0  0  0  0  0  0  0  0  0  0
    7.5023  -11.5068   26.7151 C   0  0  0  0  0  0  0  0  0  0  0  0
    8.7155  -12.1306   26.8772 C   0  0  0  0  0  0  0  0  0  0  0  0
    8.7977  -13.4899   26.5560 C   0  0  0  0  0  0  0  0  0  0  0  0
    7.7366  -14.2067   26.0954 C   0  0  0  0  0  0  0  0  0  0  0  0
   10.3435  -17.7463   24.3793 C   0  0  0  0  0  0  0  0  0  0  0  0
    9.8480  -18.8431   24.7441 O   0  0  0  0  0  0  0  0  0  0  0  0
   12.2370  -19.0795   21.2114 C   0  0  0  0  0  0  0  0  0  0  0  0
   13.1545  -19.0843   22.4063 C   0  0  1  0  0  0  0  0  0  0  0  0
   14.1798  -18.1731   22.3319 O   0  0  0  0  0  0  0  0  0  0  0  0
   12.3611  -19.0040   23.6940 C   0  0  2  0  0  0  0  0  0  0  0  0
   11.6618  -17.7752   23.8615 N   0  0  0  0  0  0  0  0  0  0  0  0
   13.2323  -19.3570   24.8290 C   0  0  0  0  0  0  0  0  0  0  0  0
   13.4581  -18.5205   25.7386 O   0  0  0  0  0  0  0  0  0  0  0  0
   13.8371  -20.5983   24.9561 O   0  0  0  0  0  0  0  0  0  0  0  0
  2  1  1  0
  3  4  1  0
  3  2  1  0
  4  5  1  0
  5  1  1  0
  5  6  1  1
  6  7  2  0
  6  8  1  0
  8  9  1  0
  9 20  1  0
  9 10  1  1
 10 11  1  0
 11 19  1  0
 12 11  2  0
 12 13  1  0
 13 14  1  0
 14 15  1  0
 15 16  2  0
 17 16  1  0
 18 17  2  0
 19 14  2  0
 19 18  1  0
 20 21  2  0
 23 22  1  6
 24 23  1  0
 25 23  1  0
 26 20  1  0
 25 26  1  1
 27 25  1  0
 27 29  1  0
 28 27  2  0
M  END
$$$$
