PWT.pdb
     RDKit          3D

 29 31  0  0  1  0  0  0  0  0999 V2000
    7.9286  -15.1392   18.3720 N   0  0  0  0  0  0  0  0  0  0  0  0
    7.6666  -14.5520   17.0488 C   0  0  0  0  0  0  0  0  0  0  0  0
    7.8177  -13.0679   17.2077 C   0  0  0  0  0  0  0  0  0  0  0  0
    8.3425  -12.8924   18.6089 C   0  0  0  0  0  0  0  0  0  0  0  0
    8.9337  -14.2656   18.8934 C   0  0  1  0  0  0  0  0  0  0  0  0
    9.0796  -14.3959   20.3764 C   0  0  0  0  0  0  0  0  0  0  0  0
   10.0490  -13.8162   20.9092 O   0  0  0  0  0  0  0  0  0  0  0  0
    8.1796  -15.1324   21.1612 N   0  0  0  0  0  0  0  0  0  0  0  0
    8.1163  -15.1956   22.5748 C   0  0  1  0  0  0  0  0  0  0  0  0
    6.7724  -14.9423   23.2150 C   0  0  0  0  0  0  0  0  0  0  0  0
    6.7905  -14.9687   24.6829 C   0  0  0  0  0  0  0  0  0  0  0  0
    6.7278  -15.9723   25.6112 C   0  0  0  0  0  0  0  0  0  0  0  0
    6.7908  -15.4533   26.8470 N   0  0  0  0  0  0  0  0  0  0  0  0
    6.8944  -14.1309   26.7700 C   0  0  0  0  0  0  0  0  0  0  0  0
    6.9930  -13.1485   27.7545 C   0  0  0  0  0  0  0  0  0  0  0  0
    7.0951  -11.8300   27.4034 C   0  0  0  0  0  0  0  0  0  0  0  0
    7.1022  -11.4559   26.0815 C   0  0  0  0  0  0  0  0  0  0  0  0
    7.0017  -12.4651   25.1177 C   0  0  0  0  0  0  0  0  0  0  0  0
    6.8984  -13.7842   25.4358 C   0  0  0  0  0  0  0  0  0  0  0  0
    8.8423  -16.3519   23.1138 C   0  0  0  0  0  0  0  0  0  0  0  0
    8.4802  -17.4954   22.7357 O   0  0  0  0  0  0  0  0  0  0  0  0
   11.8672  -17.8960   22.3993 C   0  0  0  0  0  0  0  0  0  0  0  0
   11.9544  -17.6689   23.8860 C   0  0  1  0  0  0  0  0  0  0  0  0
   12.8609  -16.7053   24.2556 O   0  0  0  0  0  0  0  0  0  0  0  0
   10.5761  -17.4682   24.4812 C   0  0  2  0  0  0  0  0  0  0  0  0
    9.9219  -16.2875   24.0287 N   0  0  0  0  0  0  0  0  0  0  0  0
   10.6543  -17.5851   25.9482 C   0  0  0  0  0  0  0  0  0  0  0  0
   10.2765  -16.6368   26.6804 O   0  0  0  0  0  0  0  0  0  0  0  0
   11.1360  -18.7167   26.5886 O   0  0  0  0  0  0  0  0  0  0  0  0
  2  1  1  0
  3  4  1  0
  3  2  1  0
  4  5  1  0
  5  1  1  0
  5  6  1  1
  6  7  2  0
  6  8  1  0
  8  9  1  0
  9 20  1  0
  9 10  1  6
 10 11  1  0
 11 19  1  0
 12 11  2  0
 12 13  1  0
 13 14  1  0
 14 15  1  0
 15 16  2  0
 17 16  1  0
 18 17  2  0
 19 14  2  0
 19 18  1  0
 20 21  2  0
 23 22  1  6
 24 23  1  0
 25 23  1  0
 26 20  1  0
 25 26  1  1
 27 25  1  0
 27 29  1  0
 28 27  2  0
M  END
$$$$
