PWT.pdb
     RDKit          3D

 29 31  0  0  1  0  0  0  0  0999 V2000
    7.3629  -16.3916   21.3585 N   0  0  0  0  0  0  0  0  0  0  0  0
    6.4603  -15.9273   20.2936 C   0  0  0  0  0  0  0  0  0  0  0  0
    6.4803  -14.4281   20.3465 C   0  0  0  0  0  0  0  0  0  0  0  0
    7.5551  -14.1028   21.3507 C   0  0  0  0  0  0  0  0  0  0  0  0
    8.3773  -15.3835   21.3516 C   0  0  1  0  0  0  0  0  0  0  0  0
    9.1926  -15.3957   22.6057 C   0  0  0  0  0  0  0  0  0  0  0  0
   10.0853  -14.5294   22.7164 O   0  0  0  0  0  0  0  0  0  0  0  0
    8.9849  -16.3301   23.6315 N   0  0  0  0  0  0  0  0  0  0  0  0
    9.7033  -16.4546   24.8459 C   0  0  1  0  0  0  0  0  0  0  0  0
    8.9170  -16.3146   26.1274 C   0  0  0  0  0  0  0  0  0  0  0  0
    7.7395  -15.4442   26.0189 C   0  0  0  0  0  0  0  0  0  0  0  0
    6.4226  -15.6682   25.7211 C   0  0  0  0  0  0  0  0  0  0  0  0
    5.7439  -14.5114   25.7625 N   0  0  0  0  0  0  0  0  0  0  0  0
    6.5708  -13.5210   26.0801 C   0  0  0  0  0  0  0  0  0  0  0  0
    6.3590  -12.1534   26.2506 C   0  0  0  0  0  0  0  0  0  0  0  0
    7.4002  -11.3327   26.5889 C   0  0  0  0  0  0  0  0  0  0  0  0
    8.6642  -11.8413   26.7651 C   0  0  0  0  0  0  0  0  0  0  0  0
    8.8440  -13.2173   26.5868 C   0  0  0  0  0  0  0  0  0  0  0  0
    7.8287  -14.0586   26.2499 C   0  0  0  0  0  0  0  0  0  0  0  0
   10.6420  -17.5829   24.8245 C   0  0  0  0  0  0  0  0  0  0  0  0
   10.2145  -18.7041   25.2007 O   0  0  0  0  0  0  0  0  0  0  0  0
   14.8369  -19.7898   23.4272 C   0  0  0  0  0  0  0  0  0  0  0  0
   14.0896  -18.4886   23.5610 C   0  0  1  0  0  0  0  0  0  0  0  0
   13.9238  -17.8109   22.3777 O   0  0  0  0  0  0  0  0  0  0  0  0
   12.8029  -18.6845   24.3357 C   0  0  2  0  0  0  0  0  0  0  0  0
   11.9960  -17.5142   24.4135 N   0  0  0  0  0  0  0  0  0  0  0  0
   13.1064  -19.2910   25.6442 C   0  0  0  0  0  0  0  0  0  0  0  0
   12.9505  -18.6294   26.7006 O   0  0  0  0  0  0  0  0  0  0  0  0
   13.5689  -20.5909   25.7823 O   0  0  0  0  0  0  0  0  0  0  0  0
  2  1  1  0
  3  4  1  0
  3  2  1  0
  4  5  1  0
  5  1  1  0
  5  6  1  1
  6  7  2  0
  6  8  1  0
  8  9  1  0
  9 20  1  0
  9 10  1  1
 10 11  1  0
 11 19  1  0
 12 11  2  0
 12 13  1  0
 13 14  1  0
 14 15  1  0
 15 16  2  0
 17 16  1  0
 18 17  2  0
 19 14  2  0
 19 18  1  0
 20 21  2  0
 23 22  1  6
 24 23  1  0
 25 23  1  0
 26 20  1  0
 25 26  1  1
 27 25  1  0
 27 29  1  0
 28 27  2  0
M  END
$$$$
