PWT.pdb
     RDKit          3D

 29 31  0  0  1  0  0  0  0  0999 V2000
    7.0668  -15.3186   21.1718 N   0  0  0  0  0  0  0  0  0  0  0  0
    6.2360  -14.5840   20.2051 C   0  0  0  0  0  0  0  0  0  0  0  0
    6.7910  -13.1915   20.1431 C   0  0  0  0  0  0  0  0  0  0  0  0
    8.0500  -13.2527   20.9682 C   0  0  0  0  0  0  0  0  0  0  0  0
    8.3580  -14.7431   20.9549 C   0  0  1  0  0  0  0  0  0  0  0  0
    9.2959  -15.0204   22.0865 C   0  0  0  0  0  0  0  0  0  0  0  0
   10.4310  -14.5027   22.0290 O   0  0  0  0  0  0  0  0  0  0  0  0
    8.9419  -15.8250   23.1800 N   0  0  0  0  0  0  0  0  0  0  0  0
    9.6839  -16.0470   24.3661 C   0  0  1  0  0  0  0  0  0  0  0  0
    8.9088  -16.1091   25.6605 C   0  0  0  0  0  0  0  0  0  0  0  0
    7.6987  -15.2777   25.6778 C   0  0  0  0  0  0  0  0  0  0  0  0
    6.3811  -15.5200   25.3979 C   0  0  0  0  0  0  0  0  0  0  0  0
    5.6643  -14.4002   25.5789 N   0  0  0  0  0  0  0  0  0  0  0  0
    6.4665  -13.4167   25.9724 C   0  0  0  0  0  0  0  0  0  0  0  0
    6.2131  -12.0828   26.2897 C   0  0  0  0  0  0  0  0  0  0  0  0
    7.2359  -11.2620   26.6798 C   0  0  0  0  0  0  0  0  0  0  0  0
    8.5220  -11.7374   26.7647 C   0  0  0  0  0  0  0  0  0  0  0  0
    8.7435  -13.0801   26.4397 C   0  0  0  0  0  0  0  0  0  0  0  0
    7.7474  -13.9205   26.0481 C   0  0  0  0  0  0  0  0  0  0  0  0
   10.6898  -17.1036   24.2042 C   0  0  0  0  0  0  0  0  0  0  0  0
   10.3262  -18.2905   24.4057 O   0  0  0  0  0  0  0  0  0  0  0  0
   14.9394  -18.9608   22.5792 C   0  0  0  0  0  0  0  0  0  0  0  0
   14.0268  -17.7655   22.6679 C   0  0  1  0  0  0  0  0  0  0  0  0
   13.5488  -17.3315   21.4555 O   0  0  0  0  0  0  0  0  0  0  0  0
   12.9447  -17.9907   23.7035 C   0  0  2  0  0  0  0  0  0  0  0  0
   12.0427  -16.8974   23.8381 N   0  0  0  0  0  0  0  0  0  0  0  0
   13.5617  -18.4180   24.9718 C   0  0  0  0  0  0  0  0  0  0  0  0
   13.4486  -17.7082   26.0021 O   0  0  0  0  0  0  0  0  0  0  0  0
   14.2831  -19.5953   25.0989 O   0  0  0  0  0  0  0  0  0  0  0  0
  2  1  1  0
  3  4  1  0
  3  2  1  0
  4  5  1  0
  5  1  1  0
  5  6  1  1
  6  7  2  0
  6  8  1  0
  8  9  1  0
  9 20  1  0
  9 10  1  1
 10 11  1  0
 11 19  1  0
 12 11  2  0
 12 13  1  0
 13 14  1  0
 14 15  1  0
 15 16  2  0
 17 16  1  0
 18 17  2  0
 19 14  2  0
 19 18  1  0
 20 21  2  0
 23 22  1  6
 24 23  1  0
 25 23  1  0
 26 20  1  0
 25 26  1  1
 27 25  1  0
 27 29  1  0
 28 27  2  0
M  END
$$$$
