PWT.pdb
     RDKit          3D

 29 31  0  0  1  0  0  0  0  0999 V2000
    7.2377  -15.4462   21.0744 N   0  0  0  0  0  0  0  0  0  0  0  0
    6.5255  -14.6980   20.0269 C   0  0  0  0  0  0  0  0  0  0  0  0
    7.0120  -13.2815   20.1145 C   0  0  0  0  0  0  0  0  0  0  0  0
    8.1340  -13.3318   21.1185 C   0  0  0  0  0  0  0  0  0  0  0  0
    8.5159  -14.8047   21.0840 C   0  0  1  0  0  0  0  0  0  0  0  0
    9.2858  -15.1008   22.3318 C   0  0  0  0  0  0  0  0  0  0  0  0
   10.3492  -14.4709   22.5112 O   0  0  0  0  0  0  0  0  0  0  0  0
    8.8549  -16.0422   23.2787 N   0  0  0  0  0  0  0  0  0  0  0  0
    9.4502  -16.3472   24.5273 C   0  0  1  0  0  0  0  0  0  0  0  0
    8.5800  -16.2159   25.7543 C   0  0  0  0  0  0  0  0  0  0  0  0
    7.4769  -15.2575   25.6099 C   0  0  0  0  0  0  0  0  0  0  0  0
    6.1885  -15.3599   25.1600 C   0  0  0  0  0  0  0  0  0  0  0  0
    5.5820  -14.1657   25.2419 N   0  0  0  0  0  0  0  0  0  0  0  0
    6.4293  -13.2687   25.7346 C   0  0  0  0  0  0  0  0  0  0  0  0
    6.2852  -11.9099   26.0119 C   0  0  0  0  0  0  0  0  0  0  0  0
    7.3326  -11.1985   26.5308 C   0  0  0  0  0  0  0  0  0  0  0  0
    8.5364  -11.8095   26.7853 C   0  0  0  0  0  0  0  0  0  0  0  0
    8.6491  -13.1738   26.4962 C   0  0  0  0  0  0  0  0  0  0  0  0
    7.6261  -13.9075   25.9794 C   0  0  0  0  0  0  0  0  0  0  0  0
   10.2541  -17.5743   24.4761 C   0  0  0  0  0  0  0  0  0  0  0  0
    9.7174  -18.6030   23.9912 O   0  0  0  0  0  0  0  0  0  0  0  0
   13.5097  -18.5438   22.8405 C   0  0  0  0  0  0  0  0  0  0  0  0
   13.6163  -18.9412   24.2898 C   0  0  1  0  0  0  0  0  0  0  0  0
   14.5590  -18.2368   24.9983 O   0  0  0  0  0  0  0  0  0  0  0  0
   12.2505  -18.9588   24.9444 C   0  0  2  0  0  0  0  0  0  0  0  0
   11.5906  -17.6975   24.9295 N   0  0  0  0  0  0  0  0  0  0  0  0
   12.3573  -19.5633   26.2842 C   0  0  0  0  0  0  0  0  0  0  0  0
   11.9712  -18.9296   27.2978 O   0  0  0  0  0  0  0  0  0  0  0  0
   12.8757  -20.8314   26.4989 O   0  0  0  0  0  0  0  0  0  0  0  0
  2  1  1  0
  3  4  1  0
  3  2  1  0
  4  5  1  0
  5  1  1  0
  5  6  1  1
  6  7  2  0
  6  8  1  0
  8  9  1  0
  9 20  1  0
  9 10  1  1
 10 11  1  0
 11 19  1  0
 12 11  2  0
 12 13  1  0
 13 14  1  0
 14 15  1  0
 15 16  2  0
 17 16  1  0
 18 17  2  0
 19 14  2  0
 19 18  1  0
 20 21  2  0
 23 22  1  6
 24 23  1  0
 25 23  1  0
 26 20  1  0
 25 26  1  1
 27 25  1  0
 27 29  1  0
 28 27  2  0
M  END
$$$$
