MYG.pdb
     RDKit          3D

 25 25  0  0  1  0  0  0  0  0999 V2000
   28.9206  -15.9223  -16.7323 C   0  0  0  0  0  0  0  0  0  0  0  0
   27.9823  -17.0298  -15.6747 S   0  0  0  0  0  0  0  0  0  0  0  0
   27.4420  -18.4915  -16.5883 C   0  0  0  0  0  0  0  0  0  0  0  0
   26.5821  -19.3988  -15.7382 C   0  0  0  0  0  0  0  0  0  0  0  0
   27.3777  -20.0118  -14.6037 C   0  0  2  0  0  0  0  0  0  0  0  0
   28.4197  -20.8855  -15.0923 N   0  0  0  0  0  0  0  0  0  0  0  0
   26.4966  -20.7809  -13.7016 C   0  0  0  0  0  0  0  0  0  0  0  0
   26.2656  -22.0035  -13.9072 O   0  0  0  0  0  0  0  0  0  0  0  0
   29.8331  -21.0968   -7.8864 O   0  0  0  0  0  0  0  0  0  0  0  0
   28.6158  -20.8689   -8.4885 C   0  0  0  0  0  0  0  0  0  0  0  0
   27.6553  -20.0914   -7.9007 C   0  0  0  0  0  0  0  0  0  0  0  0
   26.4468  -19.8884   -8.5398 C   0  0  0  0  0  0  0  0  0  0  0  0
   26.1772  -20.4504   -9.7621 C   0  0  0  0  0  0  0  0  0  0  0  0
   24.8847  -20.2372  -10.4449 C   0  0  0  0  0  0  0  0  0  0  0  0
   24.8949  -20.8758  -11.7998 C   0  0  2  0  0  0  0  0  0  0  0  0
   25.8950  -20.1627  -12.5913 N   0  0  0  0  0  0  0  0  0  0  0  0
   23.5924  -20.8637  -12.4931 C   0  0  0  0  0  0  0  0  0  0  0  0
   22.8423  -19.8584  -12.4693 O   0  0  0  0  0  0  0  0  0  0  0  0
   27.1399  -21.2252  -10.3434 C   0  0  0  0  0  0  0  0  0  0  0  0
   28.3640  -21.4428   -9.7176 C   0  0  0  0  0  0  0  0  0  0  0  0
   23.1362  -22.0051  -13.2211 N   0  0  0  0  0  0  0  0  0  0  0  0
   21.8941  -22.6240  -12.8624 C   0  0  0  0  0  0  0  0  0  0  0  0
   20.7372  -21.7167  -13.0894 C   0  0  0  0  0  0  0  0  0  0  0  0
   20.2715  -20.9208  -12.0528 O   0  0  0  0  0  0  0  0  0  0  0  0
   20.1389  -21.6243  -14.1931 O   0  0  0  0  0  0  0  0  0  0  0  0
  2  1  1  0
  3  2  1  0
  4  3  1  0
  5  4  1  0
  5  6  1  6
  5  7  1  0
  7  8  2  0
  9 10  1  0
 10 11  2  0
 11 12  1  0
 13 12  2  0
 13 14  1  0
 15 14  1  1
 15 17  1  0
 16  7  1  0
 16 15  1  0
 17 21  1  0
 17 18  2  0
 19 13  1  0
 20 10  1  0
 20 19  2  0
 21 22  1  0
 23 22  1  0
 23 24  1  0
 25 23  2  0
M  END
$$$$
