MYG.pdb
     RDKit          3D

 25 25  0  0  1  0  0  0  0  0999 V2000
   39.7030  -12.9264  -12.2417 C   0  0  0  0  0  0  0  0  0  0  0  0
   39.9485  -11.2976  -12.9574 S   0  0  0  0  0  0  0  0  0  0  0  0
   39.1495  -10.0249  -11.9549 C   0  0  0  0  0  0  0  0  0  0  0  0
   37.7573   -9.7099  -12.4528 C   0  0  0  0  0  0  0  0  0  0  0  0
   37.7125   -9.6439  -13.9659 C   0  0  2  0  0  0  0  0  0  0  0  0
   38.7009   -8.7299  -14.4908 N   0  0  0  0  0  0  0  0  0  0  0  0
   36.3770   -9.2192  -14.4325 C   0  0  0  0  0  0  0  0  0  0  0  0
   35.3335   -9.8017  -14.0296 O   0  0  0  0  0  0  0  0  0  0  0  0
   30.0836   -4.3315  -18.0338 O   0  0  0  0  0  0  0  0  0  0  0  0
   31.2607   -4.8030  -17.4969 C   0  0  0  0  0  0  0  0  0  0  0  0
   31.3835   -5.0826  -16.1629 C   0  0  0  0  0  0  0  0  0  0  0  0
   32.5835   -5.5542  -15.6653 C   0  0  0  0  0  0  0  0  0  0  0  0
   33.6701   -5.7534  -16.4789 C   0  0  0  0  0  0  0  0  0  0  0  0
   34.9544   -6.2542  -15.9480 C   0  0  0  0  0  0  0  0  0  0  0  0
   34.9197   -7.7452  -15.8090 C   0  0  2  0  0  0  0  0  0  0  0  0
   36.2418   -8.1530  -15.3389 N   0  0  0  0  0  0  0  0  0  0  0  0
   34.5734   -8.4685  -17.0477 C   0  0  0  0  0  0  0  0  0  0  0  0
   35.4490   -8.8082  -17.8793 O   0  0  0  0  0  0  0  0  0  0  0  0
   33.5411   -5.4726  -17.8092 C   0  0  0  0  0  0  0  0  0  0  0  0
   32.3420   -4.9967  -18.3316 C   0  0  0  0  0  0  0  0  0  0  0  0
   33.2185   -8.8097  -17.3457 N   0  0  0  0  0  0  0  0  0  0  0  0
   32.9322   -9.6657  -18.4592 C   0  0  0  0  0  0  0  0  0  0  0  0
   32.9293   -8.9189  -19.7458 C   0  0  0  0  0  0  0  0  0  0  0  0
   32.5778   -9.5695  -20.9197 O   0  0  0  0  0  0  0  0  0  0  0  0
   33.2342   -7.7010  -19.8374 O   0  0  0  0  0  0  0  0  0  0  0  0
  2  1  1  0
  3  2  1  0
  4  3  1  0
  5  4  1  0
  5  6  1  1
  5  7  1  0
  7  8  2  0
  9 10  1  0
 10 11  2  0
 11 12  1  0
 13 12  2  0
 13 14  1  0
 15 14  1  6
 15 17  1  0
 16  7  1  0
 16 15  1  0
 17 21  1  0
 17 18  2  0
 19 13  1  0
 20 10  1  0
 20 19  2  0
 21 22  1  0
 23 22  1  0
 23 24  1  0
 25 23  2  0
M  END
$$$$
