MYG.pdb
     RDKit          3D

 25 25  0  0  1  0  0  0  0  0999 V2000
   31.2240  -31.7913  -25.8676 C   0  0  0  0  0  0  0  0  0  0  0  0
   31.8120  -31.8563  -24.1719 S   0  0  0  0  0  0  0  0  0  0  0  0
   31.5970  -30.2608  -23.3525 C   0  0  0  0  0  0  0  0  0  0  0  0
   32.0491  -30.3048  -21.9106 C   0  0  0  0  0  0  0  0  0  0  0  0
   31.0829  -29.5683  -21.0051 C   0  0  2  0  0  0  0  0  0  0  0  0
   31.1851  -28.1360  -21.1662 N   0  0  0  0  0  0  0  0  0  0  0  0
   31.3310  -29.9063  -19.5888 C   0  0  0  0  0  0  0  0  0  0  0  0
   32.0860  -29.1924  -18.8740 O   0  0  0  0  0  0  0  0  0  0  0  0
   26.3968  -26.9302  -17.3930 O   0  0  0  0  0  0  0  0  0  0  0  0
   27.1529  -28.0788  -17.3201 C   0  0  0  0  0  0  0  0  0  0  0  0
   26.8403  -29.1950  -18.0475 C   0  0  0  0  0  0  0  0  0  0  0  0
   27.6263  -30.3270  -17.9446 C   0  0  0  0  0  0  0  0  0  0  0  0
   28.7253  -30.3665  -17.1242 C   0  0  0  0  0  0  0  0  0  0  0  0
   29.5645  -31.5768  -17.0104 C   0  0  0  0  0  0  0  0  0  0  0  0
   30.9238  -31.3298  -17.5890 C   0  0  2  0  0  0  0  0  0  0  0  0
   30.7283  -31.0354  -19.0069 N   0  0  0  0  0  0  0  0  0  0  0  0
   31.8720  -32.4487  -17.4265 C   0  0  0  0  0  0  0  0  0  0  0  0
   32.0472  -33.3008  -18.3304 O   0  0  0  0  0  0  0  0  0  0  0  0
   29.0321  -29.2493  -16.4009 C   0  0  0  0  0  0  0  0  0  0  0  0
   28.2543  -28.0984  -16.4894 C   0  0  0  0  0  0  0  0  0  0  0  0
   32.6294  -32.6022  -16.2250 N   0  0  0  0  0  0  0  0  0  0  0  0
   33.6300  -33.6254  -16.1443 C   0  0  0  0  0  0  0  0  0  0  0  0
   33.0331  -34.9877  -16.1753 C   0  0  0  0  0  0  0  0  0  0  0  0
   33.8518  -36.1018  -16.0595 O   0  0  0  0  0  0  0  0  0  0  0  0
   31.7985  -35.1974  -16.3036 O   0  0  0  0  0  0  0  0  0  0  0  0
  2  1  1  0
  3  2  1  0
  4  3  1  0
  5  4  1  0
  5  6  1  1
  5  7  1  0
  7  8  2  0
  9 10  1  0
 10 11  2  0
 11 12  1  0
 13 12  2  0
 13 14  1  0
 15 14  1  6
 15 17  1  0
 16  7  1  0
 16 15  1  0
 17 21  1  0
 17 18  2  0
 19 13  1  0
 20 10  1  0
 20 19  2  0
 21 22  1  0
 23 22  1  0
 23 24  1  0
 25 23  2  0
M  END
$$$$
