MYG.pdb
     RDKit          3D

 25 25  0  0  1  0  0  0  0  0999 V2000
   20.2806  -18.7379  -14.9044 C   0  0  0  0  0  0  0  0  0  0  0  0
   19.8311  -19.6429  -13.4197 S   0  0  0  0  0  0  0  0  0  0  0  0
   21.0257  -20.9537  -13.0762 C   0  0  0  0  0  0  0  0  0  0  0  0
   22.4245  -20.4071  -12.9030 C   0  0  0  0  0  0  0  0  0  0  0  0
   23.0440  -20.8744  -11.6016 C   0  0  2  0  0  0  0  0  0  0  0  0
   22.3289  -20.3627  -10.4550 N   0  0  0  0  0  0  0  0  0  0  0  0
   24.4554  -20.4485  -11.5106 C   0  0  0  0  0  0  0  0  0  0  0  0
   24.7601  -19.2285  -11.4152 O   0  0  0  0  0  0  0  0  0  0  0  0
   27.8497  -18.9675   -5.6724 O   0  0  0  0  0  0  0  0  0  0  0  0
   27.7660  -19.6475   -6.8669 C   0  0  0  0  0  0  0  0  0  0  0  0
   26.5611  -19.9571   -7.4371 C   0  0  0  0  0  0  0  0  0  0  0  0
   26.5222  -20.6410   -8.6375 C   0  0  0  0  0  0  0  0  0  0  0  0
   27.6704  -21.0241   -9.2836 C   0  0  0  0  0  0  0  0  0  0  0  0
   27.6305  -21.7582  -10.5649 C   0  0  0  0  0  0  0  0  0  0  0  0
   26.8868  -20.9699  -11.5989 C   0  0  2  0  0  0  0  0  0  0  0  0
   25.4916  -21.3986  -11.5289 N   0  0  0  0  0  0  0  0  0  0  0  0
   27.3996  -21.1246  -12.9738 C   0  0  0  0  0  0  0  0  0  0  0  0
   26.9149  -21.9669  -13.7672 O   0  0  0  0  0  0  0  0  0  0  0  0
   28.8696  -20.7121   -8.7094 C   0  0  0  0  0  0  0  0  0  0  0  0
   28.9320  -20.0239   -7.5011 C   0  0  0  0  0  0  0  0  0  0  0  0
   28.4741  -20.3146  -13.4535 N   0  0  0  0  0  0  0  0  0  0  0  0
   28.1981  -19.2283  -14.3469 C   0  0  0  0  0  0  0  0  0  0  0  0
   27.7332  -19.7085  -15.6759 C   0  0  0  0  0  0  0  0  0  0  0  0
   28.6584  -20.1422  -16.6145 O   0  0  0  0  0  0  0  0  0  0  0  0
   26.5202  -19.7466  -16.0103 O   0  0  0  0  0  0  0  0  0  0  0  0
  2  1  1  0
  3  2  1  0
  4  3  1  0
  5  4  1  0
  5  6  1  1
  5  7  1  0
  7  8  2  0
  9 10  1  0
 10 11  2  0
 11 12  1  0
 13 12  2  0
 13 14  1  0
 15 14  1  1
 15 17  1  0
 16  7  1  0
 16 15  1  0
 17 21  1  0
 17 18  2  0
 19 13  1  0
 20 10  1  0
 20 19  2  0
 21 22  1  0
 23 22  1  0
 23 24  1  0
 25 23  2  0
M  END
$$$$
