MYG.pdb
     RDKit          3D

 25 25  0  0  1  0  0  0  0  0999 V2000
   28.6349  -17.0853  -16.4933 C   0  0  0  0  0  0  0  0  0  0  0  0
   28.6044  -17.5658  -18.2235 S   0  0  0  0  0  0  0  0  0  0  0  0
   26.9140  -17.8840  -18.7754 C   0  0  0  0  0  0  0  0  0  0  0  0
   26.4520  -19.2729  -18.3973 C   0  0  0  0  0  0  0  0  0  0  0  0
   27.5137  -20.0140  -17.6104 C   0  0  2  0  0  0  0  0  0  0  0  0
   28.0632  -21.1187  -18.3623 N   0  0  0  0  0  0  0  0  0  0  0  0
   26.9605  -20.5308  -16.3420 C   0  0  0  0  0  0  0  0  0  0  0  0
   26.2286  -21.5577  -16.3241 O   0  0  0  0  0  0  0  0  0  0  0  0
   25.0748  -21.0472   -7.8017 O   0  0  0  0  0  0  0  0  0  0  0  0
   25.6468  -20.7209   -9.0111 C   0  0  0  0  0  0  0  0  0  0  0  0
   25.5157  -19.4729   -9.5570 C   0  0  0  0  0  0  0  0  0  0  0  0
   26.1062  -19.1874  -10.7735 C   0  0  0  0  0  0  0  0  0  0  0  0
   26.8296  -20.1298  -11.4598 C   0  0  0  0  0  0  0  0  0  0  0  0
   27.4584  -19.8273  -12.7618 C   0  0  0  0  0  0  0  0  0  0  0  0
   26.6111  -20.3393  -13.8859 C   0  0  2  0  0  0  0  0  0  0  0  0
   27.2396  -19.8854  -15.1245 N   0  0  0  0  0  0  0  0  0  0  0  0
   25.2021  -19.9034  -13.8393 C   0  0  0  0  0  0  0  0  0  0  0  0
   24.8486  -18.7712  -14.2477 O   0  0  0  0  0  0  0  0  0  0  0  0
   26.9568  -21.3734  -10.9096 C   0  0  0  0  0  0  0  0  0  0  0  0
   26.3705  -21.6825   -9.6857 C   0  0  0  0  0  0  0  0  0  0  0  0
   24.1834  -20.7619  -13.3235 N   0  0  0  0  0  0  0  0  0  0  0  0
   22.8602  -20.2491  -13.1216 C   0  0  0  0  0  0  0  0  0  0  0  0
   21.8852  -20.8401  -14.0772 C   0  0  0  0  0  0  0  0  0  0  0  0
   20.5357  -20.5405  -13.9587 O   0  0  0  0  0  0  0  0  0  0  0  0
   22.2178  -21.6158  -15.0112 O   0  0  0  0  0  0  0  0  0  0  0  0
  2  1  1  0
  3  2  1  0
  4  3  1  0
  5  4  1  0
  5  6  1  6
  5  7  1  0
  7  8  2  0
  9 10  1  0
 10 11  2  0
 11 12  1  0
 13 12  2  0
 13 14  1  0
 15 14  1  1
 15 17  1  0
 16  7  1  0
 16 15  1  0
 17 21  1  0
 17 18  2  0
 19 13  1  0
 20 10  1  0
 20 19  2  0
 21 22  1  0
 23 22  1  0
 23 24  1  0
 25 23  2  0
M  END
$$$$
