MYG.pdb
     RDKit          3D

 25 25  0  0  1  0  0  0  0  0999 V2000
   25.1599  -16.1378  -15.5794 C   0  0  0  0  0  0  0  0  0  0  0  0
   26.8012  -16.4682  -16.2292 S   0  0  0  0  0  0  0  0  0  0  0  0
   27.7192  -17.5725  -15.1333 C   0  0  0  0  0  0  0  0  0  0  0  0
   26.8056  -18.5450  -14.4226 C   0  0  0  0  0  0  0  0  0  0  0  0
   27.5837  -19.4640  -13.5029 C   0  0  2  0  0  0  0  0  0  0  0  0
   28.5488  -20.2562  -14.2299 N   0  0  0  0  0  0  0  0  0  0  0  0
   26.6729  -20.3725  -12.7771 C   0  0  0  0  0  0  0  0  0  0  0  0
   26.6056  -21.5965  -13.0732 O   0  0  0  0  0  0  0  0  0  0  0  0
   29.9164  -20.8477   -7.0158 O   0  0  0  0  0  0  0  0  0  0  0  0
   28.6923  -20.6813   -7.6242 C   0  0  0  0  0  0  0  0  0  0  0  0
   27.7905  -19.7497   -7.1863 C   0  0  0  0  0  0  0  0  0  0  0  0
   26.5728  -19.6157   -7.8259 C   0  0  0  0  0  0  0  0  0  0  0  0
   26.2358  -20.3987   -8.9010 C   0  0  0  0  0  0  0  0  0  0  0  0
   24.9332  -20.2590   -9.5836 C   0  0  0  0  0  0  0  0  0  0  0  0
   25.0096  -20.8028  -10.9772 C   0  0  2  0  0  0  0  0  0  0  0  0
   25.8592  -19.8888  -11.7375 N   0  0  0  0  0  0  0  0  0  0  0  0
   23.7038  -20.9607  -11.6461 C   0  0  0  0  0  0  0  0  0  0  0  0
   22.6849  -21.3415  -11.0211 O   0  0  0  0  0  0  0  0  0  0  0  0
   27.1401  -21.3264   -9.3332 C   0  0  0  0  0  0  0  0  0  0  0  0
   28.3723  -21.4784   -8.7038 C   0  0  0  0  0  0  0  0  0  0  0  0
   23.5530  -20.6836  -13.0394 N   0  0  0  0  0  0  0  0  0  0  0  0
   22.2607  -20.7988  -13.6486 C   0  0  0  0  0  0  0  0  0  0  0  0
   22.2583  -20.2840  -15.0443 C   0  0  0  0  0  0  0  0  0  0  0  0
   23.4342  -19.8065  -15.6049 O   0  0  0  0  0  0  0  0  0  0  0  0
   21.2281  -20.2541  -15.7671 O   0  0  0  0  0  0  0  0  0  0  0  0
  2  1  1  0
  3  2  1  0
  4  3  1  0
  5  4  1  0
  5  6  1  6
  5  7  1  0
  7  8  2  0
  9 10  1  0
 10 11  2  0
 11 12  1  0
 13 12  2  0
 13 14  1  0
 15 14  1  1
 15 17  1  0
 16  7  1  0
 16 15  1  0
 17 21  1  0
 17 18  2  0
 19 13  1  0
 20 10  1  0
 20 19  2  0
 21 22  1  0
 23 22  1  0
 23 24  1  0
 25 23  2  0
M  END
$$$$
