MYG.pdb
     RDKit          3D

 25 25  0  0  1  0  0  0  0  0999 V2000
   29.3895  -11.2442  -17.4904 C   0  0  0  0  0  0  0  0  0  0  0  0
   29.0131  -12.3663  -16.1396 S   0  0  0  0  0  0  0  0  0  0  0  0
   27.2348  -12.4281  -15.8281 C   0  0  0  0  0  0  0  0  0  0  0  0
   26.5353  -11.1807  -16.3183 C   0  0  0  0  0  0  0  0  0  0  0  0
   25.0335  -11.2848  -16.1467 C   0  0  2  0  0  0  0  0  0  0  0  0
   24.4850  -12.3913  -16.8968 N   0  0  0  0  0  0  0  0  0  0  0  0
   24.3689  -10.0396  -16.5818 C   0  0  0  0  0  0  0  0  0  0  0  0
   24.0300   -9.8712  -17.7849 O   0  0  0  0  0  0  0  0  0  0  0  0
   19.5219   -2.8751  -16.6658 O   0  0  0  0  0  0  0  0  0  0  0  0
   20.2634   -3.9590  -16.2516 C   0  0  0  0  0  0  0  0  0  0  0  0
   21.3275   -3.8220  -15.4021 C   0  0  0  0  0  0  0  0  0  0  0  0
   22.0451   -4.9367  -15.0113 C   0  0  0  0  0  0  0  0  0  0  0  0
   21.7187   -6.1933  -15.4551 C   0  0  0  0  0  0  0  0  0  0  0  0
   22.4868   -7.3852  -15.0411 C   0  0  0  0  0  0  0  0  0  0  0  0
   23.4737   -7.7683  -16.1008 C   0  0  2  0  0  0  0  0  0  0  0  0
   24.0999   -9.0127  -15.6598 N   0  0  0  0  0  0  0  0  0  0  0  0
   24.5040   -6.7486  -16.3765 C   0  0  0  0  0  0  0  0  0  0  0  0
   25.4451   -6.5293  -15.5764 O   0  0  0  0  0  0  0  0  0  0  0  0
   20.6557   -6.3232  -16.3027 C   0  0  0  0  0  0  0  0  0  0  0  0
   19.9192   -5.2142  -16.7090 C   0  0  0  0  0  0  0  0  0  0  0  0
   24.4658   -5.9693  -17.5732 N   0  0  0  0  0  0  0  0  0  0  0  0
   25.5590   -5.0965  -17.8853 C   0  0  0  0  0  0  0  0  0  0  0  0
   25.1945   -3.6655  -17.7049 C   0  0  0  0  0  0  0  0  0  0  0  0
   26.1514   -2.6803  -17.9014 O   0  0  0  0  0  0  0  0  0  0  0  0
   24.0410   -3.2834  -17.3761 O   0  0  0  0  0  0  0  0  0  0  0  0
  2  1  1  0
  3  2  1  0
  4  3  1  0
  5  4  1  0
  5  6  1  6
  5  7  1  0
  7  8  2  0
  9 10  1  0
 10 11  2  0
 11 12  1  0
 13 12  2  0
 13 14  1  0
 15 14  1  1
 15 17  1  0
 16  7  1  0
 16 15  1  0
 17 21  1  0
 17 18  2  0
 19 13  1  0
 20 10  1  0
 20 19  2  0
 21 22  1  0
 23 22  1  0
 23 24  1  0
 25 23  2  0
M  END
$$$$
