MYG.pdb
     RDKit          3D

 25 25  0  0  1  0  0  0  0  0999 V2000
   30.6346  -18.7985  -13.0938 C   0  0  0  0  0  0  0  0  0  0  0  0
   28.8979  -19.2414  -13.2096 S   0  0  0  0  0  0  0  0  0  0  0  0
   28.6941  -21.0334  -13.3112 C   0  0  0  0  0  0  0  0  0  0  0  0
   27.2482  -21.4230  -13.5189 C   0  0  0  0  0  0  0  0  0  0  0  0
   26.4137  -21.1285  -12.2890 C   0  0  2  0  0  0  0  0  0  0  0  0
   26.8820  -21.8633  -11.1364 N   0  0  0  0  0  0  0  0  0  0  0  0
   24.9955  -21.4674  -12.5248 C   0  0  0  0  0  0  0  0  0  0  0  0
   24.5701  -22.6408  -12.3442 O   0  0  0  0  0  0  0  0  0  0  0  0
   20.6772  -22.2716   -7.3481 O   0  0  0  0  0  0  0  0  0  0  0  0
   20.9496  -21.7022   -8.5719 C   0  0  0  0  0  0  0  0  0  0  0  0
   20.2220  -22.0117   -9.6889 C   0  0  0  0  0  0  0  0  0  0  0  0
   20.5291  -21.4169  -10.8980 C   0  0  0  0  0  0  0  0  0  0  0  0
   21.5552  -20.5134  -11.0142 C   0  0  0  0  0  0  0  0  0  0  0  0
   21.8869  -19.8794  -12.3066 C   0  0  0  0  0  0  0  0  0  0  0  0
   22.6800  -20.8177  -13.1635 C   0  0  2  0  0  0  0  0  0  0  0  0
   24.0878  -20.4846  -12.9574 N   0  0  0  0  0  0  0  0  0  0  0  0
   22.3484  -20.7643  -14.6004 C   0  0  0  0  0  0  0  0  0  0  0  0
   22.7677  -19.8417  -15.3398 O   0  0  0  0  0  0  0  0  0  0  0  0
   22.2774  -20.2087   -9.8958 C   0  0  0  0  0  0  0  0  0  0  0  0
   21.9853  -20.7958   -8.6681 C   0  0  0  0  0  0  0  0  0  0  0  0
   21.5321  -21.7690  -15.2045 N   0  0  0  0  0  0  0  0  0  0  0  0
   21.2104  -21.6767  -16.5983 C   0  0  0  0  0  0  0  0  0  0  0  0
   20.0366  -20.7951  -16.8387 C   0  0  0  0  0  0  0  0  0  0  0  0
   19.6961  -20.4390  -18.1358 O   0  0  0  0  0  0  0  0  0  0  0  0
   19.3142  -20.3401  -15.9136 O   0  0  0  0  0  0  0  0  0  0  0  0
  2  1  1  0
  3  2  1  0
  4  3  1  0
  5  4  1  0
  5  6  1  1
  5  7  1  0
  7  8  2  0
  9 10  1  0
 10 11  2  0
 11 12  1  0
 13 12  2  0
 13 14  1  0
 15 14  1  1
 15 17  1  0
 16  7  1  0
 16 15  1  0
 17 21  1  0
 17 18  2  0
 19 13  1  0
 20 10  1  0
 20 19  2  0
 21 22  1  0
 23 22  1  0
 23 24  1  0
 25 23  2  0
M  END
$$$$
