MYG.pdb
     RDKit          3D

 25 25  0  0  1  0  0  0  0  0999 V2000
   22.9023  -20.1780  -17.7423 C   0  0  0  0  0  0  0  0  0  0  0  0
   23.7824  -21.2970  -18.8371 S   0  0  0  0  0  0  0  0  0  0  0  0
   24.9368  -22.3321  -17.9101 C   0  0  0  0  0  0  0  0  0  0  0  0
   24.8660  -22.0604  -16.4246 C   0  0  0  0  0  0  0  0  0  0  0  0
   25.9672  -22.7842  -15.6767 C   0  0  2  0  0  0  0  0  0  0  0  0
   25.9511  -24.2042  -15.9438 N   0  0  0  0  0  0  0  0  0  0  0  0
   25.8380  -22.5729  -14.2206 C   0  0  0  0  0  0  0  0  0  0  0  0
   25.1249  -23.3370  -13.5148 O   0  0  0  0  0  0  0  0  0  0  0  0
   27.0969  -19.5320   -6.1445 O   0  0  0  0  0  0  0  0  0  0  0  0
   27.2110  -19.7810   -7.4940 C   0  0  0  0  0  0  0  0  0  0  0  0
   28.1157  -20.6818   -7.9868 C   0  0  0  0  0  0  0  0  0  0  0  0
   28.1973  -20.9016   -9.3488 C   0  0  0  0  0  0  0  0  0  0  0  0
   27.3880  -20.2351  -10.2339 C   0  0  0  0  0  0  0  0  0  0  0  0
   27.4763  -20.4664  -11.6902 C   0  0  0  0  0  0  0  0  0  0  0  0
   26.2809  -21.2279  -12.1746 C   0  0  2  0  0  0  0  0  0  0  0  0
   26.5098  -21.5111  -13.5897 N   0  0  0  0  0  0  0  0  0  0  0  0
   24.9943  -20.5276  -11.9962 C   0  0  0  0  0  0  0  0  0  0  0  0
   24.6999  -19.5090  -12.6667 O   0  0  0  0  0  0  0  0  0  0  0  0
   26.4872  -19.3375   -9.7358 C   0  0  0  0  0  0  0  0  0  0  0  0
   26.3881  -19.1007   -8.3678 C   0  0  0  0  0  0  0  0  0  0  0  0
   24.0317  -20.9883  -11.0465 N   0  0  0  0  0  0  0  0  0  0  0  0
   22.8463  -20.2183  -10.8091 C   0  0  0  0  0  0  0  0  0  0  0  0
   21.7406  -20.6067  -11.7254 C   0  0  0  0  0  0  0  0  0  0  0  0
   20.4833  -20.0419  -11.5667 O   0  0  0  0  0  0  0  0  0  0  0  0
   21.8790  -21.4382  -12.6603 O   0  0  0  0  0  0  0  0  0  0  0  0
  2  1  1  0
  3  2  1  0
  4  3  1  0
  5  4  1  0
  5  6  1  1
  5  7  1  0
  7  8  2  0
  9 10  1  0
 10 11  2  0
 11 12  1  0
 13 12  2  0
 13 14  1  0
 15 14  1  6
 15 17  1  0
 16  7  1  0
 16 15  1  0
 17 21  1  0
 17 18  2  0
 19 13  1  0
 20 10  1  0
 20 19  2  0
 21 22  1  0
 23 22  1  0
 23 24  1  0
 25 23  2  0
M  END
$$$$
