MYG.pdb
     RDKit          3D

 25 25  0  0  1  0  0  0  0  0999 V2000
   30.8256  -40.3238  -21.3424 C   0  0  0  0  0  0  0  0  0  0  0  0
   30.7033  -38.7192  -20.5451 S   0  0  0  0  0  0  0  0  0  0  0  0
   30.2389  -37.4411  -21.7342 C   0  0  0  0  0  0  0  0  0  0  0  0
   30.3183  -36.0573  -21.1307 C   0  0  0  0  0  0  0  0  0  0  0  0
   29.1598  -35.1903  -21.5804 C   0  0  2  0  0  0  0  0  0  0  0  0
   29.1512  -35.0109  -23.0141 N   0  0  0  0  0  0  0  0  0  0  0  0
   29.2178  -33.8628  -20.9355 C   0  0  0  0  0  0  0  0  0  0  0  0
   29.6925  -32.8657  -21.5446 O   0  0  0  0  0  0  0  0  0  0  0  0
   27.3887  -26.7811  -16.4341 O   0  0  0  0  0  0  0  0  0  0  0  0
   27.4186  -28.0736  -16.9081 C   0  0  0  0  0  0  0  0  0  0  0  0
   27.7939  -29.1237  -16.1149 C   0  0  0  0  0  0  0  0  0  0  0  0
   27.8100  -30.4057  -16.6309 C   0  0  0  0  0  0  0  0  0  0  0  0
   27.4564  -30.6611  -17.9318 C   0  0  0  0  0  0  0  0  0  0  0  0
   27.4764  -32.0304  -18.4858 C   0  0  0  0  0  0  0  0  0  0  0  0
   28.8496  -32.3806  -18.9711 C   0  0  2  0  0  0  0  0  0  0  0  0
   28.7434  -33.6834  -19.6242 N   0  0  0  0  0  0  0  0  0  0  0  0
   29.8807  -32.4213  -17.9163 C   0  0  0  0  0  0  0  0  0  0  0  0
   30.2051  -31.3952  -17.2717 O   0  0  0  0  0  0  0  0  0  0  0  0
   27.0829  -29.6089  -18.7182 C   0  0  0  0  0  0  0  0  0  0  0  0
   27.0595  -28.3097  -18.2191 C   0  0  0  0  0  0  0  0  0  0  0  0
   30.5510  -33.6400  -17.5899 N   0  0  0  0  0  0  0  0  0  0  0  0
   31.5469  -33.6464  -16.5590 C   0  0  0  0  0  0  0  0  0  0  0  0
   32.9229  -33.5583  -17.1175 C   0  0  0  0  0  0  0  0  0  0  0  0
   34.0173  -33.6193  -16.2669 O   0  0  0  0  0  0  0  0  0  0  0  0
   33.1617  -33.4283  -18.3466 O   0  0  0  0  0  0  0  0  0  0  0  0
  2  1  1  0
  3  2  1  0
  4  3  1  0
  5  4  1  0
  5  6  1  6
  5  7  1  0
  7  8  2  0
  9 10  1  0
 10 11  2  0
 11 12  1  0
 13 12  2  0
 13 14  1  0
 15 14  1  1
 15 17  1  0
 16  7  1  0
 16 15  1  0
 17 21  1  0
 17 18  2  0
 19 13  1  0
 20 10  1  0
 20 19  2  0
 21 22  1  0
 23 22  1  0
 23 24  1  0
 25 23  2  0
M  END
$$$$
