MYG.pdb
     RDKit          3D

 25 25  0  0  1  0  0  0  0  0999 V2000
   32.6618  -27.2828  -22.6775 C   0  0  0  0  0  0  0  0  0  0  0  0
   31.5967  -28.6894  -23.0126 S   0  0  0  0  0  0  0  0  0  0  0  0
   30.8100  -29.2790  -21.4972 C   0  0  0  0  0  0  0  0  0  0  0  0
   29.7771  -28.3017  -20.9839 C   0  0  0  0  0  0  0  0  0  0  0  0
   28.9108  -28.9259  -19.9089 C   0  0  2  0  0  0  0  0  0  0  0  0
   27.9624  -29.8641  -20.4642 N   0  0  0  0  0  0  0  0  0  0  0  0
   28.1711  -27.8872  -19.1635 C   0  0  0  0  0  0  0  0  0  0  0  0
   27.0056  -27.5485  -19.5063 O   0  0  0  0  0  0  0  0  0  0  0  0
   23.4882  -30.4709  -16.1692 O   0  0  0  0  0  0  0  0  0  0  0  0
   24.5470  -29.5919  -16.1172 C   0  0  0  0  0  0  0  0  0  0  0  0
   25.8421  -30.0273  -16.0391 C   0  0  0  0  0  0  0  0  0  0  0  0
   26.8753  -29.1108  -15.9890 C   0  0  0  0  0  0  0  0  0  0  0  0
   26.6390  -27.7595  -16.0155 C   0  0  0  0  0  0  0  0  0  0  0  0
   27.7421  -26.7786  -15.9585 C   0  0  0  0  0  0  0  0  0  0  0  0
   28.0207  -26.2219  -17.3208 C   0  0  2  0  0  0  0  0  0  0  0  0
   28.7540  -27.2525  -18.0526 N   0  0  0  0  0  0  0  0  0  0  0  0
   28.7806  -24.9570  -17.3225 C   0  0  0  0  0  0  0  0  0  0  0  0
   30.0319  -24.9396  -17.2349 O   0  0  0  0  0  0  0  0  0  0  0  0
   25.3444  -27.3315  -16.0936 C   0  0  0  0  0  0  0  0  0  0  0  0
   24.2886  -28.2370  -16.1451 C   0  0  0  0  0  0  0  0  0  0  0  0
   28.1130  -23.6981  -17.4247 N   0  0  0  0  0  0  0  0  0  0  0  0
   28.8764  -22.4858  -17.3804 C   0  0  0  0  0  0  0  0  0  0  0  0
   29.1181  -21.9334  -18.7404 C   0  0  0  0  0  0  0  0  0  0  0  0
   28.6314  -22.6039  -19.8533 O   0  0  0  0  0  0  0  0  0  0  0  0
   29.7537  -20.8670  -18.9492 O   0  0  0  0  0  0  0  0  0  0  0  0
  2  1  1  0
  3  2  1  0
  4  3  1  0
  5  4  1  0
  5  6  1  6
  5  7  1  0
  7  8  2  0
  9 10  1  0
 10 11  2  0
 11 12  1  0
 13 12  2  0
 13 14  1  0
 15 14  1  1
 15 17  1  0
 16  7  1  0
 16 15  1  0
 17 21  1  0
 17 18  2  0
 19 13  1  0
 20 10  1  0
 20 19  2  0
 21 22  1  0
 23 22  1  0
 23 24  1  0
 25 23  2  0
M  END
$$$$
