MYG.pdb
     RDKit          3D

 25 25  0  0  1  0  0  0  0  0999 V2000
   28.7855  -13.8220  -15.7042 C   0  0  0  0  0  0  0  0  0  0  0  0
   27.7820  -12.4589  -16.3043 S   0  0  0  0  0  0  0  0  0  0  0  0
   26.7401  -11.7951  -14.9864 C   0  0  0  0  0  0  0  0  0  0  0  0
   25.9354  -10.6034  -15.4532 C   0  0  0  0  0  0  0  0  0  0  0  0
   24.6538  -11.0347  -16.1366 C   0  0  2  0  0  0  0  0  0  0  0  0
   24.9165  -11.7387  -17.3708 N   0  0  0  0  0  0  0  0  0  0  0  0
   23.7972   -9.8673  -16.4282 C   0  0  0  0  0  0  0  0  0  0  0  0
   23.8471   -9.2895  -17.5482 O   0  0  0  0  0  0  0  0  0  0  0  0
   19.2608  -12.4945  -19.6734 O   0  0  0  0  0  0  0  0  0  0  0  0
   19.5761  -11.5835  -18.6901 C   0  0  0  0  0  0  0  0  0  0  0  0
   19.3884  -10.2394  -18.8659 C   0  0  0  0  0  0  0  0  0  0  0  0
   19.7184   -9.3593  -17.8526 C   0  0  0  0  0  0  0  0  0  0  0  0
   20.2354   -9.7981  -16.6599 C   0  0  0  0  0  0  0  0  0  0  0  0
   20.5919   -8.8584  -15.5772 C   0  0  0  0  0  0  0  0  0  0  0  0
   21.9671   -8.3055  -15.7933 C   0  0  2  0  0  0  0  0  0  0  0  0
   22.9056   -9.3746  -15.4592 N   0  0  0  0  0  0  0  0  0  0  0  0
   22.2718   -7.0950  -15.0064 C   0  0  0  0  0  0  0  0  0  0  0  0
   22.3748   -7.1299  -13.7566 O   0  0  0  0  0  0  0  0  0  0  0  0
   20.4202  -11.1406  -16.4907 C   0  0  0  0  0  0  0  0  0  0  0  0
   20.0947  -12.0447  -17.4978 C   0  0  0  0  0  0  0  0  0  0  0  0
   22.4616   -5.8312  -15.6450 N   0  0  0  0  0  0  0  0  0  0  0  0
   22.6557   -4.6565  -14.8470 C   0  0  0  0  0  0  0  0  0  0  0  0
   21.3760   -4.1564  -14.2767 C   0  0  0  0  0  0  0  0  0  0  0  0
   20.1925   -4.8292  -14.5445 O   0  0  0  0  0  0  0  0  0  0  0  0
   21.2986   -3.1335  -13.5470 O   0  0  0  0  0  0  0  0  0  0  0  0
  2  1  1  0
  3  2  1  0
  4  3  1  0
  5  4  1  0
  5  6  1  6
  5  7  1  0
  7  8  2  0
  9 10  1  0
 10 11  2  0
 11 12  1  0
 13 12  2  0
 13 14  1  0
 15 14  1  1
 15 17  1  0
 16  7  1  0
 16 15  1  0
 17 21  1  0
 17 18  2  0
 19 13  1  0
 20 10  1  0
 20 19  2  0
 21 22  1  0
 23 22  1  0
 23 24  1  0
 25 23  2  0
M  END
$$$$
