MYG.pdb
     RDKit          3D

 25 25  0  0  1  0  0  0  0  0999 V2000
   26.1089  -15.6016  -15.3995 C   0  0  0  0  0  0  0  0  0  0  0  0
   27.3054  -16.4564  -16.4306 S   0  0  0  0  0  0  0  0  0  0  0  0
   28.0728  -17.8226  -15.5318 C   0  0  0  0  0  0  0  0  0  0  0  0
   27.0471  -18.6645  -14.8075 C   0  0  0  0  0  0  0  0  0  0  0  0
   27.7054  -19.7612  -13.9953 C   0  0  2  0  0  0  0  0  0  0  0  0
   28.4214  -20.6930  -14.8360 N   0  0  0  0  0  0  0  0  0  0  0  0
   26.7008  -20.5055  -13.2088 C   0  0  0  0  0  0  0  0  0  0  0  0
   26.2329  -21.6005  -13.6242 O   0  0  0  0  0  0  0  0  0  0  0  0
   30.7860  -21.4103   -8.1881 O   0  0  0  0  0  0  0  0  0  0  0  0
   29.4938  -21.1716   -8.5999 C   0  0  0  0  0  0  0  0  0  0  0  0
   29.0665  -21.4978   -9.8584 C   0  0  0  0  0  0  0  0  0  0  0  0
   27.7607  -21.2408  -10.2309 C   0  0  0  0  0  0  0  0  0  0  0  0
   26.8676  -20.6607   -9.3658 C   0  0  0  0  0  0  0  0  0  0  0  0
   25.4725  -20.3822   -9.7636 C   0  0  0  0  0  0  0  0  0  0  0  0
   25.2530  -20.7474  -11.1996 C   0  0  2  0  0  0  0  0  0  0  0  0
   26.2440  -20.0059  -11.9766 N   0  0  0  0  0  0  0  0  0  0  0  0
   23.8950  -20.4652  -11.7033 C   0  0  0  0  0  0  0  0  0  0  0  0
   23.2746  -19.4244  -11.3785 O   0  0  0  0  0  0  0  0  0  0  0  0
   27.3002  -20.3376   -8.1113 C   0  0  0  0  0  0  0  0  0  0  0  0
   28.6109  -20.5876   -7.7151 C   0  0  0  0  0  0  0  0  0  0  0  0
   23.2340  -21.3744  -12.5849 N   0  0  0  0  0  0  0  0  0  0  0  0
   21.9130  -21.0733  -13.0527 C   0  0  0  0  0  0  0  0  0  0  0  0
   21.4067  -22.1123  -13.9893 C   0  0  0  0  0  0  0  0  0  0  0  0
   22.2387  -23.1509  -14.3817 O   0  0  0  0  0  0  0  0  0  0  0  0
   20.2393  -22.1070  -14.4603 O   0  0  0  0  0  0  0  0  0  0  0  0
  2  1  1  0
  3  2  1  0
  4  3  1  0
  5  4  1  0
  5  6  1  6
  5  7  1  0
  7  8  2  0
  9 10  1  0
 10 11  2  0
 11 12  1  0
 13 12  2  0
 13 14  1  0
 15 14  1  1
 15 17  1  0
 16  7  1  0
 16 15  1  0
 17 21  1  0
 17 18  2  0
 19 13  1  0
 20 10  1  0
 20 19  2  0
 21 22  1  0
 23 22  1  0
 23 24  1  0
 25 23  2  0
M  END
$$$$
