MYG.pdb
     RDKit          3D

 25 25  0  0  1  0  0  0  0  0999 V2000
   27.1926  -24.7188  -19.5904 C   0  0  0  0  0  0  0  0  0  0  0  0
   28.4346  -23.7421  -20.4443 S   0  0  0  0  0  0  0  0  0  0  0  0
   29.3119  -22.6629  -19.2915 C   0  0  0  0  0  0  0  0  0  0  0  0
   28.8437  -22.8630  -17.8681 C   0  0  0  0  0  0  0  0  0  0  0  0
   27.6245  -22.0168  -17.5625 C   0  0  2  0  0  0  0  0  0  0  0  0
   27.8751  -20.6133  -17.7976 N   0  0  0  0  0  0  0  0  0  0  0  0
   27.2011  -22.1956  -16.1588 C   0  0  0  0  0  0  0  0  0  0  0  0
   26.9597  -23.3433  -15.6951 O   0  0  0  0  0  0  0  0  0  0  0  0
   25.2393  -20.7587   -7.8039 O   0  0  0  0  0  0  0  0  0  0  0  0
   25.6763  -20.6131   -9.1016 C   0  0  0  0  0  0  0  0  0  0  0  0
   24.9993  -19.8432  -10.0081 C   0  0  0  0  0  0  0  0  0  0  0  0
   25.4729  -19.7241  -11.3010 C   0  0  0  0  0  0  0  0  0  0  0  0
   26.6166  -20.3629  -11.7089 C   0  0  0  0  0  0  0  0  0  0  0  0
   27.1222  -20.2395  -13.0913 C   0  0  0  0  0  0  0  0  0  0  0  0
   26.4565  -21.2400  -13.9854 C   0  0  2  0  0  0  0  0  0  0  0  0
   27.0579  -21.0854  -15.3081 N   0  0  0  0  0  0  0  0  0  0  0  0
   24.9898  -21.1037  -14.0729 C   0  0  0  0  0  0  0  0  0  0  0  0
   24.4513  -20.2102  -14.7695 O   0  0  0  0  0  0  0  0  0  0  0  0
   27.2877  -21.1297  -10.7995 C   0  0  0  0  0  0  0  0  0  0  0  0
   26.8286  -21.2635   -9.4923 C   0  0  0  0  0  0  0  0  0  0  0  0
   24.1250  -21.9911  -13.3619 N   0  0  0  0  0  0  0  0  0  0  0  0
   22.7197  -21.9881  -13.6442 C   0  0  0  0  0  0  0  0  0  0  0  0
   21.9851  -21.0167  -12.7900 C   0  0  0  0  0  0  0  0  0  0  0  0
   22.6833  -20.2246  -11.8900 O   0  0  0  0  0  0  0  0  0  0  0  0
   20.7362  -20.8652  -12.8345 O   0  0  0  0  0  0  0  0  0  0  0  0
  2  1  1  0
  3  2  1  0
  4  3  1  0
  5  4  1  0
  5  6  1  1
  5  7  1  0
  7  8  2  0
  9 10  1  0
 10 11  2  0
 11 12  1  0
 13 12  2  0
 13 14  1  0
 15 14  1  1
 15 17  1  0
 16  7  1  0
 16 15  1  0
 17 21  1  0
 17 18  2  0
 19 13  1  0
 20 10  1  0
 20 19  2  0
 21 22  1  0
 23 22  1  0
 23 24  1  0
 25 23  2  0
M  END
$$$$
