RSM.pdb
     RDKit          3D

 26 25  0  0  1  0  0  0  0  0999 V2000
    7.9136  -12.5331   15.4387 N   0  0  0  0  0  0  0  0  0  0  0  0
    8.5562  -13.7820   15.7486 C   0  0  0  0  0  0  0  0  0  0  0  0
    9.7166  -14.0668   15.2606 N   0  0  0  0  0  0  0  0  0  0  0  0
    7.9193  -14.7265   16.6028 N   0  0  0  0  0  0  0  0  0  0  0  0
    7.3350  -14.2889   17.8298 C   0  0  0  0  0  0  0  0  0  0  0  0
    8.2983  -14.5225   18.9710 C   0  0  0  0  0  0  0  0  0  0  0  0
    9.3256  -15.5614   18.6746 C   0  0  0  0  0  0  0  0  0  0  0  0
    8.9092  -16.9474   19.1113 C   0  0  2  0  0  0  0  0  0  0  0  0
    7.9039  -17.5168   18.2687 N   0  0  0  0  0  0  0  0  0  0  0  0
    8.3912  -16.8963   20.5258 C   0  0  0  0  0  0  0  0  0  0  0  0
    7.2412  -16.5152   20.7981 O   0  0  0  0  0  0  0  0  0  0  0  0
   10.1910  -14.9720   15.3769 O   0  0  0  0  0  0  0  0  0  0  0  0
   10.6404  -18.8607   23.3420 C   0  0  0  0  0  0  0  0  0  0  0  0
    9.2641  -18.7836   23.4497 C   0  0  1  0  0  0  0  0  0  0  0  0
    8.7431  -17.4351   22.9371 N   0  0  0  0  0  0  0  0  0  0  0  0
    9.2372  -17.2950   21.5946 C   0  0  0  0  0  0  0  0  0  0  0  0
    9.2851  -16.3410   23.7613 O   0  0  0  0  0  0  0  0  0  0  0  0
   10.3228  -15.7157   23.4165 C   0  0  0  0  0  0  0  0  0  0  0  0
    5.9567  -11.7791   27.5553 S   0  0  0  0  0  0  0  0  0  0  0  0
    6.2297  -12.0307   25.7701 C   0  0  0  0  0  0  0  0  0  0  0  0
    7.8912  -12.7679   25.5871 C   0  0  0  0  0  0  0  0  0  0  0  0
    7.9045  -14.1338   26.2182 C   0  0  2  0  0  0  0  0  0  0  0  0
    9.1260  -14.9319   25.7817 N   0  0  0  0  0  0  0  0  0  0  0  0
    8.6160  -16.0042   24.9528 C   0  0  0  0  0  0  0  0  0  0  0  0
    9.8613  -15.5375   26.8983 O   0  0  0  0  0  0  0  0  0  0  0  0
   10.7201  -14.8201   27.7111 O   0  0  0  0  0  0  0  0  0  0  0  0
  2  1  1  0
  3  2  2  0
  4  2  1  0
  5  4  1  0
  6  5  1  0
  6  7  1  0
  8  7  1  0
  8  9  1  6
 10  8  1  0
 11 10  2  0
 12 13  1  0
 14 13  1  6
 14 15  1  0
 15 10  1  0
 16 14  1  0
 16 23  1  0
 17 16  2  0
 19 18  1  0
 20 19  1  0
 22 21  1  6
 21 20  1  0
 22 23  1  0
 22 24  1  0
 24 25  1  0
 26 24  2  0
M  END
$$$$
