RSM.pdb
     RDKit          3D

 26 25  0  0  1  0  0  0  0  0999 V2000
    9.1589  -15.4485   16.4461 N   0  0  0  0  0  0  0  0  0  0  0  0
    8.7594  -14.0984   16.1527 C   0  0  0  0  0  0  0  0  0  0  0  0
    8.3545  -13.7711   14.9716 N   0  0  0  0  0  0  0  0  0  0  0  0
    8.8039  -13.0985   17.1655 N   0  0  0  0  0  0  0  0  0  0  0  0
    8.9363  -13.4835   18.5339 C   0  0  0  0  0  0  0  0  0  0  0  0
    7.5691  -13.6747   19.1497 C   0  0  0  0  0  0  0  0  0  0  0  0
    7.6164  -14.2088   20.5407 C   0  0  0  0  0  0  0  0  0  0  0  0
    8.0535  -15.6545   20.6053 C   0  0  2  0  0  0  0  0  0  0  0  0
    7.2534  -16.5137   19.7888 N   0  0  0  0  0  0  0  0  0  0  0  0
    7.9913  -16.1371   22.0318 C   0  0  0  0  0  0  0  0  0  0  0  0
    6.9172  -16.2767   22.6390 O   0  0  0  0  0  0  0  0  0  0  0  0
    8.1806  -12.8056   14.6624 O   0  0  0  0  0  0  0  0  0  0  0  0
   11.3106  -17.9360   23.5696 C   0  0  0  0  0  0  0  0  0  0  0  0
   10.0581  -18.1772   24.1032 C   0  0  1  0  0  0  0  0  0  0  0  0
    9.1922  -16.9115   24.0779 N   0  0  0  0  0  0  0  0  0  0  0  0
    9.1957  -16.4466   22.7178 C   0  0  0  0  0  0  0  0  0  0  0  0
    9.7910  -15.8758   24.9374 O   0  0  0  0  0  0  0  0  0  0  0  0
   10.8331  -15.2599   24.5888 C   0  0  0  0  0  0  0  0  0  0  0  0
    5.9732  -12.6030   26.8673 S   0  0  0  0  0  0  0  0  0  0  0  0
    7.3350  -11.5599   26.2491 C   0  0  0  0  0  0  0  0  0  0  0  0
    8.8130  -12.6281   26.1401 C   0  0  0  0  0  0  0  0  0  0  0  0
    8.8548  -13.5470   27.3308 C   0  0  2  0  0  0  0  0  0  0  0  0
    9.8268  -14.6979   27.1063 N   0  0  0  0  0  0  0  0  0  0  0  0
    9.1718  -15.5846   26.1673 C   0  0  0  0  0  0  0  0  0  0  0  0
   10.1176  -15.4663   28.3225 O   0  0  0  0  0  0  0  0  0  0  0  0
    9.7317  -16.7838   28.4905 O   0  0  0  0  0  0  0  0  0  0  0  0
  2  1  1  0
  3  2  2  0
  4  2  1  0
  5  4  1  0
  6  5  1  0
  6  7  1  0
  8  7  1  0
  8  9  1  6
 10  8  1  0
 11 10  2  0
 12 13  1  0
 14 13  1  6
 14 15  1  0
 15 10  1  0
 16 14  1  0
 16 23  1  0
 17 16  2  0
 19 18  1  0
 20 19  1  0
 22 21  1  6
 21 20  1  0
 22 23  1  0
 22 24  1  0
 24 25  1  0
 26 24  2  0
M  END
$$$$
