RSM.pdb
     RDKit          3D

 26 25  0  0  1  0  0  0  0  0999 V2000
    7.7175  -18.7880   16.7012 N   0  0  0  0  0  0  0  0  0  0  0  0
    6.7143  -17.9118   16.1587 C   0  0  0  0  0  0  0  0  0  0  0  0
    5.9346  -18.3078   15.2094 N   0  0  0  0  0  0  0  0  0  0  0  0
    6.5652  -16.5887   16.6636 N   0  0  0  0  0  0  0  0  0  0  0  0
    7.4977  -16.0882   17.6219 C   0  0  0  0  0  0  0  0  0  0  0  0
    7.2186  -16.6955   18.9778 C   0  0  0  0  0  0  0  0  0  0  0  0
    8.0912  -16.1548   20.0588 C   0  0  0  0  0  0  0  0  0  0  0  0
    9.0136  -17.1956   20.6514 C   0  0  2  0  0  0  0  0  0  0  0  0
    8.8374  -18.4898   20.0695 N   0  0  0  0  0  0  0  0  0  0  0  0
    8.7787  -17.2906   22.1372 C   0  0  0  0  0  0  0  0  0  0  0  0
    7.6500  -17.4765   22.6201 O   0  0  0  0  0  0  0  0  0  0  0  0
    5.1520  -17.7579   14.8311 O   0  0  0  0  0  0  0  0  0  0  0  0
   12.0962  -17.6916   24.5452 C   0  0  0  0  0  0  0  0  0  0  0  0
   10.8715  -18.2153   24.9164 C   0  0  1  0  0  0  0  0  0  0  0  0
    9.7201  -17.3166   24.4484 N   0  0  0  0  0  0  0  0  0  0  0  0
    9.8778  -17.1648   23.0278 C   0  0  0  0  0  0  0  0  0  0  0  0
    9.8262  -15.9920   25.0842 O   0  0  0  0  0  0  0  0  0  0  0  0
   10.5195  -15.0744   24.5704 C   0  0  0  0  0  0  0  0  0  0  0  0
    5.0790  -13.0325   26.5062 S   0  0  0  0  0  0  0  0  0  0  0  0
    6.4699  -11.9002   26.1774 C   0  0  0  0  0  0  0  0  0  0  0  0
    7.9571  -12.9380   25.9572 C   0  0  0  0  0  0  0  0  0  0  0  0
    8.1454  -13.8062   27.1716 C   0  0  2  0  0  0  0  0  0  0  0  0
    9.4419  -14.6008   27.0867 N   0  0  0  0  0  0  0  0  0  0  0  0
    9.1325  -15.7686   26.2882 C   0  0  0  0  0  0  0  0  0  0  0  0
    9.9328  -15.0643   28.3899 O   0  0  0  0  0  0  0  0  0  0  0  0
    9.6067  -16.2989   28.9212 O   0  0  0  0  0  0  0  0  0  0  0  0
  2  1  1  0
  3  2  2  0
  4  2  1  0
  5  4  1  0
  6  5  1  0
  6  7  1  0
  8  7  1  0
  8  9  1  6
 10  8  1  0
 11 10  2  0
 12 13  1  0
 14 13  1  6
 14 15  1  0
 15 10  1  0
 16 14  1  0
 16 23  1  0
 17 16  2  0
 19 18  1  0
 20 19  1  0
 22 21  1  6
 21 20  1  0
 22 23  1  0
 22 24  1  0
 24 25  1  0
 26 24  2  0
M  END
$$$$
