RSM.pdb
     RDKit          3D

 26 25  0  0  1  0  0  0  0  0999 V2000
    9.8853  -11.7274   19.1983 N   0  0  0  0  0  0  0  0  0  0  0  0
    8.8731  -12.6508   18.7608 C   0  0  0  0  0  0  0  0  0  0  0  0
    8.9028  -13.1481   17.5702 N   0  0  0  0  0  0  0  0  0  0  0  0
    7.8191  -13.0323   19.6389 N   0  0  0  0  0  0  0  0  0  0  0  0
    6.8661  -14.0084   19.2176 C   0  0  0  0  0  0  0  0  0  0  0  0
    7.5279  -15.3635   19.1151 C   0  0  0  0  0  0  0  0  0  0  0  0
    7.8044  -15.9884   20.4400 C   0  0  0  0  0  0  0  0  0  0  0  0
    8.3813  -17.3813   20.3290 C   0  0  2  0  0  0  0  0  0  0  0  0
    7.5710  -18.2569   19.5406 N   0  0  0  0  0  0  0  0  0  0  0  0
    8.5432  -17.9716   21.7063 C   0  0  0  0  0  0  0  0  0  0  0  0
    7.5822  -18.4153   22.3554 O   0  0  0  0  0  0  0  0  0  0  0  0
    8.2463  -13.8581   17.2192 O   0  0  0  0  0  0  0  0  0  0  0  0
   12.3975  -18.1753   23.3685 C   0  0  0  0  0  0  0  0  0  0  0  0
   11.3795  -18.9918   23.8255 C   0  0  1  0  0  0  0  0  0  0  0  0
   10.0156  -18.3027   23.6941 N   0  0  0  0  0  0  0  0  0  0  0  0
    9.8345  -18.0285   22.2947 C   0  0  0  0  0  0  0  0  0  0  0  0
   10.0234  -17.0281   24.4326 O   0  0  0  0  0  0  0  0  0  0  0  0
   10.4345  -15.9649   23.8964 C   0  0  0  0  0  0  0  0  0  0  0  0
    6.9086  -11.2433   27.5465 S   0  0  0  0  0  0  0  0  0  0  0  0
    6.8191  -12.8305   26.6533 C   0  0  0  0  0  0  0  0  0  0  0  0
    8.3233  -13.7702   27.0911 C   0  0  0  0  0  0  0  0  0  0  0  0
    8.3981  -15.0149   26.2490 C   0  0  1  0  0  0  0  0  0  0  0  0
    9.6628  -15.8090   26.5484 N   0  0  0  0  0  0  0  0  0  0  0  0
    9.5590  -17.0199   25.7611 C   0  0  0  0  0  0  0  0  0  0  0  0
    9.7917  -16.1985   27.9576 O   0  0  0  0  0  0  0  0  0  0  0  0
   10.1625  -15.3121   28.9525 O   0  0  0  0  0  0  0  0  0  0  0  0
  2  1  1  0
  3  2  2  0
  4  2  1  0
  5  4  1  0
  6  5  1  0
  6  7  1  0
  8  7  1  0
  8  9  1  6
 10  8  1  0
 11 10  2  0
 12 13  1  0
 14 13  1  6
 14 15  1  0
 15 10  1  0
 16 14  1  0
 16 23  1  0
 17 16  2  0
 19 18  1  0
 20 19  1  0
 22 21  1  6
 21 20  1  0
 22 23  1  0
 22 24  1  0
 24 25  1  0
 26 24  2  0
M  END
$$$$
