RSM.pdb
     RDKit          3D

 26 25  0  0  1  0  0  0  0  0999 V2000
   13.4706  -20.1954   23.7827 N   0  0  0  0  0  0  0  0  0  0  0  0
   13.9888  -20.2178   22.4413 C   0  0  0  0  0  0  0  0  0  0  0  0
   15.2059  -19.8643   22.1973 N   0  0  0  0  0  0  0  0  0  0  0  0
   13.1635  -20.6330   21.3578 N   0  0  0  0  0  0  0  0  0  0  0  0
   11.8039  -20.9938   21.6024 C   0  0  0  0  0  0  0  0  0  0  0  0
   10.9804  -19.7528   21.8609 C   0  0  0  0  0  0  0  0  0  0  0  0
    9.5388  -20.0408   22.1090 C   0  0  0  0  0  0  0  0  0  0  0  0
    8.6209  -19.3689   21.1133 C   0  0  2  0  0  0  0  0  0  0  0  0
    8.7082  -19.9390   19.8048 N   0  0  0  0  0  0  0  0  0  0  0  0
    8.9536  -17.9012   21.0312 C   0  0  0  0  0  0  0  0  0  0  0  0
   10.0301  -17.4894   20.5694 O   0  0  0  0  0  0  0  0  0  0  0  0
   15.6007  -19.7480   21.2546 O   0  0  0  0  0  0  0  0  0  0  0  0
    5.8310  -15.4014   21.6155 C   0  0  0  0  0  0  0  0  0  0  0  0
    6.8766  -14.9650   20.8229 C   0  0  1  0  0  0  0  0  0  0  0  0
    8.2154  -15.5335   21.3098 N   0  0  0  0  0  0  0  0  0  0  0  0
    8.0120  -16.9443   21.4947 C   0  0  0  0  0  0  0  0  0  0  0  0
    8.5764  -14.9301   22.6043 O   0  0  0  0  0  0  0  0  0  0  0  0
    8.8093  -13.6965   22.7078 C   0  0  0  0  0  0  0  0  0  0  0  0
    7.5298  -10.7839   26.2667 S   0  0  0  0  0  0  0  0  0  0  0  0
    6.6649  -12.2783   26.8528 C   0  0  0  0  0  0  0  0  0  0  0  0
    7.8414  -13.6671   26.6958 C   0  0  0  0  0  0  0  0  0  0  0  0
    7.7783  -14.2203   25.2979 C   0  0  1  0  0  0  0  0  0  0  0  0
    8.9254  -15.1870   25.0344 N   0  0  0  0  0  0  0  0  0  0  0  0
    8.6575  -15.7654   23.7341 C   0  0  0  0  0  0  0  0  0  0  0  0
    9.0042  -16.2835   26.0068 O   0  0  0  0  0  0  0  0  0  0  0  0
    9.5874  -16.1437   27.2530 O   0  0  0  0  0  0  0  0  0  0  0  0
  2  1  1  0
  3  2  2  0
  4  2  1  0
  5  4  1  0
  6  5  1  0
  6  7  1  0
  8  7  1  0
  8  9  1  6
 10  8  1  0
 11 10  2  0
 12 13  1  0
 14 13  1  6
 14 15  1  0
 15 10  1  0
 16 14  1  0
 16 23  1  0
 17 16  2  0
 19 18  1  0
 20 19  1  0
 22 21  1  6
 21 20  1  0
 22 23  1  0
 22 24  1  0
 24 25  1  0
 26 24  2  0
M  END
$$$$
