RSM.pdb
     RDKit          3D

 26 25  0  0  1  0  0  0  0  0999 V2000
    9.7600  -16.2915   14.9371 N   0  0  0  0  0  0  0  0  0  0  0  0
    8.7421  -15.3079   15.1916 C   0  0  0  0  0  0  0  0  0  0  0  0
    7.9498  -14.9182   14.2502 N   0  0  0  0  0  0  0  0  0  0  0  0
    8.5921  -14.7474   16.4920 N   0  0  0  0  0  0  0  0  0  0  0  0
    8.0096  -15.5284   17.5357 C   0  0  0  0  0  0  0  0  0  0  0  0
    8.6240  -16.9094   17.5497 C   0  0  0  0  0  0  0  0  0  0  0  0
    9.6300  -17.0981   18.6336 C   0  0  0  0  0  0  0  0  0  0  0  0
    9.0032  -17.3139   19.9922 C   0  0  2  0  0  0  0  0  0  0  0  0
    7.6047  -17.6030   19.9191 N   0  0  0  0  0  0  0  0  0  0  0  0
    9.2056  -16.0856   20.8419 C   0  0  0  0  0  0  0  0  0  0  0  0
   10.3303  -15.7150   21.2156 O   0  0  0  0  0  0  0  0  0  0  0  0
    7.1723  -14.2574   14.3797 O   0  0  0  0  0  0  0  0  0  0  0  0
    7.6552  -12.7168   20.1957 C   0  0  0  0  0  0  0  0  0  0  0  0
    7.2619  -13.0937   21.4665 C   0  0  2  0  0  0  0  0  0  0  0  0
    8.2162  -14.1411   22.0538 N   0  0  0  0  0  0  0  0  0  0  0  0
    8.0794  -15.3157   21.2366 C   0  0  0  0  0  0  0  0  0  0  0  0
    7.8144  -14.4700   23.4324 O   0  0  0  0  0  0  0  0  0  0  0  0
    7.5529  -15.6545   23.7717 C   0  0  0  0  0  0  0  0  0  0  0  0
   11.2816  -14.6539   28.2875 S   0  0  0  0  0  0  0  0  0  0  0  0
    9.8920  -15.8344   28.2900 C   0  0  0  0  0  0  0  0  0  0  0  0
    8.4195  -14.9204   27.7120 C   0  0  0  0  0  0  0  0  0  0  0  0
    8.5868  -14.5708   26.2582 C   0  0  1  0  0  0  0  0  0  0  0  0
    7.4202  -13.7312   25.7544 N   0  0  0  0  0  0  0  0  0  0  0  0
    7.7268  -13.4262   24.3724 C   0  0  0  0  0  0  0  0  0  0  0  0
    7.2593  -12.4601   26.4704 O   0  0  0  0  0  0  0  0  0  0  0  0
    6.5256  -12.3411   27.6368 O   0  0  0  0  0  0  0  0  0  0  0  0
  2  1  1  0
  3  2  2  0
  4  2  1  0
  5  4  1  0
  6  5  1  0
  6  7  1  0
  8  7  1  0
  8  9  1  6
 10  8  1  0
 11 10  2  0
 12 13  1  0
 14 13  1  6
 14 15  1  0
 15 10  1  0
 16 14  1  0
 16 23  1  0
 17 16  2  0
 19 18  1  0
 20 19  1  0
 22 21  1  6
 21 20  1  0
 22 23  1  0
 22 24  1  0
 24 25  1  0
 26 24  2  0
M  END
$$$$
