RSM.pdb
     RDKit          3D

 26 25  0  0  1  0  0  0  0  0999 V2000
    7.4311  -15.2372   14.8521 N   0  0  0  0  0  0  0  0  0  0  0  0
    7.4537  -13.9670   15.5263 C   0  0  0  0  0  0  0  0  0  0  0  0
    8.1659  -12.9909   15.0726 N   0  0  0  0  0  0  0  0  0  0  0  0
    6.6866  -13.7662   16.7090 N   0  0  0  0  0  0  0  0  0  0  0  0
    7.1497  -14.2972   17.9508 C   0  0  0  0  0  0  0  0  0  0  0  0
    8.4953  -13.7011   18.2960 C   0  0  0  0  0  0  0  0  0  0  0  0
    8.9829  -14.0867   19.6510 C   0  0  0  0  0  0  0  0  0  0  0  0
    9.7954  -15.3615   19.6473 C   0  0  2  0  0  0  0  0  0  0  0  0
    9.6228  -16.1267   18.4517 N   0  0  0  0  0  0  0  0  0  0  0  0
    9.4086  -16.2096   20.8317 C   0  0  0  0  0  0  0  0  0  0  0  0
    8.3926  -16.9235   20.8333 O   0  0  0  0  0  0  0  0  0  0  0  0
    8.1613  -12.0378   15.4594 O   0  0  0  0  0  0  0  0  0  0  0  0
   12.2530  -17.4797   23.5810 C   0  0  0  0  0  0  0  0  0  0  0  0
   11.0583  -18.0685   23.2097 C   0  0  1  0  0  0  0  0  0  0  0  0
    9.9312  -17.0314   23.1296 N   0  0  0  0  0  0  0  0  0  0  0  0
   10.2256  -16.2017   21.9934 C   0  0  0  0  0  0  0  0  0  0  0  0
    9.9301  -16.1958   24.3428 O   0  0  0  0  0  0  0  0  0  0  0  0
   10.2645  -14.9821   24.3003 C   0  0  0  0  0  0  0  0  0  0  0  0
    7.6127  -12.2916   25.3901 S   0  0  0  0  0  0  0  0  0  0  0  0
    7.6968  -12.6290   27.1800 C   0  0  0  0  0  0  0  0  0  0  0  0
    7.3522  -14.4095   27.4002 C   0  0  0  0  0  0  0  0  0  0  0  0
    7.9469  -15.1796   26.2525 C   0  0  1  0  0  0  0  0  0  0  0  0
    9.1938  -15.9400   26.6848 N   0  0  0  0  0  0  0  0  0  0  0  0
    9.5452  -16.7842   25.5620 C   0  0  0  0  0  0  0  0  0  0  0  0
    8.9783  -16.8071   27.8492 O   0  0  0  0  0  0  0  0  0  0  0  0
    9.4282  -16.4891   29.1179 O   0  0  0  0  0  0  0  0  0  0  0  0
  2  1  1  0
  3  2  2  0
  4  2  1  0
  5  4  1  0
  6  5  1  0
  6  7  1  0
  8  7  1  0
  8  9  1  6
 10  8  1  0
 11 10  2  0
 12 13  1  0
 14 13  1  6
 14 15  1  0
 15 10  1  0
 16 14  1  0
 16 23  1  0
 17 16  2  0
 19 18  1  0
 20 19  1  0
 22 21  1  6
 21 20  1  0
 22 23  1  0
 22 24  1  0
 24 25  1  0
 26 24  2  0
M  END
$$$$
