RSM.pdb
     RDKit          3D

 26 25  0  0  1  0  0  0  0  0999 V2000
   14.4876  -14.3918   20.0139 N   0  0  0  0  0  0  0  0  0  0  0  0
   13.8549  -14.6311   18.7447 C   0  0  0  0  0  0  0  0  0  0  0  0
   14.3321  -15.5045   17.9228 N   0  0  0  0  0  0  0  0  0  0  0  0
   12.6870  -13.9055   18.3746 N   0  0  0  0  0  0  0  0  0  0  0  0
   12.0602  -13.0426   19.3238 C   0  0  0  0  0  0  0  0  0  0  0  0
   10.9996  -13.8016   20.0881 C   0  0  0  0  0  0  0  0  0  0  0  0
   10.1624  -14.6807   19.2228 C   0  0  0  0  0  0  0  0  0  0  0  0
    8.6792  -14.4552   19.4086 C   0  0  2  0  0  0  0  0  0  0  0  0
    8.2935  -13.0945   19.1977 N   0  0  0  0  0  0  0  0  0  0  0  0
    8.2767  -14.8681   20.8012 C   0  0  0  0  0  0  0  0  0  0  0  0
    8.1866  -14.0544   21.7347 O   0  0  0  0  0  0  0  0  0  0  0  0
   13.9347  -15.7107   16.9968 O   0  0  0  0  0  0  0  0  0  0  0  0
    8.3814  -18.9074   21.9405 C   0  0  0  0  0  0  0  0  0  0  0  0
    7.2526  -18.1677   22.2409 C   0  0  1  0  0  0  0  0  0  0  0  0
    7.5871  -16.6770   22.3763 N   0  0  0  0  0  0  0  0  0  0  0  0
    7.9877  -16.2324   21.0694 C   0  0  0  0  0  0  0  0  0  0  0  0
    8.7146  -16.4976   23.3073 O   0  0  0  0  0  0  0  0  0  0  0  0
    9.8895  -16.3292   22.8857 C   0  0  0  0  0  0  0  0  0  0  0  0
    8.2591  -12.7760   28.0039 S   0  0  0  0  0  0  0  0  0  0  0  0
    9.3379  -13.8990   28.9523 C   0  0  0  0  0  0  0  0  0  0  0  0
   10.0045  -15.1194   27.7674 C   0  0  0  0  0  0  0  0  0  0  0  0
    9.0360  -15.2913   26.6287 C   0  0  1  0  0  0  0  0  0  0  0  0
    9.5385  -16.3233   25.6276 N   0  0  0  0  0  0  0  0  0  0  0  0
    8.4524  -16.5186   24.6899 C   0  0  0  0  0  0  0  0  0  0  0  0
    9.8503  -17.6240   26.2317 O   0  0  0  0  0  0  0  0  0  0  0  0
   11.0520  -17.8925   26.8616 O   0  0  0  0  0  0  0  0  0  0  0  0
  2  1  1  0
  3  2  2  0
  4  2  1  0
  5  4  1  0
  6  5  1  0
  6  7  1  0
  8  7  1  0
  8  9  1  1
 10  8  1  0
 11 10  2  0
 12 13  1  0
 14 13  1  6
 14 15  1  0
 15 10  1  0
 16 14  1  0
 16 23  1  0
 17 16  2  0
 19 18  1  0
 20 19  1  0
 22 21  1  6
 21 20  1  0
 22 23  1  0
 22 24  1  0
 24 25  1  0
 26 24  2  0
M  END
$$$$
