RSM.pdb
     RDKit          3D

 26 25  0  0  1  0  0  0  0  0999 V2000
    7.8555  -21.0684   25.5277 N   0  0  0  0  0  0  0  0  0  0  0  0
    6.8244  -20.2816   26.1493 C   0  0  0  0  0  0  0  0  0  0  0  0
    6.9315  -19.9051   27.3792 N   0  0  0  0  0  0  0  0  0  0  0  0
    5.6654  -19.9038   25.4134 N   0  0  0  0  0  0  0  0  0  0  0  0
    5.5729  -20.2256   24.0255 C   0  0  0  0  0  0  0  0  0  0  0  0
    6.1619  -19.1067   23.1971 C   0  0  0  0  0  0  0  0  0  0  0  0
    6.0339  -19.3278   21.7284 C   0  0  0  0  0  0  0  0  0  0  0  0
    6.6916  -18.2427   20.9067 C   0  0  2  0  0  0  0  0  0  0  0  0
    6.6908  -18.5292   19.5057 N   0  0  0  0  0  0  0  0  0  0  0  0
    8.1144  -18.0538   21.3670 C   0  0  0  0  0  0  0  0  0  0  0  0
    8.9703  -18.9471   21.2614 O   0  0  0  0  0  0  0  0  0  0  0  0
    6.2423  -19.3217   27.8717 O   0  0  0  0  0  0  0  0  0  0  0  0
    9.8098  -14.5082   21.2451 C   0  0  0  0  0  0  0  0  0  0  0  0
   10.5267  -15.6764   21.4269 C   0  0  1  0  0  0  0  0  0  0  0  0
    9.8354  -16.5986   22.4390 N   0  0  0  0  0  0  0  0  0  0  0  0
    8.5036  -16.8157   21.9438 C   0  0  0  0  0  0  0  0  0  0  0  0
    9.7538  -15.9333   23.7508 O   0  0  0  0  0  0  0  0  0  0  0  0
    9.7848  -14.6780   23.8497 C   0  0  0  0  0  0  0  0  0  0  0  0
    6.6673  -12.1901   24.9361 S   0  0  0  0  0  0  0  0  0  0  0  0
    6.9150  -12.9489   26.5755 C   0  0  0  0  0  0  0  0  0  0  0  0
    8.5032  -13.8491   26.5081 C   0  0  0  0  0  0  0  0  0  0  0  0
    8.2468  -15.2904   26.1602 C   0  0  2  0  0  0  0  0  0  0  0  0
    9.5323  -16.1060   26.2032 N   0  0  0  0  0  0  0  0  0  0  0  0
    9.6399  -16.7339   24.9027 C   0  0  0  0  0  0  0  0  0  0  0  0
    9.5200  -17.1683   27.2158 O   0  0  0  0  0  0  0  0  0  0  0  0
    9.6909  -16.9228   28.5662 O   0  0  0  0  0  0  0  0  0  0  0  0
  2  1  1  0
  3  2  2  0
  4  2  1  0
  5  4  1  0
  6  5  1  0
  6  7  1  0
  8  7  1  0
  8  9  1  6
 10  8  1  0
 11 10  2  0
 12 13  1  0
 14 13  1  6
 14 15  1  0
 15 10  1  0
 16 14  1  0
 16 23  1  0
 17 16  2  0
 19 18  1  0
 20 19  1  0
 22 21  1  6
 21 20  1  0
 22 23  1  0
 22 24  1  0
 24 25  1  0
 26 24  2  0
M  END
$$$$
