RSM.pdb
     RDKit          3D

 26 25  0  0  1  0  0  0  0  0999 V2000
    9.4601  -14.8838   16.4514 N   0  0  0  0  0  0  0  0  0  0  0  0
    8.4241  -13.9356   16.1413 C   0  0  0  0  0  0  0  0  0  0  0  0
    7.9109  -13.8810   14.9583 N   0  0  0  0  0  0  0  0  0  0  0  0
    7.9465  -13.0395   17.1396 N   0  0  0  0  0  0  0  0  0  0  0  0
    8.1044  -13.3692   18.5197 C   0  0  0  0  0  0  0  0  0  0  0  0
    7.7478  -14.8205   18.7466 C   0  0  0  0  0  0  0  0  0  0  0  0
    7.6814  -15.1948   20.1881 C   0  0  0  0  0  0  0  0  0  0  0  0
    7.4603  -16.6743   20.4061 C   0  0  2  0  0  0  0  0  0  0  0  0
    6.1736  -17.1147   19.9641 N   0  0  0  0  0  0  0  0  0  0  0  0
    7.6117  -16.9966   21.8707 C   0  0  0  0  0  0  0  0  0  0  0  0
    6.6854  -16.8431   22.6833 O   0  0  0  0  0  0  0  0  0  0  0  0
    7.1704  -13.2260   14.6745 O   0  0  0  0  0  0  0  0  0  0  0  0
   11.4265  -17.9722   23.3076 C   0  0  0  0  0  0  0  0  0  0  0  0
   10.3283  -18.6283   23.8323 C   0  0  1  0  0  0  0  0  0  0  0  0
    9.0697  -17.7557   23.7486 N   0  0  0  0  0  0  0  0  0  0  0  0
    8.8518  -17.4939   22.3521 C   0  0  0  0  0  0  0  0  0  0  0  0
    9.2977  -16.4770   24.4436 O   0  0  0  0  0  0  0  0  0  0  0  0
    9.8896  -15.5211   23.8754 C   0  0  0  0  0  0  0  0  0  0  0  0
    6.9514  -10.4052   27.6580 S   0  0  0  0  0  0  0  0  0  0  0  0
    6.7796  -11.8860   26.6080 C   0  0  0  0  0  0  0  0  0  0  0  0
    7.6653  -13.2411   27.4545 C   0  0  0  0  0  0  0  0  0  0  0  0
    7.6409  -14.4718   26.5892 C   0  0  1  0  0  0  0  0  0  0  0  0
    9.0283  -15.0880   26.4662 N   0  0  0  0  0  0  0  0  0  0  0  0
    8.8380  -16.3417   25.7669 C   0  0  0  0  0  0  0  0  0  0  0  0
    9.6554  -15.3852   27.7595 O   0  0  0  0  0  0  0  0  0  0  0  0
   10.1740  -14.4059   28.5871 O   0  0  0  0  0  0  0  0  0  0  0  0
  2  1  1  0
  3  2  2  0
  4  2  1  0
  5  4  1  0
  6  5  1  0
  6  7  1  0
  8  7  1  0
  8  9  1  1
 10  8  1  0
 11 10  2  0
 12 13  1  0
 14 13  1  6
 14 15  1  0
 15 10  1  0
 16 14  1  0
 16 23  1  0
 17 16  2  0
 19 18  1  0
 20 19  1  0
 22 21  1  6
 21 20  1  0
 22 23  1  0
 22 24  1  0
 24 25  1  0
 26 24  2  0
M  END
$$$$
