RSM.pdb
     RDKit          3D

 26 25  0  0  1  0  0  0  0  0999 V2000
    7.0040  -15.3769   15.8162 N   0  0  0  0  0  0  0  0  0  0  0  0
    7.8760  -14.2666   15.5414 C   0  0  0  0  0  0  0  0  0  0  0  0
    8.6324  -14.2638   14.4956 N   0  0  0  0  0  0  0  0  0  0  0  0
    7.9174  -13.1488   16.4225 N   0  0  0  0  0  0  0  0  0  0  0  0
    8.5330  -13.2809   17.7040 C   0  0  0  0  0  0  0  0  0  0  0  0
    7.4795  -13.2452   18.7874 C   0  0  0  0  0  0  0  0  0  0  0  0
    7.6361  -14.3277   19.8004 C   0  0  0  0  0  0  0  0  0  0  0  0
    9.0516  -14.4568   20.3152 C   0  0  2  0  0  0  0  0  0  0  0  0
    9.9565  -14.9640   19.3310 N   0  0  0  0  0  0  0  0  0  0  0  0
    9.0709  -15.3692   21.5147 C   0  0  0  0  0  0  0  0  0  0  0  0
    8.3818  -15.1525   22.5246 O   0  0  0  0  0  0  0  0  0  0  0  0
    9.2019  -13.4632   14.1911 O   0  0  0  0  0  0  0  0  0  0  0  0
   11.9376  -18.4585   21.7830 C   0  0  0  0  0  0  0  0  0  0  0  0
   10.6096  -18.7215   22.0637 C   0  0  1  0  0  0  0  0  0  0  0  0
    9.8948  -17.4682   22.5842 N   0  0  0  0  0  0  0  0  0  0  0  0
    9.9019  -16.5208   21.5033 C   0  0  0  0  0  0  0  0  0  0  0  0
   10.6400  -16.9004   23.7209 O   0  0  0  0  0  0  0  0  0  0  0  0
   11.3237  -15.8501   23.5946 C   0  0  0  0  0  0  0  0  0  0  0  0
    9.4322  -12.4176   28.9452 S   0  0  0  0  0  0  0  0  0  0  0  0
    9.0380  -13.4126   27.4689 C   0  0  0  0  0  0  0  0  0  0  0  0
   10.1494  -14.8622   27.4949 C   0  0  0  0  0  0  0  0  0  0  0  0
    9.9130  -15.6958   26.2648 C   0  0  1  0  0  0  0  0  0  0  0  0
   10.9126  -16.8413   26.1735 N   0  0  0  0  0  0  0  0  0  0  0  0
   10.5737  -17.5596   24.9627 C   0  0  0  0  0  0  0  0  0  0  0  0
   10.8282  -17.7848   27.2946 O   0  0  0  0  0  0  0  0  0  0  0  0
   11.7482  -17.8110   28.3270 O   0  0  0  0  0  0  0  0  0  0  0  0
  2  1  1  0
  3  2  2  0
  4  2  1  0
  5  4  1  0
  6  5  1  0
  6  7  1  0
  8  7  1  0
  8  9  1  6
 10  8  1  0
 11 10  2  0
 12 13  1  0
 14 13  1  6
 14 15  1  0
 15 10  1  0
 16 14  1  0
 16 23  1  0
 17 16  2  0
 19 18  1  0
 20 19  1  0
 22 21  1  6
 21 20  1  0
 22 23  1  0
 22 24  1  0
 24 25  1  0
 26 24  2  0
M  END
$$$$
