RSM.pdb
     RDKit          3D

 26 25  0  0  1  0  0  0  0  0999 V2000
    7.6326  -14.2485   19.7069 N   0  0  0  0  0  0  0  0  0  0  0  0
    8.3086  -13.4697   18.7044 C   0  0  0  0  0  0  0  0  0  0  0  0
    7.9526  -12.2530   18.4618 N   0  0  0  0  0  0  0  0  0  0  0  0
    9.3859  -14.0315   17.9620 N   0  0  0  0  0  0  0  0  0  0  0  0
   10.2999  -14.9205   18.6047 C   0  0  0  0  0  0  0  0  0  0  0  0
    9.9739  -16.3496   18.2354 C   0  0  0  0  0  0  0  0  0  0  0  0
    9.5819  -17.1877   19.4043 C   0  0  0  0  0  0  0  0  0  0  0  0
   10.5814  -17.1289   20.5369 C   0  0  2  0  0  0  0  0  0  0  0  0
   11.3757  -18.3136   20.6388 N   0  0  0  0  0  0  0  0  0  0  0  0
    9.8552  -16.9126   21.8398 C   0  0  0  0  0  0  0  0  0  0  0  0
    9.4995  -15.7861   22.2223 O   0  0  0  0  0  0  0  0  0  0  0  0
    8.3350  -11.6750   17.7017 O   0  0  0  0  0  0  0  0  0  0  0  0
   10.0901  -19.7159   24.7721 C   0  0  0  0  0  0  0  0  0  0  0  0
    8.8011  -19.2670   24.5517 C   0  0  1  0  0  0  0  0  0  0  0  0
    8.8021  -17.8872   23.8818 N   0  0  0  0  0  0  0  0  0  0  0  0
    9.5611  -18.0273   22.6692 C   0  0  0  0  0  0  0  0  0  0  0  0
    9.4720  -16.9062   24.7530 O   0  0  0  0  0  0  0  0  0  0  0  0
   10.6976  -16.6465   24.6228 C   0  0  0  0  0  0  0  0  0  0  0  0
    6.7224  -11.8077   25.9928 S   0  0  0  0  0  0  0  0  0  0  0  0
    8.0820  -11.4921   27.1660 C   0  0  0  0  0  0  0  0  0  0  0  0
    8.6723  -13.1217   27.7436 C   0  0  0  0  0  0  0  0  0  0  0  0
    8.2227  -14.1866   26.7802 C   0  0  1  0  0  0  0  0  0  0  0  0
    9.3176  -15.2196   26.5487 N   0  0  0  0  0  0  0  0  0  0  0  0
    8.7101  -16.2586   25.7434 C   0  0  0  0  0  0  0  0  0  0  0  0
    9.8110  -15.8391   27.7844 O   0  0  0  0  0  0  0  0  0  0  0  0
    9.5908  -17.1676   28.1002 O   0  0  0  0  0  0  0  0  0  0  0  0
  2  1  1  0
  3  2  2  0
  4  2  1  0
  5  4  1  0
  6  5  1  0
  6  7  1  0
  8  7  1  0
  8  9  1  1
 10  8  1  0
 11 10  2  0
 12 13  1  0
 14 13  1  6
 14 15  1  0
 15 10  1  0
 16 14  1  0
 16 23  1  0
 17 16  2  0
 19 18  1  0
 20 19  1  0
 22 21  1  6
 21 20  1  0
 22 23  1  0
 22 24  1  0
 24 25  1  0
 26 24  2  0
M  END
$$$$
