RSM.pdb
     RDKit          3D

 26 25  0  0  1  0  0  0  0  0999 V2000
   12.5357  -13.3483   19.8887 N   0  0  0  0  0  0  0  0  0  0  0  0
   13.0875  -14.4538   19.1526 C   0  0  0  0  0  0  0  0  0  0  0  0
   14.0626  -15.1480   19.6353 N   0  0  0  0  0  0  0  0  0  0  0  0
   12.5633  -14.8009   17.8750 N   0  0  0  0  0  0  0  0  0  0  0  0
   11.2285  -14.4270   17.5329 C   0  0  0  0  0  0  0  0  0  0  0  0
   10.6272  -13.5932   18.6412 C   0  0  0  0  0  0  0  0  0  0  0  0
    9.8991  -14.4012   19.6607 C   0  0  0  0  0  0  0  0  0  0  0  0
    8.4170  -14.5087   19.3827 C   0  0  2  0  0  0  0  0  0  0  0  0
    7.9004  -13.3765   18.6784 N   0  0  0  0  0  0  0  0  0  0  0  0
    7.6696  -14.6595   20.6828 C   0  0  0  0  0  0  0  0  0  0  0  0
    7.4943  -13.7086   21.4618 O   0  0  0  0  0  0  0  0  0  0  0  0
   14.4958  -15.9517   19.1614 O   0  0  0  0  0  0  0  0  0  0  0  0
    6.4425  -18.2703   21.1174 C   0  0  0  0  0  0  0  0  0  0  0  0
    6.6452  -17.8126   22.4062 C   0  0  2  0  0  0  0  0  0  0  0  0
    6.9739  -16.3144   22.4166 N   0  0  0  0  0  0  0  0  0  0  0  0
    7.1419  -15.9281   21.0424 C   0  0  0  0  0  0  0  0  0  0  0  0
    8.2389  -16.0826   23.1351 O   0  0  0  0  0  0  0  0  0  0  0  0
    9.1097  -15.2910   22.6859 C   0  0  0  0  0  0  0  0  0  0  0  0
    6.1477  -11.4077   26.7952 S   0  0  0  0  0  0  0  0  0  0  0  0
    6.8941  -13.0086   27.2479 C   0  0  0  0  0  0  0  0  0  0  0  0
    7.6340  -13.6972   25.7261 C   0  0  0  0  0  0  0  0  0  0  0  0
    7.2789  -15.1549   25.6127 C   0  0  2  0  0  0  0  0  0  0  0  0
    8.5273  -16.0269   25.5860 N   0  0  0  0  0  0  0  0  0  0  0  0
    8.4589  -16.7687   24.3441 C   0  0  0  0  0  0  0  0  0  0  0  0
    8.5898  -16.9966   26.6860 O   0  0  0  0  0  0  0  0  0  0  0  0
    9.7001  -17.1436   27.4974 O   0  0  0  0  0  0  0  0  0  0  0  0
  2  1  1  0
  3  2  2  0
  4  2  1  0
  5  4  1  0
  6  5  1  0
  6  7  1  0
  8  7  1  0
  8  9  1  1
 10  8  1  0
 11 10  2  0
 12 13  1  0
 14 13  1  6
 14 15  1  0
 15 10  1  0
 16 14  1  0
 16 23  1  0
 17 16  2  0
 19 18  1  0
 20 19  1  0
 22 21  1  6
 21 20  1  0
 22 23  1  0
 22 24  1  0
 24 25  1  0
 26 24  2  0
M  END
$$$$
