RSM.pdb
     RDKit          3D

 26 25  0  0  1  0  0  0  0  0999 V2000
   10.7280  -13.1619   19.3962 N   0  0  0  0  0  0  0  0  0  0  0  0
    9.4849  -13.1152   18.6744 C   0  0  0  0  0  0  0  0  0  0  0  0
    9.4596  -13.2615   17.3922 N   0  0  0  0  0  0  0  0  0  0  0  0
    8.2582  -12.9070   19.3666 N   0  0  0  0  0  0  0  0  0  0  0  0
    7.8806  -13.7947   20.4192 C   0  0  0  0  0  0  0  0  0  0  0  0
    7.5946  -15.1683   19.8566 C   0  0  0  0  0  0  0  0  0  0  0  0
    6.5174  -15.8943   20.5879 C   0  0  0  0  0  0  0  0  0  0  0  0
    6.9718  -17.2246   21.1437 C   0  0  2  0  0  0  0  0  0  0  0  0
    6.2821  -18.3343   20.5624 N   0  0  0  0  0  0  0  0  0  0  0  0
    6.7631  -17.2457   22.6362 C   0  0  0  0  0  0  0  0  0  0  0  0
    5.7229  -17.6826   23.1548 O   0  0  0  0  0  0  0  0  0  0  0  0
    8.6154  -13.1677   16.8120 O   0  0  0  0  0  0  0  0  0  0  0  0
    8.2047  -18.9603   26.3174 C   0  0  0  0  0  0  0  0  0  0  0  0
    8.0317  -18.5724   25.0016 C   0  0  1  0  0  0  0  0  0  0  0  0
    7.8070  -17.0588   24.8954 N   0  0  0  0  0  0  0  0  0  0  0  0
    7.7834  -16.7513   23.4915 C   0  0  0  0  0  0  0  0  0  0  0  0
    8.9291  -16.3392   25.5224 O   0  0  0  0  0  0  0  0  0  0  0  0
   10.0690  -16.3130   24.9872 C   0  0  0  0  0  0  0  0  0  0  0  0
    5.5266  -11.4944   26.9998 S   0  0  0  0  0  0  0  0  0  0  0  0
    7.0264  -11.8619   27.9694 C   0  0  0  0  0  0  0  0  0  0  0  0
    7.8587  -13.2646   27.1465 C   0  0  0  0  0  0  0  0  0  0  0  0
    9.0653  -13.6705   27.9486 C   0  0  2  0  0  0  0  0  0  0  0  0
    9.7579  -14.8783   27.3312 N   0  0  0  0  0  0  0  0  0  0  0  0
    8.7019  -15.6753   26.7424 C   0  0  0  0  0  0  0  0  0  0  0  0
   10.4607  -15.7160   28.3103 O   0  0  0  0  0  0  0  0  0  0  0  0
   11.6632  -15.3507   28.8878 O   0  0  0  0  0  0  0  0  0  0  0  0
  2  1  1  0
  3  2  2  0
  4  2  1  0
  5  4  1  0
  6  5  1  0
  6  7  1  0
  8  7  1  0
  8  9  1  6
 10  8  1  0
 11 10  2  0
 12 13  1  0
 14 13  1  6
 14 15  1  0
 15 10  1  0
 16 14  1  0
 16 23  1  0
 17 16  2  0
 19 18  1  0
 20 19  1  0
 22 21  1  6
 21 20  1  0
 22 23  1  0
 22 24  1  0
 24 25  1  0
 26 24  2  0
M  END
$$$$
