WDR.pdb
     RDKit          3D

 34 35  0  0  1  0  0  0  0  0999 V2000
-562129.0000-625119.312580057.6406 N   0  0  0  0  0  0  0  0  0  0  0  0
-562130.3125-625120.125080057.7969 C   0  0  1  0  0  0  0  0  0  0  0  0
-562131.6250-625119.250080057.2188 C   0  0  0  0  0  0  0  0  0  0  0  0
-562133.0000-625119.812580057.1328 C   0  0  0  0  0  0  0  0  0  0  0  0
-562134.1250-625119.437580056.7031 C   0  0  0  0  0  0  0  0  0  0  0  0
-562134.6875-625120.437580057.2891 N   0  0  0  0  0  0  0  0  0  0  0  0
-562134.4375-625121.375080057.5000 C   0  0  0  0  0  0  0  0  0  0  0  0
-562135.0625-625122.562580058.0859 C   0  0  0  0  0  0  0  0  0  0  0  0
-562134.0000-625123.562580058.6250 C   0  0  0  0  0  0  0  0  0  0  0  0
-562133.0625-625123.312580058.9141 C   0  0  0  0  0  0  0  0  0  0  0  0
-562132.1250-625122.125080058.3984 C   0  0  0  0  0  0  0  0  0  0  0  0
-562133.1875-625121.062580057.8047 C   0  0  0  0  0  0  0  0  0  0  0  0
-562130.3750-625121.437580057.1641 C   0  0  0  0  0  0  0  0  0  0  0  0
-562130.0000-625121.187580056.0000 O   0  0  0  0  0  0  0  0  0  0  0  0
-562130.2500-625122.562580057.9844 N   0  0  0  0  0  0  0  0  0  0  0  0
-562128.9375-625123.437580057.8672 C   0  0  1  0  0  0  0  0  0  0  0  0
-562127.8750-625122.687580057.9219 C   0  0  0  0  0  0  0  0  0  0  0  0
-562126.7500-625122.750080058.7734 C   0  0  0  0  0  0  0  0  0  0  0  0
-562127.0000-625122.375080059.9297 O   0  0  0  0  0  0  0  0  0  0  0  0
-562128.8125-625124.437580058.7344 C   0  0  0  0  0  0  0  0  0  0  0  0
-562127.9375-625125.375080058.7734 O   0  0  0  0  0  0  0  0  0  0  0  0
-562125.6875-625123.812580058.5938 O   0  0  0  0  0  0  0  0  0  0  0  0
-562131.5625-625130.437580060.2656 N   0  0  0  0  0  0  0  0  0  0  0  0
-562131.1875-625129.062580059.5859 C   0  0  0  0  0  0  0  0  0  0  0  0
-562131.3125-625129.000080058.3828 N   0  0  0  0  0  0  0  0  0  0  0  0
-562129.6875-625129.125080059.9922 N   0  0  0  0  0  0  0  0  0  0  0  0
-562129.5000-625127.687580059.9844 C   0  0  0  0  0  0  0  0  0  0  0  0
-562130.3125-625127.312580058.7500 C   0  0  0  0  0  0  0  0  0  0  0  0
-562131.1250-625126.500080059.1562 C   0  0  0  0  0  0  0  0  0  0  0  0
-562131.1250-625125.250080060.0078 C   0  0  2  0  0  0  0  0  0  0  0  0
-562129.8125-625124.562580059.9531 N   0  0  0  0  0  0  0  0  0  0  0  0
-562131.4375-625125.375080061.3594 C   0  0  0  0  0  0  0  0  0  0  0  0
-562131.2500-625124.437580062.2734 O   0  0  0  0  0  0  0  0  0  0  0  0
-562132.5000-625126.187580061.7656 O   0  0  0  0  0  0  0  0  0  0  0  0
  2  1  1  6
  2  3  1  0
  3  4  1  0
  4  5  2  0
  5  6  1  0
  7  6  1  0
  8  7  2  0
  9  8  1  0
 10 11  1  0
 10  9  2  0
 11 12  2  0
 12  4  1  0
 12  7  1  0
 13  2  1  0
 13 14  2  0
 15 13  1  0
 16 15  1  0
 16 17  1  1
 18 17  1  0
 19 18  2  0
 20 21  2  0
 20 16  1  0
 22 18  1  0
 23 24  1  0
 24 25  2  0
 26 27  1  0
 26 24  1  0
 27 28  1  0
 29 28  1  0
 30 31  1  0
 30 29  1  1
 31 20  1  0
 32 30  1  0
 33 32  1  0
 34 32  2  0
M  END
$$$$
