WDR.pdb
     RDKit          3D

 34 35  0  0  1  0  0  0  0  0999 V2000
    6.4231  -18.0651   24.7840 N   0  0  0  0  0  0  0  0  0  0  0  0
    7.2359  -16.9056   24.5173 C   0  0  1  0  0  0  0  0  0  0  0  0
    7.7903  -16.3788   25.8050 C   0  0  0  0  0  0  0  0  0  0  0  0
    7.0416  -15.1604   26.1933 C   0  0  0  0  0  0  0  0  0  0  0  0
    5.7992  -15.1172   26.8367 C   0  0  0  0  0  0  0  0  0  0  0  0
    5.4441  -13.8444   27.0675 N   0  0  0  0  0  0  0  0  0  0  0  0
    6.4158  -13.0456   26.5946 C   0  0  0  0  0  0  0  0  0  0  0  0
    6.4897  -11.6523   26.5994 C   0  0  0  0  0  0  0  0  0  0  0  0
    7.5830  -11.0301   26.0468 C   0  0  0  0  0  0  0  0  0  0  0  0
    8.5687  -11.8226   25.5056 C   0  0  0  0  0  0  0  0  0  0  0  0
    8.4992  -13.2156   25.4991 C   0  0  0  0  0  0  0  0  0  0  0  0
    7.4059  -13.8274   26.0535 C   0  0  0  0  0  0  0  0  0  0  0  0
    8.3134  -17.2753   23.5580 C   0  0  0  0  0  0  0  0  0  0  0  0
    8.8058  -18.4250   23.6338 O   0  0  0  0  0  0  0  0  0  0  0  0
    8.8223  -16.4048   22.5565 N   0  0  0  0  0  0  0  0  0  0  0  0
   10.0171  -16.6854   21.8094 C   0  0  1  0  0  0  0  0  0  0  0  0
   10.0511  -15.7764   20.5767 C   0  0  0  0  0  0  0  0  0  0  0  0
    9.0740  -16.1902   19.5468 C   0  0  0  0  0  0  0  0  0  0  0  0
    8.9575  -17.3747   19.1434 O   0  0  0  0  0  0  0  0  0  0  0  0
   11.2553  -16.4959   22.6316 C   0  0  0  0  0  0  0  0  0  0  0  0
   11.4904  -15.3663   23.1210 O   0  0  0  0  0  0  0  0  0  0  0  0
    8.2390  -15.2352   18.9901 O   0  0  0  0  0  0  0  0  0  0  0  0
   12.8883  -22.6026   22.3850 N   0  0  0  0  0  0  0  0  0  0  0  0
   14.2985  -22.8038   22.3970 C   0  0  0  0  0  0  0  0  0  0  0  0
   14.8426  -23.6469   21.5679 N   0  0  0  0  0  0  0  0  0  0  0  0
   15.1617  -22.1162   23.2865 N   0  0  0  0  0  0  0  0  0  0  0  0
   14.6292  -21.0996   24.1907 C   0  0  0  0  0  0  0  0  0  0  0  0
   14.2748  -19.8881   23.3644 C   0  0  0  0  0  0  0  0  0  0  0  0
   13.7988  -18.7934   24.2461 C   0  0  0  0  0  0  0  0  0  0  0  0
   13.3838  -17.5295   23.5973 C   0  0  2  0  0  0  0  0  0  0  0  0
   12.1633  -17.5531   22.8706 N   0  0  0  0  0  0  0  0  0  0  0  0
   14.5655  -16.9852   22.8761 C   0  0  0  0  0  0  0  0  0  0  0  0
   14.5061  -16.9194   21.4959 O   0  0  0  0  0  0  0  0  0  0  0  0
   15.5710  -16.6015   23.4692 O   0  0  0  0  0  0  0  0  0  0  0  0
  2  1  1  1
  2  3  1  0
  3  4  1  0
  4  5  2  0
  5  6  1  0
  7  6  1  0
  8  7  2  0
  9  8  1  0
 10 11  1  0
 10  9  2  0
 11 12  2  0
 12  4  1  0
 12  7  1  0
 13  2  1  0
 13 14  2  0
 15 13  1  0
 16 15  1  0
 16 17  1  6
 18 17  1  0
 19 18  2  0
 20 21  2  0
 20 16  1  0
 22 18  1  0
 23 24  1  0
 24 25  2  0
 26 27  1  0
 26 24  1  0
 27 28  1  0
 29 28  1  0
 30 31  1  0
 30 29  1  6
 31 20  1  0
 32 30  1  0
 33 32  1  0
 34 32  2  0
M  END
$$$$
