WDR.pdb
     RDKit          3D

 34 35  0  0  1  0  0  0  0  0999 V2000
    8.1044  -17.9074   22.6288 N   0  0  0  0  0  0  0  0  0  0  0  0
    9.1562  -17.5850   21.6983 C   0  0  1  0  0  0  0  0  0  0  0  0
    9.6963  -16.2231   22.0092 C   0  0  0  0  0  0  0  0  0  0  0  0
    8.7081  -15.2016   21.5898 C   0  0  0  0  0  0  0  0  0  0  0  0
    7.6016  -14.7630   22.3264 C   0  0  0  0  0  0  0  0  0  0  0  0
    6.9520  -13.8016   21.6531 N   0  0  0  0  0  0  0  0  0  0  0  0
    7.5970  -13.5932   20.4929 C   0  0  0  0  0  0  0  0  0  0  0  0
    7.2924  -12.7004   19.4648 C   0  0  0  0  0  0  0  0  0  0  0  0
    8.0899  -12.6571   18.3467 C   0  0  0  0  0  0  0  0  0  0  0  0
    9.1679  -13.5100   18.2924 C   0  0  0  0  0  0  0  0  0  0  0  0
    9.4764  -14.4036   19.3179 C   0  0  0  0  0  0  0  0  0  0  0  0
    8.6764  -14.4388   20.4295 C   0  0  0  0  0  0  0  0  0  0  0  0
   10.2122  -18.6324   21.7734 C   0  0  0  0  0  0  0  0  0  0  0  0
   10.4559  -19.1496   22.8883 O   0  0  0  0  0  0  0  0  0  0  0  0
   10.9654  -19.0865   20.6572 N   0  0  0  0  0  0  0  0  0  0  0  0
   12.1858  -19.8336   20.7884 C   0  0  1  0  0  0  0  0  0  0  0  0
   12.6429  -20.2773   19.3951 C   0  0  0  0  0  0  0  0  0  0  0  0
   13.7648  -21.2388   19.4521 C   0  0  0  0  0  0  0  0  0  0  0  0
   13.9714  -22.0001   20.4305 O   0  0  0  0  0  0  0  0  0  0  0  0
   13.2636  -19.0412   21.4632 C   0  0  0  0  0  0  0  0  0  0  0  0
   14.2640  -19.6439   21.9177 O   0  0  0  0  0  0  0  0  0  0  0  0
   14.6399  -21.3152   18.3808 O   0  0  0  0  0  0  0  0  0  0  0  0
   17.5069  -14.2983   16.0548 N   0  0  0  0  0  0  0  0  0  0  0  0
   17.0248  -14.0425   17.3707 C   0  0  0  0  0  0  0  0  0  0  0  0
   17.2130  -12.8763   17.9173 N   0  0  0  0  0  0  0  0  0  0  0  0
   16.3332  -15.0157   18.1346 N   0  0  0  0  0  0  0  0  0  0  0  0
   15.7152  -14.6503   19.4070 C   0  0  0  0  0  0  0  0  0  0  0  0
   15.1612  -15.9086   20.0283 C   0  0  0  0  0  0  0  0  0  0  0  0
   14.5632  -15.6012   21.3512 C   0  0  0  0  0  0  0  0  0  0  0  0
   14.1256  -16.7453   22.1821 C   0  0  2  0  0  0  0  0  0  0  0  0
   13.1842  -17.6362   21.6007 N   0  0  0  0  0  0  0  0  0  0  0  0
   13.7823  -16.2169   23.5296 C   0  0  0  0  0  0  0  0  0  0  0  0
   14.7839  -15.5977   24.2551 O   0  0  0  0  0  0  0  0  0  0  0  0
   12.6518  -16.3173   24.0004 O   0  0  0  0  0  0  0  0  0  0  0  0
  2  1  1  1
  2  3  1  0
  3  4  1  0
  4  5  2  0
  5  6  1  0
  7  6  1  0
  8  7  2  0
  9  8  1  0
 10 11  1  0
 10  9  2  0
 11 12  2  0
 12  4  1  0
 12  7  1  0
 13  2  1  0
 13 14  2  0
 15 13  1  0
 16 15  1  0
 16 17  1  6
 18 17  1  0
 19 18  2  0
 20 21  2  0
 20 16  1  0
 22 18  1  0
 23 24  1  0
 24 25  2  0
 26 27  1  0
 26 24  1  0
 27 28  1  0
 29 28  1  0
 30 31  1  0
 30 29  1  6
 31 20  1  0
 32 30  1  0
 33 32  1  0
 34 32  2  0
M  END
$$$$
