WDR.pdb
     RDKit          3D

 34 35  0  0  1  0  0  0  0  0999 V2000
    6.6256  -17.5058   19.9247 N   0  0  0  0  0  0  0  0  0  0  0  0
    7.5390  -16.7885   20.7774 C   0  0  1  0  0  0  0  0  0  0  0  0
    6.8167  -16.3286   22.0062 C   0  0  0  0  0  0  0  0  0  0  0  0
    7.1161  -14.8959   22.2376 C   0  0  0  0  0  0  0  0  0  0  0  0
    7.4373  -13.9451   21.2618 C   0  0  0  0  0  0  0  0  0  0  0  0
    7.6060  -12.7415   21.8296 N   0  0  0  0  0  0  0  0  0  0  0  0
    7.4062  -12.8700   23.1522 C   0  0  0  0  0  0  0  0  0  0  0  0
    7.4791  -11.8990   24.1515 C   0  0  0  0  0  0  0  0  0  0  0  0
    7.2452  -12.2532   25.4584 C   0  0  0  0  0  0  0  0  0  0  0  0
    6.9459  -13.5694   25.7243 C   0  0  0  0  0  0  0  0  0  0  0  0
    6.8716  -14.5431   24.7285 C   0  0  0  0  0  0  0  0  0  0  0  0
    7.1051  -14.1805   23.4280 C   0  0  0  0  0  0  0  0  0  0  0  0
    8.6927  -17.6704   21.1079 C   0  0  0  0  0  0  0  0  0  0  0  0
    8.7396  -18.8069   20.5828 O   0  0  0  0  0  0  0  0  0  0  0  0
    9.7499  -17.3050   21.9846 N   0  0  0  0  0  0  0  0  0  0  0  0
   11.1368  -17.4904   21.6578 C   0  0  1  0  0  0  0  0  0  0  0  0
   11.4075  -16.8612   20.2874 C   0  0  0  0  0  0  0  0  0  0  0  0
   12.6040  -17.4332   19.6335 C   0  0  0  0  0  0  0  0  0  0  0  0
   13.7729  -17.2593   20.0613 O   0  0  0  0  0  0  0  0  0  0  0  0
   12.0450  -16.8984   22.6921 C   0  0  0  0  0  0  0  0  0  0  0  0
   13.2737  -16.8342   22.4538 O   0  0  0  0  0  0  0  0  0  0  0  0
   12.4438  -18.2010   18.4917 O   0  0  0  0  0  0  0  0  0  0  0  0
    9.7221  -13.0488   29.0206 N   0  0  0  0  0  0  0  0  0  0  0  0
   10.2072  -14.3355   29.3923 C   0  0  0  0  0  0  0  0  0  0  0  0
   11.1686  -14.4419   30.2632 N   0  0  0  0  0  0  0  0  0  0  0  0
    9.6840  -15.5362   28.8500 N   0  0  0  0  0  0  0  0  0  0  0  0
    9.6531  -15.7388   27.4035 C   0  0  0  0  0  0  0  0  0  0  0  0
    9.8969  -17.2038   27.1382 C   0  0  0  0  0  0  0  0  0  0  0  0
   10.1562  -17.4222   25.6934 C   0  0  0  0  0  0  0  0  0  0  0  0
   11.5003  -17.0705   25.1830 C   0  0  2  0  0  0  0  0  0  0  0  0
   11.5559  -16.4111   23.9260 N   0  0  0  0  0  0  0  0  0  0  0  0
   12.3661  -18.2710   25.3323 C   0  0  0  0  0  0  0  0  0  0  0  0
   13.5066  -18.1527   26.1055 O   0  0  0  0  0  0  0  0  0  0  0  0
   12.0939  -19.3417   24.7943 O   0  0  0  0  0  0  0  0  0  0  0  0
  2  1  1  6
  2  3  1  0
  3  4  1  0
  4  5  2  0
  5  6  1  0
  7  6  1  0
  8  7  2  0
  9  8  1  0
 10 11  1  0
 10  9  2  0
 11 12  2  0
 12  4  1  0
 12  7  1  0
 13  2  1  0
 13 14  2  0
 15 13  1  0
 16 15  1  0
 16 17  1  6
 18 17  1  0
 19 18  2  0
 20 21  2  0
 20 16  1  0
 22 18  1  0
 23 24  1  0
 24 25  2  0
 26 27  1  0
 26 24  1  0
 27 28  1  0
 29 28  1  0
 30 31  1  0
 30 29  1  6
 31 20  1  0
 32 30  1  0
 33 32  1  0
 34 32  2  0
M  END
$$$$
