WDR.pdb
     RDKit          3D

 34 35  0  0  1  0  0  0  0  0999 V2000
    8.2408  -16.8848   24.5746 N   0  0  0  0  0  0  0  0  0  0  0  0
    9.2679  -15.8924   24.7657 C   0  0  1  0  0  0  0  0  0  0  0  0
    9.2333  -15.4059   26.1817 C   0  0  0  0  0  0  0  0  0  0  0  0
    7.9478  -14.7098   26.4246 C   0  0  0  0  0  0  0  0  0  0  0  0
    6.7153  -15.3122   26.7029 C   0  0  0  0  0  0  0  0  0  0  0  0
    5.7793  -14.3730   26.9062 N   0  0  0  0  0  0  0  0  0  0  0  0
    6.3578  -13.1678   26.7696 C   0  0  0  0  0  0  0  0  0  0  0  0
    5.7865  -11.8998   26.8816 C   0  0  0  0  0  0  0  0  0  0  0  0
    6.5677  -10.7857   26.6908 C   0  0  0  0  0  0  0  0  0  0  0  0
    7.8973  -10.9758   26.3932 C   0  0  0  0  0  0  0  0  0  0  0  0
    8.4726  -12.2414   26.2808 C   0  0  0  0  0  0  0  0  0  0  0  0
    7.6862  -13.3466   26.4739 C   0  0  0  0  0  0  0  0  0  0  0  0
   10.5887  -16.4829   24.4127 C   0  0  0  0  0  0  0  0  0  0  0  0
   11.6114  -15.7725   24.5503 O   0  0  0  0  0  0  0  0  0  0  0  0
   10.7659  -17.8069   23.9277 N   0  0  0  0  0  0  0  0  0  0  0  0
   12.0036  -18.2763   23.3687 C   0  0  1  0  0  0  0  0  0  0  0  0
   12.0412  -19.8044   23.4713 C   0  0  0  0  0  0  0  0  0  0  0  0
   11.8407  -20.2792   24.8573 C   0  0  0  0  0  0  0  0  0  0  0  0
   12.4865  -19.8335   25.8390 O   0  0  0  0  0  0  0  0  0  0  0  0
   12.1803  -17.8446   21.9449 C   0  0  0  0  0  0  0  0  0  0  0  0
   13.1976  -18.2239   21.3188 O   0  0  0  0  0  0  0  0  0  0  0  0
   10.8974  -21.2641   25.1006 O   0  0  0  0  0  0  0  0  0  0  0  0
    8.4556  -15.1189   16.2039 N   0  0  0  0  0  0  0  0  0  0  0  0
    8.4411  -13.7006   16.3366 C   0  0  0  0  0  0  0  0  0  0  0  0
    7.4995  -13.0036   15.7693 N   0  0  0  0  0  0  0  0  0  0  0  0
    9.4228  -12.9912   17.0730 N   0  0  0  0  0  0  0  0  0  0  0  0
    9.8119  -13.4429   18.4068 C   0  0  0  0  0  0  0  0  0  0  0  0
   10.2875  -14.8699   18.2894 C   0  0  0  0  0  0  0  0  0  0  0  0
   10.1886  -15.5482   19.6056 C   0  0  0  0  0  0  0  0  0  0  0  0
   11.3689  -16.3129   20.0670 C   0  0  2  0  0  0  0  0  0  0  0  0
   11.2337  -17.0240   21.2893 N   0  0  0  0  0  0  0  0  0  0  0  0
   12.5541  -15.4209   19.9552 C   0  0  0  0  0  0  0  0  0  0  0  0
   13.1002  -14.9228   21.1242 O   0  0  0  0  0  0  0  0  0  0  0  0
   13.0466  -15.1246   18.8692 O   0  0  0  0  0  0  0  0  0  0  0  0
  2  1  1  1
  2  3  1  0
  3  4  1  0
  4  5  2  0
  5  6  1  0
  7  6  1  0
  8  7  2  0
  9  8  1  0
 10 11  1  0
 10  9  2  0
 11 12  2  0
 12  4  1  0
 12  7  1  0
 13  2  1  0
 13 14  2  0
 15 13  1  0
 16 15  1  0
 16 17  1  6
 18 17  1  0
 19 18  2  0
 20 21  2  0
 20 16  1  0
 22 18  1  0
 23 24  1  0
 24 25  2  0
 26 27  1  0
 26 24  1  0
 27 28  1  0
 29 28  1  0
 30 31  1  0
 30 29  1  1
 31 20  1  0
 32 30  1  0
 33 32  1  0
 34 32  2  0
M  END
$$$$
