WDR.pdb
     RDKit          3D

 34 35  0  0  1  0  0  0  0  0999 V2000
    7.0266  -17.4388   23.9647 N   0  0  0  0  0  0  0  0  0  0  0  0
    8.2177  -16.6291   24.0066 C   0  0  1  0  0  0  0  0  0  0  0  0
    8.3687  -16.0352   25.3731 C   0  0  0  0  0  0  0  0  0  0  0  0
    7.2841  -15.0505   25.5970 C   0  0  0  0  0  0  0  0  0  0  0  0
    5.9743  -15.3334   26.0017 C   0  0  0  0  0  0  0  0  0  0  0  0
    5.2795  -14.1945   26.1416 N   0  0  0  0  0  0  0  0  0  0  0  0
    6.0923  -13.1677   25.8404 C   0  0  0  0  0  0  0  0  0  0  0  0
    5.8168  -11.7999   25.8344 C   0  0  0  0  0  0  0  0  0  0  0  0
    6.8035  -10.9118   25.4801 C   0  0  0  0  0  0  0  0  0  0  0  0
    8.0360  -11.4210   25.1419 C   0  0  0  0  0  0  0  0  0  0  0  0
    8.3158  -12.7874   25.1470 C   0  0  0  0  0  0  0  0  0  0  0  0
    7.3262  -13.6654   25.5029 C   0  0  0  0  0  0  0  0  0  0  0  0
    9.3906  -17.4668   23.6316 C   0  0  0  0  0  0  0  0  0  0  0  0
    9.5969  -18.5206   24.2770 O   0  0  0  0  0  0  0  0  0  0  0  0
   10.2959  -17.1474   22.5837 N   0  0  0  0  0  0  0  0  0  0  0  0
   11.6836  -17.5191   22.6082 C   0  0  1  0  0  0  0  0  0  0  0  0
   12.3786  -16.9052   21.3887 C   0  0  0  0  0  0  0  0  0  0  0  0
   11.8613  -17.4492   20.1147 C   0  0  0  0  0  0  0  0  0  0  0  0
   11.5211  -18.6497   19.9652 O   0  0  0  0  0  0  0  0  0  0  0  0
   12.3632  -17.0830   23.8703 C   0  0  0  0  0  0  0  0  0  0  0  0
   11.8553  -16.1550   24.5422 O   0  0  0  0  0  0  0  0  0  0  0  0
   11.7403  -16.6049   19.0231 O   0  0  0  0  0  0  0  0  0  0  0  0
   11.6647  -21.6714   29.2089 N   0  0  0  0  0  0  0  0  0  0  0  0
   12.1485  -20.7362   30.1683 C   0  0  0  0  0  0  0  0  0  0  0  0
   11.9069  -20.9186   31.4342 N   0  0  0  0  0  0  0  0  0  0  0  0
   12.8986  -19.5889   29.8073 N   0  0  0  0  0  0  0  0  0  0  0  0
   12.6503  -18.9176   28.5336 C   0  0  0  0  0  0  0  0  0  0  0  0
   13.0848  -19.8493   27.4294 C   0  0  0  0  0  0  0  0  0  0  0  0
   12.8189  -19.2294   26.1076 C   0  0  0  0  0  0  0  0  0  0  0  0
   13.8301  -18.2838   25.5841 C   0  0  2  0  0  0  0  0  0  0  0  0
   13.5581  -17.6879   24.3236 N   0  0  0  0  0  0  0  0  0  0  0  0
   15.1642  -18.9252   25.7317 C   0  0  0  0  0  0  0  0  0  0  0  0
   15.5719  -19.8027   24.7435 O   0  0  0  0  0  0  0  0  0  0  0  0
   15.8948  -18.6959   26.6927 O   0  0  0  0  0  0  0  0  0  0  0  0
  2  1  1  1
  2  3  1  0
  3  4  1  0
  4  5  2  0
  5  6  1  0
  7  6  1  0
  8  7  2  0
  9  8  1  0
 10 11  1  0
 10  9  2  0
 11 12  2  0
 12  4  1  0
 12  7  1  0
 13  2  1  0
 13 14  2  0
 15 13  1  0
 16 15  1  0
 16 17  1  6
 18 17  1  0
 19 18  2  0
 20 21  2  0
 20 16  1  0
 22 18  1  0
 23 24  1  0
 24 25  2  0
 26 27  1  0
 26 24  1  0
 27 28  1  0
 29 28  1  0
 30 31  1  0
 30 29  1  6
 31 20  1  0
 32 30  1  0
 33 32  1  0
 34 32  2  0
M  END
$$$$
