WDR.pdb
     RDKit          3D

 34 35  0  0  1  0  0  0  0  0999 V2000
    8.0056  -17.9408   21.7291 N   0  0  0  0  0  0  0  0  0  0  0  0
    9.2925  -17.2972   21.8054 C   0  0  1  0  0  0  0  0  0  0  0  0
    9.1555  -15.9938   22.5303 C   0  0  0  0  0  0  0  0  0  0  0  0
    8.3833  -15.0493   21.6891 C   0  0  0  0  0  0  0  0  0  0  0  0
    7.0353  -14.7066   21.8462 C   0  0  0  0  0  0  0  0  0  0  0  0
    6.6826  -13.7929   20.9296 N   0  0  0  0  0  0  0  0  0  0  0  0
    7.7586  -13.5227   20.1712 C   0  0  0  0  0  0  0  0  0  0  0  0
    7.8767  -12.6466   19.0917 C   0  0  0  0  0  0  0  0  0  0  0  0
    9.0824  -12.5296   18.4432 C   0  0  0  0  0  0  0  0  0  0  0  0
   10.1329  -13.2942   18.8955 C   0  0  0  0  0  0  0  0  0  0  0  0
   10.0193  -14.1708   19.9744 C   0  0  0  0  0  0  0  0  0  0  0  0
    8.8136  -14.2800   20.6158 C   0  0  0  0  0  0  0  0  0  0  0  0
   10.2556  -18.2105   22.4807 C   0  0  0  0  0  0  0  0  0  0  0  0
   10.2530  -18.2540   23.7329 O   0  0  0  0  0  0  0  0  0  0  0  0
   11.1824  -19.0407   21.7941 N   0  0  0  0  0  0  0  0  0  0  0  0
   12.3280  -19.6285   22.4317 C   0  0  1  0  0  0  0  0  0  0  0  0
   12.5092  -21.0540   21.9002 C   0  0  0  0  0  0  0  0  0  0  0  0
   11.6458  -21.3317   20.7324 C   0  0  0  0  0  0  0  0  0  0  0  0
   10.3973  -21.4526   20.8112 O   0  0  0  0  0  0  0  0  0  0  0  0
   13.5733  -18.8260   22.2074 C   0  0  0  0  0  0  0  0  0  0  0  0
   14.5215  -19.3440   21.5723 O   0  0  0  0  0  0  0  0  0  0  0  0
   12.2283  -21.4681   19.4829 O   0  0  0  0  0  0  0  0  0  0  0  0
   15.0640  -13.3041   16.6641 N   0  0  0  0  0  0  0  0  0  0  0  0
   15.7295  -13.7737   17.8328 C   0  0  0  0  0  0  0  0  0  0  0  0
   16.8283  -13.2005   18.2305 N   0  0  0  0  0  0  0  0  0  0  0  0
   15.2450  -14.8594   18.6047 N   0  0  0  0  0  0  0  0  0  0  0  0
   14.7501  -14.6356   19.9610 C   0  0  0  0  0  0  0  0  0  0  0  0
   15.6192  -15.4287   20.9054 C   0  0  0  0  0  0  0  0  0  0  0  0
   15.0113  -15.4496   22.2589 C   0  0  0  0  0  0  0  0  0  0  0  0
   14.8955  -16.7627   22.9322 C   0  0  2  0  0  0  0  0  0  0  0  0
   13.7081  -17.5040   22.6904 N   0  0  0  0  0  0  0  0  0  0  0  0
   15.2692  -16.5706   24.3592 C   0  0  0  0  0  0  0  0  0  0  0  0
   16.5391  -16.0983   24.6365 O   0  0  0  0  0  0  0  0  0  0  0  0
   14.4892  -16.8177   25.2760 O   0  0  0  0  0  0  0  0  0  0  0  0
  2  1  1  1
  2  3  1  0
  3  4  1  0
  4  5  2  0
  5  6  1  0
  7  6  1  0
  8  7  2  0
  9  8  1  0
 10 11  1  0
 10  9  2  0
 11 12  2  0
 12  4  1  0
 12  7  1  0
 13  2  1  0
 13 14  2  0
 15 13  1  0
 16 15  1  0
 16 17  1  6
 18 17  1  0
 19 18  2  0
 20 21  2  0
 20 16  1  0
 22 18  1  0
 23 24  1  0
 24 25  2  0
 26 27  1  0
 26 24  1  0
 27 28  1  0
 29 28  1  0
 30 31  1  0
 30 29  1  1
 31 20  1  0
 32 30  1  0
 33 32  1  0
 34 32  2  0
M  END
$$$$
