WDR.pdb
     RDKit          3D

 34 35  0  0  1  0  0  0  0  0999 V2000
    8.0242  -17.7235   19.2203 N   0  0  0  0  0  0  0  0  0  0  0  0
    8.1258  -16.8456   20.3583 C   0  0  1  0  0  0  0  0  0  0  0  0
    6.7717  -16.6680   20.9731 C   0  0  0  0  0  0  0  0  0  0  0  0
    6.8686  -15.6975   22.0887 C   0  0  0  0  0  0  0  0  0  0  0  0
    6.7744  -15.9882   23.4547 C   0  0  0  0  0  0  0  0  0  0  0  0
    6.9489  -14.8710   24.1763 N   0  0  0  0  0  0  0  0  0  0  0  0
    7.1550  -13.8506   23.3264 C   0  0  0  0  0  0  0  0  0  0  0  0
    7.3760  -12.5020   23.6078 C   0  0  0  0  0  0  0  0  0  0  0  0
    7.5549  -11.6149   22.5739 C   0  0  0  0  0  0  0  0  0  0  0  0
    7.5063  -12.1057   21.2897 C   0  0  0  0  0  0  0  0  0  0  0  0
    7.2861  -13.4530   21.0039 C   0  0  0  0  0  0  0  0  0  0  0  0
    7.1100  -14.3305   22.0412 C   0  0  0  0  0  0  0  0  0  0  0  0
    9.1058  -17.4123   21.3259 C   0  0  0  0  0  0  0  0  0  0  0  0
    8.9493  -18.5968   21.7030 O   0  0  0  0  0  0  0  0  0  0  0  0
   10.2132  -16.6937   21.8522 N   0  0  0  0  0  0  0  0  0  0  0  0
   11.2021  -17.2942   22.7042 C   0  0  1  0  0  0  0  0  0  0  0  0
   12.4952  -16.4782   22.6078 C   0  0  0  0  0  0  0  0  0  0  0  0
   13.2182  -16.7196   21.3407 C   0  0  0  0  0  0  0  0  0  0  0  0
   13.6912  -15.7971   20.6302 O   0  0  0  0  0  0  0  0  0  0  0  0
   10.7443  -17.3796   24.1283 C   0  0  0  0  0  0  0  0  0  0  0  0
   10.2546  -16.3607   24.6693 O   0  0  0  0  0  0  0  0  0  0  0  0
   13.3904  -18.0225   20.9026 O   0  0  0  0  0  0  0  0  0  0  0  0
   12.1531  -22.7027   30.7004 N   0  0  0  0  0  0  0  0  0  0  0  0
   10.7518  -22.9303   30.5824 C   0  0  0  0  0  0  0  0  0  0  0  0
   10.2137  -23.9773   31.1376 N   0  0  0  0  0  0  0  0  0  0  0  0
    9.8915  -22.0539   29.8747 N   0  0  0  0  0  0  0  0  0  0  0  0
   10.0445  -21.8772   28.4326 C   0  0  0  0  0  0  0  0  0  0  0  0
   10.2870  -20.4112   28.1711 C   0  0  0  0  0  0  0  0  0  0  0  0
   10.5008  -20.1824   26.7206 C   0  0  0  0  0  0  0  0  0  0  0  0
   10.6106  -18.7793   26.2623 C   0  0  2  0  0  0  0  0  0  0  0  0
   10.8484  -18.5747   24.8768 N   0  0  0  0  0  0  0  0  0  0  0  0
   11.5273  -18.0719   27.1962 C   0  0  0  0  0  0  0  0  0  0  0  0
   12.8611  -17.9757   26.8430 O   0  0  0  0  0  0  0  0  0  0  0  0
   11.1319  -17.5822   28.2515 O   0  0  0  0  0  0  0  0  0  0  0  0
  2  1  1  6
  2  3  1  0
  3  4  1  0
  4  5  2  0
  5  6  1  0
  7  6  1  0
  8  7  2  0
  9  8  1  0
 10 11  1  0
 10  9  2  0
 11 12  2  0
 12  4  1  0
 12  7  1  0
 13  2  1  0
 13 14  2  0
 15 13  1  0
 16 15  1  0
 16 17  1  1
 18 17  1  0
 19 18  2  0
 20 21  2  0
 20 16  1  0
 22 18  1  0
 23 24  1  0
 24 25  2  0
 26 27  1  0
 26 24  1  0
 27 28  1  0
 29 28  1  0
 30 31  1  0
 30 29  1  6
 31 20  1  0
 32 30  1  0
 33 32  1  0
 34 32  2  0
M  END
$$$$
