WDR.pdb
     RDKit          3D

 34 35  0  0  1  0  0  0  0  0999 V2000
    7.6565  -17.2513   24.2903 N   0  0  0  0  0  0  0  0  0  0  0  0
    8.5387  -16.1143   24.2190 C   0  0  1  0  0  0  0  0  0  0  0  0
    8.8451  -15.6338   25.6040 C   0  0  0  0  0  0  0  0  0  0  0  0
    7.6565  -14.9377   26.1504 C   0  0  0  0  0  0  0  0  0  0  0  0
    6.4696  -15.5371   26.5878 C   0  0  0  0  0  0  0  0  0  0  0  0
    5.6278  -14.6035   27.0562 N   0  0  0  0  0  0  0  0  0  0  0  0
    6.2242  -13.4049   26.9402 C   0  0  0  0  0  0  0  0  0  0  0  0
    5.7386  -12.1434   27.2859 C   0  0  0  0  0  0  0  0  0  0  0  0
    6.5204  -11.0342   27.0702 C   0  0  0  0  0  0  0  0  0  0  0  0
    7.7646  -11.2226   26.5142 C   0  0  0  0  0  0  0  0  0  0  0  0
    8.2541  -12.4818   26.1676 C   0  0  0  0  0  0  0  0  0  0  0  0
    7.4680  -13.5822   26.3875 C   0  0  0  0  0  0  0  0  0  0  0  0
    9.7720  -16.4992   23.4783 C   0  0  0  0  0  0  0  0  0  0  0  0
   10.6433  -15.6208   23.2807 O   0  0  0  0  0  0  0  0  0  0  0  0
   10.0268  -17.8049   22.9785 N   0  0  0  0  0  0  0  0  0  0  0  0
   11.1004  -18.0992   22.0700 C   0  0  1  0  0  0  0  0  0  0  0  0
   11.2362  -19.6201   21.9454 C   0  0  0  0  0  0  0  0  0  0  0  0
   12.4914  -20.0185   21.2731 C   0  0  0  0  0  0  0  0  0  0  0  0
   12.7534  -21.2040   20.9483 O   0  0  0  0  0  0  0  0  0  0  0  0
   10.8847  -17.4825   20.7216 C   0  0  0  0  0  0  0  0  0  0  0  0
   10.9633  -18.2093   19.7036 O   0  0  0  0  0  0  0  0  0  0  0  0
   13.4349  -19.0473   20.9806 O   0  0  0  0  0  0  0  0  0  0  0  0
    9.2037  -15.1398   15.2077 N   0  0  0  0  0  0  0  0  0  0  0  0
    8.2864  -14.1453   15.6534 C   0  0  0  0  0  0  0  0  0  0  0  0
    7.8382  -13.2526   14.8189 N   0  0  0  0  0  0  0  0  0  0  0  0
    7.8243  -14.0757   16.9916 N   0  0  0  0  0  0  0  0  0  0  0  0
    8.2828  -13.0056   17.8743 C   0  0  0  0  0  0  0  0  0  0  0  0
    9.7378  -13.2562   18.1849 C   0  0  0  0  0  0  0  0  0  0  0  0
    9.8622  -14.0315   19.4441 C   0  0  0  0  0  0  0  0  0  0  0  0
   10.5571  -15.3364   19.3734 C   0  0  2  0  0  0  0  0  0  0  0  0
   10.5952  -16.1074   20.5660 N   0  0  0  0  0  0  0  0  0  0  0  0
   11.8620  -15.1146   18.6944 C   0  0  0  0  0  0  0  0  0  0  0  0
   12.8503  -14.4484   19.3960 O   0  0  0  0  0  0  0  0  0  0  0  0
   12.0744  -15.5030   17.5481 O   0  0  0  0  0  0  0  0  0  0  0  0
  2  1  1  1
  2  3  1  0
  3  4  1  0
  4  5  2  0
  5  6  1  0
  7  6  1  0
  8  7  2  0
  9  8  1  0
 10 11  1  0
 10  9  2  0
 11 12  2  0
 12  4  1  0
 12  7  1  0
 13  2  1  0
 13 14  2  0
 15 13  1  0
 16 15  1  0
 16 17  1  6
 18 17  1  0
 19 18  2  0
 20 21  2  0
 20 16  1  0
 22 18  1  0
 23 24  1  0
 24 25  2  0
 26 27  1  0
 26 24  1  0
 27 28  1  0
 29 28  1  0
 30 31  1  0
 30 29  1  1
 31 20  1  0
 32 30  1  0
 33 32  1  0
 34 32  2  0
M  END
$$$$
