WDR.pdb
     RDKit          3D

 34 35  0  0  1  0  0  0  0  0999 V2000
    8.4419  -17.5618   19.9961 N   0  0  0  0  0  0  0  0  0  0  0  0
    8.6762  -16.6865   21.1163 C   0  0  1  0  0  0  0  0  0  0  0  0
    7.3637  -16.2366   21.6802 C   0  0  0  0  0  0  0  0  0  0  0  0
    7.2514  -14.7662   21.5350 C   0  0  0  0  0  0  0  0  0  0  0  0
    7.2332  -14.0480   20.3336 C   0  0  0  0  0  0  0  0  0  0  0  0
    7.0797  -12.7387   20.5821 N   0  0  0  0  0  0  0  0  0  0  0  0
    6.9968  -12.5714   21.9129 C   0  0  0  0  0  0  0  0  0  0  0  0
    6.8417  -11.3929   22.6435 C   0  0  0  0  0  0  0  0  0  0  0  0
    6.7900  -11.4483   24.0155 C   0  0  0  0  0  0  0  0  0  0  0  0
    6.8959  -12.6826   24.6137 C   0  0  0  0  0  0  0  0  0  0  0  0
    7.0505  -13.8632   23.8872 C   0  0  0  0  0  0  0  0  0  0  0  0
    7.0997  -13.7983   22.5195 C   0  0  0  0  0  0  0  0  0  0  0  0
    9.5012  -17.4009   22.1297 C   0  0  0  0  0  0  0  0  0  0  0  0
    9.0631  -18.4769   22.5989 O   0  0  0  0  0  0  0  0  0  0  0  0
   10.7598  -16.9398   22.6017 N   0  0  0  0  0  0  0  0  0  0  0  0
   11.4241  -17.5084   23.7418 C   0  0  1  0  0  0  0  0  0  0  0  0
   12.8664  -16.9934   23.7781 C   0  0  0  0  0  0  0  0  0  0  0  0
   13.6124  -17.3256   22.5454 C   0  0  0  0  0  0  0  0  0  0  0  0
   13.4111  -18.3716   21.8785 O   0  0  0  0  0  0  0  0  0  0  0  0
   10.7218  -17.1837   25.0250 C   0  0  0  0  0  0  0  0  0  0  0  0
   10.7910  -16.0159   25.4746 O   0  0  0  0  0  0  0  0  0  0  0  0
   14.5847  -16.4495   22.0913 O   0  0  0  0  0  0  0  0  0  0  0  0
    5.6952  -24.2894   28.1386 N   0  0  0  0  0  0  0  0  0  0  0  0
    5.5716  -22.9123   27.7955 C   0  0  0  0  0  0  0  0  0  0  0  0
    4.4168  -22.3193   27.8904 N   0  0  0  0  0  0  0  0  0  0  0  0
    6.6680  -22.1348   27.3455 N   0  0  0  0  0  0  0  0  0  0  0  0
    6.6459  -20.6807   27.4847 C   0  0  0  0  0  0  0  0  0  0  0  0
    7.9483  -20.1460   26.9424 C   0  0  0  0  0  0  0  0  0  0  0  0
    8.0155  -18.6767   27.1389 C   0  0  0  0  0  0  0  0  0  0  0  0
    9.3406  -18.0320   27.0008 C   0  0  2  0  0  0  0  0  0  0  0  0
    9.9847  -18.1551   25.7406 N   0  0  0  0  0  0  0  0  0  0  0  0
   10.1503  -18.4093   28.1903 C   0  0  0  0  0  0  0  0  0  0  0  0
    9.7010  -18.0018   29.4332 O   0  0  0  0  0  0  0  0  0  0  0  0
   11.1872  -19.0613   28.0926 O   0  0  0  0  0  0  0  0  0  0  0  0
  2  1  1  6
  2  3  1  0
  3  4  1  0
  4  5  2  0
  5  6  1  0
  7  6  1  0
  8  7  2  0
  9  8  1  0
 10 11  1  0
 10  9  2  0
 11 12  2  0
 12  4  1  0
 12  7  1  0
 13  2  1  0
 13 14  2  0
 15 13  1  0
 16 15  1  0
 16 17  1  1
 18 17  1  0
 19 18  2  0
 20 21  2  0
 20 16  1  0
 22 18  1  0
 23 24  1  0
 24 25  2  0
 26 27  1  0
 26 24  1  0
 27 28  1  0
 29 28  1  0
 30 31  1  0
 30 29  1  6
 31 20  1  0
 32 30  1  0
 33 32  1  0
 34 32  2  0
M  END
$$$$
