RWL.pdb
     RDKit          3D

 34 35  0  0  1  0  0  0  0  0999 V2000
    8.0996  -15.7012   15.0373 N   0  0  0  0  0  0  0  0  0  0  0  0
    8.0509  -14.3409   15.4545 C   0  0  0  0  0  0  0  0  0  0  0  0
    8.0516  -13.4421   14.5310 N   0  0  0  0  0  0  0  0  0  0  0  0
    8.0044  -13.9907   16.8194 N   0  0  0  0  0  0  0  0  0  0  0  0
    7.8902  -15.1029   17.7855 C   0  0  0  0  0  0  0  0  0  0  0  0
    7.7812  -14.5325   19.1676 C   0  0  0  0  0  0  0  0  0  0  0  0
    7.6898  -15.5489   20.2615 C   0  0  0  0  0  0  0  0  0  0  0  0
    8.9689  -16.1027   20.7812 C   0  0  2  0  0  0  0  0  0  0  0  0
    9.0764  -17.4923   20.4998 N   0  0  0  0  0  0  0  0  0  0  0  0
    9.2060  -15.7741   22.2105 C   0  0  0  0  0  0  0  0  0  0  0  0
    9.3666  -14.5699   22.5477 O   0  0  0  0  0  0  0  0  0  0  0  0
    8.0648  -12.4422   14.7915 N   0  0  0  0  0  0  0  0  0  0  0  0
    9.2681  -16.7368   23.2554 C   0  0  1  0  0  0  0  0  0  0  0  0
    9.3980  -16.3444   24.6388 C   0  0  0  0  0  0  0  0  0  0  0  0
    8.2609  -16.8555   25.5006 C   0  0  0  0  0  0  0  0  0  0  0  0
    7.0846  -15.9736   25.3932 C   0  0  0  0  0  0  0  0  0  0  0  0
    5.7602  -16.3073   25.1531 N   0  0  0  0  0  0  0  0  0  0  0  0
    5.0243  -15.1926   25.1399 C   0  0  0  0  0  0  0  0  0  0  0  0
    5.7810  -14.1111   25.3594 C   0  0  0  0  0  0  0  0  0  0  0  0
    5.4945  -12.7655   25.4387 C   0  0  0  0  0  0  0  0  0  0  0  0
    6.5290  -11.8875   25.6836 C   0  0  0  0  0  0  0  0  0  0  0  0
    7.8357  -12.3354   25.8486 C   0  0  0  0  0  0  0  0  0  0  0  0
    8.1097  -13.6958   25.7657 C   0  0  0  0  0  0  0  0  0  0  0  0
    7.0674  -14.5803   25.5192 C   0  0  0  0  0  0  0  0  0  0  0  0
   10.6526  -16.7993   25.2555 O   0  0  0  0  0  0  0  0  0  0  0  0
   11.0870  -17.9375   24.9487 C   0  0  0  0  0  0  0  0  0  0  0  0
   10.8441  -13.8303   28.0187 C   0  0  2  0  0  0  0  0  0  0  0  0
   10.2472  -15.1483   28.4237 C   0  0  0  0  0  0  0  0  0  0  0  0
    9.5185  -14.9485   29.7356 C   0  0  0  0  0  0  0  0  0  0  0  0
   11.2557  -16.2294   28.6248 C   0  0  2  0  0  0  0  0  0  0  0  0
   12.0244  -16.5958   27.3817 N   0  0  0  0  0  0  0  0  0  0  0  0
   11.4278  -16.0520   26.1819 C   0  0  0  0  0  0  0  0  0  0  0  0
   12.0030  -18.0704   27.2787 O   0  0  0  0  0  0  0  0  0  0  0  0
   11.3557  -18.6001   26.3461 O   0  0  0  0  0  0  0  0  0  0  0  0
  2  1  1  0
  2  4  1  0
  3  2  2  0
  5  4  1  0
  6  5  1  0
  7  6  1  0
  8  7  1  0
  8  9  1  1
 10  8  1  0
 10 11  2  0
 12 10  1  0
 13 12  1  0
 13 14  1  1
 15 14  1  0
 16 15  2  0
 17 16  1  0
 18 17  1  0
 18 23  2  0
 19 20  2  0
 19 18  1  0
 20 21  1  0
 21 22  2  0
 23 22  1  0
 23 15  1  0
 24 13  1  0
 25 24  2  0
 27 26  1  6
 27 29  1  0
 28 27  1  0
 30 29  1  1
 30 31  1  0
 30 32  1  0
 31 24  1  0
 32 34  1  0
 33 32  2  0
M  END
$$$$
