RWL.pdb
     RDKit          3D

 34 35  0  0  1  0  0  0  0  0999 V2000
    6.9772  -17.1824   15.7466 N   0  0  0  0  0  0  0  0  0  0  0  0
    8.1346  -16.4313   15.3963 C   0  0  0  0  0  0  0  0  0  0  0  0
    8.5368  -16.5062   14.1742 N   0  0  0  0  0  0  0  0  0  0  0  0
    8.8133  -15.6392   16.3448 N   0  0  0  0  0  0  0  0  0  0  0  0
    8.4467  -15.8424   17.7618 C   0  0  0  0  0  0  0  0  0  0  0  0
    9.6808  -16.2027   18.5328 C   0  0  0  0  0  0  0  0  0  0  0  0
    9.6668  -15.7893   19.9705 C   0  0  0  0  0  0  0  0  0  0  0  0
    9.9949  -16.8323   20.9792 C   0  0  2  0  0  0  0  0  0  0  0  0
    9.1875  -17.9890   20.8002 N   0  0  0  0  0  0  0  0  0  0  0  0
    9.9806  -16.3175   22.3727 C   0  0  0  0  0  0  0  0  0  0  0  0
   10.6776  -15.3081   22.6641 O   0  0  0  0  0  0  0  0  0  0  0  0
    9.3657  -15.9665   13.8753 N   0  0  0  0  0  0  0  0  0  0  0  0
    9.2228  -16.8896   23.4315 C   0  0  1  0  0  0  0  0  0  0  0  0
    9.2380  -16.3282   24.7617 C   0  0  0  0  0  0  0  0  0  0  0  0
    7.9542  -16.5927   25.5224 C   0  0  0  0  0  0  0  0  0  0  0  0
    6.8815  -15.6883   25.0706 C   0  0  0  0  0  0  0  0  0  0  0  0
    5.7200  -15.9878   24.3746 N   0  0  0  0  0  0  0  0  0  0  0  0
    5.0281  -14.8629   24.1747 C   0  0  0  0  0  0  0  0  0  0  0  0
    5.6597  -13.8069   24.7004 C   0  0  0  0  0  0  0  0  0  0  0  0
    5.3575  -12.4634   24.7537 C   0  0  0  0  0  0  0  0  0  0  0  0
    6.2425  -11.6162   25.3863 C   0  0  0  0  0  0  0  0  0  0  0  0
    7.4162  -12.0926   25.9613 C   0  0  0  0  0  0  0  0  0  0  0  0
    7.7079  -13.4504   25.8995 C   0  0  0  0  0  0  0  0  0  0  0  0
    6.8163  -14.3039   25.2623 C   0  0  0  0  0  0  0  0  0  0  0  0
   10.3468  -16.8261   25.5887 O   0  0  0  0  0  0  0  0  0  0  0  0
   11.3573  -17.2951   25.0079 C   0  0  0  0  0  0  0  0  0  0  0  0
   11.3227  -14.1429   28.4805 C   0  0  1  0  0  0  0  0  0  0  0  0
   10.7071  -15.2757   29.2520 C   0  0  0  0  0  0  0  0  0  0  0  0
   10.6303  -14.8637   30.7069 C   0  0  0  0  0  0  0  0  0  0  0  0
   11.4864  -16.5461   29.1807 C   0  0  2  0  0  0  0  0  0  0  0  0
   11.5287  -17.1683   27.8091 N   0  0  0  0  0  0  0  0  0  0  0  0
   10.3749  -16.8225   27.0088 C   0  0  0  0  0  0  0  0  0  0  0  0
   11.5344  -18.6344   27.9990 O   0  0  0  0  0  0  0  0  0  0  0  0
   10.5240  -19.2904   27.6558 O   0  0  0  0  0  0  0  0  0  0  0  0
  2  1  1  0
  2  4  1  0
  3  2  2  0
  5  4  1  0
  6  5  1  0
  7  6  1  0
  8  7  1  0
  8  9  1  1
 10  8  1  0
 10 11  2  0
 12 10  1  0
 13 12  1  0
 13 14  1  1
 15 14  1  0
 16 15  2  0
 17 16  1  0
 18 17  1  0
 18 23  2  0
 19 20  2  0
 19 18  1  0
 20 21  1  0
 21 22  2  0
 23 22  1  0
 23 15  1  0
 24 13  1  0
 25 24  2  0
 27 26  1  6
 27 29  1  0
 28 27  1  0
 30 29  1  6
 30 31  1  0
 30 32  1  0
 31 24  1  0
 32 34  1  0
 33 32  2  0
M  END
$$$$
