RWL.pdb
     RDKit          3D

 34 35  0  0  1  0  0  0  0  0999 V2000
    8.3521  -14.8676   13.7913 N   0  0  0  0  0  0  0  0  0  0  0  0
    8.4609  -13.5722   14.3716 C   0  0  0  0  0  0  0  0  0  0  0  0
    8.0810  -12.5721   13.6531 N   0  0  0  0  0  0  0  0  0  0  0  0
    8.9631  -13.3897   15.6763 N   0  0  0  0  0  0  0  0  0  0  0  0
    9.4375  -14.5999   16.3790 C   0  0  0  0  0  0  0  0  0  0  0  0
    8.3291  -15.1222   17.2428 C   0  0  0  0  0  0  0  0  0  0  0  0
    8.5011  -14.8693   18.7072 C   0  0  0  0  0  0  0  0  0  0  0  0
    9.0546  -15.9805   19.5269 C   0  0  2  0  0  0  0  0  0  0  0  0
    8.7749  -17.2421   18.9337 N   0  0  0  0  0  0  0  0  0  0  0  0
    8.6551  -15.9031   20.9556 C   0  0  0  0  0  0  0  0  0  0  0  0
    7.4430  -16.0578   21.2661 O   0  0  0  0  0  0  0  0  0  0  0  0
    8.2353  -11.6094   13.9955 N   0  0  0  0  0  0  0  0  0  0  0  0
    9.5566  -15.6612   22.0287 C   0  0  1  0  0  0  0  0  0  0  0  0
    9.1066  -15.6197   23.3999 C   0  0  0  0  0  0  0  0  0  0  0  0
    7.7632  -16.2936   23.5950 C   0  0  0  0  0  0  0  0  0  0  0  0
    6.9061  -15.5028   24.4965 C   0  0  0  0  0  0  0  0  0  0  0  0
    5.8053  -15.9083   25.2360 N   0  0  0  0  0  0  0  0  0  0  0  0
    5.3292  -14.8640   25.9193 C   0  0  0  0  0  0  0  0  0  0  0  0
    6.0510  -13.7622   25.6835 C   0  0  0  0  0  0  0  0  0  0  0  0
    5.9608  -12.4654   26.1407 C   0  0  0  0  0  0  0  0  0  0  0  0
    6.8853  -11.5457   25.6927 C   0  0  0  0  0  0  0  0  0  0  0  0
    7.8903  -11.9045   24.8002 C   0  0  0  0  0  0  0  0  0  0  0  0
    7.9687  -13.2165   24.3474 C   0  0  0  0  0  0  0  0  0  0  0  0
    7.0375  -14.1430   24.7990 C   0  0  0  0  0  0  0  0  0  0  0  0
   10.0495  -16.2442   24.3391 O   0  0  0  0  0  0  0  0  0  0  0  0
   10.6468  -17.2879   23.9755 C   0  0  0  0  0  0  0  0  0  0  0  0
   10.7705  -13.4306   27.4585 C   0  0  1  0  0  0  0  0  0  0  0  0
   10.2586  -14.6897   28.0987 C   0  0  0  0  0  0  0  0  0  0  0  0
   10.0851  -14.4249   29.5792 C   0  0  0  0  0  0  0  0  0  0  0  0
   11.1768  -15.8564   27.9509 C   0  0  2  0  0  0  0  0  0  0  0  0
   11.3146  -16.3587   26.5370 N   0  0  0  0  0  0  0  0  0  0  0  0
   10.3482  -15.7624   25.6415 C   0  0  0  0  0  0  0  0  0  0  0  0
   11.0728  -17.8167   26.5703 O   0  0  0  0  0  0  0  0  0  0  0  0
    9.9996  -18.2605   26.1009 O   0  0  0  0  0  0  0  0  0  0  0  0
  2  1  1  0
  2  4  1  0
  3  2  2  0
  5  4  1  0
  6  5  1  0
  7  6  1  0
  8  7  1  0
  8  9  1  6
 10  8  1  0
 10 11  2  0
 12 10  1  0
 13 12  1  0
 13 14  1  1
 15 14  1  0
 16 15  2  0
 17 16  1  0
 18 17  1  0
 18 23  2  0
 19 20  2  0
 19 18  1  0
 20 21  1  0
 21 22  2  0
 23 22  1  0
 23 15  1  0
 24 13  1  0
 25 24  2  0
 27 26  1  6
 27 29  1  0
 28 27  1  0
 30 29  1  6
 30 31  1  0
 30 32  1  0
 31 24  1  0
 32 34  1  0
 33 32  2  0
M  END
$$$$
