RWL.pdb
     RDKit          3D

 34 35  0  0  1  0  0  0  0  0999 V2000
    7.2177  -14.8777   15.4495 N   0  0  0  0  0  0  0  0  0  0  0  0
    7.6190  -13.5967   15.9236 C   0  0  0  0  0  0  0  0  0  0  0  0
    7.8167  -12.6784   15.0412 N   0  0  0  0  0  0  0  0  0  0  0  0
    7.7935  -13.3423   17.2992 N   0  0  0  0  0  0  0  0  0  0  0  0
    7.6123  -14.4889   18.2134 C   0  0  0  0  0  0  0  0  0  0  0  0
    8.9402  -15.1512   18.4264 C   0  0  0  0  0  0  0  0  0  0  0  0
    9.5316  -14.9510   19.7858 C   0  0  0  0  0  0  0  0  0  0  0  0
    9.8314  -16.1716   20.5815 C   0  0  2  0  0  0  0  0  0  0  0  0
    8.9712  -17.2437   20.2172 N   0  0  0  0  0  0  0  0  0  0  0  0
    9.8640  -15.9176   22.0448 C   0  0  0  0  0  0  0  0  0  0  0  0
   10.5613  -14.9661   22.4899 O   0  0  0  0  0  0  0  0  0  0  0  0
    8.0938  -11.7302   15.3442 N   0  0  0  0  0  0  0  0  0  0  0  0
    9.1521  -16.6843   23.0082 C   0  0  1  0  0  0  0  0  0  0  0  0
    9.1272  -16.3118   24.4029 C   0  0  0  0  0  0  0  0  0  0  0  0
    7.9097  -16.8472   25.1293 C   0  0  0  0  0  0  0  0  0  0  0  0
    6.8604  -15.8162   25.2240 C   0  0  0  0  0  0  0  0  0  0  0  0
    5.4837  -15.9721   25.2840 N   0  0  0  0  0  0  0  0  0  0  0  0
    4.9109  -14.7682   25.3664 C   0  0  0  0  0  0  0  0  0  0  0  0
    5.8291  -13.7948   25.3657 C   0  0  0  0  0  0  0  0  0  0  0  0
    5.7408  -12.4212   25.4322 C   0  0  0  0  0  0  0  0  0  0  0  0
    6.9075  -11.6866   25.4089 C   0  0  0  0  0  0  0  0  0  0  0  0
    8.1508  -12.3043   25.3203 C   0  0  0  0  0  0  0  0  0  0  0  0
    8.2243  -13.6909   25.2536 C   0  0  0  0  0  0  0  0  0  0  0  0
    7.0490  -14.4309   25.2774 C   0  0  0  0  0  0  0  0  0  0  0  0
   10.3130  -16.7635   25.1452 O   0  0  0  0  0  0  0  0  0  0  0  0
   11.1329  -17.5118   24.5568 C   0  0  0  0  0  0  0  0  0  0  0  0
   11.1554  -13.9459   27.9634 C   0  0  1  0  0  0  0  0  0  0  0  0
   10.9429  -15.1601   28.8222 C   0  0  0  0  0  0  0  0  0  0  0  0
   11.0920  -14.7415   30.2695 C   0  0  0  0  0  0  0  0  0  0  0  0
   11.9198  -16.2581   28.5646 C   0  0  1  0  0  0  0  0  0  0  0  0
   11.7300  -16.9559   27.2426 N   0  0  0  0  0  0  0  0  0  0  0  0
   10.6165  -16.4221   26.4902 C   0  0  0  0  0  0  0  0  0  0  0  0
   11.4462  -18.3759   27.5398 O   0  0  0  0  0  0  0  0  0  0  0  0
   10.3201  -18.8396   27.2462 O   0  0  0  0  0  0  0  0  0  0  0  0
  2  1  1  0
  2  4  1  0
  3  2  2  0
  5  4  1  0
  6  5  1  0
  7  6  1  0
  8  7  1  0
  8  9  1  1
 10  8  1  0
 10 11  2  0
 12 10  1  0
 13 12  1  0
 13 14  1  1
 15 14  1  0
 16 15  2  0
 17 16  1  0
 18 17  1  0
 18 23  2  0
 19 20  2  0
 19 18  1  0
 20 21  1  0
 21 22  2  0
 23 22  1  0
 23 15  1  0
 24 13  1  0
 25 24  2  0
 27 26  1  1
 27 29  1  0
 28 27  1  0
 30 29  1  6
 30 31  1  0
 30 32  1  0
 31 24  1  0
 32 34  1  0
 33 32  2  0
M  END
$$$$
