RWL.pdb
     RDKit          3D

 34 35  0  0  1  0  0  0  0  0999 V2000
    8.3582  -15.7125   14.2940 N   0  0  0  0  0  0  0  0  0  0  0  0
    7.9805  -14.7424   15.2651 C   0  0  0  0  0  0  0  0  0  0  0  0
    7.3988  -13.6757   14.8356 N   0  0  0  0  0  0  0  0  0  0  0  0
    8.2320  -14.9388   16.6384 N   0  0  0  0  0  0  0  0  0  0  0  0
    8.7812  -16.2535   17.0302 C   0  0  0  0  0  0  0  0  0  0  0  0
    8.9820  -16.2694   18.5157 C   0  0  0  0  0  0  0  0  0  0  0  0
   10.4049  -16.1405   18.9590 C   0  0  0  0  0  0  0  0  0  0  0  0
   10.7410  -16.6477   20.3165 C   0  0  2  0  0  0  0  0  0  0  0  0
   10.4382  -18.0320   20.4347 N   0  0  0  0  0  0  0  0  0  0  0  0
   10.1553  -15.8244   21.4056 C   0  0  0  0  0  0  0  0  0  0  0  0
   10.4444  -14.5992   21.4757 O   0  0  0  0  0  0  0  0  0  0  0  0
    7.1215  -12.9399   15.5060 N   0  0  0  0  0  0  0  0  0  0  0  0
    9.2713  -16.3235   22.4017 C   0  0  1  0  0  0  0  0  0  0  0  0
    8.7299  -15.4670   23.4303 C   0  0  0  0  0  0  0  0  0  0  0  0
    7.2839  -15.7847   23.7542 C   0  0  0  0  0  0  0  0  0  0  0  0
    6.8270  -15.0126   24.9238 C   0  0  0  0  0  0  0  0  0  0  0  0
    6.1362  -15.4486   26.0444 N   0  0  0  0  0  0  0  0  0  0  0  0
    5.9284  -14.4118   26.8604 C   0  0  0  0  0  0  0  0  0  0  0  0
    6.4438  -13.2861   26.3528 C   0  0  0  0  0  0  0  0  0  0  0  0
    6.4866  -11.9855   26.8063 C   0  0  0  0  0  0  0  0  0  0  0  0
    7.1101  -11.0374   26.0229 C   0  0  0  0  0  0  0  0  0  0  0  0
    7.6863  -11.3718   24.8017 C   0  0  0  0  0  0  0  0  0  0  0  0
    7.6352  -12.6879   24.3571 C   0  0  0  0  0  0  0  0  0  0  0  0
    7.0073  -13.6430   25.1463 C   0  0  0  0  0  0  0  0  0  0  0  0
    9.4837  -15.5267   24.6910 O   0  0  0  0  0  0  0  0  0  0  0  0
    9.6637  -14.4582   25.3269 C   0  0  0  0  0  0  0  0  0  0  0  0
   10.5883  -14.0828   27.8485 C   0  0  2  0  0  0  0  0  0  0  0  0
    9.6312  -15.2397   27.8996 C   0  0  0  0  0  0  0  0  0  0  0  0
    8.9786  -15.2471   29.2657 C   0  0  0  0  0  0  0  0  0  0  0  0
   10.2810  -16.5679   27.7000 C   0  0  2  0  0  0  0  0  0  0  0  0
   10.9655  -16.7263   26.3670 N   0  0  0  0  0  0  0  0  0  0  0  0
   10.0342  -16.7055   25.2609 C   0  0  0  0  0  0  0  0  0  0  0  0
   11.6365  -18.0436   26.3790 O   0  0  0  0  0  0  0  0  0  0  0  0
   12.5818  -18.2311   27.1792 O   0  0  0  0  0  0  0  0  0  0  0  0
  2  1  1  0
  2  4  1  0
  3  2  2  0
  5  4  1  0
  6  5  1  0
  7  6  1  0
  8  7  1  0
  8  9  1  6
 10  8  1  0
 10 11  2  0
 12 10  1  0
 13 12  1  0
 13 14  1  1
 15 14  1  0
 16 15  2  0
 17 16  1  0
 18 17  1  0
 18 23  2  0
 19 20  2  0
 19 18  1  0
 20 21  1  0
 21 22  2  0
 23 22  1  0
 23 15  1  0
 24 13  1  0
 25 24  2  0
 27 26  1  6
 27 29  1  0
 28 27  1  0
 30 29  1  6
 30 31  1  0
 30 32  1  0
 31 24  1  0
 32 34  1  0
 33 32  2  0
M  END
$$$$
