RWL.pdb
     RDKit          3D

 34 35  0  0  1  0  0  0  0  0999 V2000
    8.2200  -12.6543   15.5168 N   0  0  0  0  0  0  0  0  0  0  0  0
    8.5509  -13.8927   14.8976 C   0  0  0  0  0  0  0  0  0  0  0  0
    9.3018  -13.8450   13.8513 N   0  0  0  0  0  0  0  0  0  0  0  0
    8.0776  -15.1196   15.4058 N   0  0  0  0  0  0  0  0  0  0  0  0
    7.7827  -15.1679   16.8529 C   0  0  0  0  0  0  0  0  0  0  0  0
    8.9103  -14.5185   17.5973 C   0  0  0  0  0  0  0  0  0  0  0  0
    8.7281  -14.4517   19.0806 C   0  0  0  0  0  0  0  0  0  0  0  0
    9.3035  -15.5627   19.8853 C   0  0  2  0  0  0  0  0  0  0  0  0
    8.7676  -16.8167   19.4828 N   0  0  0  0  0  0  0  0  0  0  0  0
    9.2104  -15.3282   21.3494 C   0  0  0  0  0  0  0  0  0  0  0  0
    9.5769  -14.2176   21.8203 O   0  0  0  0  0  0  0  0  0  0  0  0
    9.6313  -14.7236   13.4186 N   0  0  0  0  0  0  0  0  0  0  0  0
    8.7283  -16.2839   22.2858 C   0  0  1  0  0  0  0  0  0  0  0  0
    8.6549  -15.9894   23.6973 C   0  0  0  0  0  0  0  0  0  0  0  0
    7.4407  -16.6074   24.3611 C   0  0  0  0  0  0  0  0  0  0  0  0
    6.6823  -15.5928   25.1149 C   0  0  0  0  0  0  0  0  0  0  0  0
    5.6604  -15.7697   26.0355 N   0  0  0  0  0  0  0  0  0  0  0  0
    5.2599  -14.5750   26.4787 C   0  0  0  0  0  0  0  0  0  0  0  0
    5.9584  -13.5878   25.9059 C   0  0  0  0  0  0  0  0  0  0  0  0
    5.9199  -12.2160   26.0307 C   0  0  0  0  0  0  0  0  0  0  0  0
    6.7979  -11.4637   25.2793 C   0  0  0  0  0  0  0  0  0  0  0  0
    7.7060  -12.0621   24.4119 C   0  0  0  0  0  0  0  0  0  0  0  0
    7.7331  -13.4471   24.2963 C   0  0  0  0  0  0  0  0  0  0  0  0
    6.8488  -14.2049   25.0534 C   0  0  0  0  0  0  0  0  0  0  0  0
    9.8381  -16.4381   24.4457 O   0  0  0  0  0  0  0  0  0  0  0  0
   10.2293  -17.6211   24.2852 C   0  0  0  0  0  0  0  0  0  0  0  0
   10.8034  -13.5916   27.8816 C   0  0  1  0  0  0  0  0  0  0  0  0
    9.9949  -14.8528   27.9955 C   0  0  0  0  0  0  0  0  0  0  0  0
    9.4395  -14.9271   29.4020 C   0  0  0  0  0  0  0  0  0  0  0  0
   10.7823  -16.0966   27.7523 C   0  0  2  0  0  0  0  0  0  0  0  0
   11.4376  -16.1574   26.3968 N   0  0  0  0  0  0  0  0  0  0  0  0
   10.5884  -15.6378   25.3479 C   0  0  0  0  0  0  0  0  0  0  0  0
   11.7048  -17.5826   26.1090 O   0  0  0  0  0  0  0  0  0  0  0  0
   12.5952  -18.1729   26.7630 O   0  0  0  0  0  0  0  0  0  0  0  0
  2  1  1  0
  2  4  1  0
  3  2  2  0
  5  4  1  0
  6  5  1  0
  7  6  1  0
  8  7  1  0
  8  9  1  1
 10  8  1  0
 10 11  2  0
 12 10  1  0
 13 12  1  0
 13 14  1  1
 15 14  1  0
 16 15  2  0
 17 16  1  0
 18 17  1  0
 18 23  2  0
 19 20  2  0
 19 18  1  0
 20 21  1  0
 21 22  2  0
 23 22  1  0
 23 15  1  0
 24 13  1  0
 25 24  2  0
 27 26  1  6
 27 29  1  0
 28 27  1  0
 30 29  1  1
 30 31  1  0
 30 32  1  0
 31 24  1  0
 32 34  1  0
 33 32  2  0
M  END
$$$$
