RWL.pdb
     RDKit          3D

 34 35  0  0  1  0  0  0  0  0999 V2000
    9.0398  -15.2932   13.9592 N   0  0  0  0  0  0  0  0  0  0  0  0
    8.7372  -14.3986   15.0245 C   0  0  0  0  0  0  0  0  0  0  0  0
    7.8122  -13.5261   14.8152 N   0  0  0  0  0  0  0  0  0  0  0  0
    9.4200  -14.4630   16.2564 N   0  0  0  0  0  0  0  0  0  0  0  0
    8.7450  -15.1910   17.3508 C   0  0  0  0  0  0  0  0  0  0  0  0
    7.8077  -14.2522   18.0490 C   0  0  0  0  0  0  0  0  0  0  0  0
    7.9887  -14.1707   19.5318 C   0  0  0  0  0  0  0  0  0  0  0  0
    8.8320  -15.2164   20.1706 C   0  0  2  0  0  0  0  0  0  0  0  0
    8.3965  -16.5193   19.8037 N   0  0  0  0  0  0  0  0  0  0  0  0
    8.9685  -15.0357   21.6388 C   0  0  0  0  0  0  0  0  0  0  0  0
    9.2727  -13.9002   22.0945 O   0  0  0  0  0  0  0  0  0  0  0  0
    7.5137  -12.9037   15.5841 N   0  0  0  0  0  0  0  0  0  0  0  0
    8.7784  -16.0707   22.5955 C   0  0  1  0  0  0  0  0  0  0  0  0
    8.8306  -15.8081   24.0143 C   0  0  0  0  0  0  0  0  0  0  0  0
    7.7098  -16.4869   24.7760 C   0  0  0  0  0  0  0  0  0  0  0  0
    6.8222  -15.4898   25.4011 C   0  0  0  0  0  0  0  0  0  0  0  0
    5.5929  -15.6760   26.0153 N   0  0  0  0  0  0  0  0  0  0  0  0
    5.1372  -14.4970   26.4472 C   0  0  0  0  0  0  0  0  0  0  0  0
    5.9954  -13.5118   26.1584 C   0  0  0  0  0  0  0  0  0  0  0  0
    5.9775  -12.1535   26.3903 C   0  0  0  0  0  0  0  0  0  0  0  0
    7.0460  -11.3990   25.9538 C   0  0  0  0  0  0  0  0  0  0  0  0
    8.1228  -11.9819   25.2937 C   0  0  0  0  0  0  0  0  0  0  0  0
    8.1269  -13.3534   25.0667 C   0  0  0  0  0  0  0  0  0  0  0  0
    7.0506  -14.1134   25.5065 C   0  0  0  0  0  0  0  0  0  0  0  0
   10.0962  -16.2250   24.6353 O   0  0  0  0  0  0  0  0  0  0  0  0
   10.9590  -16.7807   23.9105 C   0  0  0  0  0  0  0  0  0  0  0  0
   11.1893  -13.6907   27.7274 C   0  0  1  0  0  0  0  0  0  0  0  0
   10.8823  -14.9759   28.4425 C   0  0  0  0  0  0  0  0  0  0  0  0
   11.0533  -14.7374   29.9277 C   0  0  0  0  0  0  0  0  0  0  0  0
   11.7766  -16.1068   28.0586 C   0  0  2  0  0  0  0  0  0  0  0  0
   11.6504  -16.5326   26.6187 N   0  0  0  0  0  0  0  0  0  0  0  0
   10.4331  -16.0512   26.0042 C   0  0  0  0  0  0  0  0  0  0  0  0
   11.6193  -18.0105   26.6056 O   0  0  0  0  0  0  0  0  0  0  0  0
   10.5650  -18.5880   26.2533 O   0  0  0  0  0  0  0  0  0  0  0  0
  2  1  1  0
  2  4  1  0
  3  2  2  0
  5  4  1  0
  6  5  1  0
  7  6  1  0
  8  7  1  0
  8  9  1  1
 10  8  1  0
 10 11  2  0
 12 10  1  0
 13 12  1  0
 13 14  1  1
 15 14  1  0
 16 15  2  0
 17 16  1  0
 18 17  1  0
 18 23  2  0
 19 20  2  0
 19 18  1  0
 20 21  1  0
 21 22  2  0
 23 22  1  0
 23 15  1  0
 24 13  1  0
 25 24  2  0
 27 26  1  1
 27 29  1  0
 28 27  1  0
 30 29  1  6
 30 31  1  0
 30 32  1  0
 31 24  1  0
 32 34  1  0
 33 32  2  0
M  END
$$$$
