RWL.pdb
     RDKit          3D

 34 35  0  0  1  0  0  0  0  0999 V2000
    6.8079  -14.8015   14.2111 N   0  0  0  0  0  0  0  0  0  0  0  0
    7.9219  -13.9162   14.1690 C   0  0  0  0  0  0  0  0  0  0  0  0
    8.2981  -13.4990   13.0091 N   0  0  0  0  0  0  0  0  0  0  0  0
    8.5865  -13.5126   15.3450 N   0  0  0  0  0  0  0  0  0  0  0  0
    8.0207  -13.9912   16.6234 C   0  0  0  0  0  0  0  0  0  0  0  0
    8.8368  -13.4345   17.7510 C   0  0  0  0  0  0  0  0  0  0  0  0
    8.4280  -13.9004   19.1125 C   0  0  0  0  0  0  0  0  0  0  0  0
    9.3161  -14.8845   19.7875 C   0  0  2  0  0  0  0  0  0  0  0  0
    9.1015  -16.1968   19.2839 N   0  0  0  0  0  0  0  0  0  0  0  0
    9.2484  -14.8070   21.2695 C   0  0  0  0  0  0  0  0  0  0  0  0
    9.5593  -13.7294   21.8453 O   0  0  0  0  0  0  0  0  0  0  0  0
    9.0909  -12.8404   12.9357 N   0  0  0  0  0  0  0  0  0  0  0  0
    8.8505  -15.8818   22.1117 C   0  0  1  0  0  0  0  0  0  0  0  0
    8.6930  -15.7081   23.5363 C   0  0  0  0  0  0  0  0  0  0  0  0
    7.5057  -16.4698   24.0904 C   0  0  0  0  0  0  0  0  0  0  0  0
    6.6882  -15.6053   24.9605 C   0  0  0  0  0  0  0  0  0  0  0  0
    5.5739  -15.9309   25.7190 N   0  0  0  0  0  0  0  0  0  0  0  0
    5.1471  -14.8392   26.3595 C   0  0  0  0  0  0  0  0  0  0  0  0
    5.9156  -13.7810   26.0762 C   0  0  0  0  0  0  0  0  0  0  0  0
    5.8844  -12.4636   26.4792 C   0  0  0  0  0  0  0  0  0  0  0  0
    6.8464  -11.6049   25.9909 C   0  0  0  0  0  0  0  0  0  0  0  0
    7.8307  -12.0444   25.1116 C   0  0  0  0  0  0  0  0  0  0  0  0
    7.8494  -13.3762   24.7136 C   0  0  0  0  0  0  0  0  0  0  0  0
    6.8805  -14.2413   25.2057 C   0  0  0  0  0  0  0  0  0  0  0  0
    9.8756  -16.1221   24.3054 O   0  0  0  0  0  0  0  0  0  0  0  0
   10.8275  -16.6610   23.6874 C   0  0  0  0  0  0  0  0  0  0  0  0
   10.6694  -13.7733   28.0406 C   0  0  1  0  0  0  0  0  0  0  0  0
   10.1106  -15.1344   28.3445 C   0  0  0  0  0  0  0  0  0  0  0  0
    9.8953  -15.2286   29.8402 C   0  0  0  0  0  0  0  0  0  0  0  0
   11.0081  -16.2569   27.9437 C   0  0  2  0  0  0  0  0  0  0  0  0
   11.1976  -16.3947   26.4553 N   0  0  0  0  0  0  0  0  0  0  0  0
   10.0375  -15.9632   25.7075 C   0  0  0  0  0  0  0  0  0  0  0  0
   11.4161  -17.8302   26.1779 O   0  0  0  0  0  0  0  0  0  0  0  0
   12.4682  -18.3704   26.5907 O   0  0  0  0  0  0  0  0  0  0  0  0
  2  1  1  0
  2  4  1  0
  3  2  2  0
  5  4  1  0
  6  5  1  0
  7  6  1  0
  8  7  1  0
  8  9  1  1
 10  8  1  0
 10 11  2  0
 12 10  1  0
 13 12  1  0
 13 14  1  1
 15 14  1  0
 16 15  2  0
 17 16  1  0
 18 17  1  0
 18 23  2  0
 19 20  2  0
 19 18  1  0
 20 21  1  0
 21 22  2  0
 23 22  1  0
 23 15  1  0
 24 13  1  0
 25 24  2  0
 27 26  1  6
 27 29  1  0
 28 27  1  0
 30 29  1  6
 30 31  1  0
 30 32  1  0
 31 24  1  0
 32 34  1  0
 33 32  2  0
M  END
$$$$
