RWL.pdb
     RDKit          3D

 34 35  0  0  1  0  0  0  0  0999 V2000
    7.9664  -13.0008   16.3066 N   0  0  0  0  0  0  0  0  0  0  0  0
    8.0317  -14.3947   16.0244 C   0  0  0  0  0  0  0  0  0  0  0  0
    8.5612  -14.7434   14.9024 N   0  0  0  0  0  0  0  0  0  0  0  0
    7.5382  -15.3536   16.9324 N   0  0  0  0  0  0  0  0  0  0  0  0
    8.0264  -15.2615   18.3240 C   0  0  0  0  0  0  0  0  0  0  0  0
    9.4459  -14.7797   18.3066 C   0  0  0  0  0  0  0  0  0  0  0  0
   10.0812  -14.6474   19.6545 C   0  0  0  0  0  0  0  0  0  0  0  0
   10.2879  -15.8984   20.4326 C   0  0  2  0  0  0  0  0  0  0  0  0
    9.4315  -16.9353   19.9708 N   0  0  0  0  0  0  0  0  0  0  0  0
   10.2140  -15.6877   21.9013 C   0  0  0  0  0  0  0  0  0  0  0  0
   10.7902  -14.6886   22.4106 O   0  0  0  0  0  0  0  0  0  0  0  0
    8.6549  -15.7463   14.6717 N   0  0  0  0  0  0  0  0  0  0  0  0
    9.5267  -16.5479   22.8015 C   0  0  1  0  0  0  0  0  0  0  0  0
    9.3044  -16.1787   24.1796 C   0  0  0  0  0  0  0  0  0  0  0  0
    7.9079  -16.5213   24.6585 C   0  0  0  0  0  0  0  0  0  0  0  0
    7.0022  -15.3691   24.5002 C   0  0  0  0  0  0  0  0  0  0  0  0
    6.0072  -15.1617   23.5568 N   0  0  0  0  0  0  0  0  0  0  0  0
    5.4282  -13.9798   23.7849 C   0  0  0  0  0  0  0  0  0  0  0  0
    5.9788  -13.3674   24.8396 C   0  0  0  0  0  0  0  0  0  0  0  0
    5.7349  -12.1593   25.4561 C   0  0  0  0  0  0  0  0  0  0  0  0
    6.4996  -11.8148   26.5506 C   0  0  0  0  0  0  0  0  0  0  0  0
    7.4969  -12.6570   27.0316 C   0  0  0  0  0  0  0  0  0  0  0  0
    7.7317  -13.8725   26.3992 C   0  0  0  0  0  0  0  0  0  0  0  0
    6.9612  -14.2196   25.2968 C   0  0  0  0  0  0  0  0  0  0  0  0
   10.2525  -16.8096   25.1093 O   0  0  0  0  0  0  0  0  0  0  0  0
   11.0612  -17.6546   24.6507 C   0  0  0  0  0  0  0  0  0  0  0  0
   11.7907  -14.1826   28.0246 C   0  0  1  0  0  0  0  0  0  0  0  0
   10.8604  -15.0880   28.7809 C   0  0  0  0  0  0  0  0  0  0  0  0
   10.8298  -14.6283   30.2231 C   0  0  0  0  0  0  0  0  0  0  0  0
   11.2744  -16.5214   28.7701 C   0  0  2  0  0  0  0  0  0  0  0  0
   11.2916  -17.1489   27.4004 N   0  0  0  0  0  0  0  0  0  0  0  0
   10.3346  -16.5423   26.5019 C   0  0  0  0  0  0  0  0  0  0  0  0
   10.9251  -18.5709   27.5713 O   0  0  0  0  0  0  0  0  0  0  0  0
    9.8374  -18.9739   27.0984 O   0  0  0  0  0  0  0  0  0  0  0  0
  2  1  1  0
  2  4  1  0
  3  2  2  0
  5  4  1  0
  6  5  1  0
  7  6  1  0
  8  7  1  0
  8  9  1  6
 10  8  1  0
 10 11  2  0
 12 10  1  0
 13 12  1  0
 13 14  1  1
 15 14  1  0
 16 15  2  0
 17 16  1  0
 18 17  1  0
 18 23  2  0
 19 20  2  0
 19 18  1  0
 20 21  1  0
 21 22  2  0
 23 22  1  0
 23 15  1  0
 24 13  1  0
 25 24  2  0
 27 26  1  6
 27 29  1  0
 28 27  1  0
 30 29  1  6
 30 31  1  0
 30 32  1  0
 31 24  1  0
 32 34  1  0
 33 32  2  0
M  END
$$$$
