RWL.pdb
     RDKit          3D

 34 35  0  0  1  0  0  0  0  0999 V2000
    6.6386  -18.9069   15.3111 N   0  0  0  0  0  0  0  0  0  0  0  0
    7.5885  -17.9278   14.9040 C   0  0  0  0  0  0  0  0  0  0  0  0
    7.8854  -17.8818   13.6508 N   0  0  0  0  0  0  0  0  0  0  0  0
    8.1802  -17.0458   15.8312 N   0  0  0  0  0  0  0  0  0  0  0  0
    7.7458  -17.1737   17.2378 C   0  0  0  0  0  0  0  0  0  0  0  0
    8.4599  -16.1428   18.0591 C   0  0  0  0  0  0  0  0  0  0  0  0
    8.1491  -16.1791   19.5220 C   0  0  0  0  0  0  0  0  0  0  0  0
    9.1069  -16.9022   20.4011 C   0  0  2  0  0  0  0  0  0  0  0  0
    8.8494  -18.3006   20.3969 N   0  0  0  0  0  0  0  0  0  0  0  0
    9.1900  -16.3256   21.7677 C   0  0  0  0  0  0  0  0  0  0  0  0
    9.5842  -15.1368   21.9122 O   0  0  0  0  0  0  0  0  0  0  0  0
    8.5933  -17.2064   13.3181 N   0  0  0  0  0  0  0  0  0  0  0  0
    8.8515  -17.0284   22.9568 C   0  0  1  0  0  0  0  0  0  0  0  0
    8.9350  -16.4023   24.2552 C   0  0  0  0  0  0  0  0  0  0  0  0
    7.8391  -16.8604   25.1966 C   0  0  0  0  0  0  0  0  0  0  0  0
    6.7845  -15.8369   25.3107 C   0  0  0  0  0  0  0  0  0  0  0  0
    5.4076  -15.9884   25.2446 N   0  0  0  0  0  0  0  0  0  0  0  0
    4.8287  -14.7950   25.4020 C   0  0  0  0  0  0  0  0  0  0  0  0
    5.7429  -13.8329   25.5727 C   0  0  0  0  0  0  0  0  0  0  0  0
    5.6481  -12.4724   25.7702 C   0  0  0  0  0  0  0  0  0  0  0  0
    6.8120  -11.7473   25.9143 C   0  0  0  0  0  0  0  0  0  0  0  0
    8.0592  -12.3616   25.8634 C   0  0  0  0  0  0  0  0  0  0  0  0
    8.1393  -13.7349   25.6633 C   0  0  0  0  0  0  0  0  0  0  0  0
    6.9667  -14.4653   25.5184 C   0  0  0  0  0  0  0  0  0  0  0  0
   10.2189  -16.6380   24.9313 O   0  0  0  0  0  0  0  0  0  0  0  0
   11.1995  -17.0008   24.2348 C   0  0  0  0  0  0  0  0  0  0  0  0
   11.7567  -13.7486   27.6457 C   0  0  1  0  0  0  0  0  0  0  0  0
   11.1110  -14.8425   28.4480 C   0  0  0  0  0  0  0  0  0  0  0  0
   11.1274  -14.4271   29.9038 C   0  0  0  0  0  0  0  0  0  0  0  0
   11.8082  -16.1575   28.3435 C   0  0  2  0  0  0  0  0  0  0  0  0
   11.6920  -16.8122   26.9914 N   0  0  0  0  0  0  0  0  0  0  0  0
   10.4502  -16.4886   26.3248 C   0  0  0  0  0  0  0  0  0  0  0  0
   11.7278  -18.2733   27.2137 O   0  0  0  0  0  0  0  0  0  0  0  0
   12.7883  -18.7938   27.6305 O   0  0  0  0  0  0  0  0  0  0  0  0
  2  1  1  0
  2  4  1  0
  3  2  2  0
  5  4  1  0
  6  5  1  0
  7  6  1  0
  8  7  1  0
  8  9  1  1
 10  8  1  0
 10 11  2  0
 12 10  1  0
 13 12  1  0
 13 14  1  6
 15 14  1  0
 16 15  2  0
 17 16  1  0
 18 17  1  0
 18 23  2  0
 19 20  2  0
 19 18  1  0
 20 21  1  0
 21 22  2  0
 23 22  1  0
 23 15  1  0
 24 13  1  0
 25 24  2  0
 27 26  1  6
 27 29  1  0
 28 27  1  0
 30 29  1  6
 30 31  1  0
 30 32  1  0
 31 24  1  0
 32 34  1  0
 33 32  2  0
M  END
$$$$
