PAG.pdb
     RDKit          3D

 17 17  0  0  1  0  0  0  0  0999 V2000
    8.1707  -15.2815   18.2035 N   0  0  0  0  0  0  0  0  0  0  0  0
    8.0632  -15.2072   16.7393 C   0  0  0  0  0  0  0  0  0  0  0  0
    7.8269  -13.7243   16.5423 C   0  0  0  0  0  0  0  0  0  0  0  0
    8.5403  -13.0462   17.7138 C   0  0  0  0  0  0  0  0  0  0  0  0
    9.1026  -14.2111   18.4648 C   0  0  1  0  0  0  0  0  0  0  0  0
    9.2493  -13.9454   19.9203 C   0  0  0  0  0  0  0  0  0  0  0  0
   10.1899  -13.2751   20.3849 O   0  0  0  0  0  0  0  0  0  0  0  0
    6.8627  -14.3546   22.7383 C   0  0  0  0  0  0  0  0  0  0  0  0
    8.3124  -14.2500   22.2478 C   0  0  2  0  0  0  0  0  0  0  0  0
    8.2949  -14.4636   20.8393 N   0  0  0  0  0  0  0  0  0  0  0  0
    9.1954  -15.1789   22.9823 C   0  0  0  0  0  0  0  0  0  0  0  0
    9.2471  -15.0963   24.2376 O   0  0  0  0  0  0  0  0  0  0  0  0
    9.9933  -16.1637   22.3580 N   0  0  0  0  0  0  0  0  0  0  0  0
   10.7584  -17.1538   23.0926 C   0  0  0  0  0  0  0  0  0  0  0  0
   11.8996  -17.5563   22.2561 C   0  0  0  0  0  0  0  0  0  0  0  0
   12.0502  -17.0382   21.1311 O   0  0  0  0  0  0  0  0  0  0  0  0
   12.8003  -18.4943   22.6974 O   0  0  0  0  0  0  0  0  0  0  0  0
  1  2  1  0
  1  5  1  0
  2  3  1  0
  3  4  1  0
  5  6  1  1
  5  4  1  0
  6  7  2  0
  9  8  1  1
 10  9  1  0
 10  6  1  0
 11  9  1  0
 12 11  2  0
 13 11  1  0
 14 13  1  0
 15 17  1  0
 15 14  1  0
 16 15  2  0
M  END
$$$$
