PAG.pdb
     RDKit          3D

 17 17  0  0  1  0  0  0  0  0999 V2000
    9.2335  -14.5446   19.1206 N   0  0  0  0  0  0  0  0  0  0  0  0
    8.8567  -13.7669   17.9314 C   0  0  0  0  0  0  0  0  0  0  0  0
    7.4894  -13.2597   18.3398 C   0  0  0  0  0  0  0  0  0  0  0  0
    7.5454  -13.1409   19.8643 C   0  0  0  0  0  0  0  0  0  0  0  0
    8.9351  -13.6013   20.1711 C   0  0  1  0  0  0  0  0  0  0  0  0
    9.0572  -14.2150   21.5199 C   0  0  0  0  0  0  0  0  0  0  0  0
    8.7339  -13.6114   22.5596 O   0  0  0  0  0  0  0  0  0  0  0  0
    9.5095  -17.7035   22.6491 C   0  0  0  0  0  0  0  0  0  0  0  0
    9.7693  -16.2119   22.8959 C   0  0  2  0  0  0  0  0  0  0  0  0
    9.5587  -15.5392   21.6577 N   0  0  0  0  0  0  0  0  0  0  0  0
   11.1093  -15.9897   23.4764 C   0  0  0  0  0  0  0  0  0  0  0  0
   11.3539  -16.4502   24.6225 O   0  0  0  0  0  0  0  0  0  0  0  0
   12.1434  -15.2858   22.8197 N   0  0  0  0  0  0  0  0  0  0  0  0
   13.4454  -15.0444   23.4127 C   0  0  0  0  0  0  0  0  0  0  0  0
   14.4084  -15.9580   22.7786 C   0  0  0  0  0  0  0  0  0  0  0  0
   15.3225  -15.4916   22.0689 O   0  0  0  0  0  0  0  0  0  0  0  0
   14.3141  -17.3161   22.9578 O   0  0  0  0  0  0  0  0  0  0  0  0
  1  2  1  0
  1  5  1  0
  2  3  1  0
  3  4  1  0
  5  6  1  1
  5  4  1  0
  6  7  2  0
  9  8  1  6
 10  9  1  0
 10  6  1  0
 11  9  1  0
 12 11  2  0
 13 11  1  0
 14 13  1  0
 15 17  1  0
 15 14  1  0
 16 15  2  0
M  END
$$$$
