PAG.pdb
     RDKit          3D

 17 17  0  0  1  0  0  0  0  0999 V2000
    8.4344  -15.3830   18.0006 N   0  0  0  0  0  0  0  0  0  0  0  0
    8.3456  -15.3401   16.5340 C   0  0  0  0  0  0  0  0  0  0  0  0
    7.9555  -13.8939   16.3108 C   0  0  0  0  0  0  0  0  0  0  0  0
    8.5712  -13.1276   17.4834 C   0  0  0  0  0  0  0  0  0  0  0  0
    9.2415  -14.2154   18.2609 C   0  0  1  0  0  0  0  0  0  0  0  0
    9.3330  -13.9162   19.7144 C   0  0  0  0  0  0  0  0  0  0  0  0
   10.2980  -13.3061   20.2108 O   0  0  0  0  0  0  0  0  0  0  0  0
    6.7952  -14.1372   22.4338 C   0  0  0  0  0  0  0  0  0  0  0  0
    8.2655  -14.0921   21.9986 C   0  0  2  0  0  0  0  0  0  0  0  0
    8.2945  -14.3303   20.5942 N   0  0  0  0  0  0  0  0  0  0  0  0
    9.0862  -15.0379   22.7823 C   0  0  0  0  0  0  0  0  0  0  0  0
    9.1623  -14.8805   24.0292 O   0  0  0  0  0  0  0  0  0  0  0  0
    9.7977  -16.1184   22.2145 N   0  0  0  0  0  0  0  0  0  0  0  0
   10.5511  -17.0780   22.9998 C   0  0  0  0  0  0  0  0  0  0  0  0
   11.9816  -16.8486   22.7449 C   0  0  0  0  0  0  0  0  0  0  0  0
   12.3295  -15.9260   21.9804 O   0  0  0  0  0  0  0  0  0  0  0  0
   12.9378  -17.6363   23.3372 O   0  0  0  0  0  0  0  0  0  0  0  0
  1  2  1  0
  1  5  1  0
  2  3  1  0
  3  4  1  0
  5  6  1  1
  5  4  1  0
  6  7  2  0
  9  8  1  1
 10  9  1  0
 10  6  1  0
 11  9  1  0
 12 11  2  0
 13 11  1  0
 14 13  1  0
 15 17  1  0
 15 14  1  0
 16 15  2  0
M  END
$$$$
