PAG.pdb
     RDKit          3D

 17 17  0  0  1  0  0  0  0  0999 V2000
    8.0568  -15.0734   19.0187 N   0  0  0  0  0  0  0  0  0  0  0  0
    7.9432  -14.8513   17.5700 C   0  0  0  0  0  0  0  0  0  0  0  0
    7.7538  -13.3495   17.5223 C   0  0  0  0  0  0  0  0  0  0  0  0
    8.4955  -12.8133   18.7486 C   0  0  0  0  0  0  0  0  0  0  0  0
    9.0243  -14.0640   19.3759 C   0  0  1  0  0  0  0  0  0  0  0  0
    9.1880  -13.9483   20.8491 C   0  0  0  0  0  0  0  0  0  0  0  0
   10.1082  -13.2903   21.3688 O   0  0  0  0  0  0  0  0  0  0  0  0
    6.9079  -14.9290   23.6438 C   0  0  0  0  0  0  0  0  0  0  0  0
    8.3017  -14.5281   23.1440 C   0  0  2  0  0  0  0  0  0  0  0  0
    8.2745  -14.6029   21.7214 N   0  0  0  0  0  0  0  0  0  0  0  0
    9.3538  -15.3575   23.7661 C   0  0  0  0  0  0  0  0  0  0  0  0
    9.4363  -15.3846   25.0223 O   0  0  0  0  0  0  0  0  0  0  0  0
   10.2822  -16.1296   23.0326 N   0  0  0  0  0  0  0  0  0  0  0  0
   11.2409  -17.0252   23.6524 C   0  0  0  0  0  0  0  0  0  0  0  0
   12.4296  -17.0848   22.7879 C   0  0  0  0  0  0  0  0  0  0  0  0
   12.3025  -17.4069   21.5892 O   0  0  0  0  0  0  0  0  0  0  0  0
   13.6762  -16.7907   23.2830 O   0  0  0  0  0  0  0  0  0  0  0  0
  1  2  1  0
  1  5  1  0
  2  3  1  0
  3  4  1  0
  5  6  1  1
  5  4  1  0
  6  7  2  0
  9  8  1  1
 10  9  1  0
 10  6  1  0
 11  9  1  0
 12 11  2  0
 13 11  1  0
 14 13  1  0
 15 17  1  0
 15 14  1  0
 16 15  2  0
M  END
$$$$
