PAG.pdb
     RDKit          3D

 17 17  0  0  1  0  0  0  0  0999 V2000
    8.3129  -14.9825   19.0164 N   0  0  0  0  0  0  0  0  0  0  0  0
    8.3080  -14.6169   17.5926 C   0  0  0  0  0  0  0  0  0  0  0  0
    7.7938  -13.1941   17.6619 C   0  0  0  0  0  0  0  0  0  0  0  0
    8.2615  -12.6651   19.0193 C   0  0  0  0  0  0  0  0  0  0  0  0
    8.9864  -13.8423   19.5900 C   0  0  1  0  0  0  0  0  0  0  0  0
    8.9618  -13.8726   21.0763 C   0  0  0  0  0  0  0  0  0  0  0  0
    9.5559  -13.0276   21.7711 O   0  0  0  0  0  0  0  0  0  0  0  0
    6.8918  -15.8587   23.4645 C   0  0  0  0  0  0  0  0  0  0  0  0
    8.1471  -15.0269   23.1720 C   0  0  2  0  0  0  0  0  0  0  0  0
    8.2410  -14.8932   21.7566 N   0  0  0  0  0  0  0  0  0  0  0  0
    9.3445  -15.6251   23.7967 C   0  0  0  0  0  0  0  0  0  0  0  0
    9.3253  -15.8615   25.0332 O   0  0  0  0  0  0  0  0  0  0  0  0
   10.5214  -15.9516   23.0863 N   0  0  0  0  0  0  0  0  0  0  0  0
   11.6859  -16.5553   23.7065 C   0  0  0  0  0  0  0  0  0  0  0  0
   12.7566  -16.6133   22.6995 C   0  0  0  0  0  0  0  0  0  0  0  0
   12.4597  -16.7122   21.4916 O   0  0  0  0  0  0  0  0  0  0  0  0
   14.0773  -16.5601   23.0716 O   0  0  0  0  0  0  0  0  0  0  0  0
  1  2  1  0
  1  5  1  0
  2  3  1  0
  3  4  1  0
  5  6  1  1
  5  4  1  0
  6  7  2  0
  9  8  1  6
 10  9  1  0
 10  6  1  0
 11  9  1  0
 12 11  2  0
 13 11  1  0
 14 13  1  0
 15 17  1  0
 15 14  1  0
 16 15  2  0
M  END
$$$$
