PAG.pdb
     RDKit          3D

 17 17  0  0  1  0  0  0  0  0999 V2000
    6.7920  -13.3140   20.2453 N   0  0  0  0  0  0  0  0  0  0  0  0
    7.3022  -13.3172   18.8667 C   0  0  0  0  0  0  0  0  0  0  0  0
    8.7873  -13.4887   19.1091 C   0  0  0  0  0  0  0  0  0  0  0  0
    8.8910  -14.2832   20.4127 C   0  0  0  0  0  0  0  0  0  0  0  0
    7.4556  -14.4759   20.7861 C   0  0  1  0  0  0  0  0  0  0  0  0
    7.2506  -14.5998   22.2534 C   0  0  0  0  0  0  0  0  0  0  0  0
    6.8202  -13.6613   22.9489 O   0  0  0  0  0  0  0  0  0  0  0  0
    6.7396  -17.3270   24.5741 C   0  0  0  0  0  0  0  0  0  0  0  0
    7.5123  -16.0256   24.3238 C   0  0  2  0  0  0  0  0  0  0  0  0
    7.5487  -15.8241   22.9138 N   0  0  0  0  0  0  0  0  0  0  0  0
    8.8464  -16.0637   24.9568 C   0  0  0  0  0  0  0  0  0  0  0  0
    8.9173  -16.1984   26.2067 O   0  0  0  0  0  0  0  0  0  0  0  0
   10.0595  -15.9574   24.2403 N   0  0  0  0  0  0  0  0  0  0  0  0
   11.3550  -15.8266   24.8803 C   0  0  0  0  0  0  0  0  0  0  0  0
   12.0662  -17.1054   24.7293 C   0  0  0  0  0  0  0  0  0  0  0  0
   13.2964  -17.1039   24.5212 O   0  0  0  0  0  0  0  0  0  0  0  0
   11.3938  -18.2997   24.8144 O   0  0  0  0  0  0  0  0  0  0  0  0
  1  2  1  0
  1  5  1  0
  2  3  1  0
  3  4  1  0
  5  6  1  1
  5  4  1  0
  6  7  2  0
  9  8  1  6
 10  9  1  0
 10  6  1  0
 11  9  1  0
 12 11  2  0
 13 11  1  0
 14 13  1  0
 15 17  1  0
 15 14  1  0
 16 15  2  0
M  END
$$$$
