PAG.pdb
     RDKit          3D

 17 17  0  0  1  0  0  0  0  0999 V2000
    7.4521  -15.1410   20.3716 N   0  0  0  0  0  0  0  0  0  0  0  0
    7.1620  -14.8836   18.9537 C   0  0  0  0  0  0  0  0  0  0  0  0
    7.1879  -13.3697   18.9241 C   0  0  0  0  0  0  0  0  0  0  0  0
    8.1704  -12.9645   20.0250 C   0  0  0  0  0  0  0  0  0  0  0  0
    8.5977  -14.2876   20.5765 C   0  0  1  0  0  0  0  0  0  0  0  0
    8.9896  -14.2185   22.0090 C   0  0  0  0  0  0  0  0  0  0  0  0
   10.1504  -13.9517   22.3713 O   0  0  0  0  0  0  0  0  0  0  0  0
    6.9013  -14.1175   25.0964 C   0  0  0  0  0  0  0  0  0  0  0  0
    8.2607  -14.3518   24.4254 C   0  0  2  0  0  0  0  0  0  0  0  0
    8.0236  -14.4614   23.0248 N   0  0  0  0  0  0  0  0  0  0  0  0
    8.9521  -15.5201   25.0078 C   0  0  0  0  0  0  0  0  0  0  0  0
    9.1900  -15.5255   26.2442 O   0  0  0  0  0  0  0  0  0  0  0  0
    9.3671  -16.6425   24.2568 N   0  0  0  0  0  0  0  0  0  0  0  0
    9.9473  -17.8311   24.8532 C   0  0  0  0  0  0  0  0  0  0  0  0
   11.3863  -17.8349   24.5478 C   0  0  0  0  0  0  0  0  0  0  0  0
   11.8749  -16.9030   23.8773 O   0  0  0  0  0  0  0  0  0  0  0  0
   12.1978  -18.8501   24.9909 O   0  0  0  0  0  0  0  0  0  0  0  0
  1  2  1  0
  1  5  1  0
  2  3  1  0
  3  4  1  0
  5  6  1  1
  5  4  1  0
  6  7  2  0
  9  8  1  1
 10  9  1  0
 10  6  1  0
 11  9  1  0
 12 11  2  0
 13 11  1  0
 14 13  1  0
 15 17  1  0
 15 14  1  0
 16 15  2  0
M  END
$$$$
