PAG.pdb
     RDKit          3D

 17 17  0  0  1  0  0  0  0  0999 V2000
    8.8139  -15.3732   21.2107 N   0  0  0  0  0  0  0  0  0  0  0  0
    8.2050  -15.4442   19.8746 C   0  0  0  0  0  0  0  0  0  0  0  0
    6.7799  -15.8171   20.2266 C   0  0  0  0  0  0  0  0  0  0  0  0
    6.5364  -15.2077   21.6088 C   0  0  0  0  0  0  0  0  0  0  0  0
    7.8496  -14.5575   21.9087 C   0  0  1  0  0  0  0  0  0  0  0  0
    8.1382  -14.4801   23.3652 C   0  0  0  0  0  0  0  0  0  0  0  0
    9.1640  -14.9733   23.8695 O   0  0  0  0  0  0  0  0  0  0  0  0
    6.3494  -12.6813   26.1342 C   0  0  0  0  0  0  0  0  0  0  0  0
    7.3843  -13.7047   25.6495 C   0  0  2  0  0  0  0  0  0  0  0  0
    7.2265  -13.8245   24.2386 N   0  0  0  0  0  0  0  0  0  0  0  0
    7.2546  -14.9841   26.3763 C   0  0  0  0  0  0  0  0  0  0  0  0
    7.3986  -14.9845   27.6272 O   0  0  0  0  0  0  0  0  0  0  0  0
    6.9763  -16.2193   25.7494 N   0  0  0  0  0  0  0  0  0  0  0  0
    6.7759  -17.4571   26.4794 C   0  0  0  0  0  0  0  0  0  0  0  0
    8.0966  -18.0558   26.7271 C   0  0  0  0  0  0  0  0  0  0  0  0
    9.1251  -17.4425   26.3768 O   0  0  0  0  0  0  0  0  0  0  0  0
    8.2115  -19.2801   27.3382 O   0  0  0  0  0  0  0  0  0  0  0  0
  1  2  1  0
  1  5  1  0
  2  3  1  0
  3  4  1  0
  5  6  1  1
  5  4  1  0
  6  7  2  0
  9  8  1  1
 10  9  1  0
 10  6  1  0
 11  9  1  0
 12 11  2  0
 13 11  1  0
 14 13  1  0
 15 17  1  0
 15 14  1  0
 16 15  2  0
M  END
$$$$
