PAG.pdb
     RDKit          3D

 17 17  0  0  1  0  0  0  0  0999 V2000
    7.0984  -14.6997   21.0333 N   0  0  0  0  0  0  0  0  0  0  0  0
    7.1419  -14.4615   19.5834 C   0  0  0  0  0  0  0  0  0  0  0  0
    7.4098  -12.9715   19.5438 C   0  0  0  0  0  0  0  0  0  0  0  0
    8.2031  -12.6733   20.8178 C   0  0  0  0  0  0  0  0  0  0  0  0
    8.2989  -14.0212   21.4589 C   0  0  1  0  0  0  0  0  0  0  0  0
    8.4020  -13.9517   22.9405 C   0  0  0  0  0  0  0  0  0  0  0  0
    9.4869  -14.0661   23.5402 O   0  0  0  0  0  0  0  0  0  0  0  0
    6.0636  -12.6618   25.4937 C   0  0  0  0  0  0  0  0  0  0  0  0
    7.2142  -13.6150   25.1459 C   0  0  2  0  0  0  0  0  0  0  0  0
    7.2345  -13.7477   23.7274 N   0  0  0  0  0  0  0  0  0  0  0  0
    7.0830  -14.8989   25.8645 C   0  0  0  0  0  0  0  0  0  0  0  0
    7.0549  -14.8853   27.1232 O   0  0  0  0  0  0  0  0  0  0  0  0
    6.9861  -16.1531   25.2214 N   0  0  0  0  0  0  0  0  0  0  0  0
    6.7095  -17.3913   25.9254 C   0  0  0  0  0  0  0  0  0  0  0  0
    7.9966  -17.9932   26.3062 C   0  0  0  0  0  0  0  0  0  0  0  0
    9.0588  -17.4017   26.0256 O   0  0  0  0  0  0  0  0  0  0  0  0
    8.0437  -19.1966   26.9659 O   0  0  0  0  0  0  0  0  0  0  0  0
  1  2  1  0
  1  5  1  0
  2  3  1  0
  3  4  1  0
  5  6  1  1
  5  4  1  0
  6  7  2  0
  9  8  1  6
 10  9  1  0
 10  6  1  0
 11  9  1  0
 12 11  2  0
 13 11  1  0
 14 13  1  0
 15 17  1  0
 15 14  1  0
 16 15  2  0
M  END
$$$$
