PAG.pdb
     RDKit          3D

 17 17  0  0  1  0  0  0  0  0999 V2000
    9.0352  -13.3871   19.6728 N   0  0  0  0  0  0  0  0  0  0  0  0
    8.2741  -13.3478   18.4158 C   0  0  0  0  0  0  0  0  0  0  0  0
    7.3559  -14.5384   18.5971 C   0  0  0  0  0  0  0  0  0  0  0  0
    7.1430  -14.6533   20.1080 C   0  0  0  0  0  0  0  0  0  0  0  0
    7.9685  -13.5230   20.6352 C   0  0  1  0  0  0  0  0  0  0  0  0
    8.4861  -13.7742   22.0062 C   0  0  0  0  0  0  0  0  0  0  0  0
    9.6984  -13.9276   22.2443 O   0  0  0  0  0  0  0  0  0  0  0  0
    6.7075  -13.7890   25.3179 C   0  0  0  0  0  0  0  0  0  0  0  0
    7.9682  -13.9998   24.4697 C   0  0  2  0  0  0  0  0  0  0  0  0
    7.5862  -13.8472   23.1056 N   0  0  0  0  0  0  0  0  0  0  0  0
    8.6058  -15.2980   24.7701 C   0  0  0  0  0  0  0  0  0  0  0  0
    9.0307  -15.5055   25.9371 O   0  0  0  0  0  0  0  0  0  0  0  0
    8.7702  -16.3312   23.8206 N   0  0  0  0  0  0  0  0  0  0  0  0
    9.4134  -17.5964   24.1218 C   0  0  0  0  0  0  0  0  0  0  0  0
   10.4222  -17.8507   23.0818 C   0  0  0  0  0  0  0  0  0  0  0  0
   10.0562  -18.2200   21.9476 O   0  0  0  0  0  0  0  0  0  0  0  0
   11.7603  -17.6869   23.3433 O   0  0  0  0  0  0  0  0  0  0  0  0
  1  2  1  0
  1  5  1  0
  2  3  1  0
  3  4  1  0
  5  6  1  1
  5  4  1  0
  6  7  2  0
  9  8  1  1
 10  9  1  0
 10  6  1  0
 11  9  1  0
 12 11  2  0
 13 11  1  0
 14 13  1  0
 15 17  1  0
 15 14  1  0
 16 15  2  0
M  END
$$$$
