PAG.pdb
     RDKit          3D

 17 17  0  0  1  0  0  0  0  0999 V2000
    9.3200  -13.5693   19.5089 N   0  0  0  0  0  0  0  0  0  0  0  0
    8.5079  -13.4498   18.2894 C   0  0  0  0  0  0  0  0  0  0  0  0
    7.5322  -14.5924   18.4794 C   0  0  0  0  0  0  0  0  0  0  0  0
    7.3797  -14.7408   19.9947 C   0  0  0  0  0  0  0  0  0  0  0  0
    8.2906  -13.6745   20.5148 C   0  0  1  0  0  0  0  0  0  0  0  0
    8.8528  -13.9954   21.8533 C   0  0  0  0  0  0  0  0  0  0  0  0
   10.0765  -14.1033   22.0549 O   0  0  0  0  0  0  0  0  0  0  0  0
    7.1716  -14.4088   25.1904 C   0  0  0  0  0  0  0  0  0  0  0  0
    8.4025  -14.5281   24.2826 C   0  0  2  0  0  0  0  0  0  0  0  0
    7.9842  -14.1916   22.9628 N   0  0  0  0  0  0  0  0  0  0  0  0
    9.0214  -15.8649   24.3909 C   0  0  0  0  0  0  0  0  0  0  0  0
    9.4292  -16.2512   25.5177 O   0  0  0  0  0  0  0  0  0  0  0  0
    9.1858  -16.7456   23.2984 N   0  0  0  0  0  0  0  0  0  0  0  0
    9.8246  -18.0436   23.4093 C   0  0  0  0  0  0  0  0  0  0  0  0
   11.2760  -17.8476   23.2710 C   0  0  0  0  0  0  0  0  0  0  0  0
   11.7528  -16.6984   23.3648 O   0  0  0  0  0  0  0  0  0  0  0  0
   12.1118  -18.9123   23.0400 O   0  0  0  0  0  0  0  0  0  0  0  0
  1  2  1  0
  1  5  1  0
  2  3  1  0
  3  4  1  0
  5  6  1  1
  5  4  1  0
  6  7  2  0
  9  8  1  1
 10  9  1  0
 10  6  1  0
 11  9  1  0
 12 11  2  0
 13 11  1  0
 14 13  1  0
 15 17  1  0
 15 14  1  0
 16 15  2  0
M  END
$$$$
