PAG.pdb
     RDKit          3D

 17 17  0  0  1  0  0  0  0  0999 V2000
    7.7343  -15.2113   20.3858 N   0  0  0  0  0  0  0  0  0  0  0  0
    7.6337  -14.7260   19.0019 C   0  0  0  0  0  0  0  0  0  0  0  0
    7.0585  -13.3425   19.2225 C   0  0  0  0  0  0  0  0  0  0  0  0
    7.5755  -12.9083   20.5956 C   0  0  0  0  0  0  0  0  0  0  0  0
    8.3847  -14.0915   21.0226 C   0  0  1  0  0  0  0  0  0  0  0  0
    8.4438  -14.2500   22.4997 C   0  0  0  0  0  0  0  0  0  0  0  0
    8.9858  -13.4087   23.2402 O   0  0  0  0  0  0  0  0  0  0  0  0
    6.5880  -16.4906   24.7997 C   0  0  0  0  0  0  0  0  0  0  0  0
    7.8338  -15.6402   24.5204 C   0  0  2  0  0  0  0  0  0  0  0  0
    7.8681  -15.3951   23.1173 N   0  0  0  0  0  0  0  0  0  0  0  0
    9.0538  -16.2880   25.0440 C   0  0  0  0  0  0  0  0  0  0  0  0
    9.0942  -16.6022   26.2626 O   0  0  0  0  0  0  0  0  0  0  0  0
   10.1890  -16.5797   24.2551 N   0  0  0  0  0  0  0  0  0  0  0  0
   11.3537  -17.2810   24.7619 C   0  0  0  0  0  0  0  0  0  0  0  0
   12.3448  -17.3559   23.6774 C   0  0  0  0  0  0  0  0  0  0  0  0
   12.0725  -16.8696   22.5611 O   0  0  0  0  0  0  0  0  0  0  0  0
   13.5646  -17.9538   23.8779 O   0  0  0  0  0  0  0  0  0  0  0  0
  1  2  1  0
  1  5  1  0
  2  3  1  0
  3  4  1  0
  5  6  1  1
  5  4  1  0
  6  7  2  0
  9  8  1  6
 10  9  1  0
 10  6  1  0
 11  9  1  0
 12 11  2  0
 13 11  1  0
 14 13  1  0
 15 17  1  0
 15 14  1  0
 16 15  2  0
M  END
$$$$
