AGQ.pdb
     RDKit          3D

 19 18  0  0  1  0  0  0  0  0999 V2000
    8.6034  -12.2862   19.4419 C   0  0  0  0  0  0  0  0  0  0  0  0
    8.0510  -13.6587   19.1253 C   0  0  2  0  0  0  0  0  0  0  0  0
    6.6037  -13.6012   19.0989 N   0  0  0  0  0  0  0  0  0  0  0  0
    8.5079  -14.6341   20.1763 C   0  0  0  0  0  0  0  0  0  0  0  0
    9.7088  -15.0041   20.1173 O   0  0  0  0  0  0  0  0  0  0  0  0
    7.5932  -15.0704   21.1446 N   0  0  0  0  0  0  0  0  0  0  0  0
    7.9765  -16.0644   22.0993 C   0  0  0  0  0  0  0  0  0  0  0  0
    8.7288  -15.4740   23.2466 C   0  0  0  0  0  0  0  0  0  0  0  0
    9.8753  -15.0419   23.0351 O   0  0  0  0  0  0  0  0  0  0  0  0
    5.6949  -11.1426   26.3375 N   0  0  0  0  0  0  0  0  0  0  0  0
    6.1945  -12.4547   26.5524 C   0  0  0  0  0  0  0  0  0  0  0  0
    5.4324  -13.2639   27.1612 O   0  0  0  0  0  0  0  0  0  0  0  0
    7.5448  -12.7839   26.0555 C   0  0  0  0  0  0  0  0  0  0  0  0
    8.1754  -13.9973   26.6132 C   0  0  0  0  0  0  0  0  0  0  0  0
    8.9276  -14.8879   25.6876 C   0  0  2  0  0  0  0  0  0  0  0  0
    8.1900  -15.3896   24.5504 N   0  0  0  0  0  0  0  0  0  0  0  0
    9.6180  -15.9902   26.4061 C   0  0  0  0  0  0  0  0  0  0  0  0
    9.3707  -17.1742   26.1059 O   0  0  0  0  0  0  0  0  0  0  0  0
   10.5281  -15.7141   27.4002 O   0  0  0  0  0  0  0  0  0  0  0  0
  2  1  1  1
  2  3  1  0
  4  2  1  0
  4  5  2  0
  6  4  1  0
  7  8  1  0
  7  6  1  0
  8 16  1  0
  9  8  2  0
 10 11  1  0
 11 13  1  0
 12 11  2  0
 13 14  1  0
 15 14  1  1
 15 17  1  0
 16 15  1  0
 17 18  2  0
 17 19  1  0
M  END
$$$$
