AGQ.pdb
     RDKit          3D

 19 18  0  0  1  0  0  0  0  0999 V2000
    8.1855  -17.5545   17.4440 C   0  0  0  0  0  0  0  0  0  0  0  0
    9.1001  -17.3206   18.6263 C   0  0  2  0  0  0  0  0  0  0  0  0
    9.6158  -18.5907   19.0952 N   0  0  0  0  0  0  0  0  0  0  0  0
    8.3292  -16.6411   19.7257 C   0  0  0  0  0  0  0  0  0  0  0  0
    7.9367  -15.4681   19.4964 O   0  0  0  0  0  0  0  0  0  0  0  0
    8.0934  -17.3339   20.9212 N   0  0  0  0  0  0  0  0  0  0  0  0
    7.3492  -16.7161   21.9752 C   0  0  0  0  0  0  0  0  0  0  0  0
    8.2373  -15.9944   22.9351 C   0  0  0  0  0  0  0  0  0  0  0  0
    9.4612  -15.9972   22.7165 O   0  0  0  0  0  0  0  0  0  0  0  0
    5.0373  -11.3483   26.2481 N   0  0  0  0  0  0  0  0  0  0  0  0
    6.2720  -11.9602   26.5922 C   0  0  0  0  0  0  0  0  0  0  0  0
    6.6793  -11.7966   27.7811 O   0  0  0  0  0  0  0  0  0  0  0  0
    6.9842  -12.7377   25.5593 C   0  0  0  0  0  0  0  0  0  0  0  0
    7.8888  -13.8011   26.0407 C   0  0  0  0  0  0  0  0  0  0  0  0
    8.5874  -14.6412   25.0298 C   0  0  2  0  0  0  0  0  0  0  0  0
    7.7416  -15.3154   24.0712 N   0  0  0  0  0  0  0  0  0  0  0  0
    9.5487  -15.5873   25.6535 C   0  0  0  0  0  0  0  0  0  0  0  0
    9.2076  -16.7677   25.8618 O   0  0  0  0  0  0  0  0  0  0  0  0
   10.8124  -15.1704   26.0028 O   0  0  0  0  0  0  0  0  0  0  0  0
  2  1  1  6
  2  3  1  0
  4  2  1  0
  4  5  2  0
  6  4  1  0
  7  8  1  0
  7  6  1  0
  8 16  1  0
  9  8  2  0
 10 11  1  0
 11 13  1  0
 12 11  2  0
 13 14  1  0
 15 14  1  1
 15 17  1  0
 16 15  1  0
 17 18  2  0
 17 19  1  0
M  END
$$$$
