AGQ.pdb
     RDKit          3D

 19 18  0  0  1  0  0  0  0  0999 V2000
    7.5678  -13.0148   17.8835 C   0  0  0  0  0  0  0  0  0  0  0  0
    8.6713  -13.4059   18.8420 C   0  0  2  0  0  0  0  0  0  0  0  0
    9.5020  -14.4234   18.2310 N   0  0  0  0  0  0  0  0  0  0  0  0
    8.0630  -13.9336   20.1133 C   0  0  0  0  0  0  0  0  0  0  0  0
    7.3488  -13.1332   20.7705 O   0  0  0  0  0  0  0  0  0  0  0  0
    8.3173  -15.2591   20.4912 N   0  0  0  0  0  0  0  0  0  0  0  0
    7.7394  -15.7889   21.6878 C   0  0  0  0  0  0  0  0  0  0  0  0
    8.4999  -15.3741   22.9046 C   0  0  0  0  0  0  0  0  0  0  0  0
    9.6434  -14.9107   22.7511 O   0  0  0  0  0  0  0  0  0  0  0  0
    6.2101  -10.8217   26.5929 N   0  0  0  0  0  0  0  0  0  0  0  0
    6.4644  -12.1944   26.8543 C   0  0  0  0  0  0  0  0  0  0  0  0
    5.9842  -12.6708   27.9260 O   0  0  0  0  0  0  0  0  0  0  0  0
    7.2544  -12.9633   25.8727 C   0  0  0  0  0  0  0  0  0  0  0  0
    7.8544  -14.2249   26.3517 C   0  0  0  0  0  0  0  0  0  0  0  0
    8.6629  -15.0274   25.3935 C   0  0  2  0  0  0  0  0  0  0  0  0
    7.9720  -15.4881   24.2107 N   0  0  0  0  0  0  0  0  0  0  0  0
    9.3816  -16.1431   26.0620 C   0  0  0  0  0  0  0  0  0  0  0  0
    9.0675  -17.3217   25.8068 O   0  0  0  0  0  0  0  0  0  0  0  0
   10.3910  -15.8851   26.9604 O   0  0  0  0  0  0  0  0  0  0  0  0
  2  1  1  6
  2  3  1  0
  4  2  1  0
  4  5  2  0
  6  4  1  0
  7  8  1  0
  7  6  1  0
  8 16  1  0
  9  8  2  0
 10 11  1  0
 11 13  1  0
 12 11  2  0
 13 14  1  0
 15 14  1  1
 15 17  1  0
 16 15  1  0
 17 18  2  0
 17 19  1  0
M  END
$$$$
