AGQ.pdb
     RDKit          3D

 19 18  0  0  1  0  0  0  0  0999 V2000
    7.8584  -13.1304   17.7489 C   0  0  0  0  0  0  0  0  0  0  0  0
    9.0077  -13.4397   18.6830 C   0  0  2  0  0  0  0  0  0  0  0  0
    9.9842  -14.2565   17.9915 N   0  0  0  0  0  0  0  0  0  0  0  0
    8.4858  -14.1728   19.8892 C   0  0  0  0  0  0  0  0  0  0  0  0
    7.6709  -13.5500   20.6177 O   0  0  0  0  0  0  0  0  0  0  0  0
    8.9240  -15.4815   20.1336 N   0  0  0  0  0  0  0  0  0  0  0  0
    8.3723  -16.2335   21.2182 C   0  0  0  0  0  0  0  0  0  0  0  0
    8.9473  -15.8187   22.5329 C   0  0  0  0  0  0  0  0  0  0  0  0
   10.1233  -15.4160   22.5572 O   0  0  0  0  0  0  0  0  0  0  0  0
    5.5183  -12.5554   26.4864 N   0  0  0  0  0  0  0  0  0  0  0  0
    6.7404  -12.6042   27.2084 C   0  0  0  0  0  0  0  0  0  0  0  0
    6.8509  -11.8214   28.1989 O   0  0  0  0  0  0  0  0  0  0  0  0
    7.7816  -13.5525   26.7665 C   0  0  0  0  0  0  0  0  0  0  0  0
    7.4577  -14.3882   25.5927 C   0  0  0  0  0  0  0  0  0  0  0  0
    8.5674  -15.1193   24.9220 C   0  0  2  0  0  0  0  0  0  0  0  0
    8.2102  -15.8670   23.7379 N   0  0  0  0  0  0  0  0  0  0  0  0
    9.3413  -15.9597   25.8723 C   0  0  0  0  0  0  0  0  0  0  0  0
    9.1241  -17.1854   25.9319 O   0  0  0  0  0  0  0  0  0  0  0  0
   10.2956  -15.3954   26.6868 O   0  0  0  0  0  0  0  0  0  0  0  0
  2  1  1  6
  2  3  1  0
  4  2  1  0
  4  5  2  0
  6  4  1  0
  7  8  1  0
  7  6  1  0
  8 16  1  0
  9  8  2  0
 10 11  1  0
 11 13  1  0
 12 11  2  0
 13 14  1  0
 15 14  1  1
 15 17  1  0
 16 15  1  0
 17 18  2  0
 17 19  1  0
M  END
$$$$
