AGQ.pdb
     RDKit          3D

 19 18  0  0  1  0  0  0  0  0999 V2000
    6.7347  -18.7877   19.5197 C   0  0  0  0  0  0  0  0  0  0  0  0
    6.5262  -17.3089   19.2769 C   0  0  2  0  0  0  0  0  0  0  0  0
    7.6081  -16.7974   18.4604 N   0  0  0  0  0  0  0  0  0  0  0  0
    6.4929  -16.5873   20.5971 C   0  0  0  0  0  0  0  0  0  0  0  0
    5.5457  -16.8761   21.3730 O   0  0  0  0  0  0  0  0  0  0  0  0
    7.4955  -15.6521   20.8880 N   0  0  0  0  0  0  0  0  0  0  0  0
    7.5038  -14.9756   22.1484 C   0  0  0  0  0  0  0  0  0  0  0  0
    8.7834  -15.1914   22.8880 C   0  0  0  0  0  0  0  0  0  0  0  0
    9.8493  -15.0928   22.2556 O   0  0  0  0  0  0  0  0  0  0  0  0
    8.8035  -12.5070   28.7214 N   0  0  0  0  0  0  0  0  0  0  0  0
    9.4547  -13.6937   28.2913 C   0  0  0  0  0  0  0  0  0  0  0  0
    9.9572  -14.4290   29.1930 O   0  0  0  0  0  0  0  0  0  0  0  0
    9.4974  -13.9888   26.8457 C   0  0  0  0  0  0  0  0  0  0  0  0
    9.9890  -15.3268   26.4597 C   0  0  0  0  0  0  0  0  0  0  0  0
   10.0543  -15.6610   25.0106 C   0  0  2  0  0  0  0  0  0  0  0  0
    8.8258  -15.5005   24.2664 N   0  0  0  0  0  0  0  0  0  0  0  0
   10.6550  -16.9986   24.7693 C   0  0  0  0  0  0  0  0  0  0  0  0
    9.9336  -17.9408   24.3888 O   0  0  0  0  0  0  0  0  0  0  0  0
   12.0014  -17.2050   24.9628 O   0  0  0  0  0  0  0  0  0  0  0  0
  2  1  1  1
  2  3  1  0
  4  2  1  0
  4  5  2  0
  6  4  1  0
  7  8  1  0
  7  6  1  0
  8 16  1  0
  9  8  2  0
 10 11  1  0
 11 13  1  0
 12 11  2  0
 13 14  1  0
 15 14  1  1
 15 17  1  0
 16 15  1  0
 17 18  2  0
 17 19  1  0
M  END
$$$$
