AGQ.pdb
     RDKit          3D

 19 18  0  0  1  0  0  0  0  0999 V2000
    8.0949  -18.4995   17.9275 C   0  0  0  0  0  0  0  0  0  0  0  0
    9.3940  -18.6089   18.6953 C   0  0  2  0  0  0  0  0  0  0  0  0
    9.3743  -19.8085   19.5074 N   0  0  0  0  0  0  0  0  0  0  0  0
    9.5580  -17.3969   19.5721 C   0  0  0  0  0  0  0  0  0  0  0  0
    9.6801  -16.2904   18.9862 O   0  0  0  0  0  0  0  0  0  0  0  0
    9.5662  -17.5591   20.9643 N   0  0  0  0  0  0  0  0  0  0  0  0
    9.6501  -16.4164   21.8206 C   0  0  0  0  0  0  0  0  0  0  0  0
   10.4984  -16.6810   23.0212 C   0  0  0  0  0  0  0  0  0  0  0  0
   10.8378  -17.8547   23.2514 O   0  0  0  0  0  0  0  0  0  0  0  0
   10.1478  -13.8293   29.8112 N   0  0  0  0  0  0  0  0  0  0  0  0
    9.7270  -14.0325   28.4699 C   0  0  0  0  0  0  0  0  0  0  0  0
    8.7513  -13.3325   28.0647 O   0  0  0  0  0  0  0  0  0  0  0  0
   10.4465  -15.0262   27.6493 C   0  0  0  0  0  0  0  0  0  0  0  0
   10.3735  -14.8497   26.1849 C   0  0  0  0  0  0  0  0  0  0  0  0
   11.0783  -15.8365   25.3215 C   0  0  2  0  0  0  0  0  0  0  0  0
   10.9247  -15.6560   23.8958 N   0  0  0  0  0  0  0  0  0  0  0  0
   10.7867  -17.2386   25.7178 C   0  0  0  0  0  0  0  0  0  0  0  0
    9.7131  -17.7683   25.3719 O   0  0  0  0  0  0  0  0  0  0  0  0
   11.6928  -17.9567   26.4636 O   0  0  0  0  0  0  0  0  0  0  0  0
  2  1  1  1
  2  3  1  0
  4  2  1  0
  4  5  2  0
  6  4  1  0
  7  8  1  0
  7  6  1  0
  8 16  1  0
  9  8  2  0
 10 11  1  0
 11 13  1  0
 12 11  2  0
 13 14  1  0
 15 14  1  1
 15 17  1  0
 16 15  1  0
 17 18  2  0
 17 19  1  0
M  END
$$$$
