AGQ.pdb
     RDKit          3D

 19 18  0  0  1  0  0  0  0  0999 V2000
    7.1205  -18.9359   15.3050 C   0  0  0  0  0  0  0  0  0  0  0  0
    7.8602  -17.8188   16.0079 C   0  0  2  0  0  0  0  0  0  0  0  0
    9.2443  -17.8136   15.5802 N   0  0  0  0  0  0  0  0  0  0  0  0
    7.7824  -18.0289   17.4960 C   0  0  0  0  0  0  0  0  0  0  0  0
    6.6434  -17.9278   18.0203 O   0  0  0  0  0  0  0  0  0  0  0  0
    8.9559  -18.3198   18.2052 N   0  0  0  0  0  0  0  0  0  0  0  0
    8.9160  -18.4796   19.6262 C   0  0  0  0  0  0  0  0  0  0  0  0
    9.4907  -17.2978   20.3361 C   0  0  0  0  0  0  0  0  0  0  0  0
   10.6766  -16.9993   20.1115 O   0  0  0  0  0  0  0  0  0  0  0  0
    7.5086  -13.0556   18.7823 N   0  0  0  0  0  0  0  0  0  0  0  0
    7.3534  -13.7716   19.9990 C   0  0  0  0  0  0  0  0  0  0  0  0
    6.6101  -14.7976   19.9678 O   0  0  0  0  0  0  0  0  0  0  0  0
    8.0614  -13.2831   21.1984 C   0  0  0  0  0  0  0  0  0  0  0  0
    8.3327  -14.2781   22.2556 C   0  0  0  0  0  0  0  0  0  0  0  0
    9.2870  -15.3804   21.9558 C   0  0  2  0  0  0  0  0  0  0  0  0
    8.7429  -16.5148   21.2444 N   0  0  0  0  0  0  0  0  0  0  0  0
   10.0391  -15.8155   23.1612 C   0  0  0  0  0  0  0  0  0  0  0  0
    9.6735  -16.8304   23.7852 O   0  0  0  0  0  0  0  0  0  0  0  0
   11.1359  -15.1066   23.5940 O   0  0  0  0  0  0  0  0  0  0  0  0
  2  1  1  6
  2  3  1  0
  4  2  1  0
  4  5  2  0
  6  4  1  0
  7  8  1  0
  7  6  1  0
  8 16  1  0
  9  8  2  0
 10 11  1  0
 11 13  1  0
 12 11  2  0
 13 14  1  0
 15 14  1  1
 15 17  1  0
 16 15  1  0
 17 18  2  0
 17 19  1  0
M  END
$$$$
