AGQ.pdb
     RDKit          3D

 19 18  0  0  1  0  0  0  0  0999 V2000
    6.6029  -18.4861   18.6565 C   0  0  0  0  0  0  0  0  0  0  0  0
    8.0639  -18.1234   18.8087 C   0  0  2  0  0  0  0  0  0  0  0  0
    8.6753  -18.9903   19.7953 N   0  0  0  0  0  0  0  0  0  0  0  0
    8.1778  -16.6875   19.2446 C   0  0  0  0  0  0  0  0  0  0  0  0
    7.7917  -15.8170   18.4226 O   0  0  0  0  0  0  0  0  0  0  0  0
    8.6962  -16.4001   20.5148 N   0  0  0  0  0  0  0  0  0  0  0  0
    8.6456  -15.0653   21.0266 C   0  0  0  0  0  0  0  0  0  0  0  0
    9.1312  -14.9908   22.4372 C   0  0  0  0  0  0  0  0  0  0  0  0
   10.3430  -15.1704   22.6498 O   0  0  0  0  0  0  0  0  0  0  0  0
    6.8312  -11.5177   27.2196 N   0  0  0  0  0  0  0  0  0  0  0  0
    6.0024  -12.2683   26.3438 C   0  0  0  0  0  0  0  0  0  0  0  0
    4.7832  -11.9286   26.2794 O   0  0  0  0  0  0  0  0  0  0  0  0
    6.6087  -13.3732   25.5756 C   0  0  0  0  0  0  0  0  0  0  0  0
    8.0692  -13.5462   25.7092 C   0  0  0  0  0  0  0  0  0  0  0  0
    8.7303  -14.6005   24.8924 C   0  0  2  0  0  0  0  0  0  0  0  0
    8.2719  -14.7264   23.5276 N   0  0  0  0  0  0  0  0  0  0  0  0
    8.7389  -15.9189   25.5777 C   0  0  0  0  0  0  0  0  0  0  0  0
    9.2522  -16.0247   26.7083 O   0  0  0  0  0  0  0  0  0  0  0  0
    8.1845  -17.0238   24.9739 O   0  0  0  0  0  0  0  0  0  0  0  0
  2  1  1  1
  2  3  1  0
  4  2  1  0
  4  5  2  0
  6  4  1  0
  7  8  1  0
  7  6  1  0
  8 16  1  0
  9  8  2  0
 10 11  1  0
 11 13  1  0
 12 11  2  0
 13 14  1  0
 15 14  1  1
 15 17  1  0
 16 15  1  0
 17 18  2  0
 17 19  1  0
M  END
$$$$
