AGQ.pdb
     RDKit          3D

 19 18  0  0  1  0  0  0  0  0999 V2000
   10.5520  -18.8410   19.7832 C   0  0  0  0  0  0  0  0  0  0  0  0
    9.2799  -18.4771   19.0495 C   0  0  2  0  0  0  0  0  0  0  0  0
    9.6108  -17.7329   17.8514 N   0  0  0  0  0  0  0  0  0  0  0  0
    8.4075  -17.6431   19.9485 C   0  0  0  0  0  0  0  0  0  0  0  0
    7.6864  -18.2662   20.7696 O   0  0  0  0  0  0  0  0  0  0  0  0
    8.4423  -16.2471   19.8277 N   0  0  0  0  0  0  0  0  0  0  0  0
    7.6173  -15.4323   20.6655 C   0  0  0  0  0  0  0  0  0  0  0  0
    8.3028  -15.0741   21.9432 C   0  0  0  0  0  0  0  0  0  0  0  0
    9.5064  -14.7657   21.8959 O   0  0  0  0  0  0  0  0  0  0  0  0
    6.6757  -11.2148   28.0494 N   0  0  0  0  0  0  0  0  0  0  0  0
    6.3347  -12.0906   26.9846 C   0  0  0  0  0  0  0  0  0  0  0  0
    5.0999  -12.2953   26.7859 O   0  0  0  0  0  0  0  0  0  0  0  0
    7.4244  -12.6904   26.1900 C   0  0  0  0  0  0  0  0  0  0  0  0
    7.0204  -13.5414   25.0527 C   0  0  0  0  0  0  0  0  0  0  0  0
    8.0793  -14.2957   24.3277 C   0  0  2  0  0  0  0  0  0  0  0  0
    7.6396  -15.0729   23.1913 N   0  0  0  0  0  0  0  0  0  0  0  0
    8.9137  -15.1144   25.2451 C   0  0  0  0  0  0  0  0  0  0  0  0
    8.7067  -16.3395   25.3415 O   0  0  0  0  0  0  0  0  0  0  0  0
    9.9129  -14.5306   25.9890 O   0  0  0  0  0  0  0  0  0  0  0  0
  2  1  1  1
  2  3  1  0
  4  2  1  0
  4  5  2  0
  6  4  1  0
  7  8  1  0
  7  6  1  0
  8 16  1  0
  9  8  2  0
 10 11  1  0
 11 13  1  0
 12 11  2  0
 13 14  1  0
 15 14  1  1
 15 17  1  0
 16 15  1  0
 17 18  2  0
 17 19  1  0
M  END
$$$$
