AGQ.pdb
     RDKit          3D

 19 18  0  0  1  0  0  0  0  0999 V2000
    7.6304  -18.6043   16.3263 C   0  0  0  0  0  0  0  0  0  0  0  0
    8.8073  -17.8197   16.8633 C   0  0  2  0  0  0  0  0  0  0  0  0
    9.9977  -18.1617   16.1118 N   0  0  0  0  0  0  0  0  0  0  0  0
    9.0047  -18.1508   18.3180 C   0  0  0  0  0  0  0  0  0  0  0  0
    8.3529  -19.1290   18.7664 O   0  0  0  0  0  0  0  0  0  0  0  0
    9.8841  -17.3707   19.0812 N   0  0  0  0  0  0  0  0  0  0  0  0
   10.1439  -17.7080   20.4469 C   0  0  0  0  0  0  0  0  0  0  0  0
   10.1139  -16.5059   21.3330 C   0  0  0  0  0  0  0  0  0  0  0  0
   11.0431  -15.6853   21.2386 O   0  0  0  0  0  0  0  0  0  0  0  0
    7.8648  -13.0156   19.1208 N   0  0  0  0  0  0  0  0  0  0  0  0
    7.5987  -13.8696   20.2240 C   0  0  0  0  0  0  0  0  0  0  0  0
    7.3213  -15.0773   19.9582 O   0  0  0  0  0  0  0  0  0  0  0  0
    7.6670  -13.3030   21.5853 C   0  0  0  0  0  0  0  0  0  0  0  0
    7.6653  -14.2686   22.7027 C   0  0  0  0  0  0  0  0  0  0  0  0
    8.9170  -15.0249   22.9807 C   0  0  2  0  0  0  0  0  0  0  0  0
    9.0781  -16.2702   22.2651 N   0  0  0  0  0  0  0  0  0  0  0  0
    9.1493  -15.2106   24.4366 C   0  0  0  0  0  0  0  0  0  0  0  0
    9.3271  -14.2160   25.1661 O   0  0  0  0  0  0  0  0  0  0  0  0
    9.1696  -16.4719   24.9856 O   0  0  0  0  0  0  0  0  0  0  0  0
  2  1  1  6
  2  3  1  0
  4  2  1  0
  4  5  2  0
  6  4  1  0
  7  8  1  0
  7  6  1  0
  8 16  1  0
  9  8  2  0
 10 11  1  0
 11 13  1  0
 12 11  2  0
 13 14  1  0
 15 14  1  1
 15 17  1  0
 16 15  1  0
 17 18  2  0
 17 19  1  0
M  END
$$$$
