AGQ.pdb
     RDKit          3D

 19 18  0  0  1  0  0  0  0  0999 V2000
    7.9107  -14.1411   17.2294 C   0  0  0  0  0  0  0  0  0  0  0  0
    7.8087  -13.4054   18.5476 C   0  0  2  0  0  0  0  0  0  0  0  0
    9.0413  -12.6851   18.7940 N   0  0  0  0  0  0  0  0  0  0  0  0
    7.5622  -14.3962   19.6531 C   0  0  0  0  0  0  0  0  0  0  0  0
    6.5355  -15.1153   19.5463 O   0  0  0  0  0  0  0  0  0  0  0  0
    8.4680  -14.4655   20.7205 N   0  0  0  0  0  0  0  0  0  0  0  0
    8.3028  -15.4548   21.7404 C   0  0  0  0  0  0  0  0  0  0  0  0
    9.4258  -15.4327   22.7250 C   0  0  0  0  0  0  0  0  0  0  0  0
   10.5570  -15.1175   22.3165 O   0  0  0  0  0  0  0  0  0  0  0  0
   11.5438  -15.3991   29.9225 N   0  0  0  0  0  0  0  0  0  0  0  0
   10.5629  -15.3410   28.8970 C   0  0  0  0  0  0  0  0  0  0  0  0
    9.3654  -15.1434   29.2619 O   0  0  0  0  0  0  0  0  0  0  0  0
   10.9982  -15.5071   27.4965 C   0  0  0  0  0  0  0  0  0  0  0  0
    9.9328  -15.5440   26.4744 C   0  0  0  0  0  0  0  0  0  0  0  0
   10.3273  -15.7531   25.0544 C   0  0  2  0  0  0  0  0  0  0  0  0
    9.2507  -15.7537   24.0902 N   0  0  0  0  0  0  0  0  0  0  0  0
   11.1994  -16.9440   24.8833 C   0  0  0  0  0  0  0  0  0  0  0  0
   10.7074  -18.0193   24.4901 O   0  0  0  0  0  0  0  0  0  0  0  0
   12.5459  -16.8689   25.1557 O   0  0  0  0  0  0  0  0  0  0  0  0
  2  1  1  6
  2  3  1  0
  4  2  1  0
  4  5  2  0
  6  4  1  0
  7  8  1  0
  7  6  1  0
  8 16  1  0
  9  8  2  0
 10 11  1  0
 11 13  1  0
 12 11  2  0
 13 14  1  0
 15 14  1  1
 15 17  1  0
 16 15  1  0
 17 18  2  0
 17 19  1  0
M  END
$$$$
