AGQ.pdb
     RDKit          3D

 19 18  0  0  1  0  0  0  0  0999 V2000
    9.2676  -18.7802   14.4977 C   0  0  0  0  0  0  0  0  0  0  0  0
    7.9193  -18.3954   15.0661 C   0  0  2  0  0  0  0  0  0  0  0  0
    7.7226  -16.9680   14.9160 N   0  0  0  0  0  0  0  0  0  0  0  0
    7.8670  -18.7714   16.5224 C   0  0  0  0  0  0  0  0  0  0  0  0
    8.0159  -19.9904   16.7950 O   0  0  0  0  0  0  0  0  0  0  0  0
    7.6600  -17.7674   17.4782 N   0  0  0  0  0  0  0  0  0  0  0  0
    7.6018  -18.0994   18.8685 C   0  0  0  0  0  0  0  0  0  0  0  0
    8.4374  -17.1789   19.6964 C   0  0  0  0  0  0  0  0  0  0  0  0
    9.3992  -16.6106   19.1508 O   0  0  0  0  0  0  0  0  0  0  0  0
    6.2754  -15.9780   25.8950 N   0  0  0  0  0  0  0  0  0  0  0  0
    7.0670  -15.2581   24.9610 C   0  0  0  0  0  0  0  0  0  0  0  0
    7.8060  -14.3395   25.4260 O   0  0  0  0  0  0  0  0  0  0  0  0
    6.9810  -15.6260   23.5342 C   0  0  0  0  0  0  0  0  0  0  0  0
    7.9774  -15.0124   22.6333 C   0  0  0  0  0  0  0  0  0  0  0  0
    8.8518  -15.9134   21.8337 C   0  0  2  0  0  0  0  0  0  0  0  0
    8.1768  -16.9333   21.0636 N   0  0  0  0  0  0  0  0  0  0  0  0
    9.9505  -16.4963   22.6468 C   0  0  0  0  0  0  0  0  0  0  0  0
   10.8455  -15.7558   23.0982 O   0  0  0  0  0  0  0  0  0  0  0  0
    9.9877  -17.8471   22.9052 O   0  0  0  0  0  0  0  0  0  0  0  0
  2  1  1  1
  2  3  1  0
  4  2  1  0
  4  5  2  0
  6  4  1  0
  7  8  1  0
  7  6  1  0
  8 16  1  0
  9  8  2  0
 10 11  1  0
 11 13  1  0
 12 11  2  0
 13 14  1  0
 15 14  1  1
 15 17  1  0
 16 15  1  0
 17 18  2  0
 17 19  1  0
M  END
$$$$
