AGQ.pdb
     RDKit          3D

 19 18  0  0  1  0  0  0  0  0999 V2000
    7.2318  -13.0908   18.5323 C   0  0  0  0  0  0  0  0  0  0  0  0
    8.2179  -13.0728   19.6796 C   0  0  2  0  0  0  0  0  0  0  0  0
    9.5457  -13.3635   19.1784 N   0  0  0  0  0  0  0  0  0  0  0  0
    7.8156  -14.1047   20.6985 C   0  0  0  0  0  0  0  0  0  0  0  0
    6.6762  -13.9718   21.2150 O   0  0  0  0  0  0  0  0  0  0  0  0
    8.7100  -15.1371   21.0125 N   0  0  0  0  0  0  0  0  0  0  0  0
    8.3556  -16.1242   21.9853 C   0  0  0  0  0  0  0  0  0  0  0  0
    9.0299  -15.8820   23.2959 C   0  0  0  0  0  0  0  0  0  0  0  0
   10.0036  -15.1091   23.3197 O   0  0  0  0  0  0  0  0  0  0  0  0
    7.2796  -12.4653   25.4773 N   0  0  0  0  0  0  0  0  0  0  0  0
    6.6174  -12.9535   26.6351 C   0  0  0  0  0  0  0  0  0  0  0  0
    6.3600  -12.1097   27.5450 O   0  0  0  0  0  0  0  0  0  0  0  0
    6.2744  -14.3877   26.6975 C   0  0  0  0  0  0  0  0  0  0  0  0
    6.7574  -15.2307   25.5853 C   0  0  0  0  0  0  0  0  0  0  0  0
    8.1499  -15.7527   25.6517 C   0  0  2  0  0  0  0  0  0  0  0  0
    8.6056  -16.4934   24.4974 N   0  0  0  0  0  0  0  0  0  0  0  0
    8.4081  -16.5055   26.9065 C   0  0  0  0  0  0  0  0  0  0  0  0
    8.2313  -17.7388   26.9352 O   0  0  0  0  0  0  0  0  0  0  0  0
    8.8408  -15.8518   28.0371 O   0  0  0  0  0  0  0  0  0  0  0  0
  2  1  1  6
  2  3  1  0
  4  2  1  0
  4  5  2  0
  6  4  1  0
  7  8  1  0
  7  6  1  0
  8 16  1  0
  9  8  2  0
 10 11  1  0
 11 13  1  0
 12 11  2  0
 13 14  1  0
 15 14  1  6
 15 17  1  0
 16 15  1  0
 17 18  2  0
 17 19  1  0
M  END
$$$$
