AGQ.pdb
     RDKit          3D

 19 18  0  0  1  0  0  0  0  0999 V2000
    7.7455  -16.4372   18.2127 C   0  0  0  0  0  0  0  0  0  0  0  0
    8.8596  -16.1546   19.1965 C   0  0  2  0  0  0  0  0  0  0  0  0
    9.9129  -17.1346   19.0263 N   0  0  0  0  0  0  0  0  0  0  0  0
    8.3156  -16.2224   20.5980 C   0  0  0  0  0  0  0  0  0  0  0  0
    7.4354  -15.3767   20.9020 O   0  0  0  0  0  0  0  0  0  0  0  0
    8.8062  -17.2017   21.4726 N   0  0  0  0  0  0  0  0  0  0  0  0
    8.2595  -17.3293   22.7884 C   0  0  0  0  0  0  0  0  0  0  0  0
    8.9842  -16.4766   23.7777 C   0  0  0  0  0  0  0  0  0  0  0  0
   10.2072  -16.6516   23.9171 O   0  0  0  0  0  0  0  0  0  0  0  0
    6.3277  -11.2184   27.6713 N   0  0  0  0  0  0  0  0  0  0  0  0
    6.2610  -12.3125   26.7682 C   0  0  0  0  0  0  0  0  0  0  0  0
    5.3037  -12.3108   25.9377 O   0  0  0  0  0  0  0  0  0  0  0  0
    7.2982  -13.3593   26.8528 C   0  0  0  0  0  0  0  0  0  0  0  0
    8.3424  -13.3395   25.8086 C   0  0  0  0  0  0  0  0  0  0  0  0
    9.0287  -14.6179   25.4761 C   0  0  2  0  0  0  0  0  0  0  0  0
    8.3365  -15.4883   24.5531 N   0  0  0  0  0  0  0  0  0  0  0  0
    9.4564  -15.3583   26.6913 C   0  0  0  0  0  0  0  0  0  0  0  0
    8.8774  -16.4158   27.0068 O   0  0  0  0  0  0  0  0  0  0  0  0
   10.4866  -14.8857   27.4711 O   0  0  0  0  0  0  0  0  0  0  0  0
  2  1  1  6
  2  3  1  0
  4  2  1  0
  4  5  2  0
  6  4  1  0
  7  8  1  0
  7  6  1  0
  8 16  1  0
  9  8  2  0
 10 11  1  0
 11 13  1  0
 12 11  2  0
 13 14  1  0
 15 14  1  1
 15 17  1  0
 16 15  1  0
 17 18  2  0
 17 19  1  0
M  END
$$$$
