PRP.pdb
     RDKit          3D

 26 27  0  0  1  0  0  0  0  0999 V2000
   14.4901  -21.1050    3.1654 N   0  0  0  0  0  0  0  0  0  0  0  0
   13.5113  -21.3281    2.1389 C   0  0  0  0  0  0  0  0  0  0  0  0
   14.2491  -21.5891    0.8478 C   0  0  0  0  0  0  0  0  0  0  0  0
   15.6407  -21.0295    1.1716 C   0  0  0  0  0  0  0  0  0  0  0  0
   15.7913  -21.3997    2.6023 C   0  0  1  0  0  0  0  0  0  0  0  0
   16.8694  -20.7221    3.3304 C   0  0  0  0  0  0  0  0  0  0  0  0
   18.0861  -20.9345    3.0026 O   0  0  0  0  0  0  0  0  0  0  0  0
   15.1193  -14.8230    2.8729 N   0  0  0  0  0  0  0  0  0  0  0  0
   16.3484  -14.1301    3.0259 C   0  0  0  0  0  0  0  0  0  0  0  0
   16.7166  -13.2686    2.1202 N   0  0  0  0  0  0  0  0  0  0  0  0
   17.2214  -14.3190    4.1255 N   0  0  0  0  0  0  0  0  0  0  0  0
   17.0611  -15.3901    5.0812 C   0  0  0  0  0  0  0  0  0  0  0  0
   17.4513  -16.7369    4.5265 C   0  0  0  0  0  0  0  0  0  0  0  0
   17.3131  -17.7781    5.6045 C   0  0  0  0  0  0  0  0  0  0  0  0
   17.7149  -19.1583    5.1103 C   0  0  2  0  0  0  0  0  0  0  0  0
   16.6757  -19.8177    4.4048 N   0  0  0  0  0  0  0  0  0  0  0  0
   18.3180  -19.8756    6.2492 C   0  0  0  0  0  0  0  0  0  0  0  0
   17.4721  -20.6489    6.8545 O   0  0  0  0  0  0  0  0  0  0  0  0
   17.6066  -12.7618    2.1519 N   0  0  0  0  0  0  0  0  0  0  0  0
   19.6064  -19.8418    6.7464 C   0  0  0  0  0  0  0  0  0  0  0  0
   20.7694  -19.1517    6.2737 C   0  0  0  0  0  0  0  0  0  0  0  0
   21.8325  -20.2518    6.4695 C   0  0  0  0  0  0  0  0  0  0  0  0
   21.5307  -20.6960    7.8653 C   0  0  2  0  0  0  0  0  0  0  0  0
   20.0463  -20.5686    7.9539 C   0  0  0  0  0  0  0  0  0  0  0  0
   19.6027  -19.8378    9.1679 O   0  0  0  0  0  0  0  0  0  0  0  0
   19.6431  -20.4823   10.3758 O   0  0  0  0  0  0  0  0  0  0  0  0
  1  2  1  0
  3  2  1  0
  4  5  1  0
  4  3  1  0
  5  1  1  0
  5  6  1  1
  6  7  2  0
  8  9  1  0
  9 11  1  0
 10  9  2  0
 11 12  1  0
 12 13  1  0
 15 14  1  1
 14 13  1  0
 15 16  1  0
 16  6  1  0
 17 15  1  0
 18 17  2  0
 19 20  1  0
 19 17  1  0
 21 20  1  0
 22 23  1  0
 22 21  1  0
 23 19  1  0
 24 25  1  0
 23 24  1  1
 26 24  2  0
M  END
$$$$
