PRP.pdb
     RDKit          3D

 26 27  0  0  1  0  0  0  0  0999 V2000
   28.0988  -21.5705  -13.3862 N   0  0  0  0  0  0  0  0  0  0  0  0
   28.0499  -21.7980  -14.8031 C   0  0  0  0  0  0  0  0  0  0  0  0
   27.9986  -20.4514  -15.4841 C   0  0  0  0  0  0  0  0  0  0  0  0
   27.5557  -19.5414  -14.3308 C   0  0  0  0  0  0  0  0  0  0  0  0
   28.2664  -20.1476  -13.1758 C   0  0  1  0  0  0  0  0  0  0  0  0
   27.8032  -19.7321  -11.8475 C   0  0  0  0  0  0  0  0  0  0  0  0
   27.7446  -18.4890  -11.5573 O   0  0  0  0  0  0  0  0  0  0  0  0
   20.1540  -21.4216   -9.1501 N   0  0  0  0  0  0  0  0  0  0  0  0
   21.0308  -20.8585  -10.1135 C   0  0  0  0  0  0  0  0  0  0  0  0
   20.6081  -20.6655  -11.3309 N   0  0  0  0  0  0  0  0  0  0  0  0
   22.3675  -20.4839   -9.8307 N   0  0  0  0  0  0  0  0  0  0  0  0
   23.0299  -20.8126   -8.5899 C   0  0  0  0  0  0  0  0  0  0  0  0
   24.4344  -20.2696   -8.5108 C   0  0  0  0  0  0  0  0  0  0  0  0
   25.2209  -20.7486   -9.7012 C   0  0  0  0  0  0  0  0  0  0  0  0
   26.6550  -20.2458   -9.6689 C   0  0  2  0  0  0  0  0  0  0  0  0
   27.3983  -20.6190  -10.8182 N   0  0  0  0  0  0  0  0  0  0  0  0
   27.2186  -20.6065   -8.3544 C   0  0  0  0  0  0  0  0  0  0  0  0
   27.3757  -21.8855   -8.2143 O   0  0  0  0  0  0  0  0  0  0  0  0
   21.2026  -20.3079  -12.0850 N   0  0  0  0  0  0  0  0  0  0  0  0
   27.5878  -19.8072   -7.2899 C   0  0  0  0  0  0  0  0  0  0  0  0
   27.4504  -18.3947   -7.0942 C   0  0  0  0  0  0  0  0  0  0  0  0
   28.8226  -18.0761   -6.4661 C   0  0  0  0  0  0  0  0  0  0  0  0
   28.9148  -19.1443   -5.4234 C   0  0  2  0  0  0  0  0  0  0  0  0
   28.2397  -20.3107   -6.0646 C   0  0  0  0  0  0  0  0  0  0  0  0
   27.2274  -20.9457   -5.1834 O   0  0  0  0  0  0  0  0  0  0  0  0
   25.9033  -20.8371   -5.5171 O   0  0  0  0  0  0  0  0  0  0  0  0
  1  2  1  0
  3  2  1  0
  4  5  1  0
  4  3  1  0
  5  1  1  0
  5  6  1  1
  6  7  2  0
  8  9  1  0
  9 11  1  0
 10  9  2  0
 11 12  1  0
 12 13  1  0
 15 14  1  6
 14 13  1  0
 15 16  1  0
 16  6  1  0
 17 15  1  0
 18 17  2  0
 19 20  1  0
 19 17  1  0
 21 20  1  0
 22 23  1  0
 22 21  1  0
 23 19  1  0
 24 25  1  0
 23 24  1  1
 26 24  2  0
M  END
$$$$
