PRP.pdb
     RDKit          3D

 26 27  0  0  1  0  0  0  0  0999 V2000
   29.6538  -22.5561  -17.1229 N   0  0  0  0  0  0  0  0  0  0  0  0
   30.2859  -23.7936  -17.4844 C   0  0  0  0  0  0  0  0  0  0  0  0
   29.2197  -24.8621  -17.5197 C   0  0  0  0  0  0  0  0  0  0  0  0
   28.0976  -24.2023  -16.7074 C   0  0  0  0  0  0  0  0  0  0  0  0
   28.2231  -22.7797  -17.1163 C   0  0  1  0  0  0  0  0  0  0  0  0
   27.5205  -21.8057  -16.2742 C   0  0  0  0  0  0  0  0  0  0  0  0
   28.1001  -21.3269  -15.2409 O   0  0  0  0  0  0  0  0  0  0  0  0
   19.6916  -19.2652  -15.0631 N   0  0  0  0  0  0  0  0  0  0  0  0
   20.2431  -18.0025  -14.7231 C   0  0  0  0  0  0  0  0  0  0  0  0
   19.5687  -17.1930  -13.9564 N   0  0  0  0  0  0  0  0  0  0  0  0
   21.5093  -17.5547  -15.1740 N   0  0  0  0  0  0  0  0  0  0  0  0
   22.3536  -18.3358  -16.0478 C   0  0  0  0  0  0  0  0  0  0  0  0
   23.5552  -18.9132  -15.3433 C   0  0  0  0  0  0  0  0  0  0  0  0
   24.3567  -19.7338  -16.3178 C   0  0  0  0  0  0  0  0  0  0  0  0
   25.4650  -20.5091  -15.6242 C   0  0  2  0  0  0  0  0  0  0  0  0
   26.2070  -21.3287  -16.5132 N   0  0  0  0  0  0  0  0  0  0  0  0
   24.8727  -21.1609  -14.4410 C   0  0  0  0  0  0  0  0  0  0  0  0
   24.1581  -22.1974  -14.7494 O   0  0  0  0  0  0  0  0  0  0  0  0
   19.9547  -16.3237  -13.5753 N   0  0  0  0  0  0  0  0  0  0  0  0
   24.9649  -20.8366  -13.1014 C   0  0  0  0  0  0  0  0  0  0  0  0
   25.7141  -19.8094  -12.4412 C   0  0  0  0  0  0  0  0  0  0  0  0
   26.2292  -20.5964  -11.2188 C   0  0  0  0  0  0  0  0  0  0  0  0
   24.9716  -21.2598  -10.7550 C   0  0  2  0  0  0  0  0  0  0  0  0
   24.2456  -21.5488  -12.0266 C   0  0  0  0  0  0  0  0  0  0  0  0
   22.8287  -21.1063  -11.9937 O   0  0  0  0  0  0  0  0  0  0  0  0
   21.9503  -21.7706  -11.1792 O   0  0  0  0  0  0  0  0  0  0  0  0
  1  2  1  0
  3  2  1  0
  4  5  1  0
  4  3  1  0
  5  1  1  0
  5  6  1  1
  6  7  2  0
  8  9  1  0
  9 11  1  0
 10  9  2  0
 11 12  1  0
 12 13  1  0
 15 14  1  6
 14 13  1  0
 15 16  1  0
 16  6  1  0
 17 15  1  0
 18 17  2  0
 19 20  1  0
 19 17  1  0
 21 20  1  0
 22 23  1  0
 22 21  1  0
 23 19  1  0
 24 25  1  0
 23 24  1  1
 26 24  2  0
M  END
$$$$
