PRP.pdb
     RDKit          3D

 26 27  0  0  1  0  0  0  0  0999 V2000
   20.8469  -20.3797  -16.0452 N   0  0  0  0  0  0  0  0  0  0  0  0
   19.6609  -21.1680  -15.8613 C   0  0  0  0  0  0  0  0  0  0  0  0
   18.7448  -20.4113  -14.9299 C   0  0  0  0  0  0  0  0  0  0  0  0
   19.7183  -19.4172  -14.2832 C   0  0  0  0  0  0  0  0  0  0  0  0
   20.6207  -19.0941  -15.4182 C   0  0  1  0  0  0  0  0  0  0  0  0
   21.8789  -18.4267  -15.0677 C   0  0  0  0  0  0  0  0  0  0  0  0
   21.8523  -17.2788  -14.5069 O   0  0  0  0  0  0  0  0  0  0  0  0
   24.7759  -23.7352  -14.7495 N   0  0  0  0  0  0  0  0  0  0  0  0
   26.0630  -23.5045  -15.3012 C   0  0  0  0  0  0  0  0  0  0  0  0
   26.4590  -24.2093  -16.3231 N   0  0  0  0  0  0  0  0  0  0  0  0
   26.9663  -22.5346  -14.8008 N   0  0  0  0  0  0  0  0  0  0  0  0
   26.5350  -21.3393  -14.1141 C   0  0  0  0  0  0  0  0  0  0  0  0
   25.5859  -20.5007  -14.9323 C   0  0  0  0  0  0  0  0  0  0  0  0
   25.3706  -19.1790  -14.2451 C   0  0  0  0  0  0  0  0  0  0  0  0
   24.3907  -18.3008  -15.0061 C   0  0  2  0  0  0  0  0  0  0  0  0
   23.1707  -18.9613  -15.3029 N   0  0  0  0  0  0  0  0  0  0  0  0
   25.1241  -17.6987  -16.1354 C   0  0  0  0  0  0  0  0  0  0  0  0
   24.9568  -18.3520  -17.2423 O   0  0  0  0  0  0  0  0  0  0  0  0
   27.3591  -24.0677  -16.7918 N   0  0  0  0  0  0  0  0  0  0  0  0
   25.9349  -16.5813  -16.1810 C   0  0  0  0  0  0  0  0  0  0  0  0
   26.4228  -15.7409  -15.1283 C   0  0  0  0  0  0  0  0  0  0  0  0
   26.2417  -14.3567  -15.7841 C   0  0  0  0  0  0  0  0  0  0  0  0
   26.8523  -14.5950  -17.1285 C   0  0  2  0  0  0  0  0  0  0  0  0
   26.4893  -16.0119  -17.4253 C   0  0  0  0  0  0  0  0  0  0  0  0
   27.6504  -16.8219  -17.8729 O   0  0  0  0  0  0  0  0  0  0  0  0
   28.2037  -16.5585  -19.0980 O   0  0  0  0  0  0  0  0  0  0  0  0
  1  2  1  0
  3  2  1  0
  4  5  1  0
  4  3  1  0
  5  1  1  0
  5  6  1  1
  6  7  2  0
  8  9  1  0
  9 11  1  0
 10  9  2  0
 11 12  1  0
 12 13  1  0
 15 14  1  6
 14 13  1  0
 15 16  1  0
 16  6  1  0
 17 15  1  0
 18 17  2  0
 19 20  1  0
 19 17  1  0
 21 20  1  0
 22 23  1  0
 22 21  1  0
 23 19  1  0
 24 25  1  0
 23 24  1  1
 26 24  2  0
M  END
$$$$
