PRP.pdb
     RDKit          3D

 26 27  0  0  1  0  0  0  0  0999 V2000
   43.2773  -14.7571  -10.2333 N   0  0  0  0  0  0  0  0  0  0  0  0
   44.1277  -15.8656  -10.5648 C   0  0  0  0  0  0  0  0  0  0  0  0
   44.0346  -16.8697   -9.4411 C   0  0  0  0  0  0  0  0  0  0  0  0
   43.4570  -16.0099   -8.3090 C   0  0  0  0  0  0  0  0  0  0  0  0
   42.5268  -15.1189   -9.0489 C   0  0  1  0  0  0  0  0  0  0  0  0
   42.0526  -13.9382   -8.3191 C   0  0  0  0  0  0  0  0  0  0  0  0
   41.3047  -14.0855   -7.2935 O   0  0  0  0  0  0  0  0  0  0  0  0
   44.3445   -9.4913   -3.4950 N   0  0  0  0  0  0  0  0  0  0  0  0
   45.5939   -9.7803   -4.1029 C   0  0  0  0  0  0  0  0  0  0  0  0
   46.6272  -10.0415   -3.3532 N   0  0  0  0  0  0  0  0  0  0  0  0
   45.7950   -9.8037   -5.5050 N   0  0  0  0  0  0  0  0  0  0  0  0
   44.7465   -9.5105   -6.4543 C   0  0  0  0  0  0  0  0  0  0  0  0
   43.7914  -10.6608   -6.6501 C   0  0  0  0  0  0  0  0  0  0  0  0
   42.8802  -10.3591   -7.8094 C   0  0  0  0  0  0  0  0  0  0  0  0
   41.8413  -11.4507   -8.0088 C   0  0  2  0  0  0  0  0  0  0  0  0
   42.3620  -12.5977   -8.6614 N   0  0  0  0  0  0  0  0  0  0  0  0
   40.6480  -10.8197   -8.6033 C   0  0  0  0  0  0  0  0  0  0  0  0
   40.7166  -10.7441   -9.8954 O   0  0  0  0  0  0  0  0  0  0  0  0
   47.5394  -10.3212   -3.7268 N   0  0  0  0  0  0  0  0  0  0  0  0
   39.5108  -10.3147   -8.0033 C   0  0  0  0  0  0  0  0  0  0  0  0
   39.1402  -10.2432   -6.6213 C   0  0  0  0  0  0  0  0  0  0  0  0
   37.6535  -10.6414   -6.7210 C   0  0  0  0  0  0  0  0  0  0  0  0
   37.1968   -9.7632   -7.8422 C   0  0  2  0  0  0  0  0  0  0  0  0
   38.3861   -9.7070   -8.7420 C   0  0  0  0  0  0  0  0  0  0  0  0
   38.7401   -8.3218   -9.1424 O   0  0  0  0  0  0  0  0  0  0  0  0
   38.0747   -7.7501  -10.1944 O   0  0  0  0  0  0  0  0  0  0  0  0
  1  2  1  0
  3  2  1  0
  4  5  1  0
  4  3  1  0
  5  1  1  0
  5  6  1  1
  6  7  2  0
  8  9  1  0
  9 11  1  0
 10  9  2  0
 11 12  1  0
 12 13  1  0
 15 14  1  6
 14 13  1  0
 15 16  1  0
 16  6  1  0
 17 15  1  0
 18 17  2  0
 19 20  1  0
 19 17  1  0
 21 20  1  0
 22 23  1  0
 22 21  1  0
 23 19  1  0
 24 25  1  0
 23 24  1  1
 26 24  2  0
M  END
$$$$
