PRP.pdb
     RDKit          3D

 26 27  0  0  1  0  0  0  0  0999 V2000
   26.7175  -14.3924  -17.1093 N   0  0  0  0  0  0  0  0  0  0  0  0
   26.2729  -13.0315  -17.2182 C   0  0  0  0  0  0  0  0  0  0  0  0
   25.3724  -12.7456  -16.0405 C   0  0  0  0  0  0  0  0  0  0  0  0
   25.0104  -14.1638  -15.5801 C   0  0  0  0  0  0  0  0  0  0  0  0
   26.2802  -14.8953  -15.8236 C   0  0  1  0  0  0  0  0  0  0  0  0
   26.1902  -16.3592  -15.8100 C   0  0  0  0  0  0  0  0  0  0  0  0
   25.8729  -16.9843  -16.8784 O   0  0  0  0  0  0  0  0  0  0  0  0
   26.9885  -21.2870   -8.8294 N   0  0  0  0  0  0  0  0  0  0  0  0
   25.7387  -20.9310   -9.3999 C   0  0  0  0  0  0  0  0  0  0  0  0
   24.6899  -20.8265   -8.6336 N   0  0  0  0  0  0  0  0  0  0  0  0
   25.5533  -20.6759  -10.7810 N   0  0  0  0  0  0  0  0  0  0  0  0
   26.4648  -21.1489  -11.7968 C   0  0  0  0  0  0  0  0  0  0  0  0
   26.1404  -20.6198  -13.1710 C   0  0  0  0  0  0  0  0  0  0  0  0
   26.4662  -19.1515  -13.2286 C   0  0  0  0  0  0  0  0  0  0  0  0
   26.0383  -18.5304  -14.5484 C   0  0  2  0  0  0  0  0  0  0  0  0
   26.4339  -17.1739  -14.6756 N   0  0  0  0  0  0  0  0  0  0  0  0
   24.6076  -18.8364  -14.7357 C   0  0  0  0  0  0  0  0  0  0  0  0
   23.8359  -18.0328  -14.0733 O   0  0  0  0  0  0  0  0  0  0  0  0
   23.7598  -20.5734   -8.9811 N   0  0  0  0  0  0  0  0  0  0  0  0
   23.9945  -19.8207  -15.4863 C   0  0  0  0  0  0  0  0  0  0  0  0
   24.5556  -20.8968  -16.2476 C   0  0  0  0  0  0  0  0  0  0  0  0
   23.6588  -20.8352  -17.5009 C   0  0  0  0  0  0  0  0  0  0  0  0
   22.3013  -20.7595  -16.8779 C   0  0  2  0  0  0  0  0  0  0  0  0
   22.5324  -19.9488  -15.6463 C   0  0  0  0  0  0  0  0  0  0  0  0
   21.9480  -20.5695  -14.4306 O   0  0  0  0  0  0  0  0  0  0  0  0
   22.7637  -21.2996  -13.6073 O   0  0  0  0  0  0  0  0  0  0  0  0
  1  2  1  0
  3  2  1  0
  4  5  1  0
  4  3  1  0
  5  1  1  0
  5  6  1  6
  6  7  2  0
  8  9  1  0
  9 11  1  0
 10  9  2  0
 11 12  1  0
 12 13  1  0
 15 14  1  1
 14 13  1  0
 15 16  1  0
 16  6  1  0
 17 15  1  0
 18 17  2  0
 19 20  1  0
 19 17  1  0
 21 20  1  0
 22 23  1  0
 22 21  1  0
 23 19  1  0
 24 25  1  0
 23 24  1  1
 26 24  2  0
M  END
$$$$
