PRP.pdb
     RDKit          3D

 26 27  0  0  1  0  0  0  0  0999 V2000
   25.0306  -25.3719  -16.4823 N   0  0  0  0  0  0  0  0  0  0  0  0
   25.2904  -26.7739  -16.3129 C   0  0  0  0  0  0  0  0  0  0  0  0
   24.0210  -27.4204  -15.8127 C   0  0  0  0  0  0  0  0  0  0  0  0
   23.2414  -26.2046  -15.2948 C   0  0  0  0  0  0  0  0  0  0  0  0
   23.6112  -25.1620  -16.2863 C   0  0  1  0  0  0  0  0  0  0  0  0
   23.3098  -23.7781  -15.9049 C   0  0  0  0  0  0  0  0  0  0  0  0
   22.0994  -23.3687  -15.9112 O   0  0  0  0  0  0  0  0  0  0  0  0
   25.4322  -19.0952   -9.2140 N   0  0  0  0  0  0  0  0  0  0  0  0
   25.4309  -20.5103   -9.3211 C   0  0  0  0  0  0  0  0  0  0  0  0
   25.2038  -21.2340   -8.2615 N   0  0  0  0  0  0  0  0  0  0  0  0
   25.6662  -21.2034  -10.5341 N   0  0  0  0  0  0  0  0  0  0  0  0
   25.6183  -20.5623  -11.8275 C   0  0  0  0  0  0  0  0  0  0  0  0
   24.6081  -21.1868  -12.7567 C   0  0  0  0  0  0  0  0  0  0  0  0
   24.9922  -20.8898  -14.1813 C   0  0  0  0  0  0  0  0  0  0  0  0
   23.9929  -21.4719  -15.1678 C   0  0  2  0  0  0  0  0  0  0  0  0
   24.2769  -22.8180  -15.5140 N   0  0  0  0  0  0  0  0  0  0  0  0
   23.8520  -20.5061  -16.2737 C   0  0  0  0  0  0  0  0  0  0  0  0
   24.7963  -20.6172  -17.1547 O   0  0  0  0  0  0  0  0  0  0  0  0
   25.1394  -22.2565   -8.2793 N   0  0  0  0  0  0  0  0  0  0  0  0
   22.8952  -19.5350  -16.4965 C   0  0  0  0  0  0  0  0  0  0  0  0
   21.7910  -19.1124  -15.6874 C   0  0  0  0  0  0  0  0  0  0  0  0
   20.7064  -18.9578  -16.7730 C   0  0  0  0  0  0  0  0  0  0  0  0
   21.4457  -18.1674  -17.8054 C   0  0  2  0  0  0  0  0  0  0  0  0
   22.8400  -18.6903  -17.7062 C   0  0  0  0  0  0  0  0  0  0  0  0
   23.8543  -17.6103  -17.6096 O   0  0  0  0  0  0  0  0  0  0  0  0
   24.4590  -17.3811  -16.4021 O   0  0  0  0  0  0  0  0  0  0  0  0
  1  2  1  0
  3  2  1  0
  4  5  1  0
  4  3  1  0
  5  1  1  0
  5  6  1  1
  6  7  2  0
  8  9  1  0
  9 11  1  0
 10  9  2  0
 11 12  1  0
 12 13  1  0
 15 14  1  1
 14 13  1  0
 15 16  1  0
 16  6  1  0
 17 15  1  0
 18 17  2  0
 19 20  1  0
 19 17  1  0
 21 20  1  0
 22 23  1  0
 22 21  1  0
 23 19  1  0
 24 25  1  0
 23 24  1  1
 26 24  2  0
M  END
$$$$
