MHG.pdb
     RDKit          3D

 23 23  0  0  1  0  0  0  0  0999 V2000
    6.1265  -10.7497   26.4193 C   0  0  0  0  0  0  0  0  0  0  0  0
    7.0362  -12.2260   26.9323 S   0  0  0  0  0  0  0  0  0  0  0  0
    6.0826  -13.7340   26.5856 C   0  0  0  0  0  0  0  0  0  0  0  0
    6.3955  -14.2706   25.2076 C   0  0  0  0  0  0  0  0  0  0  0  0
    7.5226  -15.2636   25.3492 C   0  0  2  0  0  0  0  0  0  0  0  0
    8.6510  -14.5715   25.9171 N   0  0  0  0  0  0  0  0  0  0  0  0
    7.8638  -15.8951   24.0398 C   0  0  0  0  0  0  0  0  0  0  0  0
    7.0759  -16.5965   23.3935 O   0  0  0  0  0  0  0  0  0  0  0  0
    9.1616  -15.6836   23.5005 N   0  0  0  0  0  0  0  0  0  0  0  0
    9.5645  -16.2827   22.2242 C   0  0  1  0  0  0  0  0  0  0  0  0
    9.9839  -15.2161   21.2380 C   0  0  0  0  0  0  0  0  0  0  0  0
    8.8568  -14.5237   20.6140 C   0  0  0  0  0  0  0  0  0  0  0  0
    7.5336  -14.8395   20.8156 C   0  0  0  0  0  0  0  0  0  0  0  0
    6.7952  -14.0015   20.0886 N   0  0  0  0  0  0  0  0  0  0  0  0
    7.6057  -13.1521   19.4221 C   0  0  0  0  0  0  0  0  0  0  0  0
    8.8739  -13.4918   19.7606 N   0  0  0  0  0  0  0  0  0  0  0  0
   10.7280  -17.1506   22.4622 C   0  0  0  0  0  0  0  0  0  0  0  0
   11.3021  -17.7057   21.5058 O   0  0  0  0  0  0  0  0  0  0  0  0
   11.1967  -17.3562   23.7762 N   0  0  0  0  0  0  0  0  0  0  0  0
   12.3339  -18.2294   24.0688 C   0  0  0  0  0  0  0  0  0  0  0  0
   11.8493  -19.3522   24.8702 C   0  0  0  0  0  0  0  0  0  0  0  0
   12.6338  -19.9316   25.8559 O   0  0  0  0  0  0  0  0  0  0  0  0
   10.6794  -19.7958   24.6457 O   0  0  0  0  0  0  0  0  0  0  0  0
  1  2  1  0
  3  2  1  0
  4  3  1  0
  5  4  1  0
  5  7  1  0
  5  6  1  6
  7  8  2  0
  7  9  1  0
  9 10  1  0
 10 17  1  0
 10 11  1  6
 12 11  1  0
 12 13  2  0
 14 13  1  0
 15 14  1  0
 16 15  2  0
 16 12  1  0
 17 19  1  0
 17 18  2  0
 19 20  1  0
 21 20  1  0
 21 22  1  0
 23 21  2  0
M  END
$$$$
