MHG.pdb
     RDKit          3D

 23 23  0  0  1  0  0  0  0  0999 V2000
    7.3952  -11.7156   20.3688 C   0  0  0  0  0  0  0  0  0  0  0  0
    6.9534  -12.6682   18.8965 S   0  0  0  0  0  0  0  0  0  0  0  0
    8.3505  -13.6852   18.3331 C   0  0  0  0  0  0  0  0  0  0  0  0
    8.9416  -14.4784   19.4761 C   0  0  0  0  0  0  0  0  0  0  0  0
   10.0313  -15.3543   18.9086 C   0  0  2  0  0  0  0  0  0  0  0  0
    9.4287  -16.2383   17.9441 N   0  0  0  0  0  0  0  0  0  0  0  0
   10.7412  -16.1103   19.9829 C   0  0  0  0  0  0  0  0  0  0  0  0
   11.3237  -15.5676   20.9298 O   0  0  0  0  0  0  0  0  0  0  0  0
   10.7527  -17.5302   19.9212 N   0  0  0  0  0  0  0  0  0  0  0  0
   11.4495  -18.3322   20.9319 C   0  0  1  0  0  0  0  0  0  0  0  0
   11.2992  -19.8090   20.6440 C   0  0  0  0  0  0  0  0  0  0  0  0
   11.7681  -20.6656   21.7328 C   0  0  0  0  0  0  0  0  0  0  0  0
   12.2131  -20.2112   22.9521 C   0  0  0  0  0  0  0  0  0  0  0  0
   12.5562  -21.2697   23.6855 N   0  0  0  0  0  0  0  0  0  0  0  0
   12.3451  -22.3967   22.9728 C   0  0  0  0  0  0  0  0  0  0  0  0
   11.8585  -22.0012   21.7706 N   0  0  0  0  0  0  0  0  0  0  0  0
   12.8840  -18.0118   20.8747 C   0  0  0  0  0  0  0  0  0  0  0  0
   13.4760  -17.9796   19.7789 O   0  0  0  0  0  0  0  0  0  0  0  0
   13.5932  -17.7399   22.0629 N   0  0  0  0  0  0  0  0  0  0  0  0
   15.0144  -17.3914   22.0581 C   0  0  0  0  0  0  0  0  0  0  0  0
   15.4525  -17.2545   23.4463 C   0  0  0  0  0  0  0  0  0  0  0  0
   14.5658  -17.3923   24.5035 O   0  0  0  0  0  0  0  0  0  0  0  0
   16.6778  -17.0033   23.6726 O   0  0  0  0  0  0  0  0  0  0  0  0
  1  2  1  0
  3  2  1  0
  4  3  1  0
  5  4  1  0
  5  7  1  0
  5  6  1  6
  7  8  2  0
  7  9  1  0
  9 10  1  0
 10 17  1  0
 10 11  1  6
 12 11  1  0
 12 13  2  0
 14 13  1  0
 15 14  1  0
 16 15  2  0
 16 12  1  0
 17 19  1  0
 17 18  2  0
 19 20  1  0
 21 20  1  0
 21 22  1  0
 23 21  2  0
M  END
$$$$
