MHG.pdb
     RDKit          3D

 23 23  0  0  1  0  0  0  0  0999 V2000
    8.5298  -12.5779   28.1933 C   0  0  0  0  0  0  0  0  0  0  0  0
    6.8993  -12.1467   27.5407 S   0  0  0  0  0  0  0  0  0  0  0  0
    6.2938  -13.4250   26.3994 C   0  0  0  0  0  0  0  0  0  0  0  0
    7.4253  -14.3035   25.9168 C   0  0  0  0  0  0  0  0  0  0  0  0
    6.8493  -15.2894   24.9305 C   0  0  2  0  0  0  0  0  0  0  0  0
    5.8905  -16.1047   25.6312 N   0  0  0  0  0  0  0  0  0  0  0  0
    7.9181  -16.1163   24.2952 C   0  0  0  0  0  0  0  0  0  0  0  0
    8.1798  -17.2757   24.6384 O   0  0  0  0  0  0  0  0  0  0  0  0
    8.6801  -15.5477   23.2388 N   0  0  0  0  0  0  0  0  0  0  0  0
    9.8077  -16.2675   22.6383 C   0  0  1  0  0  0  0  0  0  0  0  0
   10.1435  -15.7014   21.2770 C   0  0  0  0  0  0  0  0  0  0  0  0
    9.0665  -15.8561   20.2997 C   0  0  0  0  0  0  0  0  0  0  0  0
    8.1345  -16.8673   20.3133 C   0  0  0  0  0  0  0  0  0  0  0  0
    7.3156  -16.6861   19.2775 N   0  0  0  0  0  0  0  0  0  0  0  0
    7.6933  -15.5846   18.5944 C   0  0  0  0  0  0  0  0  0  0  0  0
    8.7758  -15.0876   19.2422 N   0  0  0  0  0  0  0  0  0  0  0  0
   10.9876  -16.0879   23.4980 C   0  0  0  0  0  0  0  0  0  0  0  0
   11.1224  -15.0460   24.1680 O   0  0  0  0  0  0  0  0  0  0  0  0
   11.9705  -17.0968   23.5656 N   0  0  0  0  0  0  0  0  0  0  0  0
   13.1049  -17.0174   24.4866 C   0  0  0  0  0  0  0  0  0  0  0  0
   13.9052  -18.2304   24.3261 C   0  0  0  0  0  0  0  0  0  0  0  0
   13.5377  -19.2294   23.4372 O   0  0  0  0  0  0  0  0  0  0  0  0
   14.9594  -18.3571   25.0249 O   0  0  0  0  0  0  0  0  0  0  0  0
  1  2  1  0
  3  2  1  0
  4  3  1  0
  5  4  1  0
  5  7  1  0
  5  6  1  1
  7  8  2  0
  7  9  1  0
  9 10  1  0
 10 17  1  0
 10 11  1  6
 12 11  1  0
 12 13  2  0
 14 13  1  0
 15 14  1  0
 16 15  2  0
 16 12  1  0
 17 19  1  0
 17 18  2  0
 19 20  1  0
 21 20  1  0
 21 22  1  0
 23 21  2  0
M  END
$$$$
