MHG.pdb
     RDKit          3D

 23 23  0  0  1  0  0  0  0  0999 V2000
    8.3007  -12.7061   28.3410 C   0  0  0  0  0  0  0  0  0  0  0  0
    6.7982  -12.2379   27.4501 S   0  0  0  0  0  0  0  0  0  0  0  0
    6.2202  -13.5939   26.3868 C   0  0  0  0  0  0  0  0  0  0  0  0
    7.3825  -14.3073   25.7350 C   0  0  0  0  0  0  0  0  0  0  0  0
    6.8188  -15.2389   24.6905 C   0  0  2  0  0  0  0  0  0  0  0  0
    6.0028  -16.2156   25.3652 N   0  0  0  0  0  0  0  0  0  0  0  0
    7.9019  -15.8827   23.8892 C   0  0  0  0  0  0  0  0  0  0  0  0
    8.1565  -17.0926   23.9319 O   0  0  0  0  0  0  0  0  0  0  0  0
    8.6869  -15.0682   23.0287 N   0  0  0  0  0  0  0  0  0  0  0  0
    9.6715  -15.6532   22.1129 C   0  0  1  0  0  0  0  0  0  0  0  0
   10.0121  -14.6871   21.0008 C   0  0  0  0  0  0  0  0  0  0  0  0
    8.8656  -14.3340   20.1641 C   0  0  0  0  0  0  0  0  0  0  0  0
    7.7183  -15.0836   20.0491 C   0  0  0  0  0  0  0  0  0  0  0  0
    6.8995  -14.4557   19.2055 N   0  0  0  0  0  0  0  0  0  0  0  0
    7.4868  -13.3200   18.7721 C   0  0  0  0  0  0  0  0  0  0  0  0
    8.6995  -13.2642   19.3759 N   0  0  0  0  0  0  0  0  0  0  0  0
   10.9076  -15.9200   22.8643 C   0  0  0  0  0  0  0  0  0  0  0  0
   11.9310  -16.3093   22.2698 O   0  0  0  0  0  0  0  0  0  0  0  0
   10.9363  -15.7353   24.2621 N   0  0  0  0  0  0  0  0  0  0  0  0
   12.1521  -15.9435   25.0494 C   0  0  0  0  0  0  0  0  0  0  0  0
   12.1616  -17.3308   25.5108 C   0  0  0  0  0  0  0  0  0  0  0  0
   13.1024  -17.7854   26.4226 O   0  0  0  0  0  0  0  0  0  0  0  0
   11.2804  -18.1261   25.0562 O   0  0  0  0  0  0  0  0  0  0  0  0
  1  2  1  0
  3  2  1  0
  4  3  1  0
  5  4  1  0
  5  7  1  0
  5  6  1  1
  7  8  2  0
  7  9  1  0
  9 10  1  0
 10 17  1  0
 10 11  1  6
 12 11  1  0
 12 13  2  0
 14 13  1  0
 15 14  1  0
 16 15  2  0
 16 12  1  0
 17 19  1  0
 17 18  2  0
 19 20  1  0
 21 20  1  0
 21 22  1  0
 23 21  2  0
M  END
$$$$
