MHG.pdb
     RDKit          3D

 23 23  0  0  1  0  0  0  0  0999 V2000
    6.7017  -11.4671   27.0415 C   0  0  0  0  0  0  0  0  0  0  0  0
    7.3643  -13.0292   27.6669 S   0  0  0  0  0  0  0  0  0  0  0  0
    6.5677  -14.4477   26.8564 C   0  0  0  0  0  0  0  0  0  0  0  0
    7.5421  -15.1818   25.9640 C   0  0  0  0  0  0  0  0  0  0  0  0
    6.8472  -15.4492   24.6516 C   0  0  2  0  0  0  0  0  0  0  0  0
    5.8041  -16.4127   24.8936 N   0  0  0  0  0  0  0  0  0  0  0  0
    7.8068  -15.9237   23.6106 C   0  0  0  0  0  0  0  0  0  0  0  0
    7.8953  -17.1037   23.2498 O   0  0  0  0  0  0  0  0  0  0  0  0
    8.6681  -14.9744   22.9966 N   0  0  0  0  0  0  0  0  0  0  0  0
    9.6984  -15.3869   22.0381 C   0  0  1  0  0  0  0  0  0  0  0  0
    9.8945  -14.3324   20.9723 C   0  0  0  0  0  0  0  0  0  0  0  0
    8.7551  -14.2024   20.0646 C   0  0  0  0  0  0  0  0  0  0  0  0
    8.1095  -13.0218   19.7805 C   0  0  0  0  0  0  0  0  0  0  0  0
    7.1272  -13.2868   18.9196 N   0  0  0  0  0  0  0  0  0  0  0  0
    7.1205  -14.6074   18.6394 C   0  0  0  0  0  0  0  0  0  0  0  0
    8.1332  -15.1539   19.3565 N   0  0  0  0  0  0  0  0  0  0  0  0
   10.9730  -15.5348   22.7572 C   0  0  0  0  0  0  0  0  0  0  0  0
   11.6020  -14.5267   23.1320 O   0  0  0  0  0  0  0  0  0  0  0  0
   11.4864  -16.8208   23.0243 N   0  0  0  0  0  0  0  0  0  0  0  0
   12.7400  -17.0224   23.7516 C   0  0  0  0  0  0  0  0  0  0  0  0
   12.8950  -18.4549   24.0000 C   0  0  0  0  0  0  0  0  0  0  0  0
   14.0342  -18.9675   24.6018 O   0  0  0  0  0  0  0  0  0  0  0  0
   11.9545  -19.2352   23.6501 O   0  0  0  0  0  0  0  0  0  0  0  0
  1  2  1  0
  3  2  1  0
  4  3  1  0
  5  4  1  0
  5  7  1  0
  5  6  1  1
  7  8  2  0
  7  9  1  0
  9 10  1  0
 10 17  1  0
 10 11  1  6
 12 11  1  0
 12 13  2  0
 14 13  1  0
 15 14  1  0
 16 15  2  0
 16 12  1  0
 17 19  1  0
 17 18  2  0
 19 20  1  0
 21 20  1  0
 21 22  1  0
 23 21  2  0
M  END
$$$$
