MHG.pdb
     RDKit          3D

 23 23  0  0  1  0  0  0  0  0999 V2000
    7.1181  -10.7236   27.9306 C   0  0  0  0  0  0  0  0  0  0  0  0
    6.3748  -11.6024   26.5358 S   0  0  0  0  0  0  0  0  0  0  0  0
    6.9676  -13.3187   26.4547 C   0  0  0  0  0  0  0  0  0  0  0  0
    6.3320  -14.0597   25.3006 C   0  0  0  0  0  0  0  0  0  0  0  0
    6.9554  -15.4324   25.2405 C   0  0  2  0  0  0  0  0  0  0  0  0
    8.0283  -15.4716   26.2009 N   0  0  0  0  0  0  0  0  0  0  0  0
    7.4343  -15.7565   23.8638 C   0  0  0  0  0  0  0  0  0  0  0  0
    6.6983  -15.7693   22.8696 O   0  0  0  0  0  0  0  0  0  0  0  0
    8.8085  -16.0680   23.6776 N   0  0  0  0  0  0  0  0  0  0  0  0
    9.3564  -16.3348   22.3439 C   0  0  1  0  0  0  0  0  0  0  0  0
    9.9214  -15.0727   21.7322 C   0  0  0  0  0  0  0  0  0  0  0  0
    8.9344  -14.2959   20.9830 C   0  0  0  0  0  0  0  0  0  0  0  0
    7.6297  -14.6777   20.7750 C   0  0  0  0  0  0  0  0  0  0  0  0
    7.0327  -13.7281   20.0553 N   0  0  0  0  0  0  0  0  0  0  0  0
    7.9167  -12.7422   19.7923 C   0  0  0  0  0  0  0  0  0  0  0  0
    9.0841  -13.1127   20.3739 N   0  0  0  0  0  0  0  0  0  0  0  0
   10.4606  -17.2976   22.4766 C   0  0  0  0  0  0  0  0  0  0  0  0
   11.3737  -17.3250   21.6293 O   0  0  0  0  0  0  0  0  0  0  0  0
   10.4876  -18.1932   23.5656 N   0  0  0  0  0  0  0  0  0  0  0  0
   11.5226  -19.2183   23.7042 C   0  0  0  0  0  0  0  0  0  0  0  0
   11.3324  -19.8835   24.9922 C   0  0  0  0  0  0  0  0  0  0  0  0
   12.2651  -19.7696   26.0121 O   0  0  0  0  0  0  0  0  0  0  0  0
   10.2824  -20.5788   25.1653 O   0  0  0  0  0  0  0  0  0  0  0  0
  1  2  1  0
  3  2  1  0
  4  3  1  0
  5  4  1  0
  5  7  1  0
  5  6  1  1
  7  8  2  0
  7  9  1  0
  9 10  1  0
 10 17  1  0
 10 11  1  1
 12 11  1  0
 12 13  2  0
 14 13  1  0
 15 14  1  0
 16 15  2  0
 16 12  1  0
 17 19  1  0
 17 18  2  0
 19 20  1  0
 21 20  1  0
 21 22  1  0
 23 21  2  0
M  END
$$$$
