MHG.pdb
     RDKit          3D

 23 23  0  0  1  0  0  0  0  0999 V2000
    6.7619  -11.1728   28.3144 C   0  0  0  0  0  0  0  0  0  0  0  0
    7.2904  -12.1121   26.8622 S   0  0  0  0  0  0  0  0  0  0  0  0
    5.9082  -13.0601   26.1592 C   0  0  0  0  0  0  0  0  0  0  0  0
    6.3139  -13.7392   24.8711 C   0  0  0  0  0  0  0  0  0  0  0  0
    7.3504  -14.7816   25.2112 C   0  0  2  0  0  0  0  0  0  0  0  0
    8.4600  -14.1114   25.8393 N   0  0  0  0  0  0  0  0  0  0  0  0
    7.7787  -15.5433   24.0005 C   0  0  0  0  0  0  0  0  0  0  0  0
    7.0127  -16.2440   23.3275 O   0  0  0  0  0  0  0  0  0  0  0  0
    9.1380  -15.4642   23.5929 N   0  0  0  0  0  0  0  0  0  0  0  0
    9.6356  -16.2269   22.4436 C   0  0  1  0  0  0  0  0  0  0  0  0
   10.1152  -15.2997   21.3497 C   0  0  0  0  0  0  0  0  0  0  0  0
    9.0296  -14.6132   20.6502 C   0  0  0  0  0  0  0  0  0  0  0  0
    7.6960  -14.9260   20.7732 C   0  0  0  0  0  0  0  0  0  0  0  0
    7.0050  -14.0951   19.9933 N   0  0  0  0  0  0  0  0  0  0  0  0
    7.8561  -13.2534   19.3692 C   0  0  0  0  0  0  0  0  0  0  0  0
    9.1006  -13.5903   19.7887 N   0  0  0  0  0  0  0  0  0  0  0  0
   10.7865  -17.0322   22.8803 C   0  0  0  0  0  0  0  0  0  0  0  0
   11.4764  -17.6453   22.0433 O   0  0  0  0  0  0  0  0  0  0  0  0
   11.1117  -17.1117   24.2502 N   0  0  0  0  0  0  0  0  0  0  0  0
   12.2322  -17.9164   24.7383 C   0  0  0  0  0  0  0  0  0  0  0  0
   11.7007  -19.1927   25.2140 C   0  0  0  0  0  0  0  0  0  0  0  0
   12.3263  -19.9074   26.2243 O   0  0  0  0  0  0  0  0  0  0  0  0
   10.6397  -19.6439   24.6788 O   0  0  0  0  0  0  0  0  0  0  0  0
  1  2  1  0
  3  2  1  0
  4  3  1  0
  5  4  1  0
  5  7  1  0
  5  6  1  6
  7  8  2  0
  7  9  1  0
  9 10  1  0
 10 17  1  0
 10 11  1  6
 12 11  1  0
 12 13  2  0
 14 13  1  0
 15 14  1  0
 16 15  2  0
 16 12  1  0
 17 19  1  0
 17 18  2  0
 19 20  1  0
 21 20  1  0
 21 22  1  0
 23 21  2  0
M  END
$$$$
