MHG.pdb
     RDKit          3D

 23 23  0  0  1  0  0  0  0  0999 V2000
    7.4827  -11.1277   19.7155 C   0  0  0  0  0  0  0  0  0  0  0  0
    7.5895  -12.6117   20.7434 S   0  0  0  0  0  0  0  0  0  0  0  0
    8.0163  -14.0688   19.7443 C   0  0  0  0  0  0  0  0  0  0  0  0
    8.0783  -15.3146   20.5981 C   0  0  0  0  0  0  0  0  0  0  0  0
    8.4909  -16.4595   19.7061 C   0  0  2  0  0  0  0  0  0  0  0  0
    7.4337  -16.6784   18.7525 N   0  0  0  0  0  0  0  0  0  0  0  0
    8.7851  -17.6913   20.4971 C   0  0  0  0  0  0  0  0  0  0  0  0
    8.1053  -18.7230   20.4334 O   0  0  0  0  0  0  0  0  0  0  0  0
    9.9047  -17.6861   21.3726 N   0  0  0  0  0  0  0  0  0  0  0  0
   10.2706  -18.8740   22.1505 C   0  0  1  0  0  0  0  0  0  0  0  0
   10.6019  -20.0333   21.2379 C   0  0  0  0  0  0  0  0  0  0  0  0
   11.2693  -19.6289   20.0009 C   0  0  0  0  0  0  0  0  0  0  0  0
   12.1429  -18.5726   19.8904 C   0  0  0  0  0  0  0  0  0  0  0  0
   12.5494  -18.5057   18.6229 N   0  0  0  0  0  0  0  0  0  0  0  0
   11.9619  -19.4908   17.9108 C   0  0  0  0  0  0  0  0  0  0  0  0
   11.1759  -20.1722   18.7805 N   0  0  0  0  0  0  0  0  0  0  0  0
   11.4768  -18.5660   22.9340 C   0  0  0  0  0  0  0  0  0  0  0  0
   12.2255  -17.6312   22.5908 O   0  0  0  0  0  0  0  0  0  0  0  0
   11.7885  -19.3302   24.0775 N   0  0  0  0  0  0  0  0  0  0  0  0
   11.1168  -19.1199   25.3604 C   0  0  0  0  0  0  0  0  0  0  0  0
   12.0690  -19.4267   26.4266 C   0  0  0  0  0  0  0  0  0  0  0  0
   11.7393  -19.2611   27.7633 O   0  0  0  0  0  0  0  0  0  0  0  0
   13.2219  -19.8542   26.1042 O   0  0  0  0  0  0  0  0  0  0  0  0
  1  2  1  0
  3  2  1  0
  4  3  1  0
  5  4  1  0
  5  7  1  0
  5  6  1  6
  7  8  2  0
  7  9  1  0
  9 10  1  0
 10 17  1  0
 10 11  1  6
 12 11  1  0
 12 13  2  0
 14 13  1  0
 15 14  1  0
 16 15  2  0
 16 12  1  0
 17 19  1  0
 17 18  2  0
 19 20  1  0
 21 20  1  0
 21 22  1  0
 23 21  2  0
M  END
$$$$
