MHG.pdb
     RDKit          3D

 23 23  0  0  1  0  0  0  0  0999 V2000
    6.2544  -11.6119   28.1664 C   0  0  0  0  0  0  0  0  0  0  0  0
    7.4386  -12.7824   27.4608 S   0  0  0  0  0  0  0  0  0  0  0  0
    6.7570  -13.5892   25.9816 C   0  0  0  0  0  0  0  0  0  0  0  0
    7.7658  -14.5278   25.3603 C   0  0  0  0  0  0  0  0  0  0  0  0
    7.1071  -15.1852   24.1727 C   0  0  2  0  0  0  0  0  0  0  0  0
    6.0134  -15.9848   24.6620 N   0  0  0  0  0  0  0  0  0  0  0  0
    8.0810  -16.0018   23.3889 C   0  0  0  0  0  0  0  0  0  0  0  0
    8.0452  -17.2370   23.3294 O   0  0  0  0  0  0  0  0  0  0  0  0
    9.1072  -15.3312   22.6697 N   0  0  0  0  0  0  0  0  0  0  0  0
    9.9024  -16.0237   21.6508 C   0  0  1  0  0  0  0  0  0  0  0  0
   10.2131  -15.1021   20.4930 C   0  0  0  0  0  0  0  0  0  0  0  0
    9.0219  -14.6306   19.7876 C   0  0  0  0  0  0  0  0  0  0  0  0
    8.4078  -15.2971   18.7531 C   0  0  0  0  0  0  0  0  0  0  0  0
    7.3601  -14.5726   18.3612 N   0  0  0  0  0  0  0  0  0  0  0  0
    7.2803  -13.4553   19.1148 C   0  0  0  0  0  0  0  0  0  0  0  0
    8.3153  -13.5109   19.9888 N   0  0  0  0  0  0  0  0  0  0  0  0
   11.1821  -16.4288   22.2526 C   0  0  0  0  0  0  0  0  0  0  0  0
   11.9811  -17.1362   21.6096 O   0  0  0  0  0  0  0  0  0  0  0  0
   11.5073  -16.0162   23.5612 N   0  0  0  0  0  0  0  0  0  0  0  0
   12.6963  -16.5070   24.2588 C   0  0  0  0  0  0  0  0  0  0  0  0
   13.8282  -15.6659   23.8726 C   0  0  0  0  0  0  0  0  0  0  0  0
   15.0670  -15.7922   24.4827 O   0  0  0  0  0  0  0  0  0  0  0  0
   13.6563  -14.8036   22.9546 O   0  0  0  0  0  0  0  0  0  0  0  0
  1  2  1  0
  3  2  1  0
  4  3  1  0
  5  4  1  0
  5  7  1  0
  5  6  1  1
  7  8  2  0
  7  9  1  0
  9 10  1  0
 10 17  1  0
 10 11  1  6
 12 11  1  0
 12 13  2  0
 14 13  1  0
 15 14  1  0
 16 15  2  0
 16 12  1  0
 17 19  1  0
 17 18  2  0
 19 20  1  0
 21 20  1  0
 21 22  1  0
 23 21  2  0
M  END
$$$$
