MHG.pdb
     RDKit          3D

 23 23  0  0  1  0  0  0  0  0999 V2000
    5.9455  -12.4943   28.0814 C   0  0  0  0  0  0  0  0  0  0  0  0
    7.2974  -12.2335   26.9089 S   0  0  0  0  0  0  0  0  0  0  0  0
    6.6667  -12.0604   25.2131 C   0  0  0  0  0  0  0  0  0  0  0  0
    6.3854  -13.4117   24.5969 C   0  0  0  0  0  0  0  0  0  0  0  0
    7.5038  -14.3401   25.0017 C   0  0  2  0  0  0  0  0  0  0  0  0
    8.6443  -13.5313   25.3481 N   0  0  0  0  0  0  0  0  0  0  0  0
    7.8265  -15.3143   23.9171 C   0  0  0  0  0  0  0  0  0  0  0  0
    7.0231  -16.1528   23.4906 O   0  0  0  0  0  0  0  0  0  0  0  0
    9.1243  -15.2828   23.3387 N   0  0  0  0  0  0  0  0  0  0  0  0
    9.5106  -16.2204   22.2796 C   0  0  1  0  0  0  0  0  0  0  0  0
    9.9080  -15.4787   21.0233 C   0  0  0  0  0  0  0  0  0  0  0  0
    8.8193  -14.6956   20.4399 C   0  0  0  0  0  0  0  0  0  0  0  0
    7.5212  -15.1311   20.3118 C   0  0  0  0  0  0  0  0  0  0  0  0
    6.8147  -14.1565   19.7399 N   0  0  0  0  0  0  0  0  0  0  0  0
    7.6214  -13.1022   19.4947 C   0  0  0  0  0  0  0  0  0  0  0  0
    8.8542  -13.4559   19.9344 N   0  0  0  0  0  0  0  0  0  0  0  0
   10.6830  -16.9830   22.7355 C   0  0  0  0  0  0  0  0  0  0  0  0
   11.3438  -17.6606   21.9253 O   0  0  0  0  0  0  0  0  0  0  0  0
   11.0617  -16.9482   24.0934 N   0  0  0  0  0  0  0  0  0  0  0  0
   12.2308  -17.6722   24.5938 C   0  0  0  0  0  0  0  0  0  0  0  0
   11.7649  -18.9087   25.2196 C   0  0  0  0  0  0  0  0  0  0  0  0
   12.5766  -19.6396   26.0739 O   0  0  0  0  0  0  0  0  0  0  0  0
   10.5858  -19.3094   24.9646 O   0  0  0  0  0  0  0  0  0  0  0  0
  1  2  1  0
  3  2  1  0
  4  3  1  0
  5  4  1  0
  5  7  1  0
  5  6  1  6
  7  8  2  0
  7  9  1  0
  9 10  1  0
 10 17  1  0
 10 11  1  6
 12 11  1  0
 12 13  2  0
 14 13  1  0
 15 14  1  0
 16 15  2  0
 16 12  1  0
 17 19  1  0
 17 18  2  0
 19 20  1  0
 21 20  1  0
 21 22  1  0
 23 21  2  0
M  END
$$$$
