MHG.pdb
     RDKit          3D

 23 23  0  0  1  0  0  0  0  0999 V2000
    6.2846  -10.9585   27.8157 C   0  0  0  0  0  0  0  0  0  0  0  0
    5.8641  -12.5298   27.0255 S   0  0  0  0  0  0  0  0  0  0  0  0
    6.9657  -12.8694   25.6203 C   0  0  0  0  0  0  0  0  0  0  0  0
    6.5877  -14.1614   24.9327 C   0  0  0  0  0  0  0  0  0  0  0  0
    7.7461  -15.1160   25.0856 C   0  0  2  0  0  0  0  0  0  0  0  0
    8.8621  -14.3738   25.6132 N   0  0  0  0  0  0  0  0  0  0  0  0
    8.0853  -15.7773   23.7905 C   0  0  0  0  0  0  0  0  0  0  0  0
    7.3001  -16.5020   23.1670 O   0  0  0  0  0  0  0  0  0  0  0  0
    9.3779  -15.5677   23.2379 N   0  0  0  0  0  0  0  0  0  0  0  0
    9.7917  -16.2250   21.9942 C   0  0  1  0  0  0  0  0  0  0  0  0
   10.0263  -15.2076   20.9005 C   0  0  0  0  0  0  0  0  0  0  0  0
    8.8056  -14.5321   20.4615 C   0  0  0  0  0  0  0  0  0  0  0  0
    7.5775  -15.1373   20.3323 C   0  0  0  0  0  0  0  0  0  0  0  0
    6.7080  -14.2184   19.9131 N   0  0  0  0  0  0  0  0  0  0  0  0
    7.3411  -13.0350   19.7678 C   0  0  0  0  0  0  0  0  0  0  0  0
    8.6349  -13.2508   20.1114 N   0  0  0  0  0  0  0  0  0  0  0  0
   11.0652  -16.9207   22.2350 C   0  0  0  0  0  0  0  0  0  0  0  0
   11.6232  -17.5443   21.3118 O   0  0  0  0  0  0  0  0  0  0  0  0
   11.6581  -16.8828   23.5139 N   0  0  0  0  0  0  0  0  0  0  0  0
   12.8924  -17.6063   23.8209 C   0  0  0  0  0  0  0  0  0  0  0  0
   14.0205  -16.7247   23.5246 C   0  0  0  0  0  0  0  0  0  0  0  0
   15.2888  -16.9766   24.0255 O   0  0  0  0  0  0  0  0  0  0  0  0
   13.8174  -15.7079   22.7893 O   0  0  0  0  0  0  0  0  0  0  0  0
  1  2  1  0
  3  2  1  0
  4  3  1  0
  5  4  1  0
  5  7  1  0
  5  6  1  6
  7  8  2  0
  7  9  1  0
  9 10  1  0
 10 17  1  0
 10 11  1  6
 12 11  1  0
 12 13  2  0
 14 13  1  0
 15 14  1  0
 16 15  2  0
 16 12  1  0
 17 19  1  0
 17 18  2  0
 19 20  1  0
 21 20  1  0
 21 22  1  0
 23 21  2  0
M  END
$$$$
