MHG.pdb
     RDKit          3D

 23 23  0  0  1  0  0  0  0  0999 V2000
    7.8237  -10.9801   26.6348 C   0  0  0  0  0  0  0  0  0  0  0  0
    6.5490  -12.0808   27.2935 S   0  0  0  0  0  0  0  0  0  0  0  0
    6.0579  -13.3227   26.0606 C   0  0  0  0  0  0  0  0  0  0  0  0
    7.2299  -14.1933   25.6689 C   0  0  0  0  0  0  0  0  0  0  0  0
    6.7896  -15.0596   24.5146 C   0  0  2  0  0  0  0  0  0  0  0  0
    5.6841  -15.8656   24.9651 N   0  0  0  0  0  0  0  0  0  0  0  0
    7.9123  -15.8993   24.0008 C   0  0  0  0  0  0  0  0  0  0  0  0
    8.0369  -17.1036   24.2553 O   0  0  0  0  0  0  0  0  0  0  0  0
    8.8947  -15.2895   23.1743 N   0  0  0  0  0  0  0  0  0  0  0  0
    9.9616  -16.0774   22.5490 C   0  0  1  0  0  0  0  0  0  0  0  0
   10.0926  -15.7365   21.0817 C   0  0  0  0  0  0  0  0  0  0  0  0
    8.9762  -14.9452   20.5655 C   0  0  0  0  0  0  0  0  0  0  0  0
    8.3734  -13.9077   21.2374 C   0  0  0  0  0  0  0  0  0  0  0  0
    7.4008  -13.4263   20.4638 N   0  0  0  0  0  0  0  0  0  0  0  0
    7.3586  -14.1249   19.3094 C   0  0  0  0  0  0  0  0  0  0  0  0
    8.3392  -15.0575   19.3928 N   0  0  0  0  0  0  0  0  0  0  0  0
   11.2362  -15.7374   23.2001 C   0  0  0  0  0  0  0  0  0  0  0  0
   11.8578  -14.7114   22.8637 O   0  0  0  0  0  0  0  0  0  0  0  0
   11.7577  -16.5742   24.2083 N   0  0  0  0  0  0  0  0  0  0  0  0
   11.9693  -18.0068   23.9979 C   0  0  0  0  0  0  0  0  0  0  0  0
   13.3531  -18.2024   23.5682 C   0  0  0  0  0  0  0  0  0  0  0  0
   13.7451  -17.9724   22.2581 O   0  0  0  0  0  0  0  0  0  0  0  0
   14.2045  -18.5927   24.4277 O   0  0  0  0  0  0  0  0  0  0  0  0
  1  2  1  0
  3  2  1  0
  4  3  1  0
  5  4  1  0
  5  7  1  0
  5  6  1  1
  7  8  2  0
  7  9  1  0
  9 10  1  0
 10 17  1  0
 10 11  1  6
 12 11  1  0
 12 13  2  0
 14 13  1  0
 15 14  1  0
 16 15  2  0
 16 12  1  0
 17 19  1  0
 17 18  2  0
 19 20  1  0
 21 20  1  0
 21 22  1  0
 23 21  2  0
M  END
$$$$
