MHG.pdb
     RDKit          3D

 23 23  0  0  1  0  0  0  0  0999 V2000
    6.4075  -11.8932   27.5963 C   0  0  0  0  0  0  0  0  0  0  0  0
    6.6996  -12.6641   25.9867 S   0  0  0  0  0  0  0  0  0  0  0  0
    8.0255  -13.9031   26.0870 C   0  0  0  0  0  0  0  0  0  0  0  0
    7.4584  -15.3028   26.1507 C   0  0  0  0  0  0  0  0  0  0  0  0
    6.9356  -15.6465   24.7776 C   0  0  2  0  0  0  0  0  0  0  0  0
    5.8515  -16.5811   24.9401 N   0  0  0  0  0  0  0  0  0  0  0  0
    8.0135  -16.1975   23.9034 C   0  0  0  0  0  0  0  0  0  0  0  0
    8.2727  -17.4040   23.8162 O   0  0  0  0  0  0  0  0  0  0  0  0
    8.7876  -15.2933   23.1267 N   0  0  0  0  0  0  0  0  0  0  0  0
    9.8499  -15.7695   22.2350 C   0  0  1  0  0  0  0  0  0  0  0  0
    9.9289  -14.9163   20.9891 C   0  0  0  0  0  0  0  0  0  0  0  0
    8.6200  -14.5670   20.4381 C   0  0  0  0  0  0  0  0  0  0  0  0
    8.1542  -13.2831   20.2771 C   0  0  0  0  0  0  0  0  0  0  0  0
    6.9318  -13.3518   19.7506 N   0  0  0  0  0  0  0  0  0  0  0  0
    6.5947  -14.6461   19.5668 C   0  0  0  0  0  0  0  0  0  0  0  0
    7.6507  -15.3793   19.9977 N   0  0  0  0  0  0  0  0  0  0  0  0
   11.1370  -15.6515   22.9372 C   0  0  0  0  0  0  0  0  0  0  0  0
   12.0952  -15.0675   22.3959 O   0  0  0  0  0  0  0  0  0  0  0  0
   11.2889  -16.2005   24.2273 N   0  0  0  0  0  0  0  0  0  0  0  0
   11.7966  -17.5562   24.4410 C   0  0  0  0  0  0  0  0  0  0  0  0
   13.2570  -17.5060   24.3948 C   0  0  0  0  0  0  0  0  0  0  0  0
   14.0208  -17.5409   25.5517 O   0  0  0  0  0  0  0  0  0  0  0  0
   13.8246  -17.4287   23.2600 O   0  0  0  0  0  0  0  0  0  0  0  0
  1  2  1  0
  3  2  1  0
  4  3  1  0
  5  4  1  0
  5  7  1  0
  5  6  1  1
  7  8  2  0
  7  9  1  0
  9 10  1  0
 10 17  1  0
 10 11  1  6
 12 11  1  0
 12 13  2  0
 14 13  1  0
 15 14  1  0
 16 15  2  0
 16 12  1  0
 17 19  1  0
 17 18  2  0
 19 20  1  0
 21 20  1  0
 21 22  1  0
 23 21  2  0
M  END
$$$$
