MHG.pdb
     RDKit          3D

 23 23  0  0  1  0  0  0  0  0999 V2000
    7.6622  -10.4967   25.6555 C   0  0  0  0  0  0  0  0  0  0  0  0
    6.6217  -11.3281   26.8788 S   0  0  0  0  0  0  0  0  0  0  0  0
    6.1686  -12.9984   26.3235 C   0  0  0  0  0  0  0  0  0  0  0  0
    7.3933  -13.8705   26.1672 C   0  0  0  0  0  0  0  0  0  0  0  0
    6.9622  -15.1452   25.4844 C   0  0  2  0  0  0  0  0  0  0  0  0
    6.0065  -15.8014   26.3393 N   0  0  0  0  0  0  0  0  0  0  0  0
    8.1292  -16.0261   25.1821 C   0  0  0  0  0  0  0  0  0  0  0  0
    8.6432  -16.7878   26.0104 O   0  0  0  0  0  0  0  0  0  0  0  0
    8.6850  -15.9935   23.8744 N   0  0  0  0  0  0  0  0  0  0  0  0
    9.7799  -16.8893   23.4881 C   0  0  1  0  0  0  0  0  0  0  0  0
    9.3199  -17.8818   22.4442 C   0  0  0  0  0  0  0  0  0  0  0  0
    8.3536  -18.8554   22.9517 C   0  0  0  0  0  0  0  0  0  0  0  0
    8.3983  -19.4261   24.2021 C   0  0  0  0  0  0  0  0  0  0  0  0
    7.3636  -20.2589   24.3115 N   0  0  0  0  0  0  0  0  0  0  0  0
    6.6509  -20.2419   23.1651 C   0  0  0  0  0  0  0  0  0  0  0  0
    7.2792  -19.3692   22.3392 N   0  0  0  0  0  0  0  0  0  0  0  0
   10.8551  -16.0823   22.8911 C   0  0  0  0  0  0  0  0  0  0  0  0
   10.6022  -14.9649   22.4013 O   0  0  0  0  0  0  0  0  0  0  0  0
   12.1770  -16.5730   22.8723 N   0  0  0  0  0  0  0  0  0  0  0  0
   13.2741  -15.8296   22.2517 C   0  0  0  0  0  0  0  0  0  0  0  0
   14.4225  -15.8774   23.1552 C   0  0  0  0  0  0  0  0  0  0  0  0
   15.6242  -15.2647   22.8336 O   0  0  0  0  0  0  0  0  0  0  0  0
   14.3004  -16.4990   24.2572 O   0  0  0  0  0  0  0  0  0  0  0  0
  1  2  1  0
  3  2  1  0
  4  3  1  0
  5  4  1  0
  5  7  1  0
  5  6  1  1
  7  8  2  0
  7  9  1  0
  9 10  1  0
 10 17  1  0
 10 11  1  6
 12 11  1  0
 12 13  2  0
 14 13  1  0
 15 14  1  0
 16 15  2  0
 16 12  1  0
 17 19  1  0
 17 18  2  0
 19 20  1  0
 21 20  1  0
 21 22  1  0
 23 21  2  0
M  END
$$$$
