MHG.pdb
     RDKit          3D

 23 23  0  0  1  0  0  0  0  0999 V2000
    6.4498  -11.0994   27.9784 C   0  0  0  0  0  0  0  0  0  0  0  0
    7.0725  -12.1116   26.6153 S   0  0  0  0  0  0  0  0  0  0  0  0
    5.7177  -12.9952   25.7862 C   0  0  0  0  0  0  0  0  0  0  0  0
    6.2254  -13.7746   24.5947 C   0  0  0  0  0  0  0  0  0  0  0  0
    7.4445  -14.5449   25.0387 C   0  0  2  0  0  0  0  0  0  0  0  0
    8.4472  -13.5910   25.4384 N   0  0  0  0  0  0  0  0  0  0  0  0
    7.9423  -15.4508   23.9612 C   0  0  0  0  0  0  0  0  0  0  0  0
    7.2734  -16.3746   23.4819 O   0  0  0  0  0  0  0  0  0  0  0  0
    9.2541  -15.2472   23.4536 N   0  0  0  0  0  0  0  0  0  0  0  0
    9.8090  -16.1094   22.4053 C   0  0  1  0  0  0  0  0  0  0  0  0
   10.0206  -15.3321   21.1257 C   0  0  0  0  0  0  0  0  0  0  0  0
    8.7989  -14.7155   20.6097 C   0  0  0  0  0  0  0  0  0  0  0  0
    8.6367  -13.3694   20.3797 C   0  0  0  0  0  0  0  0  0  0  0  0
    7.4030  -13.1774   19.9136 N   0  0  0  0  0  0  0  0  0  0  0  0
    6.7631  -14.3636   19.8360 C   0  0  0  0  0  0  0  0  0  0  0  0
    7.6426  -15.2996   20.2704 N   0  0  0  0  0  0  0  0  0  0  0  0
   11.1226  -16.5994   22.8504 C   0  0  0  0  0  0  0  0  0  0  0  0
   12.1365  -15.8885   22.7127 O   0  0  0  0  0  0  0  0  0  0  0  0
   11.2368  -17.8777   23.4349 N   0  0  0  0  0  0  0  0  0  0  0  0
   12.5343  -18.4726   23.7573 C   0  0  0  0  0  0  0  0  0  0  0  0
   12.2952  -19.7834   24.3592 C   0  0  0  0  0  0  0  0  0  0  0  0
   13.0005  -20.2086   25.4749 O   0  0  0  0  0  0  0  0  0  0  0  0
   11.4171  -20.5389   23.8359 O   0  0  0  0  0  0  0  0  0  0  0  0
  1  2  1  0
  3  2  1  0
  4  3  1  0
  5  4  1  0
  5  7  1  0
  5  6  1  6
  7  8  2  0
  7  9  1  0
  9 10  1  0
 10 17  1  0
 10 11  1  6
 12 11  1  0
 12 13  2  0
 14 13  1  0
 15 14  1  0
 16 15  2  0
 16 12  1  0
 17 19  1  0
 17 18  2  0
 19 20  1  0
 21 20  1  0
 21 22  1  0
 23 21  2  0
M  END
$$$$
