MHG.pdb
     RDKit          3D

 23 23  0  0  1  0  0  0  0  0999 V2000
    8.3570  -12.1518   27.5988 C   0  0  0  0  0  0  0  0  0  0  0  0
    6.6745  -12.7578   27.8680 S   0  0  0  0  0  0  0  0  0  0  0  0
    6.0895  -13.7168   26.4392 C   0  0  0  0  0  0  0  0  0  0  0  0
    7.2308  -14.4493   25.7716 C   0  0  0  0  0  0  0  0  0  0  0  0
    6.6571  -15.2337   24.6174 C   0  0  2  0  0  0  0  0  0  0  0  0
    5.6825  -16.1514   25.1494 N   0  0  0  0  0  0  0  0  0  0  0  0
    7.7254  -15.9441   23.8534 C   0  0  0  0  0  0  0  0  0  0  0  0
    7.8030  -17.1761   23.7717 O   0  0  0  0  0  0  0  0  0  0  0  0
    8.7097  -15.1700   23.1810 N   0  0  0  0  0  0  0  0  0  0  0  0
    9.6982  -15.7947   22.2962 C   0  0  1  0  0  0  0  0  0  0  0  0
   10.0532  -14.8733   21.1510 C   0  0  0  0  0  0  0  0  0  0  0  0
    8.9066  -14.5087   20.3195 C   0  0  0  0  0  0  0  0  0  0  0  0
    7.8366  -15.3312   20.0550 C   0  0  0  0  0  0  0  0  0  0  0  0
    6.9913  -14.6664   19.2677 N   0  0  0  0  0  0  0  0  0  0  0  0
    7.4862  -13.4358   19.0161 C   0  0  0  0  0  0  0  0  0  0  0  0
    8.6689  -13.3593   19.6747 N   0  0  0  0  0  0  0  0  0  0  0  0
   10.9267  -16.0394   23.0673 C   0  0  0  0  0  0  0  0  0  0  0  0
   12.0349  -15.7116   22.6016 O   0  0  0  0  0  0  0  0  0  0  0  0
   10.8520  -16.6467   24.3378 N   0  0  0  0  0  0  0  0  0  0  0  0
   12.0466  -16.9480   25.1274 C   0  0  0  0  0  0  0  0  0  0  0  0
   11.6161  -17.5403   26.3930 C   0  0  0  0  0  0  0  0  0  0  0  0
   12.5256  -17.8651   27.3881 O   0  0  0  0  0  0  0  0  0  0  0  0
   10.3760  -17.7563   26.5696 O   0  0  0  0  0  0  0  0  0  0  0  0
  1  2  1  0
  3  2  1  0
  4  3  1  0
  5  4  1  0
  5  7  1  0
  5  6  1  1
  7  8  2  0
  7  9  1  0
  9 10  1  0
 10 17  1  0
 10 11  1  6
 12 11  1  0
 12 13  2  0
 14 13  1  0
 15 14  1  0
 16 15  2  0
 16 12  1  0
 17 19  1  0
 17 18  2  0
 19 20  1  0
 21 20  1  0
 21 22  1  0
 23 21  2  0
M  END
$$$$
