MHG.pdb
     RDKit          3D

 23 23  0  0  1  0  0  0  0  0999 V2000
    7.4761  -11.5026   20.2254 C   0  0  0  0  0  0  0  0  0  0  0  0
    8.1089  -12.7059   19.0329 S   0  0  0  0  0  0  0  0  0  0  0  0
    8.4241  -14.3096   19.8281 C   0  0  0  0  0  0  0  0  0  0  0  0
    7.5789  -14.4762   21.0702 C   0  0  0  0  0  0  0  0  0  0  0  0
    8.1613  -15.6159   21.8693 C   0  0  2  0  0  0  0  0  0  0  0  0
    8.4843  -16.6779   20.9513 N   0  0  0  0  0  0  0  0  0  0  0  0
    7.2211  -16.0739   22.9351 C   0  0  0  0  0  0  0  0  0  0  0  0
    6.5641  -15.3023   23.6446 O   0  0  0  0  0  0  0  0  0  0  0  0
    7.0672  -17.4701   23.1521 N   0  0  0  0  0  0  0  0  0  0  0  0
    6.1157  -17.9884   24.1401 C   0  0  1  0  0  0  0  0  0  0  0  0
    5.4680  -19.2623   23.6462 C   0  0  0  0  0  0  0  0  0  0  0  0
    4.6277  -19.0688   22.4648 C   0  0  0  0  0  0  0  0  0  0  0  0
    3.9090  -17.9285   22.1919 C   0  0  0  0  0  0  0  0  0  0  0  0
    3.2674  -18.1127   21.0385 N   0  0  0  0  0  0  0  0  0  0  0  0
    3.5520  -19.3419   20.5582 C   0  0  0  0  0  0  0  0  0  0  0  0
    4.3932  -19.9151   21.4538 N   0  0  0  0  0  0  0  0  0  0  0  0
    6.8514  -18.3122   25.3720 C   0  0  0  0  0  0  0  0  0  0  0  0
    6.2389  -18.7070   26.3826 O   0  0  0  0  0  0  0  0  0  0  0  0
    8.2545  -18.1761   25.4112 N   0  0  0  0  0  0  0  0  0  0  0  0
    9.0268  -18.4283   26.6283 C   0  0  0  0  0  0  0  0  0  0  0  0
    9.7577  -19.6820   26.4499 C   0  0  0  0  0  0  0  0  0  0  0  0
   10.4973  -20.2431   27.4800 O   0  0  0  0  0  0  0  0  0  0  0  0
    9.7038  -20.2585   25.3183 O   0  0  0  0  0  0  0  0  0  0  0  0
  1  2  1  0
  3  2  1  0
  4  3  1  0
  5  4  1  0
  5  7  1  0
  5  6  1  6
  7  8  2  0
  7  9  1  0
  9 10  1  0
 10 17  1  0
 10 11  1  6
 12 11  1  0
 12 13  2  0
 14 13  1  0
 15 14  1  0
 16 15  2  0
 16 12  1  0
 17 19  1  0
 17 18  2  0
 19 20  1  0
 21 20  1  0
 21 22  1  0
 23 21  2  0
M  END
$$$$
