IMW.pdb
     RDKit          3D

 31 32  0  0  1  0  0  0  0  0999 V2000
   28.9116  -20.0885   -3.6350 C   0  0  0  0  0  0  0  0  0  0  0  0
   27.7038  -20.3641   -4.5044 C   0  0  0  0  0  0  0  0  0  0  0  0
   28.0139  -19.8428   -5.8881 C   0  0  2  0  0  0  0  0  0  0  0  0
   28.4800  -18.4274   -5.8208 C   0  0  0  0  0  0  0  0  0  0  0  0
   26.9319  -20.1131   -6.8752 C   0  0  2  0  0  0  0  0  0  0  0  0
   26.4923  -21.4841   -6.7205 N   0  0  0  0  0  0  0  0  0  0  0  0
   27.3586  -19.9058   -8.2944 C   0  0  0  0  0  0  0  0  0  0  0  0
   27.3180  -18.7592   -8.7757 O   0  0  0  0  0  0  0  0  0  0  0  0
   32.0671  -22.2949   -7.7954 C   0  0  0  0  0  0  0  0  0  0  0  0
   32.1491  -22.0931   -9.5783 S   0  0  0  0  0  0  0  0  0  0  0  0
   30.8863  -20.9824  -10.2496 C   0  0  0  0  0  0  0  0  0  0  0  0
   29.6296  -21.6804  -10.5814 C   0  0  0  0  0  0  0  0  0  0  0  0
   28.3359  -20.9610  -10.3752 C   0  0  2  0  0  0  0  0  0  0  0  0
   27.7922  -20.9749   -9.0610 N   0  0  0  0  0  0  0  0  0  0  0  0
   27.3366  -21.4597  -11.3383 C   0  0  0  0  0  0  0  0  0  0  0  0
   27.1146  -22.6953  -11.3876 O   0  0  0  0  0  0  0  0  0  0  0  0
   26.6405  -20.5832  -12.1873 N   0  0  0  0  0  0  0  0  0  0  0  0
   25.7605  -21.1236  -13.2028 C   0  0  1  0  0  0  0  0  0  0  0  0
   24.5703  -21.7654  -12.5198 C   0  0  0  0  0  0  0  0  0  0  0  0
   23.5523  -20.7126  -12.3004 C   0  0  0  0  0  0  0  0  0  0  0  0
   23.0166  -19.8525  -13.2287 C   0  0  0  0  0  0  0  0  0  0  0  0
   22.1241  -19.0549  -12.6091 N   0  0  0  0  0  0  0  0  0  0  0  0
   22.0782  -19.3869  -11.3063 C   0  0  0  0  0  0  0  0  0  0  0  0
   21.3180  -18.8605  -10.2598 C   0  0  0  0  0  0  0  0  0  0  0  0
   21.4522  -19.3779   -9.0014 C   0  0  0  0  0  0  0  0  0  0  0  0
   22.3306  -20.4127   -8.7598 C   0  0  0  0  0  0  0  0  0  0  0  0
   23.0670  -20.9140   -9.8027 C   0  0  0  0  0  0  0  0  0  0  0  0
   22.9680  -20.4265  -11.0908 C   0  0  0  0  0  0  0  0  0  0  0  0
   25.2624  -20.0297  -14.0982 C   0  0  0  0  0  0  0  0  0  0  0  0
   25.4648  -18.8352  -13.8376 O   0  0  0  0  0  0  0  0  0  0  0  0
   24.5578  -20.3770  -15.2449 O   0  0  0  0  0  0  0  0  0  0  0  0
  1  2  1  0
  2  3  1  0
  3  4  1  1
  5  3  1  0
  5  6  1  6
  7  8  2  0
  7  5  1  0
  9 10  1  0
 11 10  1  0
 12 11  1  0
 13 12  1  1
 13 14  1  0
 14  7  1  0
 15 16  2  0
 15 13  1  0
 17 15  1  0
 18 17  1  0
 18 19  1  1
 19 20  1  0
 20 28  1  0
 20 21  2  0
 21 22  1  0
 23 22  1  0
 23 24  2  0
 25 24  1  0
 26 25  2  0
 27 28  2  0
 27 26  1  0
 28 23  1  0
 29 18  1  0
 30 29  2  0
 31 29  1  0
M  END
$$$$
