IMW.pdb
     RDKit          3D

 31 32  0  0  1  0  0  0  0  0999 V2000
   29.2924  -20.1234  -18.7676 C   0  0  0  0  0  0  0  0  0  0  0  0
   29.2831  -20.9218  -17.4819 C   0  0  0  0  0  0  0  0  0  0  0  0
   28.4305  -20.1687  -16.4877 C   0  0  2  0  0  0  0  0  0  0  0  0
   28.8634  -18.7439  -16.4018 C   0  0  0  0  0  0  0  0  0  0  0  0
   28.2867  -20.8728  -15.1832 C   0  0  2  0  0  0  0  0  0  0  0  0
   27.7469  -22.1946  -15.4243 N   0  0  0  0  0  0  0  0  0  0  0  0
   27.3906  -20.1596  -14.2200 C   0  0  0  0  0  0  0  0  0  0  0  0
   27.6600  -18.9882  -13.8989 O   0  0  0  0  0  0  0  0  0  0  0  0
   20.6855  -19.2192  -13.6116 C   0  0  0  0  0  0  0  0  0  0  0  0
   21.7718  -19.5879  -14.9936 S   0  0  0  0  0  0  0  0  0  0  0  0
   23.5334  -19.5246  -14.5791 C   0  0  0  0  0  0  0  0  0  0  0  0
   23.8630  -20.2971  -13.3662 C   0  0  0  0  0  0  0  0  0  0  0  0
   25.2656  -20.2568  -12.8516 C   0  0  2  0  0  0  0  0  0  0  0  0
   26.2776  -20.7944  -13.6938 N   0  0  0  0  0  0  0  0  0  0  0  0
   25.3215  -20.8986  -11.5250 C   0  0  0  0  0  0  0  0  0  0  0  0
   25.4270  -22.1491  -11.4669 O   0  0  0  0  0  0  0  0  0  0  0  0
   25.2602  -20.1400  -10.3442 N   0  0  0  0  0  0  0  0  0  0  0  0
   25.2197  -20.8162   -9.0641 C   0  0  1  0  0  0  0  0  0  0  0  0
   25.8012  -19.8947   -8.0116 C   0  0  0  0  0  0  0  0  0  0  0  0
   27.2335  -20.2354   -7.8531 C   0  0  0  0  0  0  0  0  0  0  0  0
   28.0220  -20.9758   -8.7007 C   0  0  0  0  0  0  0  0  0  0  0  0
   29.2636  -21.0447   -8.1806 N   0  0  0  0  0  0  0  0  0  0  0  0
   29.2849  -20.3647   -7.0200 C   0  0  0  0  0  0  0  0  0  0  0  0
   30.3247  -20.1438   -6.1144 C   0  0  0  0  0  0  0  0  0  0  0  0
   30.0925  -19.4059   -4.9871 C   0  0  0  0  0  0  0  0  0  0  0  0
   28.8422  -18.8803   -4.7395 C   0  0  0  0  0  0  0  0  0  0  0  0
   27.8360  -19.1100   -5.6428 C   0  0  0  0  0  0  0  0  0  0  0  0
   28.0194  -19.8481   -6.7953 C   0  0  0  0  0  0  0  0  0  0  0  0
   23.8049  -21.1364   -8.6869 C   0  0  0  0  0  0  0  0  0  0  0  0
   23.5346  -21.7536   -7.6469 O   0  0  0  0  0  0  0  0  0  0  0  0
   22.7811  -20.7257   -9.5326 O   0  0  0  0  0  0  0  0  0  0  0  0
  1  2  1  0
  2  3  1  0
  3  4  1  1
  5  3  1  0
  5  6  1  6
  7  8  2  0
  7  5  1  0
  9 10  1  0
 11 10  1  0
 12 11  1  0
 13 12  1  6
 13 14  1  0
 14  7  1  0
 15 16  2  0
 15 13  1  0
 17 15  1  0
 18 17  1  0
 18 19  1  1
 19 20  1  0
 20 28  1  0
 20 21  2  0
 21 22  1  0
 23 22  1  0
 23 24  2  0
 25 24  1  0
 26 25  2  0
 27 28  2  0
 27 26  1  0
 28 23  1  0
 29 18  1  0
 30 29  2  0
 31 29  1  0
M  END
$$$$
