IMW.pdb
     RDKit          3D

 31 32  0  0  1  0  0  0  0  0999 V2000
   19.7163  -20.2534  -18.6455 C   0  0  0  0  0  0  0  0  0  0  0  0
   20.3630  -20.6249  -17.3285 C   0  0  0  0  0  0  0  0  0  0  0  0
   19.5653  -21.7641  -16.7382 C   0  0  2  0  0  0  0  0  0  0  0  0
   18.1097  -21.4379  -16.7385 C   0  0  0  0  0  0  0  0  0  0  0  0
   20.1101  -22.2544  -15.4416 C   0  0  2  0  0  0  0  0  0  0  0  0
   21.4715  -22.7023  -15.6481 N   0  0  0  0  0  0  0  0  0  0  0  0
   19.3204  -23.3820  -14.8550 C   0  0  0  0  0  0  0  0  0  0  0  0
   18.1182  -23.2028  -14.5892 O   0  0  0  0  0  0  0  0  0  0  0  0
   21.3049  -30.4764  -14.1041 C   0  0  0  0  0  0  0  0  0  0  0  0
   19.8449  -29.8182  -14.9172 S   0  0  0  0  0  0  0  0  0  0  0  0
   19.1736  -28.3324  -14.1293 C   0  0  0  0  0  0  0  0  0  0  0  0
   19.7563  -27.0881  -14.6664 C   0  0  0  0  0  0  0  0  0  0  0  0
   19.3383  -25.7850  -14.0656 C   0  0  2  0  0  0  0  0  0  0  0  0
   19.9191  -24.6070  -14.6115 N   0  0  0  0  0  0  0  0  0  0  0  0
   19.5549  -25.8235  -12.6074 C   0  0  0  0  0  0  0  0  0  0  0  0
   20.7242  -25.9879  -12.1782 O   0  0  0  0  0  0  0  0  0  0  0  0
   18.4862  -25.6800  -11.7069 N   0  0  0  0  0  0  0  0  0  0  0  0
   18.7305  -25.8074  -10.2850 C   0  0  1  0  0  0  0  0  0  0  0  0
   17.7494  -24.9221   -9.5444 C   0  0  0  0  0  0  0  0  0  0  0  0
   17.9952  -25.0887   -8.0937 C   0  0  0  0  0  0  0  0  0  0  0  0
   19.0546  -24.6133   -7.3589 C   0  0  0  0  0  0  0  0  0  0  0  0
   18.8893  -24.9899   -6.0753 N   0  0  0  0  0  0  0  0  0  0  0  0
   17.7480  -25.6949   -5.9747 C   0  0  0  0  0  0  0  0  0  0  0  0
   17.1443  -26.2950   -4.8676 C   0  0  0  0  0  0  0  0  0  0  0  0
   15.9641  -26.9671   -5.0242 C   0  0  0  0  0  0  0  0  0  0  0  0
   15.3680  -27.0558   -6.2642 C   0  0  0  0  0  0  0  0  0  0  0  0
   15.9788  -26.4587   -7.3373 C   0  0  0  0  0  0  0  0  0  0  0  0
   17.1703  -25.7689   -7.2315 C   0  0  0  0  0  0  0  0  0  0  0  0
   18.5199  -27.2242   -9.8437 C   0  0  0  0  0  0  0  0  0  0  0  0
   17.6111  -27.9223  -10.3153 O   0  0  0  0  0  0  0  0  0  0  0  0
   19.3710  -27.7554   -8.8817 O   0  0  0  0  0  0  0  0  0  0  0  0
  1  2  1  0
  2  3  1  0
  3  4  1  1
  5  3  1  0
  5  6  1  6
  7  8  2  0
  7  5  1  0
  9 10  1  0
 11 10  1  0
 12 11  1  0
 13 12  1  6
 13 14  1  0
 14  7  1  0
 15 16  2  0
 15 13  1  0
 17 15  1  0
 18 17  1  0
 18 19  1  1
 19 20  1  0
 20 28  1  0
 20 21  2  0
 21 22  1  0
 23 22  1  0
 23 24  2  0
 25 24  1  0
 26 25  2  0
 27 28  2  0
 27 26  1  0
 28 23  1  0
 29 18  1  0
 30 29  2  0
 31 29  1  0
M  END
$$$$
