IMW.pdb
     RDKit          3D

 31 32  0  0  1  0  0  0  0  0999 V2000
   26.2270  -19.3339  -17.0552 C   0  0  0  0  0  0  0  0  0  0  0  0
   27.2089  -20.0338  -16.1405 C   0  0  0  0  0  0  0  0  0  0  0  0
   26.4868  -20.3370  -14.8486 C   0  0  2  0  0  0  0  0  0  0  0  0
   25.8117  -19.1131  -14.3277 C   0  0  0  0  0  0  0  0  0  0  0  0
   27.3273  -21.0718  -13.8628 C   0  0  2  0  0  0  0  0  0  0  0  0
   27.7880  -22.3031  -14.4699 N   0  0  0  0  0  0  0  0  0  0  0  0
   26.6020  -21.4058  -12.5973 C   0  0  0  0  0  0  0  0  0  0  0  0
   25.7971  -22.3546  -12.5952 O   0  0  0  0  0  0  0  0  0  0  0  0
   29.1102  -20.3419   -6.5568 C   0  0  0  0  0  0  0  0  0  0  0  0
   27.3939  -19.8699   -6.3175 S   0  0  0  0  0  0  0  0  0  0  0  0
   26.2968  -20.3859   -7.6626 C   0  0  0  0  0  0  0  0  0  0  0  0
   26.9436  -20.3144   -8.9866 C   0  0  0  0  0  0  0  0  0  0  0  0
   26.1794  -20.7835  -10.1823 C   0  0  2  0  0  0  0  0  0  0  0  0
   26.8235  -20.6694  -11.4452 N   0  0  0  0  0  0  0  0  0  0  0  0
   24.8681  -20.1099  -10.2235 C   0  0  0  0  0  0  0  0  0  0  0  0
   24.7975  -18.9640  -10.7338 O   0  0  0  0  0  0  0  0  0  0  0  0
   23.7152  -20.7251   -9.7079 N   0  0  0  0  0  0  0  0  0  0  0  0
   22.4101  -20.2622  -10.1323 C   0  0  1  0  0  0  0  0  0  0  0  0
   22.2833  -20.4764  -11.6266 C   0  0  0  0  0  0  0  0  0  0  0  0
   20.9567  -19.9692  -12.0456 C   0  0  0  0  0  0  0  0  0  0  0  0
   20.4222  -18.7232  -11.8216 C   0  0  0  0  0  0  0  0  0  0  0  0
   19.1921  -18.6793  -12.3710 N   0  0  0  0  0  0  0  0  0  0  0  0
   18.9299  -19.8695  -12.9406 C   0  0  0  0  0  0  0  0  0  0  0  0
   17.8016  -20.3190  -13.6299 C   0  0  0  0  0  0  0  0  0  0  0  0
   17.7756  -21.5937  -14.1234 C   0  0  0  0  0  0  0  0  0  0  0  0
   18.8528  -22.4356  -13.9454 C   0  0  0  0  0  0  0  0  0  0  0  0
   19.9502  -21.9728  -13.2652 C   0  0  0  0  0  0  0  0  0  0  0  0
   20.0256  -20.6948  -12.7478 C   0  0  0  0  0  0  0  0  0  0  0  0
   21.3303  -21.0433   -9.4464 C   0  0  0  0  0  0  0  0  0  0  0  0
   21.5085  -22.2141   -9.0815 O   0  0  0  0  0  0  0  0  0  0  0  0
   20.1046  -20.4280   -9.2205 O   0  0  0  0  0  0  0  0  0  0  0  0
  1  2  1  0
  2  3  1  0
  3  4  1  1
  5  3  1  0
  5  6  1  6
  7  8  2  0
  7  5  1  0
  9 10  1  0
 11 10  1  0
 12 11  1  0
 13 12  1  1
 13 14  1  0
 14  7  1  0
 15 16  2  0
 15 13  1  0
 17 15  1  0
 18 17  1  0
 18 19  1  6
 19 20  1  0
 20 28  1  0
 20 21  2  0
 21 22  1  0
 23 22  1  0
 23 24  2  0
 25 24  1  0
 26 25  2  0
 27 28  2  0
 27 26  1  0
 28 23  1  0
 29 18  1  0
 30 29  2  0
 31 29  1  0
M  END
$$$$
