IMW.pdb
     RDKit          3D

 31 32  0  0  1  0  0  0  0  0999 V2000
   28.1128  -20.8253  -18.5285 C   0  0  0  0  0  0  0  0  0  0  0  0
   28.4510  -21.4390  -17.1869 C   0  0  0  0  0  0  0  0  0  0  0  0
   27.8310  -20.5662  -16.1209 C   0  0  2  0  0  0  0  0  0  0  0  0
   28.1055  -19.1267  -16.3993 C   0  0  0  0  0  0  0  0  0  0  0  0
   28.1396  -21.0195  -14.7361 C   0  0  2  0  0  0  0  0  0  0  0  0
   27.7637  -22.4119  -14.6073 N   0  0  0  0  0  0  0  0  0  0  0  0
   27.4261  -20.2329  -13.6819 C   0  0  0  0  0  0  0  0  0  0  0  0
   27.6544  -19.0141  -13.5798 O   0  0  0  0  0  0  0  0  0  0  0  0
   21.0409  -20.4909  -12.7053 C   0  0  0  0  0  0  0  0  0  0  0  0
   21.9920  -19.6434  -13.9714 S   0  0  0  0  0  0  0  0  0  0  0  0
   23.7626  -19.5331  -13.6081 C   0  0  0  0  0  0  0  0  0  0  0  0
   24.1444  -20.2800  -12.3945 C   0  0  0  0  0  0  0  0  0  0  0  0
   25.5740  -20.2551  -11.9593 C   0  0  2  0  0  0  0  0  0  0  0  0
   26.5246  -20.8527  -12.8323 N   0  0  0  0  0  0  0  0  0  0  0  0
   25.6885  -20.8437  -10.6120 C   0  0  0  0  0  0  0  0  0  0  0  0
   26.0505  -22.0423  -10.5091 O   0  0  0  0  0  0  0  0  0  0  0  0
   25.4028  -20.0914   -9.4604 N   0  0  0  0  0  0  0  0  0  0  0  0
   25.4019  -20.7419   -8.1664 C   0  0  1  0  0  0  0  0  0  0  0  0
   25.5053  -19.6799   -7.0910 C   0  0  0  0  0  0  0  0  0  0  0  0
   26.9299  -19.2936   -6.9718 C   0  0  0  0  0  0  0  0  0  0  0  0
   27.5639  -18.2229   -7.5548 C   0  0  0  0  0  0  0  0  0  0  0  0
   28.8602  -18.2394   -7.1859 N   0  0  0  0  0  0  0  0  0  0  0  0
   29.0674  -19.2967   -6.3804 C   0  0  0  0  0  0  0  0  0  0  0  0
   30.2283  -19.7420   -5.7447 C   0  0  0  0  0  0  0  0  0  0  0  0
   30.1824  -20.8629   -4.9633 C   0  0  0  0  0  0  0  0  0  0  0  0
   29.0009  -21.5543   -4.7995 C   0  0  0  0  0  0  0  0  0  0  0  0
   27.8731  -21.0987   -5.4335 C   0  0  0  0  0  0  0  0  0  0  0  0
   27.8674  -19.9728   -6.2327 C   0  0  0  0  0  0  0  0  0  0  0  0
   24.1254  -21.5010   -7.9642 C   0  0  0  0  0  0  0  0  0  0  0  0
   23.1896  -21.4237   -8.7729 O   0  0  0  0  0  0  0  0  0  0  0  0
   24.0012  -22.3070   -6.8386 O   0  0  0  0  0  0  0  0  0  0  0  0
  1  2  1  0
  2  3  1  0
  3  4  1  1
  5  3  1  0
  5  6  1  6
  7  8  2  0
  7  5  1  0
  9 10  1  0
 11 10  1  0
 12 11  1  0
 13 12  1  6
 13 14  1  0
 14  7  1  0
 15 16  2  0
 15 13  1  0
 17 15  1  0
 18 17  1  0
 18 19  1  1
 19 20  1  0
 20 28  1  0
 20 21  2  0
 21 22  1  0
 23 22  1  0
 23 24  2  0
 25 24  1  0
 26 25  2  0
 27 28  2  0
 27 26  1  0
 28 23  1  0
 29 18  1  0
 30 29  2  0
 31 29  1  0
M  END
$$$$
