IMW.pdb
     RDKit          3D

 31 32  0  0  1  0  0  0  0  0999 V2000
   24.1337  -17.2037  -15.3714 C   0  0  0  0  0  0  0  0  0  0  0  0
   24.6863  -18.5850  -15.6498 C   0  0  0  0  0  0  0  0  0  0  0  0
   25.0945  -19.1846  -14.3245 C   0  0  2  0  0  0  0  0  0  0  0  0
   25.9779  -18.2445  -13.5757 C   0  0  0  0  0  0  0  0  0  0  0  0
   25.5997  -20.5808  -14.4407 C   0  0  2  0  0  0  0  0  0  0  0  0
   24.5459  -21.4139  -14.9814 N   0  0  0  0  0  0  0  0  0  0  0  0
   26.0445  -21.1611  -13.1351 C   0  0  0  0  0  0  0  0  0  0  0  0
   25.1875  -21.5936  -12.3435 O   0  0  0  0  0  0  0  0  0  0  0  0
   32.5009  -22.2581  -12.2258 C   0  0  0  0  0  0  0  0  0  0  0  0
   31.8906  -22.6369  -10.5796 S   0  0  0  0  0  0  0  0  0  0  0  0
   30.1147  -22.3508  -10.3718 C   0  0  0  0  0  0  0  0  0  0  0  0
   29.4533  -21.9319  -11.6223 C   0  0  0  0  0  0  0  0  0  0  0  0
   27.9933  -21.6142  -11.5877 C   0  0  2  0  0  0  0  0  0  0  0  0
   27.3905  -21.2160  -12.8128 N   0  0  0  0  0  0  0  0  0  0  0  0
   27.7347  -20.6016  -10.5472 C   0  0  0  0  0  0  0  0  0  0  0  0
   27.8054  -19.3870  -10.8605 O   0  0  0  0  0  0  0  0  0  0  0  0
   27.4144  -20.9734   -9.2308 N   0  0  0  0  0  0  0  0  0  0  0  0
   27.7150  -20.0676   -8.1414 C   0  0  1  0  0  0  0  0  0  0  0  0
   26.7287  -20.3168   -7.0189 C   0  0  0  0  0  0  0  0  0  0  0  0
   27.0858  -19.4208   -5.8953 C   0  0  0  0  0  0  0  0  0  0  0  0
   26.6844  -18.1222   -5.6931 C   0  0  0  0  0  0  0  0  0  0  0  0
   27.2387  -17.6753   -4.5487 N   0  0  0  0  0  0  0  0  0  0  0  0
   27.9849  -18.6598   -4.0160 C   0  0  0  0  0  0  0  0  0  0  0  0
   28.7495  -18.6910   -2.8480 C   0  0  0  0  0  0  0  0  0  0  0  0
   29.4289  -19.8302   -2.5163 C   0  0  0  0  0  0  0  0  0  0  0  0
   29.3640  -20.9448   -3.3251 C   0  0  0  0  0  0  0  0  0  0  0  0
   28.6069  -20.8913   -4.4675 C   0  0  0  0  0  0  0  0  0  0  0  0
   27.9027  -19.7656   -4.8464 C   0  0  0  0  0  0  0  0  0  0  0  0
   29.0991  -20.3159   -7.6224 C   0  0  0  0  0  0  0  0  0  0  0  0
   29.5794  -21.4573   -7.5758 O   0  0  0  0  0  0  0  0  0  0  0  0
   29.8510  -19.2315   -7.1859 O   0  0  0  0  0  0  0  0  0  0  0  0
  1  2  1  0
  2  3  1  0
  3  4  1  6
  5  3  1  0
  5  6  1  1
  7  8  2  0
  7  5  1  0
  9 10  1  0
 11 10  1  0
 12 11  1  0
 13 12  1  6
 13 14  1  0
 14  7  1  0
 15 16  2  0
 15 13  1  0
 17 15  1  0
 18 17  1  0
 18 19  1  1
 19 20  1  0
 20 28  1  0
 20 21  2  0
 21 22  1  0
 23 22  1  0
 23 24  2  0
 25 24  1  0
 26 25  2  0
 27 28  2  0
 27 26  1  0
 28 23  1  0
 29 18  1  0
 30 29  2  0
 31 29  1  0
M  END
$$$$
