IMW.pdb
     RDKit          3D

 31 32  0  0  1  0  0  0  0  0999 V2000
   24.7499  -21.3302  -19.0172 C   0  0  0  0  0  0  0  0  0  0  0  0
   25.2872  -21.5170  -17.6146 C   0  0  0  0  0  0  0  0  0  0  0  0
   26.6139  -20.7983  -17.5389 C   0  0  2  0  0  0  0  0  0  0  0  0
   27.5042  -21.2257  -18.6568 C   0  0  0  0  0  0  0  0  0  0  0  0
   27.2278  -20.8371  -16.1825 C   0  0  2  0  0  0  0  0  0  0  0  0
   27.4529  -22.2188  -15.8125 N   0  0  0  0  0  0  0  0  0  0  0  0
   26.3814  -20.1929  -15.1299 C   0  0  0  0  0  0  0  0  0  0  0  0
   26.0992  -18.9859  -15.2372 O   0  0  0  0  0  0  0  0  0  0  0  0
   20.4482  -21.1905  -12.5539 C   0  0  0  0  0  0  0  0  0  0  0  0
   21.0056  -20.4815  -14.1071 S   0  0  0  0  0  0  0  0  0  0  0  0
   22.7598  -20.0324  -14.1207 C   0  0  0  0  0  0  0  0  0  0  0  0
   23.5733  -20.8790  -13.2275 C   0  0  0  0  0  0  0  0  0  0  0  0
   25.0136  -20.5327  -13.0295 C   0  0  2  0  0  0  0  0  0  0  0  0
   25.9191  -20.9297  -14.0519 N   0  0  0  0  0  0  0  0  0  0  0  0
   25.4691  -21.0494  -11.7255 C   0  0  0  0  0  0  0  0  0  0  0  0
   25.6998  -22.2793  -11.6143 O   0  0  0  0  0  0  0  0  0  0  0  0
   25.6461  -20.1958  -10.6238 N   0  0  0  0  0  0  0  0  0  0  0  0
   26.0695  -20.7493   -9.3542 C   0  0  1  0  0  0  0  0  0  0  0  0
   27.0339  -19.7804   -8.7015 C   0  0  0  0  0  0  0  0  0  0  0  0
   27.5054  -20.3928   -7.4384 C   0  0  0  0  0  0  0  0  0  0  0  0
   27.4328  -21.7129   -7.0640 C   0  0  0  0  0  0  0  0  0  0  0  0
   27.9775  -21.8413   -5.8378 N   0  0  0  0  0  0  0  0  0  0  0  0
   28.3962  -20.6325   -5.4215 C   0  0  0  0  0  0  0  0  0  0  0  0
   29.0199  -20.2455   -4.2336 C   0  0  0  0  0  0  0  0  0  0  0  0
   29.3538  -18.9335   -4.0429 C   0  0  0  0  0  0  0  0  0  0  0  0
   29.0794  -17.9930   -5.0130 C   0  0  0  0  0  0  0  0  0  0  0  0
   28.4661  -18.3959   -6.1719 C   0  0  0  0  0  0  0  0  0  0  0  0
   28.1091  -19.7079   -6.4123 C   0  0  0  0  0  0  0  0  0  0  0  0
   24.8917  -20.9331   -8.4456 C   0  0  0  0  0  0  0  0  0  0  0  0
   23.8868  -20.2132   -8.5326 O   0  0  0  0  0  0  0  0  0  0  0  0
   24.9408  -21.9382   -7.4868 O   0  0  0  0  0  0  0  0  0  0  0  0
  1  2  1  0
  2  3  1  0
  3  4  1  6
  5  3  1  0
  5  6  1  1
  7  8  2  0
  7  5  1  0
  9 10  1  0
 11 10  1  0
 12 11  1  0
 13 12  1  6
 13 14  1  0
 14  7  1  0
 15 16  2  0
 15 13  1  0
 17 15  1  0
 18 17  1  0
 18 19  1  1
 19 20  1  0
 20 28  1  0
 20 21  2  0
 21 22  1  0
 23 22  1  0
 23 24  2  0
 25 24  1  0
 26 25  2  0
 27 28  2  0
 27 26  1  0
 28 23  1  0
 29 18  1  0
 30 29  2  0
 31 29  1  0
M  END
$$$$
