IMW.pdb
     RDKit          3D

 31 32  0  0  1  0  0  0  0  0999 V2000
   24.4404  -14.3200  -15.7244 C   0  0  0  0  0  0  0  0  0  0  0  0
   25.7775  -15.0271  -15.7780 C   0  0  0  0  0  0  0  0  0  0  0  0
   25.6992  -16.2142  -14.8468 C   0  0  2  0  0  0  0  0  0  0  0  0
   26.4259  -15.9299  -13.5755 C   0  0  0  0  0  0  0  0  0  0  0  0
   26.0459  -17.5037  -15.5065 C   0  0  2  0  0  0  0  0  0  0  0  0
   25.2064  -17.6697  -16.6745 N   0  0  0  0  0  0  0  0  0  0  0  0
   25.8655  -18.6927  -14.6160 C   0  0  0  0  0  0  0  0  0  0  0  0
   24.7371  -19.2074  -14.5175 O   0  0  0  0  0  0  0  0  0  0  0  0
   30.2422  -23.7765  -13.9299 C   0  0  0  0  0  0  0  0  0  0  0  0
   29.7143  -22.8437  -15.3712 S   0  0  0  0  0  0  0  0  0  0  0  0
   28.2928  -21.7643  -15.0661 C   0  0  0  0  0  0  0  0  0  0  0  0
   28.1817  -21.3513  -13.6542 C   0  0  0  0  0  0  0  0  0  0  0  0
   27.0433  -20.4693  -13.2543 C   0  0  2  0  0  0  0  0  0  0  0  0
   26.9391  -19.2125  -13.9118 N   0  0  0  0  0  0  0  0  0  0  0  0
   27.0633  -20.2725  -11.7929 C   0  0  0  0  0  0  0  0  0  0  0  0
   27.8233  -19.3932  -11.3157 O   0  0  0  0  0  0  0  0  0  0  0  0
   26.2545  -21.0438  -10.9416 N   0  0  0  0  0  0  0  0  0  0  0  0
   26.3773  -20.8871   -9.5071 C   0  0  1  0  0  0  0  0  0  0  0  0
   25.9836  -19.4712   -9.1396 C   0  0  0  0  0  0  0  0  0  0  0  0
   27.0271  -18.9304   -8.2388 C   0  0  0  0  0  0  0  0  0  0  0  0
   27.9085  -17.9065   -8.4899 C   0  0  0  0  0  0  0  0  0  0  0  0
   28.6873  -17.7351   -7.4032 N   0  0  0  0  0  0  0  0  0  0  0  0
   28.3225  -18.6268   -6.4643 C   0  0  0  0  0  0  0  0  0  0  0  0
   28.8198  -18.8484   -5.1784 C   0  0  0  0  0  0  0  0  0  0  0  0
   28.2714  -19.8316   -4.4028 C   0  0  0  0  0  0  0  0  0  0  0  0
   27.2338  -20.6035   -4.8807 C   0  0  0  0  0  0  0  0  0  0  0  0
   26.7614  -20.3682   -6.1467 C   0  0  0  0  0  0  0  0  0  0  0  0
   27.2808  -19.3879   -6.9688 C   0  0  0  0  0  0  0  0  0  0  0  0
   25.4590  -21.8357   -8.7974 C   0  0  0  0  0  0  0  0  0  0  0  0
   24.4199  -22.2523   -9.3288 O   0  0  0  0  0  0  0  0  0  0  0  0
   25.7924  -22.2498   -7.5132 O   0  0  0  0  0  0  0  0  0  0  0  0
  1  2  1  0
  2  3  1  0
  3  4  1  1
  5  3  1  0
  5  6  1  6
  7  8  2  0
  7  5  1  0
  9 10  1  0
 11 10  1  0
 12 11  1  0
 13 12  1  6
 13 14  1  0
 14  7  1  0
 15 16  2  0
 15 13  1  0
 17 15  1  0
 18 17  1  0
 18 19  1  6
 19 20  1  0
 20 28  1  0
 20 21  2  0
 21 22  1  0
 23 22  1  0
 23 24  2  0
 25 24  1  0
 26 25  2  0
 27 28  2  0
 27 26  1  0
 28 23  1  0
 29 18  1  0
 30 29  2  0
 31 29  1  0
M  END
$$$$
