IMW.pdb
     RDKit          3D

 31 32  0  0  1  0  0  0  0  0999 V2000
   18.6834  -20.1559  -16.2282 C   0  0  0  0  0  0  0  0  0  0  0  0
   19.4699  -19.3926  -15.1845 C   0  0  0  0  0  0  0  0  0  0  0  0
   20.3831  -20.3791  -14.4950 C   0  0  2  0  0  0  0  0  0  0  0  0
   19.6150  -21.5767  -14.0466 C   0  0  0  0  0  0  0  0  0  0  0  0
   21.2521  -19.7529  -13.4601 C   0  0  2  0  0  0  0  0  0  0  0  0
   21.8466  -18.5545  -14.0143 N   0  0  0  0  0  0  0  0  0  0  0  0
   22.3483  -20.6528  -12.9827 C   0  0  0  0  0  0  0  0  0  0  0  0
   22.0586  -21.6336  -12.2741 O   0  0  0  0  0  0  0  0  0  0  0  0
   27.3763  -22.1411  -16.6287 C   0  0  0  0  0  0  0  0  0  0  0  0
   28.1661  -22.4147  -15.0389 S   0  0  0  0  0  0  0  0  0  0  0  0
   27.0914  -22.0842  -13.6195 C   0  0  0  0  0  0  0  0  0  0  0  0
   25.8485  -21.3836  -13.9948 C   0  0  0  0  0  0  0  0  0  0  0  0
   24.8369  -21.1023  -12.9312 C   0  0  2  0  0  0  0  0  0  0  0  0
   23.6660  -20.3973  -13.3247 N   0  0  0  0  0  0  0  0  0  0  0  0
   25.4876  -20.4079  -11.8046 C   0  0  0  0  0  0  0  0  0  0  0  0
   25.5943  -19.1569  -11.8513 O   0  0  0  0  0  0  0  0  0  0  0  0
   25.9808  -21.1174  -10.6969 N   0  0  0  0  0  0  0  0  0  0  0  0
   26.7587  -20.4207   -9.6934 C   0  0  1  0  0  0  0  0  0  0  0  0
   26.0630  -20.5656   -8.3555 C   0  0  0  0  0  0  0  0  0  0  0  0
   26.7732  -19.7064   -7.3806 C   0  0  0  0  0  0  0  0  0  0  0  0
   26.8650  -18.3354   -7.3764 C   0  0  0  0  0  0  0  0  0  0  0  0
   27.6030  -17.9584   -6.3134 N   0  0  0  0  0  0  0  0  0  0  0  0
   27.9841  -19.0583   -5.6392 C   0  0  0  0  0  0  0  0  0  0  0  0
   28.7521  -19.1945   -4.4808 C   0  0  0  0  0  0  0  0  0  0  0  0
   29.0054  -20.4419   -3.9818 C   0  0  0  0  0  0  0  0  0  0  0  0
   28.5090  -21.5626   -4.6129 C   0  0  0  0  0  0  0  0  0  0  0  0
   27.7571  -21.4049   -5.7492 C   0  0  0  0  0  0  0  0  0  0  0  0
   27.4734  -20.1678   -6.2928 C   0  0  0  0  0  0  0  0  0  0  0  0
   28.1282  -21.0201   -9.5849 C   0  0  0  0  0  0  0  0  0  0  0  0
   28.3173  -22.2363   -9.7286 O   0  0  0  0  0  0  0  0  0  0  0  0
   29.2030  -20.1807   -9.3161 O   0  0  0  0  0  0  0  0  0  0  0  0
  1  2  1  0
  2  3  1  0
  3  4  1  1
  5  3  1  0
  5  6  1  6
  7  8  2  0
  7  5  1  0
  9 10  1  0
 11 10  1  0
 12 11  1  0
 13 12  1  6
 13 14  1  0
 14  7  1  0
 15 16  2  0
 15 13  1  0
 17 15  1  0
 18 17  1  0
 18 19  1  1
 19 20  1  0
 20 28  1  0
 20 21  2  0
 21 22  1  0
 23 22  1  0
 23 24  2  0
 25 24  1  0
 26 25  2  0
 27 28  2  0
 27 26  1  0
 28 23  1  0
 29 18  1  0
 30 29  2  0
 31 29  1  0
M  END
$$$$
