IMW.pdb
     RDKit          3D

 31 32  0  0  1  0  0  0  0  0999 V2000
   19.8434  -18.0761  -14.0055 C   0  0  0  0  0  0  0  0  0  0  0  0
   19.3603  -19.3342  -13.3166 C   0  0  0  0  0  0  0  0  0  0  0  0
   20.5685  -20.0129  -12.7148 C   0  0  2  0  0  0  0  0  0  0  0  0
   21.1934  -19.1429  -11.6766 C   0  0  0  0  0  0  0  0  0  0  0  0
   21.5037  -20.5631  -13.7350 C   0  0  2  0  0  0  0  0  0  0  0  0
   20.7767  -21.4823  -14.5855 N   0  0  0  0  0  0  0  0  0  0  0  0
   22.6719  -21.2851  -13.1405 C   0  0  0  0  0  0  0  0  0  0  0  0
   22.4636  -22.2553  -12.3900 O   0  0  0  0  0  0  0  0  0  0  0  0
   29.0804  -22.8341  -15.3099 C   0  0  0  0  0  0  0  0  0  0  0  0
   27.5602  -22.4749  -16.1965 S   0  0  0  0  0  0  0  0  0  0  0  0
   26.0950  -22.3902  -15.1359 C   0  0  0  0  0  0  0  0  0  0  0  0
   26.3034  -21.5525  -13.9395 C   0  0  0  0  0  0  0  0  0  0  0  0
   25.1900  -21.4287  -12.9502 C   0  0  2  0  0  0  0  0  0  0  0  0
   23.9659  -20.8791  -13.4219 N   0  0  0  0  0  0  0  0  0  0  0  0
   25.6595  -20.6746  -11.7729 C   0  0  0  0  0  0  0  0  0  0  0  0
   25.4307  -19.4404  -11.7200 O   0  0  0  0  0  0  0  0  0  0  0  0
   26.3479  -21.3103  -10.7262 N   0  0  0  0  0  0  0  0  0  0  0  0
   27.0191  -20.5083   -9.7243 C   0  0  1  0  0  0  0  0  0  0  0  0
   26.3208  -20.7105   -8.3953 C   0  0  0  0  0  0  0  0  0  0  0  0
   26.9514  -19.8028   -7.4098 C   0  0  0  0  0  0  0  0  0  0  0  0
   26.8926  -18.4305   -7.3707 C   0  0  0  0  0  0  0  0  0  0  0  0
   27.6054  -18.0009   -6.3104 N   0  0  0  0  0  0  0  0  0  0  0  0
   28.1176  -19.0686   -5.6721 C   0  0  0  0  0  0  0  0  0  0  0  0
   28.9183  -19.1480   -4.5307 C   0  0  0  0  0  0  0  0  0  0  0  0
   29.3162  -20.3719   -4.0692 C   0  0  0  0  0  0  0  0  0  0  0  0
   28.9333  -21.5245   -4.7216 C   0  0  0  0  0  0  0  0  0  0  0  0
   28.1468  -21.4225   -5.8407 C   0  0  0  0  0  0  0  0  0  0  0  0
   27.7188  -20.2110   -6.3464 C   0  0  0  0  0  0  0  0  0  0  0  0
   28.4477  -20.9390   -9.5815 C   0  0  0  0  0  0  0  0  0  0  0  0
   28.8211  -22.0706   -9.9215 O   0  0  0  0  0  0  0  0  0  0  0  0
   29.3651  -20.0381   -9.0535 O   0  0  0  0  0  0  0  0  0  0  0  0
  1  2  1  0
  2  3  1  0
  3  4  1  6
  5  3  1  0
  5  6  1  6
  7  8  2  0
  7  5  1  0
  9 10  1  0
 11 10  1  0
 12 11  1  0
 13 12  1  6
 13 14  1  0
 14  7  1  0
 15 16  2  0
 15 13  1  0
 17 15  1  0
 18 17  1  0
 18 19  1  1
 19 20  1  0
 20 28  1  0
 20 21  2  0
 21 22  1  0
 23 22  1  0
 23 24  2  0
 25 24  1  0
 26 25  2  0
 27 28  2  0
 27 26  1  0
 28 23  1  0
 29 18  1  0
 30 29  2  0
 31 29  1  0
M  END
$$$$
