IMW.pdb
     RDKit          3D

 31 32  0  0  1  0  0  0  0  0999 V2000
   12.9293  -12.1679  -16.7667 C   0  0  0  0  0  0  0  0  0  0  0  0
   13.2674  -12.6832  -15.3843 C   0  0  0  0  0  0  0  0  0  0  0  0
   14.7258  -12.3794  -15.1324 C   0  0  2  0  0  0  0  0  0  0  0  0
   15.0024  -10.9297  -15.3487 C   0  0  0  0  0  0  0  0  0  0  0  0
   15.6509  -13.3172  -15.8274 C   0  0  2  0  0  0  0  0  0  0  0  0
   15.3660  -14.6661  -15.3845 N   0  0  0  0  0  0  0  0  0  0  0  0
   17.0956  -13.0251  -15.5691 C   0  0  0  0  0  0  0  0  0  0  0  0
   17.5454  -13.1745  -14.4187 O   0  0  0  0  0  0  0  0  0  0  0  0
   21.6086  -16.4896  -18.9215 C   0  0  0  0  0  0  0  0  0  0  0  0
   20.5731  -15.0226  -18.9601 S   0  0  0  0  0  0  0  0  0  0  0  0
   20.9942  -13.7941  -17.6982 C   0  0  0  0  0  0  0  0  0  0  0  0
   20.1243  -12.6035  -17.7471 C   0  0  0  0  0  0  0  0  0  0  0  0
   19.3031  -12.2677  -16.5444 C   0  0  2  0  0  0  0  0  0  0  0  0
   17.9199  -12.5949  -16.5957 N   0  0  0  0  0  0  0  0  0  0  0  0
   19.4705  -10.8395  -16.2175 C   0  0  0  0  0  0  0  0  0  0  0  0
   18.6585  -10.0131  -16.7034 O   0  0  0  0  0  0  0  0  0  0  0  0
   20.5103  -10.3993  -15.3816 N   0  0  0  0  0  0  0  0  0  0  0  0
   20.6958   -8.9797  -15.1624 C   0  0  1  0  0  0  0  0  0  0  0  0
   21.9210   -8.7804  -14.2940 C   0  0  0  0  0  0  0  0  0  0  0  0
   22.1528   -7.3234  -14.1659 C   0  0  0  0  0  0  0  0  0  0  0  0
   21.5745   -6.4539  -13.2728 C   0  0  0  0  0  0  0  0  0  0  0  0
   22.0645   -5.2187  -13.4985 N   0  0  0  0  0  0  0  0  0  0  0  0
   22.9428   -5.2807  -14.5157 C   0  0  0  0  0  0  0  0  0  0  0  0
   23.7088   -4.2806  -15.1181 C   0  0  0  0  0  0  0  0  0  0  0  0
   24.5426   -4.6005  -16.1533 C   0  0  0  0  0  0  0  0  0  0  0  0
   24.6317   -5.9001  -16.6047 C   0  0  0  0  0  0  0  0  0  0  0  0
   23.8700   -6.8660  -15.9980 C   0  0  0  0  0  0  0  0  0  0  0  0
   23.0133   -6.5943  -14.9497 C   0  0  0  0  0  0  0  0  0  0  0  0
   20.9170   -8.2743  -16.4663 C   0  0  0  0  0  0  0  0  0  0  0  0
   21.6186   -8.7684  -17.3603 O   0  0  0  0  0  0  0  0  0  0  0  0
   20.3155   -7.0370  -16.6644 O   0  0  0  0  0  0  0  0  0  0  0  0
  1  2  1  0
  2  3  1  0
  3  4  1  6
  5  3  1  0
  5  6  1  1
  7  8  2  0
  7  5  1  0
  9 10  1  0
 11 10  1  0
 12 11  1  0
 13 12  1  6
 13 14  1  0
 14  7  1  0
 15 16  2  0
 15 13  1  0
 17 15  1  0
 18 17  1  0
 18 19  1  1
 19 20  1  0
 20 28  1  0
 20 21  2  0
 21 22  1  0
 23 22  1  0
 23 24  2  0
 25 24  1  0
 26 25  2  0
 27 28  2  0
 27 26  1  0
 28 23  1  0
 29 18  1  0
 30 29  2  0
 31 29  1  0
M  END
$$$$
