IMW.pdb
     RDKit          3D

 31 32  0  0  1  0  0  0  0  0999 V2000
   18.2704  -21.5572  -16.3017 C   0  0  0  0  0  0  0  0  0  0  0  0
   19.1335  -20.5960  -15.5131 C   0  0  0  0  0  0  0  0  0  0  0  0
   20.2071  -21.4092  -14.8286 C   0  0  2  0  0  0  0  0  0  0  0  0
   19.6028  -22.5546  -14.0883 C   0  0  0  0  0  0  0  0  0  0  0  0
   21.1668  -20.5792  -14.0487 C   0  0  2  0  0  0  0  0  0  0  0  0
   21.8306  -19.6624  -14.9519 N   0  0  0  0  0  0  0  0  0  0  0  0
   22.2074  -21.3862  -13.3379 C   0  0  0  0  0  0  0  0  0  0  0  0
   21.8474  -22.2255  -12.4929 O   0  0  0  0  0  0  0  0  0  0  0  0
   28.1797  -23.1744  -15.6970 C   0  0  0  0  0  0  0  0  0  0  0  0
   26.6325  -24.0477  -15.9606 S   0  0  0  0  0  0  0  0  0  0  0  0
   25.2905  -23.5074  -14.8715 C   0  0  0  0  0  0  0  0  0  0  0  0
   25.6941  -22.4147  -13.9662 C   0  0  0  0  0  0  0  0  0  0  0  0
   24.6755  -21.8472  -13.0314 C   0  0  2  0  0  0  0  0  0  0  0  0
   23.5516  -21.2014  -13.6166 N   0  0  0  0  0  0  0  0  0  0  0  0
   25.3366  -20.9388  -12.0759 C   0  0  0  0  0  0  0  0  0  0  0  0
   25.4861  -19.7338  -12.3982 O   0  0  0  0  0  0  0  0  0  0  0  0
   25.7930  -21.3978  -10.8291 N   0  0  0  0  0  0  0  0  0  0  0  0
   26.5529  -20.5071   -9.9765 C   0  0  1  0  0  0  0  0  0  0  0  0
   26.3824  -20.9516   -8.5384 C   0  0  0  0  0  0  0  0  0  0  0  0
   27.0666  -19.9624   -7.6747 C   0  0  0  0  0  0  0  0  0  0  0  0
   27.0068  -18.5918   -7.7530 C   0  0  0  0  0  0  0  0  0  0  0  0
   27.7786  -18.0725   -6.7776 N   0  0  0  0  0  0  0  0  0  0  0  0
   28.3295  -19.0813   -6.0785 C   0  0  0  0  0  0  0  0  0  0  0  0
   29.1949  -19.0621   -4.9827 C   0  0  0  0  0  0  0  0  0  0  0  0
   29.6218  -20.2417   -4.4392 C   0  0  0  0  0  0  0  0  0  0  0  0
   29.2047  -21.4463   -4.9644 C   0  0  0  0  0  0  0  0  0  0  0  0
   28.3547  -21.4410   -6.0409 C   0  0  0  0  0  0  0  0  0  0  0  0
   27.8952  -20.2775   -6.6256 C   0  0  0  0  0  0  0  0  0  0  0  0
   28.0097  -20.5680  -10.3238 C   0  0  0  0  0  0  0  0  0  0  0  0
   28.7254  -19.5567  -10.2983 O   0  0  0  0  0  0  0  0  0  0  0  0
   28.5582  -21.7940  -10.6814 O   0  0  0  0  0  0  0  0  0  0  0  0
  1  2  1  0
  2  3  1  0
  3  4  1  1
  5  3  1  0
  5  6  1  6
  7  8  2  0
  7  5  1  0
  9 10  1  0
 11 10  1  0
 12 11  1  0
 13 12  1  6
 13 14  1  0
 14  7  1  0
 15 16  2  0
 15 13  1  0
 17 15  1  0
 18 17  1  0
 18 19  1  1
 19 20  1  0
 20 28  1  0
 20 21  2  0
 21 22  1  0
 23 22  1  0
 23 24  2  0
 25 24  1  0
 26 25  2  0
 27 28  2  0
 27 26  1  0
 28 23  1  0
 29 18  1  0
 30 29  2  0
 31 29  1  0
M  END
$$$$
