IMW.pdb
     RDKit          3D

 31 32  0  0  1  0  0  0  0  0999 V2000
   27.8256  -18.7666  -18.2947 C   0  0  0  0  0  0  0  0  0  0  0  0
   28.3616  -19.5879  -17.1419 C   0  0  0  0  0  0  0  0  0  0  0  0
   27.1866  -19.9656  -16.2705 C   0  0  2  0  0  0  0  0  0  0  0  0
   26.3635  -18.7627  -15.9533 C   0  0  0  0  0  0  0  0  0  0  0  0
   27.5670  -20.8061  -15.1014 C   0  0  2  0  0  0  0  0  0  0  0  0
   28.3101  -21.9549  -15.5758 N   0  0  0  0  0  0  0  0  0  0  0  0
   26.3918  -21.2906  -14.3119 C   0  0  0  0  0  0  0  0  0  0  0  0
   25.7196  -22.2409  -14.7515 O   0  0  0  0  0  0  0  0  0  0  0  0
   26.0350  -19.4255   -7.9578 C   0  0  0  0  0  0  0  0  0  0  0  0
   26.5984  -21.0830   -8.3592 S   0  0  0  0  0  0  0  0  0  0  0  0
   26.3934  -21.5252  -10.1032 C   0  0  0  0  0  0  0  0  0  0  0  0
   25.2818  -20.8017  -10.7491 C   0  0  0  0  0  0  0  0  0  0  0  0
   25.0206  -21.0407  -12.2011 C   0  0  2  0  0  0  0  0  0  0  0  0
   26.0573  -20.6899  -13.1095 N   0  0  0  0  0  0  0  0  0  0  0  0
   23.7635  -20.3753  -12.5910 C   0  0  0  0  0  0  0  0  0  0  0  0
   23.7985  -19.1571  -12.8962 O   0  0  0  0  0  0  0  0  0  0  0  0
   22.5468  -21.0768  -12.6254 N   0  0  0  0  0  0  0  0  0  0  0  0
   21.4189  -20.5125  -13.3374 C   0  0  1  0  0  0  0  0  0  0  0  0
   21.7994  -20.3489  -14.7945 C   0  0  0  0  0  0  0  0  0  0  0  0
   20.6542  -19.7226  -15.4939 C   0  0  0  0  0  0  0  0  0  0  0  0
   20.1258  -18.4705  -15.2908 C   0  0  0  0  0  0  0  0  0  0  0  0
   19.0914  -18.2991  -16.1377 N   0  0  0  0  0  0  0  0  0  0  0  0
   18.9480  -19.4139  -16.8768 C   0  0  0  0  0  0  0  0  0  0  0  0
   18.0308  -19.7268  -17.8823 C   0  0  0  0  0  0  0  0  0  0  0  0
   18.0911  -20.9476  -18.4948 C   0  0  0  0  0  0  0  0  0  0  0  0
   19.0486  -21.8689  -18.1272 C   0  0  0  0  0  0  0  0  0  0  0  0
   19.9391  -21.5400  -17.1371 C   0  0  0  0  0  0  0  0  0  0  0  0
   19.9200  -20.3213  -16.4884 C   0  0  0  0  0  0  0  0  0  0  0  0
   20.2367  -21.4302  -13.2545 C   0  0  0  0  0  0  0  0  0  0  0  0
   20.3719  -22.6618  -13.2315 O   0  0  0  0  0  0  0  0  0  0  0  0
   18.9641  -20.8736  -13.2030 O   0  0  0  0  0  0  0  0  0  0  0  0
  1  2  1  0
  2  3  1  0
  3  4  1  1
  5  3  1  0
  5  6  1  6
  7  8  2  0
  7  5  1  0
  9 10  1  0
 11 10  1  0
 12 11  1  0
 13 12  1  1
 13 14  1  0
 14  7  1  0
 15 16  2  0
 15 13  1  0
 17 15  1  0
 18 17  1  0
 18 19  1  6
 19 20  1  0
 20 28  1  0
 20 21  2  0
 21 22  1  0
 23 22  1  0
 23 24  2  0
 25 24  1  0
 26 25  2  0
 27 28  2  0
 27 26  1  0
 28 23  1  0
 29 18  1  0
 30 29  2  0
 31 29  1  0
M  END
$$$$
