THE.pdb
     RDKit          3D

 27 27  0  0  1  0  0  0  0  0999 V2000
   22.2418  -12.4480  -18.4438 C   0  0  0  0  0  0  0  0  0  0  0  0
   21.5427  -11.2631  -17.8308 C   0  0  1  0  0  0  0  0  0  0  0  0
   20.6468  -10.7745  -18.8101 O   0  0  0  0  0  0  0  0  0  0  0  0
   20.7075  -11.6319  -16.6386 C   0  0  2  0  0  0  0  0  0  0  0  0
   19.6250  -12.5109  -16.9213 N   0  0  0  0  0  0  0  0  0  0  0  0
   20.1724  -10.3510  -16.0714 C   0  0  0  0  0  0  0  0  0  0  0  0
   19.0167   -9.9993  -16.4172 O   0  0  0  0  0  0  0  0  0  0  0  0
   20.9441   -9.5760  -15.1837 N   0  0  0  0  0  0  0  0  0  0  0  0
   20.5438   -8.3310  -14.6195 C   0  0  1  0  0  0  0  0  0  0  0  0
   20.4710   -8.3255  -13.1252 C   0  0  0  0  0  0  0  0  0  0  0  0
   19.1558   -8.8626  -12.6611 C   0  0  0  0  0  0  0  0  0  0  0  0
   18.1093   -9.2750  -13.4375 C   0  0  0  0  0  0  0  0  0  0  0  0
   17.1326   -9.6800  -12.6129 N   0  0  0  0  0  0  0  0  0  0  0  0
   17.5418   -9.5313  -11.3454 C   0  0  0  0  0  0  0  0  0  0  0  0
   18.7860   -9.0285  -11.3870 N   0  0  0  0  0  0  0  0  0  0  0  0
   21.3441   -7.1748  -15.1559 C   0  0  0  0  0  0  0  0  0  0  0  0
   22.5825   -7.1894  -15.1908 O   0  0  0  0  0  0  0  0  0  0  0  0
   20.6755   -6.0061  -15.6493 N   0  0  0  0  0  0  0  0  0  0  0  0
   21.4212   -4.8973  -16.2220 C   0  0  1  0  0  0  0  0  0  0  0  0
   20.3889   -4.0066  -16.8819 C   0  0  0  0  0  0  0  0  0  0  0  0
   20.9592   -2.7574  -17.4645 C   0  0  0  0  0  0  0  0  0  0  0  0
   19.9945   -1.9065  -18.1611 C   0  0  0  0  0  0  0  0  0  0  0  0
   18.8230   -1.8482  -17.6563 O   0  0  0  0  0  0  0  0  0  0  0  0
   22.1339   -4.2119  -15.1337 C   0  0  0  0  0  0  0  0  0  0  0  0
   21.6440   -4.1915  -13.9873 O   0  0  0  0  0  0  0  0  0  0  0  0
   20.2098   -1.1688  -19.2908 O   0  0  0  0  0  0  0  0  0  0  0  0
   23.3362   -3.5937  -15.3705 O   0  0  0  0  0  0  0  0  0  0  0  0
  2  1  1  6
  2  4  1  0
  3  2  1  0
  4  5  1  6
  6  4  1  0
  6  7  2  0
  8  6  1  0
  9  8  1  0
  9 10  1  1
 11 15  1  0
 11 10  1  0
 12 11  2  0
 13 12  1  0
 13 14  1  0
 14 15  2  0
 16  9  1  0
 17 16  2  0
 18 16  1  0
 19 18  1  0
 20 21  1  0
 19 20  1  1
 22 26  1  0
 22 21  1  0
 23 22  2  0
 24 27  1  0
 24 19  1  0
 25 24  2  0
M  END
$$$$
