THE.pdb
     RDKit          3D

 27 27  0  0  1  0  0  0  0  0999 V2000
   15.8676  -12.9843  -17.8390 C   0  0  0  0  0  0  0  0  0  0  0  0
   17.0164  -12.1909  -17.2740 C   0  0  1  0  0  0  0  0  0  0  0  0
   16.5024  -10.9129  -16.9527 O   0  0  0  0  0  0  0  0  0  0  0  0
   17.5490  -12.7675  -15.9939 C   0  0  2  0  0  0  0  0  0  0  0  0
   16.6048  -12.8264  -14.9311 N   0  0  0  0  0  0  0  0  0  0  0  0
   18.7082  -11.9102  -15.5817 C   0  0  0  0  0  0  0  0  0  0  0  0
   18.4775  -10.9590  -14.7937 O   0  0  0  0  0  0  0  0  0  0  0  0
   20.0058  -12.1688  -16.0651 N   0  0  0  0  0  0  0  0  0  0  0  0
   21.1451  -11.3438  -15.8411 C   0  0  1  0  0  0  0  0  0  0  0  0
   22.4552  -12.0587  -15.9474 C   0  0  0  0  0  0  0  0  0  0  0  0
   23.5902  -11.1103  -15.7334 C   0  0  0  0  0  0  0  0  0  0  0  0
   23.5118   -9.7759  -15.4482 C   0  0  0  0  0  0  0  0  0  0  0  0
   24.7660   -9.3146  -15.3374 N   0  0  0  0  0  0  0  0  0  0  0  0
   25.6224  -10.3242  -15.5456 C   0  0  0  0  0  0  0  0  0  0  0  0
   24.8892  -11.4224  -15.7879 N   0  0  0  0  0  0  0  0  0  0  0  0
   21.1132  -10.0858  -16.6665 C   0  0  0  0  0  0  0  0  0  0  0  0
   21.0031  -10.1088  -17.9003 O   0  0  0  0  0  0  0  0  0  0  0  0
   21.2114   -8.8055  -16.0282 N   0  0  0  0  0  0  0  0  0  0  0  0
   21.1797   -7.5745  -16.8008 C   0  0  1  0  0  0  0  0  0  0  0  0
   19.9209   -6.8514  -16.3684 C   0  0  0  0  0  0  0  0  0  0  0  0
   19.7695   -5.4964  -16.9736 C   0  0  0  0  0  0  0  0  0  0  0  0
   18.5585   -4.7773  -16.5786 C   0  0  0  0  0  0  0  0  0  0  0  0
   18.3891   -3.6242  -17.1006 O   0  0  0  0  0  0  0  0  0  0  0  0
   22.3959   -6.8074  -16.4933 C   0  0  0  0  0  0  0  0  0  0  0  0
   22.8423   -6.7924  -15.3292 O   0  0  0  0  0  0  0  0  0  0  0  0
   17.5907   -5.2038  -15.7136 O   0  0  0  0  0  0  0  0  0  0  0  0
   23.0445   -6.1069  -17.4794 O   0  0  0  0  0  0  0  0  0  0  0  0
  2  1  1  1
  2  4  1  0
  3  2  1  0
  4  5  1  1
  6  4  1  0
  6  7  2  0
  8  6  1  0
  9  8  1  0
  9 10  1  6
 11 15  1  0
 11 10  1  0
 12 11  2  0
 13 12  1  0
 13 14  1  0
 14 15  2  0
 16  9  1  0
 17 16  2  0
 18 16  1  0
 19 18  1  0
 20 21  1  0
 19 20  1  1
 22 26  1  0
 22 21  1  0
 23 22  2  0
 24 27  1  0
 24 19  1  0
 25 24  2  0
M  END
$$$$
