THE.pdb
     RDKit          3D

 27 27  0  0  1  0  0  0  0  0999 V2000
   24.7207  -12.1597  -18.5606 C   0  0  0  0  0  0  0  0  0  0  0  0
   23.7242  -11.1183  -18.1238 C   0  0  1  0  0  0  0  0  0  0  0  0
   23.5215  -10.2658  -19.2341 O   0  0  0  0  0  0  0  0  0  0  0  0
   22.3821  -11.7012  -17.7865 C   0  0  2  0  0  0  0  0  0  0  0  0
   21.7108  -12.3173  -18.8793 N   0  0  0  0  0  0  0  0  0  0  0  0
   21.5422  -10.5773  -17.2572 C   0  0  0  0  0  0  0  0  0  0  0  0
   20.8787   -9.9059  -18.0867 O   0  0  0  0  0  0  0  0  0  0  0  0
   21.5041  -10.2914  -15.8784 N   0  0  0  0  0  0  0  0  0  0  0  0
   20.7053   -9.2804  -15.2713 C   0  0  1  0  0  0  0  0  0  0  0  0
   19.8446   -9.7657  -14.1478 C   0  0  0  0  0  0  0  0  0  0  0  0
   18.6467  -10.4861  -14.6768 C   0  0  0  0  0  0  0  0  0  0  0  0
   18.3443  -10.7403  -15.9853 C   0  0  0  0  0  0  0  0  0  0  0  0
   17.1822  -11.4088  -16.0062 N   0  0  0  0  0  0  0  0  0  0  0  0
   16.7530  -11.5777  -14.7480 C   0  0  0  0  0  0  0  0  0  0  0  0
   17.6604  -11.0070  -13.9396 N   0  0  0  0  0  0  0  0  0  0  0  0
   21.5090   -8.0662  -14.8907 C   0  0  0  0  0  0  0  0  0  0  0  0
   22.6010   -8.1527  -14.3120 O   0  0  0  0  0  0  0  0  0  0  0  0
   21.0172   -6.7545  -15.1969 N   0  0  0  0  0  0  0  0  0  0  0  0
   21.7261   -5.5633  -14.7592 C   0  0  1  0  0  0  0  0  0  0  0  0
   21.1438   -4.4204  -15.5649 C   0  0  0  0  0  0  0  0  0  0  0  0
   21.7107   -3.0869  -15.2109 C   0  0  0  0  0  0  0  0  0  0  0  0
   21.1877   -1.9677  -15.9942 C   0  0  0  0  0  0  0  0  0  0  0  0
   19.9391   -1.7278  -15.8749 O   0  0  0  0  0  0  0  0  0  0  0  0
   21.5003   -5.3985  -13.3156 C   0  0  0  0  0  0  0  0  0  0  0  0
   20.5430   -5.9791  -12.7671 O   0  0  0  0  0  0  0  0  0  0  0  0
   21.8880   -1.1525  -16.8380 O   0  0  0  0  0  0  0  0  0  0  0  0
   22.3367   -4.6094  -12.5663 O   0  0  0  0  0  0  0  0  0  0  0  0
  2  1  1  6
  2  4  1  0
  3  2  1  0
  4  5  1  6
  6  4  1  0
  6  7  2  0
  8  6  1  0
  9  8  1  0
  9 10  1  1
 11 15  1  0
 11 10  1  0
 12 11  2  0
 13 12  1  0
 13 14  1  0
 14 15  2  0
 16  9  1  0
 17 16  2  0
 18 16  1  0
 19 18  1  0
 20 21  1  0
 19 20  1  6
 22 26  1  0
 22 21  1  0
 23 22  2  0
 24 27  1  0
 24 19  1  0
 25 24  2  0
M  END
$$$$
