THE.pdb
     RDKit          3D

 27 27  0  0  1  0  0  0  0  0999 V2000
   12.6750  -10.3252  -10.4334 C   0  0  0  0  0  0  0  0  0  0  0  0
   13.7731   -9.3241  -10.6791 C   0  0  1  0  0  0  0  0  0  0  0  0
   13.1968   -8.0445  -10.5034 O   0  0  0  0  0  0  0  0  0  0  0  0
   14.8896   -9.4268   -9.6802 C   0  0  2  0  0  0  0  0  0  0  0  0
   14.5138   -9.1396   -8.3383 N   0  0  0  0  0  0  0  0  0  0  0  0
   15.9514   -8.4619  -10.1163 C   0  0  0  0  0  0  0  0  0  0  0  0
   15.9104   -7.2985   -9.6433 O   0  0  0  0  0  0  0  0  0  0  0  0
   16.9549   -8.8537  -11.0239 N   0  0  0  0  0  0  0  0  0  0  0  0
   17.9529   -7.9942  -11.5659 C   0  0  1  0  0  0  0  0  0  0  0  0
   19.1896   -8.6985  -12.0275 C   0  0  0  0  0  0  0  0  0  0  0  0
   20.1818   -7.7195  -12.5666 C   0  0  0  0  0  0  0  0  0  0  0  0
   21.0006   -6.8913  -11.8512 C   0  0  0  0  0  0  0  0  0  0  0  0
   21.7250   -6.1849  -12.7310 N   0  0  0  0  0  0  0  0  0  0  0  0
   21.3802   -6.5501  -13.9735 C   0  0  0  0  0  0  0  0  0  0  0  0
   20.4315   -7.4933  -13.8605 N   0  0  0  0  0  0  0  0  0  0  0  0
   17.4016   -7.0644  -12.6131 C   0  0  0  0  0  0  0  0  0  0  0  0
   16.7330   -7.4735  -13.5725 O   0  0  0  0  0  0  0  0  0  0  0  0
   17.6434   -5.6540  -12.5202 N   0  0  0  0  0  0  0  0  0  0  0  0
   17.1996   -4.7436  -13.5630 C   0  0  1  0  0  0  0  0  0  0  0  0
   17.0783   -3.3876  -12.8990 C   0  0  0  0  0  0  0  0  0  0  0  0
   16.7114   -2.2897  -13.8398 C   0  0  0  0  0  0  0  0  0  0  0  0
   16.0913   -1.1227  -13.2126 C   0  0  0  0  0  0  0  0  0  0  0  0
   16.0005   -1.1459  -11.9390 O   0  0  0  0  0  0  0  0  0  0  0  0
   18.2042   -4.7499  -14.6367 C   0  0  0  0  0  0  0  0  0  0  0  0
   19.4073   -4.9243  -14.3598 O   0  0  0  0  0  0  0  0  0  0  0  0
   15.5996   -0.0127  -13.8395 O   0  0  0  0  0  0  0  0  0  0  0  0
   17.8271   -4.5650  -15.9434 O   0  0  0  0  0  0  0  0  0  0  0  0
  2  1  1  1
  2  4  1  0
  3  2  1  0
  4  5  1  1
  6  4  1  0
  6  7  2  0
  8  6  1  0
  9  8  1  0
  9 10  1  6
 11 15  1  0
 11 10  1  0
 12 11  2  0
 13 12  1  0
 13 14  1  0
 14 15  2  0
 16  9  1  0
 17 16  2  0
 18 16  1  0
 19 18  1  0
 20 21  1  0
 19 20  1  1
 22 26  1  0
 22 21  1  0
 23 22  2  0
 24 27  1  0
 24 19  1  0
 25 24  2  0
M  END
$$$$
