THE.pdb
     RDKit          3D

 27 27  0  0  1  0  0  0  0  0999 V2000
   22.8111  -11.9988  -20.3279 C   0  0  0  0  0  0  0  0  0  0  0  0
   22.0233  -11.0305  -19.4852 C   0  0  1  0  0  0  0  0  0  0  0  0
   20.8467  -11.7081  -19.0886 O   0  0  0  0  0  0  0  0  0  0  0  0
   22.7361  -10.6439  -18.2214 C   0  0  2  0  0  0  0  0  0  0  0  0
   23.0376  -11.7305  -17.3537 N   0  0  0  0  0  0  0  0  0  0  0  0
   21.8510   -9.6676  -17.5059 C   0  0  0  0  0  0  0  0  0  0  0  0
   21.4851   -8.6437  -18.1357 O   0  0  0  0  0  0  0  0  0  0  0  0
   21.4488   -9.8976  -16.1756 N   0  0  0  0  0  0  0  0  0  0  0  0
   20.7416   -8.9691  -15.3593 C   0  0  1  0  0  0  0  0  0  0  0  0
   19.9454   -9.5963  -14.2587 C   0  0  0  0  0  0  0  0  0  0  0  0
   18.6950  -10.2110  -14.7993 C   0  0  0  0  0  0  0  0  0  0  0  0
   18.2582  -10.1972  -16.0943 C   0  0  0  0  0  0  0  0  0  0  0  0
   17.0958  -10.8643  -16.1332 N   0  0  0  0  0  0  0  0  0  0  0  0
   16.7968  -11.2928  -14.8991 C   0  0  0  0  0  0  0  0  0  0  0  0
   17.7861  -10.8859  -14.0878 N   0  0  0  0  0  0  0  0  0  0  0  0
   21.6232   -7.8552  -14.8622 C   0  0  0  0  0  0  0  0  0  0  0  0
   22.6913   -8.0721  -14.2731 O   0  0  0  0  0  0  0  0  0  0  0  0
   21.2372   -6.4891  -15.0646 N   0  0  0  0  0  0  0  0  0  0  0  0
   22.0840   -5.3938  -14.6215 C   0  0  1  0  0  0  0  0  0  0  0  0
   21.7626   -4.2308  -15.5372 C   0  0  0  0  0  0  0  0  0  0  0  0
   22.5579   -3.0023  -15.2483 C   0  0  0  0  0  0  0  0  0  0  0  0
   22.0197   -1.7704  -15.8251 C   0  0  0  0  0  0  0  0  0  0  0  0
   22.1775   -1.6183  -17.0831 O   0  0  0  0  0  0  0  0  0  0  0  0
   21.7610   -5.1023  -13.2169 C   0  0  0  0  0  0  0  0  0  0  0  0
   20.7031   -5.5370  -12.7205 O   0  0  0  0  0  0  0  0  0  0  0  0
   21.3679   -0.7667  -15.1659 O   0  0  0  0  0  0  0  0  0  0  0  0
   22.6164   -4.3544  -12.4471 O   0  0  0  0  0  0  0  0  0  0  0  0
  2  1  1  6
  2  4  1  0
  3  2  1  0
  4  5  1  1
  6  4  1  0
  6  7  2  0
  8  6  1  0
  9  8  1  0
  9 10  1  1
 11 15  1  0
 11 10  1  0
 12 11  2  0
 13 12  1  0
 13 14  1  0
 14 15  2  0
 16  9  1  0
 17 16  2  0
 18 16  1  0
 19 18  1  0
 20 21  1  0
 19 20  1  6
 22 26  1  0
 22 21  1  0
 23 22  2  0
 24 27  1  0
 24 19  1  0
 25 24  2  0
M  END
$$$$
