THE.pdb
     RDKit          3D

 27 27  0  0  1  0  0  0  0  0999 V2000
   12.6967  -12.5718  -16.1635 C   0  0  0  0  0  0  0  0  0  0  0  0
   13.8649  -11.8572  -15.5366 C   0  0  1  0  0  0  0  0  0  0  0  0
   13.4721  -11.5243  -14.2192 O   0  0  0  0  0  0  0  0  0  0  0  0
   15.0808  -12.7290  -15.4087 C   0  0  2  0  0  0  0  0  0  0  0  0
   14.8940  -13.8960  -14.6166 N   0  0  0  0  0  0  0  0  0  0  0  0
   16.1587  -11.8827  -14.8001 C   0  0  0  0  0  0  0  0  0  0  0  0
   16.3244  -11.9566  -13.5567 O   0  0  0  0  0  0  0  0  0  0  0  0
   16.9524  -11.0379  -15.6006 N   0  0  0  0  0  0  0  0  0  0  0  0
   17.9018  -10.0961  -15.1104 C   0  0  1  0  0  0  0  0  0  0  0  0
   19.0110   -9.7842  -16.0648 C   0  0  0  0  0  0  0  0  0  0  0  0
   20.0534   -8.9427  -15.4022 C   0  0  0  0  0  0  0  0  0  0  0  0
   20.0295   -8.4443  -14.1297 C   0  0  0  0  0  0  0  0  0  0  0  0
   21.1610   -7.7477  -13.9500 N   0  0  0  0  0  0  0  0  0  0  0  0
   21.8882   -7.7985  -15.0745 C   0  0  0  0  0  0  0  0  0  0  0  0
   21.1982   -8.5351  -15.9598 N   0  0  0  0  0  0  0  0  0  0  0  0
   17.2490   -8.8530  -14.5686 C   0  0  0  0  0  0  0  0  0  0  0  0
   16.2816   -8.3184  -15.1283 O   0  0  0  0  0  0  0  0  0  0  0  0
   17.7435   -8.2478  -13.3663 N   0  0  0  0  0  0  0  0  0  0  0  0
   17.1578   -7.0246  -12.8430 C   0  0  1  0  0  0  0  0  0  0  0  0
   16.8472   -7.3088  -11.3879 C   0  0  0  0  0  0  0  0  0  0  0  0
   16.3393   -6.1221  -10.6401 C   0  0  0  0  0  0  0  0  0  0  0  0
   16.0767   -6.3552   -9.2201 C   0  0  0  0  0  0  0  0  0  0  0  0
   15.7197   -5.3377   -8.5360 O   0  0  0  0  0  0  0  0  0  0  0  0
   18.1388   -5.9408  -13.0015 C   0  0  0  0  0  0  0  0  0  0  0  0
   19.3538   -6.1768  -12.8512 O   0  0  0  0  0  0  0  0  0  0  0  0
   16.1715   -7.5405   -8.5471 O   0  0  0  0  0  0  0  0  0  0  0  0
   17.7265   -4.6696  -13.3143 O   0  0  0  0  0  0  0  0  0  0  0  0
  2  1  1  1
  2  4  1  0
  3  2  1  0
  4  5  1  1
  6  4  1  0
  6  7  2  0
  8  6  1  0
  9  8  1  0
  9 10  1  6
 11 15  1  0
 11 10  1  0
 12 11  2  0
 13 12  1  0
 13 14  1  0
 14 15  2  0
 16  9  1  0
 17 16  2  0
 18 16  1  0
 19 18  1  0
 20 21  1  0
 19 20  1  1
 22 26  1  0
 22 21  1  0
 23 22  2  0
 24 27  1  0
 24 19  1  0
 25 24  2  0
M  END
$$$$
