THE.pdb
     RDKit          3D

 27 27  0  0  1  0  0  0  0  0999 V2000
   24.0532  -10.7282  -20.3435 C   0  0  0  0  0  0  0  0  0  0  0  0
   23.1772   -9.9679  -19.3828 C   0  0  1  0  0  0  0  0  0  0  0  0
   22.6182   -8.8933  -20.1132 O   0  0  0  0  0  0  0  0  0  0  0  0
   22.0218  -10.7832  -18.8775 C   0  0  2  0  0  0  0  0  0  0  0  0
   21.1579  -11.2814  -19.8924 N   0  0  0  0  0  0  0  0  0  0  0  0
   21.2414   -9.9006  -17.9498 C   0  0  0  0  0  0  0  0  0  0  0  0
   20.1521   -9.4349  -18.3685 O   0  0  0  0  0  0  0  0  0  0  0  0
   21.7196   -9.6091  -16.6573 N   0  0  0  0  0  0  0  0  0  0  0  0
   21.0116   -8.8693  -15.6673 C   0  0  1  0  0  0  0  0  0  0  0  0
   20.6018   -9.6717  -14.4728 C   0  0  0  0  0  0  0  0  0  0  0  0
   19.5647  -10.6803  -14.8481 C   0  0  0  0  0  0  0  0  0  0  0  0
   18.2103  -10.5008  -14.8854 C   0  0  0  0  0  0  0  0  0  0  0  0
   17.6620  -11.6613  -15.2734 N   0  0  0  0  0  0  0  0  0  0  0  0
   18.6368  -12.5577  -15.4786 C   0  0  0  0  0  0  0  0  0  0  0  0
   19.8014  -11.9443  -15.2143 N   0  0  0  0  0  0  0  0  0  0  0  0
   21.7214   -7.5985  -15.2846 C   0  0  0  0  0  0  0  0  0  0  0  0
   22.9262   -7.5767  -14.9968 O   0  0  0  0  0  0  0  0  0  0  0  0
   21.0023   -6.3585  -15.2444 N   0  0  0  0  0  0  0  0  0  0  0  0
   21.6758   -5.1071  -14.9386 C   0  0  1  0  0  0  0  0  0  0  0  0
   20.6773   -4.0147  -15.2613 C   0  0  0  0  0  0  0  0  0  0  0  0
   21.1447   -2.6468  -14.8929 C   0  0  0  0  0  0  0  0  0  0  0  0
   20.1848   -1.5756  -15.1589 C   0  0  0  0  0  0  0  0  0  0  0  0
   19.0927   -1.9213  -15.7231 O   0  0  0  0  0  0  0  0  0  0  0  0
   22.0462   -5.1203  -13.5156 C   0  0  0  0  0  0  0  0  0  0  0  0
   21.4840   -5.9139  -12.7355 O   0  0  0  0  0  0  0  0  0  0  0  0
   20.3290   -0.2479  -14.8701 O   0  0  0  0  0  0  0  0  0  0  0  0
   23.0074   -4.2643  -13.0390 O   0  0  0  0  0  0  0  0  0  0  0  0
  2  1  1  6
  2  4  1  0
  3  2  1  0
  4  5  1  6
  6  4  1  0
  6  7  2  0
  8  6  1  0
  9  8  1  0
  9 10  1  1
 11 15  1  0
 11 10  1  0
 12 11  2  0
 13 12  1  0
 13 14  1  0
 14 15  2  0
 16  9  1  0
 17 16  2  0
 18 16  1  0
 19 18  1  0
 20 21  1  0
 19 20  1  1
 22 26  1  0
 22 21  1  0
 23 22  2  0
 24 27  1  0
 24 19  1  0
 25 24  2  0
M  END
$$$$
