THE.pdb
     RDKit          3D

 27 27  0  0  1  0  0  0  0  0999 V2000
   13.0094   -8.5178   -9.2078 C   0  0  0  0  0  0  0  0  0  0  0  0
   14.1960   -8.0133   -9.9863 C   0  0  1  0  0  0  0  0  0  0  0  0
   13.8761   -6.6988  -10.3989 O   0  0  0  0  0  0  0  0  0  0  0  0
   15.4382   -7.9045   -9.1498 C   0  0  2  0  0  0  0  0  0  0  0  0
   15.3869   -6.9055   -8.1379 N   0  0  0  0  0  0  0  0  0  0  0  0
   16.5679   -7.6030  -10.0888 C   0  0  0  0  0  0  0  0  0  0  0  0
   16.9692   -6.4140  -10.1538 O   0  0  0  0  0  0  0  0  0  0  0  0
   17.1524   -8.6219  -10.8662 N   0  0  0  0  0  0  0  0  0  0  0  0
   18.2540   -8.4490  -11.7525 C   0  0  1  0  0  0  0  0  0  0  0  0
   18.9940   -9.7098  -12.0705 C   0  0  0  0  0  0  0  0  0  0  0  0
   20.1644   -9.4234  -12.9547 C   0  0  0  0  0  0  0  0  0  0  0  0
   20.5190   -8.2190  -13.4949 C   0  0  0  0  0  0  0  0  0  0  0  0
   21.6296   -8.4155  -14.2200 N   0  0  0  0  0  0  0  0  0  0  0  0
   21.9761   -9.7080  -14.1463 C   0  0  0  0  0  0  0  0  0  0  0  0
   21.0690  -10.3177  -13.3665 N   0  0  0  0  0  0  0  0  0  0  0  0
   17.8784   -7.6802  -12.9907 C   0  0  0  0  0  0  0  0  0  0  0  0
   16.9150   -8.0018  -13.7000 O   0  0  0  0  0  0  0  0  0  0  0  0
   18.6445   -6.5336  -13.3840 N   0  0  0  0  0  0  0  0  0  0  0  0
   18.3026   -5.7717  -14.5739 C   0  0  1  0  0  0  0  0  0  0  0  0
   18.5018   -4.3173  -14.2006 C   0  0  0  0  0  0  0  0  0  0  0  0
   18.3057   -3.3735  -15.3390 C   0  0  0  0  0  0  0  0  0  0  0  0
   18.5295   -1.9644  -15.0164 C   0  0  0  0  0  0  0  0  0  0  0  0
   18.9687   -1.7150  -13.8434 O   0  0  0  0  0  0  0  0  0  0  0  0
   19.1959   -6.1944  -15.6627 C   0  0  0  0  0  0  0  0  0  0  0  0
   20.4183   -6.3173  -15.4501 O   0  0  0  0  0  0  0  0  0  0  0  0
   18.3204   -0.8879  -15.8315 O   0  0  0  0  0  0  0  0  0  0  0  0
   18.6936   -6.4551  -16.9131 O   0  0  0  0  0  0  0  0  0  0  0  0
  2  1  1  1
  2  4  1  0
  3  2  1  0
  4  5  1  1
  6  4  1  0
  6  7  2  0
  8  6  1  0
  9  8  1  0
  9 10  1  6
 11 15  1  0
 11 10  1  0
 12 11  2  0
 13 12  1  0
 13 14  1  0
 14 15  2  0
 16  9  1  0
 17 16  2  0
 18 16  1  0
 19 18  1  0
 20 21  1  0
 19 20  1  1
 22 26  1  0
 22 21  1  0
 23 22  2  0
 24 27  1  0
 24 19  1  0
 25 24  2  0
M  END
$$$$
