THE.pdb
     RDKit          3D

 27 27  0  0  1  0  0  0  0  0999 V2000
   24.0819  -19.0526  -18.4166 C   0  0  0  0  0  0  0  0  0  0  0  0
   25.2828  -19.3883  -17.5718 C   0  0  1  0  0  0  0  0  0  0  0  0
   26.1301  -20.1851  -18.3767 O   0  0  0  0  0  0  0  0  0  0  0  0
   26.0812  -18.1764  -17.1863 C   0  0  2  0  0  0  0  0  0  0  0  0
   27.2582  -18.4547  -16.4367 N   0  0  0  0  0  0  0  0  0  0  0  0
   25.1733  -17.2985  -16.3779 C   0  0  0  0  0  0  0  0  0  0  0  0
   25.0045  -17.5928  -15.1680 O   0  0  0  0  0  0  0  0  0  0  0  0
   24.5366  -16.1858  -16.9616 N   0  0  0  0  0  0  0  0  0  0  0  0
   23.6713  -15.2834  -16.2792 C   0  0  1  0  0  0  0  0  0  0  0  0
   23.8610  -13.8465  -16.6505 C   0  0  0  0  0  0  0  0  0  0  0  0
   25.1777  -13.3445  -16.1525 C   0  0  0  0  0  0  0  0  0  0  0  0
   26.0260  -13.9685  -15.2812 C   0  0  0  0  0  0  0  0  0  0  0  0
   27.0872  -13.1668  -15.1104 N   0  0  0  0  0  0  0  0  0  0  0  0
   26.9231  -12.0618  -15.8506 C   0  0  0  0  0  0  0  0  0  0  0  0
   25.7468  -12.1816  -16.4865 N   0  0  0  0  0  0  0  0  0  0  0  0
   22.2287  -15.7059  -16.3530 C   0  0  0  0  0  0  0  0  0  0  0  0
   21.7241  -16.1513  -17.3932 O   0  0  0  0  0  0  0  0  0  0  0  0
   21.3892  -15.6000  -15.1953 N   0  0  0  0  0  0  0  0  0  0  0  0
   20.0066  -16.0482  -15.2241 C   0  0  1  0  0  0  0  0  0  0  0  0
   19.8400  -16.9416  -14.0123 C   0  0  0  0  0  0  0  0  0  0  0  0
   18.4461  -17.4364  -13.8190 C   0  0  0  0  0  0  0  0  0  0  0  0
   18.2459  -18.2647  -12.6301 C   0  0  0  0  0  0  0  0  0  0  0  0
   17.1136  -18.1574  -12.0495 O   0  0  0  0  0  0  0  0  0  0  0  0
   19.1380  -14.8632  -15.1659 C   0  0  0  0  0  0  0  0  0  0  0  0
   19.5999  -13.7741  -14.7718 O   0  0  0  0  0  0  0  0  0  0  0  0
   19.1366  -19.1388  -12.0738 O   0  0  0  0  0  0  0  0  0  0  0  0
   17.8209  -14.9469  -15.5425 O   0  0  0  0  0  0  0  0  0  0  0  0
  2  1  1  6
  2  4  1  0
  3  2  1  0
  4  5  1  1
  6  4  1  0
  6  7  2  0
  8  6  1  0
  9  8  1  0
  9 10  1  6
 11 15  1  0
 11 10  1  0
 12 11  2  0
 13 12  1  0
 13 14  1  0
 14 15  2  0
 16  9  1  0
 17 16  2  0
 18 16  1  0
 19 18  1  0
 20 21  1  0
 19 20  1  1
 22 26  1  0
 22 21  1  0
 23 22  2  0
 24 27  1  0
 24 19  1  0
 25 24  2  0
M  END
$$$$
