THE.pdb
     RDKit          3D

 27 27  0  0  1  0  0  0  0  0999 V2000
   26.8295  -13.0245  -15.0201 C   0  0  0  0  0  0  0  0  0  0  0  0
   25.7458  -12.1414  -15.5804 C   0  0  1  0  0  0  0  0  0  0  0  0
   26.3493  -11.3567  -16.5907 O   0  0  0  0  0  0  0  0  0  0  0  0
   24.6473  -12.9184  -16.2470 C   0  0  2  0  0  0  0  0  0  0  0  0
   25.0273  -13.5664  -17.4553 N   0  0  0  0  0  0  0  0  0  0  0  0
   23.5403  -11.9475  -16.5307 C   0  0  0  0  0  0  0  0  0  0  0  0
   23.7314  -11.0943  -17.4331 O   0  0  0  0  0  0  0  0  0  0  0  0
   22.3328  -11.9970  -15.8069 N   0  0  0  0  0  0  0  0  0  0  0  0
   21.2166  -11.1363  -16.0119 C   0  0  1  0  0  0  0  0  0  0  0  0
   19.8944  -11.8359  -16.0378 C   0  0  0  0  0  0  0  0  0  0  0  0
   19.8141  -12.7648  -17.2059 C   0  0  0  0  0  0  0  0  0  0  0  0
   19.4514  -12.4551  -18.4868 C   0  0  0  0  0  0  0  0  0  0  0  0
   19.5170  -13.5843  -19.2069 N   0  0  0  0  0  0  0  0  0  0  0  0
   19.9103  -14.5877  -18.4104 C   0  0  0  0  0  0  0  0  0  0  0  0
   20.0899  -14.0729  -17.1835 N   0  0  0  0  0  0  0  0  0  0  0  0
   21.2207   -9.9590  -15.0744 C   0  0  0  0  0  0  0  0  0  0  0  0
   21.4532  -10.0806  -13.8636 O   0  0  0  0  0  0  0  0  0  0  0  0
   20.9501   -8.6423  -15.5739 N   0  0  0  0  0  0  0  0  0  0  0  0
   21.0922   -7.4709  -14.7249 C   0  0  1  0  0  0  0  0  0  0  0  0
   21.7958   -6.4323  -15.5738 C   0  0  0  0  0  0  0  0  0  0  0  0
   22.0173   -5.1344  -14.8726 C   0  0  0  0  0  0  0  0  0  0  0  0
   22.7018   -4.1144  -15.6668 C   0  0  0  0  0  0  0  0  0  0  0  0
   23.0463   -4.4539  -16.8487 O   0  0  0  0  0  0  0  0  0  0  0  0
   19.7493   -7.0364  -14.3127 C   0  0  0  0  0  0  0  0  0  0  0  0
   18.7540   -7.3785  -14.9812 O   0  0  0  0  0  0  0  0  0  0  0  0
   23.0124   -2.8404  -15.2828 O   0  0  0  0  0  0  0  0  0  0  0  0
   19.5829   -6.2560  -13.1959 O   0  0  0  0  0  0  0  0  0  0  0  0
  2  1  1  6
  2  4  1  0
  3  2  1  0
  4  5  1  6
  6  4  1  0
  6  7  2  0
  8  6  1  0
  9  8  1  0
  9 10  1  1
 11 15  1  0
 11 10  1  0
 12 11  2  0
 13 12  1  0
 13 14  1  0
 14 15  2  0
 16  9  1  0
 17 16  2  0
 18 16  1  0
 19 18  1  0
 20 21  1  0
 19 20  1  6
 22 26  1  0
 22 21  1  0
 23 22  2  0
 24 27  1  0
 24 19  1  0
 25 24  2  0
M  END
$$$$
