THE.pdb
     RDKit          3D

 27 27  0  0  1  0  0  0  0  0999 V2000
   26.1680  -10.0504  -20.3708 C   0  0  0  0  0  0  0  0  0  0  0  0
   24.8625   -9.7329  -19.6901 C   0  0  1  0  0  0  0  0  0  0  0  0
   24.4487   -8.4731  -20.1825 O   0  0  0  0  0  0  0  0  0  0  0  0
   23.7717  -10.7037  -20.0402 C   0  0  2  0  0  0  0  0  0  0  0  0
   23.4372  -10.7479  -21.4224 N   0  0  0  0  0  0  0  0  0  0  0  0
   22.5630  -10.3011  -19.2492 C   0  0  0  0  0  0  0  0  0  0  0  0
   21.7650   -9.4879  -19.7790 O   0  0  0  0  0  0  0  0  0  0  0  0
   22.3379  -10.8206  -17.9593 N   0  0  0  0  0  0  0  0  0  0  0  0
   21.2640  -10.4494  -17.1004 C   0  0  1  0  0  0  0  0  0  0  0  0
   20.8583  -11.5098  -16.1260 C   0  0  0  0  0  0  0  0  0  0  0  0
   19.6078  -11.1143  -15.4094 C   0  0  0  0  0  0  0  0  0  0  0  0
   18.8794   -9.9711  -15.5844 C   0  0  0  0  0  0  0  0  0  0  0  0
   17.8392  -10.0246  -14.7399 N   0  0  0  0  0  0  0  0  0  0  0  0
   17.8998  -11.1685  -14.0445 C   0  0  0  0  0  0  0  0  0  0  0  0
   18.9902  -11.8301  -14.4639 N   0  0  0  0  0  0  0  0  0  0  0  0
   21.4965   -9.1205  -16.4333 C   0  0  0  0  0  0  0  0  0  0  0  0
   22.6017   -8.7955  -15.9776 O   0  0  0  0  0  0  0  0  0  0  0  0
   20.4200   -8.1815  -16.3087 N   0  0  0  0  0  0  0  0  0  0  0  0
   20.6279   -6.8725  -15.7114 C   0  0  1  0  0  0  0  0  0  0  0  0
   21.0258   -5.9597  -16.8528 C   0  0  0  0  0  0  0  0  0  0  0  0
   21.2732   -4.5493  -16.4346 C   0  0  0  0  0  0  0  0  0  0  0  0
   21.7436   -3.6645  -17.5003 C   0  0  0  0  0  0  0  0  0  0  0  0
   22.6617   -4.1282  -18.2572 O   0  0  0  0  0  0  0  0  0  0  0  0
   19.3705   -6.4528  -15.0751 C   0  0  0  0  0  0  0  0  0  0  0  0
   18.2819   -6.8704  -15.5168 O   0  0  0  0  0  0  0  0  0  0  0  0
   21.3088   -2.3984  -17.7736 O   0  0  0  0  0  0  0  0  0  0  0  0
   19.3861   -5.6035  -13.9970 O   0  0  0  0  0  0  0  0  0  0  0  0
  2  1  1  6
  2  4  1  0
  3  2  1  0
  4  5  1  6
  6  4  1  0
  6  7  2  0
  8  6  1  0
  9  8  1  0
  9 10  1  1
 11 15  1  0
 11 10  1  0
 12 11  2  0
 13 12  1  0
 13 14  1  0
 14 15  2  0
 16  9  1  0
 17 16  2  0
 18 16  1  0
 19 18  1  0
 20 21  1  0
 19 20  1  6
 22 26  1  0
 22 21  1  0
 23 22  2  0
 24 27  1  0
 24 19  1  0
 25 24  2  0
M  END
$$$$
