THE.pdb
     RDKit          3D

 27 27  0  0  1  0  0  0  0  0999 V2000
   18.7499  -11.1897  -17.1168 C   0  0  0  0  0  0  0  0  0  0  0  0
   19.5547  -11.3692  -18.3772 C   0  0  1  0  0  0  0  0  0  0  0  0
   19.3559  -10.2016  -19.1504 O   0  0  0  0  0  0  0  0  0  0  0  0
   21.0310  -11.4595  -18.1181 C   0  0  2  0  0  0  0  0  0  0  0  0
   21.4319  -12.5931  -17.3574 N   0  0  0  0  0  0  0  0  0  0  0  0
   21.4203  -10.2086  -17.3885 C   0  0  0  0  0  0  0  0  0  0  0  0
   21.0341  -10.0844  -16.1992 O   0  0  0  0  0  0  0  0  0  0  0  0
   22.1912   -9.2137  -18.0209 N   0  0  0  0  0  0  0  0  0  0  0  0
   22.5515   -7.9627  -17.4429 C   0  0  1  0  0  0  0  0  0  0  0  0
   24.0205   -7.6793  -17.4512 C   0  0  0  0  0  0  0  0  0  0  0  0
   24.7483   -8.6520  -16.5806 C   0  0  0  0  0  0  0  0  0  0  0  0
   24.2031   -9.6231  -15.7882 C   0  0  0  0  0  0  0  0  0  0  0  0
   25.2146  -10.2627  -15.1836 N   0  0  0  0  0  0  0  0  0  0  0  0
   26.3736   -9.7171  -15.5773 C   0  0  0  0  0  0  0  0  0  0  0  0
   26.0752   -8.7287  -16.4354 N   0  0  0  0  0  0  0  0  0  0  0  0
   21.7469   -6.8202  -18.0017 C   0  0  0  0  0  0  0  0  0  0  0  0
   21.4867   -6.7249  -19.2092 O   0  0  0  0  0  0  0  0  0  0  0  0
   21.2532   -5.7951  -17.1289 N   0  0  0  0  0  0  0  0  0  0  0  0
   20.4998   -4.6644  -17.6458 C   0  0  1  0  0  0  0  0  0  0  0  0
   19.6137   -4.2066  -16.5058 C   0  0  0  0  0  0  0  0  0  0  0  0
   18.8009   -2.9975  -16.8261 C   0  0  0  0  0  0  0  0  0  0  0  0
   17.9155   -2.5484  -15.7518 C   0  0  0  0  0  0  0  0  0  0  0  0
   17.2775   -1.4621  -15.9610 O   0  0  0  0  0  0  0  0  0  0  0  0
   21.4553   -3.6262  -18.0599 C   0  0  0  0  0  0  0  0  0  0  0  0
   22.4896   -3.4326  -17.3911 O   0  0  0  0  0  0  0  0  0  0  0  0
   17.6970   -3.1630  -14.5513 O   0  0  0  0  0  0  0  0  0  0  0  0
   21.2168   -2.8676  -19.1785 O   0  0  0  0  0  0  0  0  0  0  0  0
  2  1  1  1
  2  4  1  0
  3  2  1  0
  4  5  1  1
  6  4  1  0
  6  7  2  0
  8  6  1  0
  9  8  1  0
  9 10  1  6
 11 15  1  0
 11 10  1  0
 12 11  2  0
 13 12  1  0
 13 14  1  0
 14 15  2  0
 16  9  1  0
 17 16  2  0
 18 16  1  0
 19 18  1  0
 20 21  1  0
 19 20  1  1
 22 26  1  0
 22 21  1  0
 23 22  2  0
 24 27  1  0
 24 19  1  0
 25 24  2  0
M  END
$$$$
