THE.pdb
     RDKit          3D

 27 27  0  0  1  0  0  0  0  0999 V2000
   13.7029   -8.6560  -14.9399 C   0  0  0  0  0  0  0  0  0  0  0  0
   13.4311  -10.1299  -14.7910 C   0  0  1  0  0  0  0  0  0  0  0  0
   12.2735  -10.4042  -15.5560 O   0  0  0  0  0  0  0  0  0  0  0  0
   14.5270  -10.9849  -15.3591 C   0  0  2  0  0  0  0  0  0  0  0  0
   14.3056  -12.3859  -15.2470 N   0  0  0  0  0  0  0  0  0  0  0  0
   15.7843  -10.6205  -14.6275 C   0  0  0  0  0  0  0  0  0  0  0  0
   15.9395  -11.0844  -13.4701 O   0  0  0  0  0  0  0  0  0  0  0  0
   16.7514   -9.7876  -15.2237 N   0  0  0  0  0  0  0  0  0  0  0  0
   17.9267   -9.3035  -14.5811 C   0  0  1  0  0  0  0  0  0  0  0  0
   18.8440  -10.3756  -14.0832 C   0  0  0  0  0  0  0  0  0  0  0  0
   19.2237  -11.3001  -15.1944 C   0  0  0  0  0  0  0  0  0  0  0  0
   18.7170  -11.3215  -16.4636 C   0  0  0  0  0  0  0  0  0  0  0  0
   19.3379  -12.3073  -17.1273 N   0  0  0  0  0  0  0  0  0  0  0  0
   20.2165  -12.8999  -16.3071 C   0  0  0  0  0  0  0  0  0  0  0  0
   20.1379  -12.2731  -15.1224 N   0  0  0  0  0  0  0  0  0  0  0  0
   18.6488   -8.2733  -15.4072 C   0  0  0  0  0  0  0  0  0  0  0  0
   18.6595   -8.3100  -16.6455 O   0  0  0  0  0  0  0  0  0  0  0  0
   19.3548   -7.2036  -14.7643 N   0  0  0  0  0  0  0  0  0  0  0  0
   19.9921   -6.1502  -15.5373 C   0  0  1  0  0  0  0  0  0  0  0  0
   19.6874   -4.8610  -14.8027 C   0  0  0  0  0  0  0  0  0  0  0  0
   20.3568   -3.6639  -15.3891 C   0  0  0  0  0  0  0  0  0  0  0  0
   20.0262   -2.3945  -14.7417 C   0  0  0  0  0  0  0  0  0  0  0  0
   18.8192   -2.2574  -14.3478 O   0  0  0  0  0  0  0  0  0  0  0  0
   21.4344   -6.4308  -15.5948 C   0  0  0  0  0  0  0  0  0  0  0  0
   21.9660   -7.1308  -14.7105 O   0  0  0  0  0  0  0  0  0  0  0  0
   20.8662   -1.3415  -14.5129 O   0  0  0  0  0  0  0  0  0  0  0  0
   22.2009   -5.9272  -16.6159 O   0  0  0  0  0  0  0  0  0  0  0  0
  2  1  1  6
  2  4  1  0
  3  2  1  0
  4  5  1  1
  6  4  1  0
  6  7  2  0
  8  6  1  0
  9  8  1  0
  9 10  1  6
 11 15  1  0
 11 10  1  0
 12 11  2  0
 13 12  1  0
 13 14  1  0
 14 15  2  0
 16  9  1  0
 17 16  2  0
 18 16  1  0
 19 18  1  0
 20 21  1  0
 19 20  1  1
 22 26  1  0
 22 21  1  0
 23 22  2  0
 24 27  1  0
 24 19  1  0
 25 24  2  0
M  END
$$$$
