THE.pdb
     RDKit          3D

 27 27  0  0  1  0  0  0  0  0999 V2000
   28.9381   -9.1791  -17.1391 C   0  0  0  0  0  0  0  0  0  0  0  0
   28.9117  -10.3352  -18.1041 C   0  0  1  0  0  0  0  0  0  0  0  0
   30.2597  -10.6951  -18.3366 O   0  0  0  0  0  0  0  0  0  0  0  0
   28.2399  -11.5525  -17.5370 C   0  0  2  0  0  0  0  0  0  0  0  0
   28.3897  -12.7317  -18.3190 N   0  0  0  0  0  0  0  0  0  0  0  0
   26.7826  -11.2231  -17.4089 C   0  0  0  0  0  0  0  0  0  0  0  0
   26.0673  -11.3387  -18.4355 O   0  0  0  0  0  0  0  0  0  0  0  0
   26.2431  -10.7999  -16.1784 N   0  0  0  0  0  0  0  0  0  0  0  0
   24.9035  -10.3598  -15.9770 C   0  0  1  0  0  0  0  0  0  0  0  0
   24.1232  -11.1838  -15.0020 C   0  0  0  0  0  0  0  0  0  0  0  0
   24.0041  -12.5939  -15.4827 C   0  0  0  0  0  0  0  0  0  0  0  0
   24.6841  -13.6862  -15.0216 C   0  0  0  0  0  0  0  0  0  0  0  0
   24.2710  -14.7457  -15.7321 N   0  0  0  0  0  0  0  0  0  0  0  0
   23.3534  -14.3436  -16.6221 C   0  0  0  0  0  0  0  0  0  0  0  0
   23.1972  -13.0200  -16.4600 N   0  0  0  0  0  0  0  0  0  0  0  0
   24.8232   -8.8881  -15.6727 C   0  0  0  0  0  0  0  0  0  0  0  0
   25.4877   -8.3642  -14.7677 O   0  0  0  0  0  0  0  0  0  0  0  0
   23.9571   -8.0421  -16.4411 N   0  0  0  0  0  0  0  0  0  0  0  0
   23.9462   -6.6013  -16.2479 C   0  0  1  0  0  0  0  0  0  0  0  0
   23.3090   -6.0253  -17.4955 C   0  0  0  0  0  0  0  0  0  0  0  0
   23.2059   -4.5372  -17.4841 C   0  0  0  0  0  0  0  0  0  0  0  0
   22.6021   -3.9524  -18.6813 C   0  0  0  0  0  0  0  0  0  0  0  0
   22.2091   -4.7743  -19.5762 O   0  0  0  0  0  0  0  0  0  0  0  0
   23.1660   -6.3060  -15.0371 C   0  0  0  0  0  0  0  0  0  0  0  0
   22.2806   -7.0990  -14.6606 O   0  0  0  0  0  0  0  0  0  0  0  0
   22.4132   -2.6254  -18.9460 O   0  0  0  0  0  0  0  0  0  0  0  0
   23.4055   -5.1623  -14.3170 O   0  0  0  0  0  0  0  0  0  0  0  0
  2  1  1  1
  2  4  1  0
  3  2  1  0
  4  5  1  6
  6  4  1  0
  6  7  2  0
  8  6  1  0
  9  8  1  0
  9 10  1  1
 11 15  1  0
 11 10  1  0
 12 11  2  0
 13 12  1  0
 13 14  1  0
 14 15  2  0
 16  9  1  0
 17 16  2  0
 18 16  1  0
 19 18  1  0
 20 21  1  0
 19 20  1  6
 22 26  1  0
 22 21  1  0
 23 22  2  0
 24 27  1  0
 24 19  1  0
 25 24  2  0
M  END
$$$$
