THE.pdb
     RDKit          3D

 27 27  0  0  1  0  0  0  0  0999 V2000
   21.8954   -8.4272  -12.9761 C   0  0  0  0  0  0  0  0  0  0  0  0
   20.4937   -8.2355  -12.4594 C   0  0  1  0  0  0  0  0  0  0  0  0
   20.0573   -6.9784  -12.9390 O   0  0  0  0  0  0  0  0  0  0  0  0
   19.5296   -9.2526  -12.9985 C   0  0  2  0  0  0  0  0  0  0  0  0
   19.3889   -9.2452  -14.4144 N   0  0  0  0  0  0  0  0  0  0  0  0
   18.2003   -8.9679  -12.3656 C   0  0  0  0  0  0  0  0  0  0  0  0
   17.4212   -8.1909  -12.9724 O   0  0  0  0  0  0  0  0  0  0  0  0
   17.8457   -9.5546  -11.1350 N   0  0  0  0  0  0  0  0  0  0  0  0
   16.6028   -9.3689  -10.4646 C   0  0  1  0  0  0  0  0  0  0  0  0
   16.1046  -10.5803   -9.7415 C   0  0  0  0  0  0  0  0  0  0  0  0
   15.6678  -11.6292  -10.7124 C   0  0  0  0  0  0  0  0  0  0  0  0
   15.6436  -11.5371  -12.0758 C   0  0  0  0  0  0  0  0  0  0  0  0
   15.1836  -12.7043  -12.5491 N   0  0  0  0  0  0  0  0  0  0  0  0
   14.9209  -13.5200  -11.5187 C   0  0  0  0  0  0  0  0  0  0  0  0
   15.2220  -12.8492  -10.3954 N   0  0  0  0  0  0  0  0  0  0  0  0
   16.5994   -8.1423   -9.5925 C   0  0  0  0  0  0  0  0  0  0  0  0
   17.4700   -7.9405   -8.7344 O   0  0  0  0  0  0  0  0  0  0  0  0
   15.5659   -7.1593   -9.7398 N   0  0  0  0  0  0  0  0  0  0  0  0
   15.5356   -5.9679   -8.9074 C   0  0  1  0  0  0  0  0  0  0  0  0
   15.5060   -4.7973   -9.8681 C   0  0  0  0  0  0  0  0  0  0  0  0
   15.3740   -3.4724   -9.1954 C   0  0  0  0  0  0  0  0  0  0  0  0
   15.4610   -2.3170  -10.0883 C   0  0  0  0  0  0  0  0  0  0  0  0
   15.5836   -2.5718  -11.3336 O   0  0  0  0  0  0  0  0  0  0  0  0
   14.3325   -6.0269   -8.0642 C   0  0  0  0  0  0  0  0  0  0  0  0
   13.4346   -6.8529   -8.3211 O   0  0  0  0  0  0  0  0  0  0  0  0
   15.4255   -0.9973   -9.7359 O   0  0  0  0  0  0  0  0  0  0  0  0
   14.1901   -5.1782   -6.9949 O   0  0  0  0  0  0  0  0  0  0  0  0
  2  1  1  6
  2  4  1  0
  3  2  1  0
  4  5  1  6
  6  4  1  0
  6  7  2  0
  8  6  1  0
  9  8  1  0
  9 10  1  1
 11 15  1  0
 11 10  1  0
 12 11  2  0
 13 12  1  0
 13 14  1  0
 14 15  2  0
 16  9  1  0
 17 16  2  0
 18 16  1  0
 19 18  1  0
 20 21  1  0
 19 20  1  6
 22 26  1  0
 22 21  1  0
 23 22  2  0
 24 27  1  0
 24 19  1  0
 25 24  2  0
M  END
$$$$
