THE.pdb
     RDKit          3D

 27 27  0  0  1  0  0  0  0  0999 V2000
   23.3857  -12.2128  -14.9485 C   0  0  0  0  0  0  0  0  0  0  0  0
   22.3711  -11.1356  -15.2293 C   0  0  1  0  0  0  0  0  0  0  0  0
   23.0262  -10.1634  -16.0207 O   0  0  0  0  0  0  0  0  0  0  0  0
   21.2074  -11.6283  -16.0404 C   0  0  2  0  0  0  0  0  0  0  0  0
   21.5374  -12.0436  -17.3607 N   0  0  0  0  0  0  0  0  0  0  0  0
   20.2178  -10.5035  -16.1060 C   0  0  0  0  0  0  0  0  0  0  0  0
   20.1720   -9.8297  -17.1656 O   0  0  0  0  0  0  0  0  0  0  0  0
   19.3738  -10.2194  -15.0146 N   0  0  0  0  0  0  0  0  0  0  0  0
   18.3617   -9.2174  -14.9984 C   0  0  1  0  0  0  0  0  0  0  0  0
   17.0012   -9.7202  -14.6311 C   0  0  0  0  0  0  0  0  0  0  0  0
   16.4738  -10.6314  -15.6918 C   0  0  0  0  0  0  0  0  0  0  0  0
   16.4292  -10.3971  -17.0377 C   0  0  0  0  0  0  0  0  0  0  0  0
   15.8803  -11.4757  -17.6150 N   0  0  0  0  0  0  0  0  0  0  0  0
   15.5820  -12.3743  -16.6666 C   0  0  0  0  0  0  0  0  0  0  0  0
   15.9509  -11.8452  -15.4891 N   0  0  0  0  0  0  0  0  0  0  0  0
   18.7614   -8.0118  -14.1909 C   0  0  0  0  0  0  0  0  0  0  0  0
   19.1460   -8.1022  -13.0167 O   0  0  0  0  0  0  0  0  0  0  0  0
   18.7047   -6.7042  -14.7767 N   0  0  0  0  0  0  0  0  0  0  0  0
   19.1803   -5.5348  -14.0558 C   0  0  1  0  0  0  0  0  0  0  0  0
   20.5731   -5.2647  -14.5862 C   0  0  0  0  0  0  0  0  0  0  0  0
   21.2323   -4.0795  -13.9648 C   0  0  0  0  0  0  0  0  0  0  0  0
   22.5921   -3.8145  -14.4341 C   0  0  0  0  0  0  0  0  0  0  0  0
   22.8084   -2.6516  -14.9154 O   0  0  0  0  0  0  0  0  0  0  0  0
   18.2568   -4.4225  -14.3241 C   0  0  0  0  0  0  0  0  0  0  0  0
   17.5069   -4.4649  -15.3193 O   0  0  0  0  0  0  0  0  0  0  0  0
   23.6542   -4.6739  -14.4139 O   0  0  0  0  0  0  0  0  0  0  0  0
   18.2139   -3.3364  -13.4861 O   0  0  0  0  0  0  0  0  0  0  0  0
  2  1  1  6
  2  4  1  0
  3  2  1  0
  4  5  1  6
  6  4  1  0
  6  7  2  0
  8  6  1  0
  9  8  1  0
  9 10  1  1
 11 15  1  0
 11 10  1  0
 12 11  2  0
 13 12  1  0
 13 14  1  0
 14 15  2  0
 16  9  1  0
 17 16  2  0
 18 16  1  0
 19 18  1  0
 20 21  1  0
 19 20  1  6
 22 26  1  0
 22 21  1  0
 23 22  2  0
 24 27  1  0
 24 19  1  0
 25 24  2  0
M  END
$$$$
