THE.pdb
     RDKit          3D

 27 27  0  0  1  0  0  0  0  0999 V2000
   20.5830   -8.6680  -21.9693 C   0  0  0  0  0  0  0  0  0  0  0  0
   20.2996   -8.2425  -20.5526 C   0  0  1  0  0  0  0  0  0  0  0  0
   19.6027   -7.0144  -20.6339 O   0  0  0  0  0  0  0  0  0  0  0  0
   19.3943   -9.1963  -19.8277 C   0  0  2  0  0  0  0  0  0  0  0  0
   18.1084   -9.3570  -20.4151 N   0  0  0  0  0  0  0  0  0  0  0  0
   19.2406   -8.6714  -18.4314 C   0  0  0  0  0  0  0  0  0  0  0  0
   18.2220   -7.9807  -18.1781 O   0  0  0  0  0  0  0  0  0  0  0  0
   20.2080   -8.9474  -17.4454 N   0  0  0  0  0  0  0  0  0  0  0  0
   20.1053   -8.5880  -16.0709 C   0  0  1  0  0  0  0  0  0  0  0  0
   20.2622   -9.7327  -15.1203 C   0  0  0  0  0  0  0  0  0  0  0  0
   19.0218  -10.5659  -15.0919 C   0  0  0  0  0  0  0  0  0  0  0  0
   17.8764  -10.3706  -15.8115 C   0  0  0  0  0  0  0  0  0  0  0  0
   17.0217  -11.3489  -15.4793 N   0  0  0  0  0  0  0  0  0  0  0  0
   17.6029  -12.1473  -14.5734 C   0  0  0  0  0  0  0  0  0  0  0  0
   18.8312  -11.6569  -14.3428 N   0  0  0  0  0  0  0  0  0  0  0  0
   20.9918   -7.4251  -15.7147 C   0  0  0  0  0  0  0  0  0  0  0  0
   22.1869   -7.3831  -16.0386 O   0  0  0  0  0  0  0  0  0  0  0  0
   20.4601   -6.3164  -14.9770 N   0  0  0  0  0  0  0  0  0  0  0  0
   21.2809   -5.1588  -14.6614 C   0  0  1  0  0  0  0  0  0  0  0  0
   20.3494   -3.9661  -14.7254 C   0  0  0  0  0  0  0  0  0  0  0  0
   20.9960   -2.6786  -14.3389 C   0  0  0  0  0  0  0  0  0  0  0  0
   20.1022   -1.5208  -14.3233 C   0  0  0  0  0  0  0  0  0  0  0  0
   18.8954   -1.7324  -14.6834 O   0  0  0  0  0  0  0  0  0  0  0  0
   21.8487   -5.3504  -13.3186 C   0  0  0  0  0  0  0  0  0  0  0  0
   21.3496   -6.1945  -12.5485 O   0  0  0  0  0  0  0  0  0  0  0  0
   20.4169   -0.2400  -13.9663 O   0  0  0  0  0  0  0  0  0  0  0  0
   22.9254   -4.6061  -12.9059 O   0  0  0  0  0  0  0  0  0  0  0  0
  2  1  1  6
  2  4  1  0
  3  2  1  0
  4  5  1  6
  6  4  1  0
  6  7  2  0
  8  6  1  0
  9  8  1  0
  9 10  1  1
 11 15  1  0
 11 10  1  0
 12 11  2  0
 13 12  1  0
 13 14  1  0
 14 15  2  0
 16  9  1  0
 17 16  2  0
 18 16  1  0
 19 18  1  0
 20 21  1  0
 19 20  1  1
 22 26  1  0
 22 21  1  0
 23 22  2  0
 24 27  1  0
 24 19  1  0
 25 24  2  0
M  END
$$$$
