QHQ.pdb
     RDKit          3D

 29 29  0  0  1  0  0  0  0  0999 V2000
   21.6079  -20.3355  -17.2019 N   0  0  0  0  0  0  0  0  0  0  0  0
   22.7804  -20.0918  -17.9914 C   0  0  0  0  0  0  0  0  0  0  0  0
   22.6405  -19.3922  -19.0022 O   0  0  0  0  0  0  0  0  0  0  0  0
   24.0367  -20.7078  -17.5085 C   0  0  0  0  0  0  0  0  0  0  0  0
   23.7763  -21.5453  -16.3041 C   0  0  0  0  0  0  0  0  0  0  0  0
   24.3255  -20.9961  -15.0414 C   0  0  2  0  0  0  0  0  0  0  0  0
   24.9372  -22.1316  -14.3114 N   0  0  0  0  0  0  0  0  0  0  0  0
   23.2788  -20.4154  -14.1254 C   0  0  0  0  0  0  0  0  0  0  0  0
   23.5288  -19.2719  -13.6211 O   0  0  0  0  0  0  0  0  0  0  0  0
   22.0750  -21.0386  -13.7963 N   0  0  0  0  0  0  0  0  0  0  0  0
   20.9454  -20.3697  -13.1299 C   0  0  1  0  0  0  0  0  0  0  0  0
   20.6119  -19.1797  -13.9169 C   0  0  0  0  0  0  0  0  0  0  0  0
   19.4334  -18.3987  -13.5164 C   0  0  0  0  0  0  0  0  0  0  0  0
   19.5606  -17.4111  -12.5276 C   0  0  0  0  0  0  0  0  0  0  0  0
   18.3720  -16.8347  -12.3273 N   0  0  0  0  0  0  0  0  0  0  0  0
   17.5062  -17.4448  -13.1730 C   0  0  0  0  0  0  0  0  0  0  0  0
   18.1618  -18.3809  -13.8786 N   0  0  0  0  0  0  0  0  0  0  0  0
   19.8838  -21.3413  -12.8543 C   0  0  0  0  0  0  0  0  0  0  0  0
   19.5337  -22.1185  -13.7799 O   0  0  0  0  0  0  0  0  0  0  0  0
   18.3883  -23.8843   -7.4917 N   0  0  0  0  0  0  0  0  0  0  0  0
   18.9308  -24.7279   -8.4651 C   0  0  0  0  0  0  0  0  0  0  0  0
   19.4500  -25.8167   -8.1489 O   0  0  0  0  0  0  0  0  0  0  0  0
   18.8930  -24.3301   -9.9008 C   0  0  0  0  0  0  0  0  0  0  0  0
   18.1838  -23.0122  -10.0788 C   0  0  0  0  0  0  0  0  0  0  0  0
   18.1777  -22.5143  -11.5026 C   0  0  2  0  0  0  0  0  0  0  0  0
   19.2181  -21.4736  -11.6262 N   0  0  0  0  0  0  0  0  0  0  0  0
   16.8794  -21.9701  -11.9472 C   0  0  0  0  0  0  0  0  0  0  0  0
   16.5855  -20.7561  -11.6714 O   0  0  0  0  0  0  0  0  0  0  0  0
   15.9203  -22.6598  -12.6542 O   0  0  0  0  0  0  0  0  0  0  0  0
  2  1  1  0
  3  2  2  0
  4  2  1  0
  5  4  1  0
  6  5  1  0
  6  7  1  1
  8  6  1  0
  9  8  2  0
 10  8  1  0
 11 10  1  0
 11 12  1  6
 12 13  1  0
 13 14  2  0
 14 15  1  0
 16 15  1  0
 17 13  1  0
 17 16  2  0
 18 26  1  0
 18 11  1  0
 19 18  2  0
 21 20  1  0
 22 21  2  0
 23 21  1  0
 25 24  1  1
 24 23  1  0
 25 26  1  0
 27 25  1  0
 28 27  2  0
 29 27  1  0
M  END
$$$$
