QHQ.pdb
     RDKit          3D

 29 29  0  0  1  0  0  0  0  0999 V2000
   15.4411  -13.1693  -16.1464 N   0  0  0  0  0  0  0  0  0  0  0  0
   15.4187  -14.1267  -17.2143 C   0  0  0  0  0  0  0  0  0  0  0  0
   14.3179  -14.3766  -17.7205 O   0  0  0  0  0  0  0  0  0  0  0  0
   16.7223  -14.7151  -17.5958 C   0  0  0  0  0  0  0  0  0  0  0  0
   17.8325  -14.0338  -16.8726 C   0  0  0  0  0  0  0  0  0  0  0  0
   19.1906  -14.4593  -17.2877 C   0  0  2  0  0  0  0  0  0  0  0  0
   19.3479  -15.8683  -16.8561 N   0  0  0  0  0  0  0  0  0  0  0  0
   20.2997  -13.6842  -16.6235 C   0  0  0  0  0  0  0  0  0  0  0  0
   20.2955  -13.6549  -15.3493 O   0  0  0  0  0  0  0  0  0  0  0  0
   21.3127  -13.0055  -17.3009 N   0  0  0  0  0  0  0  0  0  0  0  0
   22.3758  -12.2259  -16.6457 C   0  0  1  0  0  0  0  0  0  0  0  0
   23.6606  -12.7592  -17.1062 C   0  0  0  0  0  0  0  0  0  0  0  0
   24.8873  -12.1795  -16.5423 C   0  0  0  0  0  0  0  0  0  0  0  0
   24.7942  -11.1427  -15.6013 C   0  0  0  0  0  0  0  0  0  0  0  0
   26.0239  -10.7749  -15.2299 N   0  0  0  0  0  0  0  0  0  0  0  0
   26.8818  -11.5634  -15.9222 C   0  0  0  0  0  0  0  0  0  0  0  0
   26.1809  -12.4003  -16.7048 N   0  0  0  0  0  0  0  0  0  0  0  0
   22.1176  -10.7932  -16.8124 C   0  0  0  0  0  0  0  0  0  0  0  0
   21.9107  -10.3574  -17.9746 O   0  0  0  0  0  0  0  0  0  0  0  0
   17.9249   -7.3171  -17.2532 N   0  0  0  0  0  0  0  0  0  0  0  0
   18.9014   -7.2044  -18.2468 C   0  0  0  0  0  0  0  0  0  0  0  0
   18.6426   -6.6569  -19.3370 O   0  0  0  0  0  0  0  0  0  0  0  0
   20.2710   -7.7420  -18.0101 C   0  0  0  0  0  0  0  0  0  0  0  0
   20.3566   -8.4363  -16.6751 C   0  0  0  0  0  0  0  0  0  0  0  0
   21.7470   -8.4575  -16.0908 C   0  0  2  0  0  0  0  0  0  0  0  0
   22.0840   -9.8583  -15.7667 N   0  0  0  0  0  0  0  0  0  0  0  0
   21.9097   -7.6190  -14.8867 C   0  0  0  0  0  0  0  0  0  0  0  0
   22.2468   -6.3926  -15.0227 O   0  0  0  0  0  0  0  0  0  0  0  0
   21.7278   -8.0368  -13.5876 O   0  0  0  0  0  0  0  0  0  0  0  0
  2  1  1  0
  3  2  2  0
  4  2  1  0
  5  4  1  0
  6  5  1  0
  6  7  1  1
  8  6  1  0
  9  8  2  0
 10  8  1  0
 11 10  1  0
 11 12  1  6
 12 13  1  0
 13 14  2  0
 14 15  1  0
 16 15  1  0
 17 13  1  0
 17 16  2  0
 18 26  1  0
 18 11  1  0
 19 18  2  0
 21 20  1  0
 22 21  2  0
 23 21  1  0
 25 24  1  1
 24 23  1  0
 25 26  1  0
 27 25  1  0
 28 27  2  0
 29 27  1  0
M  END
$$$$
