QHQ.pdb
     RDKit          3D

 29 29  0  0  1  0  0  0  0  0999 V2000
   16.7596   -7.4963  -17.4290 N   0  0  0  0  0  0  0  0  0  0  0  0
   16.2397   -8.6899  -18.0312 C   0  0  0  0  0  0  0  0  0  0  0  0
   16.0858   -8.6776  -19.2587 O   0  0  0  0  0  0  0  0  0  0  0  0
   15.9416   -9.8122  -17.1132 C   0  0  0  0  0  0  0  0  0  0  0  0
   16.2240   -9.4206  -15.7037 C   0  0  0  0  0  0  0  0  0  0  0  0
   17.5314   -9.8886  -15.1846 C   0  0  2  0  0  0  0  0  0  0  0  0
   17.4729  -11.3691  -15.1505 N   0  0  0  0  0  0  0  0  0  0  0  0
   17.8206   -9.4415  -13.7745 C   0  0  0  0  0  0  0  0  0  0  0  0
   17.2171  -10.0640  -12.8403 O   0  0  0  0  0  0  0  0  0  0  0  0
   18.6894   -8.4058  -13.4303 N   0  0  0  0  0  0  0  0  0  0  0  0
   18.9741   -7.9812  -12.0498 C   0  0  1  0  0  0  0  0  0  0  0  0
   20.2823   -7.3211  -12.0530 C   0  0  0  0  0  0  0  0  0  0  0  0
   20.8192   -6.8531  -10.7678 C   0  0  0  0  0  0  0  0  0  0  0  0
   20.1083   -7.1101   -9.5856 C   0  0  0  0  0  0  0  0  0  0  0  0
   20.7788   -6.5973   -8.5497 N   0  0  0  0  0  0  0  0  0  0  0  0
   21.8945   -6.0255   -9.0646 C   0  0  0  0  0  0  0  0  0  0  0  0
   21.9013   -6.1892  -10.3977 N   0  0  0  0  0  0  0  0  0  0  0  0
   17.8269   -7.2486  -11.5074 C   0  0  0  0  0  0  0  0  0  0  0  0
   17.2793   -6.3790  -12.2335 O   0  0  0  0  0  0  0  0  0  0  0  0
   13.0448   -9.0497   -8.2939 N   0  0  0  0  0  0  0  0  0  0  0  0
   12.8841   -7.6717   -8.1243 C   0  0  0  0  0  0  0  0  0  0  0  0
   11.8772   -7.2123   -7.5497 O   0  0  0  0  0  0  0  0  0  0  0  0
   13.9232   -6.7322   -8.6327 C   0  0  0  0  0  0  0  0  0  0  0  0
   15.1090   -7.4826   -9.1826 C   0  0  0  0  0  0  0  0  0  0  0  0
   16.1514   -6.5923   -9.8117 C   0  0  2  0  0  0  0  0  0  0  0  0
   17.2857   -7.4416  -10.2273 N   0  0  0  0  0  0  0  0  0  0  0  0
   16.6388   -5.5146   -8.9282 C   0  0  0  0  0  0  0  0  0  0  0  0
   17.6578   -5.7308   -8.1858 O   0  0  0  0  0  0  0  0  0  0  0  0
   16.0902   -4.2566   -8.8196 O   0  0  0  0  0  0  0  0  0  0  0  0
  2  1  1  0
  3  2  2  0
  4  2  1  0
  5  4  1  0
  6  5  1  0
  6  7  1  1
  8  6  1  0
  9  8  2  0
 10  8  1  0
 11 10  1  0
 11 12  1  6
 12 13  1  0
 13 14  2  0
 14 15  1  0
 16 15  1  0
 17 13  1  0
 17 16  2  0
 18 26  1  0
 18 11  1  0
 19 18  2  0
 21 20  1  0
 22 21  2  0
 23 21  1  0
 25 24  1  1
 24 23  1  0
 25 26  1  0
 27 25  1  0
 28 27  2  0
 29 27  1  0
M  END
$$$$
