QHQ.pdb
     RDKit          3D

 29 29  0  0  1  0  0  0  0  0999 V2000
   26.5847  -25.0403  -15.6363 N   0  0  0  0  0  0  0  0  0  0  0  0
   27.3055  -24.1580  -16.5079 C   0  0  0  0  0  0  0  0  0  0  0  0
   27.9976  -24.6821  -17.3892 O   0  0  0  0  0  0  0  0  0  0  0  0
   27.1420  -22.7085  -16.2559 C   0  0  0  0  0  0  0  0  0  0  0  0
   26.3014  -22.4819  -15.0469 C   0  0  0  0  0  0  0  0  0  0  0  0
   24.8428  -22.4433  -15.3092 C   0  0  2  0  0  0  0  0  0  0  0  0
   24.6541  -22.8135  -16.7318 N   0  0  0  0  0  0  0  0  0  0  0  0
   24.2311  -21.0761  -15.1404 C   0  0  0  0  0  0  0  0  0  0  0  0
   24.2823  -20.5650  -13.9740 O   0  0  0  0  0  0  0  0  0  0  0  0
   23.6198  -20.3463  -16.1600 N   0  0  0  0  0  0  0  0  0  0  0  0
   23.0320  -19.0074  -15.9892 C   0  0  1  0  0  0  0  0  0  0  0  0
   23.5559  -18.1564  -17.0609 C   0  0  0  0  0  0  0  0  0  0  0  0
   23.1780  -16.7365  -17.0580 C   0  0  0  0  0  0  0  0  0  0  0  0
   22.4086  -16.2269  -16.0009 C   0  0  0  0  0  0  0  0  0  0  0  0
   22.1874  -14.9254  -16.2065 N   0  0  0  0  0  0  0  0  0  0  0  0
   22.8047  -14.6143  -17.3723 C   0  0  0  0  0  0  0  0  0  0  0  0
   23.3939  -15.7144  -17.8688 N   0  0  0  0  0  0  0  0  0  0  0  0
   21.5790  -19.1173  -15.8359 C   0  0  0  0  0  0  0  0  0  0  0  0
   21.0357  -20.2227  -16.0932 O   0  0  0  0  0  0  0  0  0  0  0  0
   17.2078  -17.3070  -18.4716 N   0  0  0  0  0  0  0  0  0  0  0  0
   16.5582  -18.2918  -17.7222 C   0  0  0  0  0  0  0  0  0  0  0  0
   15.3453  -18.5270  -17.8920 O   0  0  0  0  0  0  0  0  0  0  0  0
   17.3154  -19.0753  -16.7056 C   0  0  0  0  0  0  0  0  0  0  0  0
   18.7685  -18.6755  -16.6864 C   0  0  0  0  0  0  0  0  0  0  0  0
   19.2890  -18.3476  -15.3092 C   0  0  2  0  0  0  0  0  0  0  0  0
   20.7360  -18.0749  -15.4217 N   0  0  0  0  0  0  0  0  0  0  0  0
   19.0627  -19.4094  -14.3088 C   0  0  0  0  0  0  0  0  0  0  0  0
   19.0879  -20.6325  -14.6821 O   0  0  0  0  0  0  0  0  0  0  0  0
   18.8206  -19.2100  -12.9683 O   0  0  0  0  0  0  0  0  0  0  0  0
  2  1  1  0
  3  2  2  0
  4  2  1  0
  5  4  1  0
  6  5  1  0
  6  7  1  6
  8  6  1  0
  9  8  2  0
 10  8  1  0
 11 10  1  0
 11 12  1  6
 12 13  1  0
 13 14  2  0
 14 15  1  0
 16 15  1  0
 17 13  1  0
 17 16  2  0
 18 26  1  0
 18 11  1  0
 19 18  2  0
 21 20  1  0
 22 21  2  0
 23 21  1  0
 25 24  1  6
 24 23  1  0
 25 26  1  0
 27 25  1  0
 28 27  2  0
 29 27  1  0
M  END
$$$$
