QHQ.pdb
     RDKit          3D

 29 29  0  0  1  0  0  0  0  0999 V2000
   16.6026  -13.8003  -17.4159 N   0  0  0  0  0  0  0  0  0  0  0  0
   16.8998  -14.9940  -18.1536 C   0  0  0  0  0  0  0  0  0  0  0  0
   15.9373  -15.6575  -18.5583 O   0  0  0  0  0  0  0  0  0  0  0  0
   18.3338  -15.3038  -18.3509 C   0  0  0  0  0  0  0  0  0  0  0  0
   19.1839  -14.2350  -17.7555 C   0  0  0  0  0  0  0  0  0  0  0  0
   20.6363  -14.3905  -18.0089 C   0  0  2  0  0  0  0  0  0  0  0  0
   21.0709  -15.6032  -17.2761 N   0  0  0  0  0  0  0  0  0  0  0  0
   21.4706  -13.2519  -17.4804 C   0  0  0  0  0  0  0  0  0  0  0  0
   21.4781  -13.0846  -16.2169 O   0  0  0  0  0  0  0  0  0  0  0  0
   22.2210  -12.3812  -18.2708 N   0  0  0  0  0  0  0  0  0  0  0  0
   23.0549  -11.2877  -17.7452 C   0  0  1  0  0  0  0  0  0  0  0  0
   24.1127  -11.0300  -18.7259 C   0  0  0  0  0  0  0  0  0  0  0  0
   25.0747   -9.9585  -18.4337 C   0  0  0  0  0  0  0  0  0  0  0  0
   24.9842   -9.2584  -17.2209 C   0  0  0  0  0  0  0  0  0  0  0  0
   25.9520   -8.3385  -17.1716 N   0  0  0  0  0  0  0  0  0  0  0  0
   26.6441   -8.4524  -18.3314 C   0  0  0  0  0  0  0  0  0  0  0  0
   26.1026   -9.4301  -19.0762 N   0  0  0  0  0  0  0  0  0  0  0  0
   22.2049  -10.1692  -17.3289 C   0  0  0  0  0  0  0  0  0  0  0  0
   21.2536   -9.8332  -18.0808 O   0  0  0  0  0  0  0  0  0  0  0  0
   18.9823   -9.4688  -12.5672 N   0  0  0  0  0  0  0  0  0  0  0  0
   18.7611   -8.1956  -13.0996 C   0  0  0  0  0  0  0  0  0  0  0  0
   17.8465   -7.4702  -12.6608 O   0  0  0  0  0  0  0  0  0  0  0  0
   19.6233   -7.6899  -14.2050 C   0  0  0  0  0  0  0  0  0  0  0  0
   20.6099   -8.7406  -14.6458 C   0  0  0  0  0  0  0  0  0  0  0  0
   21.4157   -8.3452  -15.8579 C   0  0  2  0  0  0  0  0  0  0  0  0
   22.3710   -9.4340  -16.1454 N   0  0  0  0  0  0  0  0  0  0  0  0
   22.1481   -7.0722  -15.7080 C   0  0  0  0  0  0  0  0  0  0  0  0
   21.4888   -5.9778  -15.6463 O   0  0  0  0  0  0  0  0  0  0  0  0
   23.5157   -6.9387  -15.6234 O   0  0  0  0  0  0  0  0  0  0  0  0
  2  1  1  0
  3  2  2  0
  4  2  1  0
  5  4  1  0
  6  5  1  0
  6  7  1  1
  8  6  1  0
  9  8  2  0
 10  8  1  0
 11 10  1  0
 11 12  1  6
 12 13  1  0
 13 14  2  0
 14 15  1  0
 16 15  1  0
 17 13  1  0
 17 16  2  0
 18 26  1  0
 18 11  1  0
 19 18  2  0
 21 20  1  0
 22 21  2  0
 23 21  1  0
 25 24  1  1
 24 23  1  0
 25 26  1  0
 27 25  1  0
 28 27  2  0
 29 27  1  0
M  END
$$$$
