QHQ.pdb
     RDKit          3D

 29 29  0  0  1  0  0  0  0  0999 V2000
   23.1498  -18.2222  -20.1360 N   0  0  0  0  0  0  0  0  0  0  0  0
   24.1185  -17.7856  -21.0996 C   0  0  0  0  0  0  0  0  0  0  0  0
   23.9620  -18.1687  -22.2655 O   0  0  0  0  0  0  0  0  0  0  0  0
   25.2063  -16.9200  -20.5909 C   0  0  0  0  0  0  0  0  0  0  0  0
   25.0283  -16.6622  -19.1344 C   0  0  0  0  0  0  0  0  0  0  0  0
   26.2114  -16.9874  -18.3023 C   0  0  2  0  0  0  0  0  0  0  0  0
   27.2945  -17.3812  -19.2341 N   0  0  0  0  0  0  0  0  0  0  0  0
   25.9998  -18.1579  -17.3765 C   0  0  0  0  0  0  0  0  0  0  0  0
   26.2700  -19.3133  -17.8417 O   0  0  0  0  0  0  0  0  0  0  0  0
   25.5324  -18.0616  -16.0657 N   0  0  0  0  0  0  0  0  0  0  0  0
   25.3305  -19.2097  -15.1665 C   0  0  1  0  0  0  0  0  0  0  0  0
   26.2101  -19.0230  -14.0096 C   0  0  0  0  0  0  0  0  0  0  0  0
   26.0014  -19.8883  -12.8406 C   0  0  0  0  0  0  0  0  0  0  0  0
   26.3072  -21.2551  -12.9275 C   0  0  0  0  0  0  0  0  0  0  0  0
   26.0410  -21.8400  -11.7561 N   0  0  0  0  0  0  0  0  0  0  0  0
   25.5748  -20.8629  -10.9406 C   0  0  0  0  0  0  0  0  0  0  0  0
   25.5582  -19.6982  -11.6094 N   0  0  0  0  0  0  0  0  0  0  0  0
   23.8988  -19.4087  -14.9267 C   0  0  0  0  0  0  0  0  0  0  0  0
   23.1965  -18.4019  -14.6501 O   0  0  0  0  0  0  0  0  0  0  0  0
   22.1215  -19.7085  -10.2776 N   0  0  0  0  0  0  0  0  0  0  0  0
   20.8690  -20.1146  -10.7466 C   0  0  0  0  0  0  0  0  0  0  0  0
   19.8843  -20.1573   -9.9826 O   0  0  0  0  0  0  0  0  0  0  0  0
   20.6984  -20.5032  -12.1751 C   0  0  0  0  0  0  0  0  0  0  0  0
   22.0123  -20.4485  -12.9116 C   0  0  0  0  0  0  0  0  0  0  0  0
   21.8950  -20.7520  -14.3844 C   0  0  2  0  0  0  0  0  0  0  0  0
   23.2422  -20.6476  -14.9801 N   0  0  0  0  0  0  0  0  0  0  0  0
   20.9634  -19.8673  -15.1116 C   0  0  0  0  0  0  0  0  0  0  0  0
   21.3502  -18.6945  -15.4448 O   0  0  0  0  0  0  0  0  0  0  0  0
   19.6767  -20.1879  -15.4816 O   0  0  0  0  0  0  0  0  0  0  0  0
  2  1  1  0
  3  2  2  0
  4  2  1  0
  5  4  1  0
  6  5  1  0
  6  7  1  6
  8  6  1  0
  9  8  2  0
 10  8  1  0
 11 10  1  0
 11 12  1  1
 12 13  1  0
 13 14  2  0
 14 15  1  0
 16 15  1  0
 17 13  1  0
 17 16  2  0
 18 26  1  0
 18 11  1  0
 19 18  2  0
 21 20  1  0
 22 21  2  0
 23 21  1  0
 25 24  1  1
 24 23  1  0
 25 26  1  0
 27 25  1  0
 28 27  2  0
 29 27  1  0
M  END
$$$$
