QHQ.pdb
     RDKit          3D

 29 29  0  0  1  0  0  0  0  0999 V2000
   19.3580  -23.3889  -15.7114 N   0  0  0  0  0  0  0  0  0  0  0  0
   19.6615  -22.1127  -16.2917 C   0  0  0  0  0  0  0  0  0  0  0  0
   19.1693  -21.8694  -17.4004 O   0  0  0  0  0  0  0  0  0  0  0  0
   20.5360  -21.2214  -15.4967 C   0  0  0  0  0  0  0  0  0  0  0  0
   20.8615  -21.8469  -14.1843 C   0  0  0  0  0  0  0  0  0  0  0  0
   19.8395  -21.6362  -13.1312 C   0  0  2  0  0  0  0  0  0  0  0  0
   19.5870  -20.1773  -13.0661 N   0  0  0  0  0  0  0  0  0  0  0  0
   20.2909  -22.0520  -11.7546 C   0  0  0  0  0  0  0  0  0  0  0  0
   20.7275  -23.2429  -11.6295 O   0  0  0  0  0  0  0  0  0  0  0  0
   20.2602  -21.2330  -10.6257 N   0  0  0  0  0  0  0  0  0  0  0  0
   20.6592  -21.6609   -9.2748 C   0  0  1  0  0  0  0  0  0  0  0  0
   21.5717  -20.6453   -8.7428 C   0  0  0  0  0  0  0  0  0  0  0  0
   22.8754  -20.4804   -9.4002 C   0  0  0  0  0  0  0  0  0  0  0  0
   24.0039  -21.1257   -8.8718 C   0  0  0  0  0  0  0  0  0  0  0  0
   25.0685  -20.8357   -9.6253 N   0  0  0  0  0  0  0  0  0  0  0  0
   24.6244  -20.0216  -10.6137 C   0  0  0  0  0  0  0  0  0  0  0  0
   23.3052  -19.8197  -10.4620 N   0  0  0  0  0  0  0  0  0  0  0  0
   19.4708  -22.0073   -8.4908 C   0  0  0  0  0  0  0  0  0  0  0  0
   18.3817  -21.4492   -8.7835 O   0  0  0  0  0  0  0  0  0  0  0  0
   18.1762  -27.0008   -9.4723 N   0  0  0  0  0  0  0  0  0  0  0  0
   16.9232  -26.6748   -8.9457 C   0  0  0  0  0  0  0  0  0  0  0  0
   16.0017  -27.5146   -8.9241 O   0  0  0  0  0  0  0  0  0  0  0  0
   16.6760  -25.3098   -8.4012 C   0  0  0  0  0  0  0  0  0  0  0  0
   17.9198  -24.4621   -8.4800 C   0  0  0  0  0  0  0  0  0  0  0  0
   18.2254  -23.7140   -7.2065 C   0  0  2  0  0  0  0  0  0  0  0  0
   19.4518  -22.9213   -7.4264 N   0  0  0  0  0  0  0  0  0  0  0  0
   18.4024  -24.5802   -6.0241 C   0  0  0  0  0  0  0  0  0  0  0  0
   19.5862  -24.8726   -5.6379 O   0  0  0  0  0  0  0  0  0  0  0  0
   17.3878  -25.1226   -5.2680 O   0  0  0  0  0  0  0  0  0  0  0  0
  2  1  1  0
  3  2  2  0
  4  2  1  0
  5  4  1  0
  6  5  1  0
  6  7  1  1
  8  6  1  0
  9  8  2  0
 10  8  1  0
 11 10  1  0
 11 12  1  1
 12 13  1  0
 13 14  2  0
 14 15  1  0
 16 15  1  0
 17 13  1  0
 17 16  2  0
 18 26  1  0
 18 11  1  0
 19 18  2  0
 21 20  1  0
 22 21  2  0
 23 21  1  0
 25 24  1  6
 24 23  1  0
 25 26  1  0
 27 25  1  0
 28 27  2  0
 29 27  1  0
M  END
$$$$
