QHQ.pdb
     RDKit          3D

 29 29  0  0  1  0  0  0  0  0999 V2000
   22.1825  -14.0305  -16.6522 N   0  0  0  0  0  0  0  0  0  0  0  0
   22.6259  -13.3934  -17.8585 C   0  0  0  0  0  0  0  0  0  0  0  0
   22.6243  -12.1563  -17.8727 O   0  0  0  0  0  0  0  0  0  0  0  0
   23.0386  -14.2906  -18.9612 C   0  0  0  0  0  0  0  0  0  0  0  0
   22.8629  -15.7162  -18.5657 C   0  0  0  0  0  0  0  0  0  0  0  0
   24.1266  -16.4813  -18.4417 C   0  0  2  0  0  0  0  0  0  0  0  0
   24.4594  -16.9799  -19.7971 N   0  0  0  0  0  0  0  0  0  0  0  0
   24.0171  -17.6961  -17.5562 C   0  0  0  0  0  0  0  0  0  0  0  0
   23.5690  -18.7604  -18.0956 O   0  0  0  0  0  0  0  0  0  0  0  0
   24.3658  -17.7309  -16.2060 N   0  0  0  0  0  0  0  0  0  0  0  0
   24.1581  -18.8892  -15.3214 C   0  0  1  0  0  0  0  0  0  0  0  0
   25.1635  -18.8170  -14.2579 C   0  0  0  0  0  0  0  0  0  0  0  0
   25.0752  -19.7910  -13.1613 C   0  0  0  0  0  0  0  0  0  0  0  0
   23.9532  -20.6284  -13.0675 C   0  0  0  0  0  0  0  0  0  0  0  0
   24.0874  -21.4250  -12.0033 N   0  0  0  0  0  0  0  0  0  0  0  0
   25.2725  -21.0995  -11.4319 C   0  0  0  0  0  0  0  0  0  0  0  0
   25.8511  -20.1166  -12.1411 N   0  0  0  0  0  0  0  0  0  0  0  0
   22.7464  -18.9770  -14.9390 C   0  0  0  0  0  0  0  0  0  0  0  0
   22.0928  -17.9075  -14.8273 O   0  0  0  0  0  0  0  0  0  0  0  0
   17.5731  -20.7649  -16.6580 N   0  0  0  0  0  0  0  0  0  0  0  0
   18.7276  -21.2372  -17.2885 C   0  0  0  0  0  0  0  0  0  0  0  0
   18.6526  -22.0443  -18.2363 O   0  0  0  0  0  0  0  0  0  0  0  0
   20.0686  -20.7767  -16.8299 C   0  0  0  0  0  0  0  0  0  0  0  0
   19.9423  -19.7260  -15.7568 C   0  0  0  0  0  0  0  0  0  0  0  0
   20.6011  -20.1070  -14.4546 C   0  0  2  0  0  0  0  0  0  0  0  0
   22.0586  -20.1729  -14.6831 N   0  0  0  0  0  0  0  0  0  0  0  0
   20.1310  -21.3881  -13.8913 C   0  0  0  0  0  0  0  0  0  0  0  0
   20.9014  -22.4081  -13.9358 O   0  0  0  0  0  0  0  0  0  0  0  0
   18.9059  -21.6034  -13.3013 O   0  0  0  0  0  0  0  0  0  0  0  0
  2  1  1  0
  3  2  2  0
  4  2  1  0
  5  4  1  0
  6  5  1  0
  6  7  1  6
  8  6  1  0
  9  8  2  0
 10  8  1  0
 11 10  1  0
 11 12  1  1
 12 13  1  0
 13 14  2  0
 14 15  1  0
 16 15  1  0
 17 13  1  0
 17 16  2  0
 18 26  1  0
 18 11  1  0
 19 18  2  0
 21 20  1  0
 22 21  2  0
 23 21  1  0
 25 24  1  6
 24 23  1  0
 25 26  1  0
 27 25  1  0
 28 27  2  0
 29 27  1  0
M  END
$$$$
