QHQ.pdb
     RDKit          3D

 29 29  0  0  1  0  0  0  0  0999 V2000
   28.5084  -31.4422  -14.8116 N   0  0  0  0  0  0  0  0  0  0  0  0
   27.4579  -32.3966  -15.0197 C   0  0  0  0  0  0  0  0  0  0  0  0
   26.6617  -32.5663  -14.0882 O   0  0  0  0  0  0  0  0  0  0  0  0
   27.4414  -33.0785  -16.3335 C   0  0  0  0  0  0  0  0  0  0  0  0
   28.4869  -32.5085  -17.2289 C   0  0  0  0  0  0  0  0  0  0  0  0
   28.0456  -31.3374  -18.0236 C   0  0  2  0  0  0  0  0  0  0  0  0
   27.1708  -31.8569  -19.1013 N   0  0  0  0  0  0  0  0  0  0  0  0
   29.1733  -30.6064  -18.7060 C   0  0  0  0  0  0  0  0  0  0  0  0
   29.5802  -31.0863  -19.8144 O   0  0  0  0  0  0  0  0  0  0  0  0
   29.7930  -29.4589  -18.2107 N   0  0  0  0  0  0  0  0  0  0  0  0
   30.8810  -28.7390  -18.8930 C   0  0  1  0  0  0  0  0  0  0  0  0
   30.7904  -27.3301  -18.5010 C   0  0  0  0  0  0  0  0  0  0  0  0
   31.7040  -26.3771  -19.1460 C   0  0  0  0  0  0  0  0  0  0  0  0
   32.6875  -26.8495  -20.0285 C   0  0  0  0  0  0  0  0  0  0  0  0
   33.3955  -25.8153  -20.4914 N   0  0  0  0  0  0  0  0  0  0  0  0
   32.8714  -24.7069  -19.9138 C   0  0  0  0  0  0  0  0  0  0  0  0
   31.8569  -25.0641  -19.1094 N   0  0  0  0  0  0  0  0  0  0  0  0
   32.1505  -29.4394  -18.6819 C   0  0  0  0  0  0  0  0  0  0  0  0
   32.5041  -29.6867  -17.4998 O   0  0  0  0  0  0  0  0  0  0  0  0
   34.2192  -34.4907  -20.8857 N   0  0  0  0  0  0  0  0  0  0  0  0
   35.4261  -34.0593  -20.3284 C   0  0  0  0  0  0  0  0  0  0  0  0
   36.4193  -34.8128  -20.2947 O   0  0  0  0  0  0  0  0  0  0  0  0
   35.5374  -32.6841  -19.7650 C   0  0  0  0  0  0  0  0  0  0  0  0
   34.2708  -31.9005  -19.9961 C   0  0  0  0  0  0  0  0  0  0  0  0
   34.2640  -30.5483  -19.3278 C   0  0  2  0  0  0  0  0  0  0  0  0
   33.0136  -29.8594  -19.7054 N   0  0  0  0  0  0  0  0  0  0  0  0
   35.4203  -29.6976  -19.6728 C   0  0  0  0  0  0  0  0  0  0  0  0
   36.5530  -29.9355  -19.1283 O   0  0  0  0  0  0  0  0  0  0  0  0
   35.4030  -28.6388  -20.5525 O   0  0  0  0  0  0  0  0  0  0  0  0
  2  1  1  0
  3  2  2  0
  4  2  1  0
  5  4  1  0
  6  5  1  0
  6  7  1  6
  8  6  1  0
  9  8  2  0
 10  8  1  0
 11 10  1  0
 11 12  1  1
 12 13  1  0
 13 14  2  0
 14 15  1  0
 16 15  1  0
 17 13  1  0
 17 16  2  0
 18 26  1  0
 18 11  1  0
 19 18  2  0
 21 20  1  0
 22 21  2  0
 23 21  1  0
 25 24  1  6
 24 23  1  0
 25 26  1  0
 27 25  1  0
 28 27  2  0
 29 27  1  0
M  END
$$$$
