QHQ.pdb
     RDKit          3D

 29 29  0  0  1  0  0  0  0  0999 V2000
   33.3079  -39.0750   -4.6039 N   0  0  0  0  0  0  0  0  0  0  0  0
   34.6669  -38.9164   -5.0348 C   0  0  0  0  0  0  0  0  0  0  0  0
   35.2642  -39.9384   -5.3941 O   0  0  0  0  0  0  0  0  0  0  0  0
   35.2094  -37.5395   -5.0020 C   0  0  0  0  0  0  0  0  0  0  0  0
   34.1429  -36.5685   -4.6288 C   0  0  0  0  0  0  0  0  0  0  0  0
   33.3322  -36.0760   -5.7680 C   0  0  2  0  0  0  0  0  0  0  0  0
   34.2020  -35.1658   -6.5500 N   0  0  0  0  0  0  0  0  0  0  0  0
   32.1311  -35.2652   -5.3535 C   0  0  0  0  0  0  0  0  0  0  0  0
   32.3525  -34.2444   -4.6231 O   0  0  0  0  0  0  0  0  0  0  0  0
   30.8137  -35.5556   -5.7087 N   0  0  0  0  0  0  0  0  0  0  0  0
   29.6368  -34.8209   -5.2166 C   0  0  1  0  0  0  0  0  0  0  0  0
   28.8273  -34.4546   -6.3817 C   0  0  0  0  0  0  0  0  0  0  0  0
   29.2944  -33.3428   -7.2212 C   0  0  0  0  0  0  0  0  0  0  0  0
   30.4970  -32.6932   -6.9037 C   0  0  0  0  0  0  0  0  0  0  0  0
   30.7211  -31.7236   -7.7953 N   0  0  0  0  0  0  0  0  0  0  0  0
   29.6802  -31.7569   -8.6627 C   0  0  0  0  0  0  0  0  0  0  0  0
   28.8339  -32.7355   -8.3018 N   0  0  0  0  0  0  0  0  0  0  0  0
   28.9971  -35.5730   -4.1340 C   0  0  0  0  0  0  0  0  0  0  0  0
   29.0385  -36.8298   -4.1776 O   0  0  0  0  0  0  0  0  0  0  0  0
   31.9820  -35.6542    0.8913 N   0  0  0  0  0  0  0  0  0  0  0  0
   31.1040  -36.3318    0.0408 C   0  0  0  0  0  0  0  0  0  0  0  0
   31.3817  -37.4691   -0.3890 O   0  0  0  0  0  0  0  0  0  0  0  0
   29.8180  -35.6960   -0.3628 C   0  0  0  0  0  0  0  0  0  0  0  0
   29.0771  -36.5556   -1.3547 C   0  0  0  0  0  0  0  0  0  0  0  0
   27.8683  -35.8830   -1.9560 C   0  0  2  0  0  0  0  0  0  0  0  0
   28.3330  -34.9956   -3.0411 N   0  0  0  0  0  0  0  0  0  0  0  0
   27.0666  -35.1052   -0.9908 C   0  0  0  0  0  0  0  0  0  0  0  0
   27.4580  -35.0278    0.2246 O   0  0  0  0  0  0  0  0  0  0  0  0
   25.9012  -34.4300   -1.2760 O   0  0  0  0  0  0  0  0  0  0  0  0
  2  1  1  0
  3  2  2  0
  4  2  1  0
  5  4  1  0
  6  5  1  0
  6  7  1  6
  8  6  1  0
  9  8  2  0
 10  8  1  0
 11 10  1  0
 11 12  1  6
 12 13  1  0
 13 14  2  0
 14 15  1  0
 16 15  1  0
 17 13  1  0
 17 16  2  0
 18 26  1  0
 18 11  1  0
 19 18  2  0
 21 20  1  0
 22 21  2  0
 23 21  1  0
 25 24  1  1
 24 23  1  0
 25 26  1  0
 27 25  1  0
 28 27  2  0
 29 27  1  0
M  END
$$$$
