QHQ.pdb
     RDKit          3D

 29 29  0  0  1  0  0  0  0  0999 V2000
   19.2277  -17.4031  -15.5585 N   0  0  0  0  0  0  0  0  0  0  0  0
   18.6510  -17.4177  -16.8718 C   0  0  0  0  0  0  0  0  0  0  0  0
   17.9997  -18.4211  -17.1872 O   0  0  0  0  0  0  0  0  0  0  0  0
   18.8998  -16.2241  -17.7112 C   0  0  0  0  0  0  0  0  0  0  0  0
   19.6939  -15.2138  -16.9572 C   0  0  0  0  0  0  0  0  0  0  0  0
   19.1821  -13.8263  -17.0602 C   0  0  2  0  0  0  0  0  0  0  0  0
   19.1193  -13.4998  -18.5045 N   0  0  0  0  0  0  0  0  0  0  0  0
   20.0853  -12.7972  -16.4300 C   0  0  0  0  0  0  0  0  0  0  0  0
   20.3841  -12.9708  -15.2032 O   0  0  0  0  0  0  0  0  0  0  0  0
   20.6050  -11.6835  -17.0899 N   0  0  0  0  0  0  0  0  0  0  0  0
   21.4872  -10.6828  -16.4674 C   0  0  1  0  0  0  0  0  0  0  0  0
   22.6065  -10.4514  -17.3842 C   0  0  0  0  0  0  0  0  0  0  0  0
   23.6229  -11.5052  -17.5080 C   0  0  0  0  0  0  0  0  0  0  0  0
   23.7077  -12.2495  -18.6946 C   0  0  0  0  0  0  0  0  0  0  0  0
   24.6946  -13.1432  -18.5829 N   0  0  0  0  0  0  0  0  0  0  0  0
   25.2266  -12.9697  -17.3484 C   0  0  0  0  0  0  0  0  0  0  0  0
   24.5701  -11.9820  -16.7180 N   0  0  0  0  0  0  0  0  0  0  0  0
   20.6987   -9.5288  -16.0273 C   0  0  0  0  0  0  0  0  0  0  0  0
   19.6263   -9.2748  -16.6345 O   0  0  0  0  0  0  0  0  0  0  0  0
   17.2311   -9.2734  -11.9120 N   0  0  0  0  0  0  0  0  0  0  0  0
   17.1638   -7.8928  -12.1193 C   0  0  0  0  0  0  0  0  0  0  0  0
   16.3173   -7.1982  -11.5224 O   0  0  0  0  0  0  0  0  0  0  0  0
   18.1105   -7.2339  -13.0629 C   0  0  0  0  0  0  0  0  0  0  0  0
   19.1249   -8.2178  -13.5870 C   0  0  0  0  0  0  0  0  0  0  0  0
   20.0942   -7.6203  -14.5762 C   0  0  2  0  0  0  0  0  0  0  0  0
   21.0501   -8.6743  -14.9713 N   0  0  0  0  0  0  0  0  0  0  0  0
   20.8336   -6.4489  -14.0658 C   0  0  0  0  0  0  0  0  0  0  0  0
   20.1949   -5.3686  -13.8183 O   0  0  0  0  0  0  0  0  0  0  0  0
   22.1872   -6.3997  -13.8193 O   0  0  0  0  0  0  0  0  0  0  0  0
  2  1  1  0
  3  2  2  0
  4  2  1  0
  5  4  1  0
  6  5  1  0
  6  7  1  6
  8  6  1  0
  9  8  2  0
 10  8  1  0
 11 10  1  0
 11 12  1  6
 12 13  1  0
 13 14  2  0
 14 15  1  0
 16 15  1  0
 17 13  1  0
 17 16  2  0
 18 26  1  0
 18 11  1  0
 19 18  2  0
 21 20  1  0
 22 21  2  0
 23 21  1  0
 25 24  1  1
 24 23  1  0
 25 26  1  0
 27 25  1  0
 28 27  2  0
 29 27  1  0
M  END
$$$$
