QHQ.pdb
     RDKit          3D

 29 29  0  0  1  0  0  0  0  0999 V2000
   24.8344  -23.7073  -14.3133 N   0  0  0  0  0  0  0  0  0  0  0  0
   25.8193  -22.8059  -14.8378 C   0  0  0  0  0  0  0  0  0  0  0  0
   26.8197  -23.3112  -15.3615 O   0  0  0  0  0  0  0  0  0  0  0  0
   25.5298  -21.3614  -14.6939 C   0  0  0  0  0  0  0  0  0  0  0  0
   24.2646  -21.1572  -13.9341 C   0  0  0  0  0  0  0  0  0  0  0  0
   23.0416  -21.1260  -14.7714 C   0  0  2  0  0  0  0  0  0  0  0  0
   23.4803  -20.8461  -16.1591 N   0  0  0  0  0  0  0  0  0  0  0  0
   22.0786  -20.0276  -14.3996 C   0  0  0  0  0  0  0  0  0  0  0  0
   21.6901  -19.9919  -13.1863 O   0  0  0  0  0  0  0  0  0  0  0  0
   21.5904  -19.0645  -15.2829 N   0  0  0  0  0  0  0  0  0  0  0  0
   20.5789  -18.0525  -14.9362 C   0  0  1  0  0  0  0  0  0  0  0  0
   20.7861  -16.9021  -15.8198 C   0  0  0  0  0  0  0  0  0  0  0  0
   19.9374  -15.7196  -15.6191 C   0  0  0  0  0  0  0  0  0  0  0  0
   18.9455  -15.7396  -14.6268 C   0  0  0  0  0  0  0  0  0  0  0  0
   18.3032  -14.5680  -14.6242 N   0  0  0  0  0  0  0  0  0  0  0  0
   18.8766  -13.8180  -15.5968 C   0  0  0  0  0  0  0  0  0  0  0  0
   19.8557  -14.5263  -16.1830 N   0  0  0  0  0  0  0  0  0  0  0  0
   19.2504  -18.6693  -14.8974 C   0  0  0  0  0  0  0  0  0  0  0  0
   18.9544  -19.5013  -15.7938 O   0  0  0  0  0  0  0  0  0  0  0  0
   16.5559  -22.0145  -10.9945 N   0  0  0  0  0  0  0  0  0  0  0  0
   16.4597  -22.4723  -12.3116 C   0  0  0  0  0  0  0  0  0  0  0  0
   16.2467  -23.6768  -12.5548 O   0  0  0  0  0  0  0  0  0  0  0  0
   16.6120  -21.5174  -13.4455 C   0  0  0  0  0  0  0  0  0  0  0  0
   16.8943  -20.1239  -12.9454 C   0  0  0  0  0  0  0  0  0  0  0  0
   16.9693  -19.0901  -14.0411 C   0  0  2  0  0  0  0  0  0  0  0  0
   18.2706  -18.4009  -13.9295 N   0  0  0  0  0  0  0  0  0  0  0  0
   15.8791  -18.0951  -14.0091 C   0  0  0  0  0  0  0  0  0  0  0  0
   16.1107  -16.9326  -13.5285 O   0  0  0  0  0  0  0  0  0  0  0  0
   14.5945  -18.2979  -14.4609 O   0  0  0  0  0  0  0  0  0  0  0  0
  2  1  1  0
  3  2  2  0
  4  2  1  0
  5  4  1  0
  6  5  1  0
  6  7  1  6
  8  6  1  0
  9  8  2  0
 10  8  1  0
 11 10  1  0
 11 12  1  6
 12 13  1  0
 13 14  2  0
 14 15  1  0
 16 15  1  0
 17 13  1  0
 17 16  2  0
 18 26  1  0
 18 11  1  0
 19 18  2  0
 21 20  1  0
 22 21  2  0
 23 21  1  0
 25 24  1  1
 24 23  1  0
 25 26  1  0
 27 25  1  0
 28 27  2  0
 29 27  1  0
M  END
$$$$
