YQQ.pdb
     RDKit          3D

 31 31  0  0  1  0  0  0  0  0999 V2000
   19.3433  -23.8860   -7.4170 O   0  0  0  0  0  0  0  0  0  0  0  0
   19.6880  -22.9777   -8.4216 C   0  0  0  0  0  0  0  0  0  0  0  0
   20.0982  -21.7334   -8.0630 C   0  0  0  0  0  0  0  0  0  0  0  0
   20.4528  -20.7927   -9.0344 C   0  0  0  0  0  0  0  0  0  0  0  0
   20.3888  -21.1216  -10.3673 C   0  0  0  0  0  0  0  0  0  0  0  0
   20.7534  -20.1550  -11.4043 C   0  0  0  0  0  0  0  0  0  0  0  0
   22.0213  -20.5623  -12.1552 C   0  0  2  0  0  0  0  0  0  0  0  0
   23.1260  -20.3487  -11.2437 N   0  0  0  0  0  0  0  0  0  0  0  0
   22.1633  -19.6713  -13.3206 C   0  0  0  0  0  0  0  0  0  0  0  0
   22.7195  -18.5595  -13.1710 O   0  0  0  0  0  0  0  0  0  0  0  0
   19.9740  -22.3787  -10.7195 C   0  0  0  0  0  0  0  0  0  0  0  0
   19.6227  -23.3098   -9.7542 C   0  0  0  0  0  0  0  0  0  0  0  0
   25.8932  -19.2129  -14.8027 N   0  0  0  0  0  0  0  0  0  0  0  0
   25.4591  -20.4184  -15.4008 C   0  0  0  0  0  0  0  0  0  0  0  0
   26.1757  -21.4412  -15.3272 O   0  0  0  0  0  0  0  0  0  0  0  0
   24.1549  -20.4718  -16.1156 C   0  0  0  0  0  0  0  0  0  0  0  0
   23.4770  -19.1147  -16.1185 C   0  0  0  0  0  0  0  0  0  0  0  0
   22.0489  -19.1865  -15.7296 C   0  0  2  0  0  0  0  0  0  0  0  0
   21.7118  -19.9798  -14.6177 N   0  0  0  0  0  0  0  0  0  0  0  0
   21.2723  -19.5652  -16.9692 C   0  0  0  0  0  0  0  0  0  0  0  0
   21.7514  -20.4258  -17.7563 O   0  0  0  0  0  0  0  0  0  0  0  0
   18.5582  -23.1991  -15.8217 N   0  0  0  0  0  0  0  0  0  0  0  0
   17.4928  -22.4174  -15.3126 C   0  0  0  0  0  0  0  0  0  0  0  0
   16.4794  -23.0601  -14.8697 O   0  0  0  0  0  0  0  0  0  0  0  0
   17.4875  -20.9485  -15.2586 C   0  0  0  0  0  0  0  0  0  0  0  0
   18.6985  -20.2407  -15.6887 C   0  0  0  0  0  0  0  0  0  0  0  0
   18.7625  -19.7267  -17.0665 C   0  0  2  0  0  0  0  0  0  0  0  0
   20.0180  -18.9906  -17.2897 N   0  0  0  0  0  0  0  0  0  0  0  0
   17.6669  -18.9164  -17.5250 C   0  0  0  0  0  0  0  0  0  0  0  0
   17.5849  -17.6529  -17.3986 O   0  0  0  0  0  0  0  0  0  0  0  0
   16.5529  -19.4956  -18.1782 O   0  0  0  0  0  0  0  0  0  0  0  0
  2  1  1  0
  3  2  2  0
  4  3  1  0
  5 11  1  0
  5  4  2  0
  6  5  1  0
  7  6  1  0
  7  8  1  1
  9  7  1  0
  9 10  2  0
 11 12  2  0
 12  2  1  0
 13 14  1  0
 14 15  2  0
 16 17  1  0
 16 14  1  0
 18 19  1  0
 18 17  1  6
 19  9  1  0
 20 18  1  0
 21 20  2  0
 23 22  1  0
 23 24  2  0
 25 23  1  0
 26 25  1  0
 27 26  1  1
 27 28  1  0
 28 20  1  0
 29 27  1  0
 29 31  1  0
 30 29  2  0
M  END
$$$$
