YQQ.pdb
     RDKit          3D

 31 31  0  0  1  0  0  0  0  0999 V2000
   39.5108  -28.0962  -21.3303 O   0  0  0  0  0  0  0  0  0  0  0  0
   38.1983  -28.5636  -21.2227 C   0  0  0  0  0  0  0  0  0  0  0  0
   37.9203  -29.8275  -21.6354 C   0  0  0  0  0  0  0  0  0  0  0  0
   36.6213  -30.3366  -21.5462 C   0  0  0  0  0  0  0  0  0  0  0  0
   35.6099  -29.5575  -21.0373 C   0  0  0  0  0  0  0  0  0  0  0  0
   34.2410  -30.0659  -20.9340 C   0  0  0  0  0  0  0  0  0  0  0  0
   34.0147  -30.8619  -19.6486 C   0  0  2  0  0  0  0  0  0  0  0  0
   34.5677  -32.1803  -19.8782 N   0  0  0  0  0  0  0  0  0  0  0  0
   32.5607  -30.9673  -19.4314 C   0  0  0  0  0  0  0  0  0  0  0  0
   31.9133  -31.8327  -20.0637 O   0  0  0  0  0  0  0  0  0  0  0  0
   35.8996  -28.2841  -20.6237 C   0  0  0  0  0  0  0  0  0  0  0  0
   37.1885  -27.7817  -20.7134 C   0  0  0  0  0  0  0  0  0  0  0  0
   29.6139  -32.4536  -15.3778 N   0  0  0  0  0  0  0  0  0  0  0  0
   28.4442  -31.9370  -15.9813 C   0  0  0  0  0  0  0  0  0  0  0  0
   27.3518  -32.5257  -15.8225 O   0  0  0  0  0  0  0  0  0  0  0  0
   28.5108  -30.6977  -16.8025 C   0  0  0  0  0  0  0  0  0  0  0  0
   29.9416  -30.2154  -16.9495 C   0  0  0  0  0  0  0  0  0  0  0  0
   30.4491  -30.3407  -18.3361 C   0  0  2  0  0  0  0  0  0  0  0  0
   31.8270  -30.1522  -18.5489 N   0  0  0  0  0  0  0  0  0  0  0  0
   29.5998  -29.4378  -19.2003 C   0  0  0  0  0  0  0  0  0  0  0  0
   29.8627  -28.2056  -19.2471 O   0  0  0  0  0  0  0  0  0  0  0  0
   25.3908  -31.3536  -23.8284 N   0  0  0  0  0  0  0  0  0  0  0  0
   25.4805  -29.9407  -23.8618 C   0  0  0  0  0  0  0  0  0  0  0  0
   24.7994  -29.3508  -24.7697 O   0  0  0  0  0  0  0  0  0  0  0  0
   26.2844  -29.1337  -22.9329 C   0  0  0  0  0  0  0  0  0  0  0  0
   27.0613  -29.8374  -21.9064 C   0  0  0  0  0  0  0  0  0  0  0  0
   27.7940  -29.0417  -20.9081 C   0  0  2  0  0  0  0  0  0  0  0  0
   28.5107  -29.9188  -19.9674 N   0  0  0  0  0  0  0  0  0  0  0  0
   27.0477  -28.0713  -20.1542 C   0  0  0  0  0  0  0  0  0  0  0  0
   26.4970  -28.2829  -19.0266 O   0  0  0  0  0  0  0  0  0  0  0  0
   26.8656  -26.7534  -20.6370 O   0  0  0  0  0  0  0  0  0  0  0  0
  2  1  1  0
  3  2  2  0
  4  3  1  0
  5 11  1  0
  5  4  2  0
  6  5  1  0
  7  6  1  0
  7  8  1  6
  9  7  1  0
  9 10  2  0
 11 12  2  0
 12  2  1  0
 13 14  1  0
 14 15  2  0
 16 17  1  0
 16 14  1  0
 18 19  1  0
 18 17  1  1
 19  9  1  0
 20 18  1  0
 21 20  2  0
 23 22  1  0
 23 24  2  0
 25 23  1  0
 26 25  1  0
 27 26  1  1
 27 28  1  0
 28 20  1  0
 29 27  1  0
 29 31  1  0
 30 29  2  0
M  END
$$$$
