YQQ.pdb
     RDKit          3D

 31 31  0  0  1  0  0  0  0  0999 V2000
   14.6956  -15.2295  -19.0334 O   0  0  0  0  0  0  0  0  0  0  0  0
   15.5184  -14.3343  -18.3447 C   0  0  0  0  0  0  0  0  0  0  0  0
   15.5543  -14.3931  -16.9881 C   0  0  0  0  0  0  0  0  0  0  0  0
   16.3632  -13.5172  -16.2581 C   0  0  0  0  0  0  0  0  0  0  0  0
   17.1328  -12.5845  -16.9114 C   0  0  0  0  0  0  0  0  0  0  0  0
   17.9876  -11.6550  -16.1709 C   0  0  0  0  0  0  0  0  0  0  0  0
   19.4315  -12.1478  -16.0748 C   0  0  2  0  0  0  0  0  0  0  0  0
   19.4283  -13.2509  -15.1368 N   0  0  0  0  0  0  0  0  0  0  0  0
   20.2512  -11.0463  -15.5390 C   0  0  0  0  0  0  0  0  0  0  0  0
   20.1465  -10.7447  -14.3283 O   0  0  0  0  0  0  0  0  0  0  0  0
   17.0902  -12.5326  -18.2796 C   0  0  0  0  0  0  0  0  0  0  0  0
   16.2871  -13.4023  -19.0011 C   0  0  0  0  0  0  0  0  0  0  0  0
   26.1015   -9.6065  -16.1752 N   0  0  0  0  0  0  0  0  0  0  0  0
   25.4090  -10.7176  -15.6411 C   0  0  0  0  0  0  0  0  0  0  0  0
   26.0285  -11.7768  -15.3977 O   0  0  0  0  0  0  0  0  0  0  0  0
   23.9486  -10.6287  -15.3688 C   0  0  0  0  0  0  0  0  0  0  0  0
   23.3837   -9.3029  -15.8426 C   0  0  0  0  0  0  0  0  0  0  0  0
   21.9072   -9.2379  -15.7357 C   0  0  2  0  0  0  0  0  0  0  0  0
   21.1626  -10.2899  -16.2998 N   0  0  0  0  0  0  0  0  0  0  0  0
   21.4859   -7.8840  -16.2579 C   0  0  0  0  0  0  0  0  0  0  0  0
   20.9538   -7.8027  -17.3980 O   0  0  0  0  0  0  0  0  0  0  0  0
   19.7087   -4.3662  -19.1071 N   0  0  0  0  0  0  0  0  0  0  0  0
   18.9692   -3.7968  -18.0420 C   0  0  0  0  0  0  0  0  0  0  0  0
   18.2673   -2.7660  -18.3266 O   0  0  0  0  0  0  0  0  0  0  0  0
   18.9563   -4.3131  -16.6658 C   0  0  0  0  0  0  0  0  0  0  0  0
   19.7207   -5.5327  -16.3822 C   0  0  0  0  0  0  0  0  0  0  0  0
   21.1372   -5.4046  -16.0029 C   0  0  2  0  0  0  0  0  0  0  0  0
   21.6643   -6.6905  -15.5166 N   0  0  0  0  0  0  0  0  0  0  0  0
   21.4812   -4.3791  -15.0557 C   0  0  0  0  0  0  0  0  0  0  0  0
   21.3928   -3.1269  -15.2646 O   0  0  0  0  0  0  0  0  0  0  0  0
   21.9645   -4.7073  -13.7665 O   0  0  0  0  0  0  0  0  0  0  0  0
  2  1  1  0
  3  2  2  0
  4  3  1  0
  5 11  1  0
  5  4  2  0
  6  5  1  0
  7  6  1  0
  7  8  1  1
  9  7  1  0
  9 10  2  0
 11 12  2  0
 12  2  1  0
 13 14  1  0
 14 15  2  0
 16 17  1  0
 16 14  1  0
 18 19  1  0
 18 17  1  6
 19  9  1  0
 20 18  1  0
 21 20  2  0
 23 22  1  0
 23 24  2  0
 25 23  1  0
 26 25  1  0
 27 26  1  1
 27 28  1  0
 28 20  1  0
 29 27  1  0
 29 31  1  0
 30 29  2  0
M  END
$$$$
