YQQ.pdb
     RDKit          3D

 31 31  0  0  1  0  0  0  0  0999 V2000
   24.6006  -11.9746  -18.2449 O   0  0  0  0  0  0  0  0  0  0  0  0
   24.2888  -13.2309  -17.7181 C   0  0  0  0  0  0  0  0  0  0  0  0
   23.5531  -14.0894  -18.4711 C   0  0  0  0  0  0  0  0  0  0  0  0
   23.2179  -15.3563  -17.9843 C   0  0  0  0  0  0  0  0  0  0  0  0
   23.6327  -15.7451  -16.7330 C   0  0  0  0  0  0  0  0  0  0  0  0
   23.2944  -17.0655  -16.1992 C   0  0  0  0  0  0  0  0  0  0  0  0
   24.4186  -18.0801  -16.4094 C   0  0  2  0  0  0  0  0  0  0  0  0
   24.5015  -18.3127  -17.8362 N   0  0  0  0  0  0  0  0  0  0  0  0
   24.0348  -19.3288  -15.7270 C   0  0  0  0  0  0  0  0  0  0  0  0
   23.2814  -20.1365  -16.3167 O   0  0  0  0  0  0  0  0  0  0  0  0
   24.3741  -14.8727  -15.9809 C   0  0  0  0  0  0  0  0  0  0  0  0
   24.7051  -13.6168  -16.4659 C   0  0  0  0  0  0  0  0  0  0  0  0
   26.2760  -21.1780  -15.1894 N   0  0  0  0  0  0  0  0  0  0  0  0
   26.4880  -22.3846  -14.4833 C   0  0  0  0  0  0  0  0  0  0  0  0
   27.3720  -23.1818  -14.8678 O   0  0  0  0  0  0  0  0  0  0  0  0
   25.6632  -22.7063  -13.2871 C   0  0  0  0  0  0  0  0  0  0  0  0
   24.9189  -21.4811  -12.7905 C   0  0  0  0  0  0  0  0  0  0  0  0
   24.0383  -20.8874  -13.8239 C   0  0  2  0  0  0  0  0  0  0  0  0
   24.4587  -19.6918  -14.4346 N   0  0  0  0  0  0  0  0  0  0  0  0
   22.6591  -20.7749  -13.2169 C   0  0  0  0  0  0  0  0  0  0  0  0
   22.3167  -19.6950  -12.6635 O   0  0  0  0  0  0  0  0  0  0  0  0
   18.7443  -19.6077  -16.6168 N   0  0  0  0  0  0  0  0  0  0  0  0
   18.5287  -19.5102  -15.2206 C   0  0  0  0  0  0  0  0  0  0  0  0
   18.1453  -18.3705  -14.7844 O   0  0  0  0  0  0  0  0  0  0  0  0
   18.7084  -20.6164  -14.2695 C   0  0  0  0  0  0  0  0  0  0  0  0
   19.7289  -20.4667  -13.2262 C   0  0  0  0  0  0  0  0  0  0  0  0
   20.3700  -21.6777  -12.6884 C   0  0  2  0  0  0  0  0  0  0  0  0
   21.7248  -21.8390  -13.2418 N   0  0  0  0  0  0  0  0  0  0  0  0
   19.6641  -22.9221  -12.8306 C   0  0  0  0  0  0  0  0  0  0  0  0
   18.5741  -23.2192  -12.2451 O   0  0  0  0  0  0  0  0  0  0  0  0
   20.1564  -23.9497  -13.6703 O   0  0  0  0  0  0  0  0  0  0  0  0
  2  1  1  0
  3  2  2  0
  4  3  1  0
  5 11  1  0
  5  4  2  0
  6  5  1  0
  7  6  1  0
  7  8  1  6
  9  7  1  0
  9 10  2  0
 11 12  2  0
 12  2  1  0
 13 14  1  0
 14 15  2  0
 16 17  1  0
 16 14  1  0
 18 19  1  0
 18 17  1  1
 19  9  1  0
 20 18  1  0
 21 20  2  0
 23 22  1  0
 23 24  2  0
 25 23  1  0
 26 25  1  0
 27 26  1  6
 27 28  1  0
 28 20  1  0
 29 27  1  0
 29 31  1  0
 30 29  2  0
M  END
$$$$
