YQQ.pdb
     RDKit          3D

 31 31  0  0  1  0  0  0  0  0999 V2000
   18.2295  -21.4147   -8.7185 O   0  0  0  0  0  0  0  0  0  0  0  0
   19.1397  -21.2291   -9.7625 C   0  0  0  0  0  0  0  0  0  0  0  0
   19.4930  -22.3012  -10.5180 C   0  0  0  0  0  0  0  0  0  0  0  0
   20.4000  -22.1618  -11.5726 C   0  0  0  0  0  0  0  0  0  0  0  0
   20.9443  -20.9317  -11.8546 C   0  0  0  0  0  0  0  0  0  0  0  0
   21.8971  -20.7587  -12.9523 C   0  0  0  0  0  0  0  0  0  0  0  0
   23.3069  -21.2115  -12.5719 C   0  0  2  0  0  0  0  0  0  0  0  0
   23.8362  -20.2023  -11.6786 N   0  0  0  0  0  0  0  0  0  0  0  0
   24.1162  -21.2548  -13.8029 C   0  0  0  0  0  0  0  0  0  0  0  0
   24.5116  -20.1795  -14.3081 O   0  0  0  0  0  0  0  0  0  0  0  0
   20.5822  -19.8562  -11.0873 C   0  0  0  0  0  0  0  0  0  0  0  0
   19.6826  -19.9972  -10.0420 C   0  0  0  0  0  0  0  0  0  0  0  0
   28.6288  -21.2614  -17.0725 N   0  0  0  0  0  0  0  0  0  0  0  0
   28.3646  -22.5539  -16.5635 C   0  0  0  0  0  0  0  0  0  0  0  0
   29.1476  -23.0662  -15.7332 O   0  0  0  0  0  0  0  0  0  0  0  0
   27.1599  -23.3032  -17.0130 C   0  0  0  0  0  0  0  0  0  0  0  0
   26.2060  -23.5478  -15.8590 C   0  0  0  0  0  0  0  0  0  0  0  0
   25.2748  -22.4170  -15.6354 C   0  0  2  0  0  0  0  0  0  0  0  0
   24.4869  -22.4377  -14.4700 N   0  0  0  0  0  0  0  0  0  0  0  0
   24.4482  -22.2709  -16.8919 C   0  0  0  0  0  0  0  0  0  0  0  0
   23.4024  -22.9626  -17.0241 O   0  0  0  0  0  0  0  0  0  0  0  0
   22.4861  -16.8681  -16.8528 N   0  0  0  0  0  0  0  0  0  0  0  0
   21.5105  -17.8013  -17.2802 C   0  0  0  0  0  0  0  0  0  0  0  0
   20.3184  -17.3559  -17.4097 O   0  0  0  0  0  0  0  0  0  0  0  0
   21.7830  -19.2137  -17.5824 C   0  0  0  0  0  0  0  0  0  0  0  0
   23.1427  -19.7154  -17.3543 C   0  0  0  0  0  0  0  0  0  0  0  0
   23.8365  -20.3984  -18.4583 C   0  0  2  0  0  0  0  0  0  0  0  0
   24.7995  -21.3832  -17.9380 N   0  0  0  0  0  0  0  0  0  0  0  0
   24.5003  -19.5778  -19.4346 C   0  0  0  0  0  0  0  0  0  0  0  0
   25.7448  -19.3126  -19.4469 O   0  0  0  0  0  0  0  0  0  0  0  0
   23.7816  -18.9809  -20.4978 O   0  0  0  0  0  0  0  0  0  0  0  0
  2  1  1  0
  3  2  2  0
  4  3  1  0
  5 11  1  0
  5  4  2  0
  6  5  1  0
  7  6  1  0
  7  8  1  1
  9  7  1  0
  9 10  2  0
 11 12  2  0
 12  2  1  0
 13 14  1  0
 14 15  2  0
 16 17  1  0
 16 14  1  0
 18 19  1  0
 18 17  1  6
 19  9  1  0
 20 18  1  0
 21 20  2  0
 23 22  1  0
 23 24  2  0
 25 23  1  0
 26 25  1  0
 27 26  1  1
 27 28  1  0
 28 20  1  0
 29 27  1  0
 29 31  1  0
 30 29  2  0
M  END
$$$$
