YQQ.pdb
     RDKit          3D

 31 31  0  0  1  0  0  0  0  0999 V2000
   29.1128  -14.7686  -18.3357 O   0  0  0  0  0  0  0  0  0  0  0  0
   28.4102  -15.7387  -17.6159 C   0  0  0  0  0  0  0  0  0  0  0  0
   27.9299  -16.8224  -18.2792 C   0  0  0  0  0  0  0  0  0  0  0  0
   27.2215  -17.8176  -17.5993 C   0  0  0  0  0  0  0  0  0  0  0  0
   27.0045  -17.7064  -16.2467 C   0  0  0  0  0  0  0  0  0  0  0  0
   26.2650  -18.7335  -15.5112 C   0  0  0  0  0  0  0  0  0  0  0  0
   27.1936  -19.7061  -14.7839 C   0  0  2  0  0  0  0  0  0  0  0  0
   27.8248  -20.5147  -15.8059 N   0  0  0  0  0  0  0  0  0  0  0  0
   26.3636  -20.5632  -13.9187 C   0  0  0  0  0  0  0  0  0  0  0  0
   25.6944  -21.4848  -14.4390 O   0  0  0  0  0  0  0  0  0  0  0  0
   27.4926  -16.6100  -15.5862 C   0  0  0  0  0  0  0  0  0  0  0  0
   28.1947  -15.6245  -16.2628 C   0  0  0  0  0  0  0  0  0  0  0  0
   25.3860  -20.4897   -7.5956 N   0  0  0  0  0  0  0  0  0  0  0  0
   26.6082  -20.6582   -8.2863 C   0  0  0  0  0  0  0  0  0  0  0  0
   27.6888  -20.6052   -7.6582 O   0  0  0  0  0  0  0  0  0  0  0  0
   26.6107  -20.8977   -9.7551 C   0  0  0  0  0  0  0  0  0  0  0  0
   25.2055  -20.8290  -10.3227 C   0  0  0  0  0  0  0  0  0  0  0  0
   25.1771  -20.9521  -11.7992 C   0  0  2  0  0  0  0  0  0  0  0  0
   26.2621  -20.4228  -12.5217 N   0  0  0  0  0  0  0  0  0  0  0  0
   23.8481  -20.4020  -12.2625 C   0  0  0  0  0  0  0  0  0  0  0  0
   23.8292  -19.4965  -13.1396 O   0  0  0  0  0  0  0  0  0  0  0  0
   23.5685  -20.8382  -15.9169 N   0  0  0  0  0  0  0  0  0  0  0  0
   22.1662  -20.8884  -16.1078 C   0  0  0  0  0  0  0  0  0  0  0  0
   21.7345  -20.4940  -17.2455 O   0  0  0  0  0  0  0  0  0  0  0  0
   21.2039  -21.3620  -15.1027 C   0  0  0  0  0  0  0  0  0  0  0  0
   21.7262  -21.7965  -13.8024 C   0  0  0  0  0  0  0  0  0  0  0  0
   21.4245  -20.9822  -12.6139 C   0  0  2  0  0  0  0  0  0  0  0  0
   22.6107  -20.8625  -11.7500 N   0  0  0  0  0  0  0  0  0  0  0  0
   20.3043  -21.3780  -11.8043 C   0  0  0  0  0  0  0  0  0  0  0  0
   20.3481  -22.2203  -10.8514 O   0  0  0  0  0  0  0  0  0  0  0  0
   19.0163  -20.8329  -12.0220 O   0  0  0  0  0  0  0  0  0  0  0  0
  2  1  1  0
  3  2  2  0
  4  3  1  0
  5 11  1  0
  5  4  2  0
  6  5  1  0
  7  6  1  0
  7  8  1  6
  9  7  1  0
  9 10  2  0
 11 12  2  0
 12  2  1  0
 13 14  1  0
 14 15  2  0
 16 17  1  0
 16 14  1  0
 18 19  1  0
 18 17  1  1
 19  9  1  0
 20 18  1  0
 21 20  2  0
 23 22  1  0
 23 24  2  0
 25 23  1  0
 26 25  1  0
 27 26  1  6
 27 28  1  0
 28 20  1  0
 29 27  1  0
 29 31  1  0
 30 29  2  0
M  END
$$$$
