YQQ.pdb
     RDKit          3D

 31 31  0  0  1  0  0  0  0  0999 V2000
   27.6628  -17.3860  -22.1401 O   0  0  0  0  0  0  0  0  0  0  0  0
   26.9738  -18.0163  -21.1004 C   0  0  0  0  0  0  0  0  0  0  0  0
   26.6288  -19.3222  -21.2442 C   0  0  0  0  0  0  0  0  0  0  0  0
   25.9391  -19.9928  -20.2297 C   0  0  0  0  0  0  0  0  0  0  0  0
   25.6030  -19.3319  -19.0725 C   0  0  0  0  0  0  0  0  0  0  0  0
   24.8800  -20.0103  -17.9955 C   0  0  0  0  0  0  0  0  0  0  0  0
   25.8240  -20.6167  -16.9571 C   0  0  2  0  0  0  0  0  0  0  0  0
   26.4528  -21.7577  -17.5893 N   0  0  0  0  0  0  0  0  0  0  0  0
   25.0098  -21.0711  -15.8157 C   0  0  0  0  0  0  0  0  0  0  0  0
   24.1999  -22.0112  -15.9834 O   0  0  0  0  0  0  0  0  0  0  0  0
   25.9550  -18.0150  -18.9364 C   0  0  0  0  0  0  0  0  0  0  0  0
   26.6388  -17.3523  -19.9439 C   0  0  0  0  0  0  0  0  0  0  0  0
   25.4670  -20.3112   -9.4679 N   0  0  0  0  0  0  0  0  0  0  0  0
   24.3353  -21.1352   -9.6672 C   0  0  0  0  0  0  0  0  0  0  0  0
   23.7430  -21.6258   -8.6806 O   0  0  0  0  0  0  0  0  0  0  0  0
   23.8494  -21.4186  -11.0450 C   0  0  0  0  0  0  0  0  0  0  0  0
   24.7604  -20.7945  -12.0852 C   0  0  0  0  0  0  0  0  0  0  0  0
   24.2731  -20.9976  -13.4699 C   0  0  2  0  0  0  0  0  0  0  0  0
   25.0730  -20.5177  -14.5230 N   0  0  0  0  0  0  0  0  0  0  0  0
   22.8610  -20.4626  -13.5238 C   0  0  0  0  0  0  0  0  0  0  0  0
   22.6768  -19.2164  -13.5763 O   0  0  0  0  0  0  0  0  0  0  0  0
   18.7403  -20.6174  -17.6983 N   0  0  0  0  0  0  0  0  0  0  0  0
   18.7680  -19.4838  -16.8500 C   0  0  0  0  0  0  0  0  0  0  0  0
   18.3139  -18.3948  -17.3440 O   0  0  0  0  0  0  0  0  0  0  0  0
   19.2688  -19.4881  -15.4681 C   0  0  0  0  0  0  0  0  0  0  0  0
   19.8634  -20.7280  -14.9565 C   0  0  0  0  0  0  0  0  0  0  0  0
   20.3613  -20.7517  -13.5715 C   0  0  2  0  0  0  0  0  0  0  0  0
   21.7239  -21.3069  -13.5175 N   0  0  0  0  0  0  0  0  0  0  0  0
   19.5538  -21.4187  -12.5865 C   0  0  0  0  0  0  0  0  0  0  0  0
   19.8920  -22.4648  -11.9457 O   0  0  0  0  0  0  0  0  0  0  0  0
   18.2677  -20.9352  -12.2467 O   0  0  0  0  0  0  0  0  0  0  0  0
  2  1  1  0
  3  2  2  0
  4  3  1  0
  5 11  1  0
  5  4  2  0
  6  5  1  0
  7  6  1  0
  7  8  1  6
  9  7  1  0
  9 10  2  0
 11 12  2  0
 12  2  1  0
 13 14  1  0
 14 15  2  0
 16 17  1  0
 16 14  1  0
 18 19  1  0
 18 17  1  1
 19  9  1  0
 20 18  1  0
 21 20  2  0
 23 22  1  0
 23 24  2  0
 25 23  1  0
 26 25  1  0
 27 26  1  6
 27 28  1  0
 28 20  1  0
 29 27  1  0
 29 31  1  0
 30 29  2  0
M  END
$$$$
