YQQ.pdb
     RDKit          3D

 31 31  0  0  1  0  0  0  0  0999 V2000
   34.3000  -33.2109  -22.9538 O   0  0  0  0  0  0  0  0  0  0  0  0
   33.2809  -32.7949  -22.0928 C   0  0  0  0  0  0  0  0  0  0  0  0
   32.7813  -31.5395  -22.2323 C   0  0  0  0  0  0  0  0  0  0  0  0
   31.7614  -31.0813  -21.3931 C   0  0  0  0  0  0  0  0  0  0  0  0
   31.2535  -31.9024  -20.4150 C   0  0  0  0  0  0  0  0  0  0  0  0
   30.1863  -31.4469  -19.5225 C   0  0  0  0  0  0  0  0  0  0  0  0
   30.7322  -30.8515  -18.2245 C   0  0  2  0  0  0  0  0  0  0  0  0
   31.1873  -31.9660  -17.4199 N   0  0  0  0  0  0  0  0  0  0  0  0
   29.6216  -30.1677  -17.5379 C   0  0  0  0  0  0  0  0  0  0  0  0
   29.0749  -30.7277  -16.5605 O   0  0  0  0  0  0  0  0  0  0  0  0
   31.7635  -33.1668  -20.2818 C   0  0  0  0  0  0  0  0  0  0  0  0
   32.7750  -33.6187  -21.1152 C   0  0  0  0  0  0  0  0  0  0  0  0
   30.0840  -26.4159  -18.9688 N   0  0  0  0  0  0  0  0  0  0  0  0
   30.2450  -25.9118  -17.6576 C   0  0  0  0  0  0  0  0  0  0  0  0
   31.2826  -25.2803  -17.3583 O   0  0  0  0  0  0  0  0  0  0  0  0
   29.1849  -26.1308  -16.6363 C   0  0  0  0  0  0  0  0  0  0  0  0
   27.9740  -26.8143  -17.2430 C   0  0  0  0  0  0  0  0  0  0  0  0
   28.0667  -28.2925  -17.1961 C   0  0  2  0  0  0  0  0  0  0  0  0
   29.1162  -28.9060  -17.9042 N   0  0  0  0  0  0  0  0  0  0  0  0
   26.7103  -28.8324  -17.5862 C   0  0  0  0  0  0  0  0  0  0  0  0
   26.6430  -29.8739  -18.2936 O   0  0  0  0  0  0  0  0  0  0  0  0
   23.2863  -31.7663  -14.6282 N   0  0  0  0  0  0  0  0  0  0  0  0
   22.5789  -31.7799  -15.8549 C   0  0  0  0  0  0  0  0  0  0  0  0
   21.5092  -32.4807  -15.8848 O   0  0  0  0  0  0  0  0  0  0  0  0
   22.9884  -31.0482  -17.0622 C   0  0  0  0  0  0  0  0  0  0  0  0
   24.2303  -30.2692  -17.0055 C   0  0  0  0  0  0  0  0  0  0  0  0
   24.1985  -28.8602  -17.4303 C   0  0  2  0  0  0  0  0  0  0  0  0
   25.4995  -28.2143  -17.1891 N   0  0  0  0  0  0  0  0  0  0  0  0
   23.1627  -28.0253  -16.8854 C   0  0  0  0  0  0  0  0  0  0  0  0
   21.9420  -28.0408  -17.2446 O   0  0  0  0  0  0  0  0  0  0  0  0
   23.4429  -27.0850  -15.8653 O   0  0  0  0  0  0  0  0  0  0  0  0
  2  1  1  0
  3  2  2  0
  4  3  1  0
  5 11  1  0
  5  4  2  0
  6  5  1  0
  7  6  1  0
  7  8  1  1
  9  7  1  0
  9 10  2  0
 11 12  2  0
 12  2  1  0
 13 14  1  0
 14 15  2  0
 16 17  1  0
 16 14  1  0
 18 19  1  0
 18 17  1  6
 19  9  1  0
 20 18  1  0
 21 20  2  0
 23 22  1  0
 23 24  2  0
 25 23  1  0
 26 25  1  0
 27 26  1  1
 27 28  1  0
 28 20  1  0
 29 27  1  0
 29 31  1  0
 30 29  2  0
M  END
$$$$
