YQQ.pdb
     RDKit          3D

 31 31  0  0  1  0  0  0  0  0999 V2000
   17.4414  -24.8556   -6.6884 O   0  0  0  0  0  0  0  0  0  0  0  0
   17.9813  -24.1665   -7.7776 C   0  0  0  0  0  0  0  0  0  0  0  0
   17.1409  -23.7112   -8.7428 C   0  0  0  0  0  0  0  0  0  0  0  0
   17.6372  -23.0167   -9.8500 C   0  0  0  0  0  0  0  0  0  0  0  0
   18.9870  -22.7880   -9.9709 C   0  0  0  0  0  0  0  0  0  0  0  0
   19.5326  -22.0646  -11.1207 C   0  0  0  0  0  0  0  0  0  0  0  0
   20.6379  -21.0879  -10.7185 C   0  0  2  0  0  0  0  0  0  0  0  0
   19.9852  -19.9778  -10.0564 N   0  0  0  0  0  0  0  0  0  0  0  0
   21.2923  -20.6125  -11.9506 C   0  0  0  0  0  0  0  0  0  0  0  0
   20.8909  -19.5517  -12.4810 O   0  0  0  0  0  0  0  0  0  0  0  0
   19.8269  -23.2509   -8.9927 C   0  0  0  0  0  0  0  0  0  0  0  0
   19.3322  -23.9394   -7.8959 C   0  0  0  0  0  0  0  0  0  0  0  0
   26.6040  -22.4819  -15.0934 N   0  0  0  0  0  0  0  0  0  0  0  0
   26.1715  -21.3047  -15.7464 C   0  0  0  0  0  0  0  0  0  0  0  0
   26.8226  -20.8580  -16.7167 O   0  0  0  0  0  0  0  0  0  0  0  0
   24.9465  -20.5986  -15.2822 C   0  0  0  0  0  0  0  0  0  0  0  0
   24.2785  -21.3512  -14.1470 C   0  0  0  0  0  0  0  0  0  0  0  0
   23.0155  -20.7159  -13.7030 C   0  0  2  0  0  0  0  0  0  0  0  0
   22.3571  -21.2734  -12.5917 N   0  0  0  0  0  0  0  0  0  0  0  0
   22.1212  -20.6158  -14.9170 C   0  0  0  0  0  0  0  0  0  0  0  0
   21.5913  -21.6626  -15.3787 O   0  0  0  0  0  0  0  0  0  0  0  0
   18.1860  -15.8585  -16.3380 N   0  0  0  0  0  0  0  0  0  0  0  0
   19.5909  -15.7366  -16.2089 C   0  0  0  0  0  0  0  0  0  0  0  0
   20.0404  -14.5583  -15.9944 O   0  0  0  0  0  0  0  0  0  0  0  0
   20.5373  -16.8578  -16.2977 C   0  0  0  0  0  0  0  0  0  0  0  0
   19.9961  -18.1938  -16.5708 C   0  0  0  0  0  0  0  0  0  0  0  0
   20.9350  -19.3180  -16.7177 C   0  0  2  0  0  0  0  0  0  0  0  0
   21.8493  -19.3866  -15.5657 N   0  0  0  0  0  0  0  0  0  0  0  0
   21.7120  -19.3811  -17.9257 C   0  0  0  0  0  0  0  0  0  0  0  0
   21.2367  -19.5163  -19.0984 O   0  0  0  0  0  0  0  0  0  0  0  0
   23.1242  -19.2936  -17.8916 O   0  0  0  0  0  0  0  0  0  0  0  0
  2  1  1  0
  3  2  2  0
  4  3  1  0
  5 11  1  0
  5  4  2  0
  6  5  1  0
  7  6  1  0
  7  8  1  6
  9  7  1  0
  9 10  2  0
 11 12  2  0
 12  2  1  0
 13 14  1  0
 14 15  2  0
 16 17  1  0
 16 14  1  0
 18 19  1  0
 18 17  1  6
 19  9  1  0
 20 18  1  0
 21 20  2  0
 23 22  1  0
 23 24  2  0
 25 23  1  0
 26 25  1  0
 27 26  1  6
 27 28  1  0
 28 20  1  0
 29 27  1  0
 29 31  1  0
 30 29  2  0
M  END
$$$$
