YQQ.pdb
     RDKit          3D

 31 31  0  0  1  0  0  0  0  0999 V2000
   17.9376  -12.7984  -24.3384 O   0  0  0  0  0  0  0  0  0  0  0  0
   18.5247  -12.3230  -23.1628 C   0  0  0  0  0  0  0  0  0  0  0  0
   17.7174  -11.9105  -22.1513 C   0  0  0  0  0  0  0  0  0  0  0  0
   18.2613  -11.4277  -20.9573 C   0  0  0  0  0  0  0  0  0  0  0  0
   19.6249  -11.3664  -20.7970 C   0  0  0  0  0  0  0  0  0  0  0  0
   20.2201  -10.8640  -19.5576 C   0  0  0  0  0  0  0  0  0  0  0  0
   20.9451  -11.9609  -18.7776 C   0  0  2  0  0  0  0  0  0  0  0  0
   19.9186  -12.8182  -18.2225 N   0  0  0  0  0  0  0  0  0  0  0  0
   21.6960  -11.3181  -17.6843 C   0  0  0  0  0  0  0  0  0  0  0  0
   21.1707  -11.2402  -16.5504 O   0  0  0  0  0  0  0  0  0  0  0  0
   20.4312  -11.7845  -21.8225 C   0  0  0  0  0  0  0  0  0  0  0  0
   19.8893  -12.2627  -23.0056 C   0  0  0  0  0  0  0  0  0  0  0  0
   27.7604  -11.1618  -16.1458 N   0  0  0  0  0  0  0  0  0  0  0  0
   27.1822  -10.2348  -15.2482 C   0  0  0  0  0  0  0  0  0  0  0  0
   27.8831   -9.7230  -14.3473 O   0  0  0  0  0  0  0  0  0  0  0  0
   25.7453   -9.8682  -15.3737 C   0  0  0  0  0  0  0  0  0  0  0  0
   25.1040  -10.5672  -16.5576 C   0  0  0  0  0  0  0  0  0  0  0  0
   23.6747  -10.2145  -16.7261 C   0  0  2  0  0  0  0  0  0  0  0  0
   22.9866  -10.7724  -17.8191 N   0  0  0  0  0  0  0  0  0  0  0  0
   23.5854   -8.7064  -16.6932 C   0  0  0  0  0  0  0  0  0  0  0  0
   23.8584   -8.0510  -17.7351 O   0  0  0  0  0  0  0  0  0  0  0  0
   22.0144   -4.2660  -19.1504 N   0  0  0  0  0  0  0  0  0  0  0  0
   21.9093   -4.0530  -17.7543 C   0  0  0  0  0  0  0  0  0  0  0  0
   22.3995   -2.9584  -17.3094 O   0  0  0  0  0  0  0  0  0  0  0  0
   21.2795   -4.9895  -16.8127 C   0  0  0  0  0  0  0  0  0  0  0  0
   21.8662   -6.3274  -16.6781 C   0  0  0  0  0  0  0  0  0  0  0  0
   22.8416   -6.5642  -15.6014 C   0  0  2  0  0  0  0  0  0  0  0  0
   23.2052   -7.9893  -15.5325 N   0  0  0  0  0  0  0  0  0  0  0  0
   22.4957   -6.1137  -14.2806 C   0  0  0  0  0  0  0  0  0  0  0  0
   22.2299   -4.9109  -13.9610 O   0  0  0  0  0  0  0  0  0  0  0  0
   22.4240   -7.0191  -13.1951 O   0  0  0  0  0  0  0  0  0  0  0  0
  2  1  1  0
  3  2  2  0
  4  3  1  0
  5 11  1  0
  5  4  2  0
  6  5  1  0
  7  6  1  0
  7  8  1  1
  9  7  1  0
  9 10  2  0
 11 12  2  0
 12  2  1  0
 13 14  1  0
 14 15  2  0
 16 17  1  0
 16 14  1  0
 18 19  1  0
 18 17  1  6
 19  9  1  0
 20 18  1  0
 21 20  2  0
 23 22  1  0
 23 24  2  0
 25 23  1  0
 26 25  1  0
 27 26  1  6
 27 28  1  0
 28 20  1  0
 29 27  1  0
 29 31  1  0
 30 29  2  0
M  END
$$$$
