YQQ.pdb
     RDKit          3D

 31 31  0  0  1  0  0  0  0  0999 V2000
   19.2880  -17.7582  -20.4708 O   0  0  0  0  0  0  0  0  0  0  0  0
   19.6989  -16.5148  -19.9831 C   0  0  0  0  0  0  0  0  0  0  0  0
   20.2111  -15.6088  -20.8560 C   0  0  0  0  0  0  0  0  0  0  0  0
   20.6345  -14.3525  -20.4124 C   0  0  0  0  0  0  0  0  0  0  0  0
   20.5350  -14.0226  -19.0819 C   0  0  0  0  0  0  0  0  0  0  0  0
   20.9721  -12.7146  -18.5911 C   0  0  0  0  0  0  0  0  0  0  0  0
   22.4922  -12.6264  -18.4537 C   0  0  2  0  0  0  0  0  0  0  0  0
   22.8575  -13.4985  -17.3570 N   0  0  0  0  0  0  0  0  0  0  0  0
   22.8359  -11.2342  -18.1132 C   0  0  0  0  0  0  0  0  0  0  0  0
   22.7778  -10.8694  -16.9168 O   0  0  0  0  0  0  0  0  0  0  0  0
   20.0172  -14.9426  -18.2089 C   0  0  0  0  0  0  0  0  0  0  0  0
   19.5982  -16.1878  -18.6514 C   0  0  0  0  0  0  0  0  0  0  0  0
   25.6053   -6.4405  -21.4200 N   0  0  0  0  0  0  0  0  0  0  0  0
   25.6622   -6.0724  -20.0559 C   0  0  0  0  0  0  0  0  0  0  0  0
   26.3141   -5.0615  -19.7123 O   0  0  0  0  0  0  0  0  0  0  0  0
   24.9497   -6.8836  -19.0317 C   0  0  0  0  0  0  0  0  0  0  0  0
   24.3628   -8.1422  -19.6423 C   0  0  0  0  0  0  0  0  0  0  0  0
   23.6299   -8.9700  -18.6556 C   0  0  2  0  0  0  0  0  0  0  0  0
   23.2330  -10.2610  -19.0495 N   0  0  0  0  0  0  0  0  0  0  0  0
   22.4746   -8.1366  -18.1516 C   0  0  0  0  0  0  0  0  0  0  0  0
   21.4675   -7.9697  -18.8916 O   0  0  0  0  0  0  0  0  0  0  0  0
   18.1154   -9.5565  -14.9860 N   0  0  0  0  0  0  0  0  0  0  0  0
   18.0883   -8.1647  -14.7263 C   0  0  0  0  0  0  0  0  0  0  0  0
   17.1159   -7.7402  -14.0118 O   0  0  0  0  0  0  0  0  0  0  0  0
   19.0910   -7.2058  -15.2118 C   0  0  0  0  0  0  0  0  0  0  0  0
   20.2379   -7.7310  -15.9610 C   0  0  0  0  0  0  0  0  0  0  0  0
   21.2952   -6.7957  -16.3781 C   0  0  2  0  0  0  0  0  0  0  0  0
   22.4728   -7.5283  -16.8726 N   0  0  0  0  0  0  0  0  0  0  0  0
   21.7319   -5.8166  -15.4201 C   0  0  0  0  0  0  0  0  0  0  0  0
   22.9286   -5.6707  -15.0126 O   0  0  0  0  0  0  0  0  0  0  0  0
   20.8183   -4.9060  -14.8375 O   0  0  0  0  0  0  0  0  0  0  0  0
  2  1  1  0
  3  2  2  0
  4  3  1  0
  5 11  1  0
  5  4  2  0
  6  5  1  0
  7  6  1  0
  7  8  1  1
  9  7  1  0
  9 10  2  0
 11 12  2  0
 12  2  1  0
 13 14  1  0
 14 15  2  0
 16 17  1  0
 16 14  1  0
 18 19  1  0
 18 17  1  6
 19  9  1  0
 20 18  1  0
 21 20  2  0
 23 22  1  0
 23 24  2  0
 25 23  1  0
 26 25  1  0
 27 26  1  1
 27 28  1  0
 28 20  1  0
 29 27  1  0
 29 31  1  0
 30 29  2  0
M  END
$$$$
