YQQ.pdb
     RDKit          3D

 31 31  0  0  1  0  0  0  0  0999 V2000
   28.1051  -13.0128  -17.7100 O   0  0  0  0  0  0  0  0  0  0  0  0
   27.6285  -14.2280  -17.2108 C   0  0  0  0  0  0  0  0  0  0  0  0
   27.1609  -14.2709  -15.9362 C   0  0  0  0  0  0  0  0  0  0  0  0
   26.6746  -15.4649  -15.3955 C   0  0  0  0  0  0  0  0  0  0  0  0
   26.6658  -16.6110  -16.1541 C   0  0  0  0  0  0  0  0  0  0  0  0
   26.1631  -17.8743  -15.6118 C   0  0  0  0  0  0  0  0  0  0  0  0
   27.2922  -18.7982  -15.1551 C   0  0  2  0  0  0  0  0  0  0  0  0
   27.8710  -19.3650  -16.3554 N   0  0  0  0  0  0  0  0  0  0  0  0
   26.6969  -19.8718  -14.3395 C   0  0  0  0  0  0  0  0  0  0  0  0
   26.6893  -21.0413  -14.7868 O   0  0  0  0  0  0  0  0  0  0  0  0
   27.1393  -16.5582  -17.4384 C   0  0  0  0  0  0  0  0  0  0  0  0
   27.6212  -15.3729  -17.9721 C   0  0  0  0  0  0  0  0  0  0  0  0
   26.3029  -19.9377   -8.4575 N   0  0  0  0  0  0  0  0  0  0  0  0
   25.5355  -21.1113   -8.6389 C   0  0  0  0  0  0  0  0  0  0  0  0
   25.0156  -21.6723   -7.6490 O   0  0  0  0  0  0  0  0  0  0  0  0
   25.3460  -21.6782  -10.0018 C   0  0  0  0  0  0  0  0  0  0  0  0
   26.2841  -21.0268  -11.0003 C   0  0  0  0  0  0  0  0  0  0  0  0
   25.6348  -20.7559  -12.3044 C   0  0  2  0  0  0  0  0  0  0  0  0
   26.1231  -19.6802  -13.0685 N   0  0  0  0  0  0  0  0  0  0  0  0
   24.1493  -20.6565  -12.0458 C   0  0  0  0  0  0  0  0  0  0  0  0
   23.7110  -19.7148  -11.3310 O   0  0  0  0  0  0  0  0  0  0  0  0
   22.5343  -17.4557  -15.4493 N   0  0  0  0  0  0  0  0  0  0  0  0
   21.4469  -18.3156  -15.7387 C   0  0  0  0  0  0  0  0  0  0  0  0
   20.5094  -17.8223  -16.4556 O   0  0  0  0  0  0  0  0  0  0  0  0
   21.3398  -19.7082  -15.2808 C   0  0  0  0  0  0  0  0  0  0  0  0
   22.3980  -20.2277  -14.4074 C   0  0  0  0  0  0  0  0  0  0  0  0
   22.0235  -21.1306  -13.3068 C   0  0  2  0  0  0  0  0  0  0  0  0
   23.2184  -21.5832  -12.5753 N   0  0  0  0  0  0  0  0  0  0  0  0
   21.2218  -22.2787  -13.6328 C   0  0  0  0  0  0  0  0  0  0  0  0
   21.6637  -23.4612  -13.7935 O   0  0  0  0  0  0  0  0  0  0  0  0
   19.8216  -22.1670  -13.8059 O   0  0  0  0  0  0  0  0  0  0  0  0
  2  1  1  0
  3  2  2  0
  4  3  1  0
  5 11  1  0
  5  4  2  0
  6  5  1  0
  7  6  1  0
  7  8  1  6
  9  7  1  0
  9 10  2  0
 11 12  2  0
 12  2  1  0
 13 14  1  0
 14 15  2  0
 16 17  1  0
 16 14  1  0
 18 19  1  0
 18 17  1  1
 19  9  1  0
 20 18  1  0
 21 20  2  0
 23 22  1  0
 23 24  2  0
 25 23  1  0
 26 25  1  0
 27 26  1  6
 27 28  1  0
 28 20  1  0
 29 27  1  0
 29 31  1  0
 30 29  2  0
M  END
$$$$
