YQQ.pdb
     RDKit          3D

 31 31  0  0  1  0  0  0  0  0999 V2000
   29.8478  -16.2064  -19.6927 O   0  0  0  0  0  0  0  0  0  0  0  0
   29.0236  -17.1005  -19.0042 C   0  0  0  0  0  0  0  0  0  0  0  0
   28.4110  -16.6796  -17.8673 C   0  0  0  0  0  0  0  0  0  0  0  0
   27.5776  -17.5401  -17.1464 C   0  0  0  0  0  0  0  0  0  0  0  0
   27.3707  -18.8260  -17.5853 C   0  0  0  0  0  0  0  0  0  0  0  0
   26.5041  -19.7474  -16.8487 C   0  0  0  0  0  0  0  0  0  0  0  0
   27.2515  -20.4781  -15.7331 C   0  0  2  0  0  0  0  0  0  0  0  0
   28.0753  -21.4798  -16.3771 N   0  0  0  0  0  0  0  0  0  0  0  0
   26.2515  -21.1383  -14.8750 C   0  0  0  0  0  0  0  0  0  0  0  0
   26.3424  -22.3708  -14.6740 O   0  0  0  0  0  0  0  0  0  0  0  0
   27.9928  -19.2417  -18.7328 C   0  0  0  0  0  0  0  0  0  0  0  0
   28.8187  -18.3864  -19.4457 C   0  0  0  0  0  0  0  0  0  0  0  0
   26.2952  -19.8376   -9.4654 N   0  0  0  0  0  0  0  0  0  0  0  0
   25.3959  -20.9261   -9.3897 C   0  0  0  0  0  0  0  0  0  0  0  0
   25.0018  -21.3293   -8.2730 O   0  0  0  0  0  0  0  0  0  0  0  0
   24.9191  -21.5907  -10.6330 C   0  0  0  0  0  0  0  0  0  0  0  0
   25.5697  -20.9834  -11.8616 C   0  0  0  0  0  0  0  0  0  0  0  0
   24.6501  -20.9127  -13.0214 C   0  0  2  0  0  0  0  0  0  0  0  0
   25.1778  -20.4760  -14.2503 N   0  0  0  0  0  0  0  0  0  0  0  0
   23.4506  -20.1038  -12.5850 C   0  0  0  0  0  0  0  0  0  0  0  0
   23.5954  -18.8775  -12.3301 O   0  0  0  0  0  0  0  0  0  0  0  0
   19.8816  -22.5218  -17.3808 N   0  0  0  0  0  0  0  0  0  0  0  0
   20.7804  -21.4748  -17.0621 C   0  0  0  0  0  0  0  0  0  0  0  0
   21.7793  -21.3266  -17.8472 O   0  0  0  0  0  0  0  0  0  0  0  0
   20.6315  -20.5678  -15.9150 C   0  0  0  0  0  0  0  0  0  0  0  0
   21.5704  -20.7137  -14.7972 C   0  0  0  0  0  0  0  0  0  0  0  0
   21.1013  -20.4010  -13.4374 C   0  0  2  0  0  0  0  0  0  0  0  0
   22.1586  -20.6674  -12.4479 N   0  0  0  0  0  0  0  0  0  0  0  0
   19.8868  -21.0289  -12.9927 C   0  0  0  0  0  0  0  0  0  0  0  0
   18.7333  -20.4916  -13.0102 O   0  0  0  0  0  0  0  0  0  0  0  0
   19.8912  -22.3485  -12.4811 O   0  0  0  0  0  0  0  0  0  0  0  0
  2  1  1  0
  3  2  2  0
  4  3  1  0
  5 11  1  0
  5  4  2  0
  6  5  1  0
  7  6  1  0
  7  8  1  6
  9  7  1  0
  9 10  2  0
 11 12  2  0
 12  2  1  0
 13 14  1  0
 14 15  2  0
 16 17  1  0
 16 14  1  0
 18 19  1  0
 18 17  1  1
 19  9  1  0
 20 18  1  0
 21 20  2  0
 23 22  1  0
 23 24  2  0
 25 23  1  0
 26 25  1  0
 27 26  1  6
 27 28  1  0
 28 20  1  0
 29 27  1  0
 29 31  1  0
 30 29  2  0
M  END
$$$$
