YQQ.pdb
     RDKit          3D

 31 31  0  0  1  0  0  0  0  0999 V2000
   30.7306  -20.9364  -10.0446 O   0  0  0  0  0  0  0  0  0  0  0  0
   29.6097  -20.7168  -10.8497 C   0  0  0  0  0  0  0  0  0  0  0  0
   28.3979  -21.1466  -10.4116 C   0  0  0  0  0  0  0  0  0  0  0  0
   27.2496  -20.9481  -11.1840 C   0  0  0  0  0  0  0  0  0  0  0  0
   27.3388  -20.3130  -12.3995 C   0  0  0  0  0  0  0  0  0  0  0  0
   26.1523  -20.0936  -13.2283 C   0  0  0  0  0  0  0  0  0  0  0  0
   25.6365  -21.3891  -13.8551 C   0  0  2  0  0  0  0  0  0  0  0  0
   26.6441  -21.8174  -14.8028 N   0  0  0  0  0  0  0  0  0  0  0  0
   24.3857  -21.0793  -14.5704 C   0  0  0  0  0  0  0  0  0  0  0  0
   24.4493  -20.5708  -15.7129 O   0  0  0  0  0  0  0  0  0  0  0  0
   28.5650  -19.8831  -12.8332 C   0  0  0  0  0  0  0  0  0  0  0  0
   29.7022  -20.0812  -12.0654 C   0  0  0  0  0  0  0  0  0  0  0  0
   21.4676  -22.3126  -17.8741 N   0  0  0  0  0  0  0  0  0  0  0  0
   22.2311  -23.3706  -17.3290 C   0  0  0  0  0  0  0  0  0  0  0  0
   22.9086  -24.1012  -18.0853 O   0  0  0  0  0  0  0  0  0  0  0  0
   22.2297  -23.6152  -15.8610 C   0  0  0  0  0  0  0  0  0  0  0  0
   21.3136  -22.6406  -15.1451 C   0  0  0  0  0  0  0  0  0  0  0  0
   21.9592  -21.3323  -14.8856 C   0  0  2  0  0  0  0  0  0  0  0  0
   23.0963  -21.3156  -14.0573 N   0  0  0  0  0  0  0  0  0  0  0  0
   20.8770  -20.3939  -14.4041 C   0  0  0  0  0  0  0  0  0  0  0  0
   20.7199  -20.2202  -13.1652 O   0  0  0  0  0  0  0  0  0  0  0  0
   18.5492  -15.2620  -17.4504 N   0  0  0  0  0  0  0  0  0  0  0  0
   18.6251  -15.1494  -16.0408 C   0  0  0  0  0  0  0  0  0  0  0  0
   18.5700  -13.9642  -15.5630 O   0  0  0  0  0  0  0  0  0  0  0  0
   18.7531  -16.2870  -15.1187 C   0  0  0  0  0  0  0  0  0  0  0  0
   18.8131  -17.6350  -15.6946 C   0  0  0  0  0  0  0  0  0  0  0  0
   18.9827  -18.7819  -14.7877 C   0  0  2  0  0  0  0  0  0  0  0  0
   20.0228  -19.6943  -15.2911 N   0  0  0  0  0  0  0  0  0  0  0  0
   17.8125  -19.5523  -14.4649 C   0  0  0  0  0  0  0  0  0  0  0  0
   17.4870  -20.6560  -15.0082 O   0  0  0  0  0  0  0  0  0  0  0  0
   16.9000  -19.1154  -13.4750 O   0  0  0  0  0  0  0  0  0  0  0  0
  2  1  1  0
  3  2  2  0
  4  3  1  0
  5 11  1  0
  5  4  2  0
  6  5  1  0
  7  6  1  0
  7  8  1  6
  9  7  1  0
  9 10  2  0
 11 12  2  0
 12  2  1  0
 13 14  1  0
 14 15  2  0
 16 17  1  0
 16 14  1  0
 18 19  1  0
 18 17  1  1
 19  9  1  0
 20 18  1  0
 21 20  2  0
 23 22  1  0
 23 24  2  0
 25 23  1  0
 26 25  1  0
 27 26  1  6
 27 28  1  0
 28 20  1  0
 29 27  1  0
 29 31  1  0
 30 29  2  0
M  END
$$$$
