YQQ.pdb
     RDKit          3D

 31 31  0  0  1  0  0  0  0  0999 V2000
   30.5547  -16.7273  -19.8324 O   0  0  0  0  0  0  0  0  0  0  0  0
   29.6140  -17.4024  -19.0499 C   0  0  0  0  0  0  0  0  0  0  0  0
   29.5805  -17.1574  -17.7143 C   0  0  0  0  0  0  0  0  0  0  0  0
   28.6561  -17.8099  -16.8932 C   0  0  0  0  0  0  0  0  0  0  0  0
   27.7689  -18.7093  -17.4344 C   0  0  0  0  0  0  0  0  0  0  0  0
   26.7918  -19.4068  -16.5969 C   0  0  0  0  0  0  0  0  0  0  0  0
   27.4144  -20.5745  -15.8314 C   0  0  2  0  0  0  0  0  0  0  0  0
   27.6283  -21.6322  -16.7969 N   0  0  0  0  0  0  0  0  0  0  0  0
   26.4423  -21.0208  -14.8173 C   0  0  0  0  0  0  0  0  0  0  0  0
   25.5085  -21.7796  -15.1636 O   0  0  0  0  0  0  0  0  0  0  0  0
   27.8101  -18.9500  -18.7824 C   0  0  0  0  0  0  0  0  0  0  0  0
   28.7279  -18.3018  -19.5943 C   0  0  0  0  0  0  0  0  0  0  0  0
   25.8318  -19.9760   -8.4757 N   0  0  0  0  0  0  0  0  0  0  0  0
   24.6894  -20.7220   -8.8469 C   0  0  0  0  0  0  0  0  0  0  0  0
   23.8419  -21.0322   -7.9806 O   0  0  0  0  0  0  0  0  0  0  0  0
   24.4945  -21.1371  -10.2627 C   0  0  0  0  0  0  0  0  0  0  0  0
   25.6582  -20.6921  -11.1282 C   0  0  0  0  0  0  0  0  0  0  0  0
   25.4589  -21.0064  -12.5626 C   0  0  2  0  0  0  0  0  0  0  0  0
   26.4830  -20.6515  -13.4595 N   0  0  0  0  0  0  0  0  0  0  0  0
   24.1176  -20.4336  -12.9577 C   0  0  0  0  0  0  0  0  0  0  0  0
   24.0696  -19.2948  -13.4968 O   0  0  0  0  0  0  0  0  0  0  0  0
   22.3166  -21.1137  -17.8679 N   0  0  0  0  0  0  0  0  0  0  0  0
   22.0389  -19.8799  -17.2305 C   0  0  0  0  0  0  0  0  0  0  0  0
   21.9856  -18.8502  -17.9875 O   0  0  0  0  0  0  0  0  0  0  0  0
   21.8073  -19.7198  -15.7879 C   0  0  0  0  0  0  0  0  0  0  0  0
   21.8952  -20.9145  -14.9409 C   0  0  0  0  0  0  0  0  0  0  0  0
   21.6811  -20.7686  -13.4919 C   0  0  2  0  0  0  0  0  0  0  0  0
   22.8999  -21.1255  -12.7470 N   0  0  0  0  0  0  0  0  0  0  0  0
   20.5665  -21.4670  -12.9114 C   0  0  0  0  0  0  0  0  0  0  0  0
   20.6531  -22.4702  -12.1333 O   0  0  0  0  0  0  0  0  0  0  0  0
   19.2349  -21.0683  -13.1783 O   0  0  0  0  0  0  0  0  0  0  0  0
  2  1  1  0
  3  2  2  0
  4  3  1  0
  5 11  1  0
  5  4  2  0
  6  5  1  0
  7  6  1  0
  7  8  1  6
  9  7  1  0
  9 10  2  0
 11 12  2  0
 12  2  1  0
 13 14  1  0
 14 15  2  0
 16 17  1  0
 16 14  1  0
 18 19  1  0
 18 17  1  1
 19  9  1  0
 20 18  1  0
 21 20  2  0
 23 22  1  0
 23 24  2  0
 25 23  1  0
 26 25  1  0
 27 26  1  6
 27 28  1  0
 28 20  1  0
 29 27  1  0
 29 31  1  0
 30 29  2  0
M  END
$$$$
