YQQ.pdb
     RDKit          3D

 31 31  0  0  1  0  0  0  0  0999 V2000
   28.4146  -20.3337   -3.8503 O   0  0  0  0  0  0  0  0  0  0  0  0
   27.9932  -20.4762   -5.1751 C   0  0  0  0  0  0  0  0  0  0  0  0
   28.9009  -20.3020   -6.1705 C   0  0  0  0  0  0  0  0  0  0  0  0
   28.5238  -20.4351   -7.5101 C   0  0  0  0  0  0  0  0  0  0  0  0
   27.2240  -20.7451   -7.8319 C   0  0  0  0  0  0  0  0  0  0  0  0
   26.8027  -20.8890   -9.2263 C   0  0  0  0  0  0  0  0  0  0  0  0
   26.4291  -19.5485   -9.8594 C   0  0  2  0  0  0  0  0  0  0  0  0
   25.1686  -19.1511   -9.2678 N   0  0  0  0  0  0  0  0  0  0  0  0
   26.2490  -19.7655  -11.3060 C   0  0  0  0  0  0  0  0  0  0  0  0
   25.1215  -20.1024  -11.7340 O   0  0  0  0  0  0  0  0  0  0  0  0
   26.3155  -20.9188   -6.8214 C   0  0  0  0  0  0  0  0  0  0  0  0
   26.6921  -20.7862   -5.4939 C   0  0  0  0  0  0  0  0  0  0  0  0
   29.4213  -19.6786  -16.7508 N   0  0  0  0  0  0  0  0  0  0  0  0
   28.1447  -19.0710  -16.7770 C   0  0  0  0  0  0  0  0  0  0  0  0
   27.3449  -19.3463  -17.6987 O   0  0  0  0  0  0  0  0  0  0  0  0
   27.7528  -18.1073  -15.7129 C   0  0  0  0  0  0  0  0  0  0  0  0
   28.1586  -18.6125  -14.3412 C   0  0  0  0  0  0  0  0  0  0  0  0
   27.0100  -19.1205  -13.5545 C   0  0  2  0  0  0  0  0  0  0  0  0
   27.2690  -19.6205  -12.2653 N   0  0  0  0  0  0  0  0  0  0  0  0
   26.2830  -20.1165  -14.4278 C   0  0  0  0  0  0  0  0  0  0  0  0
   26.6602  -21.3196  -14.4341 O   0  0  0  0  0  0  0  0  0  0  0  0
   21.9803  -23.1118  -12.9868 N   0  0  0  0  0  0  0  0  0  0  0  0
   21.5788  -21.8373  -13.4557 C   0  0  0  0  0  0  0  0  0  0  0  0
   20.4847  -21.3768  -12.9792 O   0  0  0  0  0  0  0  0  0  0  0  0
   22.3310  -21.0310  -14.4276 C   0  0  0  0  0  0  0  0  0  0  0  0
   23.6066  -21.5623  -14.9205 C   0  0  0  0  0  0  0  0  0  0  0  0
   24.3609  -20.7779  -15.9118 C   0  0  2  0  0  0  0  0  0  0  0  0
   25.1861  -19.7553  -15.2477 N   0  0  0  0  0  0  0  0  0  0  0  0
   23.6156  -20.1514  -16.9697 C   0  0  0  0  0  0  0  0  0  0  0  0
   23.2004  -18.9485  -16.9628 O   0  0  0  0  0  0  0  0  0  0  0  0
   23.2767  -20.8627  -18.1454 O   0  0  0  0  0  0  0  0  0  0  0  0
  2  1  1  0
  3  2  2  0
  4  3  1  0
  5 11  1  0
  5  4  2  0
  6  5  1  0
  7  6  1  0
  7  8  1  1
  9  7  1  0
  9 10  2  0
 11 12  2  0
 12  2  1  0
 13 14  1  0
 14 15  2  0
 16 17  1  0
 16 14  1  0
 18 19  1  0
 18 17  1  6
 19  9  1  0
 20 18  1  0
 21 20  2  0
 23 22  1  0
 23 24  2  0
 25 23  1  0
 26 25  1  0
 27 26  1  1
 27 28  1  0
 28 20  1  0
 29 27  1  0
 29 31  1  0
 30 29  2  0
M  END
$$$$
