SVS.pdb
     RDKit          3D

 20 19  0  0  1  0  0  0  0  0999 V2000
   16.4481  -12.6232  -14.2761 O   0  0  0  0  0  0  0  0  0  0  0  0
   17.6369  -11.9583  -14.5580 C   0  0  0  0  0  0  0  0  0  0  0  0
   17.9499  -12.0266  -16.0348 C   0  0  2  0  0  0  0  0  0  0  0  0
   18.2790  -13.3763  -16.3961 N   0  0  0  0  0  0  0  0  0  0  0  0
   19.0902  -11.1255  -16.3837 C   0  0  0  0  0  0  0  0  0  0  0  0
   20.2424  -11.5841  -16.4227 O   0  0  0  0  0  0  0  0  0  0  0  0
   18.7031   -7.5774  -18.8794 C   0  0  0  0  0  0  0  0  0  0  0  0
   19.9178   -8.2931  -18.4009 C   0  0  2  0  0  0  0  0  0  0  0  0
   20.3260   -9.4100  -19.3670 C   0  0  0  0  0  0  0  0  0  0  0  0
   19.8837   -8.7853  -16.9850 C   0  0  2  0  0  0  0  0  0  0  0  0
   18.8952   -9.7470  -16.6750 N   0  0  0  0  0  0  0  0  0  0  0  0
   19.9869   -7.6379  -16.0398 C   0  0  0  0  0  0  0  0  0  0  0  0
   18.9206   -7.0550  -15.6510 O   0  0  0  0  0  0  0  0  0  0  0  0
   22.4728   -4.8481  -12.9041 O   0  0  0  0  0  0  0  0  0  0  0  0
   22.4392   -5.9555  -13.7482 C   0  0  0  0  0  0  0  0  0  0  0  0
   21.2021   -5.9569  -14.6151 C   0  0  2  0  0  0  0  0  0  0  0  0
   21.1877   -7.1085  -15.5141 N   0  0  0  0  0  0  0  0  0  0  0  0
   21.1733   -4.7341  -15.4286 C   0  0  0  0  0  0  0  0  0  0  0  0
   20.4448   -3.6426  -15.0230 O   0  0  0  0  0  0  0  0  0  0  0  0
   21.8153   -4.6870  -16.4956 O   0  0  0  0  0  0  0  0  0  0  0  0
  2  3  1  0
  2  1  1  0
  3  4  1  1
  5  3  1  0
  5  6  2  0
  8  7  1  6
  8 10  1  0
  9  8  1  0
 10 11  1  1
 10 12  1  0
 11  5  1  0
 12 13  2  0
 12 17  1  0
 14 15  1  0
 16 15  1  6
 16 18  1  0
 17 16  1  0
 18 20  2  0
 18 19  1  0
M  END
$$$$
