SVS.pdb
     RDKit          3D

 20 19  0  0  1  0  0  0  0  0999 V2000
   14.3015  -13.0783  -11.3182 O   0  0  0  0  0  0  0  0  0  0  0  0
   14.1820  -11.7132  -11.5569 C   0  0  0  0  0  0  0  0  0  0  0  0
   13.8355  -10.9766  -10.2838 C   0  0  2  0  0  0  0  0  0  0  0  0
   12.5330  -11.3785   -9.8334 N   0  0  0  0  0  0  0  0  0  0  0  0
   13.8540   -9.4975  -10.4978 C   0  0  0  0  0  0  0  0  0  0  0  0
   12.8351   -8.9274  -10.9178 O   0  0  0  0  0  0  0  0  0  0  0  0
   16.3017   -6.9049   -8.1007 C   0  0  0  0  0  0  0  0  0  0  0  0
   15.1845   -6.5606   -9.0227 C   0  0  2  0  0  0  0  0  0  0  0  0
   13.8315   -6.6111   -8.3056 C   0  0  0  0  0  0  0  0  0  0  0  0
   15.1397   -7.3104  -10.3203 C   0  0  2  0  0  0  0  0  0  0  0  0
   15.0123   -8.7155  -10.2330 N   0  0  0  0  0  0  0  0  0  0  0  0
   16.2048   -6.8147  -11.2370 C   0  0  0  0  0  0  0  0  0  0  0  0
   17.3963   -7.2494  -11.0982 O   0  0  0  0  0  0  0  0  0  0  0  0
   17.6890   -5.0985  -15.4719 O   0  0  0  0  0  0  0  0  0  0  0  0
   16.6737   -5.5205  -14.6169 C   0  0  0  0  0  0  0  0  0  0  0  0
   17.1133   -5.4870  -13.1720 C   0  0  2  0  0  0  0  0  0  0  0  0
   16.0245   -5.8764  -12.2790 N   0  0  0  0  0  0  0  0  0  0  0  0
   17.5357   -4.1247  -12.8206 C   0  0  0  0  0  0  0  0  0  0  0  0
   18.8415   -3.7334  -12.9885 O   0  0  0  0  0  0  0  0  0  0  0  0
   16.7020   -3.3175  -12.3663 O   0  0  0  0  0  0  0  0  0  0  0  0
  2  3  1  0
  2  1  1  0
  3  4  1  6
  5  3  1  0
  5  6  2  0
  8  7  1  1
  8 10  1  0
  9  8  1  0
 10 11  1  1
 10 12  1  0
 11  5  1  0
 12 13  2  0
 12 17  1  0
 14 15  1  0
 16 15  1  6
 16 18  1  0
 17 16  1  0
 18 20  2  0
 18 19  1  0
M  END
$$$$
