SVS.pdb
     RDKit          3D

 20 19  0  0  1  0  0  0  0  0999 V2000
   22.4246  -12.6470  -20.7660 O   0  0  0  0  0  0  0  0  0  0  0  0
   23.7561  -12.8460  -21.1155 C   0  0  0  0  0  0  0  0  0  0  0  0
   24.4940  -13.5739  -20.0159 C   0  0  2  0  0  0  0  0  0  0  0  0
   23.9145  -14.8732  -19.8243 N   0  0  0  0  0  0  0  0  0  0  0  0
   24.4361  -12.8087  -18.7333 C   0  0  0  0  0  0  0  0  0  0  0  0
   23.6393  -13.1574  -17.8484 O   0  0  0  0  0  0  0  0  0  0  0  0
   27.3214  -11.9470  -16.2748 C   0  0  0  0  0  0  0  0  0  0  0  0
   26.6197  -10.6929  -16.6645 C   0  0  2  0  0  0  0  0  0  0  0  0
   26.5212   -9.7179  -15.4868 C   0  0  0  0  0  0  0  0  0  0  0  0
   25.2940  -10.8581  -17.3452 C   0  0  2  0  0  0  0  0  0  0  0  0
   25.2724  -11.6837  -18.4924 N   0  0  0  0  0  0  0  0  0  0  0  0
   24.6221   -9.5358  -17.4888 C   0  0  0  0  0  0  0  0  0  0  0  0
   25.0379   -8.7205  -18.3779 O   0  0  0  0  0  0  0  0  0  0  0  0
   20.6489   -8.7907  -16.6699 O   0  0  0  0  0  0  0  0  0  0  0  0
   21.5073   -7.7620  -16.2892 C   0  0  0  0  0  0  0  0  0  0  0  0
   22.8253   -7.8367  -17.0237 C   0  0  2  0  0  0  0  0  0  0  0  0
   23.5353   -9.0746  -16.7112 N   0  0  0  0  0  0  0  0  0  0  0  0
   23.6719   -6.7041  -16.6257 C   0  0  0  0  0  0  0  0  0  0  0  0
   23.4429   -5.4487  -17.1336 O   0  0  0  0  0  0  0  0  0  0  0  0
   24.6058   -6.8843  -15.8204 O   0  0  0  0  0  0  0  0  0  0  0  0
  2  3  1  0
  2  1  1  0
  3  4  1  1
  5  3  1  0
  5  6  2  0
  8  7  1  1
  8 10  1  0
  9  8  1  0
 10 11  1  6
 10 12  1  0
 11  5  1  0
 12 13  2  0
 12 17  1  0
 14 15  1  0
 16 15  1  1
 16 18  1  0
 17 16  1  0
 18 20  2  0
 18 19  1  0
M  END
$$$$
