SVS.pdb
     RDKit          3D

 20 19  0  0  1  0  0  0  0  0999 V2000
   26.9988  -12.2876  -17.0009 O   0  0  0  0  0  0  0  0  0  0  0  0
   25.9567  -11.3717  -17.0989 C   0  0  0  0  0  0  0  0  0  0  0  0
   24.6345  -12.0307  -16.7809 C   0  0  2  0  0  0  0  0  0  0  0  0
   24.3639  -13.0588  -17.7455 N   0  0  0  0  0  0  0  0  0  0  0  0
   23.5217  -11.0331  -16.7908 C   0  0  0  0  0  0  0  0  0  0  0  0
   22.9414  -10.7746  -17.8566 O   0  0  0  0  0  0  0  0  0  0  0  0
   20.1773  -11.1836  -15.1991 C   0  0  0  0  0  0  0  0  0  0  0  0
   20.8399   -9.9528  -14.6863 C   0  0  2  0  0  0  0  0  0  0  0  0
   19.8263   -8.8284  -14.4509 C   0  0  0  0  0  0  0  0  0  0  0  0
   22.0237   -9.4626  -15.4651 C   0  0  2  0  0  0  0  0  0  0  0  0
   23.1028  -10.3646  -15.6073 N   0  0  0  0  0  0  0  0  0  0  0  0
   22.3876   -8.0838  -15.0329 C   0  0  0  0  0  0  0  0  0  0  0  0
   23.0959   -7.9280  -13.9831 O   0  0  0  0  0  0  0  0  0  0  0  0
   22.5607   -3.2478  -15.8131 O   0  0  0  0  0  0  0  0  0  0  0  0
   22.0986   -4.4965  -16.2218 C   0  0  0  0  0  0  0  0  0  0  0  0
   22.4616   -5.5762  -15.2295 C   0  0  2  0  0  0  0  0  0  0  0  0
   22.0124   -6.8886  -15.6881 N   0  0  0  0  0  0  0  0  0  0  0  0
   21.8188   -5.2914  -13.9397 C   0  0  0  0  0  0  0  0  0  0  0  0
   22.4953   -4.6095  -12.9579 O   0  0  0  0  0  0  0  0  0  0  0  0
   20.6499   -5.6718  -13.7349 O   0  0  0  0  0  0  0  0  0  0  0  0
  2  3  1  0
  2  1  1  0
  3  4  1  6
  5  3  1  0
  5  6  2  0
  8  7  1  6
  8 10  1  0
  9  8  1  0
 10 11  1  1
 10 12  1  0
 11  5  1  0
 12 13  2  0
 12 17  1  0
 14 15  1  0
 16 15  1  6
 16 18  1  0
 17 16  1  0
 18 20  2  0
 18 19  1  0
M  END
$$$$
