SVS.pdb
     RDKit          3D

 20 19  0  0  1  0  0  0  0  0999 V2000
   22.5481  -13.1745  -18.6363 O   0  0  0  0  0  0  0  0  0  0  0  0
   22.0045  -11.9125  -18.4211 C   0  0  0  0  0  0  0  0  0  0  0  0
   20.6388  -12.0207  -17.7834 C   0  0  2  0  0  0  0  0  0  0  0  0
   19.7315  -12.6617  -18.6925 N   0  0  0  0  0  0  0  0  0  0  0  0
   20.1085  -10.6717  -17.4189 C   0  0  0  0  0  0  0  0  0  0  0  0
   19.5535   -9.9781  -18.2851 O   0  0  0  0  0  0  0  0  0  0  0  0
   17.3386   -9.4889  -15.3297 C   0  0  0  0  0  0  0  0  0  0  0  0
   18.5716   -8.8855  -14.7531 C   0  0  2  0  0  0  0  0  0  0  0  0
   18.2998   -7.4863  -14.1914 C   0  0  0  0  0  0  0  0  0  0  0  0
   19.7868   -8.8916  -15.6313 C   0  0  2  0  0  0  0  0  0  0  0  0
   20.2207  -10.1529  -16.0992 N   0  0  0  0  0  0  0  0  0  0  0  0
   20.8458   -8.0200  -15.0488 C   0  0  0  0  0  0  0  0  0  0  0  0
   21.5177   -8.4415  -14.0493 O   0  0  0  0  0  0  0  0  0  0  0  0
   23.1025   -5.3901  -17.1201 O   0  0  0  0  0  0  0  0  0  0  0  0
   22.7654   -4.8816  -15.8681 C   0  0  0  0  0  0  0  0  0  0  0  0
   22.3037   -5.9724  -14.9304 C   0  0  2  0  0  0  0  0  0  0  0  0
   21.1921   -6.7272  -15.5040 N   0  0  0  0  0  0  0  0  0  0  0  0
   21.8535   -5.3733  -13.6670 C   0  0  0  0  0  0  0  0  0  0  0  0
   22.7597   -5.0413  -12.6897 O   0  0  0  0  0  0  0  0  0  0  0  0
   20.6391   -5.1646  -13.4806 O   0  0  0  0  0  0  0  0  0  0  0  0
  2  3  1  0
  2  1  1  0
  3  4  1  6
  5  3  1  0
  5  6  2  0
  8  7  1  6
  8 10  1  0
  9  8  1  0
 10 11  1  1
 10 12  1  0
 11  5  1  0
 12 13  2  0
 12 17  1  0
 14 15  1  0
 16 15  1  6
 16 18  1  0
 17 16  1  0
 18 20  2  0
 18 19  1  0
M  END
$$$$
