SVS.pdb
     RDKit          3D

 20 19  0  0  1  0  0  0  0  0999 V2000
   27.4507  -13.8438  -15.5852 O   0  0  0  0  0  0  0  0  0  0  0  0
   26.5264  -14.7049  -15.0031 C   0  0  0  0  0  0  0  0  0  0  0  0
   25.8476  -15.5506  -16.0556 C   0  0  2  0  0  0  0  0  0  0  0  0
   24.9435  -14.7373  -16.8184 N   0  0  0  0  0  0  0  0  0  0  0  0
   25.0950  -16.6813  -15.4319 C   0  0  0  0  0  0  0  0  0  0  0  0
   23.9054  -16.5239  -15.1163 O   0  0  0  0  0  0  0  0  0  0  0  0
   23.8237  -19.6774  -16.8013 C   0  0  0  0  0  0  0  0  0  0  0  0
   24.6849  -20.1463  -15.6808 C   0  0  2  0  0  0  0  0  0  0  0  0
   24.0887  -21.3800  -14.9954 C   0  0  0  0  0  0  0  0  0  0  0  0
   25.0900  -19.1096  -14.6763 C   0  0  2  0  0  0  0  0  0  0  0  0
   25.7040  -17.9430  -15.1863 N   0  0  0  0  0  0  0  0  0  0  0  0
   25.7834  -19.7533  -13.5250 C   0  0  0  0  0  0  0  0  0  0  0  0
   26.9687  -20.1983  -13.6830 O   0  0  0  0  0  0  0  0  0  0  0  0
   25.5168  -19.1362   -9.3926 O   0  0  0  0  0  0  0  0  0  0  0  0
   25.3182  -20.4422   -9.8340 C   0  0  0  0  0  0  0  0  0  0  0  0
   25.9460  -20.6732  -11.1885 C   0  0  2  0  0  0  0  0  0  0  0  0
   25.2419  -19.9307  -12.2312 N   0  0  0  0  0  0  0  0  0  0  0  0
   25.8863  -22.1035  -11.5178 C   0  0  0  0  0  0  0  0  0  0  0  0
   26.6393  -23.0135  -10.8167 O   0  0  0  0  0  0  0  0  0  0  0  0
   25.1462  -22.4942  -12.4412 O   0  0  0  0  0  0  0  0  0  0  0  0
  2  3  1  0
  2  1  1  0
  3  4  1  1
  5  3  1  0
  5  6  2  0
  8  7  1  6
  8 10  1  0
  9  8  1  0
 10 11  1  6
 10 12  1  0
 11  5  1  0
 12 13  2  0
 12 17  1  0
 14 15  1  0
 16 15  1  1
 16 18  1  0
 17 16  1  0
 18 20  2  0
 18 19  1  0
M  END
$$$$
