SVS.pdb
     RDKit          3D

 20 19  0  0  1  0  0  0  0  0999 V2000
   20.2586  -12.8527  -19.6174 O   0  0  0  0  0  0  0  0  0  0  0  0
   20.7116  -11.9660  -18.6463 C   0  0  0  0  0  0  0  0  0  0  0  0
   21.8539  -12.5698  -17.8626 C   0  0  2  0  0  0  0  0  0  0  0  0
   21.4042  -13.7566  -17.1918 N   0  0  0  0  0  0  0  0  0  0  0  0
   22.3859  -11.6006  -16.8568 C   0  0  0  0  0  0  0  0  0  0  0  0
   21.7982  -11.4590  -15.7733 O   0  0  0  0  0  0  0  0  0  0  0  0
   26.2796  -11.2704  -15.9123 C   0  0  0  0  0  0  0  0  0  0  0  0
   25.6668   -9.9371  -16.1649 C   0  0  2  0  0  0  0  0  0  0  0  0
   26.2042   -8.8814  -15.1934 C   0  0  0  0  0  0  0  0  0  0  0  0
   24.1698   -9.8974  -16.2365 C   0  0  2  0  0  0  0  0  0  0  0  0
   23.5547  -10.8286  -17.1041 N   0  0  0  0  0  0  0  0  0  0  0  0
   23.6987   -8.4893  -16.3622 C   0  0  0  0  0  0  0  0  0  0  0  0
   23.8377   -7.8845  -17.4771 O   0  0  0  0  0  0  0  0  0  0  0  0
   20.3490   -7.3082  -15.0640 O   0  0  0  0  0  0  0  0  0  0  0  0
   21.2114   -6.2375  -14.8409 C   0  0  0  0  0  0  0  0  0  0  0  0
   22.5155   -6.4093  -15.5837 C   0  0  2  0  0  0  0  0  0  0  0  0
   23.0956   -7.7271  -15.3356 N   0  0  0  0  0  0  0  0  0  0  0  0
   23.4727   -5.3899  -15.1339 C   0  0  0  0  0  0  0  0  0  0  0  0
   23.2247   -4.0561  -15.3485 O   0  0  0  0  0  0  0  0  0  0  0  0
   24.5186   -5.7384  -14.5528 O   0  0  0  0  0  0  0  0  0  0  0  0
  2  3  1  0
  2  1  1  0
  3  4  1  1
  5  3  1  0
  5  6  2  0
  8  7  1  1
  8 10  1  0
  9  8  1  0
 10 11  1  6
 10 12  1  0
 11  5  1  0
 12 13  2  0
 12 17  1  0
 14 15  1  0
 16 15  1  1
 16 18  1  0
 17 16  1  0
 18 20  2  0
 18 19  1  0
M  END
$$$$
