SVS.pdb
     RDKit          3D

 20 19  0  0  1  0  0  0  0  0999 V2000
    9.7535  -11.3840  -12.0553 O   0  0  0  0  0  0  0  0  0  0  0  0
   10.8369  -10.8245  -11.3862 C   0  0  0  0  0  0  0  0  0  0  0  0
   12.0253  -11.7573  -11.4197 C   0  0  2  0  0  0  0  0  0  0  0  0
   11.7093  -12.9664  -10.7133 N   0  0  0  0  0  0  0  0  0  0  0  0
   13.2265  -11.1185  -10.8010 C   0  0  0  0  0  0  0  0  0  0  0  0
   13.3895  -11.1836   -9.5727 O   0  0  0  0  0  0  0  0  0  0  0  0
   16.9306  -11.5485  -12.1623 C   0  0  0  0  0  0  0  0  0  0  0  0
   16.6314  -10.1113  -11.9133 C   0  0  2  0  0  0  0  0  0  0  0  0
   17.8431   -9.3814  -11.3249 C   0  0  0  0  0  0  0  0  0  0  0  0
   15.3874   -9.8184  -11.1293 C   0  0  2  0  0  0  0  0  0  0  0  0
   14.1972  -10.4322  -11.5819 N   0  0  0  0  0  0  0  0  0  0  0  0
   15.2925   -8.3592  -10.8428 C   0  0  0  0  0  0  0  0  0  0  0  0
   14.8740   -7.5723  -11.7559 O   0  0  0  0  0  0  0  0  0  0  0  0
   14.5381   -6.6206   -7.1359 O   0  0  0  0  0  0  0  0  0  0  0  0
   15.5142   -5.9893   -7.9031 C   0  0  0  0  0  0  0  0  0  0  0  0
   15.3694   -6.3204   -9.3699 C   0  0  2  0  0  0  0  0  0  0  0  0
   15.6340   -7.7350   -9.6212 N   0  0  0  0  0  0  0  0  0  0  0  0
   16.3281   -5.5246  -10.1480 C   0  0  0  0  0  0  0  0  0  0  0  0
   16.0475   -4.2215  -10.4792 O   0  0  0  0  0  0  0  0  0  0  0  0
   17.4049   -6.0364  -10.5105 O   0  0  0  0  0  0  0  0  0  0  0  0
  2  3  1  0
  2  1  1  0
  3  4  1  1
  5  3  1  0
  5  6  2  0
  8  7  1  1
  8 10  1  0
  9  8  1  0
 10 11  1  6
 10 12  1  0
 11  5  1  0
 12 13  2  0
 12 17  1  0
 14 15  1  0
 16 15  1  1
 16 18  1  0
 17 16  1  0
 18 20  2  0
 18 19  1  0
M  END
$$$$
