SVS.pdb
     RDKit          3D

 20 19  0  0  1  0  0  0  0  0999 V2000
   18.3218   -9.5858  -18.2126 O   0  0  0  0  0  0  0  0  0  0  0  0
   17.7642  -10.8195  -17.8938 C   0  0  0  0  0  0  0  0  0  0  0  0
   18.8418  -11.8156  -17.5330 C   0  0  2  0  0  0  0  0  0  0  0  0
   18.2400  -13.0695  -17.1777 N   0  0  0  0  0  0  0  0  0  0  0  0
   19.6704  -11.3199  -16.3922 C   0  0  0  0  0  0  0  0  0  0  0  0
   19.2273  -11.3963  -15.2358 O   0  0  0  0  0  0  0  0  0  0  0  0
   23.0347  -12.3167  -15.0033 C   0  0  0  0  0  0  0  0  0  0  0  0
   23.1138  -10.8756  -15.3691 C   0  0  2  0  0  0  0  0  0  0  0  0
   23.9787  -10.0929  -14.3758 C   0  0  0  0  0  0  0  0  0  0  0  0
   21.8083  -10.1812  -15.6174 C   0  0  2  0  0  0  0  0  0  0  0  0
   20.9619  -10.7583  -16.5914 N   0  0  0  0  0  0  0  0  0  0  0  0
   22.0232   -8.7115  -15.7381 C   0  0  0  0  0  0  0  0  0  0  0  0
   22.6611   -8.2572  -16.7453 O   0  0  0  0  0  0  0  0  0  0  0  0
   19.3873   -5.9749  -14.7119 O   0  0  0  0  0  0  0  0  0  0  0  0
   20.4551   -5.6863  -15.5583 C   0  0  0  0  0  0  0  0  0  0  0  0
   21.7411   -6.3042  -15.0620 C   0  0  2  0  0  0  0  0  0  0  0  0
   21.5800   -7.7353  -14.8166 N   0  0  0  0  0  0  0  0  0  0  0  0
   22.1392   -5.6604  -13.8030 C   0  0  0  0  0  0  0  0  0  0  0  0
   22.0511   -6.3403  -12.6128 O   0  0  0  0  0  0  0  0  0  0  0  0
   22.5604   -4.4876  -13.8153 O   0  0  0  0  0  0  0  0  0  0  0  0
  2  3  1  0
  2  1  1  0
  3  4  1  1
  5  3  1  0
  5  6  2  0
  8  7  1  1
  8 10  1  0
  9  8  1  0
 10 11  1  6
 10 12  1  0
 11  5  1  0
 12 13  2  0
 12 17  1  0
 14 15  1  0
 16 15  1  1
 16 18  1  0
 17 16  1  0
 18 20  2  0
 18 19  1  0
M  END
$$$$
