SVS.pdb
     RDKit          3D

 20 19  0  0  1  0  0  0  0  0999 V2000
   13.4113  -23.9440  -11.3448 O   0  0  0  0  0  0  0  0  0  0  0  0
   14.0862  -24.8263  -10.5077 C   0  0  0  0  0  0  0  0  0  0  0  0
   15.5564  -24.8725  -10.8540 C   0  0  2  0  0  0  0  0  0  0  0  0
   15.7440  -25.6260  -12.0613 N   0  0  0  0  0  0  0  0  0  0  0  0
   16.3482  -25.4954   -9.7500 C   0  0  0  0  0  0  0  0  0  0  0  0
   16.8044  -26.6401   -9.8949 O   0  0  0  0  0  0  0  0  0  0  0  0
   19.4324  -23.7217   -8.3445 C   0  0  0  0  0  0  0  0  0  0  0  0
   18.5880  -24.1655   -7.2013 C   0  0  2  0  0  0  0  0  0  0  0  0
   19.4455  -24.6220   -6.0166 C   0  0  0  0  0  0  0  0  0  0  0  0
   17.5185  -25.1681   -7.5159 C   0  0  2  0  0  0  0  0  0  0  0  0
   16.5979  -24.8120   -8.5277 N   0  0  0  0  0  0  0  0  0  0  0  0
   16.9215  -25.6945   -6.2562 C   0  0  0  0  0  0  0  0  0  0  0  0
   16.0394  -25.0008   -5.6490 O   0  0  0  0  0  0  0  0  0  0  0  0
   16.5153  -29.1485   -2.7973 O   0  0  0  0  0  0  0  0  0  0  0  0
   17.1241  -28.7198   -3.9744 C   0  0  0  0  0  0  0  0  0  0  0  0
   16.6692  -27.3326   -4.3627 C   0  0  2  0  0  0  0  0  0  0  0  0
   17.2463  -26.9255   -5.6416 N   0  0  0  0  0  0  0  0  0  0  0  0
   17.0956  -26.3726   -3.3359 C   0  0  0  0  0  0  0  0  0  0  0  0
   18.4168  -26.0155   -3.2194 O   0  0  0  0  0  0  0  0  0  0  0  0
   16.2513  -25.8781   -2.5641 O   0  0  0  0  0  0  0  0  0  0  0  0
  2  3  1  0
  2  1  1  0
  3  4  1  6
  5  3  1  0
  5  6  2  0
  8  7  1  6
  8 10  1  0
  9  8  1  0
 10 11  1  6
 10 12  1  0
 11  5  1  0
 12 13  2  0
 12 17  1  0
 14 15  1  0
 16 15  1  1
 16 18  1  0
 17 16  1  0
 18 20  2  0
 18 19  1  0
M  END
$$$$
