SVS.pdb
     RDKit          3D

 20 19  0  0  1  0  0  0  0  0999 V2000
   14.7979   -9.9940  -15.2194 O   0  0  0  0  0  0  0  0  0  0  0  0
   16.1331   -9.8431  -14.8598 C   0  0  0  0  0  0  0  0  0  0  0  0
   17.0155  -10.7451  -15.6912 C   0  0  2  0  0  0  0  0  0  0  0  0
   16.7868  -12.1142  -15.3251 N   0  0  0  0  0  0  0  0  0  0  0  0
   18.4593  -10.4118  -15.4955 C   0  0  0  0  0  0  0  0  0  0  0  0
   19.0717  -10.8898  -14.5281 O   0  0  0  0  0  0  0  0  0  0  0  0
   21.6478  -10.9780  -17.4517 C   0  0  0  0  0  0  0  0  0  0  0  0
   21.4648   -9.5084  -17.2976 C   0  0  2  0  0  0  0  0  0  0  0  0
   22.8085   -8.7921  -17.1283 C   0  0  0  0  0  0  0  0  0  0  0  0
   20.4794   -9.0677  -16.2571 C   0  0  2  0  0  0  0  0  0  0  0  0
   19.1598   -9.5566  -16.3905 N   0  0  0  0  0  0  0  0  0  0  0  0
   20.6037   -7.6017  -16.0202 C   0  0  0  0  0  0  0  0  0  0  0  0
   20.0416   -6.7914  -16.8298 O   0  0  0  0  0  0  0  0  0  0  0  0
   21.1067   -5.6739  -12.4364 O   0  0  0  0  0  0  0  0  0  0  0  0
   21.9182   -5.1615  -13.4457 C   0  0  0  0  0  0  0  0  0  0  0  0
   21.4109   -5.5449  -14.8160 C   0  0  2  0  0  0  0  0  0  0  0  0
   21.3082   -6.9956  -14.9550 N   0  0  0  0  0  0  0  0  0  0  0  0
   22.3400   -5.0464  -15.8388 C   0  0  0  0  0  0  0  0  0  0  0  0
   22.3158   -3.7273  -16.2208 O   0  0  0  0  0  0  0  0  0  0  0  0
   23.1570   -5.8272  -16.3642 O   0  0  0  0  0  0  0  0  0  0  0  0
  2  3  1  0
  2  1  1  0
  3  4  1  1
  5  3  1  0
  5  6  2  0
  8  7  1  1
  8 10  1  0
  9  8  1  0
 10 11  1  6
 10 12  1  0
 11  5  1  0
 12 13  2  0
 12 17  1  0
 14 15  1  0
 16 15  1  1
 16 18  1  0
 17 16  1  0
 18 20  2  0
 18 19  1  0
M  END
$$$$
