SVS.pdb
     RDKit          3D

 20 19  0  0  1  0  0  0  0  0999 V2000
   17.2568  -12.7536  -15.3059 O   0  0  0  0  0  0  0  0  0  0  0  0
   18.3807  -11.9341  -15.3071 C   0  0  0  0  0  0  0  0  0  0  0  0
   19.1721  -12.1146  -16.5817 C   0  0  2  0  0  0  0  0  0  0  0  0
   19.7484  -13.4290  -16.6094 N   0  0  0  0  0  0  0  0  0  0  0  0
   20.2574  -11.0926  -16.6886 C   0  0  0  0  0  0  0  0  0  0  0  0
   21.4096  -11.3843  -16.3325 O   0  0  0  0  0  0  0  0  0  0  0  0
   22.1418   -7.1538  -18.9429 C   0  0  0  0  0  0  0  0  0  0  0  0
   21.1432   -8.2437  -18.7642 C   0  0  2  0  0  0  0  0  0  0  0  0
   19.8059   -7.8907  -19.4231 C   0  0  0  0  0  0  0  0  0  0  0  0
   20.9444   -8.7386  -17.3629 C   0  0  2  0  0  0  0  0  0  0  0  0
   20.0096   -9.7847  -17.1899 N   0  0  0  0  0  0  0  0  0  0  0  0
   20.8058   -7.5877  -16.4265 C   0  0  0  0  0  0  0  0  0  0  0  0
   19.6869   -6.9793  -16.3507 O   0  0  0  0  0  0  0  0  0  0  0  0
   22.4023   -4.8540  -12.7102 O   0  0  0  0  0  0  0  0  0  0  0  0
   22.6417   -5.8982  -13.6003 C   0  0  0  0  0  0  0  0  0  0  0  0
   21.6041   -5.9432  -14.6972 C   0  0  2  0  0  0  0  0  0  0  0  0
   21.8240   -7.0811  -15.5868 N   0  0  0  0  0  0  0  0  0  0  0  0
   21.6804   -4.7113  -15.4937 C   0  0  0  0  0  0  0  0  0  0  0  0
   22.7403   -4.4909  -16.3390 O   0  0  0  0  0  0  0  0  0  0  0  0
   20.7758   -3.8592  -15.4014 O   0  0  0  0  0  0  0  0  0  0  0  0
  2  3  1  0
  2  1  1  0
  3  4  1  1
  5  3  1  0
  5  6  2  0
  8  7  1  1
  8 10  1  0
  9  8  1  0
 10 11  1  6
 10 12  1  0
 11  5  1  0
 12 13  2  0
 12 17  1  0
 14 15  1  0
 16 15  1  1
 16 18  1  0
 17 16  1  0
 18 20  2  0
 18 19  1  0
M  END
$$$$
