SVS.pdb
     RDKit          3D

 20 19  0  0  1  0  0  0  0  0999 V2000
   17.6014  -10.8727  -19.8366 O   0  0  0  0  0  0  0  0  0  0  0  0
   17.9611  -10.3297  -18.6076 C   0  0  0  0  0  0  0  0  0  0  0  0
   18.8494  -11.2827  -17.8419 C   0  0  2  0  0  0  0  0  0  0  0  0
   18.1089  -12.4647  -17.5022 N   0  0  0  0  0  0  0  0  0  0  0  0
   19.3701  -10.6456  -16.5942 C   0  0  0  0  0  0  0  0  0  0  0  0
   18.6844  -10.6745  -15.5605 O   0  0  0  0  0  0  0  0  0  0  0  0
   22.5983  -11.3588  -14.6637 C   0  0  0  0  0  0  0  0  0  0  0  0
   22.5640   -9.9084  -14.9982 C   0  0  2  0  0  0  0  0  0  0  0  0
   23.1615   -9.0600  -13.8711 C   0  0  0  0  0  0  0  0  0  0  0  0
   21.2420   -9.3618  -15.4471 C   0  0  2  0  0  0  0  0  0  0  0  0
   20.6376  -10.0015  -16.5534 N   0  0  0  0  0  0  0  0  0  0  0  0
   21.2968   -7.8741  -15.5125 C   0  0  0  0  0  0  0  0  0  0  0  0
   22.0450   -7.3172  -16.3831 O   0  0  0  0  0  0  0  0  0  0  0  0
   19.7048   -3.4317  -14.2729 O   0  0  0  0  0  0  0  0  0  0  0  0
   19.5119   -4.8107  -14.3037 C   0  0  0  0  0  0  0  0  0  0  0  0
   20.7590   -5.5370  -14.7501 C   0  0  2  0  0  0  0  0  0  0  0  0
   20.5821   -6.9854  -14.6770 N   0  0  0  0  0  0  0  0  0  0  0  0
   21.8812   -5.1631  -13.8791 C   0  0  0  0  0  0  0  0  0  0  0  0
   22.0353   -5.7512  -12.6475 O   0  0  0  0  0  0  0  0  0  0  0  0
   22.7002   -4.3050  -14.2612 O   0  0  0  0  0  0  0  0  0  0  0  0
  2  3  1  0
  2  1  1  0
  3  4  1  1
  5  3  1  0
  5  6  2  0
  8  7  1  1
  8 10  1  0
  9  8  1  0
 10 11  1  6
 10 12  1  0
 11  5  1  0
 12 13  2  0
 12 17  1  0
 14 15  1  0
 16 15  1  1
 16 18  1  0
 17 16  1  0
 18 20  2  0
 18 19  1  0
M  END
$$$$
