GNV.pdb
     RDKit          3D

 20 19  0  0  1  0  0  0  0  0999 V2000
    7.3702  -17.8978   19.2405 N   0  0  0  0  0  0  0  0  0  0  0  0
    7.8261  -16.7614   19.9850 C   0  0  0  0  0  0  0  0  0  0  0  0
    7.2293  -16.6248   21.3243 C   0  0  0  0  0  0  0  0  0  0  0  0
    6.0579  -16.1652   21.3798 O   0  0  0  0  0  0  0  0  0  0  0  0
    7.3048  -20.3835   23.6679 N   0  0  0  0  0  0  0  0  0  0  0  0
    6.8041  -19.2212   24.2889 C   0  0  0  0  0  0  0  0  0  0  0  0
    5.5659  -19.2489   24.6017 O   0  0  0  0  0  0  0  0  0  0  0  0
    7.5176  -18.0007   24.6170 C   0  0  0  0  0  0  0  0  0  0  0  0
    7.2062  -16.7833   23.8279 C   0  0  2  0  0  0  0  0  0  0  0  0
    7.8597  -16.9638   22.5271 N   0  0  0  0  0  0  0  0  0  0  0  0
    7.8361  -15.5846   24.4315 C   0  0  0  0  0  0  0  0  0  0  0  0
    9.0591  -15.3501   24.2805 O   0  0  0  0  0  0  0  0  0  0  0  0
    7.4819  -11.0901   26.4675 C   0  0  0  0  0  0  0  0  0  0  0  0
    6.8071  -12.2921   25.8682 C   0  0  2  0  0  0  0  0  0  0  0  0
    5.6488  -12.6676   26.7602 C   0  0  0  0  0  0  0  0  0  0  0  0
    7.7599  -13.4668   25.7653 C   0  0  2  0  0  0  0  0  0  0  0  0
    7.0954  -14.6300   25.2164 N   0  0  0  0  0  0  0  0  0  0  0  0
    8.3363  -13.8226   27.0715 C   0  0  0  0  0  0  0  0  0  0  0  0
    8.0869  -15.0661   27.6209 O   0  0  0  0  0  0  0  0  0  0  0  0
    9.0596  -13.0202   27.7147 O   0  0  0  0  0  0  0  0  0  0  0  0
  2  1  1  0
  3  2  1  0
  4  3  2  0
  6  7  2  0
  6  5  1  0
  8  6  1  0
  9  8  1  1
  9 10  1  0
 10  3  1  0
 11 17  1  0
 11  9  1  0
 12 11  2  0
 14 13  1  1
 14 15  1  0
 16 14  1  0
 16 17  1  1
 18 16  1  0
 18 19  1  0
 20 18  2  0
M  END
$$$$
