GNV.pdb
     RDKit          3D

 20 19  0  0  1  0  0  0  0  0999 V2000
    7.5717  -15.9018   18.8251 N   0  0  0  0  0  0  0  0  0  0  0  0
    8.3994  -15.9545   19.9937 C   0  0  0  0  0  0  0  0  0  0  0  0
    7.6648  -15.9114   21.2692 C   0  0  0  0  0  0  0  0  0  0  0  0
    6.4781  -15.4913   21.2272 O   0  0  0  0  0  0  0  0  0  0  0  0
    5.9931  -19.6200   24.6462 N   0  0  0  0  0  0  0  0  0  0  0  0
    6.5948  -18.5788   23.9105 C   0  0  0  0  0  0  0  0  0  0  0  0
    6.3238  -18.5528   22.6625 O   0  0  0  0  0  0  0  0  0  0  0  0
    7.4805  -17.5350   24.3927 C   0  0  0  0  0  0  0  0  0  0  0  0
    7.3957  -16.2020   23.7465 C   0  0  2  0  0  0  0  0  0  0  0  0
    8.1811  -16.2982   22.5113 N   0  0  0  0  0  0  0  0  0  0  0  0
    8.0677  -15.1692   24.5710 C   0  0  0  0  0  0  0  0  0  0  0  0
    9.3188  -15.0884   24.6148 O   0  0  0  0  0  0  0  0  0  0  0  0
    5.9162  -12.3248   27.0937 C   0  0  0  0  0  0  0  0  0  0  0  0
    7.2463  -12.0286   26.4593 C   0  0  2  0  0  0  0  0  0  0  0  0
    6.9888  -11.3596   25.1309 C   0  0  0  0  0  0  0  0  0  0  0  0
    8.0456  -13.2969   26.2334 C   0  0  2  0  0  0  0  0  0  0  0  0
    7.3382  -14.2100   25.3607 N   0  0  0  0  0  0  0  0  0  0  0  0
    8.3484  -13.9876   27.4969 C   0  0  0  0  0  0  0  0  0  0  0  0
    9.1560  -13.3800   28.4398 O   0  0  0  0  0  0  0  0  0  0  0  0
    7.8898  -15.1302   27.7512 O   0  0  0  0  0  0  0  0  0  0  0  0
  2  1  1  0
  3  2  1  0
  4  3  2  0
  6  7  2  0
  6  5  1  0
  8  6  1  0
  9  8  1  1
  9 10  1  0
 10  3  1  0
 11 17  1  0
 11  9  1  0
 12 11  2  0
 14 13  1  6
 14 15  1  0
 16 14  1  0
 16 17  1  6
 18 16  1  0
 18 19  1  0
 20 18  2  0
M  END
$$$$
