GNV.pdb
     RDKit          3D

 20 19  0  0  1  0  0  0  0  0999 V2000
    8.5367  -16.7730   18.4969 N   0  0  0  0  0  0  0  0  0  0  0  0
    9.1947  -16.8931   19.7642 C   0  0  0  0  0  0  0  0  0  0  0  0
    8.3036  -16.7857   20.9316 C   0  0  0  0  0  0  0  0  0  0  0  0
    7.0983  -16.5010   20.7018 O   0  0  0  0  0  0  0  0  0  0  0  0
    7.4182  -19.0814   26.4305 N   0  0  0  0  0  0  0  0  0  0  0  0
    7.0242  -18.3845   25.2701 C   0  0  0  0  0  0  0  0  0  0  0  0
    5.8806  -17.8182   25.3244 O   0  0  0  0  0  0  0  0  0  0  0  0
    7.7539  -18.2298   24.0250 C   0  0  0  0  0  0  0  0  0  0  0  0
    7.7350  -16.8973   23.3726 C   0  0  2  0  0  0  0  0  0  0  0  0
    8.6916  -16.9742   22.2632 N   0  0  0  0  0  0  0  0  0  0  0  0
    8.2599  -15.8528   24.2845 C   0  0  0  0  0  0  0  0  0  0  0  0
    9.4875  -15.7606   24.5254 O   0  0  0  0  0  0  0  0  0  0  0  0
    6.6809  -12.0576   24.8839 C   0  0  0  0  0  0  0  0  0  0  0  0
    7.0016  -12.8076   26.1465 C   0  0  2  0  0  0  0  0  0  0  0  0
    7.6320  -11.8374   27.1158 C   0  0  0  0  0  0  0  0  0  0  0  0
    7.9654  -13.9476   25.8825 C   0  0  2  0  0  0  0  0  0  0  0  0
    7.4070  -14.8943   24.9402 N   0  0  0  0  0  0  0  0  0  0  0  0
    8.3219  -14.6628   27.1180 C   0  0  0  0  0  0  0  0  0  0  0  0
    9.2773  -14.1386   27.9683 O   0  0  0  0  0  0  0  0  0  0  0  0
    7.7778  -15.7521   27.4309 O   0  0  0  0  0  0  0  0  0  0  0  0
  2  1  1  0
  3  2  1  0
  4  3  2  0
  6  7  2  0
  6  5  1  0
  8  6  1  0
  9  8  1  1
  9 10  1  0
 10  3  1  0
 11 17  1  0
 11  9  1  0
 12 11  2  0
 14 13  1  6
 14 15  1  0
 16 14  1  0
 16 17  1  6
 18 16  1  0
 18 19  1  0
 20 18  2  0
M  END
$$$$
