GNV.pdb
     RDKit          3D

 20 19  0  0  1  0  0  0  0  0999 V2000
    8.4521  -16.4226   18.7374 N   0  0  0  0  0  0  0  0  0  0  0  0
    9.1138  -16.0410   19.9498 C   0  0  0  0  0  0  0  0  0  0  0  0
    8.2520  -16.0336   21.1438 C   0  0  0  0  0  0  0  0  0  0  0  0
    7.0435  -15.7238   20.9700 O   0  0  0  0  0  0  0  0  0  0  0  0
    6.2224  -19.5180   25.0090 N   0  0  0  0  0  0  0  0  0  0  0  0
    6.6052  -18.4722   24.1447 C   0  0  0  0  0  0  0  0  0  0  0  0
    5.7905  -18.2095   23.1966 O   0  0  0  0  0  0  0  0  0  0  0  0
    7.8057  -17.6581   24.1977 C   0  0  0  0  0  0  0  0  0  0  0  0
    7.7532  -16.3068   23.5873 C   0  0  2  0  0  0  0  0  0  0  0  0
    8.6708  -16.3415   22.4434 N   0  0  0  0  0  0  0  0  0  0  0  0
    8.3015  -15.2856   24.5118 C   0  0  0  0  0  0  0  0  0  0  0  0
    9.5316  -15.2197   24.7483 O   0  0  0  0  0  0  0  0  0  0  0  0
    5.7967  -12.5613   26.8006 C   0  0  0  0  0  0  0  0  0  0  0  0
    7.1671  -12.1764   26.3177 C   0  0  2  0  0  0  0  0  0  0  0  0
    7.0115  -11.4699   24.9930 C   0  0  0  0  0  0  0  0  0  0  0  0
    8.0506  -13.3945   26.1338 C   0  0  2  0  0  0  0  0  0  0  0  0
    7.4695  -14.3211   25.1853 N   0  0  0  0  0  0  0  0  0  0  0  0
    8.2845  -14.1003   27.4035 C   0  0  0  0  0  0  0  0  0  0  0  0
    7.8226  -15.3922   27.5708 O   0  0  0  0  0  0  0  0  0  0  0  0
    8.9002  -13.5585   28.3565 O   0  0  0  0  0  0  0  0  0  0  0  0
  2  1  1  0
  3  2  1  0
  4  3  2  0
  6  7  2  0
  6  5  1  0
  8  6  1  0
  9  8  1  1
  9 10  1  0
 10  3  1  0
 11 17  1  0
 11  9  1  0
 12 11  2  0
 14 13  1  6
 14 15  1  0
 16 14  1  0
 16 17  1  6
 18 16  1  0
 18 19  1  0
 20 18  2  0
M  END
$$$$
