GNV.pdb
     RDKit          3D

 20 19  0  0  1  0  0  0  0  0999 V2000
    9.2090  -13.3367   18.8910 N   0  0  0  0  0  0  0  0  0  0  0  0
    7.8018  -13.1975   19.1230 C   0  0  0  0  0  0  0  0  0  0  0  0
    7.3064  -13.8868   20.3263 C   0  0  0  0  0  0  0  0  0  0  0  0
    6.1070  -13.6764   20.6481 O   0  0  0  0  0  0  0  0  0  0  0  0
   10.2911  -16.1972   21.4418 N   0  0  0  0  0  0  0  0  0  0  0  0
    9.2836  -17.1381   21.7362 C   0  0  0  0  0  0  0  0  0  0  0  0
    9.6323  -18.3650   21.6651 O   0  0  0  0  0  0  0  0  0  0  0  0
    7.9036  -16.8881   22.1099 C   0  0  0  0  0  0  0  0  0  0  0  0
    7.4721  -15.4764   22.2602 C   0  0  2  0  0  0  0  0  0  0  0  0
    8.0608  -14.7489   21.1306 N   0  0  0  0  0  0  0  0  0  0  0  0
    8.0586  -14.8694   23.4790 C   0  0  0  0  0  0  0  0  0  0  0  0
    9.2489  -14.4738   23.4971 O   0  0  0  0  0  0  0  0  0  0  0  0
    6.4682  -11.9569   25.3225 C   0  0  0  0  0  0  0  0  0  0  0  0
    6.8818  -12.9605   26.3622 C   0  0  2  0  0  0  0  0  0  0  0  0
    7.5168  -12.2088   27.5068 C   0  0  0  0  0  0  0  0  0  0  0  0
    7.8793  -13.9560   25.8036 C   0  0  2  0  0  0  0  0  0  0  0  0
    7.3107  -14.6990   24.6987 N   0  0  0  0  0  0  0  0  0  0  0  0
    8.3386  -14.9072   26.8280 C   0  0  0  0  0  0  0  0  0  0  0  0
    9.3031  -14.5259   27.7416 O   0  0  0  0  0  0  0  0  0  0  0  0
    7.8754  -16.0738   26.9010 O   0  0  0  0  0  0  0  0  0  0  0  0
  2  1  1  0
  3  2  1  0
  4  3  2  0
  6  7  2  0
  6  5  1  0
  8  6  1  0
  9  8  1  6
  9 10  1  0
 10  3  1  0
 11 17  1  0
 11  9  1  0
 12 11  2  0
 14 13  1  6
 14 15  1  0
 16 14  1  0
 16 17  1  6
 18 16  1  0
 18 19  1  0
 20 18  2  0
M  END
$$$$
