GNV.pdb
     RDKit          3D

 20 19  0  0  1  0  0  0  0  0999 V2000
    6.7567  -17.5997   19.2882 N   0  0  0  0  0  0  0  0  0  0  0  0
    7.7278  -17.4357   20.3291 C   0  0  0  0  0  0  0  0  0  0  0  0
    7.1669  -17.0675   21.6400 C   0  0  0  0  0  0  0  0  0  0  0  0
    6.0104  -16.5683   21.6429 O   0  0  0  0  0  0  0  0  0  0  0  0
    7.1321  -20.4489   23.8530 N   0  0  0  0  0  0  0  0  0  0  0  0
    6.5819  -19.3296   24.5101 C   0  0  0  0  0  0  0  0  0  0  0  0
    5.3231  -19.3742   24.7224 O   0  0  0  0  0  0  0  0  0  0  0  0
    7.2652  -18.1365   24.9750 C   0  0  0  0  0  0  0  0  0  0  0  0
    7.1622  -16.9116   24.1439 C   0  0  2  0  0  0  0  0  0  0  0  0
    7.8158  -17.2288   22.8696 N   0  0  0  0  0  0  0  0  0  0  0  0
    7.9491  -15.8024   24.7343 C   0  0  0  0  0  0  0  0  0  0  0  0
    9.1858  -15.7130   24.5447 O   0  0  0  0  0  0  0  0  0  0  0  0
    6.1652  -12.5928   27.0642 C   0  0  0  0  0  0  0  0  0  0  0  0
    7.4001  -12.4261   26.2236 C   0  0  2  0  0  0  0  0  0  0  0  0
    6.9683  -11.9869   24.8455 C   0  0  0  0  0  0  0  0  0  0  0  0
    8.1739  -13.7252   26.1144 C   0  0  2  0  0  0  0  0  0  0  0  0
    7.3524  -14.7750   25.5494 N   0  0  0  0  0  0  0  0  0  0  0  0
    8.6829  -14.1728   27.4204 C   0  0  0  0  0  0  0  0  0  0  0  0
    9.6341  -13.4219   28.0851 O   0  0  0  0  0  0  0  0  0  0  0  0
    8.2749  -15.2324   27.9603 O   0  0  0  0  0  0  0  0  0  0  0  0
  2  1  1  0
  3  2  1  0
  4  3  2  0
  6  7  2  0
  6  5  1  0
  8  6  1  0
  9  8  1  1
  9 10  1  0
 10  3  1  0
 11 17  1  0
 11  9  1  0
 12 11  2  0
 14 13  1  1
 14 15  1  0
 16 14  1  0
 16 17  1  1
 18 16  1  0
 18 19  1  0
 20 18  2  0
M  END
$$$$
