GNV.pdb
     RDKit          3D

 20 19  0  0  1  0  0  0  0  0999 V2000
    5.7203  -19.4272   23.6297 N   0  0  0  0  0  0  0  0  0  0  0  0
    5.3915  -18.0484   23.4187 C   0  0  0  0  0  0  0  0  0  0  0  0
    6.4846  -17.2348   22.8603 C   0  0  0  0  0  0  0  0  0  0  0  0
    7.6249  -17.7681   22.8179 O   0  0  0  0  0  0  0  0  0  0  0  0
    7.8840  -11.9335   20.1460 N   0  0  0  0  0  0  0  0  0  0  0  0
    7.8438  -13.3426   20.1560 C   0  0  0  0  0  0  0  0  0  0  0  0
    8.7324  -13.9280   19.4493 O   0  0  0  0  0  0  0  0  0  0  0  0
    6.9221  -14.2090   20.8676 C   0  0  0  0  0  0  0  0  0  0  0  0
    7.4910  -15.1766   21.8381 C   0  0  2  0  0  0  0  0  0  0  0  0
    6.3524  -15.9273   22.3785 N   0  0  0  0  0  0  0  0  0  0  0  0
    8.0950  -14.4739   22.9955 C   0  0  0  0  0  0  0  0  0  0  0  0
    9.0980  -13.7343   22.8527 O   0  0  0  0  0  0  0  0  0  0  0  0
    7.7137  -11.9883   27.0609 C   0  0  0  0  0  0  0  0  0  0  0  0
    7.1301  -12.8165   25.9506 C   0  0  2  0  0  0  0  0  0  0  0  0
    5.9460  -13.5700   26.5060 C   0  0  0  0  0  0  0  0  0  0  0  0
    8.1425  -13.8060   25.4083 C   0  0  2  0  0  0  0  0  0  0  0  0
    7.5765  -14.5948   24.3343 N   0  0  0  0  0  0  0  0  0  0  0  0
    8.6368  -14.7151   26.4544 C   0  0  0  0  0  0  0  0  0  0  0  0
    8.5105  -16.0825   26.2973 O   0  0  0  0  0  0  0  0  0  0  0  0
    9.1788  -14.2824   27.5031 O   0  0  0  0  0  0  0  0  0  0  0  0
  2  1  1  0
  3  2  1  0
  4  3  2  0
  6  7  2  0
  6  5  1  0
  8  6  1  0
  9  8  1  6
  9 10  1  0
 10  3  1  0
 11 17  1  0
 11  9  1  0
 12 11  2  0
 14 13  1  1
 14 15  1  0
 16 14  1  0
 16 17  1  6
 18 16  1  0
 18 19  1  0
 20 18  2  0
M  END
$$$$
