GNV.pdb
     RDKit          3D

 20 19  0  0  1  0  0  0  0  0999 V2000
    7.9436  -13.1374   17.9396 N   0  0  0  0  0  0  0  0  0  0  0  0
    8.7110  -13.5670   19.0710 C   0  0  0  0  0  0  0  0  0  0  0  0
    7.9096  -14.0035   20.2268 C   0  0  0  0  0  0  0  0  0  0  0  0
    6.6738  -14.1552   20.0362 O   0  0  0  0  0  0  0  0  0  0  0  0
    7.8564  -18.4518   23.8482 N   0  0  0  0  0  0  0  0  0  0  0  0
    7.2499  -17.3137   23.2789 C   0  0  0  0  0  0  0  0  0  0  0  0
    6.0620  -17.0614   23.6748 O   0  0  0  0  0  0  0  0  0  0  0  0
    7.8053  -16.3947   22.3023 C   0  0  0  0  0  0  0  0  0  0  0  0
    7.6193  -14.9412   22.5355 C   0  0  2  0  0  0  0  0  0  0  0  0
    8.4131  -14.2596   21.5074 N   0  0  0  0  0  0  0  0  0  0  0  0
    8.2073  -14.5329   23.8338 C   0  0  0  0  0  0  0  0  0  0  0  0
    9.4432  -14.6043   24.0363 O   0  0  0  0  0  0  0  0  0  0  0  0
    5.8148  -12.8936   27.0263 C   0  0  0  0  0  0  0  0  0  0  0  0
    7.2338  -12.4603   26.7854 C   0  0  2  0  0  0  0  0  0  0  0  0
    7.2042  -11.2606   25.8698 C   0  0  0  0  0  0  0  0  0  0  0  0
    8.0462  -13.5638   26.1371 C   0  0  2  0  0  0  0  0  0  0  0  0
    7.4092  -14.0370   24.9262 N   0  0  0  0  0  0  0  0  0  0  0  0
    8.2457  -14.7047   27.0447 C   0  0  0  0  0  0  0  0  0  0  0  0
    9.0203  -14.5570   28.1798 O   0  0  0  0  0  0  0  0  0  0  0  0
    7.7268  -15.8273   26.8182 O   0  0  0  0  0  0  0  0  0  0  0  0
  2  1  1  0
  3  2  1  0
  4  3  2  0
  6  7  2  0
  6  5  1  0
  8  6  1  0
  9  8  1  6
  9 10  1  0
 10  3  1  0
 11 17  1  0
 11  9  1  0
 12 11  2  0
 14 13  1  6
 14 15  1  0
 16 14  1  0
 16 17  1  6
 18 16  1  0
 18 19  1  0
 20 18  2  0
M  END
$$$$
