GNV.pdb
     RDKit          3D

 20 19  0  0  1  0  0  0  0  0999 V2000
    6.9785  -19.2050   14.7755 N   0  0  0  0  0  0  0  0  0  0  0  0
    5.6410  -19.6368   15.0552 C   0  0  0  0  0  0  0  0  0  0  0  0
    5.1415  -19.2637   16.3893 C   0  0  0  0  0  0  0  0  0  0  0  0
    5.4183  -18.1040   16.7956 O   0  0  0  0  0  0  0  0  0  0  0  0
    1.5275  -20.6120   20.9633 N   0  0  0  0  0  0  0  0  0  0  0  0
    1.7524  -19.7935   19.8378 C   0  0  0  0  0  0  0  0  0  0  0  0
    1.2390  -18.6251   19.8899 O   0  0  0  0  0  0  0  0  0  0  0  0
    2.4932  -20.1113   18.6308 C   0  0  0  0  0  0  0  0  0  0  0  0
    3.8962  -19.6379   18.5348 C   0  0  2  0  0  0  0  0  0  0  0  0
    4.3903  -20.0926   17.2306 N   0  0  0  0  0  0  0  0  0  0  0  0
    4.7517  -20.3065   19.5443 C   0  0  0  0  0  0  0  0  0  0  0  0
    4.4418  -20.3042   20.7598 O   0  0  0  0  0  0  0  0  0  0  0  0
    9.2034  -21.4874   19.8343 C   0  0  0  0  0  0  0  0  0  0  0  0
    7.9729  -22.3258   19.6285 C   0  0  2  0  0  0  0  0  0  0  0  0
    7.7744  -22.5027   18.1426 C   0  0  0  0  0  0  0  0  0  0  0  0
    6.7459  -21.6613   20.2209 C   0  0  2  0  0  0  0  0  0  0  0  0
    5.9724  -20.9892   19.1982 N   0  0  0  0  0  0  0  0  0  0  0  0
    7.0993  -20.6866   21.2651 C   0  0  0  0  0  0  0  0  0  0  0  0
    7.2013  -21.0922   22.5824 O   0  0  0  0  0  0  0  0  0  0  0  0
    7.3149  -19.4779   20.9943 O   0  0  0  0  0  0  0  0  0  0  0  0
  2  1  1  0
  3  2  1  0
  4  3  2  0
  6  7  2  0
  6  5  1  0
  8  6  1  0
  9  8  1  1
  9 10  1  0
 10  3  1  0
 11 17  1  0
 11  9  1  0
 12 11  2  0
 14 13  1  6
 14 15  1  0
 16 14  1  0
 16 17  1  6
 18 16  1  0
 18 19  1  0
 20 18  2  0
M  END
$$$$
