GNV.pdb
     RDKit          3D

 20 19  0  0  1  0  0  0  0  0999 V2000
    7.9413  -17.4029   13.8019 N   0  0  0  0  0  0  0  0  0  0  0  0
    9.0803  -17.2336   14.6548 C   0  0  0  0  0  0  0  0  0  0  0  0
    8.7837  -17.2980   16.0958 C   0  0  0  0  0  0  0  0  0  0  0  0
    7.7351  -16.7196   16.4861 O   0  0  0  0  0  0  0  0  0  0  0  0
   10.5950  -21.5243   18.4296 N   0  0  0  0  0  0  0  0  0  0  0  0
    9.7071  -20.4806   18.7607 C   0  0  0  0  0  0  0  0  0  0  0  0
    8.4699  -20.7961   18.7999 O   0  0  0  0  0  0  0  0  0  0  0  0
   10.0221  -19.0963   19.0626 C   0  0  0  0  0  0  0  0  0  0  0  0
    9.1663  -18.0445   18.4602 C   0  0  2  0  0  0  0  0  0  0  0  0
    9.5714  -17.9470   17.0536 N   0  0  0  0  0  0  0  0  0  0  0  0
    9.4579  -16.7183   19.0554 C   0  0  0  0  0  0  0  0  0  0  0  0
   10.5492  -16.1380   18.8414 O   0  0  0  0  0  0  0  0  0  0  0  0
    7.8876  -12.3648   20.5739 C   0  0  0  0  0  0  0  0  0  0  0  0
    7.5982  -13.7739   20.1379 C   0  0  2  0  0  0  0  0  0  0  0  0
    6.4444  -14.2882   20.9641 C   0  0  0  0  0  0  0  0  0  0  0  0
    8.8006  -14.6741   20.3435 C   0  0  2  0  0  0  0  0  0  0  0  0
    8.5216  -16.0246   19.9030 N   0  0  0  0  0  0  0  0  0  0  0  0
    9.2231  -14.7128   21.7524 C   0  0  0  0  0  0  0  0  0  0  0  0
    9.8145  -13.6034   22.3268 O   0  0  0  0  0  0  0  0  0  0  0  0
    9.0617  -15.7379   22.4623 O   0  0  0  0  0  0  0  0  0  0  0  0
  2  1  1  0
  3  2  1  0
  4  3  2  0
  6  7  2  0
  6  5  1  0
  8  6  1  0
  9  8  1  1
  9 10  1  0
 10  3  1  0
 11 17  1  0
 11  9  1  0
 12 11  2  0
 14 13  1  1
 14 15  1  0
 16 14  1  0
 16 17  1  1
 18 16  1  0
 18 19  1  0
 20 18  2  0
M  END
$$$$
