GNV.pdb
     RDKit          3D

 20 19  0  0  1  0  0  0  0  0999 V2000
    8.8203  -16.5402   18.5869 N   0  0  0  0  0  0  0  0  0  0  0  0
    9.1234  -16.9473   19.9270 C   0  0  0  0  0  0  0  0  0  0  0  0
    8.1361  -16.5259   20.9351 C   0  0  0  0  0  0  0  0  0  0  0  0
    6.9229  -16.7192   20.6573 O   0  0  0  0  0  0  0  0  0  0  0  0
    6.2393  -17.2824   25.7915 N   0  0  0  0  0  0  0  0  0  0  0  0
    7.0436  -18.0268   24.9048 C   0  0  0  0  0  0  0  0  0  0  0  0
    7.1706  -19.2678   25.1798 O   0  0  0  0  0  0  0  0  0  0  0  0
    7.7428  -17.5611   23.7213 C   0  0  0  0  0  0  0  0  0  0  0  0
    7.6064  -16.1297   23.3551 C   0  0  2  0  0  0  0  0  0  0  0  0
    8.4419  -15.9330   22.1655 N   0  0  0  0  0  0  0  0  0  0  0  0
    8.1869  -15.2564   24.4031 C   0  0  0  0  0  0  0  0  0  0  0  0
    9.4187  -15.2602   24.6403 O   0  0  0  0  0  0  0  0  0  0  0  0
    5.7996  -12.5884   26.8693 C   0  0  0  0  0  0  0  0  0  0  0  0
    7.1534  -12.2114   26.3358 C   0  0  2  0  0  0  0  0  0  0  0  0
    6.9525  -11.4981   25.0209 C   0  0  0  0  0  0  0  0  0  0  0  0
    8.0202  -13.4350   26.1133 C   0  0  2  0  0  0  0  0  0  0  0  0
    7.3859  -14.3639   25.2017 N   0  0  0  0  0  0  0  0  0  0  0  0
    8.3163  -14.1350   27.3733 C   0  0  0  0  0  0  0  0  0  0  0  0
    8.0100  -15.4762   27.5068 O   0  0  0  0  0  0  0  0  0  0  0  0
    8.8469  -13.5441   28.3480 O   0  0  0  0  0  0  0  0  0  0  0  0
  2  1  1  0
  3  2  1  0
  4  3  2  0
  6  7  2  0
  6  5  1  0
  8  6  1  0
  9  8  1  1
  9 10  1  0
 10  3  1  0
 11 17  1  0
 11  9  1  0
 12 11  2  0
 14 13  1  6
 14 15  1  0
 16 14  1  0
 16 17  1  6
 18 16  1  0
 18 19  1  0
 20 18  2  0
M  END
$$$$
