GNV.pdb
     RDKit          3D

 20 19  0  0  1  0  0  0  0  0999 V2000
    7.6986  -12.6343   18.5550 N   0  0  0  0  0  0  0  0  0  0  0  0
    8.6732  -13.2009   19.4397 C   0  0  0  0  0  0  0  0  0  0  0  0
    8.1107  -13.8820   20.6180 C   0  0  0  0  0  0  0  0  0  0  0  0
    6.8734  -13.7501   20.8133 O   0  0  0  0  0  0  0  0  0  0  0  0
    9.3204  -18.0678   20.5122 N   0  0  0  0  0  0  0  0  0  0  0  0
    8.4446  -17.5856   21.5060 C   0  0  0  0  0  0  0  0  0  0  0  0
    7.2243  -17.9458   21.3925 O   0  0  0  0  0  0  0  0  0  0  0  0
    8.7552  -16.7339   22.6395 C   0  0  0  0  0  0  0  0  0  0  0  0
    8.1992  -15.3582   22.6446 C   0  0  2  0  0  0  0  0  0  0  0  0
    8.8404  -14.6564   21.5273 N   0  0  0  0  0  0  0  0  0  0  0  0
    8.6077  -14.6256   23.8671 C   0  0  0  0  0  0  0  0  0  0  0  0
    9.7977  -14.2693   24.0415 O   0  0  0  0  0  0  0  0  0  0  0  0
    5.7506  -13.1142   26.7293 C   0  0  0  0  0  0  0  0  0  0  0  0
    7.0779  -12.4707   26.4398 C   0  0  2  0  0  0  0  0  0  0  0  0
    6.8855  -11.5024   25.2979 C   0  0  0  0  0  0  0  0  0  0  0  0
    8.1188  -13.5018   26.0507 C   0  0  2  0  0  0  0  0  0  0  0  0
    7.6789  -14.2830   24.9139 N   0  0  0  0  0  0  0  0  0  0  0  0
    8.4294  -14.4152   27.1617 C   0  0  0  0  0  0  0  0  0  0  0  0
    8.1943  -15.7706   27.0279 O   0  0  0  0  0  0  0  0  0  0  0  0
    8.9091  -13.9969   28.2460 O   0  0  0  0  0  0  0  0  0  0  0  0
  2  1  1  0
  3  2  1  0
  4  3  2  0
  6  7  2  0
  6  5  1  0
  8  6  1  0
  9  8  1  1
  9 10  1  0
 10  3  1  0
 11 17  1  0
 11  9  1  0
 12 11  2  0
 14 13  1  6
 14 15  1  0
 16 14  1  0
 16 17  1  6
 18 16  1  0
 18 19  1  0
 20 18  2  0
M  END
$$$$
