GNV.pdb
     RDKit          3D

 20 19  0  0  1  0  0  0  0  0999 V2000
    6.6228  -19.9468   18.1377 N   0  0  0  0  0  0  0  0  0  0  0  0
    6.2620  -18.9036   19.0515 C   0  0  0  0  0  0  0  0  0  0  0  0
    7.2690  -17.8390   19.1971 C   0  0  0  0  0  0  0  0  0  0  0  0
    8.4708  -18.1641   19.0057 O   0  0  0  0  0  0  0  0  0  0  0  0
    7.8666  -11.6921   20.0717 N   0  0  0  0  0  0  0  0  0  0  0  0
    8.2573  -13.0181   19.7951 C   0  0  0  0  0  0  0  0  0  0  0  0
    9.5126  -13.2090   19.6555 O   0  0  0  0  0  0  0  0  0  0  0  0
    7.4140  -14.1905   19.6504 C   0  0  0  0  0  0  0  0  0  0  0  0
    8.0580  -15.5233   19.7527 C   0  0  2  0  0  0  0  0  0  0  0  0
    6.9935  -16.5074   19.5287 N   0  0  0  0  0  0  0  0  0  0  0  0
    8.5506  -15.7700   21.1291 C   0  0  0  0  0  0  0  0  0  0  0  0
    7.8458  -15.4920   22.1289 O   0  0  0  0  0  0  0  0  0  0  0  0
   11.2341  -18.7519   22.0949 C   0  0  0  0  0  0  0  0  0  0  0  0
   10.3659  -18.0277   23.0854 C   0  0  2  0  0  0  0  0  0  0  0  0
    8.9846  -18.6329   23.0222 C   0  0  0  0  0  0  0  0  0  0  0  0
   10.2785  -16.5483   22.7658 C   0  0  2  0  0  0  0  0  0  0  0  0
    9.8480  -16.3350   21.4000 N   0  0  0  0  0  0  0  0  0  0  0  0
   11.5658  -15.8654   22.9692 C   0  0  0  0  0  0  0  0  0  0  0  0
   12.2380  -15.3230   21.8901 O   0  0  0  0  0  0  0  0  0  0  0  0
   12.0829  -15.7572   24.1101 O   0  0  0  0  0  0  0  0  0  0  0  0
  2  1  1  0
  3  2  1  0
  4  3  2  0
  6  7  2  0
  6  5  1  0
  8  6  1  0
  9  8  1  1
  9 10  1  0
 10  3  1  0
 11 17  1  0
 11  9  1  0
 12 11  2  0
 14 13  1  6
 14 15  1  0
 16 14  1  0
 16 17  1  6
 18 16  1  0
 18 19  1  0
 20 18  2  0
M  END
$$$$
