DCT.pdb
     RDKit          3D

 22 21  0  0  1  0  0  0  0  0999 V2000
    8.3598  -16.7371   21.1261 N   0  0  0  0  0  0  0  0  0  0  0  0
    9.6366  -16.2201   21.5317 C   0  0  1  0  0  0  0  0  0  0  0  0
   10.2660  -15.3329   20.4819 C   0  0  0  0  0  0  0  0  0  0  0  0
   10.4197  -16.1216   19.2512 C   0  0  0  0  0  0  0  0  0  0  0  0
   10.9431  -17.2608   19.3433 O   0  0  0  0  0  0  0  0  0  0  0  0
    9.4621  -15.4818   22.8220 C   0  0  0  0  0  0  0  0  0  0  0  0
   10.4582  -15.0287   23.4603 O   0  0  0  0  0  0  0  0  0  0  0  0
   10.0254  -15.6929   17.9926 O   0  0  0  0  0  0  0  0  0  0  0  0
    8.1900  -15.2503   23.3960 N   0  0  0  0  0  0  0  0  0  0  0  0
    8.0130  -14.5554   24.6672 C   0  0  1  0  0  0  0  0  0  0  0  0
    6.6958  -13.8225   24.6856 C   0  0  0  0  0  0  0  0  0  0  0  0
    6.3752  -12.9458   26.2276 S   0  0  0  0  0  0  0  0  0  0  0  0
    8.2055  -15.5110   25.7592 C   0  0  0  0  0  0  0  0  0  0  0  0
    8.0549  -15.0731   26.9527 O   0  0  0  0  0  0  0  0  0  0  0  0
    6.7961  -19.0794   25.9990 C   0  0  0  0  0  0  0  0  0  0  0  0
    8.2468  -19.1037   26.4400 C   0  0  1  0  0  0  0  0  0  0  0  0
    9.0694  -19.5044   25.4017 O   0  0  0  0  0  0  0  0  0  0  0  0
    8.6067  -17.6883   26.8596 C   0  0  2  0  0  0  0  0  0  0  0  0
    8.5396  -16.8711   25.6433 N   0  0  0  0  0  0  0  0  0  0  0  0
    9.9825  -17.6476   27.4228 C   0  0  0  0  0  0  0  0  0  0  0  0
   10.8793  -17.0439   26.8075 O   0  0  0  0  0  0  0  0  0  0  0  0
   10.2789  -18.2721   28.6219 O   0  0  0  0  0  0  0  0  0  0  0  0
  2  1  1  6
  2  6  1  0
  2  3  1  0
  3  4  1  0
  4  5  2  0
  4  8  1  0
  6  7  2  0
  6  9  1  0
  9 10  1  0
 10 13  1  0
 10 11  1  6
 12 11  1  0
 13 14  2  0
 13 19  1  0
 16 15  1  6
 17 16  1  0
 18 16  1  0
 18 20  1  0
 18 19  1  6
 20 22  1  0
 21 20  2  0
M  END
$$$$
