DCT.pdb
     RDKit          3D

 22 21  0  0  1  0  0  0  0  0999 V2000
   10.4055  -15.9714   21.1060 N   0  0  0  0  0  0  0  0  0  0  0  0
   10.0113  -16.8047   22.2071 C   0  0  1  0  0  0  0  0  0  0  0  0
   10.7450  -18.1263   22.2290 C   0  0  0  0  0  0  0  0  0  0  0  0
   10.3878  -18.8663   21.0103 C   0  0  0  0  0  0  0  0  0  0  0  0
    9.7724  -18.2481   20.1051 O   0  0  0  0  0  0  0  0  0  0  0  0
   10.2333  -16.0479   23.4791 C   0  0  0  0  0  0  0  0  0  0  0  0
   11.4005  -15.7530   23.8737 O   0  0  0  0  0  0  0  0  0  0  0  0
   10.6845  -20.2031   20.7914 O   0  0  0  0  0  0  0  0  0  0  0  0
    9.1653  -15.6233   24.3040 N   0  0  0  0  0  0  0  0  0  0  0  0
    9.3747  -14.9233   25.5674 C   0  0  1  0  0  0  0  0  0  0  0  0
    8.3158  -13.8687   25.7648 C   0  0  0  0  0  0  0  0  0  0  0  0
    8.3803  -13.0695   27.3792 S   0  0  0  0  0  0  0  0  0  0  0  0
    9.4744  -15.9102   26.6438 C   0  0  0  0  0  0  0  0  0  0  0  0
    8.4634  -16.6722   26.8338 O   0  0  0  0  0  0  0  0  0  0  0  0
   11.1266  -18.8737   27.0249 C   0  0  0  0  0  0  0  0  0  0  0  0
   11.5173  -18.1583   28.3036 C   0  0  1  0  0  0  0  0  0  0  0  0
   12.7472  -17.5391   28.1642 O   0  0  0  0  0  0  0  0  0  0  0  0
   10.4471  -17.1135   28.5721 C   0  0  2  0  0  0  0  0  0  0  0  0
   10.5683  -16.1186   27.5011 N   0  0  0  0  0  0  0  0  0  0  0  0
   10.6720  -16.4673   29.8926 C   0  0  0  0  0  0  0  0  0  0  0  0
   10.9293  -15.2514   29.9443 O   0  0  0  0  0  0  0  0  0  0  0  0
   10.5989  -17.1999   31.0646 O   0  0  0  0  0  0  0  0  0  0  0  0
  2  1  1  6
  2  6  1  0
  2  3  1  0
  3  4  1  0
  4  5  2  0
  4  8  1  0
  6  7  2  0
  6  9  1  0
  9 10  1  0
 10 13  1  0
 10 11  1  1
 12 11  1  0
 13 14  2  0
 13 19  1  0
 16 15  1  6
 17 16  1  0
 18 16  1  0
 18 20  1  0
 18 19  1  6
 20 22  1  0
 21 20  2  0
M  END
$$$$
