DCT.pdb
     RDKit          3D

 22 21  0  0  1  0  0  0  0  0999 V2000
    8.9249  -17.8068   20.6300 N   0  0  0  0  0  0  0  0  0  0  0  0
   10.0880  -16.9647   20.6450 C   0  0  1  0  0  0  0  0  0  0  0  0
   10.3037  -16.2461   19.3326 C   0  0  0  0  0  0  0  0  0  0  0  0
   10.7092  -17.2410   18.3294 C   0  0  0  0  0  0  0  0  0  0  0  0
    9.8425  -17.6381   17.5101 O   0  0  0  0  0  0  0  0  0  0  0  0
    9.9547  -15.9904   21.7732 C   0  0  0  0  0  0  0  0  0  0  0  0
   10.8246  -15.0910   21.9717 O   0  0  0  0  0  0  0  0  0  0  0  0
   11.9860  -17.7722   18.2258 O   0  0  0  0  0  0  0  0  0  0  0  0
    8.8627  -16.0174   22.6722 N   0  0  0  0  0  0  0  0  0  0  0  0
    8.7276  -15.0739   23.7775 C   0  0  1  0  0  0  0  0  0  0  0  0
    7.2817  -14.6920   23.9677 C   0  0  0  0  0  0  0  0  0  0  0  0
    6.9561  -13.8348   25.5196 S   0  0  0  0  0  0  0  0  0  0  0  0
    9.3808  -15.6355   24.9610 C   0  0  0  0  0  0  0  0  0  0  0  0
    9.1865  -16.8777   25.2019 O   0  0  0  0  0  0  0  0  0  0  0  0
   12.2965  -15.4835   28.8979 C   0  0  0  0  0  0  0  0  0  0  0  0
   11.7318  -14.7459   27.6991 C   0  0  1  0  0  0  0  0  0  0  0  0
   12.7439  -14.3639   26.8359 O   0  0  0  0  0  0  0  0  0  0  0  0
   10.7912  -15.7059   26.9903 C   0  0  2  0  0  0  0  0  0  0  0  0
   10.2079  -14.9569   25.8722 N   0  0  0  0  0  0  0  0  0  0  0  0
    9.7166  -16.1571   27.9142 C   0  0  0  0  0  0  0  0  0  0  0  0
    9.8217  -17.2565   28.4865 O   0  0  0  0  0  0  0  0  0  0  0  0
    8.6014  -15.3708   28.1459 O   0  0  0  0  0  0  0  0  0  0  0  0
  2  1  1  6
  2  6  1  0
  2  3  1  0
  3  4  1  0
  4  5  2  0
  4  8  1  0
  6  7  2  0
  6  9  1  0
  9 10  1  0
 10 13  1  0
 10 11  1  1
 12 11  1  0
 13 14  2  0
 13 19  1  0
 16 15  1  1
 17 16  1  0
 18 16  1  0
 18 20  1  0
 18 19  1  6
 20 22  1  0
 21 20  2  0
M  END
$$$$
