DCT.pdb
     RDKit          3D

 22 21  0  0  1  0  0  0  0  0999 V2000
    8.5260  -17.3154   19.6247 N   0  0  0  0  0  0  0  0  0  0  0  0
    9.4275  -17.2705   20.7416 C   0  0  1  0  0  0  0  0  0  0  0  0
   10.6930  -16.5012   20.4381 C   0  0  0  0  0  0  0  0  0  0  0  0
   11.4266  -17.2255   19.3904 C   0  0  0  0  0  0  0  0  0  0  0  0
   12.1008  -18.2304   19.7310 O   0  0  0  0  0  0  0  0  0  0  0  0
    8.7065  -16.6756   21.9105 C   0  0  0  0  0  0  0  0  0  0  0  0
    7.7453  -15.8666   21.7478 O   0  0  0  0  0  0  0  0  0  0  0  0
   11.4252  -16.8744   18.0488 O   0  0  0  0  0  0  0  0  0  0  0  0
    9.0529  -16.9788   23.2482 N   0  0  0  0  0  0  0  0  0  0  0  0
    8.3158  -16.4520   24.3925 C   0  0  1  0  0  0  0  0  0  0  0  0
    7.2401  -17.4201   24.8146 C   0  0  0  0  0  0  0  0  0  0  0  0
    7.8787  -18.9552   25.5110 S   0  0  0  0  0  0  0  0  0  0  0  0
    9.2691  -16.0888   25.4423 C   0  0  0  0  0  0  0  0  0  0  0  0
   10.4532  -16.5661   25.3473 O   0  0  0  0  0  0  0  0  0  0  0  0
    9.9760  -12.6390   27.3212 C   0  0  0  0  0  0  0  0  0  0  0  0
    9.7624  -13.7905   28.2846 C   0  0  1  0  0  0  0  0  0  0  0  0
    8.4462  -13.8379   28.7096 O   0  0  0  0  0  0  0  0  0  0  0  0
   10.1028  -15.0666   27.5333 C   0  0  2  0  0  0  0  0  0  0  0  0
    9.0282  -15.2645   26.5546 N   0  0  0  0  0  0  0  0  0  0  0  0
   10.1561  -16.2215   28.4687 C   0  0  0  0  0  0  0  0  0  0  0  0
   11.0091  -16.2385   29.3738 O   0  0  0  0  0  0  0  0  0  0  0  0
    9.2698  -17.2775   28.3462 O   0  0  0  0  0  0  0  0  0  0  0  0
  2  1  1  6
  2  6  1  0
  2  3  1  0
  3  4  1  0
  4  5  2  0
  4  8  1  0
  6  7  2  0
  6  9  1  0
  9 10  1  0
 10 13  1  0
 10 11  1  1
 12 11  1  0
 13 14  2  0
 13 19  1  0
 16 15  1  6
 17 16  1  0
 18 16  1  0
 18 20  1  0
 18 19  1  6
 20 22  1  0
 21 20  2  0
M  END
$$$$
