DCT.pdb
     RDKit          3D

 22 21  0  0  1  0  0  0  0  0999 V2000
    8.5931  -15.0620   20.4553 N   0  0  0  0  0  0  0  0  0  0  0  0
    7.8207  -15.5077   21.5808 C   0  0  1  0  0  0  0  0  0  0  0  0
    7.8891  -17.0050   21.7778 C   0  0  0  0  0  0  0  0  0  0  0  0
    7.4105  -17.6491   20.5464 C   0  0  0  0  0  0  0  0  0  0  0  0
    6.1741  -17.6410   20.3197 O   0  0  0  0  0  0  0  0  0  0  0  0
    8.2986  -14.7848   22.8011 C   0  0  0  0  0  0  0  0  0  0  0  0
    9.5347  -14.6487   23.0430 O   0  0  0  0  0  0  0  0  0  0  0  0
    8.2328  -18.2664   19.6158 O   0  0  0  0  0  0  0  0  0  0  0  0
    7.4080  -14.2186   23.7433 N   0  0  0  0  0  0  0  0  0  0  0  0
    7.8598  -13.6249   24.9978 C   0  0  1  0  0  0  0  0  0  0  0  0
    6.8140  -12.6841   25.5396 C   0  0  0  0  0  0  0  0  0  0  0  0
    7.0997  -12.1892   27.2492 S   0  0  0  0  0  0  0  0  0  0  0  0
    8.2614  -14.6967   25.9103 C   0  0  0  0  0  0  0  0  0  0  0  0
    7.3956  -15.6055   26.1618 O   0  0  0  0  0  0  0  0  0  0  0  0
   11.9733  -15.9876   26.5641 C   0  0  0  0  0  0  0  0  0  0  0  0
   10.7577  -16.8587   26.8156 C   0  0  1  0  0  0  0  0  0  0  0  0
   11.0702  -17.9047   27.6663 O   0  0  0  0  0  0  0  0  0  0  0  0
    9.7036  -15.9740   27.4598 C   0  0  2  0  0  0  0  0  0  0  0  0
    9.5054  -14.8426   26.5476 N   0  0  0  0  0  0  0  0  0  0  0  0
   10.1753  -15.4830   28.7820 C   0  0  0  0  0  0  0  0  0  0  0  0
   10.3510  -14.2640   28.9563 O   0  0  0  0  0  0  0  0  0  0  0  0
   10.4213  -16.3635   29.8212 O   0  0  0  0  0  0  0  0  0  0  0  0
  2  1  1  6
  2  6  1  0
  2  3  1  0
  3  4  1  0
  4  5  2  0
  4  8  1  0
  6  7  2  0
  6  9  1  0
  9 10  1  0
 10 13  1  0
 10 11  1  1
 12 11  1  0
 13 14  2  0
 13 19  1  0
 16 15  1  1
 17 16  1  0
 18 16  1  0
 18 20  1  0
 18 19  1  6
 20 22  1  0
 21 20  2  0
M  END
$$$$
