DCT.pdb
     RDKit          3D

 22 21  0  0  1  0  0  0  0  0999 V2000
    9.2291  -17.8293   20.6393 N   0  0  0  0  0  0  0  0  0  0  0  0
    8.4392  -16.6925   20.2575 C   0  0  1  0  0  0  0  0  0  0  0  0
    7.5970  -16.9543   19.0297 C   0  0  0  0  0  0  0  0  0  0  0  0
    8.4942  -17.3680   17.9413 C   0  0  0  0  0  0  0  0  0  0  0  0
    9.6798  -16.9510   17.9649 O   0  0  0  0  0  0  0  0  0  0  0  0
    7.5829  -16.2971   21.4197 C   0  0  0  0  0  0  0  0  0  0  0  0
    6.5908  -15.5232   21.2723 O   0  0  0  0  0  0  0  0  0  0  0  0
    8.1200  -18.1889   16.8882 O   0  0  0  0  0  0  0  0  0  0  0  0
    7.8293  -16.7592   22.7339 N   0  0  0  0  0  0  0  0  0  0  0  0
    6.9775  -16.4085   23.8659 C   0  0  1  0  0  0  0  0  0  0  0  0
    6.6045  -17.6442   24.6446 C   0  0  0  0  0  0  0  0  0  0  0  0
    7.9806  -18.3711   25.5541 S   0  0  0  0  0  0  0  0  0  0  0  0
    7.6363  -15.3598   24.6462 C   0  0  0  0  0  0  0  0  0  0  0  0
    8.8931  -15.1978   24.4641 O   0  0  0  0  0  0  0  0  0  0  0  0
    6.7748  -11.5846   25.4045 C   0  0  0  0  0  0  0  0  0  0  0  0
    6.9949  -12.3780   26.6779 C   0  0  1  0  0  0  0  0  0  0  0  0
    5.7921  -12.8407   27.1826 O   0  0  0  0  0  0  0  0  0  0  0  0
    7.8849  -13.5559   26.3185 C   0  0  2  0  0  0  0  0  0  0  0  0
    7.0372  -14.5000   25.5826 N   0  0  0  0  0  0  0  0  0  0  0  0
    8.4136  -14.2019   27.5494 C   0  0  0  0  0  0  0  0  0  0  0  0
    8.1091  -15.3812   27.8021 O   0  0  0  0  0  0  0  0  0  0  0  0
    9.2395  -13.5092   28.4175 O   0  0  0  0  0  0  0  0  0  0  0  0
  2  1  1  1
  2  6  1  0
  2  3  1  0
  3  4  1  0
  4  5  2  0
  4  8  1  0
  6  7  2  0
  6  9  1  0
  9 10  1  0
 10 13  1  0
 10 11  1  1
 12 11  1  0
 13 14  2  0
 13 19  1  0
 16 15  1  6
 17 16  1  0
 18 16  1  0
 18 20  1  0
 18 19  1  1
 20 22  1  0
 21 20  2  0
M  END
$$$$
