DCT.pdb
     RDKit          3D

 22 21  0  0  1  0  0  0  0  0999 V2000
    9.0097  -15.1612   20.0761 N   0  0  0  0  0  0  0  0  0  0  0  0
    8.0961  -15.5938   21.0961 C   0  0  1  0  0  0  0  0  0  0  0  0
    7.9363  -17.0966   21.1355 C   0  0  0  0  0  0  0  0  0  0  0  0
    7.4494  -17.5379   19.8208 C   0  0  0  0  0  0  0  0  0  0  0  0
    7.4419  -18.7716   19.5794 O   0  0  0  0  0  0  0  0  0  0  0  0
    8.5739  -15.0713   22.4147 C   0  0  0  0  0  0  0  0  0  0  0  0
    9.8088  -14.9189   22.6531 O   0  0  0  0  0  0  0  0  0  0  0  0
    6.9968  -16.6834   18.8268 O   0  0  0  0  0  0  0  0  0  0  0  0
    7.6848  -14.7218   23.4580 N   0  0  0  0  0  0  0  0  0  0  0  0
    8.1427  -14.2137   24.7474 C   0  0  1  0  0  0  0  0  0  0  0  0
    7.0817  -13.3473   25.3767 C   0  0  0  0  0  0  0  0  0  0  0  0
    7.3574  -13.0196   27.1276 S   0  0  0  0  0  0  0  0  0  0  0  0
    8.5894  -15.3406   25.5679 C   0  0  0  0  0  0  0  0  0  0  0  0
    7.7693  -16.3111   25.7244 O   0  0  0  0  0  0  0  0  0  0  0  0
   11.7116  -18.4518   27.4026 C   0  0  0  0  0  0  0  0  0  0  0  0
   11.4039  -17.2480   26.5332 C   0  0  1  0  0  0  0  0  0  0  0  0
   11.2934  -17.6172   25.2040 O   0  0  0  0  0  0  0  0  0  0  0  0
   10.0808  -16.6783   27.0166 C   0  0  2  0  0  0  0  0  0  0  0  0
    9.8320  -15.4790   26.2095 N   0  0  0  0  0  0  0  0  0  0  0  0
   10.1676  -16.3124   28.4555 C   0  0  0  0  0  0  0  0  0  0  0  0
   10.2852  -15.1168   28.7781 O   0  0  0  0  0  0  0  0  0  0  0  0
   10.1194  -17.2835   29.4405 O   0  0  0  0  0  0  0  0  0  0  0  0
  2  1  1  6
  2  6  1  0
  2  3  1  0
  3  4  1  0
  4  5  2  0
  4  8  1  0
  6  7  2  0
  6  9  1  0
  9 10  1  0
 10 13  1  0
 10 11  1  1
 12 11  1  0
 13 14  2  0
 13 19  1  0
 16 15  1  1
 17 16  1  0
 18 16  1  0
 18 20  1  0
 18 19  1  6
 20 22  1  0
 21 20  2  0
M  END
$$$$
