DCT.pdb
     RDKit          3D

 22 21  0  0  1  0  0  0  0  0999 V2000
    9.6407  -17.7651   20.9435 N   0  0  0  0  0  0  0  0  0  0  0  0
    9.7838  -16.3613   20.6774 C   0  0  1  0  0  0  0  0  0  0  0  0
    8.9991  -15.9155   19.4646 C   0  0  0  0  0  0  0  0  0  0  0  0
    9.5277  -16.6277   18.2925 C   0  0  0  0  0  0  0  0  0  0  0  0
   10.7696  -16.8103   18.2251 O   0  0  0  0  0  0  0  0  0  0  0  0
    9.3632  -15.6014   21.8963 C   0  0  0  0  0  0  0  0  0  0  0  0
    9.3465  -14.3347   21.9082 O   0  0  0  0  0  0  0  0  0  0  0  0
    8.7472  -17.1129   17.2540 O   0  0  0  0  0  0  0  0  0  0  0  0
    8.9647  -16.2462   23.0907 N   0  0  0  0  0  0  0  0  0  0  0  0
    8.4694  -15.5163   24.2535 C   0  0  1  0  0  0  0  0  0  0  0  0
    7.0612  -15.9437   24.5806 C   0  0  0  0  0  0  0  0  0  0  0  0
    6.3572  -15.0923   26.0049 S   0  0  0  0  0  0  0  0  0  0  0  0
    9.4308  -15.6616   25.3477 C   0  0  0  0  0  0  0  0  0  0  0  0
   10.2990  -16.5966   25.2428 O   0  0  0  0  0  0  0  0  0  0  0  0
   10.9890  -12.8986   27.8919 C   0  0  0  0  0  0  0  0  0  0  0  0
   10.4500  -14.1381   28.5795 C   0  0  1  0  0  0  0  0  0  0  0  0
    9.1531  -13.9326   29.0170 O   0  0  0  0  0  0  0  0  0  0  0  0
   10.4714  -15.2591   27.5539 C   0  0  2  0  0  0  0  0  0  0  0  0
    9.5098  -14.8803   26.5131 N   0  0  0  0  0  0  0  0  0  0  0  0
   10.0610  -16.5440   28.1804 C   0  0  0  0  0  0  0  0  0  0  0  0
    8.9752  -17.0614   27.8634 O   0  0  0  0  0  0  0  0  0  0  0  0
   10.8704  -17.1719   29.1111 O   0  0  0  0  0  0  0  0  0  0  0  0
  2  1  1  1
  2  6  1  0
  2  3  1  0
  3  4  1  0
  4  5  2  0
  4  8  1  0
  6  7  2  0
  6  9  1  0
  9 10  1  0
 10 13  1  0
 10 11  1  1
 12 11  1  0
 13 14  2  0
 13 19  1  0
 16 15  1  6
 17 16  1  0
 18 16  1  0
 18 20  1  0
 18 19  1  6
 20 22  1  0
 21 20  2  0
M  END
$$$$
