DCT.pdb
     RDKit          3D

 22 21  0  0  1  0  0  0  0  0999 V2000
    9.4479  -17.2095   19.6716 N   0  0  0  0  0  0  0  0  0  0  0  0
   10.2814  -17.1146   20.8372 C   0  0  1  0  0  0  0  0  0  0  0  0
   11.5134  -16.2699   20.6050 C   0  0  0  0  0  0  0  0  0  0  0  0
   12.6879  -17.1517   20.6609 C   0  0  0  0  0  0  0  0  0  0  0  0
   12.4913  -18.3877   20.7795 O   0  0  0  0  0  0  0  0  0  0  0  0
    9.4619  -16.5681   21.9640 C   0  0  0  0  0  0  0  0  0  0  0  0
    8.6648  -15.5993   21.7879 O   0  0  0  0  0  0  0  0  0  0  0  0
   14.0011  -16.7113   20.5915 O   0  0  0  0  0  0  0  0  0  0  0  0
    9.5296  -17.0955   23.2750 N   0  0  0  0  0  0  0  0  0  0  0  0
    8.7173  -16.5832   24.3741 C   0  0  1  0  0  0  0  0  0  0  0  0
    7.6712  -17.5942   24.7690 C   0  0  0  0  0  0  0  0  0  0  0  0
    8.3555  -19.1256   25.4293 S   0  0  0  0  0  0  0  0  0  0  0  0
    9.6038  -16.1538   25.4568 C   0  0  0  0  0  0  0  0  0  0  0  0
   10.8033  -16.6009   25.4424 O   0  0  0  0  0  0  0  0  0  0  0  0
   10.3467  -12.6564   27.1874 C   0  0  0  0  0  0  0  0  0  0  0  0
    9.9454  -13.7201   28.1909 C   0  0  1  0  0  0  0  0  0  0  0  0
    8.5886  -13.6577   28.4571 O   0  0  0  0  0  0  0  0  0  0  0  0
   10.2828  -15.0654   27.5703 C   0  0  2  0  0  0  0  0  0  0  0  0
    9.2830  -15.2949   26.5218 N   0  0  0  0  0  0  0  0  0  0  0  0
   10.2031  -16.1432   28.5919 C   0  0  0  0  0  0  0  0  0  0  0  0
    9.3445  -17.0358   28.4759 O   0  0  0  0  0  0  0  0  0  0  0  0
   11.0709  -16.1670   29.6699 O   0  0  0  0  0  0  0  0  0  0  0  0
  2  1  1  6
  2  6  1  0
  2  3  1  0
  3  4  1  0
  4  5  2  0
  4  8  1  0
  6  7  2  0
  6  9  1  0
  9 10  1  0
 10 13  1  0
 10 11  1  1
 12 11  1  0
 13 14  2  0
 13 19  1  0
 16 15  1  6
 17 16  1  0
 18 16  1  0
 18 20  1  0
 18 19  1  6
 20 22  1  0
 21 20  2  0
M  END
$$$$
