DCT.pdb
     RDKit          3D

 22 21  0  0  1  0  0  0  0  0999 V2000
   10.7093  -15.8544   20.8471 N   0  0  0  0  0  0  0  0  0  0  0  0
    9.7382  -16.3635   21.7744 C   0  0  1  0  0  0  0  0  0  0  0  0
    9.6247  -17.8703   21.7302 C   0  0  0  0  0  0  0  0  0  0  0  0
    9.0671  -18.2473   20.4235 C   0  0  0  0  0  0  0  0  0  0  0  0
    7.8165  -18.3131   20.3137 O   0  0  0  0  0  0  0  0  0  0  0  0
   10.1014  -15.8940   23.1484 C   0  0  0  0  0  0  0  0  0  0  0  0
   11.3112  -15.7943   23.5108 O   0  0  0  0  0  0  0  0  0  0  0  0
    9.8291  -18.5359   19.3014 O   0  0  0  0  0  0  0  0  0  0  0  0
    9.1263  -15.5389   24.1098 N   0  0  0  0  0  0  0  0  0  0  0  0
    9.4724  -15.0558   25.4429 C   0  0  1  0  0  0  0  0  0  0  0  0
    8.5232  -13.9648   25.8684 C   0  0  0  0  0  0  0  0  0  0  0  0
    8.7519  -13.4291   27.5743 S   0  0  0  0  0  0  0  0  0  0  0  0
    9.5513  -16.1986   26.3542 C   0  0  0  0  0  0  0  0  0  0  0  0
    8.5342  -16.9742   26.4086 O   0  0  0  0  0  0  0  0  0  0  0  0
   11.1967  -19.1342   26.1868 C   0  0  0  0  0  0  0  0  0  0  0  0
   11.5705  -18.7027   27.5918 C   0  0  1  0  0  0  0  0  0  0  0  0
   12.8090  -18.0851   27.6030 O   0  0  0  0  0  0  0  0  0  0  0  0
   10.5061  -17.7209   28.0522 C   0  0  2  0  0  0  0  0  0  0  0  0
   10.6309  -16.5449   27.1845 N   0  0  0  0  0  0  0  0  0  0  0  0
   10.7361  -17.3324   29.4693 C   0  0  0  0  0  0  0  0  0  0  0  0
   11.0196  -16.1527   29.7434 O   0  0  0  0  0  0  0  0  0  0  0  0
   10.6391  -18.2653   30.4871 O   0  0  0  0  0  0  0  0  0  0  0  0
  2  1  1  6
  2  6  1  0
  2  3  1  0
  3  4  1  0
  4  5  2  0
  4  8  1  0
  6  7  2  0
  6  9  1  0
  9 10  1  0
 10 13  1  0
 10 11  1  1
 12 11  1  0
 13 14  2  0
 13 19  1  0
 16 15  1  6
 17 16  1  0
 18 16  1  0
 18 20  1  0
 18 19  1  6
 20 22  1  0
 21 20  2  0
M  END
$$$$
