DCT.pdb
     RDKit          3D

 22 21  0  0  1  0  0  0  0  0999 V2000
    9.7537  -18.3669   18.5711 N   0  0  0  0  0  0  0  0  0  0  0  0
   11.1668  -18.1407   18.6899 C   0  0  1  0  0  0  0  0  0  0  0  0
   11.7399  -17.4003   17.5030 C   0  0  0  0  0  0  0  0  0  0  0  0
   11.4667  -18.1932   16.2959 C   0  0  0  0  0  0  0  0  0  0  0  0
   12.1105  -19.2608   16.1344 O   0  0  0  0  0  0  0  0  0  0  0  0
   11.4231  -17.3940   19.9615 C   0  0  0  0  0  0  0  0  0  0  0  0
   12.5782  -16.9590   20.2472 O   0  0  0  0  0  0  0  0  0  0  0  0
   10.5448  -17.8423   15.3212 O   0  0  0  0  0  0  0  0  0  0  0  0
   10.4026  -17.1340   20.9060 N   0  0  0  0  0  0  0  0  0  0  0  0
   10.6634  -16.5002   22.1946 C   0  0  1  0  0  0  0  0  0  0  0  0
    9.4263  -15.7985   22.6942 C   0  0  0  0  0  0  0  0  0  0  0  0
    9.4712  -15.4151   24.4550 S   0  0  0  0  0  0  0  0  0  0  0  0
   11.2210  -17.4987   23.1083 C   0  0  0  0  0  0  0  0  0  0  0  0
   10.5802  -18.6001   23.2323 O   0  0  0  0  0  0  0  0  0  0  0  0
   14.7324  -19.5906   25.7331 C   0  0  0  0  0  0  0  0  0  0  0  0
   14.3040  -18.4372   24.8467 C   0  0  1  0  0  0  0  0  0  0  0  0
   14.8700  -18.5477   23.5886 O   0  0  0  0  0  0  0  0  0  0  0  0
   12.7902  -18.5033   24.7333 C   0  0  2  0  0  0  0  0  0  0  0  0
   12.3947  -17.3835   23.8724 N   0  0  0  0  0  0  0  0  0  0  0  0
   12.1622  -18.3591   26.0737 C   0  0  0  0  0  0  0  0  0  0  0  0
   11.8628  -17.2266   26.4919 O   0  0  0  0  0  0  0  0  0  0  0  0
   11.9064  -19.4675   26.8622 O   0  0  0  0  0  0  0  0  0  0  0  0
  2  1  1  6
  2  6  1  0
  2  3  1  0
  3  4  1  0
  4  5  2  0
  4  8  1  0
  6  7  2  0
  6  9  1  0
  9 10  1  0
 10 13  1  0
 10 11  1  1
 12 11  1  0
 13 14  2  0
 13 19  1  0
 16 15  1  1
 17 16  1  0
 18 16  1  0
 18 20  1  0
 18 19  1  6
 20 22  1  0
 21 20  2  0
M  END
$$$$
