DCT.pdb
     RDKit          3D

 22 21  0  0  1  0  0  0  0  0999 V2000
    8.0009  -14.1101   19.8169 N   0  0  0  0  0  0  0  0  0  0  0  0
    7.5362  -15.0558   20.7925 C   0  0  1  0  0  0  0  0  0  0  0  0
    7.7295  -16.4891   20.3524 C   0  0  0  0  0  0  0  0  0  0  0  0
    7.0184  -16.6749   19.0795 C   0  0  0  0  0  0  0  0  0  0  0  0
    5.8769  -17.2003   19.1140 O   0  0  0  0  0  0  0  0  0  0  0  0
    8.2443  -14.7923   22.0845 C   0  0  0  0  0  0  0  0  0  0  0  0
    9.4884  -14.5552   22.1161 O   0  0  0  0  0  0  0  0  0  0  0  0
    7.5229  -16.3091   17.8407 O   0  0  0  0  0  0  0  0  0  0  0  0
    7.5730  -14.7927   23.3298 N   0  0  0  0  0  0  0  0  0  0  0  0
    8.2597  -14.5576   24.5960 C   0  0  1  0  0  0  0  0  0  0  0  0
    7.4329  -13.6620   25.4829 C   0  0  0  0  0  0  0  0  0  0  0  0
    5.7724  -14.2879   25.7995 S   0  0  0  0  0  0  0  0  0  0  0  0
    8.6221  -15.8482   25.1840 C   0  0  0  0  0  0  0  0  0  0  0  0
    7.7581  -16.7895   25.1057 O   0  0  0  0  0  0  0  0  0  0  0  0
   10.4464  -18.3905   24.1548 C   0  0  0  0  0  0  0  0  0  0  0  0
   11.0417  -18.2091   25.5378 C   0  0  1  0  0  0  0  0  0  0  0  0
   12.1800  -17.4238   25.4836 O   0  0  0  0  0  0  0  0  0  0  0  0
    9.9868  -17.5215   26.3881 C   0  0  2  0  0  0  0  0  0  0  0  0
    9.8263  -16.1741   25.8311 N   0  0  0  0  0  0  0  0  0  0  0  0
   10.4358  -17.4352   27.8033 C   0  0  0  0  0  0  0  0  0  0  0  0
   10.6547  -16.3206   28.3103 O   0  0  0  0  0  0  0  0  0  0  0  0
   10.6136  -18.5778   28.5640 O   0  0  0  0  0  0  0  0  0  0  0  0
  2  1  1  6
  2  6  1  0
  2  3  1  0
  3  4  1  0
  4  5  2  0
  4  8  1  0
  6  7  2  0
  6  9  1  0
  9 10  1  0
 10 13  1  0
 10 11  1  1
 12 11  1  0
 13 14  2  0
 13 19  1  0
 16 15  1  6
 17 16  1  0
 18 16  1  0
 18 20  1  0
 18 19  1  6
 20 22  1  0
 21 20  2  0
M  END
$$$$
