QRD.pdb
     RDKit          3D

 29 28  0  0  1  0  0  0  0  0999 V2000
   36.3379   -7.2696  -14.0959 N   0  0  0  0  0  0  0  0  0  0  0  0
   36.6863   -8.6670  -13.8912 C   0  0  0  0  0  0  0  0  0  0  0  0
   37.5022   -8.8619  -12.9630 O   0  0  0  0  0  0  0  0  0  0  0  0
   36.0889   -9.7049  -14.7505 C   0  0  0  0  0  0  0  0  0  0  0  0
   35.0799   -9.2485  -15.7442 C   0  0  0  0  0  0  0  0  0  0  0  0
   34.5481  -10.4081  -16.5401 C   0  0  2  0  0  0  0  0  0  0  0  0
   35.5769  -11.0392  -17.2909 N   0  0  0  0  0  0  0  0  0  0  0  0
   33.4052   -9.9486  -17.4104 C   0  0  0  0  0  0  0  0  0  0  0  0
   33.6578   -9.7172  -18.6176 O   0  0  0  0  0  0  0  0  0  0  0  0
   25.6108  -12.6339  -16.2727 N   0  0  0  0  0  0  0  0  0  0  0  0
   26.0964  -11.3009  -16.1911 C   0  0  0  0  0  0  0  0  0  0  0  0
   25.3416  -10.3535  -15.7108 N   0  0  0  0  0  0  0  0  0  0  0  0
   27.4047  -10.9588  -16.6238 N   0  0  0  0  0  0  0  0  0  0  0  0
   28.2895  -12.0152  -17.2000 C   0  0  0  0  0  0  0  0  0  0  0  0
   29.5857  -11.3968  -17.5299 C   0  0  0  0  0  0  0  0  0  0  0  0
   29.8043   -9.9756  -17.5638 C   0  0  0  0  0  0  0  0  0  0  0  0
   31.0638   -9.2950  -17.9455 C   0  0  2  0  0  0  0  0  0  0  0  0
   32.0986   -9.7731  -16.9323 N   0  0  0  0  0  0  0  0  0  0  0  0
   31.0203   -7.8534  -17.6403 C   0  0  0  0  0  0  0  0  0  0  0  0
   30.9628   -7.5302  -16.3998 O   0  0  0  0  0  0  0  0  0  0  0  0
   25.6661   -9.3632  -15.6932 N   0  0  0  0  0  0  0  0  0  0  0  0
   31.0436   -6.7685  -18.5304 C   0  0  2  0  0  0  0  0  0  0  0  0
   30.9671   -5.4095  -18.0558 C   0  0  0  0  0  0  0  0  0  0  0  0
   32.2180   -4.6213  -18.4094 C   0  0  0  0  0  0  0  0  0  0  0  0
   32.1729   -3.2225  -17.9678 O   0  0  0  0  0  0  0  0  0  0  0  0
   31.4418   -2.3705  -18.5288 C   0  0  0  0  0  0  0  0  0  0  0  0
   29.7488   -4.7468  -18.5081 O   0  0  0  0  0  0  0  0  0  0  0  0
   29.3600   -3.5414  -17.9481 O   0  0  0  0  0  0  0  0  0  0  0  0
   32.9507   -2.8025  -16.9016 O   0  0  0  0  0  0  0  0  0  0  0  0
  2  1  1  0
  2  3  2  0
  4  2  1  0
  5  4  1  0
  5  6  1  0
  6  7  1  6
  8  6  1  0
  8  9  2  0
 10 11  1  0
 11 13  1  0
 11 12  2  0
 13 14  1  0
 15 14  1  0
 16 15  1  0
 17 16  1  1
 17 18  1  0
 18  8  1  0
 19 17  1  0
 20 19  2  0
 21 19  1  0
 22 21  1  0
 22 26  1  0
 23 24  1  0
 22 23  1  6
 24 25  2  0
 26 27  1  0
 28 24  1  0
 29 26  2  0
M  END
$$$$
