QRD.pdb
     RDKit          3D

 29 28  0  0  1  0  0  0  0  0999 V2000
   13.8343  -30.9917  -10.0777 N   0  0  0  0  0  0  0  0  0  0  0  0
   13.9718  -29.5510   -9.9316 C   0  0  0  0  0  0  0  0  0  0  0  0
   13.0681  -29.0154   -9.2521 O   0  0  0  0  0  0  0  0  0  0  0  0
   15.1056  -28.8548  -10.5657 C   0  0  0  0  0  0  0  0  0  0  0  0
   16.1795  -28.3662   -9.6591 C   0  0  0  0  0  0  0  0  0  0  0  0
   17.5383  -28.7167  -10.1992 C   0  0  2  0  0  0  0  0  0  0  0  0
   18.2856  -29.4872   -9.2672 N   0  0  0  0  0  0  0  0  0  0  0  0
   18.2628  -27.4602  -10.6130 C   0  0  0  0  0  0  0  0  0  0  0  0
   18.4095  -26.5673   -9.7436 O   0  0  0  0  0  0  0  0  0  0  0  0
   25.3342  -25.2296  -15.3839 N   0  0  0  0  0  0  0  0  0  0  0  0
   24.3879  -24.1954  -15.6172 C   0  0  0  0  0  0  0  0  0  0  0  0
   24.6645  -23.2234  -16.4398 N   0  0  0  0  0  0  0  0  0  0  0  0
   23.1238  -24.1852  -14.9710 N   0  0  0  0  0  0  0  0  0  0  0  0
   22.7756  -25.2804  -14.0171 C   0  0  0  0  0  0  0  0  0  0  0  0
   21.3068  -25.3665  -13.9353 C   0  0  0  0  0  0  0  0  0  0  0  0
   20.6096  -26.2846  -13.0752 C   0  0  0  0  0  0  0  0  0  0  0  0
   19.5083  -25.9439  -12.1444 C   0  0  2  0  0  0  0  0  0  0  0  0
   18.7680  -27.2555  -11.9052 N   0  0  0  0  0  0  0  0  0  0  0  0
   18.4589  -25.1483  -12.8070 C   0  0  0  0  0  0  0  0  0  0  0  0
   17.6447  -25.7885  -13.5644 O   0  0  0  0  0  0  0  0  0  0  0  0
   23.9869  -22.4490  -16.6056 N   0  0  0  0  0  0  0  0  0  0  0  0
   18.2164  -23.7689  -12.7155 C   0  0  2  0  0  0  0  0  0  0  0  0
   17.2630  -23.1180  -13.5787 C   0  0  0  0  0  0  0  0  0  0  0  0
   16.0856  -22.5616  -12.7944 C   0  0  0  0  0  0  0  0  0  0  0  0
   15.0775  -21.9076  -13.6369 O   0  0  0  0  0  0  0  0  0  0  0  0
   15.1918  -21.8453  -14.8851 C   0  0  0  0  0  0  0  0  0  0  0  0
   17.8962  -22.1072  -14.4185 O   0  0  0  0  0  0  0  0  0  0  0  0
   17.5988  -22.0345  -15.7690 O   0  0  0  0  0  0  0  0  0  0  0  0
   13.9554  -21.3335  -13.0629 O   0  0  0  0  0  0  0  0  0  0  0  0
  2  1  1  0
  2  3  2  0
  4  2  1  0
  5  4  1  0
  5  6  1  0
  6  7  1  1
  8  6  1  0
  8  9  2  0
 10 11  1  0
 11 13  1  0
 11 12  2  0
 13 14  1  0
 15 14  1  0
 16 15  1  0
 17 16  1  6
 17 18  1  0
 18  8  1  0
 19 17  1  0
 20 19  2  0
 21 19  1  0
 22 21  1  0
 22 26  1  0
 23 24  1  0
 22 23  1  1
 24 25  2  0
 26 27  1  0
 28 24  1  0
 29 26  2  0
M  END
$$$$
