QRD.pdb
     RDKit          3D

 29 28  0  0  1  0  0  0  0  0999 V2000
   26.8102  -17.7374  -17.8048 N   0  0  0  0  0  0  0  0  0  0  0  0
   27.0482  -18.4630  -19.0430 C   0  0  0  0  0  0  0  0  0  0  0  0
   27.6703  -17.8093  -19.9095 O   0  0  0  0  0  0  0  0  0  0  0  0
   26.5608  -19.8465  -19.1871 C   0  0  0  0  0  0  0  0  0  0  0  0
   25.9374  -20.4626  -17.9847 C   0  0  0  0  0  0  0  0  0  0  0  0
   26.9863  -21.0162  -17.0605 C   0  0  2  0  0  0  0  0  0  0  0  0
   27.7345  -22.0518  -17.6838 N   0  0  0  0  0  0  0  0  0  0  0  0
   26.3445  -21.4701  -15.7734 C   0  0  0  0  0  0  0  0  0  0  0  0
   26.1041  -22.6956  -15.6507 O   0  0  0  0  0  0  0  0  0  0  0  0
   29.7947  -21.8989   -8.3130 N   0  0  0  0  0  0  0  0  0  0  0  0
   30.3389  -22.1563   -9.6003 C   0  0  0  0  0  0  0  0  0  0  0  0
   31.4930  -22.7491   -9.7207 N   0  0  0  0  0  0  0  0  0  0  0  0
   29.6526  -21.7818  -10.7855 N   0  0  0  0  0  0  0  0  0  0  0  0
   28.1979  -21.4498  -10.7205 C   0  0  0  0  0  0  0  0  0  0  0  0
   27.7689  -21.0078  -12.0592 C   0  0  0  0  0  0  0  0  0  0  0  0
   26.4191  -20.6262  -12.3771 C   0  0  0  0  0  0  0  0  0  0  0  0
   25.5629  -21.2351  -13.4219 C   0  0  2  0  0  0  0  0  0  0  0  0
   26.0126  -20.5935  -14.7302 N   0  0  0  0  0  0  0  0  0  0  0  0
   24.1723  -20.7529  -13.3385 C   0  0  0  0  0  0  0  0  0  0  0  0
   24.0109  -19.4917  -13.1659 O   0  0  0  0  0  0  0  0  0  0  0  0
   31.9195  -22.9121  -10.6576 N   0  0  0  0  0  0  0  0  0  0  0  0
   22.9821  -21.4908  -13.4331 C   0  0  1  0  0  0  0  0  0  0  0  0
   21.6946  -20.8484  -13.3467 C   0  0  0  0  0  0  0  0  0  0  0  0
   20.6698  -21.5247  -14.2431 C   0  0  0  0  0  0  0  0  0  0  0  0
   19.3334  -20.9238  -14.1615 O   0  0  0  0  0  0  0  0  0  0  0  0
   19.1510  -19.7635  -13.7194 C   0  0  0  0  0  0  0  0  0  0  0  0
   21.2364  -20.7394  -11.9661 O   0  0  0  0  0  0  0  0  0  0  0  0
   20.5093  -19.6343  -11.5565 O   0  0  0  0  0  0  0  0  0  0  0  0
   18.2217  -21.6368  -14.5785 O   0  0  0  0  0  0  0  0  0  0  0  0
  2  1  1  0
  2  3  2  0
  4  2  1  0
  5  4  1  0
  5  6  1  0
  6  7  1  6
  8  6  1  0
  8  9  2  0
 10 11  1  0
 11 13  1  0
 11 12  2  0
 13 14  1  0
 15 14  1  0
 16 15  1  0
 17 16  1  1
 17 18  1  0
 18  8  1  0
 19 17  1  0
 20 19  2  0
 21 19  1  0
 22 21  1  0
 22 26  1  0
 23 24  1  0
 22 23  1  1
 24 25  2  0
 26 27  1  0
 28 24  1  0
 29 26  2  0
M  END
$$$$
