QRD.pdb
     RDKit          3D

 29 28  0  0  1  0  0  0  0  0999 V2000
   16.8707  -13.9335  -16.3716 N   0  0  0  0  0  0  0  0  0  0  0  0
   18.3102  -14.1391  -16.3318 C   0  0  0  0  0  0  0  0  0  0  0  0
   18.6633  -15.3291  -16.4880 O   0  0  0  0  0  0  0  0  0  0  0  0
   19.2089  -12.9909  -16.1162 C   0  0  0  0  0  0  0  0  0  0  0  0
   18.5630  -11.6888  -15.7980 C   0  0  0  0  0  0  0  0  0  0  0  0
   19.2686  -10.5563  -16.4911 C   0  0  2  0  0  0  0  0  0  0  0  0
   19.7304  -10.9416  -17.7790 N   0  0  0  0  0  0  0  0  0  0  0  0
   20.3822  -10.0371  -15.6164 C   0  0  0  0  0  0  0  0  0  0  0  0
   20.1038   -9.7847  -14.4191 O   0  0  0  0  0  0  0  0  0  0  0  0
   28.3403  -12.6315  -16.8148 N   0  0  0  0  0  0  0  0  0  0  0  0
   27.2637  -13.3977  -16.2919 C   0  0  0  0  0  0  0  0  0  0  0  0
   27.3829  -14.6872  -16.1471 N   0  0  0  0  0  0  0  0  0  0  0  0
   26.0363  -12.7929  -15.9131 N   0  0  0  0  0  0  0  0  0  0  0  0
   25.8867  -11.3098  -16.0063 C   0  0  0  0  0  0  0  0  0  0  0  0
   24.5366  -10.9553  -15.5338 C   0  0  0  0  0  0  0  0  0  0  0  0
   24.0102   -9.6171  -15.5586 C   0  0  0  0  0  0  0  0  0  0  0  0
   22.6669   -9.1987  -15.0940 C   0  0  2  0  0  0  0  0  0  0  0  0
   21.6893   -9.8295  -16.0800 N   0  0  0  0  0  0  0  0  0  0  0  0
   22.4252   -7.7654  -15.3402 C   0  0  0  0  0  0  0  0  0  0  0  0
   22.0664   -7.4390  -16.5282 O   0  0  0  0  0  0  0  0  0  0  0  0
   26.5897  -15.2653  -15.7964 N   0  0  0  0  0  0  0  0  0  0  0  0
   22.5246   -6.6931  -14.4401 C   0  0  1  0  0  0  0  0  0  0  0  0
   22.1942   -5.3480  -14.8395 C   0  0  0  0  0  0  0  0  0  0  0  0
   20.7565   -5.2442  -15.3228 C   0  0  0  0  0  0  0  0  0  0  0  0
   20.3352   -3.8693  -15.6158 O   0  0  0  0  0  0  0  0  0  0  0  0
   21.0400   -3.0885  -16.3004 C   0  0  0  0  0  0  0  0  0  0  0  0
   22.4961   -4.3825  -13.7885 O   0  0  0  0  0  0  0  0  0  0  0  0
   22.9281   -4.8148  -12.5458 O   0  0  0  0  0  0  0  0  0  0  0  0
   19.1271   -3.3928  -15.1345 O   0  0  0  0  0  0  0  0  0  0  0  0
  2  1  1  0
  2  3  2  0
  4  2  1  0
  5  4  1  0
  5  6  1  0
  6  7  1  6
  8  6  1  0
  8  9  2  0
 10 11  1  0
 11 13  1  0
 11 12  2  0
 13 14  1  0
 15 14  1  0
 16 15  1  0
 17 16  1  6
 17 18  1  0
 18  8  1  0
 19 17  1  0
 20 19  2  0
 21 19  1  0
 22 21  1  0
 22 26  1  0
 23 24  1  0
 22 23  1  1
 24 25  2  0
 26 27  1  0
 28 24  1  0
 29 26  2  0
M  END
$$$$
