QRD.pdb
     RDKit          3D

 29 28  0  0  1  0  0  0  0  0999 V2000
   28.7743  -24.6985  -16.4806 N   0  0  0  0  0  0  0  0  0  0  0  0
   28.9587  -23.4979  -17.2811 C   0  0  0  0  0  0  0  0  0  0  0  0
   30.1287  -23.3285  -17.6903 O   0  0  0  0  0  0  0  0  0  0  0  0
   27.8141  -22.6057  -17.5384 C   0  0  0  0  0  0  0  0  0  0  0  0
   26.5175  -22.9879  -16.9167 C   0  0  0  0  0  0  0  0  0  0  0  0
   25.4342  -22.0157  -17.2940 C   0  0  2  0  0  0  0  0  0  0  0  0
   25.9532  -20.7057  -17.4811 N   0  0  0  0  0  0  0  0  0  0  0  0
   24.3336  -22.0526  -16.2635 C   0  0  0  0  0  0  0  0  0  0  0  0
   23.7713  -23.1560  -16.0609 O   0  0  0  0  0  0  0  0  0  0  0  0
   26.0420  -21.7748   -9.7692 N   0  0  0  0  0  0  0  0  0  0  0  0
   24.8791  -20.9853   -9.5597 C   0  0  0  0  0  0  0  0  0  0  0  0
   24.1438  -21.1649   -8.4991 N   0  0  0  0  0  0  0  0  0  0  0  0
   24.4830  -19.9854  -10.4866 N   0  0  0  0  0  0  0  0  0  0  0  0
   25.3389  -19.7051  -11.6780 C   0  0  0  0  0  0  0  0  0  0  0  0
   24.8258  -20.5005  -12.8075 C   0  0  0  0  0  0  0  0  0  0  0  0
   23.4543  -20.4772  -13.2397 C   0  0  0  0  0  0  0  0  0  0  0  0
   22.9025  -21.1648  -14.4306 C   0  0  2  0  0  0  0  0  0  0  0  0
   23.9227  -20.9247  -15.5384 N   0  0  0  0  0  0  0  0  0  0  0  0
   21.7286  -20.4583  -14.9748 C   0  0  0  0  0  0  0  0  0  0  0  0
   21.9024  -19.8156  -16.0717 O   0  0  0  0  0  0  0  0  0  0  0  0
   23.2621  -20.6274   -8.3578 N   0  0  0  0  0  0  0  0  0  0  0  0
   20.4251  -20.3982  -14.4578 C   0  0  1  0  0  0  0  0  0  0  0  0
   19.3077  -20.0230  -15.2876 C   0  0  0  0  0  0  0  0  0  0  0  0
   19.3413  -20.7375  -16.6291 C   0  0  0  0  0  0  0  0  0  0  0  0
   19.1138  -19.8466  -17.7728 O   0  0  0  0  0  0  0  0  0  0  0  0
   18.8817  -18.6219  -17.6269 C   0  0  0  0  0  0  0  0  0  0  0  0
   18.0361  -20.2035  -14.5959 O   0  0  0  0  0  0  0  0  0  0  0  0
   17.1328  -19.1573  -14.5101 O   0  0  0  0  0  0  0  0  0  0  0  0
   19.1511  -20.3462  -19.0640 O   0  0  0  0  0  0  0  0  0  0  0  0
  2  1  1  0
  2  3  2  0
  4  2  1  0
  5  4  1  0
  5  6  1  0
  6  7  1  1
  8  6  1  0
  8  9  2  0
 10 11  1  0
 11 13  1  0
 11 12  2  0
 13 14  1  0
 15 14  1  0
 16 15  1  0
 17 16  1  1
 17 18  1  0
 18  8  1  0
 19 17  1  0
 20 19  2  0
 21 19  1  0
 22 21  1  0
 22 26  1  0
 23 24  1  0
 22 23  1  1
 24 25  2  0
 26 27  1  0
 28 24  1  0
 29 26  2  0
M  END
$$$$
