QRD.pdb
     RDKit          3D

 29 28  0  0  1  0  0  0  0  0999 V2000
   26.5372  -20.7027  -19.8247 N   0  0  0  0  0  0  0  0  0  0  0  0
   26.5181  -19.2482  -19.8214 C   0  0  0  0  0  0  0  0  0  0  0  0
   27.0894  -18.7251  -20.8039 O   0  0  0  0  0  0  0  0  0  0  0  0
   25.8647  -18.5262  -18.7149 C   0  0  0  0  0  0  0  0  0  0  0  0
   25.2356  -19.3592  -17.6546 C   0  0  0  0  0  0  0  0  0  0  0  0
   23.7459  -19.1572  -17.6269 C   0  0  2  0  0  0  0  0  0  0  0  0
   23.4088  -17.7769  -17.5857 N   0  0  0  0  0  0  0  0  0  0  0  0
   23.1478  -19.9263  -16.4756 C   0  0  0  0  0  0  0  0  0  0  0  0
   23.4562  -21.1381  -16.3705 O   0  0  0  0  0  0  0  0  0  0  0  0
   24.5314  -21.1545   -8.8682 N   0  0  0  0  0  0  0  0  0  0  0  0
   24.7504  -21.2392  -10.2697 C   0  0  0  0  0  0  0  0  0  0  0  0
   25.8862  -21.6789  -10.7331 N   0  0  0  0  0  0  0  0  0  0  0  0
   23.7520  -20.8533  -11.2025 N   0  0  0  0  0  0  0  0  0  0  0  0
   22.5620  -20.0837  -10.7312 C   0  0  0  0  0  0  0  0  0  0  0  0
   21.6165  -19.9685  -11.8557 C   0  0  0  0  0  0  0  0  0  0  0  0
   21.9956  -19.5339  -13.1733 C   0  0  0  0  0  0  0  0  0  0  0  0
   21.7624  -20.2720  -14.4367 C   0  0  2  0  0  0  0  0  0  0  0  0
   22.2780  -19.3512  -15.5377 N   0  0  0  0  0  0  0  0  0  0  0  0
   20.3291  -20.3363  -14.7757 C   0  0  0  0  0  0  0  0  0  0  0  0
   19.7144  -19.2156  -14.8877 O   0  0  0  0  0  0  0  0  0  0  0  0
   26.0961  -21.6567  -11.7538 N   0  0  0  0  0  0  0  0  0  0  0  0
   19.5336  -21.4694  -15.0063 C   0  0  2  0  0  0  0  0  0  0  0  0
   18.1453  -21.3465  -15.3743 C   0  0  0  0  0  0  0  0  0  0  0  0
   17.5836  -22.6619  -15.8892 C   0  0  0  0  0  0  0  0  0  0  0  0
   17.6782  -23.7588  -14.9189 O   0  0  0  0  0  0  0  0  0  0  0  0
   18.1430  -23.5892  -13.7655 C   0  0  0  0  0  0  0  0  0  0  0  0
   17.3456  -20.7902  -14.2885 O   0  0  0  0  0  0  0  0  0  0  0  0
   16.1434  -20.1582  -14.5590 O   0  0  0  0  0  0  0  0  0  0  0  0
   17.2484  -25.0305  -15.2600 O   0  0  0  0  0  0  0  0  0  0  0  0
  2  1  1  0
  2  3  2  0
  4  2  1  0
  5  4  1  0
  5  6  1  0
  6  7  1  1
  8  6  1  0
  8  9  2  0
 10 11  1  0
 11 13  1  0
 11 12  2  0
 13 14  1  0
 15 14  1  0
 16 15  1  0
 17 16  1  1
 17 18  1  0
 18  8  1  0
 19 17  1  0
 20 19  2  0
 21 19  1  0
 22 21  1  0
 22 26  1  0
 23 24  1  0
 22 23  1  6
 24 25  2  0
 26 27  1  0
 28 24  1  0
 29 26  2  0
M  END
$$$$
