QRD.pdb
     RDKit          3D

 29 28  0  0  1  0  0  0  0  0999 V2000
   29.1613  -23.5999  -19.6964 N   0  0  0  0  0  0  0  0  0  0  0  0
   29.6551  -22.2318  -19.7180 C   0  0  0  0  0  0  0  0  0  0  0  0
   30.4566  -21.9900  -20.6477 O   0  0  0  0  0  0  0  0  0  0  0  0
   29.2044  -21.2736  -18.6927 C   0  0  0  0  0  0  0  0  0  0  0  0
   28.2623  -21.7914  -17.6640 C   0  0  0  0  0  0  0  0  0  0  0  0
   27.0369  -20.9247  -17.5739 C   0  0  2  0  0  0  0  0  0  0  0  0
   27.3752  -19.5736  -17.2900 N   0  0  0  0  0  0  0  0  0  0  0  0
   26.0788  -21.4990  -16.5605 C   0  0  0  0  0  0  0  0  0  0  0  0
   25.6235  -22.6467  -16.7845 O   0  0  0  0  0  0  0  0  0  0  0  0
   26.6521  -20.3160   -8.2851 N   0  0  0  0  0  0  0  0  0  0  0  0
   25.4308  -20.7943   -8.8320 C   0  0  0  0  0  0  0  0  0  0  0  0
   24.3552  -20.8428   -8.0981 N   0  0  0  0  0  0  0  0  0  0  0  0
   25.3406  -21.2301  -10.1802 N   0  0  0  0  0  0  0  0  0  0  0  0
   26.5678  -21.2500  -11.0313 C   0  0  0  0  0  0  0  0  0  0  0  0
   26.1830  -21.7059  -12.3788 C   0  0  0  0  0  0  0  0  0  0  0  0
   25.0770  -21.1599  -13.1185 C   0  0  0  0  0  0  0  0  0  0  0  0
   24.6840  -21.5270  -14.4991 C   0  0  2  0  0  0  0  0  0  0  0  0
   25.6851  -20.8139  -15.4019 N   0  0  0  0  0  0  0  0  0  0  0  0
   23.4275  -20.8700  -14.9027 C   0  0  0  0  0  0  0  0  0  0  0  0
   23.5128  -19.9874  -15.8302 O   0  0  0  0  0  0  0  0  0  0  0  0
   23.4440  -21.1526   -8.4980 N   0  0  0  0  0  0  0  0  0  0  0  0
   22.1297  -21.0860  -14.4136 C   0  0  2  0  0  0  0  0  0  0  0  0
   20.9716  -20.8700  -15.2442 C   0  0  0  0  0  0  0  0  0  0  0  0
   21.0996  -21.5836  -16.5805 C   0  0  0  0  0  0  0  0  0  0  0  0
   19.9338  -21.4045  -17.4538 O   0  0  0  0  0  0  0  0  0  0  0  0
   18.9203  -20.7612  -17.0879 C   0  0  0  0  0  0  0  0  0  0  0  0
   19.7361  -21.2139  -14.5490 O   0  0  0  0  0  0  0  0  0  0  0  0
   19.7762  -21.7070  -13.2556 O   0  0  0  0  0  0  0  0  0  0  0  0
   19.9254  -21.9514  -18.7263 O   0  0  0  0  0  0  0  0  0  0  0  0
  2  1  1  0
  2  3  2  0
  4  2  1  0
  5  4  1  0
  5  6  1  0
  6  7  1  1
  8  6  1  0
  8  9  2  0
 10 11  1  0
 11 13  1  0
 11 12  2  0
 13 14  1  0
 15 14  1  0
 16 15  1  0
 17 16  1  1
 17 18  1  0
 18  8  1  0
 19 17  1  0
 20 19  2  0
 21 19  1  0
 22 21  1  0
 22 26  1  0
 23 24  1  0
 22 23  1  1
 24 25  2  0
 26 27  1  0
 28 24  1  0
 29 26  2  0
M  END
$$$$
