QRD.pdb
     RDKit          3D

 29 28  0  0  1  0  0  0  0  0999 V2000
   19.4295  -25.0668  -17.4418 N   0  0  0  0  0  0  0  0  0  0  0  0
   19.7829  -26.4603  -17.2199 C   0  0  0  0  0  0  0  0  0  0  0  0
   19.7056  -27.1784  -18.2415 O   0  0  0  0  0  0  0  0  0  0  0  0
   20.1831  -26.9098  -15.8745 C   0  0  0  0  0  0  0  0  0  0  0  0
   20.3698  -25.8511  -14.8458 C   0  0  0  0  0  0  0  0  0  0  0  0
   21.8303  -25.6195  -14.5732 C   0  0  2  0  0  0  0  0  0  0  0  0
   22.3392  -26.5571  -13.6338 N   0  0  0  0  0  0  0  0  0  0  0  0
   22.0475  -24.1936  -14.1324 C   0  0  0  0  0  0  0  0  0  0  0  0
   21.8086  -23.9195  -12.9314 O   0  0  0  0  0  0  0  0  0  0  0  0
   28.2352  -21.6114  -17.8875 N   0  0  0  0  0  0  0  0  0  0  0  0
   28.3724  -22.3697  -16.6935 C   0  0  0  0  0  0  0  0  0  0  0  0
   29.3109  -23.2675  -16.5880 N   0  0  0  0  0  0  0  0  0  0  0  0
   27.5034  -22.1776  -15.5872 N   0  0  0  0  0  0  0  0  0  0  0  0
   26.3615  -21.2223  -15.7051 C   0  0  0  0  0  0  0  0  0  0  0  0
   25.2091  -21.7956  -14.9875 C   0  0  0  0  0  0  0  0  0  0  0  0
   23.8835  -21.2396  -15.0370 C   0  0  0  0  0  0  0  0  0  0  0  0
   22.6775  -21.7985  -14.3824 C   0  0  2  0  0  0  0  0  0  0  0  0
   22.4963  -23.1832  -14.9952 N   0  0  0  0  0  0  0  0  0  0  0  0
   21.4469  -21.1280  -14.8398 C   0  0  0  0  0  0  0  0  0  0  0  0
   20.5429  -21.8771  -15.3577 O   0  0  0  0  0  0  0  0  0  0  0  0
   29.3730  -23.8859  -15.7513 N   0  0  0  0  0  0  0  0  0  0  0  0
   21.1170  -19.7652  -14.7776 C   0  0  1  0  0  0  0  0  0  0  0  0
   19.7597  -19.3150  -14.9589 C   0  0  0  0  0  0  0  0  0  0  0  0
   18.7881  -20.1021  -14.0943 C   0  0  0  0  0  0  0  0  0  0  0  0
   17.3859  -19.7142  -14.2874 O   0  0  0  0  0  0  0  0  0  0  0  0
   16.9326  -19.3941  -15.4131 C   0  0  0  0  0  0  0  0  0  0  0  0
   19.6366  -17.8751  -14.7599 O   0  0  0  0  0  0  0  0  0  0  0  0
   20.7463  -17.1194  -14.4203 O   0  0  0  0  0  0  0  0  0  0  0  0
   16.5141  -19.6922  -13.2115 O   0  0  0  0  0  0  0  0  0  0  0  0
  2  1  1  0
  2  3  2  0
  4  2  1  0
  5  4  1  0
  5  6  1  0
  6  7  1  1
  8  6  1  0
  8  9  2  0
 10 11  1  0
 11 13  1  0
 11 12  2  0
 13 14  1  0
 15 14  1  0
 16 15  1  0
 17 16  1  6
 17 18  1  0
 18  8  1  0
 19 17  1  0
 20 19  2  0
 21 19  1  0
 22 21  1  0
 22 26  1  0
 23 24  1  0
 22 23  1  6
 24 25  2  0
 26 27  1  0
 28 24  1  0
 29 26  2  0
M  END
$$$$
