QRD.pdb
     RDKit          3D

 29 28  0  0  1  0  0  0  0  0999 V2000
   16.9110  -14.2071  -17.4717 N   0  0  0  0  0  0  0  0  0  0  0  0
   18.2356  -14.6913  -17.1149 C   0  0  0  0  0  0  0  0  0  0  0  0
   18.2734  -15.9032  -16.8067 O   0  0  0  0  0  0  0  0  0  0  0  0
   19.3837  -13.7672  -17.1351 C   0  0  0  0  0  0  0  0  0  0  0  0
   19.0953  -12.3529  -17.4961 C   0  0  0  0  0  0  0  0  0  0  0  0
   19.7527  -11.4076  -16.5291 C   0  0  2  0  0  0  0  0  0  0  0  0
   20.0485  -12.0482  -15.2951 N   0  0  0  0  0  0  0  0  0  0  0  0
   18.8905  -10.1838  -16.3454 C   0  0  0  0  0  0  0  0  0  0  0  0
   18.6883   -9.4653  -17.3541 O   0  0  0  0  0  0  0  0  0  0  0  0
   11.8848   -9.7222  -11.5511 N   0  0  0  0  0  0  0  0  0  0  0  0
   13.2596   -9.9833  -11.3039 C   0  0  0  0  0  0  0  0  0  0  0  0
   13.6186  -10.7100  -10.2836 N   0  0  0  0  0  0  0  0  0  0  0  0
   14.2774   -9.4686  -12.1495 N   0  0  0  0  0  0  0  0  0  0  0  0
   13.9048   -8.5979  -13.3044 C   0  0  0  0  0  0  0  0  0  0  0  0
   15.1471   -8.1210  -13.9377 C   0  0  0  0  0  0  0  0  0  0  0  0
   16.2183   -8.9906  -14.3438 C   0  0  0  0  0  0  0  0  0  0  0  0
   17.4166   -8.5954  -15.1206 C   0  0  2  0  0  0  0  0  0  0  0  0
   18.3184   -9.8253  -15.1162 N   0  0  0  0  0  0  0  0  0  0  0  0
   18.2541   -7.6331  -14.3818 C   0  0  0  0  0  0  0  0  0  0  0  0
   18.4623   -7.8865  -13.1412 O   0  0  0  0  0  0  0  0  0  0  0  0
   14.6228  -10.9176  -10.0972 N   0  0  0  0  0  0  0  0  0  0  0  0
   18.8732   -6.4661  -14.8558 C   0  0  1  0  0  0  0  0  0  0  0  0
   19.6479   -5.6220  -13.9811 C   0  0  0  0  0  0  0  0  0  0  0  0
   21.1370   -5.9006  -14.1077 C   0  0  0  0  0  0  0  0  0  0  0  0
   21.9720   -4.9955  -13.3094 O   0  0  0  0  0  0  0  0  0  0  0  0
   21.6375   -4.6223  -12.1588 C   0  0  0  0  0  0  0  0  0  0  0  0
   19.3306   -4.2109  -14.1709 O   0  0  0  0  0  0  0  0  0  0  0  0
   18.4825   -3.8167  -15.1923 O   0  0  0  0  0  0  0  0  0  0  0  0
   23.1711   -4.5237  -13.8169 O   0  0  0  0  0  0  0  0  0  0  0  0
  2  1  1  0
  2  3  2  0
  4  2  1  0
  5  4  1  0
  5  6  1  0
  6  7  1  1
  8  6  1  0
  8  9  2  0
 10 11  1  0
 11 13  1  0
 11 12  2  0
 13 14  1  0
 15 14  1  0
 16 15  1  0
 17 16  1  1
 17 18  1  0
 18  8  1  0
 19 17  1  0
 20 19  2  0
 21 19  1  0
 22 21  1  0
 22 26  1  0
 23 24  1  0
 22 23  1  1
 24 25  2  0
 26 27  1  0
 28 24  1  0
 29 26  2  0
M  END
$$$$
