HEP.pdb
     RDKit          3D

 27 28  0  0  1  0  0  0  0  0999 V2000
    8.9413  -15.7139   20.8079 N   0  0  0  0  0  0  0  0  0  0  0  0
    8.2555  -14.6091   21.4319 C   0  0  1  0  0  0  0  0  0  0  0  0
    7.0045  -14.3466   20.5951 C   0  0  0  0  0  0  0  0  0  0  0  0
    7.3947  -14.2650   19.1421 C   0  0  0  0  0  0  0  0  0  0  0  0
    7.9791  -13.1942   18.5023 C   0  0  0  0  0  0  0  0  0  0  0  0
    8.1788  -13.4889   17.2097 N   0  0  0  0  0  0  0  0  0  0  0  0
    7.7246  -14.7393   17.0273 C   0  0  0  0  0  0  0  0  0  0  0  0
    7.2520  -15.2074   18.1916 N   0  0  0  0  0  0  0  0  0  0  0  0
    7.9398  -14.8491   22.8447 C   0  0  0  0  0  0  0  0  0  0  0  0
    7.2033  -14.0542   23.4762 O   0  0  0  0  0  0  0  0  0  0  0  0
    8.4416  -15.9630   23.5471 N   0  0  0  0  0  0  0  0  0  0  0  0
    8.1530  -16.1963   24.9529 C   0  0  1  0  0  0  0  0  0  0  0  0
    7.5352  -17.5433   25.1275 C   0  0  0  0  0  0  0  0  0  0  0  0
    7.2841  -18.0281   26.5087 C   0  0  0  0  0  0  0  0  0  0  0  0
    6.8099  -19.3843   26.6513 C   0  0  0  0  0  0  0  0  0  0  0  0
    6.6916  -20.0011   27.7177 O   0  0  0  0  0  0  0  0  0  0  0  0
    9.3046  -15.9554   25.8016 C   0  0  0  0  0  0  0  0  0  0  0  0
   10.3891  -16.5165   25.5551 O   0  0  0  0  0  0  0  0  0  0  0  0
    6.4483  -20.0720   25.4732 O   0  0  0  0  0  0  0  0  0  0  0  0
    9.2553  -15.0838   26.9266 N   0  0  0  0  0  0  0  0  0  0  0  0
    8.0639  -14.3133   27.3178 C   0  0  0  0  0  0  0  0  0  0  0  0
    8.3167  -13.7381   28.6716 C   0  0  0  0  0  0  0  0  0  0  0  0
    9.8261  -13.5445   28.6489 C   0  0  0  0  0  0  0  0  0  0  0  0
   10.2954  -14.7748   27.8742 C   0  0  1  0  0  0  0  0  0  0  0  0
   10.5378  -15.9022   28.8157 C   0  0  0  0  0  0  0  0  0  0  0  0
    9.6593  -16.9552   28.9052 O   0  0  0  0  0  0  0  0  0  0  0  0
   11.5574  -15.8770   29.5282 O   0  0  0  0  0  0  0  0  0  0  0  0
  2  1  1  6
  2  3  1  0
  3  4  1  0
  4  5  2  0
  4  8  1  0
  5  6  1  0
  6  7  1  0
  8  7  2  0
  9  2  1  0
  9 10  2  0
 11  9  1  0
 12 11  1  0
 12 17  1  0
 12 13  1  6
 14 13  1  0
 15 14  1  0
 16 15  2  0
 17 20  1  0
 18 17  2  0
 19 15  1  0
 20 24  1  0
 20 21  1  0
 21 22  1  0
 23 22  1  0
 24 23  1  0
 25 26  1  0
 24 25  1  1
 27 25  2  0
M  END
$$$$
