HEP.pdb
     RDKit          3D

 27 28  0  0  1  0  0  0  0  0999 V2000
    6.4130  -16.9667   20.0676 N   0  0  0  0  0  0  0  0  0  0  0  0
    7.0820  -15.9042   20.7774 C   0  0  1  0  0  0  0  0  0  0  0  0
    6.6516  -14.5987   20.1104 C   0  0  0  0  0  0  0  0  0  0  0  0
    7.7505  -14.1322   19.1913 C   0  0  0  0  0  0  0  0  0  0  0  0
    8.5859  -13.0537   19.3829 C   0  0  0  0  0  0  0  0  0  0  0  0
    9.4379  -12.9483   18.3530 N   0  0  0  0  0  0  0  0  0  0  0  0
    9.1472  -13.9531   17.5110 C   0  0  0  0  0  0  0  0  0  0  0  0
    8.1304  -14.6667   18.0157 N   0  0  0  0  0  0  0  0  0  0  0  0
    6.8068  -15.9098   22.2188 C   0  0  0  0  0  0  0  0  0  0  0  0
    5.6352  -15.7679   22.6435 O   0  0  0  0  0  0  0  0  0  0  0  0
    7.8274  -16.0700   23.1771 N   0  0  0  0  0  0  0  0  0  0  0  0
    7.5561  -16.1485   24.6034 C   0  0  1  0  0  0  0  0  0  0  0  0
    7.5873  -17.5724   25.0483 C   0  0  0  0  0  0  0  0  0  0  0  0
    7.4446  -17.8592   26.4986 C   0  0  0  0  0  0  0  0  0  0  0  0
    7.6055  -19.2325   26.9141 C   0  0  0  0  0  0  0  0  0  0  0  0
    8.4238  -20.0374   26.4513 O   0  0  0  0  0  0  0  0  0  0  0  0
    8.4061  -15.2643   25.3779 C   0  0  0  0  0  0  0  0  0  0  0  0
    9.6454  -15.3632   25.2985 O   0  0  0  0  0  0  0  0  0  0  0  0
    6.7565  -19.7038   27.9382 O   0  0  0  0  0  0  0  0  0  0  0  0
    7.8800  -14.2615   26.2412 N   0  0  0  0  0  0  0  0  0  0  0  0
    6.4419  -14.0120   26.4305 C   0  0  0  0  0  0  0  0  0  0  0  0
    6.2886  -13.0832   27.5887 C   0  0  0  0  0  0  0  0  0  0  0  0
    7.5717  -12.2691   27.5049 C   0  0  0  0  0  0  0  0  0  0  0  0
    8.5906  -13.3208   27.0691 C   0  0  1  0  0  0  0  0  0  0  0  0
    9.1832  -13.9767   28.2669 C   0  0  0  0  0  0  0  0  0  0  0  0
    8.8503  -15.2651   28.6098 O   0  0  0  0  0  0  0  0  0  0  0  0
    9.9923  -13.3347   28.9607 O   0  0  0  0  0  0  0  0  0  0  0  0
  2  1  1  6
  2  3  1  0
  3  4  1  0
  4  5  2  0
  4  8  1  0
  5  6  1  0
  6  7  1  0
  8  7  2  0
  9  2  1  0
  9 10  2  0
 11  9  1  0
 12 11  1  0
 12 17  1  0
 12 13  1  1
 14 13  1  0
 15 14  1  0
 16 15  2  0
 17 20  1  0
 18 17  2  0
 19 15  1  0
 20 24  1  0
 20 21  1  0
 21 22  1  0
 23 22  1  0
 24 23  1  0
 25 26  1  0
 24 25  1  1
 27 25  2  0
M  END
$$$$
