HEP.pdb
     RDKit          3D

 27 28  0  0  1  0  0  0  0  0999 V2000
    9.2106  -18.0444   20.6232 N   0  0  0  0  0  0  0  0  0  0  0  0
    8.9053  -16.6354   20.6690 C   0  0  1  0  0  0  0  0  0  0  0  0
    8.2923  -16.2802   19.3154 C   0  0  0  0  0  0  0  0  0  0  0  0
    8.1684  -14.7822   19.2112 C   0  0  0  0  0  0  0  0  0  0  0  0
    8.5789  -13.8524   20.1411 C   0  0  0  0  0  0  0  0  0  0  0  0
    8.3027  -12.6160   19.7022 N   0  0  0  0  0  0  0  0  0  0  0  0
    7.7201  -12.7572   18.5007 C   0  0  0  0  0  0  0  0  0  0  0  0
    7.6389  -14.0625   18.2045 N   0  0  0  0  0  0  0  0  0  0  0  0
    8.0304  -16.2702   21.7891 C   0  0  0  0  0  0  0  0  0  0  0  0
    6.7966  -16.4878   21.7301 O   0  0  0  0  0  0  0  0  0  0  0  0
    8.5257  -15.6669   22.9624 N   0  0  0  0  0  0  0  0  0  0  0  0
    7.8004  -15.6943   24.2223 C   0  0  1  0  0  0  0  0  0  0  0  0
    7.4705  -17.1029   24.5874 C   0  0  0  0  0  0  0  0  0  0  0  0
    6.6459  -17.8995   23.6433 C   0  0  0  0  0  0  0  0  0  0  0  0
    6.3398  -19.2577   24.0253 C   0  0  0  0  0  0  0  0  0  0  0  0
    5.2427  -19.6668   24.4262 O   0  0  0  0  0  0  0  0  0  0  0  0
    8.4789  -14.9519   25.2677 C   0  0  0  0  0  0  0  0  0  0  0  0
    9.7040  -15.0973   25.4410 O   0  0  0  0  0  0  0  0  0  0  0  0
    7.3806  -20.2067   23.9360 O   0  0  0  0  0  0  0  0  0  0  0  0
    7.7971  -14.0395   26.1222 N   0  0  0  0  0  0  0  0  0  0  0  0
    6.3593  -13.7403   26.0250 C   0  0  0  0  0  0  0  0  0  0  0  0
    5.9731  -12.9580   27.2360 C   0  0  0  0  0  0  0  0  0  0  0  0
    7.2614  -12.2088   27.5445 C   0  0  0  0  0  0  0  0  0  0  0  0
    8.3267  -13.2495   27.2041 C   0  0  1  0  0  0  0  0  0  0  0  0
    8.6214  -14.0814   28.4029 C   0  0  0  0  0  0  0  0  0  0  0  0
    9.4452  -13.6218   29.4022 O   0  0  0  0  0  0  0  0  0  0  0  0
    8.1063  -15.2108   28.4878 O   0  0  0  0  0  0  0  0  0  0  0  0
  2  1  1  6
  2  3  1  0
  3  4  1  0
  4  5  2  0
  4  8  1  0
  5  6  1  0
  6  7  1  0
  8  7  2  0
  9  2  1  0
  9 10  2  0
 11  9  1  0
 12 11  1  0
 12 17  1  0
 12 13  1  1
 14 13  1  0
 15 14  1  0
 16 15  2  0
 17 20  1  0
 18 17  2  0
 19 15  1  0
 20 24  1  0
 20 21  1  0
 21 22  1  0
 23 22  1  0
 24 23  1  0
 25 26  1  0
 24 25  1  1
 27 25  2  0
M  END
$$$$
