HEP.pdb
     RDKit          3D

 27 28  0  0  1  0  0  0  0  0999 V2000
    8.1658  -16.2769   19.9924 N   0  0  0  0  0  0  0  0  0  0  0  0
    7.9743  -15.0337   20.6984 C   0  0  1  0  0  0  0  0  0  0  0  0
    7.0549  -14.1780   19.8285 C   0  0  0  0  0  0  0  0  0  0  0  0
    7.7081  -13.9636   18.4878 C   0  0  0  0  0  0  0  0  0  0  0  0
    8.4516  -12.8721   18.0958 C   0  0  0  0  0  0  0  0  0  0  0  0
    8.8699  -13.0352   16.8326 N   0  0  0  0  0  0  0  0  0  0  0  0
    8.3963  -14.2228   16.4225 C   0  0  0  0  0  0  0  0  0  0  0  0
    7.6960  -14.7826   17.4196 N   0  0  0  0  0  0  0  0  0  0  0  0
    7.4460  -15.2156   22.0553 C   0  0  0  0  0  0  0  0  0  0  0  0
    6.2763  -14.8604   22.3357 O   0  0  0  0  0  0  0  0  0  0  0  0
    8.2145  -15.7859   23.0896 N   0  0  0  0  0  0  0  0  0  0  0  0
    7.7337  -15.8845   24.4583 C   0  0  1  0  0  0  0  0  0  0  0  0
    7.4633  -17.3116   24.7996 C   0  0  0  0  0  0  0  0  0  0  0  0
    7.0760  -17.6396   26.1955 C   0  0  0  0  0  0  0  0  0  0  0  0
    7.1088  -19.0323   26.5748 C   0  0  0  0  0  0  0  0  0  0  0  0
    6.6894  -19.5022   27.6401 O   0  0  0  0  0  0  0  0  0  0  0  0
    8.6005  -15.2015   25.3999 C   0  0  0  0  0  0  0  0  0  0  0  0
    9.8071  -15.5037   25.4691 O   0  0  0  0  0  0  0  0  0  0  0  0
    7.6682  -19.9425   25.6526 O   0  0  0  0  0  0  0  0  0  0  0  0
    8.1287  -14.1743   26.2659 N   0  0  0  0  0  0  0  0  0  0  0  0
    6.7433  -13.6773   26.2730 C   0  0  0  0  0  0  0  0  0  0  0  0
    6.5762  -12.8092   27.4756 C   0  0  0  0  0  0  0  0  0  0  0  0
    7.9778  -12.2410   27.6446 C   0  0  0  0  0  0  0  0  0  0  0  0
    8.8548  -13.4329   27.2650 C   0  0  1  0  0  0  0  0  0  0  0  0
    9.1343  -14.2589   28.4715 C   0  0  0  0  0  0  0  0  0  0  0  0
   10.0957  -13.8874   29.3804 O   0  0  0  0  0  0  0  0  0  0  0  0
    8.4785  -15.3017   28.6467 O   0  0  0  0  0  0  0  0  0  0  0  0
  2  1  1  6
  2  3  1  0
  3  4  1  0
  4  5  2  0
  4  8  1  0
  5  6  1  0
  6  7  1  0
  8  7  2  0
  9  2  1  0
  9 10  2  0
 11  9  1  0
 12 11  1  0
 12 17  1  0
 12 13  1  1
 14 13  1  0
 15 14  1  0
 16 15  2  0
 17 20  1  0
 18 17  2  0
 19 15  1  0
 20 24  1  0
 20 21  1  0
 21 22  1  0
 23 22  1  0
 24 23  1  0
 25 26  1  0
 24 25  1  1
 27 25  2  0
M  END
$$$$
