HEP.pdb
     RDKit          3D

 27 28  0  0  1  0  0  0  0  0999 V2000
    7.0887  -16.6394   19.9894 N   0  0  0  0  0  0  0  0  0  0  0  0
    7.4085  -15.4858   20.7940 C   0  0  1  0  0  0  0  0  0  0  0  0
    6.6861  -14.2993   20.1577 C   0  0  0  0  0  0  0  0  0  0  0  0
    7.4359  -13.8741   18.9220 C   0  0  0  0  0  0  0  0  0  0  0  0
    8.2454  -12.7677   18.7863 C   0  0  0  0  0  0  0  0  0  0  0  0
    8.7414  -12.7155   17.5418 N   0  0  0  0  0  0  0  0  0  0  0  0
    8.2512  -13.7816   16.8890 C   0  0  0  0  0  0  0  0  0  0  0  0
    7.4644  -14.4800   17.7204 N   0  0  0  0  0  0  0  0  0  0  0  0
    7.0611  -15.6548   22.2097 C   0  0  0  0  0  0  0  0  0  0  0  0
    5.8709  -15.8501   22.5539 O   0  0  0  0  0  0  0  0  0  0  0  0
    8.0302  -15.6048   23.2314 N   0  0  0  0  0  0  0  0  0  0  0  0
    7.7161  -15.8892   24.6223 C   0  0  1  0  0  0  0  0  0  0  0  0
    7.5927  -17.3625   24.8237 C   0  0  0  0  0  0  0  0  0  0  0  0
    7.3033  -17.8634   26.1916 C   0  0  0  0  0  0  0  0  0  0  0  0
    7.1792  -19.2927   26.3536 C   0  0  0  0  0  0  0  0  0  0  0  0
    8.0147  -20.1359   26.0034 O   0  0  0  0  0  0  0  0  0  0  0  0
    8.6308  -15.2376   25.5406 C   0  0  0  0  0  0  0  0  0  0  0  0
    9.8509  -15.4826   25.4840 O   0  0  0  0  0  0  0  0  0  0  0  0
    6.0026  -19.7763   26.9647 O   0  0  0  0  0  0  0  0  0  0  0  0
    8.1916  -14.3057   26.5235 N   0  0  0  0  0  0  0  0  0  0  0  0
    6.7850  -13.9185   26.7185 C   0  0  0  0  0  0  0  0  0  0  0  0
    6.6976  -13.1423   27.9903 C   0  0  0  0  0  0  0  0  0  0  0  0
    8.0663  -12.4791   28.0431 C   0  0  0  0  0  0  0  0  0  0  0  0
    8.9746  -13.5738   27.4860 C   0  0  1  0  0  0  0  0  0  0  0  0
    9.4482  -14.4491   28.5932 C   0  0  0  0  0  0  0  0  0  0  0  0
   10.4614  -14.0500   29.4313 O   0  0  0  0  0  0  0  0  0  0  0  0
    8.9082  -15.5590   28.7500 O   0  0  0  0  0  0  0  0  0  0  0  0
  2  1  1  6
  2  3  1  0
  3  4  1  0
  4  5  2  0
  4  8  1  0
  5  6  1  0
  6  7  1  0
  8  7  2  0
  9  2  1  0
  9 10  2  0
 11  9  1  0
 12 11  1  0
 12 17  1  0
 12 13  1  6
 14 13  1  0
 15 14  1  0
 16 15  2  0
 17 20  1  0
 18 17  2  0
 19 15  1  0
 20 24  1  0
 20 21  1  0
 21 22  1  0
 23 22  1  0
 24 23  1  0
 25 26  1  0
 24 25  1  1
 27 25  2  0
M  END
$$$$
