HEP.pdb
     RDKit          3D

 27 28  0  0  1  0  0  0  0  0999 V2000
    7.5225  -16.3836   19.9548 N   0  0  0  0  0  0  0  0  0  0  0  0
    7.6880  -15.1797   20.7317 C   0  0  1  0  0  0  0  0  0  0  0  0
    6.9086  -14.0843   20.0056 C   0  0  0  0  0  0  0  0  0  0  0  0
    7.5630  -13.8168   18.6751 C   0  0  0  0  0  0  0  0  0  0  0  0
    8.3687  -12.7476   18.3505 C   0  0  0  0  0  0  0  0  0  0  0  0
    8.7661  -12.8472   17.0739 N   0  0  0  0  0  0  0  0  0  0  0  0
    8.2172  -13.9724   16.5885 C   0  0  0  0  0  0  0  0  0  0  0  0
    7.4920  -14.5569   17.5530 N   0  0  0  0  0  0  0  0  0  0  0  0
    7.2648  -15.3311   22.1286 C   0  0  0  0  0  0  0  0  0  0  0  0
    6.0598  -15.1915   22.4472 O   0  0  0  0  0  0  0  0  0  0  0  0
    8.1760  -15.6330   23.1603 N   0  0  0  0  0  0  0  0  0  0  0  0
    7.7602  -15.8236   24.5404 C   0  0  1  0  0  0  0  0  0  0  0  0
    7.6337  -17.2807   24.8358 C   0  0  0  0  0  0  0  0  0  0  0  0
    7.1783  -17.6868   26.1899 C   0  0  0  0  0  0  0  0  0  0  0  0
    7.1019  -19.1034   26.4583 C   0  0  0  0  0  0  0  0  0  0  0  0
    7.8469  -19.7375   27.2164 O   0  0  0  0  0  0  0  0  0  0  0  0
    8.5977  -15.0973   25.4761 C   0  0  0  0  0  0  0  0  0  0  0  0
    9.8341  -15.2475   25.4525 O   0  0  0  0  0  0  0  0  0  0  0  0
    6.0900  -19.8344   25.8000 O   0  0  0  0  0  0  0  0  0  0  0  0
    8.0625  -14.1957   26.4396 N   0  0  0  0  0  0  0  0  0  0  0  0
    6.6237  -13.9419   26.6175 C   0  0  0  0  0  0  0  0  0  0  0  0
    6.4509  -13.1569   27.8750 C   0  0  0  0  0  0  0  0  0  0  0  0
    7.7494  -12.3648   27.9266 C   0  0  0  0  0  0  0  0  0  0  0  0
    8.7633  -13.3766   27.3951 C   0  0  1  0  0  0  0  0  0  0  0  0
    9.3084  -14.1842   28.5206 C   0  0  0  0  0  0  0  0  0  0  0  0
   10.2833  -13.6823   29.3489 O   0  0  0  0  0  0  0  0  0  0  0  0
    8.8645  -15.3322   28.7021 O   0  0  0  0  0  0  0  0  0  0  0  0
  2  1  1  6
  2  3  1  0
  3  4  1  0
  4  5  2  0
  4  8  1  0
  5  6  1  0
  6  7  1  0
  8  7  2  0
  9  2  1  0
  9 10  2  0
 11  9  1  0
 12 11  1  0
 12 17  1  0
 12 13  1  1
 14 13  1  0
 15 14  1  0
 16 15  2  0
 17 20  1  0
 18 17  2  0
 19 15  1  0
 20 24  1  0
 20 21  1  0
 21 22  1  0
 23 22  1  0
 24 23  1  0
 25 26  1  0
 24 25  1  1
 27 25  2  0
M  END
$$$$
