HEP.pdb
     RDKit          3D

 27 28  0  0  1  0  0  0  0  0999 V2000
    7.3931  -16.6578   19.8923 N   0  0  0  0  0  0  0  0  0  0  0  0
    7.5913  -15.3918   20.5545 C   0  0  1  0  0  0  0  0  0  0  0  0
    6.8801  -14.3411   19.7033 C   0  0  0  0  0  0  0  0  0  0  0  0
    7.5857  -14.2249   18.3771 C   0  0  0  0  0  0  0  0  0  0  0  0
    8.6980  -14.9275   17.9685 C   0  0  0  0  0  0  0  0  0  0  0  0
    9.0413  -14.5557   16.7269 N   0  0  0  0  0  0  0  0  0  0  0  0
    8.1536  -13.6226   16.3471 C   0  0  0  0  0  0  0  0  0  0  0  0
    7.2763  -13.4229   17.3413 N   0  0  0  0  0  0  0  0  0  0  0  0
    7.1257  -15.3889   21.9461 C   0  0  0  0  0  0  0  0  0  0  0  0
    5.9261  -15.1408   22.2153 O   0  0  0  0  0  0  0  0  0  0  0  0
    7.9891  -15.6578   23.0269 N   0  0  0  0  0  0  0  0  0  0  0  0
    7.5370  -15.6553   24.4088 C   0  0  1  0  0  0  0  0  0  0  0  0
    7.2911  -17.0546   24.8648 C   0  0  0  0  0  0  0  0  0  0  0  0
    6.4885  -17.9482   23.9911 C   0  0  0  0  0  0  0  0  0  0  0  0
    6.3285  -19.3164   24.4231 C   0  0  0  0  0  0  0  0  0  0  0  0
    6.7453  -19.7929   25.4866 O   0  0  0  0  0  0  0  0  0  0  0  0
    8.4137  -14.8921   25.2766 C   0  0  0  0  0  0  0  0  0  0  0  0
    9.6462  -15.0673   25.2277 O   0  0  0  0  0  0  0  0  0  0  0  0
    5.6364  -20.1924   23.5597 O   0  0  0  0  0  0  0  0  0  0  0  0
    7.9225  -13.9258   26.1999 N   0  0  0  0  0  0  0  0  0  0  0  0
    6.5200  -13.4832   26.2580 C   0  0  0  0  0  0  0  0  0  0  0  0
    6.3462  -12.6799   27.5038 C   0  0  0  0  0  0  0  0  0  0  0  0
    7.7289  -12.0668   27.6724 C   0  0  0  0  0  0  0  0  0  0  0  0
    8.6416  -13.2050   27.2190 C   0  0  1  0  0  0  0  0  0  0  0  0
    8.9775  -14.0757   28.3788 C   0  0  0  0  0  0  0  0  0  0  0  0
    9.9476  -13.7136   29.2822 O   0  0  0  0  0  0  0  0  0  0  0  0
    8.3613  -15.1473   28.5196 O   0  0  0  0  0  0  0  0  0  0  0  0
  2  1  1  6
  2  3  1  0
  3  4  1  0
  4  5  2  0
  4  8  1  0
  5  6  1  0
  6  7  1  0
  8  7  2  0
  9  2  1  0
  9 10  2  0
 11  9  1  0
 12 11  1  0
 12 17  1  0
 12 13  1  1
 14 13  1  0
 15 14  1  0
 16 15  2  0
 17 20  1  0
 18 17  2  0
 19 15  1  0
 20 24  1  0
 20 21  1  0
 21 22  1  0
 23 22  1  0
 24 23  1  0
 25 26  1  0
 24 25  1  1
 27 25  2  0
M  END
$$$$
