HEP.pdb
     RDKit          3D

 27 28  0  0  1  0  0  0  0  0999 V2000
    8.7327  -15.6625   20.3181 N   0  0  0  0  0  0  0  0  0  0  0  0
    8.0755  -14.4842   20.8281 C   0  0  1  0  0  0  0  0  0  0  0  0
    6.9402  -14.1658   19.8566 C   0  0  0  0  0  0  0  0  0  0  0  0
    7.4947  -14.1066   18.4569 C   0  0  0  0  0  0  0  0  0  0  0  0
    8.1199  -13.0336   17.8604 C   0  0  0  0  0  0  0  0  0  0  0  0
    8.4771  -13.3525   16.6081 N   0  0  0  0  0  0  0  0  0  0  0  0
    8.0822  -14.6202   16.4082 C   0  0  0  0  0  0  0  0  0  0  0  0
    7.4901  -15.0750   17.5220 N   0  0  0  0  0  0  0  0  0  0  0  0
    7.6002  -14.6396   22.2077 C   0  0  0  0  0  0  0  0  0  0  0  0
    6.8978  -13.7489   22.7430 O   0  0  0  0  0  0  0  0  0  0  0  0
    7.9062  -15.7755   22.9835 N   0  0  0  0  0  0  0  0  0  0  0  0
    7.5501  -15.8821   24.3892 C   0  0  1  0  0  0  0  0  0  0  0  0
    7.3309  -17.3133   24.7501 C   0  0  0  0  0  0  0  0  0  0  0  0
    7.0162  -17.6417   26.1639 C   0  0  0  0  0  0  0  0  0  0  0  0
    6.8921  -19.0403   26.5000 C   0  0  0  0  0  0  0  0  0  0  0  0
    7.2455  -19.5628   27.5648 O   0  0  0  0  0  0  0  0  0  0  0  0
    8.4872  -15.1878   25.2517 C   0  0  0  0  0  0  0  0  0  0  0  0
    9.6813  -15.5413   25.2875 O   0  0  0  0  0  0  0  0  0  0  0  0
    6.3178  -19.8913   25.5316 O   0  0  0  0  0  0  0  0  0  0  0  0
    8.1002  -14.0923   26.0750 N   0  0  0  0  0  0  0  0  0  0  0  0
    6.7664  -13.4708   26.0425 C   0  0  0  0  0  0  0  0  0  0  0  0
    6.6636  -12.5499   27.2126 C   0  0  0  0  0  0  0  0  0  0  0  0
    8.1091  -12.1066   27.3858 C   0  0  0  0  0  0  0  0  0  0  0  0
    8.8779  -13.3862   27.0607 C   0  0  1  0  0  0  0  0  0  0  0  0
    9.0640  -14.1919   28.2986 C   0  0  0  0  0  0  0  0  0  0  0  0
   10.0339  -13.8701   29.2173 O   0  0  0  0  0  0  0  0  0  0  0  0
    8.3213  -15.1714   28.4912 O   0  0  0  0  0  0  0  0  0  0  0  0
  2  1  1  6
  2  3  1  0
  3  4  1  0
  4  5  2  0
  4  8  1  0
  5  6  1  0
  6  7  1  0
  8  7  2  0
  9  2  1  0
  9 10  2  0
 11  9  1  0
 12 11  1  0
 12 17  1  0
 12 13  1  1
 14 13  1  0
 15 14  1  0
 16 15  2  0
 17 20  1  0
 18 17  2  0
 19 15  1  0
 20 24  1  0
 20 21  1  0
 21 22  1  0
 23 22  1  0
 24 23  1  0
 25 26  1  0
 24 25  1  1
 27 25  2  0
M  END
$$$$
