HEP.pdb
     RDKit          3D

 27 28  0  0  1  0  0  0  0  0999 V2000
    7.1460  -16.6686   20.0487 N   0  0  0  0  0  0  0  0  0  0  0  0
    7.4846  -15.4991   20.8221 C   0  0  1  0  0  0  0  0  0  0  0  0
    6.7899  -14.3171   20.1481 C   0  0  0  0  0  0  0  0  0  0  0  0
    7.5028  -13.9992   18.8594 C   0  0  0  0  0  0  0  0  0  0  0  0
    8.3986  -12.9756   18.6413 C   0  0  0  0  0  0  0  0  0  0  0  0
    8.8254  -13.0062   17.3706 N   0  0  0  0  0  0  0  0  0  0  0  0
    8.2056  -14.0424   16.7832 C   0  0  0  0  0  0  0  0  0  0  0  0
    7.4085  -14.6410   17.6800 N   0  0  0  0  0  0  0  0  0  0  0  0
    7.1261  -15.6207   22.2399 C   0  0  0  0  0  0  0  0  0  0  0  0
    5.9370  -15.4730   22.6105 O   0  0  0  0  0  0  0  0  0  0  0  0
    8.0836  -15.9022   23.2347 N   0  0  0  0  0  0  0  0  0  0  0  0
    7.7306  -16.0707   24.6351 C   0  0  1  0  0  0  0  0  0  0  0  0
    7.5316  -17.5182   24.9377 C   0  0  0  0  0  0  0  0  0  0  0  0
    7.2062  -17.9065   26.3338 C   0  0  0  0  0  0  0  0  0  0  0  0
    7.0470  -19.3162   26.6020 C   0  0  0  0  0  0  0  0  0  0  0  0
    6.7753  -20.1859   25.7644 O   0  0  0  0  0  0  0  0  0  0  0  0
    8.6591  -15.3990   25.5245 C   0  0  0  0  0  0  0  0  0  0  0  0
    9.8690  -15.6949   25.5018 O   0  0  0  0  0  0  0  0  0  0  0  0
    7.2147  -19.7455   27.9359 O   0  0  0  0  0  0  0  0  0  0  0  0
    8.2453  -14.3903   26.4404 N   0  0  0  0  0  0  0  0  0  0  0  0
    6.8430  -13.9954   26.6497 C   0  0  0  0  0  0  0  0  0  0  0  0
    6.7917  -13.1158   27.8545 C   0  0  0  0  0  0  0  0  0  0  0  0
    8.1561  -12.4435   27.8055 C   0  0  0  0  0  0  0  0  0  0  0  0
    9.0541  -13.5764   27.3115 C   0  0  1  0  0  0  0  0  0  0  0  0
    9.5710  -14.3535   28.4713 C   0  0  0  0  0  0  0  0  0  0  0  0
    9.1150  -15.6223   28.7370 O   0  0  0  0  0  0  0  0  0  0  0  0
   10.4304  -13.8321   29.2045 O   0  0  0  0  0  0  0  0  0  0  0  0
  2  1  1  6
  2  3  1  0
  3  4  1  0
  4  5  2  0
  4  8  1  0
  5  6  1  0
  6  7  1  0
  8  7  2  0
  9  2  1  0
  9 10  2  0
 11  9  1  0
 12 11  1  0
 12 17  1  0
 12 13  1  1
 14 13  1  0
 15 14  1  0
 16 15  2  0
 17 20  1  0
 18 17  2  0
 19 15  1  0
 20 24  1  0
 20 21  1  0
 21 22  1  0
 23 22  1  0
 24 23  1  0
 25 26  1  0
 24 25  1  1
 27 25  2  0
M  END
$$$$
