HEP.pdb
     RDKit          3D

 27 28  0  0  1  0  0  0  0  0999 V2000
    8.9524  -15.4792   20.5064 N   0  0  0  0  0  0  0  0  0  0  0  0
    8.0546  -14.4381   20.9428 C   0  0  1  0  0  0  0  0  0  0  0  0
    6.9234  -14.3827   19.9173 C   0  0  0  0  0  0  0  0  0  0  0  0
    7.5127  -14.1582   18.5489 C   0  0  0  0  0  0  0  0  0  0  0  0
    8.3330  -13.1211   18.1624 C   0  0  0  0  0  0  0  0  0  0  0  0
    8.6573  -13.2543   16.8683 N   0  0  0  0  0  0  0  0  0  0  0  0
    8.0477  -14.3688   16.4333 C   0  0  0  0  0  0  0  0  0  0  0  0
    7.3578  -14.9138   17.4458 N   0  0  0  0  0  0  0  0  0  0  0  0
    7.5579  -14.6390   22.3089 C   0  0  0  0  0  0  0  0  0  0  0  0
    6.7177  -13.8496   22.8031 O   0  0  0  0  0  0  0  0  0  0  0  0
    7.9948  -15.7078   23.1167 N   0  0  0  0  0  0  0  0  0  0  0  0
    7.6300  -15.8285   24.5190 C   0  0  1  0  0  0  0  0  0  0  0  0
    7.3172  -17.2514   24.8414 C   0  0  0  0  0  0  0  0  0  0  0  0
    6.2087  -17.9118   24.1058 C   0  0  0  0  0  0  0  0  0  0  0  0
    5.9716  -19.3069   24.3922 C   0  0  0  0  0  0  0  0  0  0  0  0
    5.8506  -19.8039   25.5191 O   0  0  0  0  0  0  0  0  0  0  0  0
    8.6090  -15.2202   25.3999 C   0  0  0  0  0  0  0  0  0  0  0  0
    9.7962  -15.5963   25.3670 O   0  0  0  0  0  0  0  0  0  0  0  0
    5.8682  -20.1860   23.2929 O   0  0  0  0  0  0  0  0  0  0  0  0
    8.2716  -14.1858   26.3185 N   0  0  0  0  0  0  0  0  0  0  0  0
    6.9420  -13.5596   26.3990 C   0  0  0  0  0  0  0  0  0  0  0  0
    6.9049  -12.7251   27.6359 C   0  0  0  0  0  0  0  0  0  0  0  0
    8.3602  -12.2997   27.7663 C   0  0  0  0  0  0  0  0  0  0  0  0
    9.1030  -13.5548   27.3113 C   0  0  1  0  0  0  0  0  0  0  0  0
    9.3464  -14.4482   28.4769 C   0  0  0  0  0  0  0  0  0  0  0  0
   10.3774  -14.2086   29.3533 O   0  0  0  0  0  0  0  0  0  0  0  0
    8.5955  -15.4254   28.6478 O   0  0  0  0  0  0  0  0  0  0  0  0
  2  1  1  6
  2  3  1  0
  3  4  1  0
  4  5  2  0
  4  8  1  0
  5  6  1  0
  6  7  1  0
  8  7  2  0
  9  2  1  0
  9 10  2  0
 11  9  1  0
 12 11  1  0
 12 17  1  0
 12 13  1  1
 14 13  1  0
 15 14  1  0
 16 15  2  0
 17 20  1  0
 18 17  2  0
 19 15  1  0
 20 24  1  0
 20 21  1  0
 21 22  1  0
 23 22  1  0
 24 23  1  0
 25 26  1  0
 24 25  1  1
 27 25  2  0
M  END
$$$$
