HEP.pdb
     RDKit          3D

 27 28  0  0  1  0  0  0  0  0999 V2000
    7.9261  -16.7653   20.0708 N   0  0  0  0  0  0  0  0  0  0  0  0
    7.7151  -15.4644   20.6569 C   0  0  1  0  0  0  0  0  0  0  0  0
    6.8932  -14.6626   19.6490 C   0  0  0  0  0  0  0  0  0  0  0  0
    7.7522  -14.3551   18.4499 C   0  0  0  0  0  0  0  0  0  0  0  0
    8.6487  -13.3172   18.3199 C   0  0  0  0  0  0  0  0  0  0  0  0
    9.2280  -13.3638   17.1117 N   0  0  0  0  0  0  0  0  0  0  0  0
    8.7041  -14.4243   16.4763 C   0  0  0  0  0  0  0  0  0  0  0  0
    7.8146  -15.0220   17.2824 N   0  0  0  0  0  0  0  0  0  0  0  0
    7.0751  -15.5224   21.9762 C   0  0  0  0  0  0  0  0  0  0  0  0
    5.8964  -15.9344   22.0942 O   0  0  0  0  0  0  0  0  0  0  0  0
    7.7417  -15.1233   23.1518 N   0  0  0  0  0  0  0  0  0  0  0  0
    7.1574  -15.2798   24.4740 C   0  0  1  0  0  0  0  0  0  0  0  0
    6.7003  -16.6875   24.6634 C   0  0  0  0  0  0  0  0  0  0  0  0
    7.7008  -17.7764   24.5250 C   0  0  0  0  0  0  0  0  0  0  0  0
    7.5109  -18.9493   25.3453 C   0  0  0  0  0  0  0  0  0  0  0  0
    7.8678  -19.0736   26.5238 O   0  0  0  0  0  0  0  0  0  0  0  0
    8.0288  -14.7906   25.5256 C   0  0  0  0  0  0  0  0  0  0  0  0
    9.2173  -15.1608   25.5730 O   0  0  0  0  0  0  0  0  0  0  0  0
    6.8615  -20.0548   24.7555 O   0  0  0  0  0  0  0  0  0  0  0  0
    7.5820  -13.8822   26.5269 N   0  0  0  0  0  0  0  0  0  0  0  0
    6.1867  -13.4351   26.6675 C   0  0  0  0  0  0  0  0  0  0  0  0
    6.0681  -12.7120   27.9677 C   0  0  0  0  0  0  0  0  0  0  0  0
    7.4616  -12.1200   28.1212 C   0  0  0  0  0  0  0  0  0  0  0  0
    8.3460  -13.2327   27.5611 C   0  0  1  0  0  0  0  0  0  0  0  0
    8.7183  -14.1780   28.6492 C   0  0  0  0  0  0  0  0  0  0  0  0
    9.6867  -13.8566   29.5698 O   0  0  0  0  0  0  0  0  0  0  0  0
    8.1345  -15.2748   28.7136 O   0  0  0  0  0  0  0  0  0  0  0  0
  2  1  1  6
  2  3  1  0
  3  4  1  0
  4  5  2  0
  4  8  1  0
  5  6  1  0
  6  7  1  0
  8  7  2  0
  9  2  1  0
  9 10  2  0
 11  9  1  0
 12 11  1  0
 12 17  1  0
 12 13  1  1
 14 13  1  0
 15 14  1  0
 16 15  2  0
 17 20  1  0
 18 17  2  0
 19 15  1  0
 20 24  1  0
 20 21  1  0
 21 22  1  0
 23 22  1  0
 24 23  1  0
 25 26  1  0
 24 25  1  1
 27 25  2  0
M  END
$$$$
