NAH.pdb
     RDKit          3D

 24 24  0  0  1  0  0  0  0  0999 V2000
    8.7467  -19.1088   16.0031 N   0  0  0  0  0  0  0  0  0  0  0  0
    9.4445  -18.9654   17.2258 C   0  0  0  0  0  0  0  0  0  0  0  0
   10.0271  -19.9643   17.6983 O   0  0  0  0  0  0  0  0  0  0  0  0
    9.4752  -17.6604   17.9164 C   0  0  0  0  0  0  0  0  0  0  0  0
    9.3025  -17.8876   19.3822 C   0  0  2  0  0  0  0  0  0  0  0  0
    8.0192  -18.5200   19.5918 N   0  0  0  0  0  0  0  0  0  0  0  0
    9.3916  -16.6405   20.1781 C   0  0  0  0  0  0  0  0  0  0  0  0
   10.5093  -16.0875   20.3380 O   0  0  0  0  0  0  0  0  0  0  0  0
    7.0315  -14.1544   21.7884 C   0  0  0  0  0  0  0  0  0  0  0  0
    8.3403  -14.8803   21.6458 C   0  0  2  0  0  0  0  0  0  0  0  0
    8.2693  -16.0243   20.7802 N   0  0  0  0  0  0  0  0  0  0  0  0
    8.8338  -15.2134   23.0006 C   0  0  0  0  0  0  0  0  0  0  0  0
    8.2795  -16.1724   23.5950 O   0  0  0  0  0  0  0  0  0  0  0  0
    9.8712  -14.5360   23.6622 N   0  0  0  0  0  0  0  0  0  0  0  0
   10.2481  -14.7553   25.0506 C   0  0  1  0  0  0  0  0  0  0  0  0
    9.1343  -14.4742   25.9905 C   0  0  0  0  0  0  0  0  0  0  0  0
    9.5686  -14.6373   27.3935 C   0  0  0  0  0  0  0  0  0  0  0  0
    9.8824  -15.7875   28.1023 C   0  0  0  0  0  0  0  0  0  0  0  0
   10.2039  -15.4606   29.3609 N   0  0  0  0  0  0  0  0  0  0  0  0
   10.1078  -14.1433   29.4858 C   0  0  0  0  0  0  0  0  0  0  0  0
    9.7296  -13.6418   28.3192 N   0  0  0  0  0  0  0  0  0  0  0  0
   10.7404  -16.1368   25.1718 C   0  0  0  0  0  0  0  0  0  0  0  0
   12.0696  -16.4966   25.3252 O   0  0  0  0  0  0  0  0  0  0  0  0
    9.9243  -17.1004   25.1365 O   0  0  0  0  0  0  0  0  0  0  0  0
  2  1  1  0
  3  2  2  0
  4  5  1  0
  4  2  1  0
  5  6  1  6
  7 11  1  0
  7  5  1  0
  8  7  2  0
 10  9  1  1
 10 12  1  0
 10 11  1  0
 12 14  1  0
 13 12  2  0
 14 15  1  0
 15 16  1  1
 15 22  1  0
 17 16  1  0
 18 17  2  0
 19 20  1  0
 19 18  1  0
 20 21  2  0
 21 17  1  0
 22 24  2  0
 22 23  1  0
M  END
$$$$
