NAH.pdb
     RDKit          3D

 24 24  0  0  1  0  0  0  0  0999 V2000
    8.5255  -13.2054   15.0757 N   0  0  0  0  0  0  0  0  0  0  0  0
    7.7751  -14.1215   15.8506 C   0  0  0  0  0  0  0  0  0  0  0  0
    7.3996  -15.1855   15.3145 O   0  0  0  0  0  0  0  0  0  0  0  0
    7.4506  -13.8145   17.2582 C   0  0  0  0  0  0  0  0  0  0  0  0
    8.4332  -14.5107   18.1412 C   0  0  2  0  0  0  0  0  0  0  0  0
    8.2948  -15.9350   17.9342 N   0  0  0  0  0  0  0  0  0  0  0  0
    8.2572  -14.1854   19.5765 C   0  0  0  0  0  0  0  0  0  0  0  0
    8.5324  -13.0293   19.9868 O   0  0  0  0  0  0  0  0  0  0  0  0
    6.3162  -15.3797   22.4823 C   0  0  0  0  0  0  0  0  0  0  0  0
    7.5984  -14.8280   21.9239 C   0  0  2  0  0  0  0  0  0  0  0  0
    7.7881  -15.1192   20.5303 N   0  0  0  0  0  0  0  0  0  0  0  0
    8.7144  -15.3076   22.7692 C   0  0  0  0  0  0  0  0  0  0  0  0
    9.2059  -16.4305   22.4903 O   0  0  0  0  0  0  0  0  0  0  0  0
    9.2575  -14.5988   23.8534 N   0  0  0  0  0  0  0  0  0  0  0  0
    9.2643  -15.0713   25.2299 C   0  0  1  0  0  0  0  0  0  0  0  0
    7.8968  -15.1873   25.7951 C   0  0  0  0  0  0  0  0  0  0  0  0
    7.3342  -13.8561   26.1032 C   0  0  0  0  0  0  0  0  0  0  0  0
    7.9103  -12.5985   26.0007 C   0  0  0  0  0  0  0  0  0  0  0  0
    7.0345  -11.6730   26.4138 N   0  0  0  0  0  0  0  0  0  0  0  0
    5.9180  -12.2902   26.7778 C   0  0  0  0  0  0  0  0  0  0  0  0
    6.0851  -13.5922   26.5971 N   0  0  0  0  0  0  0  0  0  0  0  0
    9.9886  -16.3519   25.2638 C   0  0  0  0  0  0  0  0  0  0  0  0
   10.3896  -17.0682   24.1476 O   0  0  0  0  0  0  0  0  0  0  0  0
   10.2867  -16.8764   26.3736 O   0  0  0  0  0  0  0  0  0  0  0  0
  2  1  1  0
  3  2  2  0
  4  5  1  0
  4  2  1  0
  5  6  1  1
  7 11  1  0
  7  5  1  0
  8  7  2  0
 10  9  1  1
 10 12  1  0
 10 11  1  0
 12 14  1  0
 13 12  2  0
 14 15  1  0
 15 16  1  6
 15 22  1  0
 17 16  1  0
 18 17  2  0
 19 20  1  0
 19 18  1  0
 20 21  2  0
 21 17  1  0
 22 24  2  0
 22 23  1  0
M  END
$$$$
