NAH.pdb
     RDKit          3D

 24 24  0  0  1  0  0  0  0  0999 V2000
   13.4654  -18.4582   18.2996 N   0  0  0  0  0  0  0  0  0  0  0  0
   12.7309  -17.3424   17.8327 C   0  0  0  0  0  0  0  0  0  0  0  0
   12.5550  -17.2193   16.6022 O   0  0  0  0  0  0  0  0  0  0  0  0
   12.1907  -16.3544   18.7883 C   0  0  0  0  0  0  0  0  0  0  0  0
   10.7073  -16.5119   18.8559 C   0  0  2  0  0  0  0  0  0  0  0  0
   10.1531  -16.1098   17.5823 N   0  0  0  0  0  0  0  0  0  0  0  0
   10.0889  -15.7273   19.9508 C   0  0  0  0  0  0  0  0  0  0  0  0
   10.7867  -14.8979   20.5878 O   0  0  0  0  0  0  0  0  0  0  0  0
    6.6388  -15.3871   21.5281 C   0  0  0  0  0  0  0  0  0  0  0  0
    8.1179  -15.1449   21.4115 C   0  0  2  0  0  0  0  0  0  0  0  0
    8.7317  -15.8604   20.3279 N   0  0  0  0  0  0  0  0  0  0  0  0
    8.7391  -15.4409   22.7216 C   0  0  0  0  0  0  0  0  0  0  0  0
    9.4293  -16.4880   22.8076 O   0  0  0  0  0  0  0  0  0  0  0  0
    8.6108  -14.6375   23.8667 N   0  0  0  0  0  0  0  0  0  0  0  0
    9.1797  -14.9558   25.1678 C   0  0  1  0  0  0  0  0  0  0  0  0
    9.0916  -13.8185   26.1174 C   0  0  0  0  0  0  0  0  0  0  0  0
    9.6431  -14.1849   27.4385 C   0  0  0  0  0  0  0  0  0  0  0  0
   10.1918  -15.3815   27.8755 C   0  0  0  0  0  0  0  0  0  0  0  0
   10.5410  -15.2666   29.1635 N   0  0  0  0  0  0  0  0  0  0  0  0
   10.2365  -14.0407   29.5691 C   0  0  0  0  0  0  0  0  0  0  0  0
    9.7004  -13.3867   28.5490 N   0  0  0  0  0  0  0  0  0  0  0  0
    8.4984  -16.1568   25.6766 C   0  0  0  0  0  0  0  0  0  0  0  0
    9.0987  -17.1519   26.4310 O   0  0  0  0  0  0  0  0  0  0  0  0
    7.2727  -16.3366   25.4293 O   0  0  0  0  0  0  0  0  0  0  0  0
  2  1  1  0
  3  2  2  0
  4  5  1  0
  4  2  1  0
  5  6  1  6
  7 11  1  0
  7  5  1  0
  8  7  2  0
 10  9  1  1
 10 12  1  0
 10 11  1  0
 12 14  1  0
 13 12  2  0
 14 15  1  0
 15 16  1  1
 15 22  1  0
 17 16  1  0
 18 17  2  0
 19 20  1  0
 19 18  1  0
 20 21  2  0
 21 17  1  0
 22 24  2  0
 22 23  1  0
M  END
$$$$
