NAH.pdb
     RDKit          3D

 24 24  0  0  1  0  0  0  0  0999 V2000
    7.7303  -16.2073   13.0681 N   0  0  0  0  0  0  0  0  0  0  0  0
    9.0842  -15.9305   13.3730 C   0  0  0  0  0  0  0  0  0  0  0  0
    9.9663  -16.3476   12.5933 O   0  0  0  0  0  0  0  0  0  0  0  0
    9.4319  -15.1654   14.5874 C   0  0  0  0  0  0  0  0  0  0  0  0
    8.7091  -15.7575   15.7523 C   0  0  2  0  0  0  0  0  0  0  0  0
    7.2945  -15.5162   15.5747 N   0  0  0  0  0  0  0  0  0  0  0  0
    9.1592  -15.2111   17.0544 C   0  0  0  0  0  0  0  0  0  0  0  0
   10.3141  -15.4803   17.4721 O   0  0  0  0  0  0  0  0  0  0  0  0
    7.8091  -12.8662   19.7252 C   0  0  0  0  0  0  0  0  0  0  0  0
    8.7134  -13.9390   19.1853 C   0  0  2  0  0  0  0  0  0  0  0  0
    8.3482  -14.3876   17.8707 N   0  0  0  0  0  0  0  0  0  0  0  0
    8.7674  -15.0384   20.1744 C   0  0  0  0  0  0  0  0  0  0  0  0
    7.9713  -15.9977   20.0122 O   0  0  0  0  0  0  0  0  0  0  0  0
    9.6409  -15.0826   21.2735 N   0  0  0  0  0  0  0  0  0  0  0  0
    9.8643  -16.2555   22.1054 C   0  0  1  0  0  0  0  0  0  0  0  0
   10.3728  -17.4126   21.3272 C   0  0  0  0  0  0  0  0  0  0  0  0
    9.2780  -18.0845   20.5967 C   0  0  0  0  0  0  0  0  0  0  0  0
    8.0070  -18.4397   21.0236 C   0  0  0  0  0  0  0  0  0  0  0  0
    7.3582  -19.0542   20.0257 N   0  0  0  0  0  0  0  0  0  0  0  0
    8.1660  -19.1067   18.9746 C   0  0  0  0  0  0  0  0  0  0  0  0
    9.3136  -18.5316   19.3034 N   0  0  0  0  0  0  0  0  0  0  0  0
   10.7812  -15.8712   23.1903 C   0  0  0  0  0  0  0  0  0  0  0  0
   11.1324  -16.6806   24.2586 O   0  0  0  0  0  0  0  0  0  0  0  0
   11.3105  -14.7242   23.1894 O   0  0  0  0  0  0  0  0  0  0  0  0
  2  1  1  0
  3  2  2  0
  4  5  1  0
  4  2  1  0
  5  6  1  6
  7 11  1  0
  7  5  1  0
  8  7  2  0
 10  9  1  1
 10 12  1  0
 10 11  1  0
 12 14  1  0
 13 12  2  0
 14 15  1  0
 15 16  1  6
 15 22  1  0
 17 16  1  0
 18 17  2  0
 19 20  1  0
 19 18  1  0
 20 21  2  0
 21 17  1  0
 22 24  2  0
 22 23  1  0
M  END
$$$$
