NAH.pdb
     RDKit          3D

 24 24  0  0  1  0  0  0  0  0999 V2000
    6.7306  -14.9429   14.5842 N   0  0  0  0  0  0  0  0  0  0  0  0
    7.5164  -15.9537   15.1871 C   0  0  0  0  0  0  0  0  0  0  0  0
    7.5092  -17.0946   14.6788 O   0  0  0  0  0  0  0  0  0  0  0  0
    8.3212  -15.6532   16.3884 C   0  0  0  0  0  0  0  0  0  0  0  0
    7.9300  -14.3079   16.9053 C   0  0  2  0  0  0  0  0  0  0  0  0
    8.3148  -13.3187   15.9234 N   0  0  0  0  0  0  0  0  0  0  0  0
    8.5422  -13.9886   18.2167 C   0  0  0  0  0  0  0  0  0  0  0  0
    9.7513  -13.6479   18.2682 O   0  0  0  0  0  0  0  0  0  0  0  0
    7.4316  -13.8515   21.8564 C   0  0  0  0  0  0  0  0  0  0  0  0
    8.4308  -13.8910   20.7338 C   0  0  2  0  0  0  0  0  0  0  0  0
    7.8305  -14.0462   19.4382 N   0  0  0  0  0  0  0  0  0  0  0  0
    9.4251  -14.9441   21.0373 C   0  0  0  0  0  0  0  0  0  0  0  0
    9.2781  -16.0553   20.4682 O   0  0  0  0  0  0  0  0  0  0  0  0
   10.5134  -14.7877   21.9113 N   0  0  0  0  0  0  0  0  0  0  0  0
   11.4947  -15.8220   22.2032 C   0  0  1  0  0  0  0  0  0  0  0  0
   12.8877  -15.3128   22.1459 C   0  0  0  0  0  0  0  0  0  0  0  0
   13.3108  -15.0774   20.7498 C   0  0  0  0  0  0  0  0  0  0  0  0
   12.6274  -15.2925   19.5621 C   0  0  0  0  0  0  0  0  0  0  0  0
   13.4127  -14.9573   18.5300 N   0  0  0  0  0  0  0  0  0  0  0  0
   14.5746  -14.5354   19.0115 C   0  0  0  0  0  0  0  0  0  0  0  0
   14.5254  -14.6026   20.3339 N   0  0  0  0  0  0  0  0  0  0  0  0
   11.1679  -16.3957   23.5184 C   0  0  0  0  0  0  0  0  0  0  0  0
   11.8195  -17.4709   24.1008 O   0  0  0  0  0  0  0  0  0  0  0  0
   10.2274  -15.9033   24.2029 O   0  0  0  0  0  0  0  0  0  0  0  0
  2  1  1  0
  3  2  2  0
  4  5  1  0
  4  2  1  0
  5  6  1  6
  7 11  1  0
  7  5  1  0
  8  7  2  0
 10  9  1  1
 10 12  1  0
 10 11  1  0
 12 14  1  0
 13 12  2  0
 14 15  1  0
 15 16  1  1
 15 22  1  0
 17 16  1  0
 18 17  2  0
 19 20  1  0
 19 18  1  0
 20 21  2  0
 21 17  1  0
 22 24  2  0
 22 23  1  0
M  END
$$$$
