NAH.pdb
     RDKit          3D

 24 24  0  0  1  0  0  0  0  0999 V2000
   11.2115  -12.0285   10.6043 N   0  0  0  0  0  0  0  0  0  0  0  0
   10.0587  -12.8490   10.6249 C   0  0  0  0  0  0  0  0  0  0  0  0
    9.3984  -12.9728    9.5718 O   0  0  0  0  0  0  0  0  0  0  0  0
    9.6571  -13.5369   11.8685 C   0  0  0  0  0  0  0  0  0  0  0  0
    9.2109  -14.9212   11.5299 C   0  0  2  0  0  0  0  0  0  0  0  0
    7.9337  -14.8312   10.8580 N   0  0  0  0  0  0  0  0  0  0  0  0
    9.1011  -15.8029   12.7162 C   0  0  0  0  0  0  0  0  0  0  0  0
    8.0925  -15.7141   13.4615 O   0  0  0  0  0  0  0  0  0  0  0  0
   10.8458  -18.8572   14.0939 C   0  0  0  0  0  0  0  0  0  0  0  0
   10.0127  -17.6119   14.2176 C   0  0  2  0  0  0  0  0  0  0  0  0
   10.0853  -16.7576   13.0652 N   0  0  0  0  0  0  0  0  0  0  0  0
   10.3955  -16.9227   15.4700 C   0  0  0  0  0  0  0  0  0  0  0  0
   11.2053  -15.9658   15.3756 O   0  0  0  0  0  0  0  0  0  0  0  0
    9.9192  -17.2625   16.7469 N   0  0  0  0  0  0  0  0  0  0  0  0
   10.3141  -16.5986   17.9803 C   0  0  1  0  0  0  0  0  0  0  0  0
    9.1487  -16.2262   18.8206 C   0  0  0  0  0  0  0  0  0  0  0  0
    8.4944  -15.0034   18.3104 C   0  0  0  0  0  0  0  0  0  0  0  0
    8.8170  -14.2068   17.2218 C   0  0  0  0  0  0  0  0  0  0  0  0
    7.9577  -13.1816   17.1506 N   0  0  0  0  0  0  0  0  0  0  0  0
    7.0960  -13.2910   18.1533 C   0  0  0  0  0  0  0  0  0  0  0  0
    7.4062  -14.3735   18.8516 N   0  0  0  0  0  0  0  0  0  0  0  0
   11.2490  -17.4856   18.6908 C   0  0  0  0  0  0  0  0  0  0  0  0
   12.2018  -17.0674   19.6057 O   0  0  0  0  0  0  0  0  0  0  0  0
   11.2174  -18.7307   18.4800 O   0  0  0  0  0  0  0  0  0  0  0  0
  2  1  1  0
  3  2  2  0
  4  5  1  0
  4  2  1  0
  5  6  1  1
  7 11  1  0
  7  5  1  0
  8  7  2  0
 10  9  1  6
 10 12  1  0
 10 11  1  0
 12 14  1  0
 13 12  2  0
 14 15  1  0
 15 16  1  1
 15 22  1  0
 17 16  1  0
 18 17  2  0
 19 20  1  0
 19 18  1  0
 20 21  2  0
 21 17  1  0
 22 24  2  0
 22 23  1  0
M  END
$$$$
