NAH.pdb
     RDKit          3D

 24 24  0  0  1  0  0  0  0  0999 V2000
    9.1154  -16.6609   12.6081 N   0  0  0  0  0  0  0  0  0  0  0  0
    8.1224  -16.3467   13.5661 C   0  0  0  0  0  0  0  0  0  0  0  0
    6.9831  -16.8388   13.4245 O   0  0  0  0  0  0  0  0  0  0  0  0
    8.4389  -15.4568   14.7014 C   0  0  0  0  0  0  0  0  0  0  0  0
    8.2782  -16.2235   15.9728 C   0  0  2  0  0  0  0  0  0  0  0  0
    6.8905  -16.6121   16.0922 N   0  0  0  0  0  0  0  0  0  0  0  0
    8.6972  -15.4574   17.1704 C   0  0  0  0  0  0  0  0  0  0  0  0
    9.9143  -15.1919   17.3400 O   0  0  0  0  0  0  0  0  0  0  0  0
    7.0310  -13.7583   20.1362 C   0  0  0  0  0  0  0  0  0  0  0  0
    8.1771  -14.3863   19.3929 C   0  0  2  0  0  0  0  0  0  0  0  0
    7.7886  -14.9987   18.1532 N   0  0  0  0  0  0  0  0  0  0  0  0
    8.8625  -15.3252   20.3087 C   0  0  0  0  0  0  0  0  0  0  0  0
    8.4362  -16.5072   20.3455 O   0  0  0  0  0  0  0  0  0  0  0  0
    9.9485  -14.9879   21.1332 N   0  0  0  0  0  0  0  0  0  0  0  0
   10.6138  -15.9092   22.0422 C   0  0  1  0  0  0  0  0  0  0  0  0
   11.9767  -15.4531   22.4129 C   0  0  0  0  0  0  0  0  0  0  0  0
   12.5984  -16.3732   23.3879 C   0  0  0  0  0  0  0  0  0  0  0  0
   12.0192  -17.1281   24.3971 C   0  0  0  0  0  0  0  0  0  0  0  0
   12.9738  -17.8009   25.0531 N   0  0  0  0  0  0  0  0  0  0  0  0
   14.1440  -17.5053   24.5023 C   0  0  0  0  0  0  0  0  0  0  0  0
   13.9325  -16.6549   23.5085 N   0  0  0  0  0  0  0  0  0  0  0  0
    9.7487  -16.0848   23.2197 C   0  0  0  0  0  0  0  0  0  0  0  0
    8.7154  -15.2353   23.5808 O   0  0  0  0  0  0  0  0  0  0  0  0
    9.9268  -17.0705   23.9894 O   0  0  0  0  0  0  0  0  0  0  0  0
  2  1  1  0
  3  2  2  0
  4  5  1  0
  4  2  1  0
  5  6  1  1
  7 11  1  0
  7  5  1  0
  8  7  2  0
 10  9  1  1
 10 12  1  0
 10 11  1  0
 12 14  1  0
 13 12  2  0
 14 15  1  0
 15 16  1  1
 15 22  1  0
 17 16  1  0
 18 17  2  0
 19 20  1  0
 19 18  1  0
 20 21  2  0
 21 17  1  0
 22 24  2  0
 22 23  1  0
M  END
$$$$
