NAH.pdb
     RDKit          3D

 24 24  0  0  1  0  0  0  0  0999 V2000
   10.7750  -19.1922   15.6345 N   0  0  0  0  0  0  0  0  0  0  0  0
    9.9694  -18.0318   15.5505 C   0  0  0  0  0  0  0  0  0  0  0  0
    9.1430  -17.9483   14.6175 O   0  0  0  0  0  0  0  0  0  0  0  0
   10.1124  -16.9528   16.5487 C   0  0  0  0  0  0  0  0  0  0  0  0
    8.9480  -17.0037   17.4823 C   0  0  2  0  0  0  0  0  0  0  0  0
    7.7532  -16.6929   16.7295 N   0  0  0  0  0  0  0  0  0  0  0  0
    9.0824  -16.0758   18.6301 C   0  0  0  0  0  0  0  0  0  0  0  0
   10.1036  -16.1397   19.3607 O   0  0  0  0  0  0  0  0  0  0  0  0
    6.9850  -13.3353   20.2451 C   0  0  0  0  0  0  0  0  0  0  0  0
    8.1535  -14.2743   20.1298 C   0  0  2  0  0  0  0  0  0  0  0  0
    8.1086  -15.1030   18.9576 N   0  0  0  0  0  0  0  0  0  0  0  0
    8.2439  -15.0552   21.3836 C   0  0  0  0  0  0  0  0  0  0  0  0
    7.4870  -16.0525   21.4960 O   0  0  0  0  0  0  0  0  0  0  0  0
    9.1113  -14.7599   22.4482 N   0  0  0  0  0  0  0  0  0  0  0  0
    9.1442  -15.4807   23.7120 C   0  0  1  0  0  0  0  0  0  0  0  0
   10.5285  -15.7696   24.1629 C   0  0  0  0  0  0  0  0  0  0  0  0
   11.1815  -16.7553   23.2766 C   0  0  0  0  0  0  0  0  0  0  0  0
   10.6621  -17.4839   22.2168 C   0  0  0  0  0  0  0  0  0  0  0  0
   11.6157  -18.2790   21.7140 N   0  0  0  0  0  0  0  0  0  0  0  0
   12.7275  -18.0877   22.4122 C   0  0  0  0  0  0  0  0  0  0  0  0
   12.4805  -17.1813   23.3466 N   0  0  0  0  0  0  0  0  0  0  0  0
    8.3924  -14.6917   24.7010 C   0  0  0  0  0  0  0  0  0  0  0  0
    8.0357  -15.1332   25.9650 O   0  0  0  0  0  0  0  0  0  0  0  0
    8.0216  -13.5178   24.4182 O   0  0  0  0  0  0  0  0  0  0  0  0
  2  1  1  0
  3  2  2  0
  4  5  1  0
  4  2  1  0
  5  6  1  6
  7 11  1  0
  7  5  1  0
  8  7  2  0
 10  9  1  1
 10 12  1  0
 10 11  1  0
 12 14  1  0
 13 12  2  0
 14 15  1  0
 15 16  1  1
 15 22  1  0
 17 16  1  0
 18 17  2  0
 19 20  1  0
 19 18  1  0
 20 21  2  0
 21 17  1  0
 22 24  2  0
 22 23  1  0
M  END
$$$$
