NAH.pdb
     RDKit          3D

 24 24  0  0  1  0  0  0  0  0999 V2000
    6.5664  -18.4890   18.4376 N   0  0  0  0  0  0  0  0  0  0  0  0
    7.1640  -17.9766   17.2616 C   0  0  0  0  0  0  0  0  0  0  0  0
    8.0889  -18.6284   16.7325 O   0  0  0  0  0  0  0  0  0  0  0  0
    6.6955  -16.7007   16.6840 C   0  0  0  0  0  0  0  0  0  0  0  0
    7.8731  -15.8069   16.4736 C   0  0  2  0  0  0  0  0  0  0  0  0
    8.8799  -16.5511   15.7502 N   0  0  0  0  0  0  0  0  0  0  0  0
    8.4386  -15.2829   17.7394 C   0  0  0  0  0  0  0  0  0  0  0  0
    9.6087  -15.6005   18.0722 O   0  0  0  0  0  0  0  0  0  0  0  0
    7.2877  -13.0087   20.5710 C   0  0  0  0  0  0  0  0  0  0  0  0
    8.2276  -13.9482   19.8681 C   0  0  2  0  0  0  0  0  0  0  0  0
    7.7236  -14.4291   18.6121 N   0  0  0  0  0  0  0  0  0  0  0  0
    8.5755  -15.0399   20.8047 C   0  0  0  0  0  0  0  0  0  0  0  0
    7.7633  -15.9944   20.9027 O   0  0  0  0  0  0  0  0  0  0  0  0
    9.7424  -15.0817   21.5854 N   0  0  0  0  0  0  0  0  0  0  0  0
   10.0404  -16.1088   22.5724 C   0  0  1  0  0  0  0  0  0  0  0  0
   11.4705  -16.5059   22.5617 C   0  0  0  0  0  0  0  0  0  0  0  0
   11.7875  -17.3196   21.3696 C   0  0  0  0  0  0  0  0  0  0  0  0
   10.9452  -17.8657   20.4125 C   0  0  0  0  0  0  0  0  0  0  0  0
   11.6714  -18.5523   19.5206 N   0  0  0  0  0  0  0  0  0  0  0  0
   12.9483  -18.4670   19.8702 C   0  0  0  0  0  0  0  0  0  0  0  0
   13.0296  -17.7345   20.9713 N   0  0  0  0  0  0  0  0  0  0  0  0
    9.6143  -15.6070   23.8885 C   0  0  0  0  0  0  0  0  0  0  0  0
    9.0656  -14.3565   24.1230 O   0  0  0  0  0  0  0  0  0  0  0  0
    9.7416  -16.3374   24.9112 O   0  0  0  0  0  0  0  0  0  0  0  0
  2  1  1  0
  3  2  2  0
  4  5  1  0
  4  2  1  0
  5  6  1  1
  7 11  1  0
  7  5  1  0
  8  7  2  0
 10  9  1  1
 10 12  1  0
 10 11  1  0
 12 14  1  0
 13 12  2  0
 14 15  1  0
 15 16  1  1
 15 22  1  0
 17 16  1  0
 18 17  2  0
 19 20  1  0
 19 18  1  0
 20 21  2  0
 21 17  1  0
 22 24  2  0
 22 23  1  0
M  END
$$$$
