NAH.pdb
     RDKit          3D

 24 24  0  0  1  0  0  0  0  0999 V2000
    7.9623  -20.7603   19.9675 N   0  0  0  0  0  0  0  0  0  0  0  0
    8.6340  -19.9296   19.0393 C   0  0  0  0  0  0  0  0  0  0  0  0
    8.9566  -20.4134   17.9338 O   0  0  0  0  0  0  0  0  0  0  0  0
    8.9401  -18.5262   19.3823 C   0  0  0  0  0  0  0  0  0  0  0  0
    8.5855  -18.2927   20.8140 C   0  0  2  0  0  0  0  0  0  0  0  0
    7.1638  -18.5072   20.9668 N   0  0  0  0  0  0  0  0  0  0  0  0
    8.9498  -16.9369   21.2893 C   0  0  0  0  0  0  0  0  0  0  0  0
   10.1579  -16.5887   21.2986 O   0  0  0  0  0  0  0  0  0  0  0  0
    7.1757  -13.6880   21.9758 C   0  0  0  0  0  0  0  0  0  0  0  0
    8.3156  -14.6529   22.1485 C   0  0  2  0  0  0  0  0  0  0  0  0
    7.9978  -15.9932   21.7420 N   0  0  0  0  0  0  0  0  0  0  0  0
    8.7809  -14.5718   23.5510 C   0  0  0  0  0  0  0  0  0  0  0  0
    9.0687  -13.4321   23.9966 O   0  0  0  0  0  0  0  0  0  0  0  0
    8.9215  -15.6731   24.4113 N   0  0  0  0  0  0  0  0  0  0  0  0
    9.4163  -15.5968   25.7778 C   0  0  1  0  0  0  0  0  0  0  0  0
    8.3199  -15.4731   26.7705 C   0  0  0  0  0  0  0  0  0  0  0  0
    7.6917  -14.1372   26.7051 C   0  0  0  0  0  0  0  0  0  0  0  0
    8.2404  -12.8817   26.9211 C   0  0  0  0  0  0  0  0  0  0  0  0
    7.2893  -11.9497   26.7763 N   0  0  0  0  0  0  0  0  0  0  0  0
    6.1507  -12.5607   26.4758 C   0  0  0  0  0  0  0  0  0  0  0  0
    6.3785  -13.8652   26.4307 N   0  0  0  0  0  0  0  0  0  0  0  0
   10.2534  -16.7824   26.0214 C   0  0  0  0  0  0  0  0  0  0  0  0
   10.9046  -17.0649   27.2113 O   0  0  0  0  0  0  0  0  0  0  0  0
   10.4206  -17.6334   25.1029 O   0  0  0  0  0  0  0  0  0  0  0  0
  2  1  1  0
  3  2  2  0
  4  5  1  0
  4  2  1  0
  5  6  1  6
  7 11  1  0
  7  5  1  0
  8  7  2  0
 10  9  1  1
 10 12  1  0
 10 11  1  0
 12 14  1  0
 13 12  2  0
 14 15  1  0
 15 16  1  1
 15 22  1  0
 17 16  1  0
 18 17  2  0
 19 20  1  0
 19 18  1  0
 20 21  2  0
 21 17  1  0
 22 24  2  0
 22 23  1  0
M  END
$$$$
