NAH.pdb
     RDKit          3D

 24 24  0  0  1  0  0  0  0  0999 V2000
   15.3465  -15.7812   18.2000 N   0  0  0  0  0  0  0  0  0  0  0  0
   14.7227  -14.5874   18.6339 C   0  0  0  0  0  0  0  0  0  0  0  0
   15.0572  -13.5118   18.0939 O   0  0  0  0  0  0  0  0  0  0  0  0
   13.7021  -14.6264   19.7006 C   0  0  0  0  0  0  0  0  0  0  0  0
   12.4867  -15.3192   19.1784 C   0  0  2  0  0  0  0  0  0  0  0  0
   11.8410  -14.4412   18.2281 N   0  0  0  0  0  0  0  0  0  0  0  0
   11.5331  -15.7036   20.2459 C   0  0  0  0  0  0  0  0  0  0  0  0
   10.7882  -14.8278   20.7545 O   0  0  0  0  0  0  0  0  0  0  0  0
   10.2814  -18.9028   21.8515 C   0  0  0  0  0  0  0  0  0  0  0  0
   10.5180  -17.4194   21.7896 C   0  0  2  0  0  0  0  0  0  0  0  0
   11.4103  -17.0255   20.7353 N   0  0  0  0  0  0  0  0  0  0  0  0
   10.9693  -16.9676   23.1245 C   0  0  0  0  0  0  0  0  0  0  0  0
   12.2048  -16.8043   23.2892 O   0  0  0  0  0  0  0  0  0  0  0  0
   10.1176  -16.7107   24.2115 N   0  0  0  0  0  0  0  0  0  0  0  0
   10.5432  -16.1295   25.4759 C   0  0  1  0  0  0  0  0  0  0  0  0
    9.4544  -15.3771   26.1478 C   0  0  0  0  0  0  0  0  0  0  0  0
    9.9090  -14.8254   27.4411 C   0  0  0  0  0  0  0  0  0  0  0  0
   11.1183  -14.9818   28.1022 C   0  0  0  0  0  0  0  0  0  0  0  0
   11.0794  -14.3163   29.2640 N   0  0  0  0  0  0  0  0  0  0  0  0
    9.8899  -13.7390   29.3730 C   0  0  0  0  0  0  0  0  0  0  0  0
    9.1835  -14.0357   28.2919 N   0  0  0  0  0  0  0  0  0  0  0  0
   11.0675  -17.2164   26.3183 C   0  0  0  0  0  0  0  0  0  0  0  0
   12.1561  -17.1086   27.1686 O   0  0  0  0  0  0  0  0  0  0  0  0
   10.5152  -18.3522   26.2949 O   0  0  0  0  0  0  0  0  0  0  0  0
  2  1  1  0
  3  2  2  0
  4  5  1  0
  4  2  1  0
  5  6  1  6
  7 11  1  0
  7  5  1  0
  8  7  2  0
 10  9  1  1
 10 12  1  0
 10 11  1  0
 12 14  1  0
 13 12  2  0
 14 15  1  0
 15 16  1  1
 15 22  1  0
 17 16  1  0
 18 17  2  0
 19 20  1  0
 19 18  1  0
 20 21  2  0
 21 17  1  0
 22 24  2  0
 22 23  1  0
M  END
$$$$
