NAH.pdb
     RDKit          3D

 24 24  0  0  1  0  0  0  0  0999 V2000
    7.7874  -12.3268   17.0119 N   0  0  0  0  0  0  0  0  0  0  0  0
    7.9855  -13.7229   16.8921 C   0  0  0  0  0  0  0  0  0  0  0  0
    8.4476  -14.1678   15.8203 O   0  0  0  0  0  0  0  0  0  0  0  0
    7.6496  -14.6211   18.0152 C   0  0  0  0  0  0  0  0  0  0  0  0
    8.8286  -14.7128   18.9270 C   0  0  2  0  0  0  0  0  0  0  0  0
    9.9749  -15.1137   18.1422 N   0  0  0  0  0  0  0  0  0  0  0  0
    8.6235  -15.6593   20.0489 C   0  0  0  0  0  0  0  0  0  0  0  0
    7.6696  -15.4750   20.8469 O   0  0  0  0  0  0  0  0  0  0  0  0
   10.1986  -18.8805   21.3187 C   0  0  0  0  0  0  0  0  0  0  0  0
    9.3667  -17.6332   21.4305 C   0  0  2  0  0  0  0  0  0  0  0  0
    9.4556  -16.7804   20.2783 N   0  0  0  0  0  0  0  0  0  0  0  0
    9.7351  -16.9435   22.6869 C   0  0  0  0  0  0  0  0  0  0  0  0
   10.6384  -16.0718   22.6211 O   0  0  0  0  0  0  0  0  0  0  0  0
    9.1485  -17.1947   23.9382 N   0  0  0  0  0  0  0  0  0  0  0  0
    9.5548  -16.5615   25.1839 C   0  0  1  0  0  0  0  0  0  0  0  0
    8.3954  -16.1262   26.0019 C   0  0  0  0  0  0  0  0  0  0  0  0
    7.7938  -14.8914   25.4569 C   0  0  0  0  0  0  0  0  0  0  0  0
    8.2301  -14.0627   24.4338 C   0  0  0  0  0  0  0  0  0  0  0  0
    7.3775  -13.0388   24.2965 N   0  0  0  0  0  0  0  0  0  0  0  0
    6.4106  -13.1797   25.1938 C   0  0  0  0  0  0  0  0  0  0  0  0
    6.6483  -14.2808   25.8914 N   0  0  0  0  0  0  0  0  0  0  0  0
   10.4211  -17.5053   25.9081 C   0  0  0  0  0  0  0  0  0  0  0  0
   10.7843  -18.7619   25.4514 O   0  0  0  0  0  0  0  0  0  0  0  0
   10.8906  -17.1882   27.0372 O   0  0  0  0  0  0  0  0  0  0  0  0
  2  1  1  0
  3  2  2  0
  4  5  1  0
  4  2  1  0
  5  6  1  6
  7 11  1  0
  7  5  1  0
  8  7  2  0
 10  9  1  6
 10 12  1  0
 10 11  1  0
 12 14  1  0
 13 12  2  0
 14 15  1  0
 15 16  1  1
 15 22  1  0
 17 16  1  0
 18 17  2  0
 19 20  1  0
 19 18  1  0
 20 21  2  0
 21 17  1  0
 22 24  2  0
 22 23  1  0
M  END
$$$$
