NAH.pdb
     RDKit          3D

 24 24  0  0  1  0  0  0  0  0999 V2000
    8.6497  -18.8257   15.7174 N   0  0  0  0  0  0  0  0  0  0  0  0
    7.3495  -18.2792   15.8340 C   0  0  0  0  0  0  0  0  0  0  0  0
    6.7901  -17.8509   14.8025 O   0  0  0  0  0  0  0  0  0  0  0  0
    6.6813  -18.2227   17.1498 C   0  0  0  0  0  0  0  0  0  0  0  0
    7.6515  -18.6519   18.2007 C   0  0  2  0  0  0  0  0  0  0  0  0
    7.8219  -20.0841   18.0986 N   0  0  0  0  0  0  0  0  0  0  0  0
    7.2227  -18.2866   19.5716 C   0  0  0  0  0  0  0  0  0  0  0  0
    6.8692  -17.1048   19.8147 O   0  0  0  0  0  0  0  0  0  0  0  0
    6.4390  -20.0965   22.8110 C   0  0  0  0  0  0  0  0  0  0  0  0
    6.7570  -18.8877   21.9756 C   0  0  2  0  0  0  0  0  0  0  0  0
    7.1875  -19.2093   20.6437 N   0  0  0  0  0  0  0  0  0  0  0  0
    7.7379  -18.0612   22.7137 C   0  0  0  0  0  0  0  0  0  0  0  0
    8.9522  -18.3625   22.5908 O   0  0  0  0  0  0  0  0  0  0  0  0
    7.4069  -16.9716   23.5359 N   0  0  0  0  0  0  0  0  0  0  0  0
    8.3757  -16.1198   24.2095 C   0  0  1  0  0  0  0  0  0  0  0  0
    8.0195  -14.6814   24.1255 C   0  0  0  0  0  0  0  0  0  0  0  0
    7.9974  -14.2203   22.7218 C   0  0  0  0  0  0  0  0  0  0  0  0
    9.0373  -14.0653   21.8171 C   0  0  0  0  0  0  0  0  0  0  0  0
    8.5536  -13.5958   20.6595 N   0  0  0  0  0  0  0  0  0  0  0  0
    7.2420  -13.4435   20.7882 C   0  0  0  0  0  0  0  0  0  0  0  0
    6.8991  -13.8126   22.0137 N   0  0  0  0  0  0  0  0  0  0  0  0
    8.4915  -16.5818   25.6019 C   0  0  0  0  0  0  0  0  0  0  0  0
    9.5626  -16.3185   26.4404 O   0  0  0  0  0  0  0  0  0  0  0  0
    7.5681  -17.2761   26.1128 O   0  0  0  0  0  0  0  0  0  0  0  0
  2  1  1  0
  3  2  2  0
  4  5  1  0
  4  2  1  0
  5  6  1  1
  7 11  1  0
  7  5  1  0
  8  7  2  0
 10  9  1  1
 10 12  1  0
 10 11  1  0
 12 14  1  0
 13 12  2  0
 14 15  1  0
 15 16  1  1
 15 22  1  0
 17 16  1  0
 18 17  2  0
 19 20  1  0
 19 18  1  0
 20 21  2  0
 21 17  1  0
 22 24  2  0
 22 23  1  0
M  END
$$$$
