NAH.pdb
     RDKit          3D

 24 24  0  0  1  0  0  0  0  0999 V2000
    9.1955  -13.4944   17.1417 N   0  0  0  0  0  0  0  0  0  0  0  0
    7.8515  -13.2666   17.5217 C   0  0  0  0  0  0  0  0  0  0  0  0
    7.1005  -12.6704   16.7213 O   0  0  0  0  0  0  0  0  0  0  0  0
    7.3615  -13.7281   18.8363 C   0  0  0  0  0  0  0  0  0  0  0  0
    8.4828  -14.3992   19.5590 C   0  0  2  0  0  0  0  0  0  0  0  0
    8.9834  -15.4667   18.7219 N   0  0  0  0  0  0  0  0  0  0  0  0
    8.0836  -14.9343   20.8823 C   0  0  0  0  0  0  0  0  0  0  0  0
    7.6084  -14.1549   21.7468 O   0  0  0  0  0  0  0  0  0  0  0  0
    7.8412  -18.3551   22.5320 C   0  0  0  0  0  0  0  0  0  0  0  0
    7.7803  -16.8535   22.4892 C   0  0  2  0  0  0  0  0  0  0  0  0
    8.2088  -16.2986   21.2356 N   0  0  0  0  0  0  0  0  0  0  0  0
    8.5436  -16.3272   23.6426 C   0  0  0  0  0  0  0  0  0  0  0  0
    9.7569  -16.0575   23.4546 O   0  0  0  0  0  0  0  0  0  0  0  0
    8.0085  -16.1102   24.9230 N   0  0  0  0  0  0  0  0  0  0  0  0
    8.7914  -15.7519   26.0963 C   0  0  1  0  0  0  0  0  0  0  0  0
    7.9896  -15.0229   27.1105 C   0  0  0  0  0  0  0  0  0  0  0  0
    7.4584  -13.7587   26.5599 C   0  0  0  0  0  0  0  0  0  0  0  0
    7.9876  -12.9134   25.5959 C   0  0  0  0  0  0  0  0  0  0  0  0
    7.1714  -11.8647   25.4273 N   0  0  0  0  0  0  0  0  0  0  0  0
    6.1383  -12.0058   26.2476 C   0  0  0  0  0  0  0  0  0  0  0  0
    6.2987  -13.1315   26.9280 N   0  0  0  0  0  0  0  0  0  0  0  0
    9.3817  -16.9859   26.6389 C   0  0  0  0  0  0  0  0  0  0  0  0
    9.1726  -18.2577   26.1303 O   0  0  0  0  0  0  0  0  0  0  0  0
   10.1421  -16.9291   27.6460 O   0  0  0  0  0  0  0  0  0  0  0  0
  2  1  1  0
  3  2  2  0
  4  5  1  0
  4  2  1  0
  5  6  1  6
  7 11  1  0
  7  5  1  0
  8  7  2  0
 10  9  1  6
 10 12  1  0
 10 11  1  0
 12 14  1  0
 13 12  2  0
 14 15  1  0
 15 16  1  1
 15 22  1  0
 17 16  1  0
 18 17  2  0
 19 20  1  0
 19 18  1  0
 20 21  2  0
 21 17  1  0
 22 24  2  0
 22 23  1  0
M  END
$$$$
