HCV.pdb
     RDKit          3D

 24 24  0  0  1  0  0  0  0  0999 V2000
   22.7048  -13.1786  -17.2395 N   0  0  0  0  0  0  0  0  0  0  0  0
   23.2910  -12.1088  -16.4952 C   0  0  1  0  0  0  0  0  0  0  0  0
   24.7367  -11.8970  -16.8523 C   0  0  0  0  0  0  0  0  0  0  0  0
   25.4810  -13.1095  -16.4317 C   0  0  0  0  0  0  0  0  0  0  0  0
   25.9326  -14.1186  -17.2529 C   0  0  0  0  0  0  0  0  0  0  0  0
   26.5603  -15.0397  -16.4986 N   0  0  0  0  0  0  0  0  0  0  0  0
   26.5161  -14.6355  -15.2168 C   0  0  0  0  0  0  0  0  0  0  0  0
   25.8499  -13.4466  -15.1853 N   0  0  0  0  0  0  0  0  0  0  0  0
   22.4953  -10.8443  -16.6790 C   0  0  0  0  0  0  0  0  0  0  0  0
   22.2970  -10.4037  -17.8300 O   0  0  0  0  0  0  0  0  0  0  0  0
   21.9654  -10.1434  -15.5583 N   0  0  0  0  0  0  0  0  0  0  0  0
   21.1512   -8.9823  -15.5828 C   0  0  1  0  0  0  0  0  0  0  0  0
   19.7440   -9.2035  -15.1177 C   0  0  0  0  0  0  0  0  0  0  0  0
   18.9029  -10.4712  -16.1165 S   0  0  0  0  0  0  0  0  0  0  0  0
   21.7170   -7.7984  -14.8689 C   0  0  0  0  0  0  0  0  0  0  0  0
   22.1717   -7.9419  -13.7133 O   0  0  0  0  0  0  0  0  0  0  0  0
   22.2374   -3.8343  -16.7495 C   0  0  0  0  0  0  0  0  0  0  0  0
   23.2225   -4.5692  -15.8727 C   0  0  2  0  0  0  0  0  0  0  0  0
   24.2441   -5.3322  -16.6915 C   0  0  0  0  0  0  0  0  0  0  0  0
   22.5419   -5.4369  -14.8458 C   0  0  2  0  0  0  0  0  0  0  0  0
   21.7627   -6.5012  -15.4511 N   0  0  0  0  0  0  0  0  0  0  0  0
   21.6376   -4.5681  -14.0593 C   0  0  0  0  0  0  0  0  0  0  0  0
   20.4067   -4.6908  -14.1814 O   0  0  0  0  0  0  0  0  0  0  0  0
   22.1473   -3.6266  -13.1948 O   0  0  0  0  0  0  0  0  0  0  0  0
  2  1  1  6
  3  2  1  0
  4  3  1  0
  4  5  2  0
  6  5  1  0
  7  8  2  0
  7  6  1  0
  8  4  1  0
  9  2  1  0
 10  9  2  0
 11  9  1  0
 12 11  1  0
 12 15  1  0
 12 13  1  1
 14 13  1  0
 15 21  1  0
 16 15  2  0
 18 17  1  6
 19 18  1  0
 20 18  1  0
 20 22  1  0
 20 21  1  6
 22 23  2  0
 22 24  1  0
M  END
$$$$
