HCV.pdb
     RDKit          3D

 24 24  0  0  1  0  0  0  0  0999 V2000
   20.4743  -14.2269  -17.2016 N   0  0  0  0  0  0  0  0  0  0  0  0
   19.8211  -12.9979  -17.5256 C   0  0  1  0  0  0  0  0  0  0  0  0
   18.3524  -13.1900  -17.7874 C   0  0  0  0  0  0  0  0  0  0  0  0
   18.2214  -14.1947  -18.8712 C   0  0  0  0  0  0  0  0  0  0  0  0
   18.8567  -14.1684  -20.0928 C   0  0  0  0  0  0  0  0  0  0  0  0
   18.4809  -15.2516  -20.7974 N   0  0  0  0  0  0  0  0  0  0  0  0
   17.6209  -15.9639  -20.0483 C   0  0  0  0  0  0  0  0  0  0  0  0
   17.4672  -15.3057  -18.8644 N   0  0  0  0  0  0  0  0  0  0  0  0
   20.0508  -11.9799  -16.4408 C   0  0  0  0  0  0  0  0  0  0  0  0
   20.4368  -12.3565  -15.3151 O   0  0  0  0  0  0  0  0  0  0  0  0
   19.8338  -10.5930  -16.6807 N   0  0  0  0  0  0  0  0  0  0  0  0
   20.1228   -9.5178  -15.8020 C   0  0  1  0  0  0  0  0  0  0  0  0
   21.5247   -9.5109  -15.2728 C   0  0  0  0  0  0  0  0  0  0  0  0
   21.8358   -8.0539  -14.2276 S   0  0  0  0  0  0  0  0  0  0  0  0
   19.7998   -8.1606  -16.3363 C   0  0  0  0  0  0  0  0  0  0  0  0
   20.4907   -7.6899  -17.2657 O   0  0  0  0  0  0  0  0  0  0  0  0
   16.2521   -5.7453  -15.1289 C   0  0  0  0  0  0  0  0  0  0  0  0
   16.7932   -6.0202  -16.5113 C   0  0  2  0  0  0  0  0  0  0  0  0
   16.0863   -7.1873  -17.1702 C   0  0  0  0  0  0  0  0  0  0  0  0
   18.2922   -6.1732  -16.5218 C   0  0  2  0  0  0  0  0  0  0  0  0
   18.7299   -7.3716  -15.8300 N   0  0  0  0  0  0  0  0  0  0  0  0
   18.8642   -4.9901  -15.8405 C   0  0  0  0  0  0  0  0  0  0  0  0
   18.8353   -3.8823  -16.4035 O   0  0  0  0  0  0  0  0  0  0  0  0
   19.4273   -5.1059  -14.5902 O   0  0  0  0  0  0  0  0  0  0  0  0
  2  1  1  1
  3  2  1  0
  4  3  1  0
  4  5  2  0
  6  5  1  0
  7  8  2  0
  7  6  1  0
  8  4  1  0
  9  2  1  0
 10  9  2  0
 11  9  1  0
 12 11  1  0
 12 15  1  0
 12 13  1  6
 14 13  1  0
 15 21  1  0
 16 15  2  0
 18 17  1  1
 19 18  1  0
 20 18  1  0
 20 22  1  0
 20 21  1  1
 22 23  2  0
 22 24  1  0
M  END
$$$$
