HCV.pdb
     RDKit          3D

 24 24  0  0  1  0  0  0  0  0999 V2000
   22.3143  -23.5686  -13.9900 N   0  0  0  0  0  0  0  0  0  0  0  0
   23.7278  -23.4117  -14.1303 C   0  0  1  0  0  0  0  0  0  0  0  0
   24.2102  -23.8260  -15.4935 C   0  0  0  0  0  0  0  0  0  0  0  0
   23.9804  -25.2861  -15.6219 C   0  0  0  0  0  0  0  0  0  0  0  0
   22.9429  -25.8956  -16.2917 C   0  0  0  0  0  0  0  0  0  0  0  0
   23.0825  -27.2295  -16.1803 N   0  0  0  0  0  0  0  0  0  0  0  0
   24.1865  -27.4783  -15.4540 C   0  0  0  0  0  0  0  0  0  0  0  0
   24.7326  -26.2761  -15.1147 N   0  0  0  0  0  0  0  0  0  0  0  0
   24.1319  -21.9956  -13.8185 C   0  0  0  0  0  0  0  0  0  0  0  0
   23.3926  -21.0531  -14.1696 O   0  0  0  0  0  0  0  0  0  0  0  0
   25.3459  -21.7159  -13.1285 N   0  0  0  0  0  0  0  0  0  0  0  0
   26.0522  -20.4863  -13.1048 C   0  0  1  0  0  0  0  0  0  0  0  0
   26.8733  -20.2680  -11.8704 C   0  0  0  0  0  0  0  0  0  0  0  0
   26.2700  -21.2769  -10.4811 S   0  0  0  0  0  0  0  0  0  0  0  0
   26.9018  -20.2222  -14.3048 C   0  0  0  0  0  0  0  0  0  0  0  0
   27.8743  -20.9713  -14.5413 O   0  0  0  0  0  0  0  0  0  0  0  0
   25.8977  -17.1908  -17.2938 C   0  0  0  0  0  0  0  0  0  0  0  0
   26.5123  -18.5402  -17.5785 C   0  0  2  0  0  0  0  0  0  0  0  0
   25.4676  -19.5597  -17.9847 C   0  0  0  0  0  0  0  0  0  0  0  0
   27.3827  -19.0251  -16.4480 C   0  0  2  0  0  0  0  0  0  0  0  0
   26.6512  -19.1457  -15.2004 N   0  0  0  0  0  0  0  0  0  0  0  0
   28.4724  -18.0390  -16.2718 C   0  0  0  0  0  0  0  0  0  0  0  0
   28.4263  -17.2338  -15.3259 O   0  0  0  0  0  0  0  0  0  0  0  0
   29.5352  -18.0058  -17.1453 O   0  0  0  0  0  0  0  0  0  0  0  0
  2  1  1  6
  3  2  1  0
  4  3  1  0
  4  5  2  0
  6  5  1  0
  7  8  2  0
  7  6  1  0
  8  4  1  0
  9  2  1  0
 10  9  2  0
 11  9  1  0
 12 11  1  0
 12 15  1  0
 12 13  1  1
 14 13  1  0
 15 21  1  0
 16 15  2  0
 18 17  1  1
 19 18  1  0
 20 18  1  0
 20 22  1  0
 20 21  1  1
 22 23  2  0
 22 24  1  0
M  END
$$$$
