HCV.pdb
     RDKit          3D

 24 24  0  0  1  0  0  0  0  0999 V2000
   22.1334  -23.2110  -16.9341 N   0  0  0  0  0  0  0  0  0  0  0  0
   23.3765  -23.2322  -17.6386 C   0  0  1  0  0  0  0  0  0  0  0  0
   23.8153  -21.8543  -18.0529 C   0  0  0  0  0  0  0  0  0  0  0  0
   22.7459  -21.2860  -18.9100 C   0  0  0  0  0  0  0  0  0  0  0  0
   22.6262  -21.4318  -20.2742 C   0  0  0  0  0  0  0  0  0  0  0  0
   21.5280  -20.7704  -20.6836 N   0  0  0  0  0  0  0  0  0  0  0  0
   20.9492  -20.2084  -19.6078 C   0  0  0  0  0  0  0  0  0  0  0  0
   21.7058  -20.5312  -18.5207 N   0  0  0  0  0  0  0  0  0  0  0  0
   24.4352  -23.9142  -16.8140 C   0  0  0  0  0  0  0  0  0  0  0  0
   24.1656  -24.2891  -15.6543 O   0  0  0  0  0  0  0  0  0  0  0  0
   25.7403  -24.1378  -17.3383 N   0  0  0  0  0  0  0  0  0  0  0  0
   26.6354  -25.1807  -16.9880 C   0  0  1  0  0  0  0  0  0  0  0  0
   26.0376  -26.5537  -17.0432 C   0  0  0  0  0  0  0  0  0  0  0  0
   25.4435  -27.0886  -15.4082 S   0  0  0  0  0  0  0  0  0  0  0  0
   27.9269  -25.1840  -17.7388 C   0  0  0  0  0  0  0  0  0  0  0  0
   27.9070  -25.1484  -18.9882 O   0  0  0  0  0  0  0  0  0  0  0  0
   32.8486  -24.4540  -17.7716 C   0  0  0  0  0  0  0  0  0  0  0  0
   31.5802  -24.6561  -16.9782 C   0  0  2  0  0  0  0  0  0  0  0  0
   31.7973  -25.5786  -15.7959 C   0  0  0  0  0  0  0  0  0  0  0  0
   30.4244  -25.0888  -17.8428 C   0  0  2  0  0  0  0  0  0  0  0  0
   29.1918  -25.2258  -17.0891 N   0  0  0  0  0  0  0  0  0  0  0  0
   30.7759  -26.4013  -18.4301 C   0  0  0  0  0  0  0  0  0  0  0  0
   30.3407  -27.4436  -17.9112 O   0  0  0  0  0  0  0  0  0  0  0  0
   31.5796  -26.4775  -19.5444 O   0  0  0  0  0  0  0  0  0  0  0  0
  2  1  1  1
  3  2  1  0
  4  3  1  0
  4  5  2  0
  6  5  1  0
  7  8  2  0
  7  6  1  0
  8  4  1  0
  9  2  1  0
 10  9  2  0
 11  9  1  0
 12 11  1  0
 12 15  1  0
 12 13  1  6
 14 13  1  0
 15 21  1  0
 16 15  2  0
 18 17  1  6
 19 18  1  0
 20 18  1  0
 20 22  1  0
 20 21  1  1
 22 23  2  0
 22 24  1  0
M  END
$$$$
