HCV.pdb
     RDKit          3D

 24 24  0  0  1  0  0  0  0  0999 V2000
   20.4040  -13.3527  -16.4482 N   0  0  0  0  0  0  0  0  0  0  0  0
   20.8632  -12.0902  -16.9355 C   0  0  1  0  0  0  0  0  0  0  0  0
   20.4866  -11.8687  -18.3749 C   0  0  0  0  0  0  0  0  0  0  0  0
   21.1748  -12.9079  -19.1797 C   0  0  0  0  0  0  0  0  0  0  0  0
   22.5224  -13.1911  -19.1704 C   0  0  0  0  0  0  0  0  0  0  0  0
   22.7575  -14.1964  -20.0339 N   0  0  0  0  0  0  0  0  0  0  0  0
   21.5873  -14.5561  -20.5902 C   0  0  0  0  0  0  0  0  0  0  0  0
   20.6188  -13.7576  -20.0584 N   0  0  0  0  0  0  0  0  0  0  0  0
   20.3537  -10.9744  -16.0630 C   0  0  0  0  0  0  0  0  0  0  0  0
   19.1295  -10.7336  -16.0240 O   0  0  0  0  0  0  0  0  0  0  0  0
   21.2487  -10.1895  -15.2814 N   0  0  0  0  0  0  0  0  0  0  0  0
   20.9150   -9.1048  -14.4308 C   0  0  1  0  0  0  0  0  0  0  0  0
   20.8900   -9.4473  -12.9721 C   0  0  0  0  0  0  0  0  0  0  0  0
   22.3032  -10.4965  -12.5091 S   0  0  0  0  0  0  0  0  0  0  0  0
   21.7376   -7.8729  -14.6251 C   0  0  0  0  0  0  0  0  0  0  0  0
   22.9576   -7.9861  -14.8729 O   0  0  0  0  0  0  0  0  0  0  0  0
   20.0270   -4.0410  -15.5803 C   0  0  0  0  0  0  0  0  0  0  0  0
   21.4098   -4.5419  -15.9216 C   0  0  2  0  0  0  0  0  0  0  0  0
   21.4417   -5.2291  -17.2717 C   0  0  0  0  0  0  0  0  0  0  0  0
   21.9990   -5.3933  -14.8269 C   0  0  2  0  0  0  0  0  0  0  0  0
   21.1891   -6.5631  -14.5406 N   0  0  0  0  0  0  0  0  0  0  0  0
   22.0807   -4.5566  -13.6086 C   0  0  0  0  0  0  0  0  0  0  0  0
   21.2854   -4.7522  -12.6736 O   0  0  0  0  0  0  0  0  0  0  0  0
   23.0287   -3.5648  -13.5022 O   0  0  0  0  0  0  0  0  0  0  0  0
  2  1  1  1
  3  2  1  0
  4  3  1  0
  4  5  2  0
  6  5  1  0
  7  8  2  0
  7  6  1  0
  8  4  1  0
  9  2  1  0
 10  9  2  0
 11  9  1  0
 12 11  1  0
 12 15  1  0
 12 13  1  1
 14 13  1  0
 15 21  1  0
 16 15  2  0
 18 17  1  1
 19 18  1  0
 20 18  1  0
 20 22  1  0
 20 21  1  1
 22 23  2  0
 22 24  1  0
M  END
$$$$
