HCV.pdb
     RDKit          3D

 24 24  0  0  1  0  0  0  0  0999 V2000
   19.9036  -13.4522  -17.5521 N   0  0  0  0  0  0  0  0  0  0  0  0
   19.5653  -12.0756  -17.3708 C   0  0  1  0  0  0  0  0  0  0  0  0
   18.0959  -11.8836  -17.1129 C   0  0  0  0  0  0  0  0  0  0  0  0
   17.3819  -12.1543  -18.3849 C   0  0  0  0  0  0  0  0  0  0  0  0
   16.3844  -13.0831  -18.5819 C   0  0  0  0  0  0  0  0  0  0  0  0
   15.9918  -13.0276  -19.8681 N   0  0  0  0  0  0  0  0  0  0  0  0
   16.7193  -12.0833  -20.4902 C   0  0  0  0  0  0  0  0  0  0  0  0
   17.5723  -11.5512  -19.5695 N   0  0  0  0  0  0  0  0  0  0  0  0
   20.3936  -11.4727  -16.2680 C   0  0  0  0  0  0  0  0  0  0  0  0
   20.4747  -12.0585  -15.1687 O   0  0  0  0  0  0  0  0  0  0  0  0
   21.0861  -10.2434  -16.4609 N   0  0  0  0  0  0  0  0  0  0  0  0
   21.9839   -9.6170  -15.5592 C   0  0  1  0  0  0  0  0  0  0  0  0
   23.3852  -10.1451  -15.6144 C   0  0  0  0  0  0  0  0  0  0  0  0
   24.4386   -9.3749  -14.3458 S   0  0  0  0  0  0  0  0  0  0  0  0
   22.0244   -8.1260  -15.6412 C   0  0  0  0  0  0  0  0  0  0  0  0
   22.5476   -7.5832  -16.6384 O   0  0  0  0  0  0  0  0  0  0  0  0
   19.3345   -5.3828  -13.7080 C   0  0  0  0  0  0  0  0  0  0  0  0
   20.2332   -5.1925  -14.9062 C   0  0  2  0  0  0  0  0  0  0  0  0
   19.5541   -5.6186  -16.1920 C   0  0  0  0  0  0  0  0  0  0  0  0
   21.5805   -5.8419  -14.7228 C   0  0  2  0  0  0  0  0  0  0  0  0
   21.4885   -7.2869  -14.6250 N   0  0  0  0  0  0  0  0  0  0  0  0
   22.1619   -5.3124  -13.4687 C   0  0  0  0  0  0  0  0  0  0  0  0
   22.2100   -6.0363  -12.4594 O   0  0  0  0  0  0  0  0  0  0  0  0
   22.6491   -4.0267  -13.4106 O   0  0  0  0  0  0  0  0  0  0  0  0
  2  1  1  1
  3  2  1  0
  4  3  1  0
  4  5  2  0
  6  5  1  0
  7  8  2  0
  7  6  1  0
  8  4  1  0
  9  2  1  0
 10  9  2  0
 11  9  1  0
 12 11  1  0
 12 15  1  0
 12 13  1  6
 14 13  1  0
 15 21  1  0
 16 15  2  0
 18 17  1  1
 19 18  1  0
 20 18  1  0
 20 22  1  0
 20 21  1  1
 22 23  2  0
 22 24  1  0
M  END
$$$$
