HCV.pdb
     RDKit          3D

 24 24  0  0  1  0  0  0  0  0999 V2000
   17.1479  -15.2194  -18.1121 N   0  0  0  0  0  0  0  0  0  0  0  0
   18.1949  -14.6553  -17.3197 C   0  0  1  0  0  0  0  0  0  0  0  0
   19.5160  -15.3318  -17.5638 C   0  0  0  0  0  0  0  0  0  0  0  0
   19.4267  -16.6998  -16.9967 C   0  0  0  0  0  0  0  0  0  0  0  0
   18.4184  -17.1901  -16.1969 C   0  0  0  0  0  0  0  0  0  0  0  0
   18.6973  -18.4699  -15.8878 N   0  0  0  0  0  0  0  0  0  0  0  0
   19.8610  -18.8011  -16.4747 C   0  0  0  0  0  0  0  0  0  0  0  0
   20.3025  -17.7053  -17.1550 N   0  0  0  0  0  0  0  0  0  0  0  0
   18.2920  -13.1722  -17.5580 C   0  0  0  0  0  0  0  0  0  0  0  0
   18.1949  -12.7279  -18.7205 O   0  0  0  0  0  0  0  0  0  0  0  0
   18.4932  -12.2686  -16.4758 N   0  0  0  0  0  0  0  0  0  0  0  0
   18.5247  -10.8521  -16.5392 C   0  0  1  0  0  0  0  0  0  0  0  0
   17.1929  -10.2143  -16.7941 C   0  0  0  0  0  0  0  0  0  0  0  0
   16.4634  -10.7954  -18.3569 S   0  0  0  0  0  0  0  0  0  0  0  0
   19.1672  -10.1812  -15.3692 C   0  0  0  0  0  0  0  0  0  0  0  0
   18.7190  -10.3934  -14.2216 O   0  0  0  0  0  0  0  0  0  0  0  0
   23.1393   -8.8054  -15.6480 C   0  0  0  0  0  0  0  0  0  0  0  0
   22.4563   -9.2221  -14.3677 C   0  0  2  0  0  0  0  0  0  0  0  0
   22.6658  -10.6933  -14.0715 C   0  0  0  0  0  0  0  0  0  0  0  0
   21.0019   -8.8291  -14.3381 C   0  0  2  0  0  0  0  0  0  0  0  0
   20.2780   -9.3027  -15.5034 N   0  0  0  0  0  0  0  0  0  0  0  0
   20.9419   -7.3505  -14.3044 C   0  0  0  0  0  0  0  0  0  0  0  0
   21.2617   -6.7454  -13.2668 O   0  0  0  0  0  0  0  0  0  0  0  0
   20.5355   -6.6404  -15.4109 O   0  0  0  0  0  0  0  0  0  0  0  0
  2  1  1  6
  3  2  1  0
  4  3  1  0
  4  5  2  0
  6  5  1  0
  7  8  2  0
  7  6  1  0
  8  4  1  0
  9  2  1  0
 10  9  2  0
 11  9  1  0
 12 11  1  0
 12 15  1  0
 12 13  1  1
 14 13  1  0
 15 21  1  0
 16 15  2  0
 18 17  1  6
 19 18  1  0
 20 18  1  0
 20 22  1  0
 20 21  1  6
 22 23  2  0
 22 24  1  0
M  END
$$$$
