HCV.pdb
     RDKit          3D

 24 24  0  0  1  0  0  0  0  0999 V2000
   22.3440  -13.0993  -18.1277 N   0  0  0  0  0  0  0  0  0  0  0  0
   22.9222  -12.1230  -17.2590 C   0  0  1  0  0  0  0  0  0  0  0  0
   24.3139  -11.7417  -17.6836 C   0  0  0  0  0  0  0  0  0  0  0  0
   25.1833  -12.9253  -17.4726 C   0  0  0  0  0  0  0  0  0  0  0  0
   25.9733  -13.1749  -16.3726 C   0  0  0  0  0  0  0  0  0  0  0  0
   26.6090  -14.3470  -16.5556 N   0  0  0  0  0  0  0  0  0  0  0  0
   26.2385  -14.8454  -17.7483 C   0  0  0  0  0  0  0  0  0  0  0  0
   25.3608  -13.9635  -18.3055 N   0  0  0  0  0  0  0  0  0  0  0  0
   22.0325  -10.9125  -17.1644 C   0  0  0  0  0  0  0  0  0  0  0  0
   21.5398  -10.4280  -18.2039 O   0  0  0  0  0  0  0  0  0  0  0  0
   21.7448  -10.3121  -15.9054 N   0  0  0  0  0  0  0  0  0  0  0  0
   20.9194   -9.1842  -15.6647 C   0  0  1  0  0  0  0  0  0  0  0  0
   19.7167   -9.4673  -14.8169 C   0  0  0  0  0  0  0  0  0  0  0  0
   18.8381   -7.9364  -14.3733 S   0  0  0  0  0  0  0  0  0  0  0  0
   21.6275   -7.9881  -15.1172 C   0  0  0  0  0  0  0  0  0  0  0  0
   22.3212   -8.1089  -14.0843 O   0  0  0  0  0  0  0  0  0  0  0  0
   21.6666   -4.0482  -17.0906 C   0  0  0  0  0  0  0  0  0  0  0  0
   22.8164   -4.6966  -16.3578 C   0  0  2  0  0  0  0  0  0  0  0  0
   23.7676   -5.3944  -17.3088 C   0  0  0  0  0  0  0  0  0  0  0  0
   22.3521   -5.5971  -15.2423 C   0  0  2  0  0  0  0  0  0  0  0  0
   21.5476   -6.7044  -15.7250 N   0  0  0  0  0  0  0  0  0  0  0  0
   21.5350   -4.7768  -14.3201 C   0  0  0  0  0  0  0  0  0  0  0  0
   20.3031   -4.9381  -14.2808 O   0  0  0  0  0  0  0  0  0  0  0  0
   22.1268   -3.8380  -13.5065 O   0  0  0  0  0  0  0  0  0  0  0  0
  2  1  1  6
  3  2  1  0
  4  3  1  0
  4  5  2  0
  6  5  1  0
  7  8  2  0
  7  6  1  0
  8  4  1  0
  9  2  1  0
 10  9  2  0
 11  9  1  0
 12 11  1  0
 12 15  1  0
 12 13  1  1
 14 13  1  0
 15 21  1  0
 16 15  2  0
 18 17  1  6
 19 18  1  0
 20 18  1  0
 20 22  1  0
 20 21  1  6
 22 23  2  0
 22 24  1  0
M  END
$$$$
