HCV.pdb
     RDKit          3D

 24 24  0  0  1  0  0  0  0  0999 V2000
   26.0759  -20.8046  -13.5825 N   0  0  0  0  0  0  0  0  0  0  0  0
   27.0817  -20.3955  -12.6535 C   0  0  1  0  0  0  0  0  0  0  0  0
   27.9505  -19.2994  -13.2070 C   0  0  0  0  0  0  0  0  0  0  0  0
   27.7769  -19.2953  -14.6804 C   0  0  0  0  0  0  0  0  0  0  0  0
   26.7056  -18.7819  -15.3769 C   0  0  0  0  0  0  0  0  0  0  0  0
   26.9178  -18.9682  -16.6928 N   0  0  0  0  0  0  0  0  0  0  0  0
   28.1009  -19.5889  -16.8449 C   0  0  0  0  0  0  0  0  0  0  0  0
   28.6225  -19.7862  -15.6009 N   0  0  0  0  0  0  0  0  0  0  0  0
   26.4543  -19.9844  -11.3484 C   0  0  0  0  0  0  0  0  0  0  0  0
   25.7826  -18.9338  -11.2924 O   0  0  0  0  0  0  0  0  0  0  0  0
   26.6163  -20.7773  -10.1766 N   0  0  0  0  0  0  0  0  0  0  0  0
   26.1209  -20.4949   -8.8780 C   0  0  1  0  0  0  0  0  0  0  0  0
   24.7678  -21.0725   -8.5928 C   0  0  0  0  0  0  0  0  0  0  0  0
   24.2921  -20.8295   -6.8530 S   0  0  0  0  0  0  0  0  0  0  0  0
   27.0444  -20.8488   -7.7584 C   0  0  0  0  0  0  0  0  0  0  0  0
   27.5159  -22.0050   -7.6979 O   0  0  0  0  0  0  0  0  0  0  0  0
   29.0284  -17.9812   -5.1820 C   0  0  0  0  0  0  0  0  0  0  0  0
   29.4377  -19.4104   -5.4456 C   0  0  2  0  0  0  0  0  0  0  0  0
   30.4314  -19.5097   -6.5852 C   0  0  0  0  0  0  0  0  0  0  0  0
   28.2527  -20.3223   -5.6323 C   0  0  2  0  0  0  0  0  0  0  0  0
   27.4160  -19.9194   -6.7475 N   0  0  0  0  0  0  0  0  0  0  0  0
   27.4519  -20.2703   -4.3885 C   0  0  0  0  0  0  0  0  0  0  0  0
   26.3151  -19.7678   -4.4094 O   0  0  0  0  0  0  0  0  0  0  0  0
   27.9544  -20.7730   -3.2102 O   0  0  0  0  0  0  0  0  0  0  0  0
  2  1  1  6
  3  2  1  0
  4  3  1  0
  4  5  2  0
  6  5  1  0
  7  8  2  0
  7  6  1  0
  8  4  1  0
  9  2  1  0
 10  9  2  0
 11  9  1  0
 12 11  1  0
 12 15  1  0
 12 13  1  1
 14 13  1  0
 15 21  1  0
 16 15  2  0
 18 17  1  6
 19 18  1  0
 20 18  1  0
 20 22  1  0
 20 21  1  6
 22 23  2  0
 22 24  1  0
M  END
$$$$
