HCV.pdb
     RDKit          3D

 24 24  0  0  1  0  0  0  0  0999 V2000
   20.5157  -20.6466  -11.9596 N   0  0  0  0  0  0  0  0  0  0  0  0
   21.4781  -21.0856  -12.9205 C   0  0  1  0  0  0  0  0  0  0  0  0
   20.9909  -20.9051  -14.3320 C   0  0  0  0  0  0  0  0  0  0  0  0
   19.8689  -21.8533  -14.5400 C   0  0  0  0  0  0  0  0  0  0  0  0
   19.9745  -23.1964  -14.8254 C   0  0  0  0  0  0  0  0  0  0  0  0
   18.7364  -23.7110  -14.9417 N   0  0  0  0  0  0  0  0  0  0  0  0
   17.8484  -22.7224  -14.7360 C   0  0  0  0  0  0  0  0  0  0  0  0
   18.5546  -21.5827  -14.4894 N   0  0  0  0  0  0  0  0  0  0  0  0
   22.7920  -20.3832  -12.7055 C   0  0  0  0  0  0  0  0  0  0  0  0
   22.8259  -19.1357  -12.6794 O   0  0  0  0  0  0  0  0  0  0  0  0
   23.9971  -21.1219  -12.5315 N   0  0  0  0  0  0  0  0  0  0  0  0
   25.3235  -20.6301  -12.6322 C   0  0  1  0  0  0  0  0  0  0  0  0
   26.2217  -21.0374  -11.5040 C   0  0  0  0  0  0  0  0  0  0  0  0
   25.2711  -21.7004  -10.1007 S   0  0  0  0  0  0  0  0  0  0  0  0
   26.0092  -20.9219  -13.9269 C   0  0  0  0  0  0  0  0  0  0  0  0
   25.8531  -22.0407  -14.4621 O   0  0  0  0  0  0  0  0  0  0  0  0
   29.1200  -18.4287  -15.7542 C   0  0  0  0  0  0  0  0  0  0  0  0
   27.9818  -19.0267  -16.5456 C   0  0  2  0  0  0  0  0  0  0  0  0
   26.9198  -17.9958  -16.8701 C   0  0  0  0  0  0  0  0  0  0  0  0
   27.4101  -20.2571  -15.8898 C   0  0  2  0  0  0  0  0  0  0  0  0
   26.8404  -19.9736  -14.5855 N   0  0  0  0  0  0  0  0  0  0  0  0
   28.5149  -21.2291  -15.7296 C   0  0  0  0  0  0  0  0  0  0  0  0
   29.0312  -21.3946  -14.6111 O   0  0  0  0  0  0  0  0  0  0  0  0
   28.9751  -21.9505  -16.8073 O   0  0  0  0  0  0  0  0  0  0  0  0
  2  1  1  1
  3  2  1  0
  4  3  1  0
  4  5  2  0
  6  5  1  0
  7  8  2  0
  7  6  1  0
  8  4  1  0
  9  2  1  0
 10  9  2  0
 11  9  1  0
 12 11  1  0
 12 15  1  0
 12 13  1  1
 14 13  1  0
 15 21  1  0
 16 15  2  0
 18 17  1  1
 19 18  1  0
 20 18  1  0
 20 22  1  0
 20 21  1  1
 22 23  2  0
 22 24  1  0
M  END
$$$$
