HCV.pdb
     RDKit          3D

 24 24  0  0  1  0  0  0  0  0999 V2000
   20.8894  -21.2994  -11.9249 N   0  0  0  0  0  0  0  0  0  0  0  0
   21.4310  -20.9848  -13.2094 C   0  0  1  0  0  0  0  0  0  0  0  0
   20.5120  -20.1035  -14.0102 C   0  0  0  0  0  0  0  0  0  0  0  0
   19.3171  -20.9096  -14.3615 C   0  0  0  0  0  0  0  0  0  0  0  0
   18.0352  -20.7187  -13.8959 C   0  0  0  0  0  0  0  0  0  0  0  0
   17.2342  -21.6509  -14.4441 N   0  0  0  0  0  0  0  0  0  0  0  0
   17.9813  -22.4287  -15.2473 C   0  0  0  0  0  0  0  0  0  0  0  0
   19.2620  -21.9649  -15.1901 N   0  0  0  0  0  0  0  0  0  0  0  0
   22.7933  -20.3607  -13.0658 C   0  0  0  0  0  0  0  0  0  0  0  0
   22.8978  -19.2168  -12.5772 O   0  0  0  0  0  0  0  0  0  0  0  0
   23.9647  -21.0569  -13.4796 N   0  0  0  0  0  0  0  0  0  0  0  0
   25.2941  -20.5627  -13.4903 C   0  0  1  0  0  0  0  0  0  0  0  0
   26.3344  -21.5780  -13.1264 C   0  0  0  0  0  0  0  0  0  0  0  0
   26.1138  -22.1776  -11.4223 S   0  0  0  0  0  0  0  0  0  0  0  0
   25.7045  -19.8801  -14.7542 C   0  0  0  0  0  0  0  0  0  0  0  0
   25.3918  -20.3889  -15.8524 O   0  0  0  0  0  0  0  0  0  0  0  0
   26.4737  -15.7786  -14.8878 C   0  0  0  0  0  0  0  0  0  0  0  0
   27.3386  -16.6203  -15.7949 C   0  0  2  0  0  0  0  0  0  0  0  0
   27.6478  -15.9088  -17.0964 C   0  0  0  0  0  0  0  0  0  0  0  0
   26.7717  -17.9995  -16.0119 C   0  0  2  0  0  0  0  0  0  0  0  0
   26.4424  -18.6639  -14.7643 N   0  0  0  0  0  0  0  0  0  0  0  0
   27.7980  -18.7949  -16.7225 C   0  0  0  0  0  0  0  0  0  0  0  0
   28.6924  -19.3647  -16.0742 O   0  0  0  0  0  0  0  0  0  0  0  0
   27.7706  -18.9089  -18.0936 O   0  0  0  0  0  0  0  0  0  0  0  0
  2  1  1  1
  3  2  1  0
  4  3  1  0
  4  5  2  0
  6  5  1  0
  7  8  2  0
  7  6  1  0
  8  4  1  0
  9  2  1  0
 10  9  2  0
 11  9  1  0
 12 11  1  0
 12 15  1  0
 12 13  1  6
 14 13  1  0
 15 21  1  0
 16 15  2  0
 18 17  1  6
 19 18  1  0
 20 18  1  0
 20 22  1  0
 20 21  1  1
 22 23  2  0
 22 24  1  0
M  END
$$$$
