HCV.pdb
     RDKit          3D

 24 24  0  0  1  0  0  0  0  0999 V2000
   28.1614  -21.4398  -15.7912 N   0  0  0  0  0  0  0  0  0  0  0  0
   27.5271  -20.5723  -14.8493 C   0  0  1  0  0  0  0  0  0  0  0  0
   26.7624  -19.4668  -15.5245 C   0  0  0  0  0  0  0  0  0  0  0  0
   27.7516  -18.5835  -16.1896 C   0  0  0  0  0  0  0  0  0  0  0  0
   29.1225  -18.7030  -16.1351 C   0  0  0  0  0  0  0  0  0  0  0  0
   29.6706  -17.7148  -16.8661 N   0  0  0  0  0  0  0  0  0  0  0  0
   28.6761  -16.9716  -17.3827 C   0  0  0  0  0  0  0  0  0  0  0  0
   27.4986  -17.5138  -16.9609 N   0  0  0  0  0  0  0  0  0  0  0  0
   26.6387  -21.3612  -13.9251 C   0  0  0  0  0  0  0  0  0  0  0  0
   26.1148  -22.4195  -14.3296 O   0  0  0  0  0  0  0  0  0  0  0  0
   26.3874  -20.9172  -12.5955 N   0  0  0  0  0  0  0  0  0  0  0  0
   25.2588  -21.2202  -11.7918 C   0  0  1  0  0  0  0  0  0  0  0  0
   25.4119  -20.8539  -10.3468 C   0  0  0  0  0  0  0  0  0  0  0  0
   27.1344  -21.0417   -9.7901 S   0  0  0  0  0  0  0  0  0  0  0  0
   23.9609  -20.6772  -12.2943 C   0  0  0  0  0  0  0  0  0  0  0  0
   23.7886  -19.4396  -12.3275 O   0  0  0  0  0  0  0  0  0  0  0  0
   21.3233  -23.0177  -14.7377 C   0  0  0  0  0  0  0  0  0  0  0  0
   21.4831  -21.5164  -14.7495 C   0  0  2  0  0  0  0  0  0  0  0  0
   22.5323  -21.0704  -15.7477 C   0  0  0  0  0  0  0  0  0  0  0  0
   21.7205  -20.9530  -13.3723 C   0  0  2  0  0  0  0  0  0  0  0  0
   22.9012  -21.5141  -12.7420 N   0  0  0  0  0  0  0  0  0  0  0  0
   20.5354  -21.2802  -12.5481 C   0  0  0  0  0  0  0  0  0  0  0  0
   20.5982  -22.2056  -11.7205 O   0  0  0  0  0  0  0  0  0  0  0  0
   19.3656  -20.5694  -12.6898 O   0  0  0  0  0  0  0  0  0  0  0  0
  2  1  1  6
  3  2  1  0
  4  3  1  0
  4  5  2  0
  6  5  1  0
  7  8  2  0
  7  6  1  0
  8  4  1  0
  9  2  1  0
 10  9  2  0
 11  9  1  0
 12 11  1  0
 12 15  1  0
 12 13  1  1
 14 13  1  0
 15 21  1  0
 16 15  2  0
 18 17  1  1
 19 18  1  0
 20 18  1  0
 20 22  1  0
 20 21  1  1
 22 23  2  0
 22 24  1  0
M  END
$$$$
