HCV.pdb
     RDKit          3D

 24 24  0  0  1  0  0  0  0  0999 V2000
   18.5301  -11.4099  -17.6269 N   0  0  0  0  0  0  0  0  0  0  0  0
   19.6417  -10.5277  -17.4584 C   0  0  1  0  0  0  0  0  0  0  0  0
   20.1479   -9.9987  -18.7724 C   0  0  0  0  0  0  0  0  0  0  0  0
   20.6560  -11.1546  -19.5513 C   0  0  0  0  0  0  0  0  0  0  0  0
   21.8076  -11.8673  -19.3014 C   0  0  0  0  0  0  0  0  0  0  0  0
   21.9230  -12.8379  -20.2265 N   0  0  0  0  0  0  0  0  0  0  0  0
   20.8689  -12.7555  -21.0573 C   0  0  0  0  0  0  0  0  0  0  0  0
   20.0945  -11.7165  -20.6339 N   0  0  0  0  0  0  0  0  0  0  0  0
   19.2828   -9.4045  -16.5228 C   0  0  0  0  0  0  0  0  0  0  0  0
   18.3635   -8.6178  -16.8296 O   0  0  0  0  0  0  0  0  0  0  0  0
   19.9774   -9.2266  -15.2923 N   0  0  0  0  0  0  0  0  0  0  0  0
   19.7620   -8.2090  -14.3282 C   0  0  1  0  0  0  0  0  0  0  0  0
   19.3748   -8.7140  -12.9715 C   0  0  0  0  0  0  0  0  0  0  0  0
   19.5134   -7.4097  -11.7098 S   0  0  0  0  0  0  0  0  0  0  0  0
   20.8820   -7.2316  -14.1799 C   0  0  0  0  0  0  0  0  0  0  0  0
   21.9885   -7.6304  -13.7566 O   0  0  0  0  0  0  0  0  0  0  0  0
   21.3392   -3.7696  -16.5732 C   0  0  0  0  0  0  0  0  0  0  0  0
   22.3753   -4.5412  -15.7917 C   0  0  2  0  0  0  0  0  0  0  0  0
   22.9233   -5.7098  -16.5854 C   0  0  0  0  0  0  0  0  0  0  0  0
   21.8795   -4.9511  -14.4291 C   0  0  2  0  0  0  0  0  0  0  0  0
   20.7447   -5.8528  -14.5025 N   0  0  0  0  0  0  0  0  0  0  0  0
   21.4687   -3.7202  -13.7170 C   0  0  0  0  0  0  0  0  0  0  0  0
   20.2615   -3.4950  -13.5241 O   0  0  0  0  0  0  0  0  0  0  0  0
   22.4107   -2.8238  -13.2669 O   0  0  0  0  0  0  0  0  0  0  0  0
  2  1  1  6
  3  2  1  0
  4  3  1  0
  4  5  2  0
  6  5  1  0
  7  8  2  0
  7  6  1  0
  8  4  1  0
  9  2  1  0
 10  9  2  0
 11  9  1  0
 12 11  1  0
 12 15  1  0
 12 13  1  1
 14 13  1  0
 15 21  1  0
 16 15  2  0
 18 17  1  6
 19 18  1  0
 20 18  1  0
 20 22  1  0
 20 21  1  6
 22 23  2  0
 22 24  1  0
M  END
$$$$
