HCV.pdb
     RDKit          3D

 24 24  0  0  1  0  0  0  0  0999 V2000
   16.8972  -12.5437  -17.3203 N   0  0  0  0  0  0  0  0  0  0  0  0
   17.0014  -11.6833  -16.1841 C   0  0  1  0  0  0  0  0  0  0  0  0
   16.7607  -12.4184  -14.8941 C   0  0  0  0  0  0  0  0  0  0  0  0
   15.3284  -12.8039  -14.8623 C   0  0  0  0  0  0  0  0  0  0  0  0
   14.8254  -14.0858  -14.8765 C   0  0  0  0  0  0  0  0  0  0  0  0
   13.4816  -14.0219  -14.8373 N   0  0  0  0  0  0  0  0  0  0  0  0
   13.1225  -12.7266  -14.7985 C   0  0  0  0  0  0  0  0  0  0  0  0
   14.2658  -11.9843  -14.8143 N   0  0  0  0  0  0  0  0  0  0  0  0
   18.3369  -10.9890  -16.1726 C   0  0  0  0  0  0  0  0  0  0  0  0
   19.3688  -11.6439  -15.9183 O   0  0  0  0  0  0  0  0  0  0  0  0
   18.4400   -9.5956  -16.4478 N   0  0  0  0  0  0  0  0  0  0  0  0
   19.6281   -8.8249  -16.5252 C   0  0  1  0  0  0  0  0  0  0  0  0
   20.0632   -8.4973  -17.9212 C   0  0  0  0  0  0  0  0  0  0  0  0
   20.0793   -9.9778  -18.9796 S   0  0  0  0  0  0  0  0  0  0  0  0
   19.6223   -7.5713  -15.7128 C   0  0  0  0  0  0  0  0  0  0  0  0
   18.6465   -6.7944  -15.7956 O   0  0  0  0  0  0  0  0  0  0  0  0
   22.1997   -7.0212  -12.3209 C   0  0  0  0  0  0  0  0  0  0  0  0
   20.8543   -6.3714  -12.5380 C   0  0  2  0  0  0  0  0  0  0  0  0
   19.7325   -7.1807  -11.9195 C   0  0  0  0  0  0  0  0  0  0  0  0
   20.6002   -6.0467  -13.9874 C   0  0  2  0  0  0  0  0  0  0  0  0
   20.6884   -7.2182  -14.8395 N   0  0  0  0  0  0  0  0  0  0  0  0
   21.6270   -5.0679  -14.4100 C   0  0  0  0  0  0  0  0  0  0  0  0
   22.5336   -5.4224  -15.1829 O   0  0  0  0  0  0  0  0  0  0  0  0
   21.5867   -3.7698  -13.9549 O   0  0  0  0  0  0  0  0  0  0  0  0
  2  1  1  6
  3  2  1  0
  4  3  1  0
  4  5  2  0
  6  5  1  0
  7  8  2  0
  7  6  1  0
  8  4  1  0
  9  2  1  0
 10  9  2  0
 11  9  1  0
 12 11  1  0
 12 15  1  0
 12 13  1  6
 14 13  1  0
 15 21  1  0
 16 15  2  0
 18 17  1  6
 19 18  1  0
 20 18  1  0
 20 22  1  0
 20 21  1  6
 22 23  2  0
 22 24  1  0
M  END
$$$$
