FTR.pdb
     RDKit          3D

 30 30  0  0  1  0  0  0  0  0999 V2000
   10.5275  -14.8836   17.6485 N   0  0  0  0  0  0  0  0  0  0  0  0
   11.1929  -14.7973   18.9185 C   0  0  1  0  0  0  0  0  0  0  0  0
   10.9156  -13.4694   19.5725 C   0  0  0  0  0  0  0  0  0  0  0  0
    9.5182  -13.4567   20.0484 C   0  0  0  0  0  0  0  0  0  0  0  0
    9.2348  -13.6335   21.3816 C   0  0  0  0  0  0  0  0  0  0  0  0
    7.9178  -13.6248   21.8534 C   0  0  0  0  0  0  0  0  0  0  0  0
    6.9025  -13.4314   20.9296 C   0  0  0  0  0  0  0  0  0  0  0  0
    7.1581  -13.2532   19.5971 C   0  0  0  0  0  0  0  0  0  0  0  0
    8.4706  -13.2688   19.1757 C   0  0  0  0  0  0  0  0  0  0  0  0
   10.8269  -15.9397   19.7890 C   0  0  0  0  0  0  0  0  0  0  0  0
   10.3210  -16.9485   19.2166 O   0  0  0  0  0  0  0  0  0  0  0  0
   11.7177  -18.4610   20.0077 C   0  0  0  0  0  0  0  0  0  0  0  0
   11.8676  -18.1135   21.4627 C   0  0  1  0  0  0  0  0  0  0  0  0
   13.1030  -17.5462   21.7259 O   0  0  0  0  0  0  0  0  0  0  0  0
   10.8016  -17.1326   21.9206 C   0  0  2  0  0  0  0  0  0  0  0  0
   11.0262  -15.9213   21.1941 N   0  0  0  0  0  0  0  0  0  0  0  0
   10.9054  -16.9386   23.3932 C   0  0  0  0  0  0  0  0  0  0  0  0
   11.7643  -16.1252   23.8754 O   0  0  0  0  0  0  0  0  0  0  0  0
    5.4022  -20.7153   23.6275 N   0  0  0  0  0  0  0  0  0  0  0  0
    5.2931  -19.3789   23.1072 C   0  0  0  0  0  0  0  0  0  0  0  0
    4.5818  -19.1650   22.0332 N   0  0  0  0  0  0  0  0  0  0  0  0
    5.9429  -18.2962   23.7397 N   0  0  0  0  0  0  0  0  0  0  0  0
    6.9938  -18.5882   24.6878 C   0  0  0  0  0  0  0  0  0  0  0  0
    7.5573  -17.3380   25.3174 C   0  0  0  0  0  0  0  0  0  0  0  0
    8.6884  -17.6647   26.2248 C   0  0  0  0  0  0  0  0  0  0  0  0
   10.0444  -17.1935   25.7573 C   0  0  2  0  0  0  0  0  0  0  0  0
   10.1082  -17.5968   24.3556 N   0  0  0  0  0  0  0  0  0  0  0  0
   11.0951  -17.8111   26.5612 C   0  0  0  0  0  0  0  0  0  0  0  0
   11.8324  -18.7537   26.2203 O   0  0  0  0  0  0  0  0  0  0  0  0
   11.3066  -17.3034   27.8465 O   0  0  0  0  0  0  0  0  0  0  0  0
  2  1  1  6
  2 10  1  0
  3  2  1  0
  4  5  2  0
  4  3  1  0
  6  5  1  0
  7  6  2  0
  8  7  1  0
  8  9  2  0
  9  4  1  0
 10 16  1  0
 10 11  2  0
 13 12  1  6
 14 13  1  0
 15 13  1  0
 15 16  1  6
 17 18  2  0
 17 15  1  0
 20 22  1  0
 20 19  1  0
 21 20  2  0
 23 22  1  0
 24 23  1  0
 24 25  1  0
 26 25  1  1
 26 27  1  0
 27 17  1  0
 28 26  1  0
 29 28  2  0
 30 28  1  0
M  END
$$$$
