FTR.pdb
     RDKit          3D

 30 30  0  0  1  0  0  0  0  0999 V2000
    5.3037  -16.9830   24.6942 N   0  0  0  0  0  0  0  0  0  0  0  0
    6.2295  -15.9363   24.3621 C   0  0  1  0  0  0  0  0  0  0  0  0
    7.0734  -15.5771   25.5566 C   0  0  0  0  0  0  0  0  0  0  0  0
    6.8295  -14.1629   25.9028 C   0  0  0  0  0  0  0  0  0  0  0  0
    7.6905  -13.1819   25.4723 C   0  0  0  0  0  0  0  0  0  0  0  0
    7.4777  -11.8360   25.7892 C   0  0  0  0  0  0  0  0  0  0  0  0
    6.3657  -11.5211   26.5547 C   0  0  0  0  0  0  0  0  0  0  0  0
    5.4934  -12.4789   26.9956 C   0  0  0  0  0  0  0  0  0  0  0  0
    5.7414  -13.7928   26.6601 C   0  0  0  0  0  0  0  0  0  0  0  0
    7.0505  -16.3065   23.1849 C   0  0  0  0  0  0  0  0  0  0  0  0
    6.5016  -17.0546   22.3244 O   0  0  0  0  0  0  0  0  0  0  0  0
    6.6830  -15.9930   20.8061 C   0  0  0  0  0  0  0  0  0  0  0  0
    8.0751  -15.4337   20.7097 C   0  0  1  0  0  0  0  0  0  0  0  0
    8.0871  -14.0623   20.9016 O   0  0  0  0  0  0  0  0  0  0  0  0
    9.0039  -16.0527   21.7403 C   0  0  2  0  0  0  0  0  0  0  0  0
    8.3851  -15.8550   23.0145 N   0  0  0  0  0  0  0  0  0  0  0  0
   10.3427  -15.4069   21.6533 C   0  0  0  0  0  0  0  0  0  0  0  0
   10.4381  -14.1526   21.4310 O   0  0  0  0  0  0  0  0  0  0  0  0
    9.3457  -15.0981   27.9083 N   0  0  0  0  0  0  0  0  0  0  0  0
   10.6160  -15.4031   28.5097 C   0  0  0  0  0  0  0  0  0  0  0  0
   10.8767  -14.9683   29.7132 N   0  0  0  0  0  0  0  0  0  0  0  0
   11.5843  -16.1647   27.8191 N   0  0  0  0  0  0  0  0  0  0  0  0
   11.2186  -16.7448   26.5469 C   0  0  0  0  0  0  0  0  0  0  0  0
   12.2083  -16.4048   25.4597 C   0  0  0  0  0  0  0  0  0  0  0  0
   11.5471  -16.3832   24.1286 C   0  0  0  0  0  0  0  0  0  0  0  0
   12.4261  -15.9472   22.9811 C   0  0  2  0  0  0  0  0  0  0  0  0
   11.5771  -16.0775   21.8005 N   0  0  0  0  0  0  0  0  0  0  0  0
   13.6129  -16.7943   22.9079 C   0  0  0  0  0  0  0  0  0  0  0  0
   14.6441  -16.6872   23.5960 O   0  0  0  0  0  0  0  0  0  0  0  0
   13.6056  -17.8357   21.9752 O   0  0  0  0  0  0  0  0  0  0  0  0
  2  1  1  1
  2 10  1  0
  3  2  1  0
  4  5  2  0
  4  3  1  0
  6  5  1  0
  7  6  2  0
  8  7  1  0
  8  9  2  0
  9  4  1  0
 10 16  1  0
 10 11  2  0
 13 12  1  1
 14 13  1  0
 15 13  1  0
 15 16  1  1
 17 18  2  0
 17 15  1  0
 20 22  1  0
 20 19  1  0
 21 20  2  0
 23 22  1  0
 24 23  1  0
 24 25  1  0
 26 25  1  1
 26 27  1  0
 27 17  1  0
 28 26  1  0
 29 28  2  0
 30 28  1  0
M  END
$$$$
