FTR.pdb
     RDKit          3D

 30 30  0  0  1  0  0  0  0  0999 V2000
    8.7268  -17.0123   15.6068 N   0  0  0  0  0  0  0  0  0  0  0  0
    8.0232  -17.1334   16.8532 C   0  0  1  0  0  0  0  0  0  0  0  0
    7.8848  -18.5810   17.2447 C   0  0  0  0  0  0  0  0  0  0  0  0
    6.4625  -18.9651   17.1493 C   0  0  0  0  0  0  0  0  0  0  0  0
    5.6945  -19.0801   18.2834 C   0  0  0  0  0  0  0  0  0  0  0  0
    4.3452  -19.4427   18.2152 C   0  0  0  0  0  0  0  0  0  0  0  0
    3.8040  -19.6837   16.9619 C   0  0  0  0  0  0  0  0  0  0  0  0
    4.5471  -19.5761   15.8178 C   0  0  0  0  0  0  0  0  0  0  0  0
    5.8730  -19.2161   15.9312 C   0  0  0  0  0  0  0  0  0  0  0  0
    8.6738  -16.3249   17.9115 C   0  0  0  0  0  0  0  0  0  0  0  0
    9.9379  -16.2714   17.8866 O   0  0  0  0  0  0  0  0  0  0  0  0
    7.6129  -12.7664   19.0965 C   0  0  0  0  0  0  0  0  0  0  0  0
    7.7917  -13.7036   20.2584 C   0  0  1  0  0  0  0  0  0  0  0  0
    6.5770  -14.1899   20.7117 O   0  0  0  0  0  0  0  0  0  0  0  0
    8.6593  -14.8958   19.8926 C   0  0  2  0  0  0  0  0  0  0  0  0
    7.9336  -15.6390   18.9095 N   0  0  0  0  0  0  0  0  0  0  0  0
    8.9424  -15.6973   21.1151 C   0  0  0  0  0  0  0  0  0  0  0  0
    8.0754  -16.5256   21.5557 O   0  0  0  0  0  0  0  0  0  0  0  0
   16.6139  -18.2767   23.9418 N   0  0  0  0  0  0  0  0  0  0  0  0
   15.7037  -19.3080   24.3619 C   0  0  0  0  0  0  0  0  0  0  0  0
   16.1787  -20.4324   24.8260 N   0  0  0  0  0  0  0  0  0  0  0  0
   14.3060  -19.1229   24.2801 N   0  0  0  0  0  0  0  0  0  0  0  0
   13.8111  -17.8952   23.7001 C   0  0  0  0  0  0  0  0  0  0  0  0
   12.3040  -17.8228   23.7188 C   0  0  0  0  0  0  0  0  0  0  0  0
   11.8309  -16.4966   23.2424 C   0  0  0  0  0  0  0  0  0  0  0  0
   10.3327  -16.3533   23.1231 C   0  0  2  0  0  0  0  0  0  0  0  0
   10.1334  -15.6289   21.8712 N   0  0  0  0  0  0  0  0  0  0  0  0
    9.8045  -15.6278   24.2747 C   0  0  0  0  0  0  0  0  0  0  0  0
    9.5419  -14.4128   24.3290 O   0  0  0  0  0  0  0  0  0  0  0  0
    9.5640  -16.3582   25.4423 O   0  0  0  0  0  0  0  0  0  0  0  0
  2  1  1  6
  2 10  1  0
  3  2  1  0
  4  5  2  0
  4  3  1  0
  6  5  1  0
  7  6  2  0
  8  7  1  0
  8  9  2  0
  9  4  1  0
 10 16  1  0
 10 11  2  0
 13 12  1  6
 14 13  1  0
 15 13  1  0
 15 16  1  6
 17 18  2  0
 17 15  1  0
 20 22  1  0
 20 19  1  0
 21 20  2  0
 23 22  1  0
 24 23  1  0
 24 25  1  0
 26 25  1  1
 26 27  1  0
 27 17  1  0
 28 26  1  0
 29 28  2  0
 30 28  1  0
M  END
$$$$
