FTR.pdb
     RDKit          3D

 30 30  0  0  1  0  0  0  0  0999 V2000
    5.9547  -16.5784   25.9921 N   0  0  0  0  0  0  0  0  0  0  0  0
    6.7635  -15.6035   25.3149 C   0  0  1  0  0  0  0  0  0  0  0  0
    7.6886  -14.9171   26.2848 C   0  0  0  0  0  0  0  0  0  0  0  0
    7.2044  -13.5409   26.5106 C   0  0  0  0  0  0  0  0  0  0  0  0
    8.0641  -12.5635   26.9516 C   0  0  0  0  0  0  0  0  0  0  0  0
    7.6257  -11.2534   27.1719 C   0  0  0  0  0  0  0  0  0  0  0  0
    6.2904  -10.9703   26.9303 C   0  0  0  0  0  0  0  0  0  0  0  0
    5.4142  -11.9253   26.4910 C   0  0  0  0  0  0  0  0  0  0  0  0
    5.8889  -13.2034   26.2870 C   0  0  0  0  0  0  0  0  0  0  0  0
    7.4933  -16.2149   24.1789 C   0  0  0  0  0  0  0  0  0  0  0  0
    7.8372  -17.4254   24.3125 O   0  0  0  0  0  0  0  0  0  0  0  0
    6.8561  -15.2607   20.4288 C   0  0  0  0  0  0  0  0  0  0  0  0
    8.3279  -15.4176   20.6922 C   0  0  1  0  0  0  0  0  0  0  0  0
    8.9669  -14.1909   20.7584 O   0  0  0  0  0  0  0  0  0  0  0  0
    8.5921  -16.1474   21.9982 C   0  0  2  0  0  0  0  0  0  0  0  0
    7.7996  -15.4955   22.9945 N   0  0  0  0  0  0  0  0  0  0  0  0
   10.0475  -16.0978   22.3089 C   0  0  0  0  0  0  0  0  0  0  0  0
   10.5717  -15.0247   22.7624 O   0  0  0  0  0  0  0  0  0  0  0  0
   12.1318  -21.2521   27.3602 N   0  0  0  0  0  0  0  0  0  0  0  0
   11.1949  -21.1004   26.2796 C   0  0  0  0  0  0  0  0  0  0  0  0
   10.3469  -22.0608   26.0266 N   0  0  0  0  0  0  0  0  0  0  0  0
   11.1783  -19.9301   25.4894 N   0  0  0  0  0  0  0  0  0  0  0  0
   12.1226  -18.8811   25.8002 C   0  0  0  0  0  0  0  0  0  0  0  0
   12.0245  -17.7223   24.8387 C   0  0  0  0  0  0  0  0  0  0  0  0
   12.6226  -18.0723   23.5237 C   0  0  0  0  0  0  0  0  0  0  0  0
   12.3786  -17.0717   22.4197 C   0  0  2  0  0  0  0  0  0  0  0  0
   10.9484  -17.1730   22.1443 N   0  0  0  0  0  0  0  0  0  0  0  0
   13.1933  -17.4018   21.2540 C   0  0  0  0  0  0  0  0  0  0  0  0
   12.7874  -17.8630   20.1720 O   0  0  0  0  0  0  0  0  0  0  0  0
   14.5711  -17.1832   21.3471 O   0  0  0  0  0  0  0  0  0  0  0  0
  2  1  1  1
  2 10  1  0
  3  2  1  0
  4  5  2  0
  4  3  1  0
  6  5  1  0
  7  6  2  0
  8  7  1  0
  8  9  2  0
  9  4  1  0
 10 16  1  0
 10 11  2  0
 13 12  1  1
 14 13  1  0
 15 13  1  0
 15 16  1  1
 17 18  2  0
 17 15  1  0
 20 22  1  0
 20 19  1  0
 21 20  2  0
 23 22  1  0
 24 23  1  0
 24 25  1  0
 26 25  1  1
 26 27  1  0
 27 17  1  0
 28 26  1  0
 29 28  2  0
 30 28  1  0
M  END
$$$$
