FTR.pdb
     RDKit          3D

 30 30  0  0  1  0  0  0  0  0999 V2000
    7.9752  -13.8481   20.2335 N   0  0  0  0  0  0  0  0  0  0  0  0
    8.0796  -13.8125   21.6656 C   0  0  1  0  0  0  0  0  0  0  0  0
    6.9325  -13.0397   22.2612 C   0  0  0  0  0  0  0  0  0  0  0  0
    7.1098  -12.9790   23.7255 C   0  0  0  0  0  0  0  0  0  0  0  0
    6.5436  -13.9338   24.5359 C   0  0  0  0  0  0  0  0  0  0  0  0
    6.6994  -13.8948   25.9256 C   0  0  0  0  0  0  0  0  0  0  0  0
    7.4464  -12.8578   26.4625 C   0  0  0  0  0  0  0  0  0  0  0  0
    8.0204  -11.8949   25.6776 C   0  0  0  0  0  0  0  0  0  0  0  0
    7.8414  -11.9719   24.3129 C   0  0  0  0  0  0  0  0  0  0  0  0
    8.1858  -15.1809   22.2250 C   0  0  0  0  0  0  0  0  0  0  0  0
    7.6608  -16.1120   21.5476 O   0  0  0  0  0  0  0  0  0  0  0  0
    9.6992  -17.1927   21.2981 C   0  0  0  0  0  0  0  0  0  0  0  0
   10.2780  -17.1617   22.6853 C   0  0  1  0  0  0  0  0  0  0  0  0
   11.3070  -16.2406   22.7871 O   0  0  0  0  0  0  0  0  0  0  0  0
    9.2306  -16.8013   23.7251 C   0  0  2  0  0  0  0  0  0  0  0  0
    8.8389  -15.4524   23.4555 N   0  0  0  0  0  0  0  0  0  0  0  0
    9.8081  -16.9628   25.0880 C   0  0  0  0  0  0  0  0  0  0  0  0
   10.6360  -16.1021   25.5414 O   0  0  0  0  0  0  0  0  0  0  0  0
    6.4293  -22.9923   26.4312 N   0  0  0  0  0  0  0  0  0  0  0  0
    7.0745  -21.7247   26.2182 C   0  0  0  0  0  0  0  0  0  0  0  0
    7.5018  -21.4153   25.0236 N   0  0  0  0  0  0  0  0  0  0  0  0
    7.2525  -20.8108   27.2801 N   0  0  0  0  0  0  0  0  0  0  0  0
    6.4541  -19.6062   27.2873 C   0  0  0  0  0  0  0  0  0  0  0  0
    7.2880  -18.3708   27.5229 C   0  0  0  0  0  0  0  0  0  0  0  0
    8.6373  -18.7310   28.0319 C   0  0  0  0  0  0  0  0  0  0  0  0
    9.7838  -17.9741   27.4057 C   0  0  2  0  0  0  0  0  0  0  0  0
    9.5154  -18.0252   25.9715 N   0  0  0  0  0  0  0  0  0  0  0  0
   11.0528  -18.6052   27.7560 C   0  0  0  0  0  0  0  0  0  0  0  0
   11.8073  -19.2298   26.9886 O   0  0  0  0  0  0  0  0  0  0  0  0
   11.4773  -18.5066   29.0845 O   0  0  0  0  0  0  0  0  0  0  0  0
  2  1  1  6
  2 10  1  0
  3  2  1  0
  4  5  2  0
  4  3  1  0
  6  5  1  0
  7  6  2  0
  8  7  1  0
  8  9  2  0
  9  4  1  0
 10 16  1  0
 10 11  2  0
 13 12  1  6
 14 13  1  0
 15 13  1  0
 15 16  1  6
 17 18  2  0
 17 15  1  0
 20 22  1  0
 20 19  1  0
 21 20  2  0
 23 22  1  0
 24 23  1  0
 24 25  1  0
 26 25  1  1
 26 27  1  0
 27 17  1  0
 28 26  1  0
 29 28  2  0
 30 28  1  0
M  END
$$$$
