FTR.pdb
     RDKit          3D

 30 30  0  0  1  0  0  0  0  0999 V2000
    5.7686  -16.2408   25.5261 N   0  0  0  0  0  0  0  0  0  0  0  0
    6.8100  -15.5087   24.8607 C   0  0  1  0  0  0  0  0  0  0  0  0
    7.7764  -14.9340   25.8625 C   0  0  0  0  0  0  0  0  0  0  0  0
    7.3348  -13.5718   26.2214 C   0  0  0  0  0  0  0  0  0  0  0  0
    8.1682  -12.4959   26.0286 C   0  0  0  0  0  0  0  0  0  0  0  0
    7.7694  -11.1971   26.3618 C   0  0  0  0  0  0  0  0  0  0  0  0
    6.5011  -11.0281   26.8953 C   0  0  0  0  0  0  0  0  0  0  0  0
    5.6525  -12.0825   27.0971 C   0  0  0  0  0  0  0  0  0  0  0  0
    6.0863  -13.3454   26.7545 C   0  0  0  0  0  0  0  0  0  0  0  0
    7.4868  -16.3507   23.8460 C   0  0  0  0  0  0  0  0  0  0  0  0
    6.8340  -17.3414   23.4056 O   0  0  0  0  0  0  0  0  0  0  0  0
    6.8421  -16.8788   21.4935 C   0  0  0  0  0  0  0  0  0  0  0  0
    8.2194  -16.4109   21.1137 C   0  0  1  0  0  0  0  0  0  0  0  0
    8.2515  -15.0432   20.8997 O   0  0  0  0  0  0  0  0  0  0  0  0
    9.2414  -16.7343   22.1903 C   0  0  2  0  0  0  0  0  0  0  0  0
    8.7990  -16.0759   23.3803 N   0  0  0  0  0  0  0  0  0  0  0  0
   10.5871  -16.2713   21.7524 C   0  0  0  0  0  0  0  0  0  0  0  0
   10.7260  -15.1249   21.2062 O   0  0  0  0  0  0  0  0  0  0  0  0
   18.2396  -16.6581   23.0543 N   0  0  0  0  0  0  0  0  0  0  0  0
   18.0309  -16.1202   24.3717 C   0  0  0  0  0  0  0  0  0  0  0  0
   18.9626  -15.3880   24.9205 N   0  0  0  0  0  0  0  0  0  0  0  0
   16.8351  -16.3718   25.0797 N   0  0  0  0  0  0  0  0  0  0  0  0
   15.8321  -17.2038   24.4548 C   0  0  0  0  0  0  0  0  0  0  0  0
   15.2228  -16.5474   23.2402 C   0  0  0  0  0  0  0  0  0  0  0  0
   13.7849  -16.9015   23.1114 C   0  0  0  0  0  0  0  0  0  0  0  0
   13.1104  -16.4040   21.8557 C   0  0  2  0  0  0  0  0  0  0  0  0
   11.7828  -17.0106   21.8892 N   0  0  0  0  0  0  0  0  0  0  0  0
   13.8763  -16.8086   20.6804 C   0  0  0  0  0  0  0  0  0  0  0  0
   14.9471  -16.3125   20.2861 O   0  0  0  0  0  0  0  0  0  0  0  0
   13.3684  -17.8586   19.9095 O   0  0  0  0  0  0  0  0  0  0  0  0
  2  1  1  1
  2 10  1  0
  3  2  1  0
  4  5  2  0
  4  3  1  0
  6  5  1  0
  7  6  2  0
  8  7  1  0
  8  9  2  0
  9  4  1  0
 10 16  1  0
 10 11  2  0
 13 12  1  1
 14 13  1  0
 15 13  1  0
 15 16  1  1
 17 18  2  0
 17 15  1  0
 20 22  1  0
 20 19  1  0
 21 20  2  0
 23 22  1  0
 24 23  1  0
 24 25  1  0
 26 25  1  1
 26 27  1  0
 27 17  1  0
 28 26  1  0
 29 28  2  0
 30 28  1  0
M  END
$$$$
