FTR.pdb
     RDKit          3D

 30 30  0  0  1  0  0  0  0  0999 V2000
    6.1983  -15.6216   25.8983 N   0  0  0  0  0  0  0  0  0  0  0  0
    6.7548  -14.8888   24.7953 C   0  0  1  0  0  0  0  0  0  0  0  0
    7.6385  -13.7750   25.2916 C   0  0  0  0  0  0  0  0  0  0  0  0
    6.7902  -12.7288   25.8960 C   0  0  0  0  0  0  0  0  0  0  0  0
    5.9665  -11.9594   25.1094 C   0  0  0  0  0  0  0  0  0  0  0  0
    5.1547  -10.9630   25.6620 C   0  0  0  0  0  0  0  0  0  0  0  0
    5.2073  -10.7749   27.0344 C   0  0  0  0  0  0  0  0  0  0  0  0
    6.0188  -11.5273   27.8393 C   0  0  0  0  0  0  0  0  0  0  0  0
    6.8021  -12.4984   27.2529 C   0  0  0  0  0  0  0  0  0  0  0  0
    7.4634  -15.7938   23.8594 C   0  0  0  0  0  0  0  0  0  0  0  0
    7.9246  -16.8659   24.3485 O   0  0  0  0  0  0  0  0  0  0  0  0
    6.9977  -15.8068   19.8770 C   0  0  0  0  0  0  0  0  0  0  0  0
    8.4434  -15.8192   20.2895 C   0  0  1  0  0  0  0  0  0  0  0  0
    9.0304  -14.5759   20.1248 O   0  0  0  0  0  0  0  0  0  0  0  0
    8.6107  -16.2200   21.7453 C   0  0  2  0  0  0  0  0  0  0  0  0
    7.6260  -15.4903   22.4826 N   0  0  0  0  0  0  0  0  0  0  0  0
    9.9975  -15.9095   22.1895 C   0  0  0  0  0  0  0  0  0  0  0  0
   10.2539  -14.7996   22.7677 O   0  0  0  0  0  0  0  0  0  0  0  0
   13.2640  -17.8448   28.6486 N   0  0  0  0  0  0  0  0  0  0  0  0
   12.0257  -17.2255   28.2594 C   0  0  0  0  0  0  0  0  0  0  0  0
   11.7308  -16.0384   28.7168 N   0  0  0  0  0  0  0  0  0  0  0  0
   11.1252  -17.8812   27.3912 N   0  0  0  0  0  0  0  0  0  0  0  0
   11.6680  -18.7441   26.3669 C   0  0  0  0  0  0  0  0  0  0  0  0
   12.4101  -17.9711   25.3045 C   0  0  0  0  0  0  0  0  0  0  0  0
   11.5064  -17.6144   24.1796 C   0  0  0  0  0  0  0  0  0  0  0  0
   12.1682  -16.9029   23.0241 C   0  0  2  0  0  0  0  0  0  0  0  0
   11.1108  -16.7633   22.0270 N   0  0  0  0  0  0  0  0  0  0  0  0
   13.2963  -17.6876   22.5310 C   0  0  0  0  0  0  0  0  0  0  0  0
   14.4964  -17.5200   22.8140 O   0  0  0  0  0  0  0  0  0  0  0  0
   13.0164  -18.7373   21.6510 O   0  0  0  0  0  0  0  0  0  0  0  0
  2  1  1  1
  2 10  1  0
  3  2  1  0
  4  5  2  0
  4  3  1  0
  6  5  1  0
  7  6  2  0
  8  7  1  0
  8  9  2  0
  9  4  1  0
 10 16  1  0
 10 11  2  0
 13 12  1  1
 14 13  1  0
 15 13  1  0
 15 16  1  1
 17 18  2  0
 17 15  1  0
 20 22  1  0
 20 19  1  0
 21 20  2  0
 23 22  1  0
 24 23  1  0
 24 25  1  0
 26 25  1  1
 26 27  1  0
 27 17  1  0
 28 26  1  0
 29 28  2  0
 30 28  1  0
M  END
$$$$
