FTR.pdb
     RDKit          3D

 30 30  0  0  1  0  0  0  0  0999 V2000
    5.1331  -22.3318   22.5326 N   0  0  0  0  0  0  0  0  0  0  0  0
    5.2737  -21.2989   23.5209 C   0  0  1  0  0  0  0  0  0  0  0  0
    4.4813  -21.6366   24.7562 C   0  0  0  0  0  0  0  0  0  0  0  0
    3.0523  -21.7213   24.3956 C   0  0  0  0  0  0  0  0  0  0  0  0
    2.3473  -22.8815   24.6103 C   0  0  0  0  0  0  0  0  0  0  0  0
    0.9927  -22.9828   24.2759 C   0  0  0  0  0  0  0  0  0  0  0  0
    0.3805  -21.8710   23.7184 C   0  0  0  0  0  0  0  0  0  0  0  0
    1.0599  -20.7045   23.4946 C   0  0  0  0  0  0  0  0  0  0  0  0
    2.3936  -20.6485   23.8392 C   0  0  0  0  0  0  0  0  0  0  0  0
    6.7021  -21.0424   23.8222 C   0  0  0  0  0  0  0  0  0  0  0  0
    7.5057  -21.9968   23.6105 O   0  0  0  0  0  0  0  0  0  0  0  0
    8.8532  -18.4416   22.3688 C   0  0  0  0  0  0  0  0  0  0  0  0
    8.9710  -18.3451   23.8645 C   0  0  1  0  0  0  0  0  0  0  0  0
    8.1726  -17.3349   24.3739 O   0  0  0  0  0  0  0  0  0  0  0  0
    8.5675  -19.6413   24.5464 C   0  0  2  0  0  0  0  0  0  0  0  0
    7.1634  -19.7972   24.3228 N   0  0  0  0  0  0  0  0  0  0  0  0
    8.9066  -19.5669   25.9943 C   0  0  0  0  0  0  0  0  0  0  0  0
    8.1447  -18.9341   26.8012 O   0  0  0  0  0  0  0  0  0  0  0  0
   14.4321  -24.1248   30.8058 N   0  0  0  0  0  0  0  0  0  0  0  0
   13.8376  -23.2871   31.8124 C   0  0  0  0  0  0  0  0  0  0  0  0
   14.1901  -23.4361   33.0610 N   0  0  0  0  0  0  0  0  0  0  0  0
   12.8796  -22.3071   31.4711 N   0  0  0  0  0  0  0  0  0  0  0  0
   12.4657  -22.2066   30.0901 C   0  0  0  0  0  0  0  0  0  0  0  0
   11.2591  -21.3166   29.9198 C   0  0  0  0  0  0  0  0  0  0  0  0
   10.8212  -21.2829   28.4997 C   0  0  0  0  0  0  0  0  0  0  0  0
   10.4344  -19.9198   27.9784 C   0  0  2  0  0  0  0  0  0  0  0  0
   10.0424  -20.1565   26.5920 N   0  0  0  0  0  0  0  0  0  0  0  0
   11.5644  -19.0017   28.0869 C   0  0  0  0  0  0  0  0  0  0  0  0
   11.9030  -18.3584   29.0967 O   0  0  0  0  0  0  0  0  0  0  0  0
   12.3559  -18.8156   26.9495 O   0  0  0  0  0  0  0  0  0  0  0  0
  2  1  1  6
  2 10  1  0
  3  2  1  0
  4  5  2  0
  4  3  1  0
  6  5  1  0
  7  6  2  0
  8  7  1  0
  8  9  2  0
  9  4  1  0
 10 16  1  0
 10 11  2  0
 13 12  1  6
 14 13  1  0
 15 13  1  0
 15 16  1  1
 17 18  2  0
 17 15  1  0
 20 22  1  0
 20 19  1  0
 21 20  2  0
 23 22  1  0
 24 23  1  0
 24 25  1  0
 26 25  1  6
 26 27  1  0
 27 17  1  0
 28 26  1  0
 29 28  2  0
 30 28  1  0
M  END
$$$$
