FTR.pdb
     RDKit          3D

 30 30  0  0  1  0  0  0  0  0999 V2000
    5.4497  -17.7067   25.8518 N   0  0  0  0  0  0  0  0  0  0  0  0
    6.0316  -16.4523   25.4629 C   0  0  1  0  0  0  0  0  0  0  0  0
    6.5548  -15.7153   26.6674 C   0  0  0  0  0  0  0  0  0  0  0  0
    6.7494  -14.2965   26.3089 C   0  0  0  0  0  0  0  0  0  0  0  0
    8.0148  -13.7897   26.1330 C   0  0  0  0  0  0  0  0  0  0  0  0
    8.2211  -12.4484   25.7931 C   0  0  0  0  0  0  0  0  0  0  0  0
    7.1039  -11.6424   25.6385 C   0  0  0  0  0  0  0  0  0  0  0  0
    5.8337  -12.1226   25.8081 C   0  0  0  0  0  0  0  0  0  0  0  0
    5.6764  -13.4507   26.1427 C   0  0  0  0  0  0  0  0  0  0  0  0
    7.0737  -16.6480   24.4274 C   0  0  0  0  0  0  0  0  0  0  0  0
    7.7696  -17.7013   24.5163 O   0  0  0  0  0  0  0  0  0  0  0  0
    6.5602  -15.6623   20.6638 C   0  0  0  0  0  0  0  0  0  0  0  0
    7.9275  -15.2686   21.1492 C   0  0  1  0  0  0  0  0  0  0  0  0
    8.0023  -13.9115   21.4143 O   0  0  0  0  0  0  0  0  0  0  0  0
    8.3096  -16.0093   22.4194 C   0  0  2  0  0  0  0  0  0  0  0  0
    7.2943  -15.7134   23.3824 N   0  0  0  0  0  0  0  0  0  0  0  0
    9.6600  -15.5673   22.8646 C   0  0  0  0  0  0  0  0  0  0  0  0
    9.8707  -14.3422   23.1589 O   0  0  0  0  0  0  0  0  0  0  0  0
    9.9295  -20.0046   26.8071 N   0  0  0  0  0  0  0  0  0  0  0  0
   10.4405  -19.3096   27.9579 C   0  0  0  0  0  0  0  0  0  0  0  0
   10.1348  -19.7372   29.1533 N   0  0  0  0  0  0  0  0  0  0  0  0
   11.2667  -18.1732   27.8145 N   0  0  0  0  0  0  0  0  0  0  0  0
   12.1137  -18.0860   26.6468 C   0  0  0  0  0  0  0  0  0  0  0  0
   11.7528  -16.9144   25.7668 C   0  0  0  0  0  0  0  0  0  0  0  0
   12.5157  -16.9541   24.4917 C   0  0  0  0  0  0  0  0  0  0  0  0
   12.0901  -15.9413   23.4561 C   0  0  2  0  0  0  0  0  0  0  0  0
   10.7847  -16.4107   23.0008 N   0  0  0  0  0  0  0  0  0  0  0  0
   13.0692  -15.8876   22.3744 C   0  0  0  0  0  0  0  0  0  0  0  0
   12.9334  -16.3508   21.2275 O   0  0  0  0  0  0  0  0  0  0  0  0
   14.2878  -15.2550   22.6381 O   0  0  0  0  0  0  0  0  0  0  0  0
  2  1  1  1
  2 10  1  0
  3  2  1  0
  4  5  2  0
  4  3  1  0
  6  5  1  0
  7  6  2  0
  8  7  1  0
  8  9  2  0
  9  4  1  0
 10 16  1  0
 10 11  2  0
 13 12  1  1
 14 13  1  0
 15 13  1  0
 15 16  1  1
 17 18  2  0
 17 15  1  0
 20 22  1  0
 20 19  1  0
 21 20  2  0
 23 22  1  0
 24 23  1  0
 24 25  1  0
 26 25  1  1
 26 27  1  0
 27 17  1  0
 28 26  1  0
 29 28  2  0
 30 28  1  0
M  END
$$$$
