FTR.pdb
     RDKit          3D

 30 30  0  0  1  0  0  0  0  0999 V2000
    5.6012  -16.8340   25.5680 N   0  0  0  0  0  0  0  0  0  0  0  0
    6.4836  -15.8284   25.0450 C   0  0  1  0  0  0  0  0  0  0  0  0
    7.2915  -15.2051   26.1525 C   0  0  0  0  0  0  0  0  0  0  0  0
    6.9416  -13.7741   26.2486 C   0  0  0  0  0  0  0  0  0  0  0  0
    5.7761  -13.3817   26.8626 C   0  0  0  0  0  0  0  0  0  0  0  0
    5.4258  -12.0312   26.9643 C   0  0  0  0  0  0  0  0  0  0  0  0
    6.2950  -11.0963   26.4239 C   0  0  0  0  0  0  0  0  0  0  0  0
    7.4612  -11.4609   25.8077 C   0  0  0  0  0  0  0  0  0  0  0  0
    7.7673  -12.8028   25.7297 C   0  0  0  0  0  0  0  0  0  0  0  0
    7.3388  -16.3798   23.9674 C   0  0  0  0  0  0  0  0  0  0  0  0
    7.6842  -17.5918   24.0830 O   0  0  0  0  0  0  0  0  0  0  0  0
    7.1464  -15.0128   20.2563 C   0  0  0  0  0  0  0  0  0  0  0  0
    8.5593  -15.3466   20.6469 C   0  0  1  0  0  0  0  0  0  0  0  0
    9.2984  -14.2052   20.9081 O   0  0  0  0  0  0  0  0  0  0  0  0
    8.6091  -16.2232   21.8867 C   0  0  2  0  0  0  0  0  0  0  0  0
    7.7586  -15.6040   22.8556 N   0  0  0  0  0  0  0  0  0  0  0  0
   10.0170  -16.3372   22.3579 C   0  0  0  0  0  0  0  0  0  0  0  0
   10.5292  -15.4171   23.0809 O   0  0  0  0  0  0  0  0  0  0  0  0
    9.9491  -18.8608   26.3462 N   0  0  0  0  0  0  0  0  0  0  0  0
   10.1352  -20.2799   26.4877 C   0  0  0  0  0  0  0  0  0  0  0  0
    9.3291  -20.9586   27.2591 N   0  0  0  0  0  0  0  0  0  0  0  0
   11.1752  -20.9493   25.8059 N   0  0  0  0  0  0  0  0  0  0  0  0
   11.4464  -20.5763   24.4363 C   0  0  0  0  0  0  0  0  0  0  0  0
   12.1438  -19.2419   24.3361 C   0  0  0  0  0  0  0  0  0  0  0  0
   12.4719  -18.9198   22.9226 C   0  0  0  0  0  0  0  0  0  0  0  0
   12.2681  -17.4768   22.5281 C   0  0  2  0  0  0  0  0  0  0  0  0
   10.8830  -17.4153   22.0705 N   0  0  0  0  0  0  0  0  0  0  0  0
   13.2157  -17.1037   21.4819 C   0  0  0  0  0  0  0  0  0  0  0  0
   14.4469  -16.9756   21.6078 O   0  0  0  0  0  0  0  0  0  0  0  0
   12.7034  -16.8627   20.2036 O   0  0  0  0  0  0  0  0  0  0  0  0
  2  1  1  1
  2 10  1  0
  3  2  1  0
  4  5  2  0
  4  3  1  0
  6  5  1  0
  7  6  2  0
  8  7  1  0
  8  9  2  0
  9  4  1  0
 10 16  1  0
 10 11  2  0
 13 12  1  1
 14 13  1  0
 15 13  1  0
 15 16  1  1
 17 18  2  0
 17 15  1  0
 20 22  1  0
 20 19  1  0
 21 20  2  0
 23 22  1  0
 24 23  1  0
 24 25  1  0
 26 25  1  6
 26 27  1  0
 27 17  1  0
 28 26  1  0
 29 28  2  0
 30 28  1  0
M  END
$$$$
