FTR.pdb
     RDKit          3D

 30 30  0  0  1  0  0  0  0  0999 V2000
    6.2656  -16.6940   26.0388 N   0  0  0  0  0  0  0  0  0  0  0  0
    7.1252  -15.8227   25.2871 C   0  0  1  0  0  0  0  0  0  0  0  0
    7.9545  -14.9706   26.2112 C   0  0  0  0  0  0  0  0  0  0  0  0
    7.2824  -13.6681   26.3879 C   0  0  0  0  0  0  0  0  0  0  0  0
    6.2678  -13.5265   27.3043 C   0  0  0  0  0  0  0  0  0  0  0  0
    5.6179  -12.3013   27.4873 C   0  0  0  0  0  0  0  0  0  0  0  0
    6.0310  -11.2292   26.7117 C   0  0  0  0  0  0  0  0  0  0  0  0
    7.0383  -11.3441   25.7927 C   0  0  0  0  0  0  0  0  0  0  0  0
    7.6515  -12.5699   25.6449 C   0  0  0  0  0  0  0  0  0  0  0  0
    7.9586  -16.5918   24.3327 C   0  0  0  0  0  0  0  0  0  0  0  0
    8.1932  -17.7990   24.6312 O   0  0  0  0  0  0  0  0  0  0  0  0
    7.3959  -16.6021   20.6077 C   0  0  0  0  0  0  0  0  0  0  0  0
    8.8728  -16.4666   20.8539 C   0  0  1  0  0  0  0  0  0  0  0  0
    9.3064  -15.1678   20.6473 O   0  0  0  0  0  0  0  0  0  0  0  0
    9.2458  -16.8579   22.2737 C   0  0  2  0  0  0  0  0  0  0  0  0
    8.4754  -16.0209   23.1407 N   0  0  0  0  0  0  0  0  0  0  0  0
   10.7112  -16.6807   22.4687 C   0  0  0  0  0  0  0  0  0  0  0  0
   11.1876  -15.5294   22.7504 O   0  0  0  0  0  0  0  0  0  0  0  0
   12.6153  -20.8749   26.4658 N   0  0  0  0  0  0  0  0  0  0  0  0
   11.9186  -21.7812   25.5931 C   0  0  0  0  0  0  0  0  0  0  0  0
   10.7766  -22.2874   25.9737 N   0  0  0  0  0  0  0  0  0  0  0  0
   12.4504  -22.1312   24.3324 N   0  0  0  0  0  0  0  0  0  0  0  0
   13.3548  -21.2048   23.6902 C   0  0  0  0  0  0  0  0  0  0  0  0
   12.8400  -19.7868   23.7276 C   0  0  0  0  0  0  0  0  0  0  0  0
   13.6381  -18.9091   22.8320 C   0  0  0  0  0  0  0  0  0  0  0  0
   13.0924  -17.5138   22.6461 C   0  0  2  0  0  0  0  0  0  0  0  0
   11.6725  -17.7107   22.3688 N   0  0  0  0  0  0  0  0  0  0  0  0
   13.7852  -16.8460   21.5481 C   0  0  0  0  0  0  0  0  0  0  0  0
   14.8560  -16.2164   21.6205 O   0  0  0  0  0  0  0  0  0  0  0  0
   13.1987  -16.9112   20.2806 O   0  0  0  0  0  0  0  0  0  0  0  0
  2  1  1  1
  2 10  1  0
  3  2  1  0
  4  5  2  0
  4  3  1  0
  6  5  1  0
  7  6  2  0
  8  7  1  0
  8  9  2  0
  9  4  1  0
 10 16  1  0
 10 11  2  0
 13 12  1  1
 14 13  1  0
 15 13  1  0
 15 16  1  1
 17 18  2  0
 17 15  1  0
 20 22  1  0
 20 19  1  0
 21 20  2  0
 23 22  1  0
 24 23  1  0
 24 25  1  0
 26 25  1  6
 26 27  1  0
 27 17  1  0
 28 26  1  0
 29 28  2  0
 30 28  1  0
M  END
$$$$
