VGM.pdb
     RDKit          3D

 20 19  0  0  1  0  0  0  0  0999 V2000
   39.3891  -31.2550    3.2674 C   0  0  0  0  0  0  0  0  0  0  0  0
   38.5237  -30.0616    3.5626 C   0  0  1  0  0  0  0  0  0  0  0  0
   39.0198  -28.8194    2.8557 C   0  0  0  0  0  0  0  0  0  0  0  0
   37.1071  -30.4034    3.1557 C   0  0  2  0  0  0  0  0  0  0  0  0
   37.0349  -30.8039    1.7722 N   0  0  0  0  0  0  0  0  0  0  0  0
   36.1790  -29.2732    3.3721 C   0  0  0  0  0  0  0  0  0  0  0  0
   35.7532  -28.5953    2.4102 O   0  0  0  0  0  0  0  0  0  0  0  0
   35.7318  -28.9090    4.6827 N   0  0  0  0  0  0  0  0  0  0  0  0
   34.7868  -27.8428    4.8934 C   0  0  0  0  0  0  0  0  0  0  0  0
   35.4122  -26.5732    5.3046 C   0  0  0  0  0  0  0  0  0  0  0  0
   36.6952  -26.5096    5.3430 O   0  0  0  0  0  0  0  0  0  0  0  0
   31.4982  -21.6160    2.8521 C   0  0  0  0  0  0  0  0  0  0  0  0
   32.1544  -22.0912    4.4343 S   0  0  0  0  0  0  0  0  0  0  0  0
   33.8170  -22.6382    4.5030 C   0  0  0  0  0  0  0  0  0  0  0  0
   34.4716  -23.1016    5.7050 C   0  0  0  0  0  0  0  0  0  0  0  0
   35.5252  -24.1282    5.8130 C   0  0  2  0  0  0  0  0  0  0  0  0
   34.7255  -25.4163    5.6615 N   0  0  0  0  0  0  0  0  0  0  0  0
   36.1551  -24.2779    7.1665 C   0  0  0  0  0  0  0  0  0  0  0  0
   35.7860  -25.0891    7.9837 O   0  0  0  0  0  0  0  0  0  0  0  0
   37.2378  -23.4413    7.5348 O   0  0  0  0  0  0  0  0  0  0  0  0
  2  1  1  6
  3  2  1  0
  4  2  1  0
  4  5  1  6
  6  8  1  0
  6  4  1  0
  7  6  2  0
  9 10  1  0
  9  8  1  0
 10 17  1  0
 11 10  2  0
 12 13  1  0
 13 14  1  0
 15 14  1  0
 16 15  1  1
 17 16  1  0
 18 16  1  0
 18 20  1  0
 19 18  2  0
M  END
$$$$
