VGM.pdb
     RDKit          3D

 20 19  0  0  1  0  0  0  0  0999 V2000
   12.7131   -8.4816   -7.7218 C   0  0  0  0  0  0  0  0  0  0  0  0
   13.4848   -7.4674   -8.5194 C   0  0  1  0  0  0  0  0  0  0  0  0
   14.4135   -6.6539   -7.6451 C   0  0  0  0  0  0  0  0  0  0  0  0
   14.2445   -8.2066   -9.5991 C   0  0  2  0  0  0  0  0  0  0  0  0
   15.2723   -9.0503   -9.0412 N   0  0  0  0  0  0  0  0  0  0  0  0
   14.8645   -7.2834  -10.5732 C   0  0  0  0  0  0  0  0  0  0  0  0
   14.1616   -6.5909  -11.3429 O   0  0  0  0  0  0  0  0  0  0  0  0
   16.2859   -7.1444  -10.6765 N   0  0  0  0  0  0  0  0  0  0  0  0
   16.8920   -6.1569  -11.5320 C   0  0  0  0  0  0  0  0  0  0  0  0
   18.3654   -6.1715  -11.4976 C   0  0  0  0  0  0  0  0  0  0  0  0
   18.9465   -6.6512  -10.4566 O   0  0  0  0  0  0  0  0  0  0  0  0
   23.3672  -10.8056  -13.7065 C   0  0  0  0  0  0  0  0  0  0  0  0
   21.8870   -9.8269  -13.8099 S   0  0  0  0  0  0  0  0  0  0  0  0
   21.9031   -8.2343  -13.0810 C   0  0  0  0  0  0  0  0  0  0  0  0
   20.7594   -7.3527  -13.0278 C   0  0  0  0  0  0  0  0  0  0  0  0
   20.6869   -6.0146  -12.4114 C   0  0  2  0  0  0  0  0  0  0  0  0
   19.1985   -5.7036  -12.5097 N   0  0  0  0  0  0  0  0  0  0  0  0
   21.3181   -4.9003  -13.1931 C   0  0  0  0  0  0  0  0  0  0  0  0
   20.7559   -4.3201  -14.0928 O   0  0  0  0  0  0  0  0  0  0  0  0
   22.6374   -4.4849  -12.8857 O   0  0  0  0  0  0  0  0  0  0  0  0
  2  1  1  1
  3  2  1  0
  4  2  1  0
  4  5  1  1
  6  8  1  0
  6  4  1  0
  7  6  2  0
  9 10  1  0
  9  8  1  0
 10 17  1  0
 11 10  2  0
 12 13  1  0
 13 14  1  0
 15 14  1  0
 16 15  1  6
 17 16  1  0
 18 16  1  0
 18 20  1  0
 19 18  2  0
M  END
$$$$
