VGM.pdb
     RDKit          3D

 20 19  0  0  1  0  0  0  0  0999 V2000
   22.9621  -22.0637  -15.9858 C   0  0  0  0  0  0  0  0  0  0  0  0
   23.5127  -21.5752  -14.6749 C   0  0  1  0  0  0  0  0  0  0  0  0
   24.4208  -22.5993  -14.0306 C   0  0  0  0  0  0  0  0  0  0  0  0
   24.2391  -20.2733  -14.9329 C   0  0  2  0  0  0  0  0  0  0  0  0
   25.3030  -20.4408  -15.8919 N   0  0  0  0  0  0  0  0  0  0  0  0
   24.8030  -19.6969  -13.6938 C   0  0  0  0  0  0  0  0  0  0  0  0
   24.0581  -19.3079  -12.7665 O   0  0  0  0  0  0  0  0  0  0  0  0
   26.2157  -19.5599  -13.5043 N   0  0  0  0  0  0  0  0  0  0  0  0
   26.7705  -19.0331  -12.2840 C   0  0  0  0  0  0  0  0  0  0  0  0
   26.6576  -19.9543  -11.1391 C   0  0  0  0  0  0  0  0  0  0  0  0
   26.7325  -21.2176  -11.3629 O   0  0  0  0  0  0  0  0  0  0  0  0
   28.2213  -17.8861   -4.9749 C   0  0  0  0  0  0  0  0  0  0  0  0
   28.6597  -19.5799   -5.2887 S   0  0  0  0  0  0  0  0  0  0  0  0
   27.6671  -20.4911   -6.4080 C   0  0  0  0  0  0  0  0  0  0  0  0
   27.0417  -19.9293   -7.5833 C   0  0  0  0  0  0  0  0  0  0  0  0
   26.5001  -20.6582   -8.7456 C   0  0  2  0  0  0  0  0  0  0  0  0
   26.4738  -19.5717   -9.8135 N   0  0  0  0  0  0  0  0  0  0  0  0
   25.0607  -21.0698   -8.6457 C   0  0  0  0  0  0  0  0  0  0  0  0
   24.6777  -21.9778   -7.9449 O   0  0  0  0  0  0  0  0  0  0  0  0
   24.0780  -20.3798   -9.3980 O   0  0  0  0  0  0  0  0  0  0  0  0
  2  1  1  6
  3  2  1  0
  4  2  1  0
  4  5  1  6
  6  8  1  0
  6  4  1  0
  7  6  2  0
  9 10  1  0
  9  8  1  0
 10 17  1  0
 11 10  2  0
 12 13  1  0
 13 14  1  0
 15 14  1  0
 16 15  1  1
 17 16  1  0
 18 16  1  0
 18 20  1  0
 19 18  2  0
M  END
$$$$
