VGM.pdb
     RDKit          3D

 20 19  0  0  1  0  0  0  0  0999 V2000
   16.1594  -13.1220  -20.0611 C   0  0  0  0  0  0  0  0  0  0  0  0
   16.6261  -13.5527  -18.6984 C   0  0  1  0  0  0  0  0  0  0  0  0
   16.0754  -14.9098  -18.3192 C   0  0  0  0  0  0  0  0  0  0  0  0
   18.1391  -13.5493  -18.7035 C   0  0  2  0  0  0  0  0  0  0  0  0
   18.6745  -14.0261  -17.4523 N   0  0  0  0  0  0  0  0  0  0  0  0
   18.6906  -12.2047  -18.9745 C   0  0  0  0  0  0  0  0  0  0  0  0
   18.5703  -11.6736  -20.1012 O   0  0  0  0  0  0  0  0  0  0  0  0
   19.3814  -11.4590  -17.9660 N   0  0  0  0  0  0  0  0  0  0  0  0
   19.9336  -10.1553  -18.2303 C   0  0  0  0  0  0  0  0  0  0  0  0
   20.5443   -9.5228  -17.0474 C   0  0  0  0  0  0  0  0  0  0  0  0
   20.0439   -9.7792  -15.8919 O   0  0  0  0  0  0  0  0  0  0  0  0
   26.3627  -11.5767  -14.7286 C   0  0  0  0  0  0  0  0  0  0  0  0
   26.2661   -9.9421  -15.4203 S   0  0  0  0  0  0  0  0  0  0  0  0
   24.8166   -9.0066  -15.1172 C   0  0  0  0  0  0  0  0  0  0  0  0
   23.7053   -8.9084  -16.0357 C   0  0  0  0  0  0  0  0  0  0  0  0
   22.3560   -8.3817  -15.7571 C   0  0  2  0  0  0  0  0  0  0  0  0
   21.6339   -8.6570  -17.0703 N   0  0  0  0  0  0  0  0  0  0  0  0
   22.2521   -6.8912  -15.6195 C   0  0  0  0  0  0  0  0  0  0  0  0
   22.0642   -6.1503  -16.5565 O   0  0  0  0  0  0  0  0  0  0  0  0
   22.3767   -6.2925  -14.3413 O   0  0  0  0  0  0  0  0  0  0  0  0
  2  1  1  6
  3  2  1  0
  4  2  1  0
  4  5  1  1
  6  8  1  0
  6  4  1  0
  7  6  2  0
  9 10  1  0
  9  8  1  0
 10 17  1  0
 11 10  2  0
 12 13  1  0
 13 14  1  0
 15 14  1  0
 16 15  1  6
 17 16  1  0
 18 16  1  0
 18 20  1  0
 19 18  2  0
M  END
$$$$
