VGM.pdb
     RDKit          3D

 20 19  0  0  1  0  0  0  0  0999 V2000
   18.1801  -13.5959  -16.8810 C   0  0  0  0  0  0  0  0  0  0  0  0
   18.9710  -14.8720  -16.9604 C   0  0  1  0  0  0  0  0  0  0  0  0
   18.0738  -16.0901  -16.9530 C   0  0  0  0  0  0  0  0  0  0  0  0
   19.8194  -14.8151  -18.2119 C   0  0  2  0  0  0  0  0  0  0  0  0
   20.4765  -16.0736  -18.4646 N   0  0  0  0  0  0  0  0  0  0  0  0
   20.8429  -13.7507  -18.1411 C   0  0  0  0  0  0  0  0  0  0  0  0
   21.9966  -13.9924  -17.7209 O   0  0  0  0  0  0  0  0  0  0  0  0
   20.5586  -12.4073  -18.5471 N   0  0  0  0  0  0  0  0  0  0  0  0
   21.5749  -11.3867  -18.5594 C   0  0  0  0  0  0  0  0  0  0  0  0
   21.7642  -10.7274  -17.2549 C   0  0  0  0  0  0  0  0  0  0  0  0
   20.9574  -11.0230  -16.2992 O   0  0  0  0  0  0  0  0  0  0  0  0
   27.7690  -12.0184  -14.9332 C   0  0  0  0  0  0  0  0  0  0  0  0
   26.8998  -10.4703  -15.0195 S   0  0  0  0  0  0  0  0  0  0  0  0
   25.1610  -10.5154  -15.2259 C   0  0  0  0  0  0  0  0  0  0  0  0
   24.3196   -9.3425  -15.2948 C   0  0  0  0  0  0  0  0  0  0  0  0
   22.8634   -9.2963  -15.5249 C   0  0  2  0  0  0  0  0  0  0  0  0
   22.7561   -9.7965  -16.9602 N   0  0  0  0  0  0  0  0  0  0  0  0
   22.2567   -7.9260  -15.5976 C   0  0  0  0  0  0  0  0  0  0  0  0
   22.0941   -7.3269  -16.6353 O   0  0  0  0  0  0  0  0  0  0  0  0
   21.8443   -7.2754  -14.4083 O   0  0  0  0  0  0  0  0  0  0  0  0
  2  1  1  6
  3  2  1  0
  4  2  1  0
  4  5  1  1
  6  8  1  0
  6  4  1  0
  7  6  2  0
  9 10  1  0
  9  8  1  0
 10 17  1  0
 11 10  2  0
 12 13  1  0
 13 14  1  0
 15 14  1  0
 16 15  1  6
 17 16  1  0
 18 16  1  0
 18 20  1  0
 19 18  2  0
M  END
$$$$
