VGM.pdb
     RDKit          3D

 20 19  0  0  1  0  0  0  0  0999 V2000
   26.1247  -16.0270  -16.7837 C   0  0  0  0  0  0  0  0  0  0  0  0
   26.7442  -17.3256  -16.3478 C   0  0  1  0  0  0  0  0  0  0  0  0
   28.2386  -17.1966  -16.1503 C   0  0  0  0  0  0  0  0  0  0  0  0
   26.0523  -17.7663  -15.0765 C   0  0  2  0  0  0  0  0  0  0  0  0
   26.2557  -16.8207  -14.0070 N   0  0  0  0  0  0  0  0  0  0  0  0
   26.5115  -19.0978  -14.6271 C   0  0  0  0  0  0  0  0  0  0  0  0
   25.9548  -20.1426  -15.0327 O   0  0  0  0  0  0  0  0  0  0  0  0
   27.6048  -19.2465  -13.7144 N   0  0  0  0  0  0  0  0  0  0  0  0
   28.0783  -20.5427  -13.3019 C   0  0  0  0  0  0  0  0  0  0  0  0
   27.3904  -21.0698  -12.1098 C   0  0  0  0  0  0  0  0  0  0  0  0
   27.5783  -22.3005  -11.7914 O   0  0  0  0  0  0  0  0  0  0  0  0
   28.1925  -18.4982   -6.6692 C   0  0  0  0  0  0  0  0  0  0  0  0
   27.0511  -19.7963   -6.2550 S   0  0  0  0  0  0  0  0  0  0  0  0
   26.3383  -20.7124   -7.5668 C   0  0  0  0  0  0  0  0  0  0  0  0
   26.4067  -20.3281   -8.9581 C   0  0  0  0  0  0  0  0  0  0  0  0
   25.8779  -21.0679  -10.1194 C   0  0  2  0  0  0  0  0  0  0  0  0
   26.5402  -20.3408  -11.2833 N   0  0  0  0  0  0  0  0  0  0  0  0
   24.4143  -20.8886  -10.3969 C   0  0  0  0  0  0  0  0  0  0  0  0
   23.5448  -21.3275   -9.6802 O   0  0  0  0  0  0  0  0  0  0  0  0
   23.9990  -20.1747  -11.5483 O   0  0  0  0  0  0  0  0  0  0  0  0
  2  1  1  1
  3  2  1  0
  4  2  1  0
  4  5  1  1
  6  8  1  0
  6  4  1  0
  7  6  2  0
  9 10  1  0
  9  8  1  0
 10 17  1  0
 11 10  2  0
 12 13  1  0
 13 14  1  0
 15 14  1  0
 16 15  1  1
 17 16  1  0
 18 16  1  0
 18 20  1  0
 19 18  2  0
M  END
$$$$
