VGM.pdb
     RDKit          3D

 20 19  0  0  1  0  0  0  0  0999 V2000
   16.5225  -10.9584  -20.4847 C   0  0  0  0  0  0  0  0  0  0  0  0
   17.2850  -12.2459  -20.3386 C   0  0  1  0  0  0  0  0  0  0  0  0
   17.6876  -12.8156  -21.6810 C   0  0  0  0  0  0  0  0  0  0  0  0
   18.4911  -11.9745  -19.4664 C   0  0  2  0  0  0  0  0  0  0  0  0
   19.3706  -13.1158  -19.4077 N   0  0  0  0  0  0  0  0  0  0  0  0
   18.1074  -11.5992  -18.0889 C   0  0  0  0  0  0  0  0  0  0  0  0
   17.8158  -12.4716  -17.2404 O   0  0  0  0  0  0  0  0  0  0  0  0
   18.0531  -10.2307  -17.6709 N   0  0  0  0  0  0  0  0  0  0  0  0
   17.6805   -9.8608  -16.3297 C   0  0  0  0  0  0  0  0  0  0  0  0
   18.6978   -9.0495  -15.6376 C   0  0  0  0  0  0  0  0  0  0  0  0
   18.4509   -8.6532  -14.4403 O   0  0  0  0  0  0  0  0  0  0  0  0
   23.7488  -11.4657  -12.5119 C   0  0  0  0  0  0  0  0  0  0  0  0
   22.5784  -10.8350  -13.6917 S   0  0  0  0  0  0  0  0  0  0  0  0
   23.0520   -9.4546  -14.6605 C   0  0  0  0  0  0  0  0  0  0  0  0
   22.1721   -8.7619  -15.5738 C   0  0  0  0  0  0  0  0  0  0  0  0
   20.9412   -8.0196  -15.2431 C   0  0  2  0  0  0  0  0  0  0  0  0
   19.9239   -8.6673  -16.1743 N   0  0  0  0  0  0  0  0  0  0  0  0
   20.9146   -6.5790  -15.6618 C   0  0  0  0  0  0  0  0  0  0  0  0
   20.5049   -6.2086  -16.7376 O   0  0  0  0  0  0  0  0  0  0  0  0
   21.3866   -5.5799  -14.7749 O   0  0  0  0  0  0  0  0  0  0  0  0
  2  1  1  6
  3  2  1  0
  4  2  1  0
  4  5  1  1
  6  8  1  0
  6  4  1  0
  7  6  2  0
  9 10  1  0
  9  8  1  0
 10 17  1  0
 11 10  2  0
 12 13  1  0
 13 14  1  0
 15 14  1  0
 16 15  1  6
 17 16  1  0
 18 16  1  0
 18 20  1  0
 19 18  2  0
M  END
$$$$
