VGM.pdb
     RDKit          3D

 20 19  0  0  1  0  0  0  0  0999 V2000
   17.5117  -15.3104  -16.1319 C   0  0  0  0  0  0  0  0  0  0  0  0
   17.4365  -13.8287  -16.3750 C   0  0  1  0  0  0  0  0  0  0  0  0
   16.8975  -13.0886  -15.1706 C   0  0  0  0  0  0  0  0  0  0  0  0
   18.8223  -13.3486  -16.7470 C   0  0  2  0  0  0  0  0  0  0  0  0
   19.7742  -13.6108  -15.6960 N   0  0  0  0  0  0  0  0  0  0  0  0
   18.8445  -11.9035  -17.0583 C   0  0  0  0  0  0  0  0  0  0  0  0
   18.4185  -11.4732  -18.1535 O   0  0  0  0  0  0  0  0  0  0  0  0
   19.3515  -10.9421  -16.1260 N   0  0  0  0  0  0  0  0  0  0  0  0
   19.3910   -9.5353  -16.4321 C   0  0  0  0  0  0  0  0  0  0  0  0
   20.5442   -8.8349  -15.8390 C   0  0  0  0  0  0  0  0  0  0  0  0
   21.2549   -9.4585  -14.9687 O   0  0  0  0  0  0  0  0  0  0  0  0
   25.8202   -3.0879  -17.2969 C   0  0  0  0  0  0  0  0  0  0  0  0
   24.3975   -4.1022  -17.6235 S   0  0  0  0  0  0  0  0  0  0  0  0
   23.8652   -5.1993  -16.3660 C   0  0  0  0  0  0  0  0  0  0  0  0
   22.7236   -6.0775  -16.4827 C   0  0  0  0  0  0  0  0  0  0  0  0
   22.1839   -6.9875  -15.4550 C   0  0  2  0  0  0  0  0  0  0  0  0
   20.9394   -7.5353  -16.1425 N   0  0  0  0  0  0  0  0  0  0  0  0
   21.6298   -6.3294  -14.2257 C   0  0  0  0  0  0  0  0  0  0  0  0
   20.4698   -6.0075  -14.1116 O   0  0  0  0  0  0  0  0  0  0  0  0
   22.4832   -6.0582  -13.1276 O   0  0  0  0  0  0  0  0  0  0  0  0
  2  1  1  1
  3  2  1  0
  4  2  1  0
  4  5  1  1
  6  8  1  0
  6  4  1  0
  7  6  2  0
  9 10  1  0
  9  8  1  0
 10 17  1  0
 11 10  2  0
 12 13  1  0
 13 14  1  0
 15 14  1  0
 16 15  1  6
 17 16  1  0
 18 16  1  0
 18 20  1  0
 19 18  2  0
M  END
$$$$
