VGM.pdb
     RDKit          3D

 20 19  0  0  1  0  0  0  0  0999 V2000
   29.0959  -22.7504  -16.5334 C   0  0  0  0  0  0  0  0  0  0  0  0
   27.7932  -22.8878  -15.7956 C   0  0  1  0  0  0  0  0  0  0  0  0
   27.0056  -21.5962  -15.8014 C   0  0  0  0  0  0  0  0  0  0  0  0
   27.0141  -24.0159  -16.4356 C   0  0  2  0  0  0  0  0  0  0  0  0
   26.6964  -23.7267  -17.8121 N   0  0  0  0  0  0  0  0  0  0  0  0
   25.7595  -24.3064  -15.7094 C   0  0  0  0  0  0  0  0  0  0  0  0
   25.7730  -24.6141  -14.4965 O   0  0  0  0  0  0  0  0  0  0  0  0
   24.4850  -24.2487  -16.3594 N   0  0  0  0  0  0  0  0  0  0  0  0
   23.2554  -24.4599  -15.6397 C   0  0  0  0  0  0  0  0  0  0  0  0
   22.7801  -23.2642  -14.9210 C   0  0  0  0  0  0  0  0  0  0  0  0
   21.6080  -23.2946  -14.3948 O   0  0  0  0  0  0  0  0  0  0  0  0
   24.9256  -21.0860   -8.8266 C   0  0  0  0  0  0  0  0  0  0  0  0
   25.1871  -21.0811  -10.5848 S   0  0  0  0  0  0  0  0  0  0  0  0
   23.8652  -20.5619  -11.6101 C   0  0  0  0  0  0  0  0  0  0  0  0
   23.9121  -20.5510  -13.0543 C   0  0  0  0  0  0  0  0  0  0  0  0
   22.8414  -20.9454  -13.9889 C   0  0  2  0  0  0  0  0  0  0  0  0
   23.4997  -22.0839  -14.7585 N   0  0  0  0  0  0  0  0  0  0  0  0
   22.5157  -19.9526  -15.0658 C   0  0  0  0  0  0  0  0  0  0  0  0
   23.0259  -19.9720  -16.1619 O   0  0  0  0  0  0  0  0  0  0  0  0
   21.5677  -18.9296  -14.8159 O   0  0  0  0  0  0  0  0  0  0  0  0
  2  1  1  6
  3  2  1  0
  4  2  1  0
  4  5  1  6
  6  8  1  0
  6  4  1  0
  7  6  2  0
  9 10  1  0
  9  8  1  0
 10 17  1  0
 11 10  2  0
 12 13  1  0
 13 14  1  0
 15 14  1  0
 16 15  1  1
 17 16  1  0
 18 16  1  0
 18 20  1  0
 19 18  2  0
M  END
$$$$
