VGM.pdb
     RDKit          3D

 20 19  0  0  1  0  0  0  0  0999 V2000
   15.4897  -11.3683  -14.1290 C   0  0  0  0  0  0  0  0  0  0  0  0
   16.7534  -11.7878  -14.8271 C   0  0  1  0  0  0  0  0  0  0  0  0
   16.4688  -12.4208  -16.1714 C   0  0  0  0  0  0  0  0  0  0  0  0
   17.6353  -10.5661  -14.9645 C   0  0  2  0  0  0  0  0  0  0  0  0
   18.8131  -10.8476  -15.7473 N   0  0  0  0  0  0  0  0  0  0  0  0
   18.0543  -10.0330  -13.6507 C   0  0  0  0  0  0  0  0  0  0  0  0
   19.1803  -10.3017  -13.1753 O   0  0  0  0  0  0  0  0  0  0  0  0
   17.1949   -9.1929  -12.8723 N   0  0  0  0  0  0  0  0  0  0  0  0
   17.6023   -8.6650  -11.5957 C   0  0  0  0  0  0  0  0  0  0  0  0
   16.6719   -7.6615  -11.0485 C   0  0  0  0  0  0  0  0  0  0  0  0
   15.6027   -7.3961  -11.7103 O   0  0  0  0  0  0  0  0  0  0  0  0
   12.6415   -9.3408   -7.7936 C   0  0  0  0  0  0  0  0  0  0  0  0
   12.2956   -7.6023   -7.6617 S   0  0  0  0  0  0  0  0  0  0  0  0
   13.5423   -6.4770   -8.1592 C   0  0  0  0  0  0  0  0  0  0  0  0
   14.7691   -6.8620   -8.8187 C   0  0  0  0  0  0  0  0  0  0  0  0
   15.7696   -5.9740   -9.4399 C   0  0  2  0  0  0  0  0  0  0  0  0
   16.8509   -6.9628   -9.8580 N   0  0  0  0  0  0  0  0  0  0  0  0
   16.4963   -5.0532   -8.5043 C   0  0  0  0  0  0  0  0  0  0  0  0
   17.4965   -5.3719   -7.9040 O   0  0  0  0  0  0  0  0  0  0  0  0
   16.0107   -3.7390   -8.2925 O   0  0  0  0  0  0  0  0  0  0  0  0
  2  1  1  6
  3  2  1  0
  4  2  1  0
  4  5  1  6
  6  8  1  0
  6  4  1  0
  7  6  2  0
  9 10  1  0
  9  8  1  0
 10 17  1  0
 11 10  2  0
 12 13  1  0
 13 14  1  0
 15 14  1  0
 16 15  1  1
 17 16  1  0
 18 16  1  0
 18 20  1  0
 19 18  2  0
M  END
$$$$
