VGM.pdb
     RDKit          3D

 20 19  0  0  1  0  0  0  0  0999 V2000
   23.6840  -20.2794  -18.0935 C   0  0  0  0  0  0  0  0  0  0  0  0
   24.0366  -19.5027  -16.8554 C   0  0  1  0  0  0  0  0  0  0  0  0
   22.8866  -18.6377  -16.3886 C   0  0  0  0  0  0  0  0  0  0  0  0
   24.4548  -20.4924  -15.7901 C   0  0  2  0  0  0  0  0  0  0  0  0
   23.3468  -21.3095  -15.3611 N   0  0  0  0  0  0  0  0  0  0  0  0
   25.0370  -19.8227  -14.6076 C   0  0  0  0  0  0  0  0  0  0  0  0
   26.1679  -19.2894  -14.6603 O   0  0  0  0  0  0  0  0  0  0  0  0
   24.3361  -19.7572  -13.3608 N   0  0  0  0  0  0  0  0  0  0  0  0
   24.8538  -19.0206  -12.2366 C   0  0  0  0  0  0  0  0  0  0  0  0
   25.3114  -19.8791  -11.1294 C   0  0  0  0  0  0  0  0  0  0  0  0
   25.2682  -21.1537  -11.2878 O   0  0  0  0  0  0  0  0  0  0  0  0
   29.1406  -19.7247   -4.1028 C   0  0  0  0  0  0  0  0  0  0  0  0
   28.4653  -19.0126   -5.5849 S   0  0  0  0  0  0  0  0  0  0  0  0
   27.5265  -20.0489   -6.6398 C   0  0  0  0  0  0  0  0  0  0  0  0
   26.9761  -19.6324   -7.9093 C   0  0  0  0  0  0  0  0  0  0  0  0
   26.2453  -20.4627   -8.8852 C   0  0  2  0  0  0  0  0  0  0  0  0
   25.7947  -19.4248   -9.9057 N   0  0  0  0  0  0  0  0  0  0  0  0
   24.9507  -21.0490   -8.4042 C   0  0  0  0  0  0  0  0  0  0  0  0
   23.8826  -20.4985   -8.5393 O   0  0  0  0  0  0  0  0  0  0  0  0
   24.9471  -22.3087   -7.7553 O   0  0  0  0  0  0  0  0  0  0  0  0
  2  1  1  6
  3  2  1  0
  4  2  1  0
  4  5  1  1
  6  8  1  0
  6  4  1  0
  7  6  2  0
  9 10  1  0
  9  8  1  0
 10 17  1  0
 11 10  2  0
 12 13  1  0
 13 14  1  0
 15 14  1  0
 16 15  1  1
 17 16  1  0
 18 16  1  0
 18 20  1  0
 19 18  2  0
M  END
$$$$
