VGM.pdb
     RDKit          3D

 20 19  0  0  1  0  0  0  0  0999 V2000
   20.0434  -13.8432  -17.4665 C   0  0  0  0  0  0  0  0  0  0  0  0
   18.7297  -13.9938  -18.1817 C   0  0  1  0  0  0  0  0  0  0  0  0
   18.2392  -15.4248  -18.1600 C   0  0  0  0  0  0  0  0  0  0  0  0
   17.7364  -13.0567  -17.5302 C   0  0  2  0  0  0  0  0  0  0  0  0
   16.4169  -13.2087  -18.0917 N   0  0  0  0  0  0  0  0  0  0  0  0
   18.1449  -11.6412  -17.6535 C   0  0  0  0  0  0  0  0  0  0  0  0
   17.7455  -10.9356  -18.6067 O   0  0  0  0  0  0  0  0  0  0  0  0
   19.0094  -11.0227  -16.6941 N   0  0  0  0  0  0  0  0  0  0  0  0
   19.3839   -9.6355  -16.7928 C   0  0  0  0  0  0  0  0  0  0  0  0
   20.2483   -9.1782  -15.6902 C   0  0  0  0  0  0  0  0  0  0  0  0
   20.5691  -10.0227  -14.7761 O   0  0  0  0  0  0  0  0  0  0  0  0
   26.7422  -10.6522  -15.0009 C   0  0  0  0  0  0  0  0  0  0  0  0
   25.0581  -10.3861  -15.5033 S   0  0  0  0  0  0  0  0  0  0  0  0
   24.3856   -8.7810  -15.3041 C   0  0  0  0  0  0  0  0  0  0  0  0
   23.0228   -8.4246  -15.6261 C   0  0  0  0  0  0  0  0  0  0  0  0
   22.0545   -7.7169  -14.7675 C   0  0  2  0  0  0  0  0  0  0  0  0
   20.7572   -7.8905  -15.5475 N   0  0  0  0  0  0  0  0  0  0  0  0
   22.2108   -6.2263  -14.6977 C   0  0  0  0  0  0  0  0  0  0  0  0
   21.7453   -5.4715  -15.5198 O   0  0  0  0  0  0  0  0  0  0  0  0
   22.9346   -5.6443  -13.6276 O   0  0  0  0  0  0  0  0  0  0  0  0
  2  1  1  1
  3  2  1  0
  4  2  1  0
  4  5  1  6
  6  8  1  0
  6  4  1  0
  7  6  2  0
  9 10  1  0
  9  8  1  0
 10 17  1  0
 11 10  2  0
 12 13  1  0
 13 14  1  0
 15 14  1  0
 16 15  1  6
 17 16  1  0
 18 16  1  0
 18 20  1  0
 19 18  2  0
M  END
$$$$
