VGM.pdb
     RDKit          3D

 20 19  0  0  1  0  0  0  0  0999 V2000
   21.1597  -10.0464  -18.3173 C   0  0  0  0  0  0  0  0  0  0  0  0
   19.6572  -10.0638  -18.3650 C   0  0  1  0  0  0  0  0  0  0  0  0
   19.1431  -10.6498  -19.6615 C   0  0  0  0  0  0  0  0  0  0  0  0
   19.1639  -10.8467  -17.1679 C   0  0  2  0  0  0  0  0  0  0  0  0
   17.7234  -10.8734  -17.1088 N   0  0  0  0  0  0  0  0  0  0  0  0
   19.6815  -10.3005  -15.8953 C   0  0  0  0  0  0  0  0  0  0  0  0
   20.7756  -10.6860  -15.4258 O   0  0  0  0  0  0  0  0  0  0  0  0
   18.9571   -9.3145  -15.1514 N   0  0  0  0  0  0  0  0  0  0  0  0
   19.4668   -8.7655  -13.9213 C   0  0  0  0  0  0  0  0  0  0  0  0
   20.6205   -7.8679  -14.1096 C   0  0  0  0  0  0  0  0  0  0  0  0
   21.6977   -8.3562  -14.6124 O   0  0  0  0  0  0  0  0  0  0  0  0
   24.1793   -4.4973  -19.1173 C   0  0  0  0  0  0  0  0  0  0  0  0
   22.7506   -4.9292  -18.1519 S   0  0  0  0  0  0  0  0  0  0  0  0
   23.0066   -5.4917  -16.5129 C   0  0  0  0  0  0  0  0  0  0  0  0
   21.9472   -5.8961  -15.6172 C   0  0  0  0  0  0  0  0  0  0  0  0
   21.8931   -5.7166  -14.1542 C   0  0  2  0  0  0  0  0  0  0  0  0
   20.6484   -6.5145  -13.7856 N   0  0  0  0  0  0  0  0  0  0  0  0
   21.5618   -4.3330  -13.6775 C   0  0  0  0  0  0  0  0  0  0  0  0
   20.4292   -3.9305  -13.5455 O   0  0  0  0  0  0  0  0  0  0  0  0
   22.6062   -3.4300  -13.3589 O   0  0  0  0  0  0  0  0  0  0  0  0
  2  1  1  6
  3  2  1  0
  4  2  1  0
  4  5  1  1
  6  8  1  0
  6  4  1  0
  7  6  2  0
  9 10  1  0
  9  8  1  0
 10 17  1  0
 11 10  2  0
 12 13  1  0
 13 14  1  0
 15 14  1  0
 16 15  1  6
 17 16  1  0
 18 16  1  0
 18 20  1  0
 19 18  2  0
M  END
$$$$
