VGM.pdb
     RDKit          3D

 20 19  0  0  1  0  0  0  0  0999 V2000
   18.1037  -13.4733  -15.8678 C   0  0  0  0  0  0  0  0  0  0  0  0
   17.8959  -14.1676  -17.1850 C   0  0  1  0  0  0  0  0  0  0  0  0
   17.0202  -15.3930  -17.0419 C   0  0  0  0  0  0  0  0  0  0  0  0
   17.2964  -13.1664  -18.1479 C   0  0  2  0  0  0  0  0  0  0  0  0
   16.9181  -13.7887  -19.3925 N   0  0  0  0  0  0  0  0  0  0  0  0
   18.2223  -12.0506  -18.4369 C   0  0  0  0  0  0  0  0  0  0  0  0
   18.7015  -11.8905  -19.5818 O   0  0  0  0  0  0  0  0  0  0  0  0
   18.6075  -11.1131  -17.4255 N   0  0  0  0  0  0  0  0  0  0  0  0
   19.5333  -10.0432  -17.6949 C   0  0  0  0  0  0  0  0  0  0  0  0
   19.8075   -9.1918  -16.5236 C   0  0  0  0  0  0  0  0  0  0  0  0
   19.0980   -9.3626  -15.4658 O   0  0  0  0  0  0  0  0  0  0  0  0
   25.2135  -11.1695  -14.1349 C   0  0  0  0  0  0  0  0  0  0  0  0
   24.6889   -9.4790  -14.2988 S   0  0  0  0  0  0  0  0  0  0  0  0
   22.9954   -9.1728  -14.6249 C   0  0  0  0  0  0  0  0  0  0  0  0
   22.4357   -7.8604  -14.8539 C   0  0  0  0  0  0  0  0  0  0  0  0
   21.0246   -7.5212  -15.1175 C   0  0  2  0  0  0  0  0  0  0  0  0
   20.7834   -8.2014  -16.4595 N   0  0  0  0  0  0  0  0  0  0  0  0
   20.7443   -6.0774  -15.4144 C   0  0  0  0  0  0  0  0  0  0  0  0
   20.6905   -5.2231  -14.5603 O   0  0  0  0  0  0  0  0  0  0  0  0
   20.5271   -5.6637  -16.7521 O   0  0  0  0  0  0  0  0  0  0  0  0
  2  1  1  1
  3  2  1  0
  4  2  1  0
  4  5  1  6
  6  8  1  0
  6  4  1  0
  7  6  2  0
  9 10  1  0
  9  8  1  0
 10 17  1  0
 11 10  2  0
 12 13  1  0
 13 14  1  0
 15 14  1  0
 16 15  1  6
 17 16  1  0
 18 16  1  0
 18 20  1  0
 19 18  2  0
M  END
$$$$
