RYK.pdb
     RDKit          3D

 33 33  0  0  1  0  0  0  0  0999 V2000
   24.9638  -24.5013  -18.7662 N   0  0  0  0  0  0  0  0  0  0  0  0
   23.8386  -23.9878  -19.4786 C   0  0  0  0  0  0  0  0  0  0  0  0
   22.9229  -24.8152  -19.7948 N   0  0  0  0  0  0  0  0  0  0  0  0
   23.7248  -22.6234  -19.8299 N   0  0  0  0  0  0  0  0  0  0  0  0
   24.6944  -21.6399  -19.3056 C   0  0  0  0  0  0  0  0  0  0  0  0
   24.1885  -21.0526  -18.0413 C   0  0  0  0  0  0  0  0  0  0  0  0
   24.3115  -21.9475  -16.8644 C   0  0  0  0  0  0  0  0  0  0  0  0
   25.4439  -21.6113  -15.9697 C   0  0  2  0  0  0  0  0  0  0  0  0
   26.5829  -22.4805  -16.2095 N   0  0  0  0  0  0  0  0  0  0  0  0
   25.0240  -21.8283  -14.5336 C   0  0  0  0  0  0  0  0  0  0  0  0
   24.8904  -22.9677  -14.0613 O   0  0  0  0  0  0  0  0  0  0  0  0
   22.0607  -24.5181  -20.2689 O   0  0  0  0  0  0  0  0  0  0  0  0
   30.5821  -21.2102  -10.6588 C   0  0  0  0  0  0  0  0  0  0  0  0
   29.2258  -20.8791  -10.8369 C   0  0  0  0  0  0  0  0  0  0  0  0
   28.8104  -20.1288  -11.9140 C   0  0  0  0  0  0  0  0  0  0  0  0
   27.4836  -19.8144  -12.0736 C   0  0  0  0  0  0  0  0  0  0  0  0
   26.5032  -20.2199  -11.1870 C   0  0  0  0  0  0  0  0  0  0  0  0
   25.0800  -19.8540  -11.4105 C   0  0  2  0  0  0  0  0  0  0  0  0
   24.4053  -20.7803  -12.3412 N   0  0  0  0  0  0  0  0  0  0  0  0
   24.7816  -20.7072  -13.7247 C   0  0  0  0  0  0  0  0  0  0  0  0
   22.9260  -20.7148  -12.2241 O   0  0  0  0  0  0  0  0  0  0  0  0
   22.2676  -19.8679  -12.9187 C   0  0  0  0  0  0  0  0  0  0  0  0
   26.9296  -20.9713  -10.1105 C   0  0  0  0  0  0  0  0  0  0  0  0
   28.2655  -21.2948   -9.9390 N   0  0  0  0  0  0  0  0  0  0  0  0
   22.1725  -21.5414  -11.3785 C   0  0  2  0  0  0  0  0  0  0  0  0
   20.6823  -21.4300  -11.2783 C   0  0  0  0  0  0  0  0  0  0  0  0
   20.3150  -22.3673  -10.1876 C   0  0  0  0  0  0  0  0  0  0  0  0
   18.9589  -22.7788   -9.9112 C   0  0  0  0  0  0  0  0  0  0  0  0
   18.4888  -23.6786   -8.8704 C   0  0  0  0  0  0  0  0  0  0  0  0
   17.0750  -23.9134   -8.5734 N   0  0  0  0  0  0  0  0  0  0  0  0
   16.7232  -24.8497   -7.5749 C   0  0  0  0  0  0  0  0  0  0  0  0
   20.3180  -20.0587  -10.8384 O   0  0  0  0  0  0  0  0  0  0  0  0
   21.1161  -19.4645  -10.0711 O   0  0  0  0  0  0  0  0  0  0  0  0
  2  3  2  0
  2  1  1  0
  4  2  1  0
  5  4  1  0
  6  5  1  0
  7  6  1  0
  8  7  1  0
  8 10  1  0
  8  9  1  6
 10 19  1  0
 10 11  2  0
 12 13  1  0
 13 23  2  0
 13 14  1  0
 14 15  2  0
 15 16  1  0
 16 17  1  0
 18 17  1  1
 19 18  1  0
 20 18  1  0
 20 24  1  0
 21 20  2  0
 22 16  2  0
 23 22  1  0
 25 26  1  6
 25 31  1  0
 25 24  1  0
 26 27  1  0
 27 28  1  0
 28 29  1  0
 29 30  1  0
 31 33  1  0
 32 31  2  0
M  END
$$$$
