RYK.pdb
     RDKit          3D

 33 33  0  0  1  0  0  0  0  0999 V2000
   21.6397  -27.5397  -12.2316 N   0  0  0  0  0  0  0  0  0  0  0  0
   21.3983  -27.4331  -13.6342 C   0  0  0  0  0  0  0  0  0  0  0  0
   22.3143  -27.8493  -14.4157 N   0  0  0  0  0  0  0  0  0  0  0  0
   20.2018  -26.8911  -14.1563 N   0  0  0  0  0  0  0  0  0  0  0  0
   19.2216  -26.2531  -13.2538 C   0  0  0  0  0  0  0  0  0  0  0  0
   19.9139  -25.6879  -12.0704 C   0  0  0  0  0  0  0  0  0  0  0  0
   19.4529  -26.2439  -10.7744 C   0  0  0  0  0  0  0  0  0  0  0  0
   18.7665  -25.2575   -9.9075 C   0  0  2  0  0  0  0  0  0  0  0  0
   19.4378  -23.9695   -9.9383 N   0  0  0  0  0  0  0  0  0  0  0  0
   18.8111  -25.7388   -8.4750 C   0  0  0  0  0  0  0  0  0  0  0  0
   19.7675  -26.3996   -8.0416 O   0  0  0  0  0  0  0  0  0  0  0  0
   22.1870  -27.8821  -15.4351 O   0  0  0  0  0  0  0  0  0  0  0  0
   16.9108  -27.1246   -0.0062 C   0  0  0  0  0  0  0  0  0  0  0  0
   17.1851  -26.6024   -1.2840 C   0  0  0  0  0  0  0  0  0  0  0  0
   16.3188  -25.7251   -1.8971 C   0  0  0  0  0  0  0  0  0  0  0  0
   16.6011  -25.2245   -3.1438 C   0  0  0  0  0  0  0  0  0  0  0  0
   17.7434  -25.5590   -3.8472 C   0  0  0  0  0  0  0  0  0  0  0  0
   18.0011  -24.9840   -5.1934 C   0  0  1  0  0  0  0  0  0  0  0  0
   17.6145  -25.9080   -6.2780 N   0  0  0  0  0  0  0  0  0  0  0  0
   17.7397  -25.4256   -7.6243 C   0  0  0  0  0  0  0  0  0  0  0  0
   16.2554  -26.4725   -6.0764 O   0  0  0  0  0  0  0  0  0  0  0  0
   15.2255  -25.7861   -6.3947 C   0  0  0  0  0  0  0  0  0  0  0  0
   18.6054  -26.4392   -3.2244 C   0  0  0  0  0  0  0  0  0  0  0  0
   18.3313  -26.9509   -1.9667 N   0  0  0  0  0  0  0  0  0  0  0  0
   16.0103  -27.7463   -5.5440 C   0  0  2  0  0  0  0  0  0  0  0  0
   14.6218  -28.2652   -5.3296 C   0  0  0  0  0  0  0  0  0  0  0  0
   14.6992  -29.6962   -5.7162 C   0  0  0  0  0  0  0  0  0  0  0  0
   13.5740  -30.4503   -6.2160 C   0  0  0  0  0  0  0  0  0  0  0  0
   13.5418  -31.8419   -6.6358 C   0  0  0  0  0  0  0  0  0  0  0  0
   12.5153  -32.4047   -7.5143 N   0  0  0  0  0  0  0  0  0  0  0  0
   12.5288  -33.7894   -7.7970 C   0  0  0  0  0  0  0  0  0  0  0  0
   14.2897  -28.2045   -3.8830 O   0  0  0  0  0  0  0  0  0  0  0  0
   15.1242  -28.6849   -3.0757 O   0  0  0  0  0  0  0  0  0  0  0  0
  2  3  2  0
  2  1  1  0
  4  2  1  0
  5  4  1  0
  6  5  1  0
  7  6  1  0
  8  7  1  0
  8 10  1  0
  8  9  1  1
 10 19  1  0
 10 11  2  0
 12 13  1  0
 13 23  2  0
 13 14  1  0
 14 15  2  0
 15 16  1  0
 16 17  1  0
 18 17  1  6
 19 18  1  0
 20 18  1  0
 20 24  1  0
 21 20  2  0
 22 16  2  0
 23 22  1  0
 25 26  1  6
 25 31  1  0
 25 24  1  0
 26 27  1  0
 27 28  1  0
 28 29  1  0
 29 30  1  0
 31 33  1  0
 32 31  2  0
M  END
$$$$
