RYK.pdb
     RDKit          3D

 33 33  0  0  1  0  0  0  0  0999 V2000
   30.2475  -24.3927  -16.1640 N   0  0  0  0  0  0  0  0  0  0  0  0
   29.1183  -24.8470  -16.9094 C   0  0  0  0  0  0  0  0  0  0  0  0
   28.9798  -26.1060  -17.0468 N   0  0  0  0  0  0  0  0  0  0  0  0
   28.1815  -23.9560  -17.4807 N   0  0  0  0  0  0  0  0  0  0  0  0
   28.3153  -22.5008  -17.2640 C   0  0  0  0  0  0  0  0  0  0  0  0
   27.6247  -22.1085  -16.0117 C   0  0  0  0  0  0  0  0  0  0  0  0
   26.8646  -20.8381  -16.1099 C   0  0  0  0  0  0  0  0  0  0  0  0
   25.4303  -21.0196  -16.4346 C   0  0  2  0  0  0  0  0  0  0  0  0
   25.0549  -20.2582  -17.6135 N   0  0  0  0  0  0  0  0  0  0  0  0
   24.5916  -20.4954  -15.2911 C   0  0  0  0  0  0  0  0  0  0  0  0
   24.9492  -19.5154  -14.6196 O   0  0  0  0  0  0  0  0  0  0  0  0
   28.1627  -26.5158  -17.5166 O   0  0  0  0  0  0  0  0  0  0  0  0
   19.5143  -18.8009  -19.4892 C   0  0  0  0  0  0  0  0  0  0  0  0
   20.1059  -18.9116  -18.2169 C   0  0  0  0  0  0  0  0  0  0  0  0
   19.4608  -19.5540  -17.1839 C   0  0  0  0  0  0  0  0  0  0  0  0
   20.0516  -19.6537  -15.9487 C   0  0  0  0  0  0  0  0  0  0  0  0
   21.2999  -19.1298  -15.6681 C   0  0  0  0  0  0  0  0  0  0  0  0
   21.8942  -19.2699  -14.3129 C   0  0  1  0  0  0  0  0  0  0  0  0
   22.4076  -20.6321  -14.0670 N   0  0  0  0  0  0  0  0  0  0  0  0
   23.3821  -21.1407  -14.9903 C   0  0  0  0  0  0  0  0  0  0  0  0
   21.3131  -21.6231  -13.9033 O   0  0  0  0  0  0  0  0  0  0  0  0
   20.9546  -22.3474  -14.8932 C   0  0  0  0  0  0  0  0  0  0  0  0
   21.9384  -18.4876  -16.7099 C   0  0  0  0  0  0  0  0  0  0  0  0
   21.3524  -18.3808  -17.9605 N   0  0  0  0  0  0  0  0  0  0  0  0
   20.6202  -21.8294  -12.7019 C   0  0  1  0  0  0  0  0  0  0  0  0
   19.5622  -22.8805  -12.5641 C   0  0  0  0  0  0  0  0  0  0  0  0
   19.2453  -22.8968  -11.1142 C   0  0  0  0  0  0  0  0  0  0  0  0
   18.3378  -23.8407  -10.5057 C   0  0  0  0  0  0  0  0  0  0  0  0
   18.6126  -25.2040  -10.0816 C   0  0  0  0  0  0  0  0  0  0  0  0
   17.6034  -26.1007   -9.5161 N   0  0  0  0  0  0  0  0  0  0  0  0
   17.9846  -27.3949   -9.0952 C   0  0  0  0  0  0  0  0  0  0  0  0
   18.3399  -22.4491  -13.2897 O   0  0  0  0  0  0  0  0  0  0  0  0
   18.1388  -21.2140  -13.4040 O   0  0  0  0  0  0  0  0  0  0  0  0
  2  3  2  0
  2  1  1  0
  4  2  1  0
  5  4  1  0
  6  5  1  0
  7  6  1  0
  8  7  1  0
  8 10  1  0
  8  9  1  6
 10 19  1  0
 10 11  2  0
 12 13  1  0
 13 23  2  0
 13 14  1  0
 14 15  2  0
 15 16  1  0
 16 17  1  0
 18 17  1  1
 19 18  1  0
 20 18  1  0
 20 24  1  0
 21 20  2  0
 22 16  2  0
 23 22  1  0
 25 26  1  1
 25 31  1  0
 25 24  1  0
 26 27  1  0
 27 28  1  0
 28 29  1  0
 29 30  1  0
 31 33  1  0
 32 31  2  0
M  END
$$$$
