RYK.pdb
     RDKit          3D

 33 33  0  0  1  0  0  0  0  0999 V2000
   29.5572  -23.6206  -18.6564 N   0  0  0  0  0  0  0  0  0  0  0  0
   29.6964  -22.2333  -18.3515 C   0  0  0  0  0  0  0  0  0  0  0  0
   30.4281  -21.5372  -19.1283 N   0  0  0  0  0  0  0  0  0  0  0  0
   29.0599  -21.6360  -17.2398 N   0  0  0  0  0  0  0  0  0  0  0  0
   28.2399  -22.4574  -16.3259 C   0  0  0  0  0  0  0  0  0  0  0  0
   26.8838  -22.6496  -16.8947 C   0  0  0  0  0  0  0  0  0  0  0  0
   25.8095  -21.9425  -16.1550 C   0  0  0  0  0  0  0  0  0  0  0  0
   25.5003  -22.5350  -14.8325 C   0  0  2  0  0  0  0  0  0  0  0  0
   25.4342  -23.9844  -14.9053 N   0  0  0  0  0  0  0  0  0  0  0  0
   24.1388  -22.0581  -14.3802 C   0  0  0  0  0  0  0  0  0  0  0  0
   23.1333  -22.7783  -14.4774 O   0  0  0  0  0  0  0  0  0  0  0  0
   30.5943  -20.5358  -18.9674 O   0  0  0  0  0  0  0  0  0  0  0  0
   24.0801  -21.9668   -7.2957 C   0  0  0  0  0  0  0  0  0  0  0  0
   23.7950  -21.3056   -8.5050 C   0  0  0  0  0  0  0  0  0  0  0  0
   22.4982  -21.1297   -8.9331 C   0  0  0  0  0  0  0  0  0  0  0  0
   22.2368  -20.4823  -10.1152 C   0  0  0  0  0  0  0  0  0  0  0  0
   23.2318  -19.9777  -10.9318 C   0  0  0  0  0  0  0  0  0  0  0  0
   22.8918  -19.2817  -12.2004 C   0  0  2  0  0  0  0  0  0  0  0  0
   22.7940  -20.2151  -13.3400 N   0  0  0  0  0  0  0  0  0  0  0  0
   24.0209  -20.7682  -13.8398 C   0  0  0  0  0  0  0  0  0  0  0  0
   22.0102  -19.6457  -14.4660 O   0  0  0  0  0  0  0  0  0  0  0  0
   22.5113  -18.7176  -15.1875 C   0  0  0  0  0  0  0  0  0  0  0  0
   24.5284  -20.1593  -10.4942 C   0  0  0  0  0  0  0  0  0  0  0  0
   24.8044  -20.8107   -9.3033 N   0  0  0  0  0  0  0  0  0  0  0  0
   20.7165  -20.0652  -14.8073 C   0  0  1  0  0  0  0  0  0  0  0  0
   19.9405  -19.4273  -15.9181 C   0  0  0  0  0  0  0  0  0  0  0  0
   19.7440  -20.5187  -16.9047 C   0  0  0  0  0  0  0  0  0  0  0  0
   18.9850  -20.3663  -18.1235 C   0  0  0  0  0  0  0  0  0  0  0  0
   18.6521  -21.3846  -19.1064 C   0  0  0  0  0  0  0  0  0  0  0  0
   17.9508  -21.1081  -20.3610 N   0  0  0  0  0  0  0  0  0  0  0  0
   17.6563  -22.1751  -21.2396 C   0  0  0  0  0  0  0  0  0  0  0  0
   18.6016  -19.0238  -15.4170 O   0  0  0  0  0  0  0  0  0  0  0  0
   18.2481  -19.4584  -14.2922 O   0  0  0  0  0  0  0  0  0  0  0  0
  2  3  2  0
  2  1  1  0
  4  2  1  0
  5  4  1  0
  6  5  1  0
  7  6  1  0
  8  7  1  0
  8 10  1  0
  8  9  1  6
 10 19  1  0
 10 11  2  0
 12 13  1  0
 13 23  2  0
 13 14  1  0
 14 15  2  0
 15 16  1  0
 16 17  1  0
 18 17  1  1
 19 18  1  0
 20 18  1  0
 20 24  1  0
 21 20  2  0
 22 16  2  0
 23 22  1  0
 25 26  1  6
 25 31  1  0
 25 24  1  0
 26 27  1  0
 27 28  1  0
 28 29  1  0
 29 30  1  0
 31 33  1  0
 32 31  2  0
M  END
$$$$
