RYK.pdb
     RDKit          3D

 33 33  0  0  1  0  0  0  0  0999 V2000
   29.4674  -22.9281  -18.8399 N   0  0  0  0  0  0  0  0  0  0  0  0
   30.0377  -23.0119  -17.5342 C   0  0  0  0  0  0  0  0  0  0  0  0
   30.9404  -23.8917  -17.3488 N   0  0  0  0  0  0  0  0  0  0  0  0
   29.6327  -22.1661  -16.4767 N   0  0  0  0  0  0  0  0  0  0  0  0
   28.5815  -21.1525  -16.6995 C   0  0  0  0  0  0  0  0  0  0  0  0
   27.2427  -21.7551  -16.4904 C   0  0  0  0  0  0  0  0  0  0  0  0
   26.4876  -21.1764  -15.3519 C   0  0  0  0  0  0  0  0  0  0  0  0
   26.7316  -19.7300  -15.1422 C   0  0  2  0  0  0  0  0  0  0  0  0
   27.7278  -19.5065  -14.1087 N   0  0  0  0  0  0  0  0  0  0  0  0
   25.4550  -19.0743  -14.6669 C   0  0  0  0  0  0  0  0  0  0  0  0
   25.1628  -19.0193  -13.4624 O   0  0  0  0  0  0  0  0  0  0  0  0
   31.3072  -24.4659  -18.1184 O   0  0  0  0  0  0  0  0  0  0  0  0
   28.3410  -14.6709  -17.9784 C   0  0  0  0  0  0  0  0  0  0  0  0
   27.1359  -15.0738  -17.3732 C   0  0  0  0  0  0  0  0  0  0  0  0
   26.0710  -15.5130  -18.1274 C   0  0  0  0  0  0  0  0  0  0  0  0
   24.9023  -15.9028  -17.5217 C   0  0  0  0  0  0  0  0  0  0  0  0
   24.7224  -15.8807  -16.1510 C   0  0  0  0  0  0  0  0  0  0  0  0
   23.4362  -16.3177  -15.5476 C   0  0  1  0  0  0  0  0  0  0  0  0
   23.4057  -17.7713  -15.2913 N   0  0  0  0  0  0  0  0  0  0  0  0
   24.5867  -18.5186  -15.6193 C   0  0  0  0  0  0  0  0  0  0  0  0
   22.2189  -18.4238  -15.9015 O   0  0  0  0  0  0  0  0  0  0  0  0
   22.3129  -18.9715  -17.0523 C   0  0  0  0  0  0  0  0  0  0  0  0
   25.7955  -15.4387  -15.4036 C   0  0  0  0  0  0  0  0  0  0  0  0
   26.9797  -15.0430  -16.0035 N   0  0  0  0  0  0  0  0  0  0  0  0
   20.9598  -18.4850  -15.2876 C   0  0  2  0  0  0  0  0  0  0  0  0
   19.7959  -19.1776  -15.9268 C   0  0  0  0  0  0  0  0  0  0  0  0
   18.7640  -19.2247  -14.8608 C   0  0  0  0  0  0  0  0  0  0  0  0
   17.4852  -19.8769  -15.0156 C   0  0  0  0  0  0  0  0  0  0  0  0
   16.4202  -20.0077  -14.0345 C   0  0  0  0  0  0  0  0  0  0  0  0
   15.1387  -20.6610  -14.3049 N   0  0  0  0  0  0  0  0  0  0  0  0
   14.1151  -20.6075  -13.3319 C   0  0  0  0  0  0  0  0  0  0  0  0
   19.2671  -18.3374  -17.0318 O   0  0  0  0  0  0  0  0  0  0  0  0
   18.4281  -18.8602  -17.8075 O   0  0  0  0  0  0  0  0  0  0  0  0
  2  3  2  0
  2  1  1  0
  4  2  1  0
  5  4  1  0
  6  5  1  0
  7  6  1  0
  8  7  1  0
  8 10  1  0
  8  9  1  1
 10 19  1  0
 10 11  2  0
 12 13  1  0
 13 23  2  0
 13 14  1  0
 14 15  2  0
 15 16  1  0
 16 17  1  0
 18 17  1  1
 19 18  1  0
 20 18  1  0
 20 24  1  0
 21 20  2  0
 22 16  2  0
 23 22  1  0
 25 26  1  1
 25 31  1  0
 25 24  1  0
 26 27  1  0
 27 28  1  0
 28 29  1  0
 29 30  1  0
 31 33  1  0
 32 31  2  0
M  END
$$$$
