RYK.pdb
     RDKit          3D

 33 33  0  0  1  0  0  0  0  0999 V2000
   21.8677  -28.5012  -18.8602 N   0  0  0  0  0  0  0  0  0  0  0  0
   22.7324  -28.6191  -17.7308 C   0  0  0  0  0  0  0  0  0  0  0  0
   23.2165  -29.7719  -17.4863 N   0  0  0  0  0  0  0  0  0  0  0  0
   23.0507  -27.5176  -16.9042 N   0  0  0  0  0  0  0  0  0  0  0  0
   22.4820  -26.1853  -17.1934 C   0  0  0  0  0  0  0  0  0  0  0  0
   23.5722  -25.2101  -17.4380 C   0  0  0  0  0  0  0  0  0  0  0  0
   23.7478  -24.2116  -16.3549 C   0  0  0  0  0  0  0  0  0  0  0  0
   22.6652  -23.2021  -16.2869 C   0  0  2  0  0  0  0  0  0  0  0  0
   23.1148  -21.9112  -16.7785 N   0  0  0  0  0  0  0  0  0  0  0  0
   22.2611  -23.0031  -14.8437 C   0  0  0  0  0  0  0  0  0  0  0  0
   22.5786  -23.8166  -13.9625 O   0  0  0  0  0  0  0  0  0  0  0  0
   23.8238  -29.9466  -16.6757 O   0  0  0  0  0  0  0  0  0  0  0  0
   20.0305  -15.8570  -15.9359 C   0  0  0  0  0  0  0  0  0  0  0  0
   20.3928  -16.9447  -15.1196 C   0  0  0  0  0  0  0  0  0  0  0  0
   19.7393  -17.1953  -13.9339 C   0  0  0  0  0  0  0  0  0  0  0  0
   20.1047  -18.2607  -13.1490 C   0  0  0  0  0  0  0  0  0  0  0  0
   21.1255  -19.1292  -13.4884 C   0  0  0  0  0  0  0  0  0  0  0  0
   21.4772  -20.2697  -12.6024 C   0  0  1  0  0  0  0  0  0  0  0  0
   21.0639  -21.5672  -13.1727 N   0  0  0  0  0  0  0  0  0  0  0  0
   21.5085  -21.8682  -14.5042 C   0  0  0  0  0  0  0  0  0  0  0  0
   19.5967  -21.7797  -13.0785 O   0  0  0  0  0  0  0  0  0  0  0  0
   18.8750  -21.7254  -14.1317 C   0  0  0  0  0  0  0  0  0  0  0  0
   21.7746  -18.8695  -14.6786 C   0  0  0  0  0  0  0  0  0  0  0  0
   21.4149  -17.7977  -15.4789 N   0  0  0  0  0  0  0  0  0  0  0  0
   18.9217  -22.0440  -11.8783 C   0  0  2  0  0  0  0  0  0  0  0  0
   17.4439  -22.2828  -11.8326 C   0  0  0  0  0  0  0  0  0  0  0  0
   17.1967  -22.8032  -10.4646 C   0  0  0  0  0  0  0  0  0  0  0  0
   17.5981  -24.1190  -10.0262 C   0  0  0  0  0  0  0  0  0  0  0  0
   17.5053  -24.6869   -8.6910 C   0  0  0  0  0  0  0  0  0  0  0  0
   17.9402  -26.0421   -8.3497 N   0  0  0  0  0  0  0  0  0  0  0  0
   17.8644  -26.4763   -7.0069 C   0  0  0  0  0  0  0  0  0  0  0  0
   16.7299  -20.9864  -11.9595 O   0  0  0  0  0  0  0  0  0  0  0  0
   17.4021  -19.9363  -11.8029 O   0  0  0  0  0  0  0  0  0  0  0  0
  2  3  2  0
  2  1  1  0
  4  2  1  0
  5  4  1  0
  6  5  1  0
  7  6  1  0
  8  7  1  0
  8 10  1  0
  8  9  1  1
 10 19  1  0
 10 11  2  0
 12 13  1  0
 13 23  2  0
 13 14  1  0
 14 15  2  0
 15 16  1  0
 16 17  1  0
 18 17  1  1
 19 18  1  0
 20 18  1  0
 20 24  1  0
 21 20  2  0
 22 16  2  0
 23 22  1  0
 25 26  1  6
 25 31  1  0
 25 24  1  0
 26 27  1  0
 27 28  1  0
 28 29  1  0
 29 30  1  0
 31 33  1  0
 32 31  2  0
M  END
$$$$
