RYK.pdb
     RDKit          3D

 33 33  0  0  1  0  0  0  0  0999 V2000
   28.4931  -26.8178  -16.3095 N   0  0  0  0  0  0  0  0  0  0  0  0
   27.4626  -27.0088  -17.2784 C   0  0  0  0  0  0  0  0  0  0  0  0
   27.2413  -28.2025  -17.6650 N   0  0  0  0  0  0  0  0  0  0  0  0
   26.7081  -25.9342  -17.8015 N   0  0  0  0  0  0  0  0  0  0  0  0
   26.4288  -24.7487  -16.9654 C   0  0  0  0  0  0  0  0  0  0  0  0
   25.4990  -25.1093  -15.8678 C   0  0  0  0  0  0  0  0  0  0  0  0
   25.0521  -23.9566  -15.0475 C   0  0  0  0  0  0  0  0  0  0  0  0
   24.2570  -22.9570  -15.7987 C   0  0  2  0  0  0  0  0  0  0  0  0
   25.0965  -21.8825  -16.2997 N   0  0  0  0  0  0  0  0  0  0  0  0
   23.2471  -22.3244  -14.8683 C   0  0  0  0  0  0  0  0  0  0  0  0
   23.5728  -21.4408  -14.0606 O   0  0  0  0  0  0  0  0  0  0  0  0
   26.5640  -28.4175  -18.4075 O   0  0  0  0  0  0  0  0  0  0  0  0
   22.9251  -16.5855  -16.5659 C   0  0  0  0  0  0  0  0  0  0  0  0
   22.2003  -17.7142  -16.1399 C   0  0  0  0  0  0  0  0  0  0  0  0
   21.9652  -18.7728  -16.9883 C   0  0  0  0  0  0  0  0  0  0  0  0
   21.2565  -19.8667  -16.5574 C   0  0  0  0  0  0  0  0  0  0  0  0
   20.7459  -19.9748  -15.2771 C   0  0  0  0  0  0  0  0  0  0  0  0
   19.9884  -21.1845  -14.8621 C   0  0  2  0  0  0  0  0  0  0  0  0
   20.8442  -22.1680  -14.1693 N   0  0  0  0  0  0  0  0  0  0  0  0
   21.9126  -22.7548  -14.9276 C   0  0  0  0  0  0  0  0  0  0  0  0
   20.0507  -23.2405  -13.5161 O   0  0  0  0  0  0  0  0  0  0  0  0
   19.7571  -24.3021  -14.1642 C   0  0  0  0  0  0  0  0  0  0  0  0
   20.9865  -18.9085  -14.4341 C   0  0  0  0  0  0  0  0  0  0  0  0
   21.7003  -17.7995  -14.8577 N   0  0  0  0  0  0  0  0  0  0  0  0
   19.5834  -23.1719  -12.1959 C   0  0  2  0  0  0  0  0  0  0  0  0
   18.7179  -24.2401  -11.6018 C   0  0  0  0  0  0  0  0  0  0  0  0
   19.0199  -24.1939  -10.1493 C   0  0  0  0  0  0  0  0  0  0  0  0
   18.3043  -24.9646   -9.1600 C   0  0  0  0  0  0  0  0  0  0  0  0
   18.4425  -24.9169   -7.7134 C   0  0  0  0  0  0  0  0  0  0  0  0
   17.5829  -25.6561   -6.7878 N   0  0  0  0  0  0  0  0  0  0  0  0
   17.7450  -25.4730   -5.3958 C   0  0  0  0  0  0  0  0  0  0  0  0
   17.2893  -23.8736  -11.7789 O   0  0  0  0  0  0  0  0  0  0  0  0
   17.0083  -22.6508  -11.8466 O   0  0  0  0  0  0  0  0  0  0  0  0
  2  3  2  0
  2  1  1  0
  4  2  1  0
  5  4  1  0
  6  5  1  0
  7  6  1  0
  8  7  1  0
  8 10  1  0
  8  9  1  1
 10 19  1  0
 10 11  2  0
 12 13  1  0
 13 23  2  0
 13 14  1  0
 14 15  2  0
 15 16  1  0
 16 17  1  0
 18 17  1  1
 19 18  1  0
 20 18  1  0
 20 24  1  0
 21 20  2  0
 22 16  2  0
 23 22  1  0
 25 26  1  1
 25 31  1  0
 25 24  1  0
 26 27  1  0
 27 28  1  0
 28 29  1  0
 29 30  1  0
 31 33  1  0
 32 31  2  0
M  END
$$$$
