RYK.pdb
     RDKit          3D

 33 33  0  0  1  0  0  0  0  0999 V2000
   28.4485  -27.6337  -16.7525 N   0  0  0  0  0  0  0  0  0  0  0  0
   27.0672  -27.9553  -16.5919 C   0  0  0  0  0  0  0  0  0  0  0  0
   26.7893  -29.0438  -15.9909 N   0  0  0  0  0  0  0  0  0  0  0  0
   26.0352  -27.1175  -17.0720 N   0  0  0  0  0  0  0  0  0  0  0  0
   26.3672  -25.8724  -17.7944 C   0  0  0  0  0  0  0  0  0  0  0  0
   26.3408  -24.7210  -16.8601 C   0  0  0  0  0  0  0  0  0  0  0  0
   24.9764  -24.2650  -16.4969 C   0  0  0  0  0  0  0  0  0  0  0  0
   24.3924  -23.2957  -17.4534 C   0  0  2  0  0  0  0  0  0  0  0  0
   25.3632  -22.2877  -17.8433 N   0  0  0  0  0  0  0  0  0  0  0  0
   23.2493  -22.5656  -16.7856 C   0  0  0  0  0  0  0  0  0  0  0  0
   23.4087  -21.4540  -16.2582 O   0  0  0  0  0  0  0  0  0  0  0  0
   25.8197  -29.3450  -15.8307 O   0  0  0  0  0  0  0  0  0  0  0  0
   22.6857  -17.4907  -19.7128 C   0  0  0  0  0  0  0  0  0  0  0  0
   22.0123  -18.5604  -19.0938 C   0  0  0  0  0  0  0  0  0  0  0  0
   21.3943  -18.4036  -17.8734 C   0  0  0  0  0  0  0  0  0  0  0  0
   20.7414  -19.4569  -17.2829 C   0  0  0  0  0  0  0  0  0  0  0  0
   20.6631  -20.7111  -17.8594 C   0  0  0  0  0  0  0  0  0  0  0  0
   19.9395  -21.8158  -17.1771 C   0  0  2  0  0  0  0  0  0  0  0  0
   20.8041  -22.5483  -16.2308 N   0  0  0  0  0  0  0  0  0  0  0  0
   21.9823  -23.1690  -16.7669 C   0  0  0  0  0  0  0  0  0  0  0  0
   20.0429  -23.5382  -15.4263 O   0  0  0  0  0  0  0  0  0  0  0  0
   19.6913  -24.6502  -15.9486 C   0  0  0  0  0  0  0  0  0  0  0  0
   21.2859  -20.8584  -19.0825 C   0  0  0  0  0  0  0  0  0  0  0  0
   21.9477  -19.8030  -19.6880 N   0  0  0  0  0  0  0  0  0  0  0  0
   19.6683  -23.3357  -14.0903 C   0  0  2  0  0  0  0  0  0  0  0  0
   18.8970  -24.3599  -13.3163 C   0  0  0  0  0  0  0  0  0  0  0  0
   19.1944  -24.0495  -11.8957 C   0  0  0  0  0  0  0  0  0  0  0  0
   18.6039  -24.7558  -10.7834 C   0  0  0  0  0  0  0  0  0  0  0  0
   18.8534  -24.5634   -9.3640 C   0  0  0  0  0  0  0  0  0  0  0  0
   18.3043  -25.4248   -8.3158 N   0  0  0  0  0  0  0  0  0  0  0  0
   18.5647  -25.1189   -6.9608 C   0  0  0  0  0  0  0  0  0  0  0  0
   17.4423  -24.1490  -13.5308 O   0  0  0  0  0  0  0  0  0  0  0  0
   17.0576  -22.9810  -13.7891 O   0  0  0  0  0  0  0  0  0  0  0  0
  2  3  2  0
  2  1  1  0
  4  2  1  0
  5  4  1  0
  6  5  1  0
  7  6  1  0
  8  7  1  0
  8 10  1  0
  8  9  1  1
 10 19  1  0
 10 11  2  0
 12 13  1  0
 13 23  2  0
 13 14  1  0
 14 15  2  0
 15 16  1  0
 16 17  1  0
 18 17  1  1
 19 18  1  0
 20 18  1  0
 20 24  1  0
 21 20  2  0
 22 16  2  0
 23 22  1  0
 25 26  1  6
 25 31  1  0
 25 24  1  0
 26 27  1  0
 27 28  1  0
 28 29  1  0
 29 30  1  0
 31 33  1  0
 32 31  2  0
M  END
$$$$
