RYK.pdb
     RDKit          3D

 33 33  0  0  1  0  0  0  0  0999 V2000
   23.9918  -32.7147  -13.1916 N   0  0  0  0  0  0  0  0  0  0  0  0
   24.0360  -34.1411  -13.2156 C   0  0  0  0  0  0  0  0  0  0  0  0
   23.1886  -34.7618  -12.4945 N   0  0  0  0  0  0  0  0  0  0  0  0
   24.9720  -34.8554  -13.9975 N   0  0  0  0  0  0  0  0  0  0  0  0
   25.8067  -34.1444  -14.9874 C   0  0  0  0  0  0  0  0  0  0  0  0
   25.3904  -34.5146  -16.3619 C   0  0  0  0  0  0  0  0  0  0  0  0
   26.1626  -33.8379  -17.4329 C   0  0  0  0  0  0  0  0  0  0  0  0
   26.1224  -32.3586  -17.3596 C   0  0  2  0  0  0  0  0  0  0  0  0
   24.9835  -31.8242  -18.0861 N   0  0  0  0  0  0  0  0  0  0  0  0
   27.3623  -31.7945  -18.0156 C   0  0  0  0  0  0  0  0  0  0  0  0
   27.4261  -31.6213  -19.2424 O   0  0  0  0  0  0  0  0  0  0  0  0
   23.1616  -35.7882  -12.4478 O   0  0  0  0  0  0  0  0  0  0  0  0
   35.4178  -28.5150  -19.3183 C   0  0  0  0  0  0  0  0  0  0  0  0
   34.2322  -28.9465  -18.6945 C   0  0  0  0  0  0  0  0  0  0  0  0
   33.0874  -28.1824  -18.7327 C   0  0  0  0  0  0  0  0  0  0  0  0
   31.9388  -28.6176  -18.1194 C   0  0  0  0  0  0  0  0  0  0  0  0
   31.8581  -29.8197  -17.4412 C   0  0  0  0  0  0  0  0  0  0  0  0
   30.5869  -30.2439  -16.7980 C   0  0  2  0  0  0  0  0  0  0  0  0
   29.7267  -31.0148  -17.7173 N   0  0  0  0  0  0  0  0  0  0  0  0
   28.4614  -31.4631  -17.2083 C   0  0  0  0  0  0  0  0  0  0  0  0
   30.4475  -32.1576  -18.3345 O   0  0  0  0  0  0  0  0  0  0  0  0
   30.5191  -33.2748  -17.7182 C   0  0  0  0  0  0  0  0  0  0  0  0
   33.0108  -30.5783  -17.4083 C   0  0  0  0  0  0  0  0  0  0  0  0
   34.1756  -30.1497  -18.0235 N   0  0  0  0  0  0  0  0  0  0  0  0
   31.0771  -32.0992  -19.5860 C   0  0  2  0  0  0  0  0  0  0  0  0
   31.8471  -33.2563  -20.1439 C   0  0  0  0  0  0  0  0  0  0  0  0
   31.0275  -33.7272  -21.2882 C   0  0  0  0  0  0  0  0  0  0  0  0
   31.4229  -34.8054  -22.1635 C   0  0  0  0  0  0  0  0  0  0  0  0
   30.6195  -35.4898  -23.1634 C   0  0  0  0  0  0  0  0  0  0  0  0
   31.0693  -36.6712  -23.9013 N   0  0  0  0  0  0  0  0  0  0  0  0
   30.2108  -37.2587  -24.8579 C   0  0  0  0  0  0  0  0  0  0  0  0
   33.1434  -32.7724  -20.6844 O   0  0  0  0  0  0  0  0  0  0  0  0
   34.0457  -33.6253  -20.8778 O   0  0  0  0  0  0  0  0  0  0  0  0
  2  3  2  0
  2  1  1  0
  4  2  1  0
  5  4  1  0
  6  5  1  0
  7  6  1  0
  8  7  1  0
  8 10  1  0
  8  9  1  6
 10 19  1  0
 10 11  2  0
 12 13  1  0
 13 23  2  0
 13 14  1  0
 14 15  2  0
 15 16  1  0
 16 17  1  0
 18 17  1  6
 19 18  1  0
 20 18  1  0
 20 24  1  0
 21 20  2  0
 22 16  2  0
 23 22  1  0
 25 26  1  6
 25 31  1  0
 25 24  1  0
 26 27  1  0
 27 28  1  0
 28 29  1  0
 29 30  1  0
 31 33  1  0
 32 31  2  0
M  END
$$$$
