RYK.pdb
     RDKit          3D

 33 33  0  0  1  0  0  0  0  0999 V2000
   22.9427  -18.2007  -19.9163 N   0  0  0  0  0  0  0  0  0  0  0  0
   22.5347  -17.8846  -21.2470 C   0  0  0  0  0  0  0  0  0  0  0  0
   22.9665  -18.6348  -22.1819 N   0  0  0  0  0  0  0  0  0  0  0  0
   21.6893  -16.7901  -21.5386 N   0  0  0  0  0  0  0  0  0  0  0  0
   21.0215  -16.0572  -20.4435 C   0  0  0  0  0  0  0  0  0  0  0  0
   20.1479  -16.9773  -19.6756 C   0  0  0  0  0  0  0  0  0  0  0  0
   19.4357  -16.3349  -18.5437 C   0  0  0  0  0  0  0  0  0  0  0  0
   18.5897  -15.1851  -18.9410 C   0  0  2  0  0  0  0  0  0  0  0  0
   19.3842  -13.9827  -19.1237 N   0  0  0  0  0  0  0  0  0  0  0  0
   17.6003  -14.8908  -17.8364 C   0  0  0  0  0  0  0  0  0  0  0  0
   17.9643  -14.4242  -16.7460 O   0  0  0  0  0  0  0  0  0  0  0  0
   22.6908  -18.4964  -23.1623 O   0  0  0  0  0  0  0  0  0  0  0  0
   16.5080   -8.7443  -16.9487 C   0  0  0  0  0  0  0  0  0  0  0  0
   15.9404  -10.0306  -17.0156 C   0  0  0  0  0  0  0  0  0  0  0  0
   15.8749  -10.7202  -18.2056 C   0  0  0  0  0  0  0  0  0  0  0  0
   15.3184  -11.9742  -18.2541 C   0  0  0  0  0  0  0  0  0  0  0  0
   14.8009  -12.6104  -17.1409 C   0  0  0  0  0  0  0  0  0  0  0  0
   14.2128  -13.9711  -17.2499 C   0  0  2  0  0  0  0  0  0  0  0  0
   15.2213  -15.0318  -17.0568 N   0  0  0  0  0  0  0  0  0  0  0  0
   16.2404  -15.1562  -18.0602 C   0  0  0  0  0  0  0  0  0  0  0  0
   14.6002  -16.3587  -16.8118 O   0  0  0  0  0  0  0  0  0  0  0  0
   14.1515  -17.0443  -17.7925 C   0  0  0  0  0  0  0  0  0  0  0  0
   14.8710  -11.9109  -15.9529 C   0  0  0  0  0  0  0  0  0  0  0  0
   15.4303  -10.6452  -15.8917 N   0  0  0  0  0  0  0  0  0  0  0  0
   14.4646  -16.9344  -15.5404 C   0  0  2  0  0  0  0  0  0  0  0  0
   13.6611  -18.1774  -15.3115 C   0  0  0  0  0  0  0  0  0  0  0  0
   14.6743  -19.2570  -15.2060 C   0  0  0  0  0  0  0  0  0  0  0  0
   14.3411  -20.6489  -15.0155 C   0  0  0  0  0  0  0  0  0  0  0  0
   15.2334  -21.7966  -15.0396 C   0  0  0  0  0  0  0  0  0  0  0  0
   14.7780  -23.1850  -14.9555 N   0  0  0  0  0  0  0  0  0  0  0  0
   15.6986  -24.2314  -15.1901 C   0  0  0  0  0  0  0  0  0  0  0  0
   12.9643  -18.0812  -14.0032 O   0  0  0  0  0  0  0  0  0  0  0  0
   13.4894  -17.3604  -13.1180 O   0  0  0  0  0  0  0  0  0  0  0  0
  2  3  2  0
  2  1  1  0
  4  2  1  0
  5  4  1  0
  6  5  1  0
  7  6  1  0
  8  7  1  0
  8 10  1  0
  8  9  1  1
 10 19  1  0
 10 11  2  0
 12 13  1  0
 13 23  2  0
 13 14  1  0
 14 15  2  0
 15 16  1  0
 16 17  1  0
 18 17  1  1
 19 18  1  0
 20 18  1  0
 20 24  1  0
 21 20  2  0
 22 16  2  0
 23 22  1  0
 25 26  1  6
 25 31  1  0
 25 24  1  0
 26 27  1  0
 27 28  1  0
 28 29  1  0
 29 30  1  0
 31 33  1  0
 32 31  2  0
M  END
$$$$
