RYK.pdb
     RDKit          3D

 33 33  0  0  1  0  0  0  0  0999 V2000
   16.7379  -11.2496  -19.3599 N   0  0  0  0  0  0  0  0  0  0  0  0
   17.3119  -12.5413  -19.5582 C   0  0  0  0  0  0  0  0  0  0  0  0
   17.2325  -13.0400  -20.7279 N   0  0  0  0  0  0  0  0  0  0  0  0
   17.9450  -13.2553  -18.5156 N   0  0  0  0  0  0  0  0  0  0  0  0
   18.0349  -12.6679  -17.1632 C   0  0  0  0  0  0  0  0  0  0  0  0
   19.3729  -12.0613  -16.9610 C   0  0  0  0  0  0  0  0  0  0  0  0
   19.5742  -11.4698  -15.6153 C   0  0  0  0  0  0  0  0  0  0  0  0
   18.6849  -10.3207  -15.3250 C   0  0  2  0  0  0  0  0  0  0  0  0
   19.1395   -9.1170  -15.9995 N   0  0  0  0  0  0  0  0  0  0  0  0
   18.7181  -10.0289  -13.8419 C   0  0  0  0  0  0  0  0  0  0  0  0
   18.3702  -10.8765  -13.0055 O   0  0  0  0  0  0  0  0  0  0  0  0
   17.5784  -13.9839  -20.9419 O   0  0  0  0  0  0  0  0  0  0  0  0
   22.6084   -3.8345  -15.0991 C   0  0  0  0  0  0  0  0  0  0  0  0
   22.1170   -4.8345  -14.2392 C   0  0  0  0  0  0  0  0  0  0  0  0
   21.2570   -4.5292  -13.2082 C   0  0  0  0  0  0  0  0  0  0  0  0
   20.7864   -5.5163  -12.3783 C   0  0  0  0  0  0  0  0  0  0  0  0
   21.1358   -6.8466  -12.5192 C   0  0  0  0  0  0  0  0  0  0  0  0
   20.5934   -7.8755  -11.5937 C   0  0  1  0  0  0  0  0  0  0  0  0
   19.2794   -8.3847  -12.0339 N   0  0  0  0  0  0  0  0  0  0  0  0
   19.1537   -8.7658  -13.4123 C   0  0  0  0  0  0  0  0  0  0  0  0
   18.1707   -7.4660  -11.6689 O   0  0  0  0  0  0  0  0  0  0  0  0
   17.7006   -6.6559  -12.5383 C   0  0  0  0  0  0  0  0  0  0  0  0
   21.9985   -7.1425  -13.5554 C   0  0  0  0  0  0  0  0  0  0  0  0
   22.4797   -6.1551  -14.3992 N   0  0  0  0  0  0  0  0  0  0  0  0
   17.5817   -7.4199  -10.3973 C   0  0  1  0  0  0  0  0  0  0  0  0
   16.5494   -6.3970  -10.0353 C   0  0  0  0  0  0  0  0  0  0  0  0
   15.4815   -7.1745   -9.3582 C   0  0  0  0  0  0  0  0  0  0  0  0
   14.3117   -6.5734   -8.7623 C   0  0  0  0  0  0  0  0  0  0  0  0
   13.2099   -7.2357   -8.0832 C   0  0  0  0  0  0  0  0  0  0  0  0
   12.0745   -6.5278   -7.4900 N   0  0  0  0  0  0  0  0  0  0  0  0
   11.0962   -7.2599   -6.7797 C   0  0  0  0  0  0  0  0  0  0  0  0
   17.1189   -5.4504   -9.0422 O   0  0  0  0  0  0  0  0  0  0  0  0
   18.0909   -5.8486   -8.3526 O   0  0  0  0  0  0  0  0  0  0  0  0
  2  3  2  0
  2  1  1  0
  4  2  1  0
  5  4  1  0
  6  5  1  0
  7  6  1  0
  8  7  1  0
  8 10  1  0
  8  9  1  6
 10 19  1  0
 10 11  2  0
 12 13  1  0
 13 23  2  0
 13 14  1  0
 14 15  2  0
 15 16  1  0
 16 17  1  0
 18 17  1  1
 19 18  1  0
 20 18  1  0
 20 24  1  0
 21 20  2  0
 22 16  2  0
 23 22  1  0
 25 26  1  1
 25 31  1  0
 25 24  1  0
 26 27  1  0
 27 28  1  0
 28 29  1  0
 29 30  1  0
 31 33  1  0
 32 31  2  0
M  END
$$$$
