RYK.pdb
     RDKit          3D

 33 33  0  0  1  0  0  0  0  0999 V2000
   13.5533  -10.3719  -18.5277 N   0  0  0  0  0  0  0  0  0  0  0  0
   14.9613  -10.2498  -18.7270 C   0  0  0  0  0  0  0  0  0  0  0  0
   15.5113  -11.0824  -19.5192 N   0  0  0  0  0  0  0  0  0  0  0  0
   15.7326   -9.2562  -18.0825 N   0  0  0  0  0  0  0  0  0  0  0  0
   16.3551   -9.5352  -16.7721 C   0  0  0  0  0  0  0  0  0  0  0  0
   15.3156   -9.5788  -15.7153 C   0  0  0  0  0  0  0  0  0  0  0  0
   15.8412   -9.8687  -14.3585 C   0  0  0  0  0  0  0  0  0  0  0  0
   17.2463   -9.4444  -14.1551 C   0  0  2  0  0  0  0  0  0  0  0  0
   18.1691  -10.5408  -14.3932 N   0  0  0  0  0  0  0  0  0  0  0  0
   17.4342   -9.0205  -12.7161 C   0  0  0  0  0  0  0  0  0  0  0  0
   17.0752   -9.7435  -11.7741 O   0  0  0  0  0  0  0  0  0  0  0  0
   16.5062  -11.0201  -19.7694 O   0  0  0  0  0  0  0  0  0  0  0  0
   22.7073   -4.6470  -14.9331 C   0  0  0  0  0  0  0  0  0  0  0  0
   21.9412   -5.2088  -13.8946 C   0  0  0  0  0  0  0  0  0  0  0  0
   21.9666   -6.5619  -13.6412 C   0  0  0  0  0  0  0  0  0  0  0  0
   21.2136   -7.0943  -12.6243 C   0  0  0  0  0  0  0  0  0  0  0  0
   20.4019   -6.3273  -11.8091 C   0  0  0  0  0  0  0  0  0  0  0  0
   19.6101   -6.9559  -10.7195 C   0  0  1  0  0  0  0  0  0  0  0  0
   18.2222   -7.2431  -11.1327 N   0  0  0  0  0  0  0  0  0  0  0  0
   18.0293   -7.7773  -12.4511 C   0  0  0  0  0  0  0  0  0  0  0  0
   17.3245   -6.0767  -10.9325 O   0  0  0  0  0  0  0  0  0  0  0  0
   16.9650   -5.3687  -11.9338 C   0  0  0  0  0  0  0  0  0  0  0  0
   20.3831   -4.9722  -12.0711 C   0  0  0  0  0  0  0  0  0  0  0  0
   21.1385   -4.4235  -13.0944 N   0  0  0  0  0  0  0  0  0  0  0  0
   16.8255   -5.6811   -9.6833 C   0  0  2  0  0  0  0  0  0  0  0  0
   16.0179   -4.4319   -9.5086 C   0  0  0  0  0  0  0  0  0  0  0  0
   15.1357   -4.7222   -8.3506 C   0  0  0  0  0  0  0  0  0  0  0  0
   14.1992   -3.7701   -7.8018 C   0  0  0  0  0  0  0  0  0  0  0  0
   13.3203   -3.9349   -6.6555 C   0  0  0  0  0  0  0  0  0  0  0  0
   12.3691   -2.9177   -6.2049 N   0  0  0  0  0  0  0  0  0  0  0  0
   11.4848   -3.2179   -5.1441 C   0  0  0  0  0  0  0  0  0  0  0  0
   16.9159   -3.3128   -9.1241 O   0  0  0  0  0  0  0  0  0  0  0  0
   17.9877   -3.6048   -8.5369 O   0  0  0  0  0  0  0  0  0  0  0  0
  2  3  2  0
  2  1  1  0
  4  2  1  0
  5  4  1  0
  6  5  1  0
  7  6  1  0
  8  7  1  0
  8 10  1  0
  8  9  1  1
 10 19  1  0
 10 11  2  0
 12 13  1  0
 13 23  2  0
 13 14  1  0
 14 15  2  0
 15 16  1  0
 16 17  1  0
 18 17  1  1
 19 18  1  0
 20 18  1  0
 20 24  1  0
 21 20  2  0
 22 16  2  0
 23 22  1  0
 25 26  1  1
 25 31  1  0
 25 24  1  0
 26 27  1  0
 27 28  1  0
 28 29  1  0
 29 30  1  0
 31 33  1  0
 32 31  2  0
M  END
$$$$
