RYK.pdb
     RDKit          3D

 33 33  0  0  1  0  0  0  0  0999 V2000
   46.9235  -16.9801   -8.6086 N   0  0  0  0  0  0  0  0  0  0  0  0
   46.6387  -16.7504   -7.2290 C   0  0  0  0  0  0  0  0  0  0  0  0
   46.9076  -17.6925   -6.4145 N   0  0  0  0  0  0  0  0  0  0  0  0
   46.0809  -15.5379   -6.7639 N   0  0  0  0  0  0  0  0  0  0  0  0
   45.9046  -14.4002   -7.6895 C   0  0  0  0  0  0  0  0  0  0  0  0
   44.4614  -14.1687   -7.9403 C   0  0  0  0  0  0  0  0  0  0  0  0
   44.1342  -12.7875   -8.3724 C   0  0  0  0  0  0  0  0  0  0  0  0
   42.6960  -12.5714   -8.6560 C   0  0  2  0  0  0  0  0  0  0  0  0
   42.2810  -13.2819   -9.8532 N   0  0  0  0  0  0  0  0  0  0  0  0
   42.4559  -11.1015   -8.9155 C   0  0  0  0  0  0  0  0  0  0  0  0
   42.5098  -10.6271  -10.0605 O   0  0  0  0  0  0  0  0  0  0  0  0
   46.7001  -17.6200   -5.4105 O   0  0  0  0  0  0  0  0  0  0  0  0
   37.2574   -9.4205  -12.1831 C   0  0  0  0  0  0  0  0  0  0  0  0
   38.1048   -9.1317  -11.0970 C   0  0  0  0  0  0  0  0  0  0  0  0
   37.9003   -9.7031   -9.8611 C   0  0  0  0  0  0  0  0  0  0  0  0
   38.7361   -9.4112   -8.8120 C   0  0  0  0  0  0  0  0  0  0  0  0
   39.8097   -8.5473   -8.9242 C   0  0  0  0  0  0  0  0  0  0  0  0
   40.6853   -8.2696   -7.7556 C   0  0  2  0  0  0  0  0  0  0  0  0
   42.0380   -8.8362   -7.9249 N   0  0  0  0  0  0  0  0  0  0  0  0
   42.1668  -10.2627   -7.8280 C   0  0  0  0  0  0  0  0  0  0  0  0
   43.0342   -8.1855   -7.0357 O   0  0  0  0  0  0  0  0  0  0  0  0
   43.0454   -8.4530   -5.7862 C   0  0  0  0  0  0  0  0  0  0  0  0
   40.0063   -7.9794  -10.1669 C   0  0  0  0  0  0  0  0  0  0  0  0
   39.1697   -8.2664  -11.2329 N   0  0  0  0  0  0  0  0  0  0  0  0
   43.9961   -7.2676   -7.4811 C   0  0  2  0  0  0  0  0  0  0  0  0
   45.0270   -6.6872   -6.5628 C   0  0  0  0  0  0  0  0  0  0  0  0
   46.2655   -6.6432   -7.3797 C   0  0  0  0  0  0  0  0  0  0  0  0
   47.5133   -6.0898   -6.9091 C   0  0  0  0  0  0  0  0  0  0  0  0
   48.7996   -6.0731   -7.5867 C   0  0  0  0  0  0  0  0  0  0  0  0
   50.0047   -5.4544   -7.0325 N   0  0  0  0  0  0  0  0  0  0  0  0
   51.1986   -5.4638   -7.7888 C   0  0  0  0  0  0  0  0  0  0  0  0
   44.6572   -5.2885   -6.2259 O   0  0  0  0  0  0  0  0  0  0  0  0
   43.9902   -4.6446   -7.0741 O   0  0  0  0  0  0  0  0  0  0  0  0
  2  3  2  0
  2  1  1  0
  4  2  1  0
  5  4  1  0
  6  5  1  0
  7  6  1  0
  8  7  1  0
  8 10  1  0
  8  9  1  6
 10 19  1  0
 10 11  2  0
 12 13  1  0
 13 23  2  0
 13 14  1  0
 14 15  2  0
 15 16  1  0
 16 17  1  0
 18 17  1  6
 19 18  1  0
 20 18  1  0
 20 24  1  0
 21 20  2  0
 22 16  2  0
 23 22  1  0
 25 26  1  6
 25 31  1  0
 25 24  1  0
 26 27  1  0
 27 28  1  0
 28 29  1  0
 29 30  1  0
 31 33  1  0
 32 31  2  0
M  END
$$$$
