RYK.pdb
     RDKit          3D

 33 33  0  0  1  0  0  0  0  0999 V2000
   30.4219  -23.3735  -18.3073 N   0  0  0  0  0  0  0  0  0  0  0  0
   30.5306  -23.9176  -16.9923 C   0  0  0  0  0  0  0  0  0  0  0  0
   31.4896  -24.7277  -16.7750 N   0  0  0  0  0  0  0  0  0  0  0  0
   29.6234  -23.5869  -15.9601 N   0  0  0  0  0  0  0  0  0  0  0  0
   28.5982  -22.5463  -16.1798 C   0  0  0  0  0  0  0  0  0  0  0  0
   29.0328  -21.2680  -15.5662 C   0  0  0  0  0  0  0  0  0  0  0  0
   28.0239  -20.1830  -15.6447 C   0  0  0  0  0  0  0  0  0  0  0  0
   26.6300  -20.6673  -15.7795 C   0  0  2  0  0  0  0  0  0  0  0  0
   25.9749  -20.0773  -16.9342 N   0  0  0  0  0  0  0  0  0  0  0  0
   25.8369  -20.2439  -14.5640 C   0  0  0  0  0  0  0  0  0  0  0  0
   25.5742  -19.0517  -14.3432 O   0  0  0  0  0  0  0  0  0  0  0  0
   31.6519  -25.1434  -15.8492 O   0  0  0  0  0  0  0  0  0  0  0  0
   19.8319  -18.7999  -15.9774 C   0  0  0  0  0  0  0  0  0  0  0  0
   20.6924  -19.4377  -15.0644 C   0  0  0  0  0  0  0  0  0  0  0  0
   21.2800  -20.6465  -15.3632 C   0  0  0  0  0  0  0  0  0  0  0  0
   22.1173  -21.2556  -14.4618 C   0  0  0  0  0  0  0  0  0  0  0  0
   22.4179  -20.7099  -13.2275 C   0  0  0  0  0  0  0  0  0  0  0  0
   23.3346  -21.4112  -12.2909 C   0  0  2  0  0  0  0  0  0  0  0  0
   24.7308  -20.9514  -12.4279 N   0  0  0  0  0  0  0  0  0  0  0  0
   25.3929  -21.2310  -13.6706 C   0  0  0  0  0  0  0  0  0  0  0  0
   25.5833  -21.4020  -11.2979 O   0  0  0  0  0  0  0  0  0  0  0  0
   25.7544  -22.6505  -11.0859 C   0  0  0  0  0  0  0  0  0  0  0  0
   21.8238  -19.4981  -12.9372 C   0  0  0  0  0  0  0  0  0  0  0  0
   20.9774  -18.8740  -13.8387 N   0  0  0  0  0  0  0  0  0  0  0  0
   26.2363  -20.5289  -10.4162 C   0  0  2  0  0  0  0  0  0  0  0  0
   26.4049  -20.8458   -8.9622 C   0  0  0  0  0  0  0  0  0  0  0  0
   27.1320  -19.6748   -8.4115 C   0  0  0  0  0  0  0  0  0  0  0  0
   27.4468  -19.5165   -7.0113 C   0  0  0  0  0  0  0  0  0  0  0  0
   28.7331  -19.2024   -6.4108 C   0  0  0  0  0  0  0  0  0  0  0  0
   28.9849  -19.2176   -4.9691 N   0  0  0  0  0  0  0  0  0  0  0  0
   30.2820  -18.9264   -4.4894 C   0  0  0  0  0  0  0  0  0  0  0  0
   25.0712  -20.8979   -8.3101 O   0  0  0  0  0  0  0  0  0  0  0  0
   24.8344  -21.8710   -7.5511 O   0  0  0  0  0  0  0  0  0  0  0  0
  2  3  2  0
  2  1  1  0
  4  2  1  0
  5  4  1  0
  6  5  1  0
  7  6  1  0
  8  7  1  0
  8 10  1  0
  8  9  1  6
 10 19  1  0
 10 11  2  0
 12 13  1  0
 13 23  2  0
 13 14  1  0
 14 15  2  0
 15 16  1  0
 16 17  1  0
 18 17  1  6
 19 18  1  0
 20 18  1  0
 20 24  1  0
 21 20  2  0
 22 16  2  0
 23 22  1  0
 25 26  1  6
 25 31  1  0
 25 24  1  0
 26 27  1  0
 27 28  1  0
 28 29  1  0
 29 30  1  0
 31 33  1  0
 32 31  2  0
M  END
$$$$
