QMA.pdb
     RDKit          3D

 23 22  0  0  1  0  0  0  0  0999 V2000
    8.7047  -12.2804   18.1242 N   0  0  0  0  0  0  0  0  0  0  0  0
    8.0720  -13.4467   17.6393 C   0  0  0  0  0  0  0  0  0  0  0  0
    7.9571  -13.6905   16.4236 O   0  0  0  0  0  0  0  0  0  0  0  0
    7.5341  -14.3965   18.6350 C   0  0  0  0  0  0  0  0  0  0  0  0
    7.8227  -14.0705   20.0536 C   0  0  0  0  0  0  0  0  0  0  0  0
    8.3810  -15.1727   20.8873 C   0  0  2  0  0  0  0  0  0  0  0  0
    7.4391  -16.2993   20.9597 N   0  0  0  0  0  0  0  0  0  0  0  0
    8.7282  -14.7487   22.2757 C   0  0  0  0  0  0  0  0  0  0  0  0
    9.6208  -13.9037   22.4941 O   0  0  0  0  0  0  0  0  0  0  0  0
    6.1852  -10.8059   26.9398 C   0  0  0  0  0  0  0  0  0  0  0  0
    6.6194  -12.5652   26.9989 S   0  0  0  0  0  0  0  0  0  0  0  0
    6.7180  -13.2416   25.2834 C   0  0  0  0  0  0  0  0  0  0  0  0
    7.1250  -14.6539   25.4256 C   0  0  0  0  0  0  0  0  0  0  0  0
    8.3946  -15.0839   24.7681 C   0  0  2  0  0  0  0  0  0  0  0  0
    8.0367  -15.3116   23.3530 N   0  0  0  0  0  0  0  0  0  0  0  0
    9.0577  -16.2525   25.3346 C   0  0  0  0  0  0  0  0  0  0  0  0
    9.2633  -16.4082   26.5803 O   0  0  0  0  0  0  0  0  0  0  0  0
   10.3198  -19.5926   24.0973 C   0  0  0  0  0  0  0  0  0  0  0  0
   10.2712  -18.4415   25.0825 C   0  0  2  0  0  0  0  0  0  0  0  0
    9.5216  -17.3129   24.5162 N   0  0  0  0  0  0  0  0  0  0  0  0
   11.6735  -18.0596   25.3787 C   0  0  0  0  0  0  0  0  0  0  0  0
   12.0970  -16.9392   25.0233 O   0  0  0  0  0  0  0  0  0  0  0  0
   12.5690  -18.8854   26.0417 O   0  0  0  0  0  0  0  0  0  0  0  0
  2  1  1  0
  2  3  2  0
  4  2  1  0
  5  4  1  0
  6  5  1  0
  6  7  1  1
  8  6  1  0
  8 15  1  0
  9  8  2  0
 10 11  1  0
 11 12  1  0
 12 13  1  0
 14 13  1  1
 14 15  1  0
 16 14  1  0
 17 16  2  0
 19 18  1  6
 19 20  1  0
 19 21  1  0
 20 16  1  0
 21 23  1  0
 22 21  2  0
M  END
$$$$
