QMA.pdb
     RDKit          3D

 23 22  0  0  1  0  0  0  0  0999 V2000
    8.9505  -12.7214   17.3843 N   0  0  0  0  0  0  0  0  0  0  0  0
    8.1315  -13.8247   17.0565 C   0  0  0  0  0  0  0  0  0  0  0  0
    7.7524  -14.0556   15.8931 O   0  0  0  0  0  0  0  0  0  0  0  0
    7.7231  -14.7230   18.1561 C   0  0  0  0  0  0  0  0  0  0  0  0
    8.1667  -14.3184   19.5132 C   0  0  0  0  0  0  0  0  0  0  0  0
    8.4673  -15.4218   20.4692 C   0  0  2  0  0  0  0  0  0  0  0  0
    7.3363  -16.3571   20.5575 N   0  0  0  0  0  0  0  0  0  0  0  0
    8.8003  -14.9419   21.8428 C   0  0  0  0  0  0  0  0  0  0  0  0
    9.8367  -14.2836   22.0688 O   0  0  0  0  0  0  0  0  0  0  0  0
    6.9389  -11.2085   27.4938 C   0  0  0  0  0  0  0  0  0  0  0  0
    7.1382  -12.0718   25.9120 S   0  0  0  0  0  0  0  0  0  0  0  0
    6.5330  -13.8094   26.0689 C   0  0  0  0  0  0  0  0  0  0  0  0
    6.6996  -14.4202   24.7349 C   0  0  0  0  0  0  0  0  0  0  0  0
    8.0883  -14.7049   24.2662 C   0  0  2  0  0  0  0  0  0  0  0  0
    7.9304  -15.2374   22.8972 N   0  0  0  0  0  0  0  0  0  0  0  0
    8.8812  -15.6089   25.0910 C   0  0  0  0  0  0  0  0  0  0  0  0
    9.1195  -15.4075   26.3243 O   0  0  0  0  0  0  0  0  0  0  0  0
   10.2232  -19.1071   24.8139 C   0  0  0  0  0  0  0  0  0  0  0  0
   10.2298  -17.7096   25.4012 C   0  0  2  0  0  0  0  0  0  0  0  0
    9.4454  -16.7963   24.5605 N   0  0  0  0  0  0  0  0  0  0  0  0
   11.6461  -17.2775   25.4865 C   0  0  0  0  0  0  0  0  0  0  0  0
   12.0309  -16.2882   24.8276 O   0  0  0  0  0  0  0  0  0  0  0  0
   12.5961  -17.9154   26.2700 O   0  0  0  0  0  0  0  0  0  0  0  0
  2  1  1  0
  2  3  2  0
  4  2  1  0
  5  4  1  0
  6  5  1  0
  6  7  1  1
  8  6  1  0
  8 15  1  0
  9  8  2  0
 10 11  1  0
 11 12  1  0
 12 13  1  0
 14 13  1  1
 14 15  1  0
 16 14  1  0
 17 16  2  0
 19 18  1  6
 19 20  1  0
 19 21  1  0
 20 16  1  0
 21 23  1  0
 22 21  2  0
M  END
$$$$
