QMA.pdb
     RDKit          3D

 23 22  0  0  1  0  0  0  0  0999 V2000
    9.9543  -14.0745   17.2609 N   0  0  0  0  0  0  0  0  0  0  0  0
    8.5495  -13.9720   17.1530 C   0  0  0  0  0  0  0  0  0  0  0  0
    7.9366  -14.2408   16.1030 O   0  0  0  0  0  0  0  0  0  0  0  0
    7.8033  -13.5253   18.3474 C   0  0  0  0  0  0  0  0  0  0  0  0
    8.5890  -13.4518   19.6042 C   0  0  0  0  0  0  0  0  0  0  0  0
    8.5479  -14.6546   20.4835 C   0  0  2  0  0  0  0  0  0  0  0  0
    7.2493  -15.3353   20.3747 N   0  0  0  0  0  0  0  0  0  0  0  0
    8.8090  -14.3477   21.9208 C   0  0  0  0  0  0  0  0  0  0  0  0
    9.8246  -13.7155   22.2772 O   0  0  0  0  0  0  0  0  0  0  0  0
    6.6587  -11.4893   28.1118 C   0  0  0  0  0  0  0  0  0  0  0  0
    6.8346  -11.9826   26.3760 S   0  0  0  0  0  0  0  0  0  0  0  0
    6.4420  -13.7779   26.1948 C   0  0  0  0  0  0  0  0  0  0  0  0
    6.6462  -14.0969   24.7675 C   0  0  0  0  0  0  0  0  0  0  0  0
    8.0203  -14.4820   24.3282 C   0  0  2  0  0  0  0  0  0  0  0  0
    7.8939  -14.7787   22.8865 N   0  0  0  0  0  0  0  0  0  0  0  0
    8.6433  -15.5928   25.0382 C   0  0  0  0  0  0  0  0  0  0  0  0
    8.7939  -15.6230   26.3010 O   0  0  0  0  0  0  0  0  0  0  0  0
    9.7398  -19.1071   24.2683 C   0  0  0  0  0  0  0  0  0  0  0  0
    9.8120  -17.8202   25.0662 C   0  0  2  0  0  0  0  0  0  0  0  0
    9.1274  -16.7350   24.3522 N   0  0  0  0  0  0  0  0  0  0  0  0
   11.2485  -17.5090   25.2656 C   0  0  0  0  0  0  0  0  0  0  0  0
   11.9669  -18.2974   25.9161 O   0  0  0  0  0  0  0  0  0  0  0  0
   11.8629  -16.3711   24.7644 O   0  0  0  0  0  0  0  0  0  0  0  0
  2  1  1  0
  2  3  2  0
  4  2  1  0
  5  4  1  0
  6  5  1  0
  6  7  1  1
  8  6  1  0
  8 15  1  0
  9  8  2  0
 10 11  1  0
 11 12  1  0
 12 13  1  0
 14 13  1  1
 14 15  1  0
 16 14  1  0
 17 16  2  0
 19 18  1  6
 19 20  1  0
 19 21  1  0
 20 16  1  0
 21 23  1  0
 22 21  2  0
M  END
$$$$
