QMA.pdb
     RDKit          3D

 23 22  0  0  1  0  0  0  0  0999 V2000
    9.1019  -12.4065   17.9508 N   0  0  0  0  0  0  0  0  0  0  0  0
    8.0725  -13.3022   17.5850 C   0  0  0  0  0  0  0  0  0  0  0  0
    7.7788  -13.5366   16.3979 O   0  0  0  0  0  0  0  0  0  0  0  0
    7.3313  -13.9723   18.6732 C   0  0  0  0  0  0  0  0  0  0  0  0
    7.8119  -13.6861   20.0477 C   0  0  0  0  0  0  0  0  0  0  0  0
    8.2874  -14.8549   20.8411 C   0  0  2  0  0  0  0  0  0  0  0  0
    7.2420  -15.8849   20.9288 N   0  0  0  0  0  0  0  0  0  0  0  0
    8.7233  -14.4959   22.2228 C   0  0  0  0  0  0  0  0  0  0  0  0
    9.6953  -13.7384   22.4225 O   0  0  0  0  0  0  0  0  0  0  0  0
    5.7638  -12.0704   27.6308 C   0  0  0  0  0  0  0  0  0  0  0  0
    6.8971  -11.7445   26.2537 S   0  0  0  0  0  0  0  0  0  0  0  0
    6.5667  -12.9326   24.8791 C   0  0  0  0  0  0  0  0  0  0  0  0
    7.0914  -14.2361   25.3330 C   0  0  0  0  0  0  0  0  0  0  0  0
    8.3628  -14.7271   24.7233 C   0  0  2  0  0  0  0  0  0  0  0  0
    8.0255  -15.0207   23.3152 N   0  0  0  0  0  0  0  0  0  0  0  0
    8.9889  -15.8785   25.3623 C   0  0  0  0  0  0  0  0  0  0  0  0
    9.1235  -15.9956   26.6219 O   0  0  0  0  0  0  0  0  0  0  0  0
   10.1119  -19.3178   24.3029 C   0  0  0  0  0  0  0  0  0  0  0  0
   10.0849  -18.1403   25.2572 C   0  0  2  0  0  0  0  0  0  0  0  0
    9.4947  -16.9647   24.6047 N   0  0  0  0  0  0  0  0  0  0  0  0
   11.4856  -17.8788   25.6692 C   0  0  0  0  0  0  0  0  0  0  0  0
   12.0666  -16.8493   25.2647 O   0  0  0  0  0  0  0  0  0  0  0  0
   12.2118  -18.7233   26.4955 O   0  0  0  0  0  0  0  0  0  0  0  0
  2  1  1  0
  2  3  2  0
  4  2  1  0
  5  4  1  0
  6  5  1  0
  6  7  1  1
  8  6  1  0
  8 15  1  0
  9  8  2  0
 10 11  1  0
 11 12  1  0
 12 13  1  0
 14 13  1  1
 14 15  1  0
 16 14  1  0
 17 16  2  0
 19 18  1  6
 19 20  1  0
 19 21  1  0
 20 16  1  0
 21 23  1  0
 22 21  2  0
M  END
$$$$
