QMA.pdb
     RDKit          3D

 23 22  0  0  1  0  0  0  0  0999 V2000
    9.0807  -12.6912   18.4984 N   0  0  0  0  0  0  0  0  0  0  0  0
    8.1199  -13.6922   18.2331 C   0  0  0  0  0  0  0  0  0  0  0  0
    7.1830  -13.5258   17.4300 O   0  0  0  0  0  0  0  0  0  0  0  0
    8.2552  -14.9765   18.9509 C   0  0  0  0  0  0  0  0  0  0  0  0
    9.3661  -15.0490   19.9320 C   0  0  0  0  0  0  0  0  0  0  0  0
    9.1780  -15.9816   21.0795 C   0  0  2  0  0  0  0  0  0  0  0  0
    7.7953  -16.4794   21.1248 N   0  0  0  0  0  0  0  0  0  0  0  0
    9.5110  -15.3714   22.4003 C   0  0  0  0  0  0  0  0  0  0  0  0
   10.6441  -14.9023   22.6334 O   0  0  0  0  0  0  0  0  0  0  0  0
    5.7290  -10.9254   27.4354 C   0  0  0  0  0  0  0  0  0  0  0  0
    5.9050  -11.9950   25.9821 S   0  0  0  0  0  0  0  0  0  0  0  0
    7.4473  -12.9998   26.1300 C   0  0  0  0  0  0  0  0  0  0  0  0
    7.5552  -13.7669   24.8728 C   0  0  0  0  0  0  0  0  0  0  0  0
    8.7245  -14.6812   24.7114 C   0  0  2  0  0  0  0  0  0  0  0  0
    8.5301  -15.3253   23.3961 N   0  0  0  0  0  0  0  0  0  0  0  0
    8.9211  -15.6775   25.7578 C   0  0  0  0  0  0  0  0  0  0  0  0
    9.0076  -15.3899   26.9940 O   0  0  0  0  0  0  0  0  0  0  0  0
    8.3360  -19.3239   26.0920 C   0  0  0  0  0  0  0  0  0  0  0  0
    9.0701  -18.0693   26.5224 C   0  0  2  0  0  0  0  0  0  0  0  0
    9.0268  -17.0589   25.4579 N   0  0  0  0  0  0  0  0  0  0  0  0
   10.4662  -18.4636   26.8317 C   0  0  0  0  0  0  0  0  0  0  0  0
   11.4049  -17.9964   26.1524 O   0  0  0  0  0  0  0  0  0  0  0  0
   10.8073  -19.3392   27.8517 O   0  0  0  0  0  0  0  0  0  0  0  0
  2  1  1  0
  2  3  2  0
  4  2  1  0
  5  4  1  0
  6  5  1  0
  6  7  1  1
  8  6  1  0
  8 15  1  0
  9  8  2  0
 10 11  1  0
 11 12  1  0
 12 13  1  0
 14 13  1  1
 14 15  1  0
 16 14  1  0
 17 16  2  0
 19 18  1  6
 19 20  1  0
 19 21  1  0
 20 16  1  0
 21 23  1  0
 22 21  2  0
M  END
$$$$
