QMA.pdb
     RDKit          3D

 23 22  0  0  1  0  0  0  0  0999 V2000
    8.7432  -12.3002   18.0072 N   0  0  0  0  0  0  0  0  0  0  0  0
    8.0868  -13.4721   17.5697 C   0  0  0  0  0  0  0  0  0  0  0  0
    7.7672  -13.6569   16.3805 O   0  0  0  0  0  0  0  0  0  0  0  0
    7.7789  -14.5017   18.5836 C   0  0  0  0  0  0  0  0  0  0  0  0
    8.1898  -14.1776   19.9722 C   0  0  0  0  0  0  0  0  0  0  0  0
    8.3899  -15.3336   20.8917 C   0  0  2  0  0  0  0  0  0  0  0  0
    7.1609  -16.1334   20.9979 N   0  0  0  0  0  0  0  0  0  0  0  0
    8.8204  -14.9326   22.2635 C   0  0  0  0  0  0  0  0  0  0  0  0
    9.8854  -14.3102   22.4554 O   0  0  0  0  0  0  0  0  0  0  0  0
    7.2819  -10.9553   26.9919 C   0  0  0  0  0  0  0  0  0  0  0  0
    6.0418  -12.1638   26.4543 S   0  0  0  0  0  0  0  0  0  0  0  0
    6.6062  -12.9880   24.9011 C   0  0  0  0  0  0  0  0  0  0  0  0
    7.0204  -14.3507   25.2911 C   0  0  0  0  0  0  0  0  0  0  0  0
    8.3104  -14.8703   24.7478 C   0  0  2  0  0  0  0  0  0  0  0  0
    8.0109  -15.2622   23.3552 N   0  0  0  0  0  0  0  0  0  0  0  0
    8.9289  -15.9698   25.4791 C   0  0  0  0  0  0  0  0  0  0  0  0
    9.1820  -15.9299   26.7252 O   0  0  0  0  0  0  0  0  0  0  0  0
    9.9100  -19.5514   24.8220 C   0  0  0  0  0  0  0  0  0  0  0  0
   10.0435  -18.2240   25.5419 C   0  0  2  0  0  0  0  0  0  0  0  0
    9.2917  -17.1793   24.8351 N   0  0  0  0  0  0  0  0  0  0  0  0
   11.4898  -17.8998   25.5976 C   0  0  0  0  0  0  0  0  0  0  0  0
   11.9227  -16.8998   24.9865 O   0  0  0  0  0  0  0  0  0  0  0  0
   12.4175  -18.6529   26.3016 O   0  0  0  0  0  0  0  0  0  0  0  0
  2  1  1  0
  2  3  2  0
  4  2  1  0
  5  4  1  0
  6  5  1  0
  6  7  1  1
  8  6  1  0
  8 15  1  0
  9  8  2  0
 10 11  1  0
 11 12  1  0
 12 13  1  0
 14 13  1  1
 14 15  1  0
 16 14  1  0
 17 16  2  0
 19 18  1  6
 19 20  1  0
 19 21  1  0
 20 16  1  0
 21 23  1  0
 22 21  2  0
M  END
$$$$
