QMA.pdb
     RDKit          3D

 23 22  0  0  1  0  0  0  0  0999 V2000
    9.4324  -14.0323   16.6310 N   0  0  0  0  0  0  0  0  0  0  0  0
    8.0996  -13.7848   17.0284 C   0  0  0  0  0  0  0  0  0  0  0  0
    7.1823  -13.5862   16.2101 O   0  0  0  0  0  0  0  0  0  0  0  0
    7.8110  -13.7658   18.4772 C   0  0  0  0  0  0  0  0  0  0  0  0
    8.9533  -14.1009   19.3633 C   0  0  0  0  0  0  0  0  0  0  0  0
    8.7219  -15.1810   20.3641 C   0  0  2  0  0  0  0  0  0  0  0  0
    7.3554  -15.7116   20.2514 N   0  0  0  0  0  0  0  0  0  0  0  0
    8.9511  -14.7432   21.7726 C   0  0  0  0  0  0  0  0  0  0  0  0
   10.0046  -14.1654   22.1113 O   0  0  0  0  0  0  0  0  0  0  0  0
    6.8796  -11.2445   27.5228 C   0  0  0  0  0  0  0  0  0  0  0  0
    7.1742  -12.0246   25.9129 S   0  0  0  0  0  0  0  0  0  0  0  0
    6.3776  -13.6902   25.8715 C   0  0  0  0  0  0  0  0  0  0  0  0
    6.6251  -14.2259   24.5179 C   0  0  0  0  0  0  0  0  0  0  0  0
    8.0377  -14.5119   24.1281 C   0  0  2  0  0  0  0  0  0  0  0  0
    7.9623  -14.9867   22.7311 N   0  0  0  0  0  0  0  0  0  0  0  0
    8.7647  -15.4597   24.9643 C   0  0  0  0  0  0  0  0  0  0  0  0
    9.0149  -15.2617   26.1958 O   0  0  0  0  0  0  0  0  0  0  0  0
    9.6714  -19.0838   24.7538 C   0  0  0  0  0  0  0  0  0  0  0  0
    9.8676  -17.6921   25.3217 C   0  0  2  0  0  0  0  0  0  0  0  0
    9.2456  -16.6892   24.4480 N   0  0  0  0  0  0  0  0  0  0  0  0
   11.3294  -17.4693   25.4387 C   0  0  0  0  0  0  0  0  0  0  0  0
   11.8792  -16.5948   24.7359 O   0  0  0  0  0  0  0  0  0  0  0  0
   12.1474  -18.1860   26.2993 O   0  0  0  0  0  0  0  0  0  0  0  0
  2  1  1  0
  2  3  2  0
  4  2  1  0
  5  4  1  0
  6  5  1  0
  6  7  1  1
  8  6  1  0
  8 15  1  0
  9  8  2  0
 10 11  1  0
 11 12  1  0
 12 13  1  0
 14 13  1  1
 14 15  1  0
 16 14  1  0
 17 16  2  0
 19 18  1  6
 19 20  1  0
 19 21  1  0
 20 16  1  0
 21 23  1  0
 22 21  2  0
M  END
$$$$
