QMA.pdb
     RDKit          3D

 23 22  0  0  1  0  0  0  0  0999 V2000
   10.9552  -17.5775   17.7105 N   0  0  0  0  0  0  0  0  0  0  0  0
    9.5723  -17.2909   17.6767 C   0  0  0  0  0  0  0  0  0  0  0  0
    8.8738  -17.4777   16.6630 O   0  0  0  0  0  0  0  0  0  0  0  0
    8.9568  -16.7485   18.9055 C   0  0  0  0  0  0  0  0  0  0  0  0
    9.8396  -16.6994   20.0973 C   0  0  0  0  0  0  0  0  0  0  0  0
    9.2279  -17.1090   21.3933 C   0  0  2  0  0  0  0  0  0  0  0  0
    7.7766  -17.2950   21.2486 N   0  0  0  0  0  0  0  0  0  0  0  0
    9.4784  -16.1393   22.5001 C   0  0  0  0  0  0  0  0  0  0  0  0
   10.6378  -15.8382   22.8515 O   0  0  0  0  0  0  0  0  0  0  0  0
    7.2001  -12.2600   27.8655 C   0  0  0  0  0  0  0  0  0  0  0  0
    6.2961  -12.6686   26.3480 S   0  0  0  0  0  0  0  0  0  0  0  0
    7.3862  -12.4024   24.8814 C   0  0  0  0  0  0  0  0  0  0  0  0
    7.3598  -13.6673   24.1199 C   0  0  0  0  0  0  0  0  0  0  0  0
    8.5184  -14.5970   24.2708 C   0  0  2  0  0  0  0  0  0  0  0  0
    8.3888  -15.5568   23.1552 N   0  0  0  0  0  0  0  0  0  0  0  0
    8.6337  -15.2915   25.5477 C   0  0  0  0  0  0  0  0  0  0  0  0
    9.0169  -14.7276   26.6217 O   0  0  0  0  0  0  0  0  0  0  0  0
    7.4244  -18.4530   27.0994 C   0  0  0  0  0  0  0  0  0  0  0  0
    8.4751  -17.3698   26.9560 C   0  0  2  0  0  0  0  0  0  0  0  0
    8.3159  -16.6670   25.6766 N   0  0  0  0  0  0  0  0  0  0  0  0
    9.8000  -18.0310   27.0438 C   0  0  0  0  0  0  0  0  0  0  0  0
   10.5659  -18.0131   26.0570 O   0  0  0  0  0  0  0  0  0  0  0  0
   10.2567  -18.6844   28.1787 O   0  0  0  0  0  0  0  0  0  0  0  0
  2  1  1  0
  2  3  2  0
  4  2  1  0
  5  4  1  0
  6  5  1  0
  6  7  1  6
  8  6  1  0
  8 15  1  0
  9  8  2  0
 10 11  1  0
 11 12  1  0
 12 13  1  0
 14 13  1  1
 14 15  1  0
 16 14  1  0
 17 16  2  0
 19 18  1  6
 19 20  1  0
 19 21  1  0
 20 16  1  0
 21 23  1  0
 22 21  2  0
M  END
$$$$
