QMA.pdb
     RDKit          3D

 23 22  0  0  1  0  0  0  0  0999 V2000
    9.1289  -12.3577   18.1539 N   0  0  0  0  0  0  0  0  0  0  0  0
    8.1192  -13.2781   17.7948 C   0  0  0  0  0  0  0  0  0  0  0  0
    7.6599  -13.3520   16.6399 O   0  0  0  0  0  0  0  0  0  0  0  0
    7.6059  -14.1753   18.8504 C   0  0  0  0  0  0  0  0  0  0  0  0
    8.2048  -13.9915   20.1957 C   0  0  0  0  0  0  0  0  0  0  0  0
    8.4246  -15.2279   20.9986 C   0  0  2  0  0  0  0  0  0  0  0  0
    7.2267  -16.0802   20.9810 N   0  0  0  0  0  0  0  0  0  0  0  0
    8.7974  -14.9549   22.4179 C   0  0  0  0  0  0  0  0  0  0  0  0
    9.7979  -14.2666   22.7072 O   0  0  0  0  0  0  0  0  0  0  0  0
    6.5533  -10.7917   26.6100 C   0  0  0  0  0  0  0  0  0  0  0  0
    7.1215  -12.5123   26.6727 S   0  0  0  0  0  0  0  0  0  0  0  0
    6.4153  -13.4548   25.2503 C   0  0  0  0  0  0  0  0  0  0  0  0
    6.8790  -14.8471   25.4145 C   0  0  0  0  0  0  0  0  0  0  0  0
    8.2262  -15.2019   24.8773 C   0  0  2  0  0  0  0  0  0  0  0  0
    8.0065  -15.4825   23.4436 N   0  0  0  0  0  0  0  0  0  0  0  0
    8.9151  -16.3102   25.5278 C   0  0  0  0  0  0  0  0  0  0  0  0
    9.0713  -16.3979   26.7872 O   0  0  0  0  0  0  0  0  0  0  0  0
   10.2383  -19.7019   24.5877 C   0  0  0  0  0  0  0  0  0  0  0  0
   10.2447  -18.4435   25.4330 C   0  0  2  0  0  0  0  0  0  0  0  0
    9.4626  -17.3846   24.7825 N   0  0  0  0  0  0  0  0  0  0  0  0
   11.6612  -18.0375   25.6026 C   0  0  0  0  0  0  0  0  0  0  0  0
   12.0872  -17.0212   25.0137 O   0  0  0  0  0  0  0  0  0  0  0  0
   12.5675  -18.7291   26.3922 O   0  0  0  0  0  0  0  0  0  0  0  0
  2  1  1  0
  2  3  2  0
  4  2  1  0
  5  4  1  0
  6  5  1  0
  6  7  1  1
  8  6  1  0
  8 15  1  0
  9  8  2  0
 10 11  1  0
 11 12  1  0
 12 13  1  0
 14 13  1  1
 14 15  1  0
 16 14  1  0
 17 16  2  0
 19 18  1  6
 19 20  1  0
 19 21  1  0
 20 16  1  0
 21 23  1  0
 22 21  2  0
M  END
$$$$
