QMA.pdb
     RDKit          3D

 23 22  0  0  1  0  0  0  0  0999 V2000
    8.0217  -14.0871   17.1764 N   0  0  0  0  0  0  0  0  0  0  0  0
    8.3167  -13.1060   18.1490 C   0  0  0  0  0  0  0  0  0  0  0  0
    8.7701  -11.9845   17.8536 O   0  0  0  0  0  0  0  0  0  0  0  0
    8.0690  -13.4507   19.5642 C   0  0  0  0  0  0  0  0  0  0  0  0
    7.6168  -14.8415   19.8159 C   0  0  0  0  0  0  0  0  0  0  0  0
    8.3919  -15.6188   20.8243 C   0  0  2  0  0  0  0  0  0  0  0  0
    7.7727  -16.9316   21.0581 N   0  0  0  0  0  0  0  0  0  0  0  0
    8.5338  -14.9160   22.1334 C   0  0  0  0  0  0  0  0  0  0  0  0
    9.2611  -13.9088   22.2560 O   0  0  0  0  0  0  0  0  0  0  0  0
    6.8946  -11.0502   27.5520 C   0  0  0  0  0  0  0  0  0  0  0  0
    7.1438  -12.0099   26.0341 S   0  0  0  0  0  0  0  0  0  0  0  0
    6.3090  -13.6499   26.1887 C   0  0  0  0  0  0  0  0  0  0  0  0
    6.5348  -14.3439   24.9050 C   0  0  0  0  0  0  0  0  0  0  0  0
    7.9218  -14.7998   24.5927 C   0  0  2  0  0  0  0  0  0  0  0  0
    7.8354  -15.3985   23.2448 N   0  0  0  0  0  0  0  0  0  0  0  0
    8.5307  -15.7272   25.5389 C   0  0  0  0  0  0  0  0  0  0  0  0
    7.9677  -16.1015   26.6165 O   0  0  0  0  0  0  0  0  0  0  0  0
    9.4390  -18.5415   26.1924 C   0  0  0  0  0  0  0  0  0  0  0  0
   10.3554  -17.3339   26.1846 C   0  0  2  0  0  0  0  0  0  0  0  0
    9.8140  -16.2848   25.3114 N   0  0  0  0  0  0  0  0  0  0  0  0
   11.6829  -17.7949   25.7101 C   0  0  0  0  0  0  0  0  0  0  0  0
   12.1394  -17.3586   24.6321 O   0  0  0  0  0  0  0  0  0  0  0  0
   12.4716  -18.7018   26.4022 O   0  0  0  0  0  0  0  0  0  0  0  0
  2  1  1  0
  2  3  2  0
  4  2  1  0
  5  4  1  0
  6  5  1  0
  6  7  1  1
  8  6  1  0
  8 15  1  0
  9  8  2  0
 10 11  1  0
 11 12  1  0
 12 13  1  0
 14 13  1  1
 14 15  1  0
 16 14  1  0
 17 16  2  0
 19 18  1  6
 19 20  1  0
 19 21  1  0
 20 16  1  0
 21 23  1  0
 22 21  2  0
M  END
$$$$
