QMA.pdb
     RDKit          3D

 23 22  0  0  1  0  0  0  0  0999 V2000
    6.0593  -19.1231   19.4862 N   0  0  0  0  0  0  0  0  0  0  0  0
    7.4430  -18.8602   19.5951 C   0  0  0  0  0  0  0  0  0  0  0  0
    8.3077  -19.7399   19.4252 O   0  0  0  0  0  0  0  0  0  0  0  0
    7.8522  -17.4795   19.9254 C   0  0  0  0  0  0  0  0  0  0  0  0
    6.7481  -16.4960   20.0514 C   0  0  0  0  0  0  0  0  0  0  0  0
    7.1428  -15.0904   20.3519 C   0  0  2  0  0  0  0  0  0  0  0  0
    7.8306  -14.4854   19.2019 N   0  0  0  0  0  0  0  0  0  0  0  0
    8.0183  -14.9645   21.5542 C   0  0  0  0  0  0  0  0  0  0  0  0
    9.2628  -14.9795   21.4575 O   0  0  0  0  0  0  0  0  0  0  0  0
    6.8664  -10.5364   27.3098 C   0  0  0  0  0  0  0  0  0  0  0  0
    6.5934  -12.2705   26.8568 S   0  0  0  0  0  0  0  0  0  0  0  0
    7.5260  -12.6664   25.3129 C   0  0  0  0  0  0  0  0  0  0  0  0
    7.2946  -14.1018   25.0546 C   0  0  0  0  0  0  0  0  0  0  0  0
    8.1921  -14.7888   24.0791 C   0  0  2  0  0  0  0  0  0  0  0  0
    7.4287  -14.8263   22.8148 N   0  0  0  0  0  0  0  0  0  0  0  0
    8.6575  -16.1203   24.4487 C   0  0  0  0  0  0  0  0  0  0  0  0
    7.8835  -17.1193   24.5951 O   0  0  0  0  0  0  0  0  0  0  0  0
   11.8758  -18.0068   24.6549 C   0  0  0  0  0  0  0  0  0  0  0  0
   10.4798  -17.7014   25.1609 C   0  0  2  0  0  0  0  0  0  0  0  0
   10.0311  -16.3925   24.6695 N   0  0  0  0  0  0  0  0  0  0  0  0
   10.5359  -17.7279   26.6428 C   0  0  0  0  0  0  0  0  0  0  0  0
   10.3157  -16.6810   27.2882 O   0  0  0  0  0  0  0  0  0  0  0  0
   10.8239  -18.8677   27.3786 O   0  0  0  0  0  0  0  0  0  0  0  0
  2  1  1  0
  2  3  2  0
  4  2  1  0
  5  4  1  0
  6  5  1  0
  6  7  1  6
  8  6  1  0
  8 15  1  0
  9  8  2  0
 10 11  1  0
 11 12  1  0
 12 13  1  0
 14 13  1  1
 14 15  1  0
 16 14  1  0
 17 16  2  0
 19 18  1  6
 19 20  1  0
 19 21  1  0
 20 16  1  0
 21 23  1  0
 22 21  2  0
M  END
$$$$
