QMA.pdb
     RDKit          3D

 23 22  0  0  1  0  0  0  0  0999 V2000
    8.5743  -12.3206   17.9771 N   0  0  0  0  0  0  0  0  0  0  0  0
    8.2196  -13.6123   17.5284 C   0  0  0  0  0  0  0  0  0  0  0  0
    7.9767  -13.8633   16.3333 O   0  0  0  0  0  0  0  0  0  0  0  0
    8.1406  -14.6883   18.5378 C   0  0  0  0  0  0  0  0  0  0  0  0
    8.4396  -14.2819   19.9333 C   0  0  0  0  0  0  0  0  0  0  0  0
    8.7532  -15.3800   20.8913 C   0  0  2  0  0  0  0  0  0  0  0  0
    7.6816  -16.3865   20.8988 N   0  0  0  0  0  0  0  0  0  0  0  0
    8.9725  -14.9033   22.2887 C   0  0  0  0  0  0  0  0  0  0  0  0
    9.8571  -14.0651   22.5591 O   0  0  0  0  0  0  0  0  0  0  0  0
    6.4588  -10.8998   26.8471 C   0  0  0  0  0  0  0  0  0  0  0  0
    6.9607  -12.6419   26.8364 S   0  0  0  0  0  0  0  0  0  0  0  0
    6.5360  -13.4036   25.2087 C   0  0  0  0  0  0  0  0  0  0  0  0
    7.0101  -14.8005   25.2772 C   0  0  0  0  0  0  0  0  0  0  0  0
    8.3723  -15.1019   24.7456 C   0  0  2  0  0  0  0  0  0  0  0  0
    8.1675  -15.4081   23.3148 N   0  0  0  0  0  0  0  0  0  0  0  0
    9.1081  -16.1716   25.4093 C   0  0  0  0  0  0  0  0  0  0  0  0
    9.3053  -16.2138   26.6654 O   0  0  0  0  0  0  0  0  0  0  0  0
   10.0282  -19.6775   24.7949 C   0  0  0  0  0  0  0  0  0  0  0  0
   10.4116  -18.3223   25.3558 C   0  0  2  0  0  0  0  0  0  0  0  0
    9.6587  -17.2567   24.6822 N   0  0  0  0  0  0  0  0  0  0  0  0
   11.8715  -18.1606   25.1498 C   0  0  0  0  0  0  0  0  0  0  0  0
   12.2918  -17.2744   24.3758 O   0  0  0  0  0  0  0  0  0  0  0  0
   12.8258  -18.9484   25.7760 O   0  0  0  0  0  0  0  0  0  0  0  0
  2  1  1  0
  2  3  2  0
  4  2  1  0
  5  4  1  0
  6  5  1  0
  6  7  1  1
  8  6  1  0
  8 15  1  0
  9  8  2  0
 10 11  1  0
 11 12  1  0
 12 13  1  0
 14 13  1  1
 14 15  1  0
 16 14  1  0
 17 16  2  0
 19 18  1  6
 19 20  1  0
 19 21  1  0
 20 16  1  0
 21 23  1  0
 22 21  2  0
M  END
$$$$
