QMA.pdb
     RDKit          3D

 23 22  0  0  1  0  0  0  0  0999 V2000
    8.0184  -12.0108   17.9784 N   0  0  0  0  0  0  0  0  0  0  0  0
    8.3781  -13.3396   17.6616 C   0  0  0  0  0  0  0  0  0  0  0  0
    8.4918  -13.7416   16.4887 O   0  0  0  0  0  0  0  0  0  0  0  0
    8.6223  -14.2676   18.7851 C   0  0  0  0  0  0  0  0  0  0  0  0
    7.4252  -14.9729   19.3063 C   0  0  0  0  0  0  0  0  0  0  0  0
    7.6651  -15.9914   20.3678 C   0  0  2  0  0  0  0  0  0  0  0  0
    6.4090  -16.6551   20.7463 N   0  0  0  0  0  0  0  0  0  0  0  0
    8.2990  -15.4293   21.5967 C   0  0  0  0  0  0  0  0  0  0  0  0
    9.4493  -14.9449   21.5723 O   0  0  0  0  0  0  0  0  0  0  0  0
    6.9937  -11.4752   27.9864 C   0  0  0  0  0  0  0  0  0  0  0  0
    6.7445  -12.0699   26.2918 S   0  0  0  0  0  0  0  0  0  0  0  0
    7.2895  -13.8295   26.1616 C   0  0  0  0  0  0  0  0  0  0  0  0
    7.0987  -14.2109   24.7479 C   0  0  0  0  0  0  0  0  0  0  0  0
    8.1584  -15.0392   24.0995 C   0  0  2  0  0  0  0  0  0  0  0  0
    7.5862  -15.4466   22.7998 N   0  0  0  0  0  0  0  0  0  0  0  0
    8.6294  -16.1973   24.8498 C   0  0  0  0  0  0  0  0  0  0  0  0
    7.8685  -17.1409   25.2357 O   0  0  0  0  0  0  0  0  0  0  0  0
   11.8452  -17.9528   25.3229 C   0  0  0  0  0  0  0  0  0  0  0  0
   10.4804  -17.5690   25.8597 C   0  0  2  0  0  0  0  0  0  0  0  0
    9.9943  -16.3501   25.2008 N   0  0  0  0  0  0  0  0  0  0  0  0
   10.6263  -17.3670   27.3219 C   0  0  0  0  0  0  0  0  0  0  0  0
   11.0348  -18.3061   28.0375 O   0  0  0  0  0  0  0  0  0  0  0  0
   10.3317  -16.1735   27.9638 O   0  0  0  0  0  0  0  0  0  0  0  0
  2  1  1  0
  2  3  2  0
  4  2  1  0
  5  4  1  0
  6  5  1  0
  6  7  1  1
  8  6  1  0
  8 15  1  0
  9  8  2  0
 10 11  1  0
 11 12  1  0
 12 13  1  0
 14 13  1  1
 14 15  1  0
 16 14  1  0
 17 16  2  0
 19 18  1  6
 19 20  1  0
 19 21  1  0
 20 16  1  0
 21 23  1  0
 22 21  2  0
M  END
$$$$
