QMA.pdb
     RDKit          3D

 23 22  0  0  1  0  0  0  0  0999 V2000
    8.3583  -12.3250   17.8931 N   0  0  0  0  0  0  0  0  0  0  0  0
    8.0931  -13.6008   17.3475 C   0  0  0  0  0  0  0  0  0  0  0  0
    7.8583  -13.7764   16.1373 O   0  0  0  0  0  0  0  0  0  0  0  0
    8.1000  -14.7538   18.2712 C   0  0  0  0  0  0  0  0  0  0  0  0
    8.3448  -14.4306   19.6987 C   0  0  0  0  0  0  0  0  0  0  0  0
    8.5012  -15.5889   20.6238 C   0  0  2  0  0  0  0  0  0  0  0  0
    7.2432  -16.3420   20.7327 N   0  0  0  0  0  0  0  0  0  0  0  0
    8.9455  -15.1977   21.9940 C   0  0  0  0  0  0  0  0  0  0  0  0
   10.0577  -14.6659   22.1905 O   0  0  0  0  0  0  0  0  0  0  0  0
    7.1033  -11.4785   27.1937 C   0  0  0  0  0  0  0  0  0  0  0  0
    6.0421  -12.4264   26.0701 S   0  0  0  0  0  0  0  0  0  0  0  0
    7.0638  -13.1630   24.7197 C   0  0  0  0  0  0  0  0  0  0  0  0
    7.3443  -14.5525   25.1336 C   0  0  0  0  0  0  0  0  0  0  0  0
    8.4947  -15.2536   24.4900 C   0  0  2  0  0  0  0  0  0  0  0  0
    8.0950  -15.4328   23.0790 N   0  0  0  0  0  0  0  0  0  0  0  0
    8.8989  -16.5223   25.0843 C   0  0  0  0  0  0  0  0  0  0  0  0
    8.1306  -17.5322   25.1738 O   0  0  0  0  0  0  0  0  0  0  0  0
   12.0623  -18.3095   25.7003 C   0  0  0  0  0  0  0  0  0  0  0  0
   10.6329  -18.0240   26.1167 C   0  0  2  0  0  0  0  0  0  0  0  0
   10.2020  -16.7158   25.6077 N   0  0  0  0  0  0  0  0  0  0  0  0
   10.5928  -18.0629   27.5989 C   0  0  0  0  0  0  0  0  0  0  0  0
   10.8901  -19.1185   28.1974 O   0  0  0  0  0  0  0  0  0  0  0  0
   10.2381  -16.9767   28.3848 O   0  0  0  0  0  0  0  0  0  0  0  0
  2  1  1  0
  2  3  2  0
  4  2  1  0
  5  4  1  0
  6  5  1  0
  6  7  1  1
  8  6  1  0
  8 15  1  0
  9  8  2  0
 10 11  1  0
 11 12  1  0
 12 13  1  0
 14 13  1  1
 14 15  1  0
 16 14  1  0
 17 16  2  0
 19 18  1  1
 19 20  1  0
 19 21  1  0
 20 16  1  0
 21 23  1  0
 22 21  2  0
M  END
$$$$
