WHY.pdb
     RDKit          3D

 37 40  0  0  1  0  0  0  0  0999 V2000
   23.3744  -18.4900  -27.9109 N   0  0  0  0  0  0  0  0  0  0  0  0
   23.2891  -17.1938  -27.2706 C   0  0  1  0  0  0  0  0  0  0  0  0
   22.7693  -16.2183  -28.3052 C   0  0  0  0  0  0  0  0  0  0  0  0
   23.8785  -15.5820  -29.0290 C   0  0  0  0  0  0  0  0  0  0  0  0
   25.0587  -16.1822  -29.4092 C   0  0  0  0  0  0  0  0  0  0  0  0
   25.7602  -15.2215  -30.0350 N   0  0  0  0  0  0  0  0  0  0  0  0
   25.0977  -14.0718  -30.0682 C   0  0  0  0  0  0  0  0  0  0  0  0
   25.3790  -12.8218  -30.5818 C   0  0  0  0  0  0  0  0  0  0  0  0
   24.4644  -11.8046  -30.4548 C   0  0  0  0  0  0  0  0  0  0  0  0
   23.2649  -12.0046  -29.8225 C   0  0  0  0  0  0  0  0  0  0  0  0
   22.9642  -13.2468  -29.3021 C   0  0  0  0  0  0  0  0  0  0  0  0
   23.8914  -14.2629  -29.4354 C   0  0  0  0  0  0  0  0  0  0  0  0
   22.3687  -17.1881  -26.1240 C   0  0  0  0  0  0  0  0  0  0  0  0
   21.3191  -17.8712  -26.1906 O   0  0  0  0  0  0  0  0  0  0  0  0
   22.5813  -16.4478  -24.9110 N   0  0  0  0  0  0  0  0  0  0  0  0
   21.6050  -16.4652  -23.8421 C   0  0  1  0  0  0  0  0  0  0  0  0
   21.4671  -17.7506  -23.1246 C   0  0  0  0  0  0  0  0  0  0  0  0
   22.6793  -18.4692  -22.7718 C   0  0  0  0  0  0  0  0  0  0  0  0
   23.8716  -18.5798  -23.4132 C   0  0  0  0  0  0  0  0  0  0  0  0
   24.7028  -19.3499  -22.6510 N   0  0  0  0  0  0  0  0  0  0  0  0
   24.0174  -19.7014  -21.5569 C   0  0  0  0  0  0  0  0  0  0  0  0
   22.7867  -19.1808  -21.6036 N   0  0  0  0  0  0  0  0  0  0  0  0
   21.8484  -15.3098  -22.9067 C   0  0  0  0  0  0  0  0  0  0  0  0
   23.0179  -14.9136  -22.7044 O   0  0  0  0  0  0  0  0  0  0  0  0
   15.1541  -11.4664  -23.3700 O   0  0  0  0  0  0  0  0  0  0  0  0
   16.5145  -11.6689  -23.0886 C   0  0  0  0  0  0  0  0  0  0  0  0
   17.0895  -11.1605  -21.9435 C   0  0  0  0  0  0  0  0  0  0  0  0
   18.4350  -11.3605  -21.6647 C   0  0  0  0  0  0  0  0  0  0  0  0
   19.2485  -12.0753  -22.5221 C   0  0  0  0  0  0  0  0  0  0  0  0
   20.6775  -12.2963  -22.2444 C   0  0  0  0  0  0  0  0  0  0  0  0
   20.9663  -13.4938  -21.3904 C   0  0  2  0  0  0  0  0  0  0  0  0
   20.7800  -14.6665  -22.2555 N   0  0  0  0  0  0  0  0  0  0  0  0
   20.1583  -13.5877  -20.1716 C   0  0  0  0  0  0  0  0  0  0  0  0
   19.3345  -14.5082  -20.0147 O   0  0  0  0  0  0  0  0  0  0  0  0
   18.6663  -12.5815  -23.6668 C   0  0  0  0  0  0  0  0  0  0  0  0
   17.3202  -12.3837  -23.9495 C   0  0  0  0  0  0  0  0  0  0  0  0
   20.2915  -12.6500  -19.1581 O   0  0  0  0  0  0  0  0  0  0  0  0
  2  1  1  6
  2 13  1  0
  2  3  1  0
  3  4  1  0
  4  5  2  0
  6  5  1  0
  7  6  1  0
  8  7  2  0
  9  8  1  0
 10 11  1  0
 10  9  2  0
 11 12  2  0
 12  7  1  0
 12  4  1  0
 13 14  2  0
 15 16  1  0
 15 13  1  0
 16 17  1  1
 18 17  1  0
 19 18  2  0
 20 21  1  0
 20 19  1  0
 21 22  2  0
 22 18  1  0
 23 32  1  0
 23 16  1  0
 24 23  2  0
 25 26  1  0
 26 36  2  0
 26 27  1  0
 27 28  2  0
 28 29  1  0
 29 30  1  0
 31 30  1  6
 31 32  1  0
 33 31  1  0
 33 37  1  0
 34 33  2  0
 35 29  2  0
 36 35  1  0
M  END
$$$$
