WHY.pdb
     RDKit          3D

 37 40  0  0  1  0  0  0  0  0999 V2000
   24.7800  -11.7436  -18.5906 N   0  0  0  0  0  0  0  0  0  0  0  0
   24.3560  -11.2777  -17.2866 C   0  0  1  0  0  0  0  0  0  0  0  0
   25.3357  -10.2072  -16.8548 C   0  0  0  0  0  0  0  0  0  0  0  0
   26.7146  -10.7134  -16.8918 C   0  0  0  0  0  0  0  0  0  0  0  0
   27.7689  -10.1661  -17.5893 C   0  0  0  0  0  0  0  0  0  0  0  0
   28.8199  -10.9618  -17.3266 N   0  0  0  0  0  0  0  0  0  0  0  0
   28.4899  -11.9606  -16.5172 C   0  0  0  0  0  0  0  0  0  0  0  0
   29.1899  -13.0154  -15.9670 C   0  0  0  0  0  0  0  0  0  0  0  0
   28.5508  -13.9093  -15.1425 C   0  0  0  0  0  0  0  0  0  0  0  0
   27.2184  -13.7764  -14.8500 C   0  0  0  0  0  0  0  0  0  0  0  0
   26.5003  -12.7288  -15.3898 C   0  0  0  0  0  0  0  0  0  0  0  0
   27.1531  -11.8355  -16.2178 C   0  0  0  0  0  0  0  0  0  0  0  0
   23.0075  -10.6921  -17.3055 C   0  0  0  0  0  0  0  0  0  0  0  0
   22.5740  -10.2126  -18.3801 O   0  0  0  0  0  0  0  0  0  0  0  0
   22.1315  -10.6247  -16.1685 N   0  0  0  0  0  0  0  0  0  0  0  0
   20.8066  -10.0513  -16.2770 C   0  0  1  0  0  0  0  0  0  0  0  0
   19.6918  -10.9434  -15.8930 C   0  0  0  0  0  0  0  0  0  0  0  0
   19.5362  -12.1928  -16.6175 C   0  0  0  0  0  0  0  0  0  0  0  0
   19.4311  -12.4476  -17.9477 C   0  0  0  0  0  0  0  0  0  0  0  0
   19.3303  -13.7981  -18.1226 N   0  0  0  0  0  0  0  0  0  0  0  0
   19.3748  -14.3549  -16.9067 C   0  0  0  0  0  0  0  0  0  0  0  0
   19.4996  -13.4044  -15.9747 N   0  0  0  0  0  0  0  0  0  0  0  0
   20.7589   -8.7305  -15.5541 C   0  0  0  0  0  0  0  0  0  0  0  0
   21.2774   -8.6270  -14.4201 O   0  0  0  0  0  0  0  0  0  0  0  0
   26.3768   -5.5417  -15.9828 O   0  0  0  0  0  0  0  0  0  0  0  0
   24.9758   -5.4800  -16.0478 C   0  0  0  0  0  0  0  0  0  0  0  0
   24.2518   -4.7325  -15.1436 C   0  0  0  0  0  0  0  0  0  0  0  0
   22.8661   -4.6712  -15.2074 C   0  0  0  0  0  0  0  0  0  0  0  0
   22.1600   -5.3554  -16.1774 C   0  0  0  0  0  0  0  0  0  0  0  0
   20.6908   -5.3039  -16.2600 C   0  0  0  0  0  0  0  0  0  0  0  0
   19.9854   -6.3304  -15.4260 C   0  0  2  0  0  0  0  0  0  0  0  0
   20.1401   -7.6081  -16.1344 N   0  0  0  0  0  0  0  0  0  0  0  0
   18.5775   -6.0337  -15.1484 C   0  0  0  0  0  0  0  0  0  0  0  0
   17.6653   -6.5641  -15.8096 O   0  0  0  0  0  0  0  0  0  0  0  0
   22.8910   -6.1019  -17.0795 C   0  0  0  0  0  0  0  0  0  0  0  0
   24.2778   -6.1660  -17.0192 C   0  0  0  0  0  0  0  0  0  0  0  0
   18.2244   -5.1511  -14.1381 O   0  0  0  0  0  0  0  0  0  0  0  0
  2  1  1  6
  2 13  1  0
  2  3  1  0
  3  4  1  0
  4  5  2  0
  6  5  1  0
  7  6  1  0
  8  7  2  0
  9  8  1  0
 10 11  1  0
 10  9  2  0
 11 12  2  0
 12  7  1  0
 12  4  1  0
 13 14  2  0
 15 16  1  0
 15 13  1  0
 16 17  1  1
 18 17  1  0
 19 18  2  0
 20 21  1  0
 20 19  1  0
 21 22  2  0
 22 18  1  0
 23 32  1  0
 23 16  1  0
 24 23  2  0
 25 26  1  0
 26 36  2  0
 26 27  1  0
 27 28  2  0
 28 29  1  0
 29 30  1  0
 31 30  1  6
 31 32  1  0
 33 31  1  0
 33 37  1  0
 34 33  2  0
 35 29  2  0
 36 35  1  0
M  END
$$$$
