WHY.pdb
     RDKit          3D

 37 40  0  0  1  0  0  0  0  0999 V2000
   21.8484  -18.7551  -17.7120 N   0  0  0  0  0  0  0  0  0  0  0  0
   22.5689  -18.0519  -16.6710 C   0  0  1  0  0  0  0  0  0  0  0  0
   21.5652  -17.6986  -15.5939 C   0  0  0  0  0  0  0  0  0  0  0  0
   20.7760  -16.5207  -15.9794 C   0  0  0  0  0  0  0  0  0  0  0  0
   20.7495  -15.9239  -17.2207 C   0  0  0  0  0  0  0  0  0  0  0  0
   19.8972  -14.8915  -17.1004 N   0  0  0  0  0  0  0  0  0  0  0  0
   19.3960  -14.8084  -15.8742 C   0  0  0  0  0  0  0  0  0  0  0  0
   18.5050  -13.9497  -15.2627 C   0  0  0  0  0  0  0  0  0  0  0  0
   18.1748  -14.1281  -13.9411 C   0  0  0  0  0  0  0  0  0  0  0  0
   18.7162  -15.1512  -13.2071 C   0  0  0  0  0  0  0  0  0  0  0  0
   19.6090  -16.0209  -13.7996 C   0  0  0  0  0  0  0  0  0  0  0  0
   19.9340  -15.8322  -15.1295 C   0  0  0  0  0  0  0  0  0  0  0  0
   23.6305  -18.8695  -16.0656 C   0  0  0  0  0  0  0  0  0  0  0  0
   23.3394  -20.0097  -15.6322 O   0  0  0  0  0  0  0  0  0  0  0  0
   25.0000  -18.4570  -15.9290 N   0  0  0  0  0  0  0  0  0  0  0  0
   25.9658  -19.2843  -15.2370 C   0  0  1  0  0  0  0  0  0  0  0  0
   27.3584  -19.1822  -15.7233 C   0  0  0  0  0  0  0  0  0  0  0  0
   27.6775  -19.7751  -17.0105 C   0  0  0  0  0  0  0  0  0  0  0  0
   26.8996  -20.4329  -17.9091 C   0  0  0  0  0  0  0  0  0  0  0  0
   27.6716  -20.7707  -18.9837 N   0  0  0  0  0  0  0  0  0  0  0  0
   28.9067  -20.3196  -18.7359 C   0  0  0  0  0  0  0  0  0  0  0  0
   28.9392  -19.7112  -17.5458 N   0  0  0  0  0  0  0  0  0  0  0  0
   25.8598  -19.0620  -13.7509 C   0  0  0  0  0  0  0  0  0  0  0  0
   25.2026  -18.0900  -13.3162 O   0  0  0  0  0  0  0  0  0  0  0  0
   22.1726  -21.8146   -6.5460 O   0  0  0  0  0  0  0  0  0  0  0  0
   22.7724  -21.4894   -7.7729 C   0  0  0  0  0  0  0  0  0  0  0  0
   24.0607  -21.0021   -7.8302 C   0  0  0  0  0  0  0  0  0  0  0  0
   24.6545  -20.6803   -9.0434 C   0  0  0  0  0  0  0  0  0  0  0  0
   23.9790  -20.8354  -10.2381 C   0  0  0  0  0  0  0  0  0  0  0  0
   24.5913  -20.4980  -11.5340 C   0  0  0  0  0  0  0  0  0  0  0  0
   26.0331  -20.0959  -11.4539 C   0  0  2  0  0  0  0  0  0  0  0  0
   26.4886  -19.9315  -12.8409 N   0  0  0  0  0  0  0  0  0  0  0  0
   26.8889  -21.0246  -10.7107 C   0  0  0  0  0  0  0  0  0  0  0  0
   27.1629  -22.1512  -11.1648 O   0  0  0  0  0  0  0  0  0  0  0  0
   22.6895  -21.3237  -10.1735 C   0  0  0  0  0  0  0  0  0  0  0  0
   22.0916  -21.6470   -8.9616 C   0  0  0  0  0  0  0  0  0  0  0  0
   27.4174  -20.6704   -9.4780 O   0  0  0  0  0  0  0  0  0  0  0  0
  2  1  1  6
  2 13  1  0
  2  3  1  0
  3  4  1  0
  4  5  2  0
  6  5  1  0
  7  6  1  0
  8  7  2  0
  9  8  1  0
 10 11  1  0
 10  9  2  0
 11 12  2  0
 12  7  1  0
 12  4  1  0
 13 14  2  0
 15 16  1  0
 15 13  1  0
 16 17  1  6
 18 17  1  0
 19 18  2  0
 20 21  1  0
 20 19  1  0
 21 22  2  0
 22 18  1  0
 23 32  1  0
 23 16  1  0
 24 23  2  0
 25 26  1  0
 26 36  2  0
 26 27  1  0
 27 28  2  0
 28 29  1  0
 29 30  1  0
 31 30  1  6
 31 32  1  0
 33 31  1  0
 33 37  1  0
 34 33  2  0
 35 29  2  0
 36 35  1  0
M  END
$$$$
