WHY.pdb
     RDKit          3D

 37 40  0  0  1  0  0  0  0  0999 V2000
   21.9306  -33.8369   -4.5548 N   0  0  0  0  0  0  0  0  0  0  0  0
   22.8714  -32.9653   -3.8820 C   0  0  1  0  0  0  0  0  0  0  0  0
   22.2122  -32.5012   -2.6005 C   0  0  0  0  0  0  0  0  0  0  0  0
   21.1378  -31.5394   -2.8827 C   0  0  0  0  0  0  0  0  0  0  0  0
   19.8382  -31.8414   -3.2253 C   0  0  0  0  0  0  0  0  0  0  0  0
   19.2285  -30.6545   -3.3872 N   0  0  0  0  0  0  0  0  0  0  0  0
   20.0585  -29.6419   -3.1691 C   0  0  0  0  0  0  0  0  0  0  0  0
   19.9209  -28.2689   -3.2064 C   0  0  0  0  0  0  0  0  0  0  0  0
   20.9962  -27.4622   -2.9234 C   0  0  0  0  0  0  0  0  0  0  0  0
   22.2170  -27.9953   -2.6010 C   0  0  0  0  0  0  0  0  0  0  0  0
   22.3758  -29.3655   -2.5580 C   0  0  0  0  0  0  0  0  0  0  0  0
   21.2875  -30.1677   -2.8444 C   0  0  0  0  0  0  0  0  0  0  0  0
   24.1277  -33.6469   -3.5369 C   0  0  0  0  0  0  0  0  0  0  0  0
   24.0798  -34.8389   -3.1504 O   0  0  0  0  0  0  0  0  0  0  0  0
   25.4296  -33.0433   -3.6089 N   0  0  0  0  0  0  0  0  0  0  0  0
   26.6252  -33.8039   -3.3122 C   0  0  1  0  0  0  0  0  0  0  0  0
   27.6619  -33.8003   -4.3663 C   0  0  0  0  0  0  0  0  0  0  0  0
   27.4127  -34.5712   -5.5721 C   0  0  0  0  0  0  0  0  0  0  0  0
   26.3630  -35.3554   -5.9305 C   0  0  0  0  0  0  0  0  0  0  0  0
   26.5949  -35.8411   -7.1855 N   0  0  0  0  0  0  0  0  0  0  0  0
   27.7759  -35.3531   -7.5823 C   0  0  0  0  0  0  0  0  0  0  0  0
   28.2945  -34.5792   -6.6232 N   0  0  0  0  0  0  0  0  0  0  0  0
   27.1719  -33.3961   -1.9690 C   0  0  0  0  0  0  0  0  0  0  0  0
   27.5223  -32.2103   -1.7780 O   0  0  0  0  0  0  0  0  0  0  0  0
   27.5062  -31.3670    6.3366 O   0  0  0  0  0  0  0  0  0  0  0  0
   27.3434  -31.7302    4.9904 C   0  0  0  0  0  0  0  0  0  0  0  0
   26.2243  -32.4146    4.5664 C   0  0  0  0  0  0  0  0  0  0  0  0
   26.0628  -32.7741    3.2349 C   0  0  0  0  0  0  0  0  0  0  0  0
   27.0152  -32.4608    2.2849 C   0  0  0  0  0  0  0  0  0  0  0  0
   26.8623  -32.8349    0.8690 C   0  0  0  0  0  0  0  0  0  0  0  0
   27.7504  -33.9573    0.4238 C   0  0  2  0  0  0  0  0  0  0  0  0
   27.2949  -34.3286   -0.9227 N   0  0  0  0  0  0  0  0  0  0  0  0
   27.7758  -35.1137    1.3234 C   0  0  0  0  0  0  0  0  0  0  0  0
   26.9111  -36.0066    1.2487 O   0  0  0  0  0  0  0  0  0  0  0  0
   28.1332  -31.7755    2.7162 C   0  0  0  0  0  0  0  0  0  0  0  0
   28.2986  -31.4139    4.0477 C   0  0  0  0  0  0  0  0  0  0  0  0
   28.7678  -35.2432    2.2845 O   0  0  0  0  0  0  0  0  0  0  0  0
  2  1  1  1
  2 13  1  0
  2  3  1  0
  3  4  1  0
  4  5  2  0
  6  5  1  0
  7  6  1  0
  8  7  2  0
  9  8  1  0
 10 11  1  0
 10  9  2  0
 11 12  2  0
 12  7  1  0
 12  4  1  0
 13 14  2  0
 15 16  1  0
 15 13  1  0
 16 17  1  6
 18 17  1  0
 19 18  2  0
 20 21  1  0
 20 19  1  0
 21 22  2  0
 22 18  1  0
 23 32  1  0
 23 16  1  0
 24 23  2  0
 25 26  1  0
 26 36  2  0
 26 27  1  0
 27 28  2  0
 28 29  1  0
 29 30  1  0
 31 30  1  1
 31 32  1  0
 33 31  1  0
 33 37  1  0
 34 33  2  0
 35 29  2  0
 36 35  1  0
M  END
$$$$
