WHY.pdb
     RDKit          3D

 37 40  0  0  1  0  0  0  0  0999 V2000
   26.1106  -12.8055  -16.4579 N   0  0  0  0  0  0  0  0  0  0  0  0
   25.5365  -11.9162  -17.4463 C   0  0  1  0  0  0  0  0  0  0  0  0
   24.0314  -12.0158  -17.3158 C   0  0  0  0  0  0  0  0  0  0  0  0
   23.5569  -13.3448  -17.7255 C   0  0  0  0  0  0  0  0  0  0  0  0
   22.7969  -14.2109  -16.9707 C   0  0  0  0  0  0  0  0  0  0  0  0
   22.6106  -15.2908  -17.7491 N   0  0  0  0  0  0  0  0  0  0  0  0
   23.2009  -15.1530  -18.9299 C   0  0  0  0  0  0  0  0  0  0  0  0
   23.3003  -15.9568  -20.0477 C   0  0  0  0  0  0  0  0  0  0  0  0
   24.0004  -15.5224  -21.1470 C   0  0  0  0  0  0  0  0  0  0  0  0
   24.6098  -14.2947  -21.1596 C   0  0  0  0  0  0  0  0  0  0  0  0
   24.5224  -13.4758  -20.0523 C   0  0  0  0  0  0  0  0  0  0  0  0
   23.8157  -13.9227  -18.9521 C   0  0  0  0  0  0  0  0  0  0  0  0
   25.9280  -10.5139  -17.2416 C   0  0  0  0  0  0  0  0  0  0  0  0
   26.1041  -10.1025  -16.0702 O   0  0  0  0  0  0  0  0  0  0  0  0
   26.1283   -9.5604  -18.2978 N   0  0  0  0  0  0  0  0  0  0  0  0
   26.4819   -8.1865  -18.0093 C   0  0  1  0  0  0  0  0  0  0  0  0
   27.4590   -7.5715  -18.9328 C   0  0  0  0  0  0  0  0  0  0  0  0
   28.8043   -8.1186  -18.9671 C   0  0  0  0  0  0  0  0  0  0  0  0
   29.4177   -9.0335  -18.1722 C   0  0  0  0  0  0  0  0  0  0  0  0
   30.6853   -9.2318  -18.6397 N   0  0  0  0  0  0  0  0  0  0  0  0
   30.8361   -8.4426  -19.7097 C   0  0  0  0  0  0  0  0  0  0  0  0
   29.7105   -7.7560  -19.9315 N   0  0  0  0  0  0  0  0  0  0  0  0
   25.2336   -7.3566  -17.8596 C   0  0  0  0  0  0  0  0  0  0  0  0
   24.2475   -7.5844  -18.5953 O   0  0  0  0  0  0  0  0  0  0  0  0
   17.8115   -4.3559  -14.9304 O   0  0  0  0  0  0  0  0  0  0  0  0
   19.0610   -4.9021  -15.2639 C   0  0  0  0  0  0  0  0  0  0  0  0
   20.1260   -4.8322  -14.3914 C   0  0  0  0  0  0  0  0  0  0  0  0
   21.3621   -5.3723  -14.7207 C   0  0  0  0  0  0  0  0  0  0  0  0
   21.5727   -5.9996  -15.9331 C   0  0  0  0  0  0  0  0  0  0  0  0
   22.8765   -6.5767  -16.3007 C   0  0  0  0  0  0  0  0  0  0  0  0
   23.9265   -5.5661  -16.6510 C   0  0  2  0  0  0  0  0  0  0  0  0
   25.1574   -6.3272  -16.9035 N   0  0  0  0  0  0  0  0  0  0  0  0
   24.1340   -4.5222  -15.6438 C   0  0  0  0  0  0  0  0  0  0  0  0
   23.3848   -3.5295  -15.5817 O   0  0  0  0  0  0  0  0  0  0  0  0
   20.5021   -6.0661  -16.8020 C   0  0  0  0  0  0  0  0  0  0  0  0
   19.2635   -5.5269  -16.4763 C   0  0  0  0  0  0  0  0  0  0  0  0
   25.1742   -4.6142  -14.7305 O   0  0  0  0  0  0  0  0  0  0  0  0
  2  1  1  1
  2 13  1  0
  2  3  1  0
  3  4  1  0
  4  5  2  0
  6  5  1  0
  7  6  1  0
  8  7  2  0
  9  8  1  0
 10 11  1  0
 10  9  2  0
 11 12  2  0
 12  7  1  0
 12  4  1  0
 13 14  2  0
 15 16  1  0
 15 13  1  0
 16 17  1  6
 18 17  1  0
 19 18  2  0
 20 21  1  0
 20 19  1  0
 21 22  2  0
 22 18  1  0
 23 32  1  0
 23 16  1  0
 24 23  2  0
 25 26  1  0
 26 36  2  0
 26 27  1  0
 27 28  2  0
 28 29  1  0
 29 30  1  0
 31 30  1  1
 31 32  1  0
 33 31  1  0
 33 37  1  0
 34 33  2  0
 35 29  2  0
 36 35  1  0
M  END
$$$$
