WHY.pdb
     RDKit          3D

 37 40  0  0  1  0  0  0  0  0999 V2000
   25.4608  -10.8283  -19.6004 N   0  0  0  0  0  0  0  0  0  0  0  0
   24.5891  -10.0863  -18.7134 C   0  0  1  0  0  0  0  0  0  0  0  0
   24.9540  -10.4791  -17.2975 C   0  0  0  0  0  0  0  0  0  0  0  0
   25.1506  -11.9314  -17.1910 C   0  0  0  0  0  0  0  0  0  0  0  0
   24.3013  -12.9088  -17.6610 C   0  0  0  0  0  0  0  0  0  0  0  0
   24.8872  -14.0744  -17.3369 N   0  0  0  0  0  0  0  0  0  0  0  0
   26.0368  -13.8863  -16.7007 C   0  0  0  0  0  0  0  0  0  0  0  0
   26.9879  -14.7373  -16.1748 C   0  0  0  0  0  0  0  0  0  0  0  0
   28.1031  -14.2249  -15.5577 C   0  0  0  0  0  0  0  0  0  0  0  0
   28.2957  -12.8721  -15.4509 C   0  0  0  0  0  0  0  0  0  0  0  0
   27.3569  -12.0040  -15.9702 C   0  0  0  0  0  0  0  0  0  0  0  0
   26.2389  -12.5302  -16.5888 C   0  0  0  0  0  0  0  0  0  0  0  0
   24.7507   -8.6311  -18.8473 C   0  0  0  0  0  0  0  0  0  0  0  0
   25.8988   -8.1395  -18.7336 O   0  0  0  0  0  0  0  0  0  0  0  0
   23.6769   -7.7112  -19.1028 N   0  0  0  0  0  0  0  0  0  0  0  0
   23.9232   -6.2907  -19.2350 C   0  0  1  0  0  0  0  0  0  0  0  0
   23.9970   -5.7821  -20.6214 C   0  0  0  0  0  0  0  0  0  0  0  0
   24.7838   -6.5338  -21.5837 C   0  0  0  0  0  0  0  0  0  0  0  0
   24.4156   -7.4405  -22.5258 C   0  0  0  0  0  0  0  0  0  0  0  0
   25.5333   -7.8420  -23.1997 N   0  0  0  0  0  0  0  0  0  0  0  0
   26.5691   -7.1819  -22.6687 C   0  0  0  0  0  0  0  0  0  0  0  0
   26.1435   -6.3810  -21.6863 N   0  0  0  0  0  0  0  0  0  0  0  0
   22.9405   -5.5195  -18.3930 C   0  0  0  0  0  0  0  0  0  0  0  0
   21.8377   -5.1849  -18.8801 O   0  0  0  0  0  0  0  0  0  0  0  0
   21.1033   -9.4655  -12.3414 O   0  0  0  0  0  0  0  0  0  0  0  0
   21.0907   -8.4273  -13.2864 C   0  0  0  0  0  0  0  0  0  0  0  0
   21.3990   -8.6629  -14.6092 C   0  0  0  0  0  0  0  0  0  0  0  0
   21.3868   -7.6364  -15.5442 C   0  0  0  0  0  0  0  0  0  0  0  0
   21.0658   -6.3415  -15.1864 C   0  0  0  0  0  0  0  0  0  0  0  0
   21.0491   -5.2399  -16.1631 C   0  0  0  0  0  0  0  0  0  0  0  0
   22.3085   -4.4282  -16.2056 C   0  0  2  0  0  0  0  0  0  0  0  0
   23.2425   -5.1687  -17.0644 N   0  0  0  0  0  0  0  0  0  0  0  0
   22.8953   -4.1367  -14.8949 C   0  0  0  0  0  0  0  0  0  0  0  0
   24.0338   -4.5417  -14.5947 O   0  0  0  0  0  0  0  0  0  0  0  0
   20.7582   -6.1127  -13.8603 C   0  0  0  0  0  0  0  0  0  0  0  0
   20.7693   -7.1370  -12.9214 C   0  0  0  0  0  0  0  0  0  0  0  0
   22.1942   -3.3991  -13.9520 O   0  0  0  0  0  0  0  0  0  0  0  0
  2  1  1  6
  2 13  1  0
  2  3  1  0
  3  4  1  0
  4  5  2  0
  6  5  1  0
  7  6  1  0
  8  7  2  0
  9  8  1  0
 10 11  1  0
 10  9  2  0
 11 12  2  0
 12  7  1  0
 12  4  1  0
 13 14  2  0
 15 16  1  0
 15 13  1  0
 16 17  1  6
 18 17  1  0
 19 18  2  0
 20 21  1  0
 20 19  1  0
 21 22  2  0
 22 18  1  0
 23 32  1  0
 23 16  1  0
 24 23  2  0
 25 26  1  0
 26 36  2  0
 26 27  1  0
 27 28  2  0
 28 29  1  0
 29 30  1  0
 31 30  1  1
 31 32  1  0
 33 31  1  0
 33 37  1  0
 34 33  2  0
 35 29  2  0
 36 35  1  0
M  END
$$$$
