WHY.pdb
     RDKit          3D

 37 40  0  0  1  0  0  0  0  0999 V2000
   27.1625  -19.2231  -16.6228 N   0  0  0  0  0  0  0  0  0  0  0  0
   26.7262  -20.3874  -15.8803 C   0  0  1  0  0  0  0  0  0  0  0  0
   26.2271  -19.8989  -14.5370 C   0  0  0  0  0  0  0  0  0  0  0  0
   27.3397  -19.4100  -13.7110 C   0  0  0  0  0  0  0  0  0  0  0  0
   27.5888  -18.0997  -13.3664 C   0  0  0  0  0  0  0  0  0  0  0  0
   28.7013  -18.1359  -12.6129 N   0  0  0  0  0  0  0  0  0  0  0  0
   29.1565  -19.3743  -12.4680 C   0  0  0  0  0  0  0  0  0  0  0  0
   30.2356  -19.9240  -11.8056 C   0  0  0  0  0  0  0  0  0  0  0  0
   30.4468  -21.2809  -11.8427 C   0  0  0  0  0  0  0  0  0  0  0  0
   29.6007  -22.1115  -12.5304 C   0  0  0  0  0  0  0  0  0  0  0  0
   28.5159  -21.5821  -13.1993 C   0  0  0  0  0  0  0  0  0  0  0  0
   28.3129  -20.2158  -13.1553 C   0  0  0  0  0  0  0  0  0  0  0  0
   25.6319  -21.1074  -16.5479 C   0  0  0  0  0  0  0  0  0  0  0  0
   24.6985  -20.4444  -17.0597 O   0  0  0  0  0  0  0  0  0  0  0  0
   25.5463  -22.5372  -16.6620 N   0  0  0  0  0  0  0  0  0  0  0  0
   24.3344  -23.1803  -17.1243 C   0  0  1  0  0  0  0  0  0  0  0  0
   24.4651  -24.6105  -17.4758 C   0  0  0  0  0  0  0  0  0  0  0  0
   23.2968  -25.2936  -18.0037 C   0  0  0  0  0  0  0  0  0  0  0  0
   22.0119  -24.8795  -18.1555 C   0  0  0  0  0  0  0  0  0  0  0  0
   21.2965  -25.8913  -18.7292 N   0  0  0  0  0  0  0  0  0  0  0  0
   22.1435  -26.9089  -18.9230 C   0  0  0  0  0  0  0  0  0  0  0  0
   23.3641  -26.5739  -18.4922 N   0  0  0  0  0  0  0  0  0  0  0  0
   23.2163  -22.9302  -16.1463 C   0  0  0  0  0  0  0  0  0  0  0  0
   23.4394  -23.0109  -14.9178 O   0  0  0  0  0  0  0  0  0  0  0  0
   21.6178  -16.4601  -18.5684 O   0  0  0  0  0  0  0  0  0  0  0  0
   21.5502  -17.5581  -17.6963 C   0  0  0  0  0  0  0  0  0  0  0  0
   22.6675  -18.0049  -17.0236 C   0  0  0  0  0  0  0  0  0  0  0  0
   22.6012  -19.0908  -16.1609 C   0  0  0  0  0  0  0  0  0  0  0  0
   21.4154  -19.7649  -15.9433 C   0  0  0  0  0  0  0  0  0  0  0  0
   21.3258  -20.9194  -15.0337 C   0  0  0  0  0  0  0  0  0  0  0  0
   20.8493  -22.1845  -15.6810 C   0  0  2  0  0  0  0  0  0  0  0  0
   21.9218  -22.6058  -16.5922 N   0  0  0  0  0  0  0  0  0  0  0  0
   19.5637  -22.0723  -16.3751 C   0  0  0  0  0  0  0  0  0  0  0  0
   18.5289  -21.7449  -15.7648 O   0  0  0  0  0  0  0  0  0  0  0  0
   20.3006  -19.3124  -16.6200 C   0  0  0  0  0  0  0  0  0  0  0  0
   20.3627  -18.2260  -17.4842 C   0  0  0  0  0  0  0  0  0  0  0  0
   19.4670  -22.3289  -17.7350 O   0  0  0  0  0  0  0  0  0  0  0  0
  2  1  1  6
  2 13  1  0
  2  3  1  0
  3  4  1  0
  4  5  2  0
  6  5  1  0
  7  6  1  0
  8  7  2  0
  9  8  1  0
 10 11  1  0
 10  9  2  0
 11 12  2  0
 12  7  1  0
 12  4  1  0
 13 14  2  0
 15 16  1  0
 15 13  1  0
 16 17  1  1
 18 17  1  0
 19 18  2  0
 20 21  1  0
 20 19  1  0
 21 22  2  0
 22 18  1  0
 23 32  1  0
 23 16  1  0
 24 23  2  0
 25 26  1  0
 26 36  2  0
 26 27  1  0
 27 28  2  0
 28 29  1  0
 29 30  1  0
 31 30  1  6
 31 32  1  0
 33 31  1  0
 33 37  1  0
 34 33  2  0
 35 29  2  0
 36 35  1  0
M  END
$$$$
