WHY.pdb
     RDKit          3D

 37 40  0  0  1  0  0  0  0  0999 V2000
   26.8808  -19.2886  -10.9640 N   0  0  0  0  0  0  0  0  0  0  0  0
   26.7509  -20.6473  -11.4480 C   0  0  1  0  0  0  0  0  0  0  0  0
   26.2129  -21.4795  -10.3033 C   0  0  0  0  0  0  0  0  0  0  0  0
   26.9142  -21.1636   -9.0513 C   0  0  0  0  0  0  0  0  0  0  0  0
   26.3977  -20.4763   -7.9750 C   0  0  0  0  0  0  0  0  0  0  0  0
   27.3933  -20.4283   -7.0732 N   0  0  0  0  0  0  0  0  0  0  0  0
   28.4868  -21.0366   -7.5157 C   0  0  0  0  0  0  0  0  0  0  0  0
   29.7411  -21.2542   -6.9821 C   0  0  0  0  0  0  0  0  0  0  0  0
   30.6873  -21.9379   -7.7063 C   0  0  0  0  0  0  0  0  0  0  0  0
   30.4115  -22.4147   -8.9614 C   0  0  0  0  0  0  0  0  0  0  0  0
   29.1636  -22.2078   -9.5132 C   0  0  0  0  0  0  0  0  0  0  0  0
   28.2193  -21.5188   -8.7760 C   0  0  0  0  0  0  0  0  0  0  0  0
   25.8195  -20.7585  -12.5802 C   0  0  0  0  0  0  0  0  0  0  0  0
   24.8118  -20.0125  -12.6067 O   0  0  0  0  0  0  0  0  0  0  0  0
   25.9759  -21.6716  -13.6785 N   0  0  0  0  0  0  0  0  0  0  0  0
   25.1129  -21.6021  -14.8388 C   0  0  1  0  0  0  0  0  0  0  0  0
   25.7793  -21.8049  -16.1430 C   0  0  0  0  0  0  0  0  0  0  0  0
   26.8240  -20.8720  -16.5285 C   0  0  0  0  0  0  0  0  0  0  0  0
   27.0215  -19.5676  -16.2047 C   0  0  0  0  0  0  0  0  0  0  0  0
   28.1724  -19.1427  -16.8044 N   0  0  0  0  0  0  0  0  0  0  0  0
   28.6667  -20.1834  -17.4850 C   0  0  0  0  0  0  0  0  0  0  0  0
   27.8689  -21.2459  -17.3352 N   0  0  0  0  0  0  0  0  0  0  0  0
   23.9287  -22.5144  -14.6523 C   0  0  0  0  0  0  0  0  0  0  0  0
   24.0727  -23.5981  -14.0437 O   0  0  0  0  0  0  0  0  0  0  0  0
   19.6029  -24.2263   -8.4852 O   0  0  0  0  0  0  0  0  0  0  0  0
   20.1515  -23.5694   -9.5979 C   0  0  0  0  0  0  0  0  0  0  0  0
   20.7462  -22.3318   -9.4743 C   0  0  0  0  0  0  0  0  0  0  0  0
   21.2890  -21.6816  -10.5745 C   0  0  0  0  0  0  0  0  0  0  0  0
   21.2545  -22.2482  -11.8338 C   0  0  0  0  0  0  0  0  0  0  0  0
   21.8232  -21.5734  -13.0125 C   0  0  0  0  0  0  0  0  0  0  0  0
   21.4460  -22.1921  -14.3246 C   0  0  2  0  0  0  0  0  0  0  0  0
   22.6600  -22.1671  -15.1515 N   0  0  0  0  0  0  0  0  0  0  0  0
   20.3167  -21.5508  -15.0034 C   0  0  0  0  0  0  0  0  0  0  0  0
   19.3744  -22.2238  -15.4611 O   0  0  0  0  0  0  0  0  0  0  0  0
   20.6577  -23.4874  -11.9505 C   0  0  0  0  0  0  0  0  0  0  0  0
   20.1133  -24.1414  -10.8520 C   0  0  0  0  0  0  0  0  0  0  0  0
   20.2691  -20.1726  -15.1536 O   0  0  0  0  0  0  0  0  0  0  0  0
  2  1  1  1
  2 13  1  0
  2  3  1  0
  3  4  1  0
  4  5  2  0
  6  5  1  0
  7  6  1  0
  8  7  2  0
  9  8  1  0
 10 11  1  0
 10  9  2  0
 11 12  2  0
 12  7  1  0
 12  4  1  0
 13 14  2  0
 15 16  1  0
 15 13  1  0
 16 17  1  6
 18 17  1  0
 19 18  2  0
 20 21  1  0
 20 19  1  0
 21 22  2  0
 22 18  1  0
 23 32  1  0
 23 16  1  0
 24 23  2  0
 25 26  1  0
 26 36  2  0
 26 27  1  0
 27 28  2  0
 28 29  1  0
 29 30  1  0
 31 30  1  1
 31 32  1  0
 33 31  1  0
 33 37  1  0
 34 33  2  0
 35 29  2  0
 36 35  1  0
M  END
$$$$
