WHY.pdb
     RDKit          3D

 37 40  0  0  1  0  0  0  0  0999 V2000
   24.7230  -18.5145  -18.4301 N   0  0  0  0  0  0  0  0  0  0  0  0
   25.2318  -18.1244  -17.1315 C   0  0  1  0  0  0  0  0  0  0  0  0
   24.0686  -17.5513  -16.3500 C   0  0  0  0  0  0  0  0  0  0  0  0
   23.9777  -16.0967  -16.5374 C   0  0  0  0  0  0  0  0  0  0  0  0
   22.9735  -15.4170  -17.1911 C   0  0  0  0  0  0  0  0  0  0  0  0
   23.3138  -14.1190  -17.1128 N   0  0  0  0  0  0  0  0  0  0  0  0
   24.4556  -13.9491  -16.4577 C   0  0  0  0  0  0  0  0  0  0  0  0
   25.2072  -12.8417  -16.1196 C   0  0  0  0  0  0  0  0  0  0  0  0
   26.3781  -12.9937  -15.4172 C   0  0  0  0  0  0  0  0  0  0  0  0
   26.8225  -14.2342  -15.0400 C   0  0  0  0  0  0  0  0  0  0  0  0
   26.0859  -15.3542  -15.3681 C   0  0  0  0  0  0  0  0  0  0  0  0
   24.9097  -15.1898  -16.0747 C   0  0  0  0  0  0  0  0  0  0  0  0
   25.7845  -19.2582  -16.3759 C   0  0  0  0  0  0  0  0  0  0  0  0
   25.2905  -20.3973  -16.5518 O   0  0  0  0  0  0  0  0  0  0  0  0
   26.8658  -19.1616  -15.4347 N   0  0  0  0  0  0  0  0  0  0  0  0
   27.3706  -20.3337  -14.7512 C   0  0  1  0  0  0  0  0  0  0  0  0
   28.6875  -20.8235  -15.2117 C   0  0  0  0  0  0  0  0  0  0  0  0
   28.8457  -21.1337  -16.6220 C   0  0  0  0  0  0  0  0  0  0  0  0
   29.4919  -20.4707  -17.6161 C   0  0  0  0  0  0  0  0  0  0  0  0
   29.3712  -21.1941  -18.7680 N   0  0  0  0  0  0  0  0  0  0  0  0
   28.6577  -22.2865  -18.4715 C   0  0  0  0  0  0  0  0  0  0  0  0
   28.3256  -22.2760  -17.1763 N   0  0  0  0  0  0  0  0  0  0  0  0
   27.3292  -20.1157  -13.2612 C   0  0  0  0  0  0  0  0  0  0  0  0
   27.7692  -19.0479  -12.7798 O   0  0  0  0  0  0  0  0  0  0  0  0
   20.4213  -20.0153  -12.5317 O   0  0  0  0  0  0  0  0  0  0  0  0
   21.7553  -19.9174  -12.1052 C   0  0  0  0  0  0  0  0  0  0  0  0
   22.1057  -20.1665  -10.7954 C   0  0  0  0  0  0  0  0  0  0  0  0
   23.4249  -20.0697  -10.3731 C   0  0  0  0  0  0  0  0  0  0  0  0
   24.4359  -19.7209  -11.2471 C   0  0  0  0  0  0  0  0  0  0  0  0
   25.8401  -19.6116  -10.8175 C   0  0  0  0  0  0  0  0  0  0  0  0
   26.6324  -20.8763  -10.9566 C   0  0  2  0  0  0  0  0  0  0  0  0
   26.8021  -21.0950  -12.3994 N   0  0  0  0  0  0  0  0  0  0  0  0
   26.0428  -22.0454  -10.2987 C   0  0  0  0  0  0  0  0  0  0  0  0
   25.6615  -23.0308  -10.9576 O   0  0  0  0  0  0  0  0  0  0  0  0
   24.0781  -19.4728  -12.5570 C   0  0  0  0  0  0  0  0  0  0  0  0
   22.7592  -19.5685  -12.9837 C   0  0  0  0  0  0  0  0  0  0  0  0
   25.8942  -22.0839   -8.9200 O   0  0  0  0  0  0  0  0  0  0  0  0
  2  1  1  6
  2 13  1  0
  2  3  1  0
  3  4  1  0
  4  5  2  0
  6  5  1  0
  7  6  1  0
  8  7  2  0
  9  8  1  0
 10 11  1  0
 10  9  2  0
 11 12  2  0
 12  7  1  0
 12  4  1  0
 13 14  2  0
 15 16  1  0
 15 13  1  0
 16 17  1  6
 18 17  1  0
 19 18  2  0
 20 21  1  0
 20 19  1  0
 21 22  2  0
 22 18  1  0
 23 32  1  0
 23 16  1  0
 24 23  2  0
 25 26  1  0
 26 36  2  0
 26 27  1  0
 27 28  2  0
 28 29  1  0
 29 30  1  0
 31 30  1  6
 31 32  1  0
 33 31  1  0
 33 37  1  0
 34 33  2  0
 35 29  2  0
 36 35  1  0
M  END
$$$$
