WHY.pdb
     RDKit          3D

 37 40  0  0  1  0  0  0  0  0999 V2000
   27.6202   -9.4102  -19.6836 N   0  0  0  0  0  0  0  0  0  0  0  0
   27.2508   -9.9275  -18.3824 C   0  0  1  0  0  0  0  0  0  0  0  0
   28.2111   -9.3303  -17.3756 C   0  0  0  0  0  0  0  0  0  0  0  0
   29.5417   -9.9422  -17.4941 C   0  0  0  0  0  0  0  0  0  0  0  0
   30.7130   -9.2965  -17.8240 C   0  0  0  0  0  0  0  0  0  0  0  0
   31.6600  -10.2503  -17.8119 N   0  0  0  0  0  0  0  0  0  0  0  0
   31.1573  -11.4379  -17.4983 C   0  0  0  0  0  0  0  0  0  0  0  0
   31.7017  -12.6985  -17.3566 C   0  0  0  0  0  0  0  0  0  0  0  0
   30.8992  -13.7595  -17.0137 C   0  0  0  0  0  0  0  0  0  0  0  0
   29.5545  -13.5934  -16.8065 C   0  0  0  0  0  0  0  0  0  0  0  0
   28.9905  -12.3414  -16.9430 C   0  0  0  0  0  0  0  0  0  0  0  0
   29.8069  -11.2812  -17.2883 C   0  0  0  0  0  0  0  0  0  0  0  0
   25.8819   -9.5576  -17.9937 C   0  0  0  0  0  0  0  0  0  0  0  0
   25.4270   -8.4513  -18.3701 O   0  0  0  0  0  0  0  0  0  0  0  0
   25.0086  -10.3792  -17.2019 N   0  0  0  0  0  0  0  0  0  0  0  0
   23.6933   -9.9160  -16.8130 C   0  0  1  0  0  0  0  0  0  0  0  0
   22.7433  -10.9693  -16.3958 C   0  0  0  0  0  0  0  0  0  0  0  0
   21.4347  -10.5582  -15.9175 C   0  0  0  0  0  0  0  0  0  0  0  0
   20.8987   -9.3242  -15.7298 C   0  0  0  0  0  0  0  0  0  0  0  0
   19.6153   -9.4729  -15.2877 N   0  0  0  0  0  0  0  0  0  0  0  0
   19.3777  -10.7874  -15.2096 C   0  0  0  0  0  0  0  0  0  0  0  0
   20.4642  -11.4698  -15.5860 N   0  0  0  0  0  0  0  0  0  0  0  0
   23.8184   -8.8185  -15.7888 C   0  0  0  0  0  0  0  0  0  0  0  0
   24.5201   -9.0012  -14.7691 O   0  0  0  0  0  0  0  0  0  0  0  0
   22.0020   -2.2648  -19.6896 O   0  0  0  0  0  0  0  0  0  0  0  0
   22.5394   -3.0618  -18.6664 C   0  0  0  0  0  0  0  0  0  0  0  0
   23.2637   -4.1990  -18.9537 C   0  0  0  0  0  0  0  0  0  0  0  0
   23.7954   -4.9876  -17.9421 C   0  0  0  0  0  0  0  0  0  0  0  0
   23.6198   -4.6642  -16.6108 C   0  0  0  0  0  0  0  0  0  0  0  0
   24.1745   -5.4889  -15.5243 C   0  0  0  0  0  0  0  0  0  0  0  0
   23.2236   -6.5057  -14.9688 C   0  0  2  0  0  0  0  0  0  0  0  0
   23.1583   -7.5879  -15.9602 N   0  0  0  0  0  0  0  0  0  0  0  0
   21.8914   -5.9881  -14.6457 C   0  0  0  0  0  0  0  0  0  0  0  0
   20.8899   -6.3350  -15.2994 O   0  0  0  0  0  0  0  0  0  0  0  0
   22.8936   -3.5243  -16.3301 C   0  0  0  0  0  0  0  0  0  0  0  0
   22.3598   -2.7324  -17.3395 C   0  0  0  0  0  0  0  0  0  0  0  0
   21.7118   -5.0952  -13.5993 O   0  0  0  0  0  0  0  0  0  0  0  0
  2  1  1  6
  2 13  1  0
  2  3  1  0
  3  4  1  0
  4  5  2  0
  6  5  1  0
  7  6  1  0
  8  7  2  0
  9  8  1  0
 10 11  1  0
 10  9  2  0
 11 12  2  0
 12  7  1  0
 12  4  1  0
 13 14  2  0
 15 16  1  0
 15 13  1  0
 16 17  1  1
 18 17  1  0
 19 18  2  0
 20 21  1  0
 20 19  1  0
 21 22  2  0
 22 18  1  0
 23 32  1  0
 23 16  1  0
 24 23  2  0
 25 26  1  0
 26 36  2  0
 26 27  1  0
 27 28  2  0
 28 29  1  0
 29 30  1  0
 31 30  1  6
 31 32  1  0
 33 31  1  0
 33 37  1  0
 34 33  2  0
 35 29  2  0
 36 35  1  0
M  END
$$$$
