NSR.pdb
     RDKit          3D

 26 25  0  0  1  0  0  0  0  0999 V2000
   19.8266  -23.6800  -11.9298 N   0  0  0  0  0  0  0  0  0  0  0  0
   19.8332  -22.7261  -12.9672 C   0  0  0  0  0  0  0  0  0  0  0  0
   19.1320  -22.9277  -14.0016 O   0  0  0  0  0  0  0  0  0  0  0  0
   20.6227  -21.4598  -12.9448 C   0  0  0  0  0  0  0  0  0  0  0  0
   21.3652  -21.3146  -11.6460 C   0  0  2  0  0  0  0  0  0  0  0  0
   20.5555  -20.6165  -10.6808 N   0  0  0  0  0  0  0  0  0  0  0  0
   22.6626  -20.6406  -11.8839 C   0  0  0  0  0  0  0  0  0  0  0  0
   22.6862  -19.3848  -11.8663 O   0  0  0  0  0  0  0  0  0  0  0  0
   26.4300  -22.6292  -12.3947 O   0  0  0  0  0  0  0  0  0  0  0  0
   26.2736  -21.3325  -11.8663 C   0  0  0  0  0  0  0  0  0  0  0  0
   25.1095  -20.6396  -12.4937 C   0  0  2  0  0  0  0  0  0  0  0  0
   23.8838  -21.3221  -12.1314 N   0  0  0  0  0  0  0  0  0  0  0  0
   25.2451  -20.5014  -13.9661 C   0  0  0  0  0  0  0  0  0  0  0  0
   24.5613  -21.2540  -14.7060 O   0  0  0  0  0  0  0  0  0  0  0  0
   24.1744  -14.0267  -19.0487 N   0  0  0  0  0  0  0  0  0  0  0  0
   24.6616  -14.9427  -20.0217 C   0  0  0  0  0  0  0  0  0  0  0  0
   24.6449  -14.6756  -21.2819 N   0  0  0  0  0  0  0  0  0  0  0  0
   25.1768  -16.1865  -19.5400 N   0  0  0  0  0  0  0  0  0  0  0  0
   25.1298  -16.5070  -18.1489 C   0  0  0  0  0  0  0  0  0  0  0  0
   25.8106  -17.8593  -17.8821 C   0  0  0  0  0  0  0  0  0  0  0  0
   25.6954  -18.1491  -16.4187 C   0  0  0  0  0  0  0  0  0  0  0  0
   26.3337  -19.4560  -16.0029 C   0  0  2  0  0  0  0  0  0  0  0  0
   26.1049  -19.5651  -14.5676 N   0  0  0  0  0  0  0  0  0  0  0  0
   27.7874  -19.5027  -16.2984 C   0  0  0  0  0  0  0  0  0  0  0  0
   28.6374  -19.1666  -15.4116 O   0  0  0  0  0  0  0  0  0  0  0  0
   28.3158  -19.9004  -17.5136 O   0  0  0  0  0  0  0  0  0  0  0  0
  1  2  1  0
  2  3  2  0
  4  5  1  0
  4  2  1  0
  5  6  1  1
  7  5  1  0
  8  7  2  0
  9 10  1  0
 11 10  1  6
 11 13  1  0
 11 12  1  0
 12  7  1  0
 13 14  2  0
 16 15  1  0
 16 17  2  0
 18 16  1  0
 19 18  1  0
 20 19  1  0
 21 20  1  0
 22 21  1  1
 23 22  1  0
 23 13  1  0
 24 22  1  0
 24 26  1  0
 25 24  2  0
M  END
$$$$
