NSR.pdb
     RDKit          3D

 26 25  0  0  1  0  0  0  0  0999 V2000
   26.4119  -25.9747  -15.8476 N   0  0  0  0  0  0  0  0  0  0  0  0
   25.5540  -24.8694  -15.6781 C   0  0  0  0  0  0  0  0  0  0  0  0
   26.0296  -23.6980  -15.7399 O   0  0  0  0  0  0  0  0  0  0  0  0
   24.0868  -24.9706  -15.4243 C   0  0  0  0  0  0  0  0  0  0  0  0
   23.6832  -26.3973  -15.1773 C   0  0  2  0  0  0  0  0  0  0  0  0
   23.8569  -27.1817  -16.3727 N   0  0  0  0  0  0  0  0  0  0  0  0
   22.2916  -26.4433  -14.6720 C   0  0  0  0  0  0  0  0  0  0  0  0
   21.3800  -26.0017  -15.4151 O   0  0  0  0  0  0  0  0  0  0  0  0
   21.1873  -27.0904  -10.6463 O   0  0  0  0  0  0  0  0  0  0  0  0
   20.4772  -27.7681  -11.6570 C   0  0  0  0  0  0  0  0  0  0  0  0
   20.5447  -27.0201  -12.9471 C   0  0  2  0  0  0  0  0  0  0  0  0
   21.9194  -26.9544  -13.4003 N   0  0  0  0  0  0  0  0  0  0  0  0
   19.9298  -25.6707  -12.8649 C   0  0  0  0  0  0  0  0  0  0  0  0
   20.6840  -24.6737  -12.7283 O   0  0  0  0  0  0  0  0  0  0  0  0
   14.4138  -20.4449  -16.6056 N   0  0  0  0  0  0  0  0  0  0  0  0
   15.8269  -20.5435  -16.7353 C   0  0  0  0  0  0  0  0  0  0  0  0
   16.5249  -19.6355  -17.3252 N   0  0  0  0  0  0  0  0  0  0  0  0
   16.4493  -21.7042  -16.1784 N   0  0  0  0  0  0  0  0  0  0  0  0
   15.6678  -22.7228  -15.5525 C   0  0  0  0  0  0  0  0  0  0  0  0
   16.1312  -22.9465  -14.1039 C   0  0  0  0  0  0  0  0  0  0  0  0
   17.3532  -23.8091  -14.1420 C   0  0  0  0  0  0  0  0  0  0  0  0
   17.8921  -24.1655  -12.7742 C   0  0  2  0  0  0  0  0  0  0  0  0
   18.5410  -25.4608  -12.9335 N   0  0  0  0  0  0  0  0  0  0  0  0
   16.8281  -24.2450  -11.7426 C   0  0  0  0  0  0  0  0  0  0  0  0
   16.2490  -25.3523  -11.4967 O   0  0  0  0  0  0  0  0  0  0  0  0
   16.3968  -23.1649  -10.9933 O   0  0  0  0  0  0  0  0  0  0  0  0
  1  2  1  0
  2  3  2  0
  4  5  1  0
  4  2  1  0
  5  6  1  6
  7  5  1  0
  8  7  2  0
  9 10  1  0
 11 10  1  1
 11 13  1  0
 11 12  1  0
 12  7  1  0
 13 14  2  0
 16 15  1  0
 16 17  2  0
 18 16  1  0
 19 18  1  0
 20 19  1  0
 21 20  1  0
 22 21  1  6
 23 22  1  0
 23 13  1  0
 24 22  1  0
 24 26  1  0
 25 24  2  0
M  END
$$$$
