NSR.pdb
     RDKit          3D

 26 25  0  0  1  0  0  0  0  0999 V2000
   17.6551  -14.3941  -18.4375 N   0  0  0  0  0  0  0  0  0  0  0  0
   16.6442  -13.4463  -18.1805 C   0  0  0  0  0  0  0  0  0  0  0  0
   15.5757  -13.4776  -18.8584 O   0  0  0  0  0  0  0  0  0  0  0  0
   16.7335  -12.3769  -17.1433 C   0  0  0  0  0  0  0  0  0  0  0  0
   18.0321  -12.4670  -16.3917 C   0  0  2  0  0  0  0  0  0  0  0  0
   18.0233  -13.6059  -15.5100 N   0  0  0  0  0  0  0  0  0  0  0  0
   18.2809  -11.1984  -15.6688 C   0  0  0  0  0  0  0  0  0  0  0  0
   17.4785  -10.8713  -14.7593 O   0  0  0  0  0  0  0  0  0  0  0  0
   21.8701   -9.1526  -15.8312 O   0  0  0  0  0  0  0  0  0  0  0  0
   20.9612   -8.9497  -14.7740 C   0  0  0  0  0  0  0  0  0  0  0  0
   19.5524   -9.0602  -15.2554 C   0  0  2  0  0  0  0  0  0  0  0  0
   19.3688  -10.3256  -15.9368 N   0  0  0  0  0  0  0  0  0  0  0  0
   19.1419   -7.9147  -16.1068 C   0  0  0  0  0  0  0  0  0  0  0  0
   19.2575   -8.0212  -17.3545 O   0  0  0  0  0  0  0  0  0  0  0  0
   13.3590   -1.6872  -14.4341 N   0  0  0  0  0  0  0  0  0  0  0  0
   13.9104   -1.1639  -15.6364 C   0  0  0  0  0  0  0  0  0  0  0  0
   13.4218   -0.1227  -16.2169 N   0  0  0  0  0  0  0  0  0  0  0  0
   15.0419   -1.8473  -16.1816 N   0  0  0  0  0  0  0  0  0  0  0  0
   15.5742   -3.0067  -15.5393 C   0  0  0  0  0  0  0  0  0  0  0  0
   16.7697   -3.5622  -16.3301 C   0  0  0  0  0  0  0  0  0  0  0  0
   17.2411   -4.8016  -15.6369 C   0  0  0  0  0  0  0  0  0  0  0  0
   18.3632   -5.5154  -16.3581 C   0  0  2  0  0  0  0  0  0  0  0  0
   18.6293   -6.7170  -15.5773 N   0  0  0  0  0  0  0  0  0  0  0  0
   19.5909   -4.6887  -16.4671 C   0  0  0  0  0  0  0  0  0  0  0  0
   20.4029   -4.6069  -15.4894 O   0  0  0  0  0  0  0  0  0  0  0  0
   19.9392   -3.9687  -17.5960 O   0  0  0  0  0  0  0  0  0  0  0  0
  1  2  1  0
  2  3  2  0
  4  5  1  0
  4  2  1  0
  5  6  1  1
  7  5  1  0
  8  7  2  0
  9 10  1  0
 11 10  1  6
 11 13  1  0
 11 12  1  0
 12  7  1  0
 13 14  2  0
 16 15  1  0
 16 17  2  0
 18 16  1  0
 19 18  1  0
 20 19  1  0
 21 20  1  0
 22 21  1  1
 23 22  1  0
 23 13  1  0
 24 22  1  0
 24 26  1  0
 25 24  2  0
M  END
$$$$
