NSR.pdb
     RDKit          3D

 26 25  0  0  1  0  0  0  0  0999 V2000
   29.6350  -25.8226  -19.4257 N   0  0  0  0  0  0  0  0  0  0  0  0
   28.2259  -25.8195  -19.4503 C   0  0  0  0  0  0  0  0  0  0  0  0
   27.6205  -26.3009  -20.4523 O   0  0  0  0  0  0  0  0  0  0  0  0
   27.3636  -25.2792  -18.3586 C   0  0  0  0  0  0  0  0  0  0  0  0
   28.1990  -24.7921  -17.2078 C   0  0  2  0  0  0  0  0  0  0  0  0
   28.4374  -25.8616  -16.2731 N   0  0  0  0  0  0  0  0  0  0  0  0
   27.5436  -23.6257  -16.5722 C   0  0  0  0  0  0  0  0  0  0  0  0
   26.5838  -23.8422  -15.7913 O   0  0  0  0  0  0  0  0  0  0  0  0
   28.6740  -19.5545  -17.2346 O   0  0  0  0  0  0  0  0  0  0  0  0
   28.3210  -20.0514  -15.9643 C   0  0  0  0  0  0  0  0  0  0  0  0
   27.3295  -21.1609  -16.0841 C   0  0  2  0  0  0  0  0  0  0  0  0
   27.9295  -22.2761  -16.7881 N   0  0  0  0  0  0  0  0  0  0  0  0
   26.0575  -20.7321  -16.7195 C   0  0  0  0  0  0  0  0  0  0  0  0
   25.9250  -20.8829  -17.9610 O   0  0  0  0  0  0  0  0  0  0  0  0
   19.5239  -20.2384  -11.5383 N   0  0  0  0  0  0  0  0  0  0  0  0
   19.7345  -21.5221  -12.1137 C   0  0  0  0  0  0  0  0  0  0  0  0
   19.0842  -22.5628  -11.7214 N   0  0  0  0  0  0  0  0  0  0  0  0
   20.7081  -21.6128  -13.1569 N   0  0  0  0  0  0  0  0  0  0  0  0
   21.3242  -20.4375  -13.6853 C   0  0  0  0  0  0  0  0  0  0  0  0
   22.2402  -20.7920  -14.8679 C   0  0  0  0  0  0  0  0  0  0  0  0
   22.7945  -19.5151  -15.4165 C   0  0  0  0  0  0  0  0  0  0  0  0
   23.7417  -19.7105  -16.5798 C   0  0  2  0  0  0  0  0  0  0  0  0
   24.9956  -20.1654  -15.9923 N   0  0  0  0  0  0  0  0  0  0  0  0
   23.9582  -18.4650  -17.3572 C   0  0  0  0  0  0  0  0  0  0  0  0
   24.8306  -17.6152  -16.9849 O   0  0  0  0  0  0  0  0  0  0  0  0
   23.2576  -18.1396  -18.5050 O   0  0  0  0  0  0  0  0  0  0  0  0
  1  2  1  0
  2  3  2  0
  4  5  1  0
  4  2  1  0
  5  6  1  1
  7  5  1  0
  8  7  2  0
  9 10  1  0
 11 10  1  6
 11 13  1  0
 11 12  1  0
 12  7  1  0
 13 14  2  0
 16 15  1  0
 16 17  2  0
 18 16  1  0
 19 18  1  0
 20 19  1  0
 21 20  1  0
 22 21  1  1
 23 22  1  0
 23 13  1  0
 24 22  1  0
 24 26  1  0
 25 24  2  0
M  END
$$$$
