NSR.pdb
     RDKit          3D

 26 25  0  0  1  0  0  0  0  0999 V2000
   12.7453  -12.0434  -10.4986 N   0  0  0  0  0  0  0  0  0  0  0  0
   13.9509  -11.4054  -10.1441 C   0  0  0  0  0  0  0  0  0  0  0  0
   14.7028  -11.9358   -9.2748 O   0  0  0  0  0  0  0  0  0  0  0  0
   14.4276  -10.1171  -10.7275 C   0  0  0  0  0  0  0  0  0  0  0  0
   14.6299   -9.0853   -9.6534 C   0  0  2  0  0  0  0  0  0  0  0  0
   13.3696   -8.7353   -9.0505 N   0  0  0  0  0  0  0  0  0  0  0  0
   15.3299   -7.9076  -10.2165 C   0  0  0  0  0  0  0  0  0  0  0  0
   14.7716   -7.2816  -11.1516 O   0  0  0  0  0  0  0  0  0  0  0  0
   17.5540   -5.4699   -8.0986 O   0  0  0  0  0  0  0  0  0  0  0  0
   17.1100   -5.1212   -9.3895 C   0  0  0  0  0  0  0  0  0  0  0  0
   17.2476   -6.2736  -10.3284 C   0  0  2  0  0  0  0  0  0  0  0  0
   16.5934   -7.4387   -9.7681 N   0  0  0  0  0  0  0  0  0  0  0  0
   18.6597   -6.5586  -10.6894 C   0  0  0  0  0  0  0  0  0  0  0  0
   19.4010   -7.1037   -9.8321 O   0  0  0  0  0  0  0  0  0  0  0  0
   18.8492  -12.5802  -16.0647 N   0  0  0  0  0  0  0  0  0  0  0  0
   19.2908  -11.2333  -16.1835 C   0  0  0  0  0  0  0  0  0  0  0  0
   19.5406  -10.6934  -17.3262 N   0  0  0  0  0  0  0  0  0  0  0  0
   19.4484  -10.4936  -14.9700 N   0  0  0  0  0  0  0  0  0  0  0  0
   19.9724   -9.1650  -14.9871 C   0  0  0  0  0  0  0  0  0  0  0  0
   20.0582   -8.5990  -13.5604 C   0  0  0  0  0  0  0  0  0  0  0  0
   20.5425   -7.1865  -13.6565 C   0  0  0  0  0  0  0  0  0  0  0  0
   20.5924   -6.4663  -12.3271 C   0  0  2  0  0  0  0  0  0  0  0  0
   19.2024   -6.2455  -11.9483 N   0  0  0  0  0  0  0  0  0  0  0  0
   21.3179   -5.1738  -12.4031 C   0  0  0  0  0  0  0  0  0  0  0  0
   22.5911   -5.1471  -12.3982 O   0  0  0  0  0  0  0  0  0  0  0  0
   20.6938   -3.9416  -12.4830 O   0  0  0  0  0  0  0  0  0  0  0  0
  1  2  1  0
  2  3  2  0
  4  5  1  0
  4  2  1  0
  5  6  1  6
  7  5  1  0
  8  7  2  0
  9 10  1  0
 11 10  1  1
 11 13  1  0
 11 12  1  0
 12  7  1  0
 13 14  2  0
 16 15  1  0
 16 17  2  0
 18 16  1  0
 19 18  1  0
 20 19  1  0
 21 20  1  0
 22 21  1  6
 23 22  1  0
 23 13  1  0
 24 22  1  0
 24 26  1  0
 25 24  2  0
M  END
$$$$
