NSR.pdb
     RDKit          3D

 26 25  0  0  1  0  0  0  0  0999 V2000
   23.5345  -21.6519   -7.3435 N   0  0  0  0  0  0  0  0  0  0  0  0
   22.7664  -21.2303   -8.4473 C   0  0  0  0  0  0  0  0  0  0  0  0
   21.5040  -21.2126   -8.3559 O   0  0  0  0  0  0  0  0  0  0  0  0
   23.3370  -20.7897   -9.7541 C   0  0  0  0  0  0  0  0  0  0  0  0
   24.8151  -21.0571   -9.8103 C   0  0  2  0  0  0  0  0  0  0  0  0
   25.4809  -20.4292   -8.6982 N   0  0  0  0  0  0  0  0  0  0  0  0
   25.3553  -20.6089  -11.1147 C   0  0  0  0  0  0  0  0  0  0  0  0
   25.5873  -19.3838  -11.2669 O   0  0  0  0  0  0  0  0  0  0  0  0
   28.3831  -21.9440  -13.4263 O   0  0  0  0  0  0  0  0  0  0  0  0
   27.1071  -22.0454  -14.0150 C   0  0  0  0  0  0  0  0  0  0  0  0
   26.1830  -21.0113  -13.4626 C   0  0  2  0  0  0  0  0  0  0  0  0
   25.6286  -21.4748  -12.2067 N   0  0  0  0  0  0  0  0  0  0  0  0
   25.1178  -20.6184  -14.4200 C   0  0  0  0  0  0  0  0  0  0  0  0
   24.0403  -21.2669  -14.4198 O   0  0  0  0  0  0  0  0  0  0  0  0
   24.6904  -12.9237  -17.5622 N   0  0  0  0  0  0  0  0  0  0  0  0
   24.3858  -13.5751  -16.3349 C   0  0  0  0  0  0  0  0  0  0  0  0
   24.4297  -12.9594  -15.2042 N   0  0  0  0  0  0  0  0  0  0  0  0
   24.0247  -14.9567  -16.4069 N   0  0  0  0  0  0  0  0  0  0  0  0
   23.8467  -15.6004  -17.6695 C   0  0  0  0  0  0  0  0  0  0  0  0
   23.4645  -17.0767  -17.4748 C   0  0  0  0  0  0  0  0  0  0  0  0
   24.4304  -17.6752  -16.5012 C   0  0  0  0  0  0  0  0  0  0  0  0
   24.2642  -19.1672  -16.3151 C   0  0  2  0  0  0  0  0  0  0  0  0
   25.2628  -19.5526  -15.3259 N   0  0  0  0  0  0  0  0  0  0  0  0
   24.4652  -19.9271  -17.5740 C   0  0  0  0  0  0  0  0  0  0  0  0
   25.6287  -20.3195  -17.9122 O   0  0  0  0  0  0  0  0  0  0  0  0
   23.4446  -20.2582  -18.4474 O   0  0  0  0  0  0  0  0  0  0  0  0
  1  2  1  0
  2  3  2  0
  4  5  1  0
  4  2  1  0
  5  6  1  1
  7  5  1  0
  8  7  2  0
  9 10  1  0
 11 10  1  6
 11 13  1  0
 11 12  1  0
 12  7  1  0
 13 14  2  0
 16 15  1  0
 16 17  2  0
 18 16  1  0
 19 18  1  0
 20 19  1  0
 21 20  1  0
 22 21  1  6
 23 22  1  0
 23 13  1  0
 24 22  1  0
 24 26  1  0
 25 24  2  0
M  END
$$$$
