NSR.pdb
     RDKit          3D

 26 25  0  0  1  0  0  0  0  0999 V2000
   29.6299  -19.0411  -15.9800 N   0  0  0  0  0  0  0  0  0  0  0  0
   28.3322  -18.4920  -15.9507 C   0  0  0  0  0  0  0  0  0  0  0  0
   28.1128  -17.3844  -16.5228 O   0  0  0  0  0  0  0  0  0  0  0  0
   27.1608  -19.1291  -15.2804 C   0  0  0  0  0  0  0  0  0  0  0  0
   27.5477  -20.4427  -14.6607 C   0  0  2  0  0  0  0  0  0  0  0  0
   27.9675  -21.3725  -15.6773 N   0  0  0  0  0  0  0  0  0  0  0  0
   26.4222  -20.9649  -13.8516 C   0  0  0  0  0  0  0  0  0  0  0  0
   25.5818  -21.7059  -14.4198 O   0  0  0  0  0  0  0  0  0  0  0  0
   26.4186  -21.4853   -9.8364 O   0  0  0  0  0  0  0  0  0  0  0  0
   25.2471  -20.8436  -10.2847 C   0  0  0  0  0  0  0  0  0  0  0  0
   25.0402  -21.0743  -11.7450 C   0  0  2  0  0  0  0  0  0  0  0  0
   26.2300  -20.6824  -12.4731 N   0  0  0  0  0  0  0  0  0  0  0  0
   23.8280  -20.3960  -12.2704 C   0  0  0  0  0  0  0  0  0  0  0  0
   23.8558  -19.1480  -12.4226 O   0  0  0  0  0  0  0  0  0  0  0  0
   17.8887  -20.5186  -18.2016 N   0  0  0  0  0  0  0  0  0  0  0  0
   18.7411  -19.3839  -18.2982 C   0  0  0  0  0  0  0  0  0  0  0  0
   18.4265  -18.3494  -18.9986 N   0  0  0  0  0  0  0  0  0  0  0  0
   19.9755  -19.4377  -17.5785 N   0  0  0  0  0  0  0  0  0  0  0  0
   20.2992  -20.5674  -16.7667 C   0  0  0  0  0  0  0  0  0  0  0  0
   20.1859  -20.2120  -15.2754 C   0  0  0  0  0  0  0  0  0  0  0  0
   21.4063  -20.7357  -14.5859 C   0  0  0  0  0  0  0  0  0  0  0  0
   21.4330  -20.4603  -13.0987 C   0  0  2  0  0  0  0  0  0  0  0  0
   22.6514  -21.0897  -12.6051 N   0  0  0  0  0  0  0  0  0  0  0  0
   20.2474  -21.0081  -12.3937 C   0  0  0  0  0  0  0  0  0  0  0  0
   20.2771  -22.1798  -11.8954 O   0  0  0  0  0  0  0  0  0  0  0  0
   19.0607  -20.3167  -12.2266 O   0  0  0  0  0  0  0  0  0  0  0  0
  1  2  1  0
  2  3  2  0
  4  5  1  0
  4  2  1  0
  5  6  1  6
  7  5  1  0
  8  7  2  0
  9 10  1  0
 11 10  1  1
 11 13  1  0
 11 12  1  0
 12  7  1  0
 13 14  2  0
 16 15  1  0
 16 17  2  0
 18 16  1  0
 19 18  1  0
 20 19  1  0
 21 20  1  0
 22 21  1  6
 23 22  1  0
 23 13  1  0
 24 22  1  0
 24 26  1  0
 25 24  2  0
M  END
$$$$
