NSR.pdb
     RDKit          3D

 26 25  0  0  1  0  0  0  0  0999 V2000
   34.5898  -31.7153  -18.4253 N   0  0  0  0  0  0  0  0  0  0  0  0
   33.5415  -30.9976  -19.0354 C   0  0  0  0  0  0  0  0  0  0  0  0
   33.4759  -30.9462  -20.2985 O   0  0  0  0  0  0  0  0  0  0  0  0
   32.4705  -30.2718  -18.2915 C   0  0  0  0  0  0  0  0  0  0  0  0
   31.4742  -29.6677  -19.2411 C   0  0  2  0  0  0  0  0  0  0  0  0
   32.0647  -28.5626  -19.9514 N   0  0  0  0  0  0  0  0  0  0  0  0
   30.2536  -29.2722  -18.5009 C   0  0  0  0  0  0  0  0  0  0  0  0
   29.7304  -30.1175  -17.7328 O   0  0  0  0  0  0  0  0  0  0  0  0
   28.1428  -25.7889  -19.3363 O   0  0  0  0  0  0  0  0  0  0  0  0
   28.2103  -26.1638  -17.9799 C   0  0  0  0  0  0  0  0  0  0  0  0
   28.4555  -27.6302  -17.8452 C   0  0  2  0  0  0  0  0  0  0  0  0
   29.6346  -27.9981  -18.6027 N   0  0  0  0  0  0  0  0  0  0  0  0
   27.2787  -28.4500  -18.2305 C   0  0  0  0  0  0  0  0  0  0  0  0
   27.2851  -29.0218  -19.3505 O   0  0  0  0  0  0  0  0  0  0  0  0
   23.2809  -34.3035  -13.6042 N   0  0  0  0  0  0  0  0  0  0  0  0
   22.6305  -34.4675  -14.8585 C   0  0  0  0  0  0  0  0  0  0  0  0
   21.9512  -35.5243  -15.1440 N   0  0  0  0  0  0  0  0  0  0  0  0
   22.7620  -33.4004  -15.8011 N   0  0  0  0  0  0  0  0  0  0  0  0
   23.7831  -32.4132  -15.6491 C   0  0  0  0  0  0  0  0  0  0  0  0
   23.7553  -31.4212  -16.8231 C   0  0  0  0  0  0  0  0  0  0  0  0
   24.9061  -30.4799  -16.6545 C   0  0  0  0  0  0  0  0  0  0  0  0
   24.9905  -29.4197  -17.7303 C   0  0  2  0  0  0  0  0  0  0  0  0
   26.1585  -28.6143  -17.3964 N   0  0  0  0  0  0  0  0  0  0  0  0
   23.7767  -28.5678  -17.7910 C   0  0  0  0  0  0  0  0  0  0  0  0
   23.7512  -27.4380  -17.2038 O   0  0  0  0  0  0  0  0  0  0  0  0
   22.6203  -28.9182  -18.4648 O   0  0  0  0  0  0  0  0  0  0  0  0
  1  2  1  0
  2  3  2  0
  4  5  1  0
  4  2  1  0
  5  6  1  1
  7  5  1  0
  8  7  2  0
  9 10  1  0
 11 10  1  6
 11 13  1  0
 11 12  1  0
 12  7  1  0
 13 14  2  0
 16 15  1  0
 16 17  2  0
 18 16  1  0
 19 18  1  0
 20 19  1  0
 21 20  1  0
 22 21  1  1
 23 22  1  0
 23 13  1  0
 24 22  1  0
 24 26  1  0
 25 24  2  0
M  END
$$$$
