NSR.pdb
     RDKit          3D

 26 25  0  0  1  0  0  0  0  0999 V2000
   18.7294  -16.2545  -15.7652 N   0  0  0  0  0  0  0  0  0  0  0  0
   18.5040  -17.4841  -15.1142 C   0  0  0  0  0  0  0  0  0  0  0  0
   17.4292  -17.6578  -14.4685 O   0  0  0  0  0  0  0  0  0  0  0  0
   19.4575  -18.6321  -15.1246 C   0  0  0  0  0  0  0  0  0  0  0  0
   20.7040  -18.2860  -15.8899 C   0  0  2  0  0  0  0  0  0  0  0  0
   20.3941  -18.0624  -17.2785 N   0  0  0  0  0  0  0  0  0  0  0  0
   21.7168  -19.3509  -15.7044 C   0  0  0  0  0  0  0  0  0  0  0  0
   22.1620  -19.5455  -14.5459 O   0  0  0  0  0  0  0  0  0  0  0  0
   24.2361  -23.1112  -17.5340 O   0  0  0  0  0  0  0  0  0  0  0  0
   23.2844  -22.0903  -17.7268 C   0  0  0  0  0  0  0  0  0  0  0  0
   23.2392  -21.1761  -16.5475 C   0  0  2  0  0  0  0  0  0  0  0  0
   22.2190  -20.1678  -16.7521 N   0  0  0  0  0  0  0  0  0  0  0  0
   24.5578  -20.5666  -16.2387 C   0  0  0  0  0  0  0  0  0  0  0  0
   24.9590  -19.6098  -16.9493 O   0  0  0  0  0  0  0  0  0  0  0  0
   26.6985  -21.1776   -8.9733 N   0  0  0  0  0  0  0  0  0  0  0  0
   25.3019  -21.0018   -9.1779 C   0  0  0  0  0  0  0  0  0  0  0  0
   24.4688  -20.9423   -8.1970 N   0  0  0  0  0  0  0  0  0  0  0  0
   24.8539  -20.8927  -10.5314 N   0  0  0  0  0  0  0  0  0  0  0  0
   25.6106  -21.4640  -11.5996 C   0  0  0  0  0  0  0  0  0  0  0  0
   26.3152  -20.3650  -12.4114 C   0  0  0  0  0  0  0  0  0  0  0  0
   27.0624  -21.0270  -13.5261 C   0  0  0  0  0  0  0  0  0  0  0  0
   26.7081  -20.4971  -14.8980 C   0  0  2  0  0  0  0  0  0  0  0  0
   25.3760  -21.0136  -15.1859 N   0  0  0  0  0  0  0  0  0  0  0  0
   27.6669  -20.9309  -15.9445 C   0  0  0  0  0  0  0  0  0  0  0  0
   27.6992  -22.1453  -16.3267 O   0  0  0  0  0  0  0  0  0  0  0  0
   28.5674  -20.0839  -16.5656 O   0  0  0  0  0  0  0  0  0  0  0  0
  1  2  1  0
  2  3  2  0
  4  5  1  0
  4  2  1  0
  5  6  1  6
  7  5  1  0
  8  7  2  0
  9 10  1  0
 11 10  1  6
 11 13  1  0
 11 12  1  0
 12  7  1  0
 13 14  2  0
 16 15  1  0
 16 17  2  0
 18 16  1  0
 19 18  1  0
 20 19  1  0
 21 20  1  0
 22 21  1  1
 23 22  1  0
 23 13  1  0
 24 22  1  0
 24 26  1  0
 25 24  2  0
M  END
$$$$
