NSR.pdb
     RDKit          3D

 26 25  0  0  1  0  0  0  0  0999 V2000
   17.2085  -25.3938   -5.9632 N   0  0  0  0  0  0  0  0  0  0  0  0
   18.4339  -24.8660   -6.4171 C   0  0  0  0  0  0  0  0  0  0  0  0
   19.2171  -24.3133   -5.5903 O   0  0  0  0  0  0  0  0  0  0  0  0
   18.8974  -24.9069   -7.8351 C   0  0  0  0  0  0  0  0  0  0  0  0
   17.8582  -25.5363   -8.7201 C   0  0  2  0  0  0  0  0  0  0  0  0
   17.9470  -26.9724   -8.6548 N   0  0  0  0  0  0  0  0  0  0  0  0
   18.0037  -25.0265  -10.1032 C   0  0  0  0  0  0  0  0  0  0  0  0
   18.8299  -25.5974  -10.8579 O   0  0  0  0  0  0  0  0  0  0  0  0
   16.0821  -21.5380  -11.4881 O   0  0  0  0  0  0  0  0  0  0  0  0
   16.2903  -22.6058  -12.3834 C   0  0  0  0  0  0  0  0  0  0  0  0
   17.4722  -23.4205  -11.9735 C   0  0  2  0  0  0  0  0  0  0  0  0
   17.2693  -23.9325  -10.6333 N   0  0  0  0  0  0  0  0  0  0  0  0
   18.7531  -22.6776  -12.0881 C   0  0  0  0  0  0  0  0  0  0  0  0
   19.1910  -22.0746  -11.0752 O   0  0  0  0  0  0  0  0  0  0  0  0
   25.7546  -25.5036  -15.7184 N   0  0  0  0  0  0  0  0  0  0  0  0
   25.9969  -24.1210  -15.9483 C   0  0  0  0  0  0  0  0  0  0  0  0
   27.0060  -23.7080  -16.6344 N   0  0  0  0  0  0  0  0  0  0  0  0
   25.0650  -23.1967  -15.3810 N   0  0  0  0  0  0  0  0  0  0  0  0
   24.0310  -23.6471  -14.5046 C   0  0  0  0  0  0  0  0  0  0  0  0
   23.1506  -22.4692  -14.0565 C   0  0  0  0  0  0  0  0  0  0  0  0
   21.7493  -22.9738  -13.9123 C   0  0  0  0  0  0  0  0  0  0  0  0
   20.7704  -21.9274  -13.4275 C   0  0  2  0  0  0  0  0  0  0  0  0
   19.4966  -22.6203  -13.2804 N   0  0  0  0  0  0  0  0  0  0  0  0
   20.6331  -20.7906  -14.3717 C   0  0  0  0  0  0  0  0  0  0  0  0
   19.7484  -20.8154  -15.2874 O   0  0  0  0  0  0  0  0  0  0  0  0
   21.4240  -19.6560  -14.3343 O   0  0  0  0  0  0  0  0  0  0  0  0
  1  2  1  0
  2  3  2  0
  4  5  1  0
  4  2  1  0
  5  6  1  6
  7  5  1  0
  8  7  2  0
  9 10  1  0
 11 10  1  1
 11 13  1  0
 11 12  1  0
 12  7  1  0
 13 14  2  0
 16 15  1  0
 16 17  2  0
 18 16  1  0
 19 18  1  0
 20 19  1  0
 21 20  1  0
 22 21  1  6
 23 22  1  0
 23 13  1  0
 24 22  1  0
 24 26  1  0
 25 24  2  0
M  END
$$$$
