NSR.pdb
     RDKit          3D

 26 25  0  0  1  0  0  0  0  0999 V2000
   21.1551  -12.5035  -17.4799 N   0  0  0  0  0  0  0  0  0  0  0  0
   21.6621  -11.1933  -17.3671 C   0  0  0  0  0  0  0  0  0  0  0  0
   22.7238  -10.8824  -17.9824 O   0  0  0  0  0  0  0  0  0  0  0  0
   21.0304  -10.1103  -16.5576 C   0  0  0  0  0  0  0  0  0  0  0  0
   22.0532   -9.4132  -15.7049 C   0  0  2  0  0  0  0  0  0  0  0  0
   22.6585  -10.3432  -14.7867 N   0  0  0  0  0  0  0  0  0  0  0  0
   21.4265   -8.2648  -15.0102 C   0  0  0  0  0  0  0  0  0  0  0  0
   20.3968   -8.4816  -14.3240 O   0  0  0  0  0  0  0  0  0  0  0  0
   23.1214   -4.3965  -14.8576 O   0  0  0  0  0  0  0  0  0  0  0  0
   22.2750   -4.8933  -13.8467 C   0  0  0  0  0  0  0  0  0  0  0  0
   21.2529   -5.8199  -14.4169 C   0  0  2  0  0  0  0  0  0  0  0  0
   21.9140   -6.9321  -15.0691 N   0  0  0  0  0  0  0  0  0  0  0  0
   20.3001   -5.1375  -15.3291 C   0  0  0  0  0  0  0  0  0  0  0  0
   20.5813   -5.0729  -16.5532 O   0  0  0  0  0  0  0  0  0  0  0  0
   11.7285   -4.2934  -14.5826 N   0  0  0  0  0  0  0  0  0  0  0  0
   11.9303   -3.5671  -15.7889 C   0  0  0  0  0  0  0  0  0  0  0  0
   10.9472   -3.1098  -16.4848 N   0  0  0  0  0  0  0  0  0  0  0  0
   13.2833   -3.3624  -16.2034 N   0  0  0  0  0  0  0  0  0  0  0  0
   14.3664   -3.9399  -15.4731 C   0  0  0  0  0  0  0  0  0  0  0  0
   15.7146   -3.4712  -16.0441 C   0  0  0  0  0  0  0  0  0  0  0  0
   16.7993   -4.1936  -15.3088 C   0  0  0  0  0  0  0  0  0  0  0  0
   18.1953   -3.7795  -15.7187 C   0  0  2  0  0  0  0  0  0  0  0  0
   19.0976   -4.5612  -14.8826 N   0  0  0  0  0  0  0  0  0  0  0  0
   18.4416   -2.3285  -15.5272 C   0  0  0  0  0  0  0  0  0  0  0  0
   18.9076   -1.8930  -14.4248 O   0  0  0  0  0  0  0  0  0  0  0  0
   18.1951   -1.3694  -16.4932 O   0  0  0  0  0  0  0  0  0  0  0  0
  1  2  1  0
  2  3  2  0
  4  5  1  0
  4  2  1  0
  5  6  1  1
  7  5  1  0
  8  7  2  0
  9 10  1  0
 11 10  1  6
 11 13  1  0
 11 12  1  0
 12  7  1  0
 13 14  2  0
 16 15  1  0
 16 17  2  0
 18 16  1  0
 19 18  1  0
 20 19  1  0
 21 20  1  0
 22 21  1  1
 23 22  1  0
 23 13  1  0
 24 22  1  0
 24 26  1  0
 25 24  2  0
M  END
$$$$
