NSR.pdb
     RDKit          3D

 26 25  0  0  1  0  0  0  0  0999 V2000
   19.5706  -14.8806  -16.6234 N   0  0  0  0  0  0  0  0  0  0  0  0
   20.0290  -15.9484  -15.8260 C   0  0  0  0  0  0  0  0  0  0  0  0
   19.3609  -16.2960  -14.8085 O   0  0  0  0  0  0  0  0  0  0  0  0
   21.2748  -16.7261  -16.0914 C   0  0  0  0  0  0  0  0  0  0  0  0
   22.0061  -16.1753  -17.2835 C   0  0  2  0  0  0  0  0  0  0  0  0
   21.2447  -16.3977  -18.4857 N   0  0  0  0  0  0  0  0  0  0  0  0
   23.3607  -16.7698  -17.3581 C   0  0  0  0  0  0  0  0  0  0  0  0
   23.4560  -17.9810  -17.6775 O   0  0  0  0  0  0  0  0  0  0  0  0
   27.0309  -14.8674  -16.1266 O   0  0  0  0  0  0  0  0  0  0  0  0
   26.9059  -15.5844  -17.3330 C   0  0  0  0  0  0  0  0  0  0  0  0
   25.8756  -16.6577  -17.2092 C   0  0  2  0  0  0  0  0  0  0  0  0
   24.5613  -16.0594  -17.0915 N   0  0  0  0  0  0  0  0  0  0  0  0
   26.1521  -17.5972  -16.0928 C   0  0  0  0  0  0  0  0  0  0  0  0
   25.7670  -17.2868  -14.9366 O   0  0  0  0  0  0  0  0  0  0  0  0
   26.2106  -22.3087  -10.5947 N   0  0  0  0  0  0  0  0  0  0  0  0
   25.2945  -21.2592  -10.3072 C   0  0  0  0  0  0  0  0  0  0  0  0
   25.0818  -20.8468   -9.1054 N   0  0  0  0  0  0  0  0  0  0  0  0
   24.6110  -20.6732  -11.4181 N   0  0  0  0  0  0  0  0  0  0  0  0
   24.6955  -21.2576  -12.7186 C   0  0  0  0  0  0  0  0  0  0  0  0
   26.0814  -21.0075  -13.3350 C   0  0  0  0  0  0  0  0  0  0  0  0
   25.9111  -20.0482  -14.4707 C   0  0  0  0  0  0  0  0  0  0  0  0
   27.1993  -19.7238  -15.1944 C   0  0  2  0  0  0  0  0  0  0  0  0
   26.8254  -18.8185  -16.2737 N   0  0  0  0  0  0  0  0  0  0  0  0
   27.8680  -20.9304  -15.7416 C   0  0  0  0  0  0  0  0  0  0  0  0
   28.6757  -21.6028  -15.0222 O   0  0  0  0  0  0  0  0  0  0  0  0
   27.6750  -21.4041  -17.0270 O   0  0  0  0  0  0  0  0  0  0  0  0
  1  2  1  0
  2  3  2  0
  4  5  1  0
  4  2  1  0
  5  6  1  6
  7  5  1  0
  8  7  2  0
  9 10  1  0
 11 10  1  1
 11 13  1  0
 11 12  1  0
 12  7  1  0
 13 14  2  0
 16 15  1  0
 16 17  2  0
 18 16  1  0
 19 18  1  0
 20 19  1  0
 21 20  1  0
 22 21  1  6
 23 22  1  0
 23 13  1  0
 24 22  1  0
 24 26  1  0
 25 24  2  0
M  END
$$$$
