WTI.pdb
     RDKit          3D

 30 31  0  0  1  0  0  0  0  0999 V2000
    8.7619  -18.4809   20.0267 N   0  0  0  0  0  0  0  0  0  0  0  0
    8.5451  -17.3462   20.8819 C   0  0  1  0  0  0  0  0  0  0  0  0
    7.2486  -16.6290   20.5858 C   0  0  0  0  0  0  0  0  0  0  0  0
    7.3431  -15.5370   19.6310 C   0  0  0  0  0  0  0  0  0  0  0  0
    7.2098  -15.6238   18.2704 C   0  0  0  0  0  0  0  0  0  0  0  0
    7.3814  -14.4139   17.7348 N   0  0  0  0  0  0  0  0  0  0  0  0
    7.6249  -13.5234   18.7008 C   0  0  0  0  0  0  0  0  0  0  0  0
    7.8622  -12.1466   18.6386 C   0  0  0  0  0  0  0  0  0  0  0  0
    8.0796  -11.4683   19.8146 C   0  0  0  0  0  0  0  0  0  0  0  0
    8.0664  -12.1135   21.0237 C   0  0  0  0  0  0  0  0  0  0  0  0
    7.8288  -13.4757   21.0494 C   0  0  0  0  0  0  0  0  0  0  0  0
    7.6030  -14.2154   19.8928 C   0  0  0  0  0  0  0  0  0  0  0  0
    8.6487  -17.6709   22.3089 C   0  0  0  0  0  0  0  0  0  0  0  0
    7.7182  -18.3695   22.8315 O   0  0  0  0  0  0  0  0  0  0  0  0
   10.1000  -19.9146   24.2805 C   0  0  0  0  0  0  0  0  0  0  0  0
   10.5814  -18.6706   25.0030 C   0  0  1  0  0  0  0  0  0  0  0  0
   11.8610  -18.3897   24.5299 O   0  0  0  0  0  0  0  0  0  0  0  0
    9.6718  -17.5099   24.6155 C   0  0  2  0  0  0  0  0  0  0  0  0
    9.6914  -17.2898   23.1880 N   0  0  0  0  0  0  0  0  0  0  0  0
    9.9921  -16.2953   25.3865 C   0  0  0  0  0  0  0  0  0  0  0  0
   11.0618  -15.6695   25.0600 O   0  0  0  0  0  0  0  0  0  0  0  0
    6.5968  -12.4915   27.3648 C   0  0  0  0  0  0  0  0  0  0  0  0
    7.4917  -13.6801   27.3581 C   0  0  0  0  0  0  0  0  0  0  0  0
    8.9088  -13.4153   26.9765 C   0  0  2  0  0  0  0  0  0  0  0  0
    9.0800  -12.8627   25.6016 C   0  0  0  0  0  0  0  0  0  0  0  0
    9.7659  -14.6181   27.2505 C   0  0  2  0  0  0  0  0  0  0  0  0
    9.2633  -15.7334   26.4421 N   0  0  0  0  0  0  0  0  0  0  0  0
    9.9301  -14.9335   28.6675 C   0  0  0  0  0  0  0  0  0  0  0  0
    9.6130  -16.1482   29.2505 O   0  0  0  0  0  0  0  0  0  0  0  0
   10.3934  -14.0612   29.4554 O   0  0  0  0  0  0  0  0  0  0  0  0
  2  1  1  6
  2 13  1  0
  3  2  1  0
  3  4  1  0
  4  5  2  0
  4 12  1  0
  5  6  1  0
  6  7  1  0
  7  8  2  0
  9  8  1  0
 10  9  2  0
 11 12  2  0
 11 10  1  0
 12  7  1  0
 13 14  2  0
 16 15  1  6
 16 18  1  0
 17 16  1  0
 19 13  1  0
 18 19  1  6
 20 18  1  0
 20 21  2  0
 22 23  1  0
 23 24  1  0
 24 25  1  6
 24 26  1  0
 26 28  1  0
 26 27  1  6
 27 20  1  0
 28 30  2  0
 28 29  1  0
M  END
$$$$
