WTI.pdb
     RDKit          3D

 30 31  0  0  1  0  0  0  0  0999 V2000
    8.2977  -18.1541   19.2883 N   0  0  0  0  0  0  0  0  0  0  0  0
    8.4466  -17.0383   20.1819 C   0  0  1  0  0  0  0  0  0  0  0  0
    7.4511  -15.9344   19.9112 C   0  0  0  0  0  0  0  0  0  0  0  0
    7.8497  -14.6104   20.3598 C   0  0  0  0  0  0  0  0  0  0  0  0
    8.6764  -13.7369   19.7038 C   0  0  0  0  0  0  0  0  0  0  0  0
    8.8209  -12.6333   20.4395 N   0  0  0  0  0  0  0  0  0  0  0  0
    8.1131  -12.7470   21.5672 C   0  0  0  0  0  0  0  0  0  0  0  0
    7.9465  -11.8619   22.6370 C   0  0  0  0  0  0  0  0  0  0  0  0
    7.1396  -12.2461   23.6819 C   0  0  0  0  0  0  0  0  0  0  0  0
    6.5091  -13.4629   23.6869 C   0  0  0  0  0  0  0  0  0  0  0  0
    6.6956  -14.3144   22.6131 C   0  0  0  0  0  0  0  0  0  0  0  0
    7.5004  -13.9812   21.5280 C   0  0  0  0  0  0  0  0  0  0  0  0
    8.4259  -17.4253   21.5969 C   0  0  0  0  0  0  0  0  0  0  0  0
    7.3975  -18.0415   22.0326 O   0  0  0  0  0  0  0  0  0  0  0  0
    9.4132  -19.9565   23.3751 C   0  0  0  0  0  0  0  0  0  0  0  0
   10.0737  -18.8760   24.2105 C   0  0  1  0  0  0  0  0  0  0  0  0
   11.3840  -18.7481   23.7555 O   0  0  0  0  0  0  0  0  0  0  0  0
    9.3534  -17.5586   23.9454 C   0  0  2  0  0  0  0  0  0  0  0  0
    9.4445  -17.1890   22.5519 N   0  0  0  0  0  0  0  0  0  0  0  0
    9.8250  -16.4961   24.8515 C   0  0  0  0  0  0  0  0  0  0  0  0
   10.7819  -15.7572   24.4262 O   0  0  0  0  0  0  0  0  0  0  0  0
    7.2417  -12.7000   26.8147 C   0  0  0  0  0  0  0  0  0  0  0  0
    8.2589  -13.7156   26.4305 C   0  0  0  0  0  0  0  0  0  0  0  0
    9.0701  -14.2689   27.5529 C   0  0  2  0  0  0  0  0  0  0  0  0
    9.6827  -13.2334   28.4346 C   0  0  0  0  0  0  0  0  0  0  0  0
   10.0546  -15.2840   27.0461 C   0  0  2  0  0  0  0  0  0  0  0  0
    9.3506  -16.1899   26.1330 N   0  0  0  0  0  0  0  0  0  0  0  0
   10.8158  -15.9627   28.0921 C   0  0  0  0  0  0  0  0  0  0  0  0
   11.9578  -15.4613   28.6926 O   0  0  0  0  0  0  0  0  0  0  0  0
   10.4385  -17.0938   28.5099 O   0  0  0  0  0  0  0  0  0  0  0  0
  2  1  1  6
  2 13  1  0
  3  2  1  0
  3  4  1  0
  4  5  2  0
  4 12  1  0
  5  6  1  0
  6  7  1  0
  7  8  2  0
  9  8  1  0
 10  9  2  0
 11 12  2  0
 11 10  1  0
 12  7  1  0
 13 14  2  0
 16 15  1  6
 16 18  1  0
 17 16  1  0
 19 13  1  0
 18 19  1  6
 20 18  1  0
 20 21  2  0
 22 23  1  0
 23 24  1  0
 24 25  1  6
 24 26  1  0
 26 28  1  0
 26 27  1  1
 27 20  1  0
 28 30  2  0
 28 29  1  0
M  END
$$$$
