WTI.pdb
     RDKit          3D

 30 31  0  0  1  0  0  0  0  0999 V2000
    6.8963  -17.3345   19.9133 N   0  0  0  0  0  0  0  0  0  0  0  0
    7.3733  -16.3238   20.8170 C   0  0  1  0  0  0  0  0  0  0  0  0
    6.5932  -15.0337   20.7173 C   0  0  0  0  0  0  0  0  0  0  0  0
    7.0556  -13.9564   21.5768 C   0  0  0  0  0  0  0  0  0  0  0  0
    7.9128  -12.9444   21.2338 C   0  0  0  0  0  0  0  0  0  0  0  0
    8.1148  -12.1619   22.2955 N   0  0  0  0  0  0  0  0  0  0  0  0
    7.4157  -12.6243   23.3362 C   0  0  0  0  0  0  0  0  0  0  0  0
    7.3010  -12.1488   24.6463 C   0  0  0  0  0  0  0  0  0  0  0  0
    6.4899  -12.8336   25.5202 C   0  0  0  0  0  0  0  0  0  0  0  0
    5.8058  -13.9550   25.1295 C   0  0  0  0  0  0  0  0  0  0  0  0
    5.9418  -14.3983   23.8265 C   0  0  0  0  0  0  0  0  0  0  0  0
    6.7481  -13.7478   22.8977 C   0  0  0  0  0  0  0  0  0  0  0  0
    7.4486  -16.7827   22.2085 C   0  0  0  0  0  0  0  0  0  0  0  0
    6.4624  -17.4448   22.6732 O   0  0  0  0  0  0  0  0  0  0  0  0
    7.3016  -19.0935   23.5566 C   0  0  0  0  0  0  0  0  0  0  0  0
    8.5730  -18.7144   24.2921 C   0  0  1  0  0  0  0  0  0  0  0  0
    9.6435  -19.1193   23.4982 O   0  0  0  0  0  0  0  0  0  0  0  0
    8.6233  -17.1950   24.4093 C   0  0  2  0  0  0  0  0  0  0  0  0
    8.5194  -16.5710   23.1107 N   0  0  0  0  0  0  0  0  0  0  0  0
    9.8098  -16.7529   25.1637 C   0  0  0  0  0  0  0  0  0  0  0  0
   10.8781  -16.5419   24.4879 O   0  0  0  0  0  0  0  0  0  0  0  0
    9.9225  -13.4871   29.6022 C   0  0  0  0  0  0  0  0  0  0  0  0
   10.1054  -14.8005   28.9275 C   0  0  0  0  0  0  0  0  0  0  0  0
   11.0495  -14.8038   27.7731 C   0  0  2  0  0  0  0  0  0  0  0  0
   10.7685  -13.7565   26.7489 C   0  0  0  0  0  0  0  0  0  0  0  0
   11.1800  -16.1855   27.1982 C   0  0  2  0  0  0  0  0  0  0  0  0
    9.9148  -16.5308   26.5424 N   0  0  0  0  0  0  0  0  0  0  0  0
   11.6570  -17.1914   28.1440 C   0  0  0  0  0  0  0  0  0  0  0  0
   12.9445  -17.2574   28.6479 O   0  0  0  0  0  0  0  0  0  0  0  0
   10.8682  -18.0866   28.5596 O   0  0  0  0  0  0  0  0  0  0  0  0
  2  1  1  6
  2 13  1  0
  3  2  1  0
  3  4  1  0
  4  5  2  0
  4 12  1  0
  5  6  1  0
  6  7  1  0
  7  8  2  0
  9  8  1  0
 10  9  2  0
 11 12  2  0
 11 10  1  0
 12  7  1  0
 13 14  2  0
 16 15  1  6
 16 18  1  0
 17 16  1  0
 19 13  1  0
 18 19  1  6
 20 18  1  0
 20 21  2  0
 22 23  1  0
 23 24  1  0
 24 25  1  6
 24 26  1  0
 26 28  1  0
 26 27  1  1
 27 20  1  0
 28 30  2  0
 28 29  1  0
M  END
$$$$
