WTI.pdb
     RDKit          3D

 30 31  0  0  1  0  0  0  0  0999 V2000
    6.7955  -17.0222   21.2743 N   0  0  0  0  0  0  0  0  0  0  0  0
    7.9759  -16.4278   21.8392 C   0  0  1  0  0  0  0  0  0  0  0  0
    7.8148  -14.9503   22.1110 C   0  0  0  0  0  0  0  0  0  0  0  0
    7.4732  -14.1366   20.9558 C   0  0  0  0  0  0  0  0  0  0  0  0
    6.3830  -13.3178   20.8233 C   0  0  0  0  0  0  0  0  0  0  0  0
    6.4024  -12.7538   19.6143 N   0  0  0  0  0  0  0  0  0  0  0  0
    7.4755  -13.1738   18.9378 C   0  0  0  0  0  0  0  0  0  0  0  0
    7.9255  -12.8641   17.6505 C   0  0  0  0  0  0  0  0  0  0  0  0
    9.0880  -13.4496   17.2073 C   0  0  0  0  0  0  0  0  0  0  0  0
    9.7969  -14.3163   17.9975 C   0  0  0  0  0  0  0  0  0  0  0  0
    9.3236  -14.6010   19.2655 C   0  0  0  0  0  0  0  0  0  0  0  0
    8.1538  -14.0401   19.7683 C   0  0  0  0  0  0  0  0  0  0  0  0
    8.4602  -17.1291   23.0334 C   0  0  0  0  0  0  0  0  0  0  0  0
    7.6273  -17.3538   23.9730 O   0  0  0  0  0  0  0  0  0  0  0  0
   11.2742  -19.9614   23.3964 C   0  0  0  0  0  0  0  0  0  0  0  0
   11.5466  -18.8528   24.3955 C   0  0  1  0  0  0  0  0  0  0  0  0
   12.5295  -18.0345   23.8438 O   0  0  0  0  0  0  0  0  0  0  0  0
   10.2763  -18.0236   24.5485 C   0  0  2  0  0  0  0  0  0  0  0  0
    9.7770  -17.5975   23.2616 N   0  0  0  0  0  0  0  0  0  0  0  0
   10.4751  -16.9030   25.4850 C   0  0  0  0  0  0  0  0  0  0  0  0
   11.1677  -15.9117   25.0605 O   0  0  0  0  0  0  0  0  0  0  0  0
    7.9653  -13.1297   27.1594 C   0  0  0  0  0  0  0  0  0  0  0  0
    9.0711  -14.0992   26.9339 C   0  0  0  0  0  0  0  0  0  0  0  0
    9.5249  -14.8483   28.1408 C   0  0  2  0  0  0  0  0  0  0  0  0
    9.9112  -13.9806   29.2910 C   0  0  0  0  0  0  0  0  0  0  0  0
   10.5728  -15.8604   27.7745 C   0  0  2  0  0  0  0  0  0  0  0  0
    9.9943  -16.7857   26.7951 N   0  0  0  0  0  0  0  0  0  0  0  0
   11.2046  -16.5170   28.9163 C   0  0  0  0  0  0  0  0  0  0  0  0
   11.0922  -17.8634   29.2176 O   0  0  0  0  0  0  0  0  0  0  0  0
   11.9160  -15.8430   29.7138 O   0  0  0  0  0  0  0  0  0  0  0  0
  2  1  1  1
  2 13  1  0
  3  2  1  0
  3  4  1  0
  4  5  2  0
  4 12  1  0
  5  6  1  0
  6  7  1  0
  7  8  2  0
  9  8  1  0
 10  9  2  0
 11 12  2  0
 11 10  1  0
 12  7  1  0
 13 14  2  0
 16 15  1  6
 16 18  1  0
 17 16  1  0
 19 13  1  0
 18 19  1  6
 20 18  1  0
 20 21  2  0
 22 23  1  0
 23 24  1  0
 24 25  1  1
 24 26  1  0
 26 28  1  0
 26 27  1  6
 27 20  1  0
 28 30  2  0
 28 29  1  0
M  END
$$$$
