WTI.pdb
     RDKit          3D

 30 31  0  0  1  0  0  0  0  0999 V2000
    5.9759  -17.0600   24.5399 N   0  0  0  0  0  0  0  0  0  0  0  0
    7.2163  -16.3640   24.3333 C   0  0  1  0  0  0  0  0  0  0  0  0
    7.5886  -15.4732   25.4956 C   0  0  0  0  0  0  0  0  0  0  0  0
    6.6571  -14.3935   25.7780 C   0  0  0  0  0  0  0  0  0  0  0  0
    5.4212  -14.5076   26.3578 C   0  0  0  0  0  0  0  0  0  0  0  0
    4.8583  -13.3002   26.4318 N   0  0  0  0  0  0  0  0  0  0  0  0
    5.6850  -12.3848   25.9178 C   0  0  0  0  0  0  0  0  0  0  0  0
    5.5454  -11.0004   25.7781 C   0  0  0  0  0  0  0  0  0  0  0  0
    6.5788  -10.2947   25.2083 C   0  0  0  0  0  0  0  0  0  0  0  0
    7.7218  -10.9205   24.7841 C   0  0  0  0  0  0  0  0  0  0  0  0
    7.8271  -12.2910   24.9370 C   0  0  0  0  0  0  0  0  0  0  0  0
    6.8150  -13.0580   25.5054 C   0  0  0  0  0  0  0  0  0  0  0  0
    8.3270  -17.2558   23.9818 C   0  0  0  0  0  0  0  0  0  0  0  0
    8.4748  -18.3232   24.6642 O   0  0  0  0  0  0  0  0  0  0  0  0
   10.3698  -17.9438   20.5735 C   0  0  0  0  0  0  0  0  0  0  0  0
   11.3085  -17.3883   21.6278 C   0  0  1  0  0  0  0  0  0  0  0  0
   11.4645  -16.0294   21.3645 O   0  0  0  0  0  0  0  0  0  0  0  0
   10.6364  -17.5290   22.9892 C   0  0  2  0  0  0  0  0  0  0  0  0
    9.2707  -17.0605   22.9442 N   0  0  0  0  0  0  0  0  0  0  0  0
   11.4292  -16.8817   24.0497 C   0  0  0  0  0  0  0  0  0  0  0  0
   11.8754  -15.7063   23.8011 O   0  0  0  0  0  0  0  0  0  0  0  0
   10.3587  -16.6302   29.2989 C   0  0  0  0  0  0  0  0  0  0  0  0
   11.0776  -17.1170   28.0907 C   0  0  0  0  0  0  0  0  0  0  0  0
   11.8149  -16.0757   27.3186 C   0  0  2  0  0  0  0  0  0  0  0  0
   10.9594  -14.9566   26.8280 C   0  0  0  0  0  0  0  0  0  0  0  0
   12.6528  -16.7063   26.2430 C   0  0  2  0  0  0  0  0  0  0  0  0
   11.7573  -17.3972   25.3098 N   0  0  0  0  0  0  0  0  0  0  0  0
   13.7517  -17.5315   26.7384 C   0  0  0  0  0  0  0  0  0  0  0  0
   14.8286  -17.0606   27.4696 O   0  0  0  0  0  0  0  0  0  0  0  0
   13.7593  -18.7732   26.5052 O   0  0  0  0  0  0  0  0  0  0  0  0
  2  1  1  1
  2 13  1  0
  3  2  1  0
  3  4  1  0
  4  5  2  0
  4 12  1  0
  5  6  1  0
  6  7  1  0
  7  8  2  0
  9  8  1  0
 10  9  2  0
 11 12  2  0
 11 10  1  0
 12  7  1  0
 13 14  2  0
 16 15  1  6
 16 18  1  0
 17 16  1  0
 19 13  1  0
 18 19  1  6
 20 18  1  0
 20 21  2  0
 22 23  1  0
 23 24  1  0
 24 25  1  6
 24 26  1  0
 26 28  1  0
 26 27  1  1
 27 20  1  0
 28 30  2  0
 28 29  1  0
M  END
$$$$
