WTI.pdb
     RDKit          3D

 30 31  0  0  1  0  0  0  0  0999 V2000
    6.2568  -17.2930   22.6894 N   0  0  0  0  0  0  0  0  0  0  0  0
    7.3000  -16.6216   23.4152 C   0  0  1  0  0  0  0  0  0  0  0  0
    7.0244  -16.5435   24.8987 C   0  0  0  0  0  0  0  0  0  0  0  0
    6.2723  -15.3780   25.3335 C   0  0  0  0  0  0  0  0  0  0  0  0
    5.0112  -15.3689   25.8684 C   0  0  0  0  0  0  0  0  0  0  0  0
    4.6520  -14.1094   26.1235 N   0  0  0  0  0  0  0  0  0  0  0  0
    5.6391  -13.2793   25.7738 C   0  0  0  0  0  0  0  0  0  0  0  0
    5.7353  -11.8864   25.8525 C   0  0  0  0  0  0  0  0  0  0  0  0
    6.8938  -11.2869   25.4179 C   0  0  0  0  0  0  0  0  0  0  0  0
    7.9351  -12.0245   24.9181 C   0  0  0  0  0  0  0  0  0  0  0  0
    7.8068  -13.4001   24.8541 C   0  0  0  0  0  0  0  0  0  0  0  0
    6.6592  -14.0627   25.2781 C   0  0  0  0  0  0  0  0  0  0  0  0
    8.6323  -17.1802   23.1598 C   0  0  0  0  0  0  0  0  0  0  0  0
    8.7905  -17.8936   22.1143 O   0  0  0  0  0  0  0  0  0  0  0  0
   10.3842  -17.6519   21.2859 C   0  0  0  0  0  0  0  0  0  0  0  0
   11.4981  -17.2237   22.2225 C   0  0  1  0  0  0  0  0  0  0  0  0
   11.6047  -15.8381   22.1280 O   0  0  0  0  0  0  0  0  0  0  0  0
   11.0828  -17.5669   23.6488 C   0  0  2  0  0  0  0  0  0  0  0  0
    9.7877  -17.0082   23.9605 N   0  0  0  0  0  0  0  0  0  0  0  0
   12.1221  -17.1794   24.6194 C   0  0  0  0  0  0  0  0  0  0  0  0
   12.8717  -16.1905   24.2988 O   0  0  0  0  0  0  0  0  0  0  0  0
   10.0810  -15.6604   28.8963 C   0  0  0  0  0  0  0  0  0  0  0  0
   10.8780  -16.5632   28.0226 C   0  0  0  0  0  0  0  0  0  0  0  0
   12.1100  -15.9642   27.4334 C   0  0  2  0  0  0  0  0  0  0  0  0
   11.8499  -14.9057   26.4151 C   0  0  0  0  0  0  0  0  0  0  0  0
   13.0466  -17.0377   26.9569 C   0  0  2  0  0  0  0  0  0  0  0  0
   12.3937  -17.7636   25.8628 N   0  0  0  0  0  0  0  0  0  0  0  0
   13.5700  -17.8972   28.0158 C   0  0  0  0  0  0  0  0  0  0  0  0
   14.3925  -17.4740   29.0455 O   0  0  0  0  0  0  0  0  0  0  0  0
   13.2742  -19.1255   28.0314 O   0  0  0  0  0  0  0  0  0  0  0  0
  2  1  1  6
  2 13  1  0
  3  2  1  0
  3  4  1  0
  4  5  2  0
  4 12  1  0
  5  6  1  0
  6  7  1  0
  7  8  2  0
  9  8  1  0
 10  9  2  0
 11 12  2  0
 11 10  1  0
 12  7  1  0
 13 14  2  0
 16 15  1  6
 16 18  1  0
 17 16  1  0
 19 13  1  0
 18 19  1  1
 20 18  1  0
 20 21  2  0
 22 23  1  0
 23 24  1  0
 24 25  1  6
 24 26  1  0
 26 28  1  0
 26 27  1  6
 27 20  1  0
 28 30  2  0
 28 29  1  0
M  END
$$$$
