WTI.pdb
     RDKit          3D

 30 31  0  0  1  0  0  0  0  0999 V2000
    6.7724  -17.4599   20.2091 N   0  0  0  0  0  0  0  0  0  0  0  0
    7.3999  -16.5719   21.1490 C   0  0  1  0  0  0  0  0  0  0  0  0
    6.7028  -15.2349   21.2466 C   0  0  0  0  0  0  0  0  0  0  0  0
    7.3750  -14.2386   22.0644 C   0  0  0  0  0  0  0  0  0  0  0  0
    8.4104  -13.4272   21.6823 C   0  0  0  0  0  0  0  0  0  0  0  0
    8.7713  -12.6615   22.7136 N   0  0  0  0  0  0  0  0  0  0  0  0
    8.0047  -12.9399   23.7721 C   0  0  0  0  0  0  0  0  0  0  0  0
    7.9972  -12.4039   25.0637 C   0  0  0  0  0  0  0  0  0  0  0  0
    7.0758  -12.8843   25.9641 C   0  0  0  0  0  0  0  0  0  0  0  0
    6.1819  -13.8634   25.6168 C   0  0  0  0  0  0  0  0  0  0  0  0
    6.2167  -14.3718   24.3310 C   0  0  0  0  0  0  0  0  0  0  0  0
    7.1262  -13.9260   23.3771 C   0  0  0  0  0  0  0  0  0  0  0  0
    7.5750  -17.1681   22.4780 C   0  0  0  0  0  0  0  0  0  0  0  0
    6.7122  -18.0231   22.8675 O   0  0  0  0  0  0  0  0  0  0  0  0
    7.9799  -19.6659   23.4273 C   0  0  0  0  0  0  0  0  0  0  0  0
    9.1651  -19.1383   24.2134 C   0  0  1  0  0  0  0  0  0  0  0  0
   10.2682  -19.1678   23.3634 O   0  0  0  0  0  0  0  0  0  0  0  0
    8.8898  -17.6830   24.5756 C   0  0  2  0  0  0  0  0  0  0  0  0
    8.6202  -16.8967   23.3942 N   0  0  0  0  0  0  0  0  0  0  0  0
    9.9722  -17.1207   25.4029 C   0  0  0  0  0  0  0  0  0  0  0  0
   11.0486  -16.7839   24.7942 O   0  0  0  0  0  0  0  0  0  0  0  0
    9.3333  -14.0273   29.9399 C   0  0  0  0  0  0  0  0  0  0  0  0
    9.7165  -15.2525   29.1879 C   0  0  0  0  0  0  0  0  0  0  0  0
   10.7393  -15.0576   28.1203 C   0  0  2  0  0  0  0  0  0  0  0  0
   10.3822  -14.0175   27.1125 C   0  0  0  0  0  0  0  0  0  0  0  0
   11.1284  -16.3745   27.5112 C   0  0  2  0  0  0  0  0  0  0  0  0
    9.9693  -16.9051   26.7866 N   0  0  0  0  0  0  0  0  0  0  0  0
   11.7313  -17.3194   28.4480 C   0  0  0  0  0  0  0  0  0  0  0  0
   12.9502  -17.1404   29.0792 O   0  0  0  0  0  0  0  0  0  0  0  0
   11.1289  -18.3930   28.7322 O   0  0  0  0  0  0  0  0  0  0  0  0
  2  1  1  6
  2 13  1  0
  3  2  1  0
  3  4  1  0
  4  5  2  0
  4 12  1  0
  5  6  1  0
  6  7  1  0
  7  8  2  0
  9  8  1  0
 10  9  2  0
 11 12  2  0
 11 10  1  0
 12  7  1  0
 13 14  2  0
 16 15  1  6
 16 18  1  0
 17 16  1  0
 19 13  1  0
 18 19  1  6
 20 18  1  0
 20 21  2  0
 22 23  1  0
 23 24  1  0
 24 25  1  6
 24 26  1  0
 26 28  1  0
 26 27  1  1
 27 20  1  0
 28 30  2  0
 28 29  1  0
M  END
$$$$
