WTI.pdb
     RDKit          3D

 30 31  0  0  1  0  0  0  0  0999 V2000
    6.0519  -17.1902   24.2180 N   0  0  0  0  0  0  0  0  0  0  0  0
    7.3382  -16.5628   24.0858 C   0  0  1  0  0  0  0  0  0  0  0  0
    7.7551  -15.8140   25.3302 C   0  0  0  0  0  0  0  0  0  0  0  0
    6.8844  -14.7172   25.7200 C   0  0  0  0  0  0  0  0  0  0  0  0
    5.6282  -14.8188   26.2571 C   0  0  0  0  0  0  0  0  0  0  0  0
    5.1388  -13.5947   26.4627 N   0  0  0  0  0  0  0  0  0  0  0  0
    6.0342  -12.6805   26.0779 C   0  0  0  0  0  0  0  0  0  0  0  0
    5.9839  -11.2831   26.1009 C   0  0  0  0  0  0  0  0  0  0  0  0
    7.0741  -10.5834   25.6400 C   0  0  0  0  0  0  0  0  0  0  0  0
    8.1878  -11.2273   25.1676 C   0  0  0  0  0  0  0  0  0  0  0  0
    8.2043  -12.6102   25.1586 C   0  0  0  0  0  0  0  0  0  0  0  0
    7.1316  -13.3719   25.6113 C   0  0  0  0  0  0  0  0  0  0  0  0
    8.3911  -17.4898   23.6563 C   0  0  0  0  0  0  0  0  0  0  0  0
    8.3104  -18.7039   24.0389 O   0  0  0  0  0  0  0  0  0  0  0  0
   10.9599  -17.9888   20.6700 C   0  0  0  0  0  0  0  0  0  0  0  0
   11.7350  -17.4811   21.8712 C   0  0  1  0  0  0  0  0  0  0  0  0
   11.9622  -16.1217   21.6691 O   0  0  0  0  0  0  0  0  0  0  0  0
   10.8552  -17.6318   23.1072 C   0  0  2  0  0  0  0  0  0  0  0  0
    9.5086  -17.1802   22.8435 N   0  0  0  0  0  0  0  0  0  0  0  0
   11.4596  -16.9760   24.2807 C   0  0  0  0  0  0  0  0  0  0  0  0
   11.8353  -15.7596   24.1325 O   0  0  0  0  0  0  0  0  0  0  0  0
   10.1389  -15.8966   29.2769 C   0  0  0  0  0  0  0  0  0  0  0  0
   10.2935  -16.3206   27.8591 C   0  0  0  0  0  0  0  0  0  0  0  0
   11.4514  -15.7243   27.1327 C   0  0  2  0  0  0  0  0  0  0  0  0
   11.0730  -14.7214   26.0953 C   0  0  0  0  0  0  0  0  0  0  0  0
   12.3682  -16.7990   26.6219 C   0  0  2  0  0  0  0  0  0  0  0  0
   11.6749  -17.5229   25.5517 N   0  0  0  0  0  0  0  0  0  0  0  0
   12.9279  -17.6603   27.6606 C   0  0  0  0  0  0  0  0  0  0  0  0
   12.8040  -19.0384   27.6986 O   0  0  0  0  0  0  0  0  0  0  0  0
   13.5818  -17.1507   28.6141 O   0  0  0  0  0  0  0  0  0  0  0  0
  2  1  1  1
  2 13  1  0
  3  2  1  0
  3  4  1  0
  4  5  2  0
  4 12  1  0
  5  6  1  0
  6  7  1  0
  7  8  2  0
  9  8  1  0
 10  9  2  0
 11 12  2  0
 11 10  1  0
 12  7  1  0
 13 14  2  0
 16 15  1  6
 16 18  1  0
 17 16  1  0
 19 13  1  0
 18 19  1  6
 20 18  1  0
 20 21  2  0
 22 23  1  0
 23 24  1  0
 24 25  1  6
 24 26  1  0
 26 28  1  0
 26 27  1  6
 27 20  1  0
 28 30  2  0
 28 29  1  0
M  END
$$$$
