WTI.pdb
     RDKit          3D

 30 31  0  0  1  0  0  0  0  0999 V2000
    6.1988  -17.1193   23.9391 N   0  0  0  0  0  0  0  0  0  0  0  0
    7.5071  -16.5277   24.0034 C   0  0  1  0  0  0  0  0  0  0  0  0
    7.7810  -15.8548   25.3281 C   0  0  0  0  0  0  0  0  0  0  0  0
    6.8175  -14.8411   25.7245 C   0  0  0  0  0  0  0  0  0  0  0  0
    5.5889  -15.0549   26.2916 C   0  0  0  0  0  0  0  0  0  0  0  0
    4.9886  -13.8806   26.4934 N   0  0  0  0  0  0  0  0  0  0  0  0
    5.7832  -12.8903   26.0768 C   0  0  0  0  0  0  0  0  0  0  0  0
    5.5993  -11.5040   26.0839 C   0  0  0  0  0  0  0  0  0  0  0  0
    6.6068  -10.7097   25.5894 C   0  0  0  0  0  0  0  0  0  0  0  0
    7.7667  -11.2506   25.0994 C   0  0  0  0  0  0  0  0  0  0  0  0
    7.9161  -12.6255   25.1070 C   0  0  0  0  0  0  0  0  0  0  0  0
    6.9317  -13.4800   25.5936 C   0  0  0  0  0  0  0  0  0  0  0  0
    8.5821  -17.4658   23.6616 C   0  0  0  0  0  0  0  0  0  0  0  0
    8.4248  -18.6931   23.9715 O   0  0  0  0  0  0  0  0  0  0  0  0
   11.2220  -18.2284   20.8702 C   0  0  0  0  0  0  0  0  0  0  0  0
   11.9892  -17.7376   22.0834 C   0  0  1  0  0  0  0  0  0  0  0  0
   12.3114  -16.4021   21.8535 O   0  0  0  0  0  0  0  0  0  0  0  0
   11.0616  -17.7958   23.2921 C   0  0  2  0  0  0  0  0  0  0  0  0
    9.7992  -17.1536   23.0084 N   0  0  0  0  0  0  0  0  0  0  0  0
   11.7172  -17.2615   24.4992 C   0  0  0  0  0  0  0  0  0  0  0  0
   12.2991  -16.1253   24.3852 O   0  0  0  0  0  0  0  0  0  0  0  0
   10.4623  -15.0517   28.9780 C   0  0  0  0  0  0  0  0  0  0  0  0
   10.7473  -16.1020   27.9635 C   0  0  0  0  0  0  0  0  0  0  0  0
   12.0364  -15.9526   27.2287 C   0  0  2  0  0  0  0  0  0  0  0  0
   11.9830  -14.9947   26.0866 C   0  0  0  0  0  0  0  0  0  0  0  0
   12.5952  -17.2969   26.8585 C   0  0  2  0  0  0  0  0  0  0  0  0
   11.7823  -17.8475   25.7694 N   0  0  0  0  0  0  0  0  0  0  0  0
   12.7784  -18.2070   27.9864 C   0  0  0  0  0  0  0  0  0  0  0  0
   12.0734  -19.3828   28.1781 O   0  0  0  0  0  0  0  0  0  0  0  0
   13.6343  -17.9397   28.8765 O   0  0  0  0  0  0  0  0  0  0  0  0
  2  1  1  1
  2 13  1  0
  3  2  1  0
  3  4  1  0
  4  5  2  0
  4 12  1  0
  5  6  1  0
  6  7  1  0
  7  8  2  0
  9  8  1  0
 10  9  2  0
 11 12  2  0
 11 10  1  0
 12  7  1  0
 13 14  2  0
 16 15  1  6
 16 18  1  0
 17 16  1  0
 19 13  1  0
 18 19  1  6
 20 18  1  0
 20 21  2  0
 22 23  1  0
 23 24  1  0
 24 25  1  6
 24 26  1  0
 26 28  1  0
 26 27  1  6
 27 20  1  0
 28 30  2  0
 28 29  1  0
M  END
$$$$
