WTI.pdb
     RDKit          3D

 30 31  0  0  1  0  0  0  0  0999 V2000
    7.8295  -17.6831   20.3459 N   0  0  0  0  0  0  0  0  0  0  0  0
    8.3348  -16.8089   21.3686 C   0  0  1  0  0  0  0  0  0  0  0  0
    7.4442  -15.6122   21.6087 C   0  0  0  0  0  0  0  0  0  0  0  0
    7.4333  -14.6191   20.5473 C   0  0  0  0  0  0  0  0  0  0  0  0
    6.3698  -14.2789   19.7536 C   0  0  0  0  0  0  0  0  0  0  0  0
    6.7538  -13.3439   18.8827 N   0  0  0  0  0  0  0  0  0  0  0  0
    8.0435  -13.0513   19.0744 C   0  0  0  0  0  0  0  0  0  0  0  0
    8.8834  -12.1434   18.4217 C   0  0  0  0  0  0  0  0  0  0  0  0
   10.1890  -12.0448   18.8413 C   0  0  0  0  0  0  0  0  0  0  0  0
   10.6674  -12.8113   19.8718 C   0  0  0  0  0  0  0  0  0  0  0  0
    9.8100  -13.6994   20.4954 C   0  0  0  0  0  0  0  0  0  0  0  0
    8.4795  -13.8437   20.1147 C   0  0  0  0  0  0  0  0  0  0  0  0
    8.6286  -17.5026   22.6276 C   0  0  0  0  0  0  0  0  0  0  0  0
    8.0938  -18.6446   22.8191 O   0  0  0  0  0  0  0  0  0  0  0  0
    9.4074  -19.8271   23.4862 C   0  0  0  0  0  0  0  0  0  0  0  0
   10.3690  -19.1704   24.4584 C   0  0  1  0  0  0  0  0  0  0  0  0
   11.5642  -18.9591   23.7750 O   0  0  0  0  0  0  0  0  0  0  0  0
    9.8025  -17.8089   24.8461 C   0  0  2  0  0  0  0  0  0  0  0  0
    9.4611  -17.0365   23.6741 N   0  0  0  0  0  0  0  0  0  0  0  0
   10.7073  -17.0909   25.7615 C   0  0  0  0  0  0  0  0  0  0  0  0
   11.4394  -16.1731   25.2475 O   0  0  0  0  0  0  0  0  0  0  0  0
    9.4874  -13.0930   26.5154 C   0  0  0  0  0  0  0  0  0  0  0  0
   10.3800  -14.2665   26.7147 C   0  0  0  0  0  0  0  0  0  0  0  0
   10.0300  -15.1525   27.8620 C   0  0  2  0  0  0  0  0  0  0  0  0
    9.6468  -14.4225   29.1051 C   0  0  0  0  0  0  0  0  0  0  0  0
   11.0974  -16.1870   28.0787 C   0  0  2  0  0  0  0  0  0  0  0  0
   10.8664  -17.2885   27.1387 N   0  0  0  0  0  0  0  0  0  0  0  0
   11.2562  -16.6102   29.4678 C   0  0  0  0  0  0  0  0  0  0  0  0
   12.2098  -16.1177   30.3419 O   0  0  0  0  0  0  0  0  0  0  0  0
   10.4861  -17.4890   29.9485 O   0  0  0  0  0  0  0  0  0  0  0  0
  2  1  1  6
  2 13  1  0
  3  2  1  0
  3  4  1  0
  4  5  2  0
  4 12  1  0
  5  6  1  0
  6  7  1  0
  7  8  2  0
  9  8  1  0
 10  9  2  0
 11 12  2  0
 11 10  1  0
 12  7  1  0
 13 14  2  0
 16 15  1  6
 16 18  1  0
 17 16  1  0
 19 13  1  0
 18 19  1  6
 20 18  1  0
 20 21  2  0
 22 23  1  0
 23 24  1  0
 24 25  1  1
 24 26  1  0
 26 28  1  0
 26 27  1  6
 27 20  1  0
 28 30  2  0
 28 29  1  0
M  END
$$$$
