WTI.pdb
     RDKit          3D

 30 31  0  0  1  0  0  0  0  0999 V2000
    9.0382  -17.8873   19.9877 N   0  0  0  0  0  0  0  0  0  0  0  0
    9.1279  -16.9952   21.1110 C   0  0  1  0  0  0  0  0  0  0  0  0
    7.8453  -16.2365   21.3602 C   0  0  0  0  0  0  0  0  0  0  0  0
    7.4587  -15.3035   20.3146 C   0  0  0  0  0  0  0  0  0  0  0  0
    6.5946  -15.5444   19.2793 C   0  0  0  0  0  0  0  0  0  0  0  0
    6.5092  -14.4532   18.5162 N   0  0  0  0  0  0  0  0  0  0  0  0
    7.2922  -13.4919   19.0147 C   0  0  0  0  0  0  0  0  0  0  0  0
    7.5311  -12.1858   18.5755 C   0  0  0  0  0  0  0  0  0  0  0  0
    8.3961  -11.4015   19.3015 C   0  0  0  0  0  0  0  0  0  0  0  0
    9.0147  -11.8757   20.4287 C   0  0  0  0  0  0  0  0  0  0  0  0
    8.7563  -13.1722   20.8351 C   0  0  0  0  0  0  0  0  0  0  0  0
    7.8916  -14.0130   20.1413 C   0  0  0  0  0  0  0  0  0  0  0  0
    9.5911  -17.6554   22.3366 C   0  0  0  0  0  0  0  0  0  0  0  0
    8.8562  -18.5702   22.8366 O   0  0  0  0  0  0  0  0  0  0  0  0
   12.5171  -19.1762   25.8525 C   0  0  0  0  0  0  0  0  0  0  0  0
   12.3744  -18.6026   24.4553 C   0  0  1  0  0  0  0  0  0  0  0  0
   12.2864  -19.6792   23.5759 O   0  0  0  0  0  0  0  0  0  0  0  0
   11.0612  -17.8310   24.3864 C   0  0  2  0  0  0  0  0  0  0  0  0
   10.7911  -17.3863   23.0388 N   0  0  0  0  0  0  0  0  0  0  0  0
   11.0307  -16.7326   25.3687 C   0  0  0  0  0  0  0  0  0  0  0  0
   11.5535  -15.6198   25.0069 O   0  0  0  0  0  0  0  0  0  0  0  0
    7.7809  -13.0966   27.4358 C   0  0  0  0  0  0  0  0  0  0  0  0
    8.6209  -14.2483   27.8620 C   0  0  0  0  0  0  0  0  0  0  0  0
    9.8613  -14.4689   27.0641 C   0  0  2  0  0  0  0  0  0  0  0  0
    9.6393  -14.5282   25.5903 C   0  0  0  0  0  0  0  0  0  0  0  0
   10.6372  -15.6377   27.6013 C   0  0  2  0  0  0  0  0  0  0  0  0
   10.4937  -16.7543   26.6619 N   0  0  0  0  0  0  0  0  0  0  0  0
   10.3315  -15.9804   28.9881 C   0  0  0  0  0  0  0  0  0  0  0  0
   10.7068  -15.2317   30.0902 O   0  0  0  0  0  0  0  0  0  0  0  0
    9.6769  -17.0298   29.2460 O   0  0  0  0  0  0  0  0  0  0  0  0
  2  1  1  6
  2 13  1  0
  3  2  1  0
  3  4  1  0
  4  5  2  0
  4 12  1  0
  5  6  1  0
  6  7  1  0
  7  8  2  0
  9  8  1  0
 10  9  2  0
 11 12  2  0
 11 10  1  0
 12  7  1  0
 13 14  2  0
 16 15  1  1
 16 18  1  0
 17 16  1  0
 19 13  1  0
 18 19  1  6
 20 18  1  0
 20 21  2  0
 22 23  1  0
 23 24  1  0
 24 25  1  6
 24 26  1  0
 26 28  1  0
 26 27  1  6
 27 20  1  0
 28 30  2  0
 28 29  1  0
M  END
$$$$
