WTI.pdb
     RDKit          3D

 30 31  0  0  1  0  0  0  0  0999 V2000
    9.1029  -18.6752   19.5685 N   0  0  0  0  0  0  0  0  0  0  0  0
    8.8110  -17.5153   20.3655 C   0  0  1  0  0  0  0  0  0  0  0  0
    7.5936  -16.7630   19.8809 C   0  0  0  0  0  0  0  0  0  0  0  0
    7.8044  -15.3541   19.5918 C   0  0  0  0  0  0  0  0  0  0  0  0
    8.3059  -14.8209   18.4339 C   0  0  0  0  0  0  0  0  0  0  0  0
    8.3693  -13.4935   18.5537 N   0  0  0  0  0  0  0  0  0  0  0  0
    7.9236  -13.1276   19.7591 C   0  0  0  0  0  0  0  0  0  0  0  0
    7.7933  -11.8633   20.3423 C   0  0  0  0  0  0  0  0  0  0  0  0
    7.2893  -11.7826   21.6190 C   0  0  0  0  0  0  0  0  0  0  0  0
    6.9201  -12.9052   22.3129 C   0  0  0  0  0  0  0  0  0  0  0  0
    7.0623  -14.1401   21.7066 C   0  0  0  0  0  0  0  0  0  0  0  0
    7.5667  -14.2846   20.4180 C   0  0  0  0  0  0  0  0  0  0  0  0
    8.7062  -17.8113   21.7986 C   0  0  0  0  0  0  0  0  0  0  0  0
    8.1260  -18.8934   22.1441 O   0  0  0  0  0  0  0  0  0  0  0  0
    9.3373  -19.7231   23.4469 C   0  0  0  0  0  0  0  0  0  0  0  0
    9.8564  -18.7339   24.4731 C   0  0  1  0  0  0  0  0  0  0  0  0
   11.2124  -18.5473   24.2150 O   0  0  0  0  0  0  0  0  0  0  0  0
    9.1487  -17.4012   24.2541 C   0  0  2  0  0  0  0  0  0  0  0  0
    9.1917  -17.0136   22.8632 N   0  0  0  0  0  0  0  0  0  0  0  0
    9.6730  -16.3595   25.1553 C   0  0  0  0  0  0  0  0  0  0  0  0
   10.8023  -15.8405   24.8426 O   0  0  0  0  0  0  0  0  0  0  0  0
    6.8657  -12.4825   26.4204 C   0  0  0  0  0  0  0  0  0  0  0  0
    8.0642  -13.3423   26.2260 C   0  0  0  0  0  0  0  0  0  0  0  0
    8.7543  -13.7747   27.4753 C   0  0  2  0  0  0  0  0  0  0  0  0
    9.3293  -12.6554   28.2763 C   0  0  0  0  0  0  0  0  0  0  0  0
    9.7381  -14.8722   27.1857 C   0  0  2  0  0  0  0  0  0  0  0  0
    9.0825  -15.8600   26.3228 N   0  0  0  0  0  0  0  0  0  0  0  0
   10.3741  -15.4425   28.3708 C   0  0  0  0  0  0  0  0  0  0  0  0
   10.1913  -16.7383   28.8217 O   0  0  0  0  0  0  0  0  0  0  0  0
   11.1576  -14.7349   29.0649 O   0  0  0  0  0  0  0  0  0  0  0  0
  2  1  1  6
  2 13  1  0
  3  2  1  0
  3  4  1  0
  4  5  2  0
  4 12  1  0
  5  6  1  0
  6  7  1  0
  7  8  2  0
  9  8  1  0
 10  9  2  0
 11 12  2  0
 11 10  1  0
 12  7  1  0
 13 14  2  0
 16 15  1  6
 16 18  1  0
 17 16  1  0
 19 13  1  0
 18 19  1  6
 20 18  1  0
 20 21  2  0
 22 23  1  0
 23 24  1  0
 24 25  1  6
 24 26  1  0
 26 28  1  0
 26 27  1  1
 27 20  1  0
 28 30  2  0
 28 29  1  0
M  END
$$$$
