WTI.pdb
     RDKit          3D

 30 31  0  0  1  0  0  0  0  0999 V2000
    6.0455  -16.7575   23.5999 N   0  0  0  0  0  0  0  0  0  0  0  0
    7.3499  -16.1585   23.6742 C   0  0  1  0  0  0  0  0  0  0  0  0
    7.6107  -15.4860   25.0019 C   0  0  0  0  0  0  0  0  0  0  0  0
    6.6644  -14.4464   25.3717 C   0  0  0  0  0  0  0  0  0  0  0  0
    5.4627  -14.6196   26.0062 C   0  0  0  0  0  0  0  0  0  0  0  0
    4.8703  -13.4334   26.1550 N   0  0  0  0  0  0  0  0  0  0  0  0
    5.6441  -12.4747   25.6377 C   0  0  0  0  0  0  0  0  0  0  0  0
    5.4587  -11.0908   25.5596 C   0  0  0  0  0  0  0  0  0  0  0  0
    6.4420  -10.3332   24.9683 C   0  0  0  0  0  0  0  0  0  0  0  0
    7.5797  -10.9077   24.4645 C   0  0  0  0  0  0  0  0  0  0  0  0
    7.7311  -12.2792   24.5580 C   0  0  0  0  0  0  0  0  0  0  0  0
    6.7707  -13.0974   25.1445 C   0  0  0  0  0  0  0  0  0  0  0  0
    8.4326  -17.0899   23.3385 C   0  0  0  0  0  0  0  0  0  0  0  0
    8.2294  -18.3349   23.5269 O   0  0  0  0  0  0  0  0  0  0  0  0
   11.2780  -17.8158   20.7610 C   0  0  0  0  0  0  0  0  0  0  0  0
   11.9493  -17.3413   22.0359 C   0  0  1  0  0  0  0  0  0  0  0  0
   12.2816  -16.0013   21.8514 O   0  0  0  0  0  0  0  0  0  0  0  0
   10.9336  -17.4218   23.1702 C   0  0  2  0  0  0  0  0  0  0  0  0
    9.7040  -16.7528   22.8137 N   0  0  0  0  0  0  0  0  0  0  0  0
   11.5042  -16.9336   24.4385 C   0  0  0  0  0  0  0  0  0  0  0  0
   12.0313  -15.7654   24.4227 O   0  0  0  0  0  0  0  0  0  0  0  0
    9.8369  -14.6707   28.2979 C   0  0  0  0  0  0  0  0  0  0  0  0
   10.7223  -15.3633   27.3231 C   0  0  0  0  0  0  0  0  0  0  0  0
   11.4347  -16.5655   27.8437 C   0  0  2  0  0  0  0  0  0  0  0  0
   12.0894  -16.3637   29.1687 C   0  0  0  0  0  0  0  0  0  0  0  0
   12.3552  -17.1305   26.7997 C   0  0  2  0  0  0  0  0  0  0  0  0
   11.5404  -17.5947   25.6724 N   0  0  0  0  0  0  0  0  0  0  0  0
   13.3018  -18.1235   27.3017 C   0  0  0  0  0  0  0  0  0  0  0  0
   14.5926  -17.8475   27.7185 O   0  0  0  0  0  0  0  0  0  0  0  0
   12.9577  -19.3368   27.3784 O   0  0  0  0  0  0  0  0  0  0  0  0
  2  1  1  1
  2 13  1  0
  3  2  1  0
  3  4  1  0
  4  5  2  0
  4 12  1  0
  5  6  1  0
  6  7  1  0
  7  8  2  0
  9  8  1  0
 10  9  2  0
 11 12  2  0
 11 10  1  0
 12  7  1  0
 13 14  2  0
 16 15  1  6
 16 18  1  0
 17 16  1  0
 19 13  1  0
 18 19  1  6
 20 18  1  0
 20 21  2  0
 22 23  1  0
 23 24  1  0
 24 25  1  1
 24 26  1  0
 26 28  1  0
 26 27  1  6
 27 20  1  0
 28 30  2  0
 28 29  1  0
M  END
$$$$
