VGA.pdb
     RDKit          3D

 17 16  0  0  1  0  0  0  0  0999 V2000
    8.6764  -12.7202   19.2233 C   0  0  0  0  0  0  0  0  0  0  0  0
    8.6041  -13.2634   20.6419 C   0  0  1  0  0  0  0  0  0  0  0  0
    7.3065  -12.8664   21.3157 C   0  0  0  0  0  0  0  0  0  0  0  0
    8.6147  -14.7801   20.5628 C   0  0  2  0  0  0  0  0  0  0  0  0
    7.7398  -15.2817   19.5497 N   0  0  0  0  0  0  0  0  0  0  0  0
    8.2337  -15.3467   21.8690 C   0  0  0  0  0  0  0  0  0  0  0  0
    7.0260  -15.5377   22.2134 O   0  0  0  0  0  0  0  0  0  0  0  0
    9.2250  -15.7120   22.8213 N   0  0  0  0  0  0  0  0  0  0  0  0
    8.8434  -16.2733   24.0996 C   0  0  0  0  0  0  0  0  0  0  0  0
    9.6185  -15.6317   25.1634 C   0  0  0  0  0  0  0  0  0  0  0  0
   10.8541  -15.7580   25.2085 O   0  0  0  0  0  0  0  0  0  0  0  0
    8.8070  -13.3099   28.0110 C   0  0  0  0  0  0  0  0  0  0  0  0
    9.6637  -14.2946   27.2309 C   0  0  2  0  0  0  0  0  0  0  0  0
    8.9255  -14.8668   26.1350 N   0  0  0  0  0  0  0  0  0  0  0  0
   10.1552  -15.3740   28.1160 C   0  0  0  0  0  0  0  0  0  0  0  0
   11.1094  -15.0888   29.0643 O   0  0  0  0  0  0  0  0  0  0  0  0
    9.7273  -16.5559   28.0317 O   0  0  0  0  0  0  0  0  0  0  0  0
  2  1  1  6
  2  3  1  0
  4  2  1  0
  4  5  1  6
  6  8  1  0
  6  4  1  0
  7  6  2  0
  9 10  1  0
  9  8  1  0
 10 11  2  0
 13 12  1  1
 13 15  1  0
 14 13  1  0
 14 10  1  0
 15 17  2  0
 15 16  1  0
M  END
$$$$
