VGA.pdb
     RDKit          3D

 17 16  0  0  1  0  0  0  0  0999 V2000
    8.5292  -13.2048   19.0980 C   0  0  0  0  0  0  0  0  0  0  0  0
    8.4502  -13.4905   20.5896 C   0  0  1  0  0  0  0  0  0  0  0  0
    7.4411  -12.5872   21.2684 C   0  0  0  0  0  0  0  0  0  0  0  0
    7.9567  -14.9159   20.7670 C   0  0  2  0  0  0  0  0  0  0  0  0
    6.8109  -15.2029   19.9619 N   0  0  0  0  0  0  0  0  0  0  0  0
    7.6359  -15.1559   22.1855 C   0  0  0  0  0  0  0  0  0  0  0  0
    6.5334  -14.8094   22.7127 O   0  0  0  0  0  0  0  0  0  0  0  0
    8.5690  -15.8005   23.0440 N   0  0  0  0  0  0  0  0  0  0  0  0
    8.2180  -16.1017   24.4153 C   0  0  0  0  0  0  0  0  0  0  0  0
    9.1613  -15.4364   25.3163 C   0  0  0  0  0  0  0  0  0  0  0  0
   10.3656  -15.3538   25.0207 O   0  0  0  0  0  0  0  0  0  0  0  0
    8.8898  -13.3236   28.3847 C   0  0  0  0  0  0  0  0  0  0  0  0
    9.5935  -14.3047   27.4603 C   0  0  2  0  0  0  0  0  0  0  0  0
    8.6666  -14.8921   26.5280 N   0  0  0  0  0  0  0  0  0  0  0  0
   10.2574  -15.3727   28.2405 C   0  0  0  0  0  0  0  0  0  0  0  0
   11.3548  -15.0652   29.0100 O   0  0  0  0  0  0  0  0  0  0  0  0
    9.8499  -16.5647   28.2253 O   0  0  0  0  0  0  0  0  0  0  0  0
  2  1  1  6
  2  3  1  0
  4  2  1  0
  4  5  1  6
  6  8  1  0
  6  4  1  0
  7  6  2  0
  9 10  1  0
  9  8  1  0
 10 11  2  0
 13 12  1  1
 13 15  1  0
 14 13  1  0
 14 10  1  0
 15 17  2  0
 15 16  1  0
M  END
$$$$
