VGA.pdb
     RDKit          3D

 17 16  0  0  1  0  0  0  0  0999 V2000
    8.3392  -13.0911   18.9969 C   0  0  0  0  0  0  0  0  0  0  0  0
    8.4467  -13.4005   20.4819 C   0  0  1  0  0  0  0  0  0  0  0  0
    7.3979  -12.6493   21.2761 C   0  0  0  0  0  0  0  0  0  0  0  0
    8.1681  -14.8814   20.6722 C   0  0  2  0  0  0  0  0  0  0  0  0
    7.1574  -15.3669   19.7854 N   0  0  0  0  0  0  0  0  0  0  0  0
    7.7638  -15.1339   22.0670 C   0  0  0  0  0  0  0  0  0  0  0  0
    6.5814  -14.9415   22.4891 O   0  0  0  0  0  0  0  0  0  0  0  0
    8.7024  -15.6148   23.0214 N   0  0  0  0  0  0  0  0  0  0  0  0
    8.2972  -15.8637   24.3883 C   0  0  0  0  0  0  0  0  0  0  0  0
    9.3166  -15.3415   25.3006 C   0  0  0  0  0  0  0  0  0  0  0  0
   10.5072  -15.2810   24.9492 O   0  0  0  0  0  0  0  0  0  0  0  0
    9.2735  -13.3659   28.4442 C   0  0  0  0  0  0  0  0  0  0  0  0
    9.8979  -14.3691   27.4871 C   0  0  2  0  0  0  0  0  0  0  0  0
    8.9111  -14.9091   26.5882 N   0  0  0  0  0  0  0  0  0  0  0  0
   10.5446  -15.4706   28.2344 C   0  0  0  0  0  0  0  0  0  0  0  0
   11.6811  -15.2155   28.9655 O   0  0  0  0  0  0  0  0  0  0  0  0
   10.0877  -16.6445   28.2252 O   0  0  0  0  0  0  0  0  0  0  0  0
  2  1  1  6
  2  3  1  0
  4  2  1  0
  4  5  1  6
  6  8  1  0
  6  4  1  0
  7  6  2  0
  9 10  1  0
  9  8  1  0
 10 11  2  0
 13 12  1  1
 13 15  1  0
 14 13  1  0
 14 10  1  0
 15 17  2  0
 15 16  1  0
M  END
$$$$
