VGA.pdb
     RDKit          3D

 17 16  0  0  1  0  0  0  0  0999 V2000
    7.5893  -12.6657   20.5365 C   0  0  0  0  0  0  0  0  0  0  0  0
    8.2400  -13.3625   21.7213 C   0  0  1  0  0  0  0  0  0  0  0  0
    7.4496  -13.1344   22.9934 C   0  0  0  0  0  0  0  0  0  0  0  0
    8.2220  -14.8571   21.4522 C   0  0  2  0  0  0  0  0  0  0  0  0
    6.9168  -15.3388   21.1237 N   0  0  0  0  0  0  0  0  0  0  0  0
    8.7322  -15.5788   22.6317 C   0  0  0  0  0  0  0  0  0  0  0  0
    7.9882  -16.2727   23.3922 O   0  0  0  0  0  0  0  0  0  0  0  0
   10.1112  -15.5276   22.9764 N   0  0  0  0  0  0  0  0  0  0  0  0
   10.6611  -16.4539   23.9430 C   0  0  0  0  0  0  0  0  0  0  0  0
   10.8000  -15.7817   25.2364 C   0  0  0  0  0  0  0  0  0  0  0  0
   11.7142  -16.0970   26.0171 O   0  0  0  0  0  0  0  0  0  0  0  0
    8.9623  -12.9909   26.9797 C   0  0  0  0  0  0  0  0  0  0  0  0
    9.9678  -14.1249   26.8573 C   0  0  2  0  0  0  0  0  0  0  0  0
    9.8687  -14.7672   25.5724 N   0  0  0  0  0  0  0  0  0  0  0  0
    9.7608  -15.1240   27.9293 C   0  0  0  0  0  0  0  0  0  0  0  0
   10.2511  -14.8748   29.1897 O   0  0  0  0  0  0  0  0  0  0  0  0
    9.1458  -16.2048   27.7274 O   0  0  0  0  0  0  0  0  0  0  0  0
  2  1  1  6
  2  3  1  0
  4  2  1  0
  4  5  1  1
  6  8  1  0
  6  4  1  0
  7  6  2  0
  9 10  1  0
  9  8  1  0
 10 11  2  0
 13 12  1  6
 13 15  1  0
 14 13  1  0
 14 10  1  0
 15 17  2  0
 15 16  1  0
M  END
$$$$
