VGA.pdb
     RDKit          3D

 17 16  0  0  1  0  0  0  0  0999 V2000
    7.7001  -12.4160   20.1928 C   0  0  0  0  0  0  0  0  0  0  0  0
    7.7114  -13.8695   19.7459 C   0  0  1  0  0  0  0  0  0  0  0  0
    8.2385  -14.0045   18.3320 C   0  0  0  0  0  0  0  0  0  0  0  0
    8.6686  -14.6286   20.6484 C   0  0  2  0  0  0  0  0  0  0  0  0
    8.6742  -16.0332   20.3827 N   0  0  0  0  0  0  0  0  0  0  0  0
    8.3101  -14.3943   22.0588 C   0  0  0  0  0  0  0  0  0  0  0  0
    8.3854  -13.2525   22.6102 O   0  0  0  0  0  0  0  0  0  0  0  0
    7.8542  -15.4616   22.8811 N   0  0  0  0  0  0  0  0  0  0  0  0
    7.5004  -15.2230   24.2640 C   0  0  0  0  0  0  0  0  0  0  0  0
    8.7187  -15.0093   25.0478 C   0  0  0  0  0  0  0  0  0  0  0  0
    9.8375  -15.1935   24.5389 O   0  0  0  0  0  0  0  0  0  0  0  0
    9.4868  -13.1448   28.1458 C   0  0  0  0  0  0  0  0  0  0  0  0
    9.7732  -14.2476   27.1388 C   0  0  2  0  0  0  0  0  0  0  0  0
    8.5883  -14.5890   26.3953 N   0  0  0  0  0  0  0  0  0  0  0  0
   10.2970  -15.4528   27.8194 C   0  0  0  0  0  0  0  0  0  0  0  0
   11.5182  -15.3965   28.4493 O   0  0  0  0  0  0  0  0  0  0  0  0
    9.6589  -16.5388   27.8432 O   0  0  0  0  0  0  0  0  0  0  0  0
  2  1  1  1
  2  3  1  0
  4  2  1  0
  4  5  1  6
  6  8  1  0
  6  4  1  0
  7  6  2  0
  9 10  1  0
  9  8  1  0
 10 11  2  0
 13 12  1  1
 13 15  1  0
 14 13  1  0
 14 10  1  0
 15 17  2  0
 15 16  1  0
M  END
$$$$
