VGA.pdb
     RDKit          3D

 17 16  0  0  1  0  0  0  0  0999 V2000
    7.4254  -13.3277   21.3513 C   0  0  0  0  0  0  0  0  0  0  0  0
    7.7500  -13.5520   19.8826 C   0  0  1  0  0  0  0  0  0  0  0  0
    7.8351  -12.2384   19.1328 C   0  0  0  0  0  0  0  0  0  0  0  0
    9.1226  -14.1971   19.8005 C   0  0  2  0  0  0  0  0  0  0  0  0
    9.5934  -14.3136   18.4558 N   0  0  0  0  0  0  0  0  0  0  0  0
    9.0810  -15.5309   20.4264 C   0  0  0  0  0  0  0  0  0  0  0  0
    8.9131  -16.6006   19.7623 O   0  0  0  0  0  0  0  0  0  0  0  0
    9.2307  -15.6801   21.8329 N   0  0  0  0  0  0  0  0  0  0  0  0
    9.2121  -16.9950   22.4376 C   0  0  0  0  0  0  0  0  0  0  0  0
   10.5869  -17.4585   22.6360 C   0  0  0  0  0  0  0  0  0  0  0  0
   10.8259  -18.6633   22.8260 O   0  0  0  0  0  0  0  0  0  0  0  0
   13.9256  -15.9915   21.9451 C   0  0  0  0  0  0  0  0  0  0  0  0
   12.9972  -16.9550   22.6675 C   0  0  2  0  0  0  0  0  0  0  0  0
   11.6320  -16.5014   22.6058 N   0  0  0  0  0  0  0  0  0  0  0  0
   13.4052  -17.1115   24.0814 C   0  0  0  0  0  0  0  0  0  0  0  0
   12.5244  -16.7704   25.0809 O   0  0  0  0  0  0  0  0  0  0  0  0
   14.5407  -17.5501   24.4060 O   0  0  0  0  0  0  0  0  0  0  0  0
  2  1  1  1
  2  3  1  0
  4  2  1  0
  4  5  1  6
  6  8  1  0
  6  4  1  0
  7  6  2  0
  9 10  1  0
  9  8  1  0
 10 11  2  0
 13 12  1  1
 13 15  1  0
 14 13  1  0
 14 10  1  0
 15 17  2  0
 15 16  1  0
M  END
$$$$
