VGA.pdb
     RDKit          3D

 17 16  0  0  1  0  0  0  0  0999 V2000
    5.4296  -11.5991   26.2896 C   0  0  0  0  0  0  0  0  0  0  0  0
    6.7796  -12.1936   25.9199 C   0  0  1  0  0  0  0  0  0  0  0  0
    7.5844  -12.5382   27.1563 C   0  0  0  0  0  0  0  0  0  0  0  0
    6.5298  -13.4955   25.1785 C   0  0  2  0  0  0  0  0  0  0  0  0
    5.9170  -14.4877   26.0053 N   0  0  0  0  0  0  0  0  0  0  0  0
    7.8025  -14.0140   24.6458 C   0  0  0  0  0  0  0  0  0  0  0  0
    8.6030  -13.3068   23.9584 O   0  0  0  0  0  0  0  0  0  0  0  0
    8.1973  -15.3595   24.8844 N   0  0  0  0  0  0  0  0  0  0  0  0
    9.4552  -15.8574   24.3700 C   0  0  0  0  0  0  0  0  0  0  0  0
   10.4288  -15.9382   25.4607 C   0  0  0  0  0  0  0  0  0  0  0  0
   11.5788  -16.3604   25.2508 O   0  0  0  0  0  0  0  0  0  0  0  0
   10.8863  -14.3488   28.7142 C   0  0  0  0  0  0  0  0  0  0  0  0
   10.9766  -15.5866   27.8358 C   0  0  2  0  0  0  0  0  0  0  0  0
   10.0267  -15.5241   26.7554 N   0  0  0  0  0  0  0  0  0  0  0  0
   10.7417  -16.8109   28.6333 C   0  0  0  0  0  0  0  0  0  0  0  0
   11.5573  -17.0858   29.7059 O   0  0  0  0  0  0  0  0  0  0  0  0
    9.8131  -17.6181   28.3630 O   0  0  0  0  0  0  0  0  0  0  0  0
  2  1  1  1
  2  3  1  0
  4  2  1  0
  4  5  1  1
  6  8  1  0
  6  4  1  0
  7  6  2  0
  9 10  1  0
  9  8  1  0
 10 11  2  0
 13 12  1  1
 13 15  1  0
 14 13  1  0
 14 10  1  0
 15 17  2  0
 15 16  1  0
M  END
$$$$
