VGA.pdb
     RDKit          3D

 17 16  0  0  1  0  0  0  0  0999 V2000
    5.2555  -11.4484   25.9372 C   0  0  0  0  0  0  0  0  0  0  0  0
    6.5963  -12.0672   25.5737 C   0  0  1  0  0  0  0  0  0  0  0  0
    7.4484  -12.2927   26.8058 C   0  0  0  0  0  0  0  0  0  0  0  0
    6.3309  -13.4328   24.9642 C   0  0  2  0  0  0  0  0  0  0  0  0
    5.7647  -14.3506   25.9026 N   0  0  0  0  0  0  0  0  0  0  0  0
    7.5864  -13.9876   24.4270 C   0  0  0  0  0  0  0  0  0  0  0  0
    8.3372  -13.3486   23.6262 O   0  0  0  0  0  0  0  0  0  0  0  0
    8.0203  -15.2924   24.7909 N   0  0  0  0  0  0  0  0  0  0  0  0
    9.2571  -15.8282   24.2638 C   0  0  0  0  0  0  0  0  0  0  0  0
   10.2504  -15.9049   25.3370 C   0  0  0  0  0  0  0  0  0  0  0  0
   11.4057  -16.2977   25.1013 O   0  0  0  0  0  0  0  0  0  0  0  0
   10.6356  -14.3169   28.6214 C   0  0  0  0  0  0  0  0  0  0  0  0
   10.8500  -15.5003   27.6910 C   0  0  2  0  0  0  0  0  0  0  0  0
    9.8609  -15.5210   26.6448 N   0  0  0  0  0  0  0  0  0  0  0  0
   10.8021  -16.7726   28.4452 C   0  0  0  0  0  0  0  0  0  0  0  0
   11.7033  -16.9910   29.4607 O   0  0  0  0  0  0  0  0  0  0  0  0
    9.9578  -17.6717   28.1884 O   0  0  0  0  0  0  0  0  0  0  0  0
  2  1  1  1
  2  3  1  0
  4  2  1  0
  4  5  1  1
  6  8  1  0
  6  4  1  0
  7  6  2  0
  9 10  1  0
  9  8  1  0
 10 11  2  0
 13 12  1  1
 13 15  1  0
 14 13  1  0
 14 10  1  0
 15 17  2  0
 15 16  1  0
M  END
$$$$
