VGA.pdb
     RDKit          3D

 17 16  0  0  1  0  0  0  0  0999 V2000
    7.8418  -12.6186   22.1684 C   0  0  0  0  0  0  0  0  0  0  0  0
    7.4021  -13.4807   20.9953 C   0  0  1  0  0  0  0  0  0  0  0  0
    8.3335  -13.3133   19.8122 C   0  0  0  0  0  0  0  0  0  0  0  0
    7.4905  -14.9348   21.4248 C   0  0  2  0  0  0  0  0  0  0  0  0
    6.5850  -15.2486   22.4855 N   0  0  0  0  0  0  0  0  0  0  0  0
    8.8691  -15.2441   21.8447 C   0  0  0  0  0  0  0  0  0  0  0  0
    9.8588  -15.2049   21.0494 O   0  0  0  0  0  0  0  0  0  0  0  0
    9.1563  -15.6079   23.1894 N   0  0  0  0  0  0  0  0  0  0  0  0
   10.5199  -15.8514   23.6086 C   0  0  0  0  0  0  0  0  0  0  0  0
   10.6986  -15.3766   24.9823 C   0  0  0  0  0  0  0  0  0  0  0  0
   11.7991  -15.4846   25.5497 O   0  0  0  0  0  0  0  0  0  0  0  0
    8.7001  -13.2473   27.3100 C   0  0  0  0  0  0  0  0  0  0  0  0
    9.7585  -14.2884   26.9814 C   0  0  2  0  0  0  0  0  0  0  0  0
    9.5886  -14.7938   25.6438 N   0  0  0  0  0  0  0  0  0  0  0  0
    9.7054  -15.4092   27.9464 C   0  0  0  0  0  0  0  0  0  0  0  0
   10.1101  -15.2035   29.2445 O   0  0  0  0  0  0  0  0  0  0  0  0
    9.2991  -16.5558   27.6189 O   0  0  0  0  0  0  0  0  0  0  0  0
  2  1  1  1
  2  3  1  0
  4  2  1  0
  4  5  1  1
  6  8  1  0
  6  4  1  0
  7  6  2  0
  9 10  1  0
  9  8  1  0
 10 11  2  0
 13 12  1  1
 13 15  1  0
 14 13  1  0
 14 10  1  0
 15 17  2  0
 15 16  1  0
M  END
$$$$
