VGA.pdb
     RDKit          3D

 17 16  0  0  1  0  0  0  0  0999 V2000
    8.4477  -12.2776   18.7300 C   0  0  0  0  0  0  0  0  0  0  0  0
    8.5464  -12.9156   20.1069 C   0  0  1  0  0  0  0  0  0  0  0  0
    7.1763  -13.0936   20.7284 C   0  0  0  0  0  0  0  0  0  0  0  0
    9.1382  -14.3041   19.9373 C   0  0  2  0  0  0  0  0  0  0  0  0
    8.4086  -15.0996   19.0001 N   0  0  0  0  0  0  0  0  0  0  0  0
    9.1763  -14.9888   21.2420 C   0  0  0  0  0  0  0  0  0  0  0  0
    8.1461  -15.1519   21.9670 O   0  0  0  0  0  0  0  0  0  0  0  0
   10.3964  -15.5081   21.7564 N   0  0  0  0  0  0  0  0  0  0  0  0
   10.4258  -16.1800   23.0379 C   0  0  0  0  0  0  0  0  0  0  0  0
   11.7936  -16.6151   23.3277 C   0  0  0  0  0  0  0  0  0  0  0  0
   12.0475  -17.2515   24.3646 O   0  0  0  0  0  0  0  0  0  0  0  0
   14.6089  -17.5473   21.3199 C   0  0  0  0  0  0  0  0  0  0  0  0
   14.1292  -16.8506   22.5835 C   0  0  2  0  0  0  0  0  0  0  0  0
   12.8147  -16.2927   22.3988 N   0  0  0  0  0  0  0  0  0  0  0  0
   15.0718  -15.7805   22.9793 C   0  0  0  0  0  0  0  0  0  0  0  0
   16.1215  -16.0796   23.8159 O   0  0  0  0  0  0  0  0  0  0  0  0
   14.9465  -14.5943   22.5740 O   0  0  0  0  0  0  0  0  0  0  0  0
  2  1  1  6
  2  3  1  0
  4  2  1  0
  4  5  1  6
  6  8  1  0
  6  4  1  0
  7  6  2  0
  9 10  1  0
  9  8  1  0
 10 11  2  0
 13 12  1  6
 13 15  1  0
 14 13  1  0
 14 10  1  0
 15 17  2  0
 15 16  1  0
M  END
$$$$
