VGA.pdb
     RDKit          3D

 17 16  0  0  1  0  0  0  0  0999 V2000
    8.8211  -11.7982   19.6991 C   0  0  0  0  0  0  0  0  0  0  0  0
    9.0752  -13.1392   20.3699 C   0  0  1  0  0  0  0  0  0  0  0  0
    7.8829  -13.5730   21.1976 C   0  0  0  0  0  0  0  0  0  0  0  0
    9.2580  -14.1803   19.2792 C   0  0  2  0  0  0  0  0  0  0  0  0
    8.1404  -14.2440   18.3901 N   0  0  0  0  0  0  0  0  0  0  0  0
    9.4792  -15.5034   19.8898 C   0  0  0  0  0  0  0  0  0  0  0  0
    8.5737  -16.3914   19.9612 O   0  0  0  0  0  0  0  0  0  0  0  0
   10.7452  -15.8501   20.4375 N   0  0  0  0  0  0  0  0  0  0  0  0
   10.9976  -17.1950   20.9089 C   0  0  0  0  0  0  0  0  0  0  0  0
   11.4578  -17.1451   22.2981 C   0  0  0  0  0  0  0  0  0  0  0  0
   12.1080  -16.1708   22.7133 O   0  0  0  0  0  0  0  0  0  0  0  0
   10.9551  -19.2850   25.3457 C   0  0  0  0  0  0  0  0  0  0  0  0
   11.6547  -18.2344   24.4979 C   0  0  2  0  0  0  0  0  0  0  0  0
   11.1434  -18.2322   23.1518 N   0  0  0  0  0  0  0  0  0  0  0  0
   13.1154  -18.4708   24.4741 C   0  0  0  0  0  0  0  0  0  0  0  0
   13.8672  -18.1697   25.5855 O   0  0  0  0  0  0  0  0  0  0  0  0
   13.7009  -18.9423   23.4632 O   0  0  0  0  0  0  0  0  0  0  0  0
  2  1  1  6
  2  3  1  0
  4  2  1  0
  4  5  1  6
  6  8  1  0
  6  4  1  0
  7  6  2  0
  9 10  1  0
  9  8  1  0
 10 11  2  0
 13 12  1  1
 13 15  1  0
 14 13  1  0
 14 10  1  0
 15 17  2  0
 15 16  1  0
M  END
$$$$
