PLY.pdb
     RDKit          3D

 28 29  0  0  1  0  0  0  0  0999 V2000
   41.0394  -10.1999   -7.7836 N   0  0  0  0  0  0  0  0  0  0  0  0
   40.6894   -8.9217   -8.3437 C   0  0  0  0  0  0  0  0  0  0  0  0
   40.3783   -9.1493   -9.8033 C   0  0  0  0  0  0  0  0  0  0  0  0
   41.1363  -10.4100  -10.1495 C   0  0  0  0  0  0  0  0  0  0  0  0
   41.2271  -11.1276   -8.8460 C   0  0  1  0  0  0  0  0  0  0  0  0
   42.4895  -11.8783   -8.6621 C   0  0  0  0  0  0  0  0  0  0  0  0
   43.4235  -11.4339   -7.9704 O   0  0  0  0  0  0  0  0  0  0  0  0
   42.9720  -17.6045   -9.2076 C   0  0  0  0  0  0  0  0  0  0  0  0
   43.3211  -16.2616   -8.5223 C   0  0  1  0  0  0  0  0  0  0  0  0
   44.4064  -16.5583   -7.5541 C   0  0  0  0  0  0  0  0  0  0  0  0
   43.6099  -15.3212   -9.6204 C   0  0  0  0  0  0  0  0  0  0  0  0
   43.8854  -13.9014   -9.3064 C   0  0  2  0  0  0  0  0  0  0  0  0
   42.6589  -13.1434   -9.2841 N   0  0  0  0  0  0  0  0  0  0  0  0
   44.9278  -13.2906  -10.1482 C   0  0  0  0  0  0  0  0  0  0  0  0
   44.6188  -12.9314  -11.3070 O   0  0  0  0  0  0  0  0  0  0  0  0
   51.1139   -8.3602  -13.5992 O   0  0  0  0  0  0  0  0  0  0  0  0
   50.1796   -8.9932  -12.7920 C   0  0  0  0  0  0  0  0  0  0  0  0
   48.9322   -9.3026  -13.2853 C   0  0  0  0  0  0  0  0  0  0  0  0
   47.9962   -9.9315  -12.4924 C   0  0  0  0  0  0  0  0  0  0  0  0
   48.2719  -10.2782  -11.1664 C   0  0  0  0  0  0  0  0  0  0  0  0
   47.2547  -10.9380  -10.3202 C   0  0  0  0  0  0  0  0  0  0  0  0
   47.2673  -12.4137  -10.5653 C   0  0  2  0  0  0  0  0  0  0  0  0
   46.2633  -13.0830   -9.7275 N   0  0  0  0  0  0  0  0  0  0  0  0
   48.5614  -13.0537  -10.3273 C   0  0  0  0  0  0  0  0  0  0  0  0
   49.5209  -13.0630  -11.3471 O   0  0  0  0  0  0  0  0  0  0  0  0
   49.5358   -9.9482  -10.7142 C   0  0  0  0  0  0  0  0  0  0  0  0
   50.4808   -9.3226  -11.4877 C   0  0  0  0  0  0  0  0  0  0  0  0
   48.8867  -13.6147   -9.2385 O   0  0  0  0  0  0  0  0  0  0  0  0
  1  2  1  0
  3  2  1  0
  4  5  1  0
  4  3  1  0
  5  6  1  1
  5  1  1  0
  6  7  2  0
  9  8  1  6
  9 10  1  0
 11  9  1  0
 12 11  1  6
 13 12  1  0
 13  6  1  0
 14 12  1  0
 14 15  2  0
 16 17  1  0
 17 18  2  0
 17 27  1  0
 18 19  1  0
 19 20  2  0
 20 21  1  0
 22 21  1  1
 22 23  1  0
 22 24  1  0
 23 14  1  0
 24 28  2  0
 24 25  1  0
 26 20  1  0
 27 26  2  0
M  END
$$$$
