PLY.pdb
     RDKit          3D

 28 29  0  0  1  0  0  0  0  0999 V2000
   28.7219  -24.4963  -18.3848 N   0  0  0  0  0  0  0  0  0  0  0  0
   29.2636  -24.9221  -19.6478 C   0  0  0  0  0  0  0  0  0  0  0  0
   30.6035  -24.2446  -19.8048 C   0  0  0  0  0  0  0  0  0  0  0  0
   30.4997  -23.0159  -18.9312 C   0  0  0  0  0  0  0  0  0  0  0  0
   29.5013  -23.4104  -17.8969 C   0  0  1  0  0  0  0  0  0  0  0  0
   28.6263  -22.3013  -17.4550 C   0  0  0  0  0  0  0  0  0  0  0  0
   29.0899  -21.2346  -17.0128 O   0  0  0  0  0  0  0  0  0  0  0  0
   24.4960  -20.7191  -20.4302 C   0  0  0  0  0  0  0  0  0  0  0  0
   25.7356  -20.6805  -19.5045 C   0  0  1  0  0  0  0  0  0  0  0  0
   26.2512  -19.2896  -19.5575 C   0  0  0  0  0  0  0  0  0  0  0  0
   25.2736  -21.1993  -18.2041 C   0  0  0  0  0  0  0  0  0  0  0  0
   26.2593  -21.4375  -17.1261 C   0  0  2  0  0  0  0  0  0  0  0  0
   27.2151  -22.4389  -17.5300 N   0  0  0  0  0  0  0  0  0  0  0  0
   25.6575  -21.7096  -15.8101 C   0  0  0  0  0  0  0  0  0  0  0  0
   25.0556  -22.7951  -15.6467 O   0  0  0  0  0  0  0  0  0  0  0  0
   22.7051  -20.9799   -7.5464 O   0  0  0  0  0  0  0  0  0  0  0  0
   23.4362  -20.8043   -8.7124 C   0  0  0  0  0  0  0  0  0  0  0  0
   22.9109  -20.0805   -9.7589 C   0  0  0  0  0  0  0  0  0  0  0  0
   23.6284  -19.8996  -10.9219 C   0  0  0  0  0  0  0  0  0  0  0  0
   24.9079  -20.4386  -11.0860 C   0  0  0  0  0  0  0  0  0  0  0  0
   25.6618  -20.2518  -12.3441 C   0  0  0  0  0  0  0  0  0  0  0  0
   25.0604  -21.0896  -13.4278 C   0  0  2  0  0  0  0  0  0  0  0  0
   25.7171  -20.8169  -14.7132 N   0  0  0  0  0  0  0  0  0  0  0  0
   23.6193  -20.9061  -13.6026 C   0  0  0  0  0  0  0  0  0  0  0  0
   23.1530  -19.8606  -14.4089 O   0  0  0  0  0  0  0  0  0  0  0  0
   25.3946  -21.1574  -10.0102 C   0  0  0  0  0  0  0  0  0  0  0  0
   24.6961  -21.3483   -8.8448 C   0  0  0  0  0  0  0  0  0  0  0  0
   22.7392  -21.6422  -13.0645 O   0  0  0  0  0  0  0  0  0  0  0  0
  1  2  1  0
  3  2  1  0
  4  5  1  0
  4  3  1  0
  5  6  1  6
  5  1  1  0
  6  7  2  0
  9  8  1  6
  9 10  1  0
 11  9  1  0
 12 11  1  6
 13 12  1  0
 13  6  1  0
 14 12  1  0
 14 15  2  0
 16 17  1  0
 17 18  2  0
 17 27  1  0
 18 19  1  0
 19 20  2  0
 20 21  1  0
 22 21  1  1
 22 23  1  0
 22 24  1  0
 23 14  1  0
 24 28  2  0
 24 25  1  0
 26 20  1  0
 27 26  2  0
M  END
$$$$
