PLY.pdb
     RDKit          3D

 28 29  0  0  1  0  0  0  0  0999 V2000
   34.2997  -37.2116  -18.7755 N   0  0  0  0  0  0  0  0  0  0  0  0
   35.5193  -37.8004  -19.2612 C   0  0  0  0  0  0  0  0  0  0  0  0
   36.4145  -38.0127  -18.0642 C   0  0  0  0  0  0  0  0  0  0  0  0
   35.9256  -37.0005  -17.0543 C   0  0  0  0  0  0  0  0  0  0  0  0
   34.4956  -36.8037  -17.4265 C   0  0  1  0  0  0  0  0  0  0  0  0
   34.0095  -35.4198  -17.2273 C   0  0  0  0  0  0  0  0  0  0  0  0
   34.0851  -34.8492  -16.1241 O   0  0  0  0  0  0  0  0  0  0  0  0
   33.5541  -30.4049  -18.3888 C   0  0  0  0  0  0  0  0  0  0  0  0
   32.9046  -31.1801  -19.5602 C   0  0  1  0  0  0  0  0  0  0  0  0
   33.2766  -30.4512  -20.7986 C   0  0  0  0  0  0  0  0  0  0  0  0
   33.3613  -32.5740  -19.4127 C   0  0  0  0  0  0  0  0  0  0  0  0
   32.9149  -33.3641  -18.2436 C   0  0  2  0  0  0  0  0  0  0  0  0
   33.4376  -34.7063  -18.3135 N   0  0  0  0  0  0  0  0  0  0  0  0
   31.4621  -33.3208  -18.0076 C   0  0  0  0  0  0  0  0  0  0  0  0
   30.7110  -33.8955  -18.8277 O   0  0  0  0  0  0  0  0  0  0  0  0
   23.5873  -32.9062  -14.1038 O   0  0  0  0  0  0  0  0  0  0  0  0
   24.9368  -32.7508  -14.3863 C   0  0  0  0  0  0  0  0  0  0  0  0
   25.8045  -33.8083  -14.2326 C   0  0  0  0  0  0  0  0  0  0  0  0
   27.1471  -33.6653  -14.5105 C   0  0  0  0  0  0  0  0  0  0  0  0
   27.6790  -32.4515  -14.9558 C   0  0  0  0  0  0  0  0  0  0  0  0
   29.1234  -32.3051  -15.2354 C   0  0  0  0  0  0  0  0  0  0  0  0
   29.4145  -32.7188  -16.6433 C   0  0  2  0  0  0  0  0  0  0  0  0
   30.8588  -32.6671  -16.9065 N   0  0  0  0  0  0  0  0  0  0  0  0
   28.7353  -31.9159  -17.6606 C   0  0  0  0  0  0  0  0  0  0  0  0
   27.5314  -32.3762  -18.2078 O   0  0  0  0  0  0  0  0  0  0  0  0
   26.7714  -31.4182  -15.0953 C   0  0  0  0  0  0  0  0  0  0  0  0
   25.4320  -31.5409  -14.8240 C   0  0  0  0  0  0  0  0  0  0  0  0
   29.1669  -30.8062  -18.0945 O   0  0  0  0  0  0  0  0  0  0  0  0
  1  2  1  0
  3  2  1  0
  4  5  1  0
  4  3  1  0
  5  6  1  6
  5  1  1  0
  6  7  2  0
  9  8  1  1
  9 10  1  0
 11  9  1  0
 12 11  1  6
 13 12  1  0
 13  6  1  0
 14 12  1  0
 14 15  2  0
 16 17  1  0
 17 18  2  0
 17 27  1  0
 18 19  1  0
 19 20  2  0
 20 21  1  0
 22 21  1  1
 22 23  1  0
 22 24  1  0
 23 14  1  0
 24 28  2  0
 24 25  1  0
 26 20  1  0
 27 26  2  0
M  END
$$$$
