PLY.pdb
     RDKit          3D

 28 29  0  0  1  0  0  0  0  0999 V2000
   27.1329  -18.8911  -15.1807 N   0  0  0  0  0  0  0  0  0  0  0  0
   28.4870  -18.4372  -15.0058 C   0  0  0  0  0  0  0  0  0  0  0  0
   29.3907  -19.5603  -15.4545 C   0  0  0  0  0  0  0  0  0  0  0  0
   28.5432  -20.8013  -15.2951 C   0  0  0  0  0  0  0  0  0  0  0  0
   27.1506  -20.2899  -15.4408 C   0  0  1  0  0  0  0  0  0  0  0  0
   26.1634  -20.9885  -14.5872 C   0  0  0  0  0  0  0  0  0  0  0  0
   25.9455  -22.2086  -14.6982 O   0  0  0  0  0  0  0  0  0  0  0  0
   25.8916  -19.8929   -9.3558 C   0  0  0  0  0  0  0  0  0  0  0  0
   25.9489  -20.6267  -10.7171 C   0  0  1  0  0  0  0  0  0  0  0  0
   26.3389  -22.0275  -10.4186 C   0  0  0  0  0  0  0  0  0  0  0  0
   24.6371  -20.3919  -11.3478 C   0  0  0  0  0  0  0  0  0  0  0  0
   24.4184  -20.8184  -12.7480 C   0  0  2  0  0  0  0  0  0  0  0  0
   25.4343  -20.2636  -13.6080 N   0  0  0  0  0  0  0  0  0  0  0  0
   23.0511  -20.5834  -13.2417 C   0  0  0  0  0  0  0  0  0  0  0  0
   22.5604  -19.4398  -13.1061 O   0  0  0  0  0  0  0  0  0  0  0  0
   15.3438  -21.0531  -17.4448 O   0  0  0  0  0  0  0  0  0  0  0  0
   16.6296  -21.3048  -16.9882 C   0  0  0  0  0  0  0  0  0  0  0  0
   17.6784  -20.5115  -17.3948 C   0  0  0  0  0  0  0  0  0  0  0  0
   18.9598  -20.7523  -16.9474 C   0  0  0  0  0  0  0  0  0  0  0  0
   19.2454  -21.8025  -16.0701 C   0  0  0  0  0  0  0  0  0  0  0  0
   20.6263  -22.0614  -15.6094 C   0  0  0  0  0  0  0  0  0  0  0  0
   20.8888  -21.3136  -14.3406 C   0  0  2  0  0  0  0  0  0  0  0  0
   22.2533  -21.5740  -13.8629 N   0  0  0  0  0  0  0  0  0  0  0  0
   19.9576  -21.6219  -13.2549 C   0  0  0  0  0  0  0  0  0  0  0  0
   20.1644  -22.7681  -12.4776 O   0  0  0  0  0  0  0  0  0  0  0  0
   18.1623  -22.5724  -15.6890 C   0  0  0  0  0  0  0  0  0  0  0  0
   16.8801  -22.3486  -16.1231 C   0  0  0  0  0  0  0  0  0  0  0  0
   18.9520  -20.9102  -12.9582 O   0  0  0  0  0  0  0  0  0  0  0  0
  1  2  1  0
  3  2  1  0
  4  5  1  0
  4  3  1  0
  5  6  1  1
  5  1  1  0
  6  7  2  0
  9  8  1  1
  9 10  1  0
 11  9  1  0
 12 11  1  1
 13 12  1  0
 13  6  1  0
 14 12  1  0
 14 15  2  0
 16 17  1  0
 17 18  2  0
 17 27  1  0
 18 19  1  0
 19 20  2  0
 20 21  1  0
 22 21  1  6
 22 23  1  0
 22 24  1  0
 23 14  1  0
 24 28  2  0
 24 25  1  0
 26 20  1  0
 27 26  2  0
M  END
$$$$
