PLY.pdb
     RDKit          3D

 28 29  0  0  1  0  0  0  0  0999 V2000
   42.8273   -9.6331   -6.4563 N   0  0  0  0  0  0  0  0  0  0  0  0
   43.8166  -10.5544   -5.9636 C   0  0  0  0  0  0  0  0  0  0  0  0
   44.8907  -10.6554   -7.0196 C   0  0  0  0  0  0  0  0  0  0  0  0
   44.1864  -10.2695   -8.2998 C   0  0  0  0  0  0  0  0  0  0  0  0
   43.0830   -9.3824   -7.8334 C   0  0  1  0  0  0  0  0  0  0  0  0
   41.8377   -9.5091   -8.6235 C   0  0  0  0  0  0  0  0  0  0  0  0
   41.8199   -9.3316   -9.8550 O   0  0  0  0  0  0  0  0  0  0  0  0
   37.9715  -12.8109   -6.5713 C   0  0  0  0  0  0  0  0  0  0  0  0
   39.0906  -12.1177   -7.3849 C   0  0  1  0  0  0  0  0  0  0  0  0
   39.6231  -13.1425   -8.3172 C   0  0  0  0  0  0  0  0  0  0  0  0
   38.4698  -10.9114   -7.9620 C   0  0  0  0  0  0  0  0  0  0  0  0
   39.3263   -9.8957   -8.6141 C   0  0  2  0  0  0  0  0  0  0  0  0
   40.6185   -9.8421   -7.9764 N   0  0  0  0  0  0  0  0  0  0  0  0
   38.6933   -8.5732   -8.7507 C   0  0  0  0  0  0  0  0  0  0  0  0
   37.7180   -8.4603   -9.5274 O   0  0  0  0  0  0  0  0  0  0  0  0
   36.1543   -0.2224   -7.6627 O   0  0  0  0  0  0  0  0  0  0  0  0
   36.5864   -1.5311   -7.5025 C   0  0  0  0  0  0  0  0  0  0  0  0
   35.8205   -2.5767   -7.9661 C   0  0  0  0  0  0  0  0  0  0  0  0
   36.2400   -3.8808   -7.8125 C   0  0  0  0  0  0  0  0  0  0  0  0
   37.4497   -4.1933   -7.1853 C   0  0  0  0  0  0  0  0  0  0  0  0
   37.8820   -5.5965   -7.0116 C   0  0  0  0  0  0  0  0  0  0  0  0
   38.5216   -6.0921   -8.2700 C   0  0  2  0  0  0  0  0  0  0  0  0
   39.1203   -7.4163   -8.0557 N   0  0  0  0  0  0  0  0  0  0  0  0
   39.5525   -5.2065   -8.8120 C   0  0  0  0  0  0  0  0  0  0  0  0
   40.9023   -5.5228   -8.6152 O   0  0  0  0  0  0  0  0  0  0  0  0
   38.1850   -3.1125   -6.7358 C   0  0  0  0  0  0  0  0  0  0  0  0
   37.7846   -1.8079   -6.8794 C   0  0  0  0  0  0  0  0  0  0  0  0
   39.3082   -4.1472   -9.4631 O   0  0  0  0  0  0  0  0  0  0  0  0
  1  2  1  0
  3  2  1  0
  4  5  1  0
  4  3  1  0
  5  6  1  6
  5  1  1  0
  6  7  2  0
  9  8  1  6
  9 10  1  0
 11  9  1  0
 12 11  1  1
 13 12  1  0
 13  6  1  0
 14 12  1  0
 14 15  2  0
 16 17  1  0
 17 18  2  0
 17 27  1  0
 18 19  1  0
 19 20  2  0
 20 21  1  0
 22 21  1  1
 22 23  1  0
 22 24  1  0
 23 14  1  0
 24 28  2  0
 24 25  1  0
 26 20  1  0
 27 26  2  0
M  END
$$$$
