PLY.pdb
     RDKit          3D

 28 29  0  0  1  0  0  0  0  0999 V2000
   19.5474  -19.8904  -19.8865 N   0  0  0  0  0  0  0  0  0  0  0  0
   20.1728  -20.3347  -21.1037 C   0  0  0  0  0  0  0  0  0  0  0  0
   21.5616  -20.8028  -20.7412 C   0  0  0  0  0  0  0  0  0  0  0  0
   21.8813  -20.0561  -19.4668 C   0  0  0  0  0  0  0  0  0  0  0  0
   20.5394  -19.7999  -18.8704 C   0  0  1  0  0  0  0  0  0  0  0  0
   20.4369  -18.5056  -18.1595 C   0  0  0  0  0  0  0  0  0  0  0  0
   21.1410  -18.2431  -17.1677 O   0  0  0  0  0  0  0  0  0  0  0  0
   20.3561  -14.4141  -21.2493 C   0  0  0  0  0  0  0  0  0  0  0  0
   20.7230  -15.2696  -20.0129 C   0  0  1  0  0  0  0  0  0  0  0  0
   22.0289  -14.7587  -19.5262 C   0  0  0  0  0  0  0  0  0  0  0  0
   19.5618  -15.1762  -19.1094 C   0  0  0  0  0  0  0  0  0  0  0  0
   19.3796  -16.1975  -18.0538 C   0  0  2  0  0  0  0  0  0  0  0  0
   19.5151  -17.5225  -18.6064 N   0  0  0  0  0  0  0  0  0  0  0  0
   18.1538  -16.0259  -17.2562 C   0  0  0  0  0  0  0  0  0  0  0  0
   17.9912  -14.9460  -16.6441 O   0  0  0  0  0  0  0  0  0  0  0  0
   14.2658  -21.9662  -19.6580 O   0  0  0  0  0  0  0  0  0  0  0  0
   14.3679  -20.7108  -19.0762 C   0  0  0  0  0  0  0  0  0  0  0  0
   15.0718  -19.7091  -19.7057 C   0  0  0  0  0  0  0  0  0  0  0  0
   15.1797  -18.4581  -19.1370 C   0  0  0  0  0  0  0  0  0  0  0  0
   14.5843  -18.1567  -17.9085 C   0  0  0  0  0  0  0  0  0  0  0  0
   14.7201  -16.8160  -17.3002 C   0  0  0  0  0  0  0  0  0  0  0  0
   15.9019  -16.7898  -16.3833 C   0  0  2  0  0  0  0  0  0  0  0  0
   17.1432  -17.0099  -17.1375 N   0  0  0  0  0  0  0  0  0  0  0  0
   15.8459  -17.7705  -15.2988 C   0  0  0  0  0  0  0  0  0  0  0  0
   14.7701  -17.7430  -14.4029 O   0  0  0  0  0  0  0  0  0  0  0  0
   13.8884  -19.1922  -17.3132 C   0  0  0  0  0  0  0  0  0  0  0  0
   13.7697  -20.4437  -17.8632 C   0  0  0  0  0  0  0  0  0  0  0  0
   16.7214  -18.6661  -15.1053 O   0  0  0  0  0  0  0  0  0  0  0  0
  1  2  1  0
  3  2  1  0
  4  5  1  0
  4  3  1  0
  5  6  1  6
  5  1  1  0
  6  7  2  0
  9  8  1  6
  9 10  1  0
 11  9  1  0
 12 11  1  6
 13 12  1  0
 13  6  1  0
 14 12  1  0
 14 15  2  0
 16 17  1  0
 17 18  2  0
 17 27  1  0
 18 19  1  0
 19 20  2  0
 20 21  1  0
 22 21  1  6
 22 23  1  0
 22 24  1  0
 23 14  1  0
 24 28  2  0
 24 25  1  0
 26 20  1  0
 27 26  2  0
M  END
$$$$
