PLY.pdb
     RDKit          3D

 28 29  0  0  1  0  0  0  0  0999 V2000
   26.7422  -19.0846  -14.0258 N   0  0  0  0  0  0  0  0  0  0  0  0
   28.0199  -18.4720  -14.2755 C   0  0  0  0  0  0  0  0  0  0  0  0
   28.8707  -19.4981  -14.9842 C   0  0  0  0  0  0  0  0  0  0  0  0
   28.2685  -20.8223  -14.5749 C   0  0  0  0  0  0  0  0  0  0  0  0
   26.8473  -20.4801  -14.2827 C   0  0  1  0  0  0  0  0  0  0  0  0
   26.2607  -21.2582  -13.1685 C   0  0  0  0  0  0  0  0  0  0  0  0
   26.0745  -22.4858  -13.2507 O   0  0  0  0  0  0  0  0  0  0  0  0
   27.0529  -19.3832   -8.1509 C   0  0  0  0  0  0  0  0  0  0  0  0
   27.0049  -20.1085   -9.5171 C   0  0  1  0  0  0  0  0  0  0  0  0
   28.2048  -20.9808   -9.5676 C   0  0  0  0  0  0  0  0  0  0  0  0
   25.6787  -20.7500   -9.5773 C   0  0  0  0  0  0  0  0  0  0  0  0
   25.1514  -21.2053  -10.8830 C   0  0  2  0  0  0  0  0  0  0  0  0
   25.8933  -20.6036  -11.9633 N   0  0  0  0  0  0  0  0  0  0  0  0
   23.6938  -21.0553  -11.0283 C   0  0  0  0  0  0  0  0  0  0  0  0
   22.9912  -21.0596   -9.9921 O   0  0  0  0  0  0  0  0  0  0  0  0
   23.5457  -18.4962  -18.0428 O   0  0  0  0  0  0  0  0  0  0  0  0
   23.0209  -18.6778  -16.7713 C   0  0  0  0  0  0  0  0  0  0  0  0
   21.7404  -19.1568  -16.6107 C   0  0  0  0  0  0  0  0  0  0  0  0
   21.2089  -19.3412  -15.3522 C   0  0  0  0  0  0  0  0  0  0  0  0
   21.9412  -19.0522  -14.1970 C   0  0  0  0  0  0  0  0  0  0  0  0
   21.3552  -19.2386  -12.8524 C   0  0  0  0  0  0  0  0  0  0  0  0
   21.5938  -20.6387  -12.3821 C   0  0  2  0  0  0  0  0  0  0  0  0
   23.0340  -20.9059  -12.2717 N   0  0  0  0  0  0  0  0  0  0  0  0
   21.0014  -21.6703  -13.2340 C   0  0  0  0  0  0  0  0  0  0  0  0
   19.6121  -21.7051  -13.4054 O   0  0  0  0  0  0  0  0  0  0  0  0
   23.2211  -18.5739  -14.4063 C   0  0  0  0  0  0  0  0  0  0  0  0
   23.7677  -18.3837  -15.6504 C   0  0  0  0  0  0  0  0  0  0  0  0
   21.6696  -22.5577  -13.8439 O   0  0  0  0  0  0  0  0  0  0  0  0
  1  2  1  0
  3  2  1  0
  4  5  1  0
  4  3  1  0
  5  6  1  1
  5  1  1  0
  6  7  2  0
  9  8  1  1
  9 10  1  0
 11  9  1  0
 12 11  1  1
 13 12  1  0
 13  6  1  0
 14 12  1  0
 14 15  2  0
 16 17  1  0
 17 18  2  0
 17 27  1  0
 18 19  1  0
 19 20  2  0
 20 21  1  0
 22 21  1  6
 22 23  1  0
 22 24  1  0
 23 14  1  0
 24 28  2  0
 24 25  1  0
 26 20  1  0
 27 26  2  0
M  END
$$$$
