PLY.pdb
     RDKit          3D

 28 29  0  0  1  0  0  0  0  0999 V2000
   30.0887  -20.3845  -10.4264 N   0  0  0  0  0  0  0  0  0  0  0  0
   31.4887  -20.7149  -10.3988 C   0  0  0  0  0  0  0  0  0  0  0  0
   31.6133  -22.1487  -10.8548 C   0  0  0  0  0  0  0  0  0  0  0  0
   30.2628  -22.7523  -10.5459 C   0  0  0  0  0  0  0  0  0  0  0  0
   29.3406  -21.5824  -10.6005 C   0  0  1  0  0  0  0  0  0  0  0  0
   28.2314  -21.6477   -9.6225 C   0  0  0  0  0  0  0  0  0  0  0  0
   27.4065  -22.5794   -9.6258 O   0  0  0  0  0  0  0  0  0  0  0  0
   28.4637  -18.5999   -4.9250 C   0  0  0  0  0  0  0  0  0  0  0  0
   28.2967  -19.8145   -5.8695 C   0  0  1  0  0  0  0  0  0  0  0  0
   28.1668  -21.0068   -4.9949 C   0  0  0  0  0  0  0  0  0  0  0  0
   27.1655  -19.4758   -6.7521 C   0  0  0  0  0  0  0  0  0  0  0  0
   26.8748  -20.3352   -7.9215 C   0  0  2  0  0  0  0  0  0  0  0  0
   28.0873  -20.6281   -8.6450 N   0  0  0  0  0  0  0  0  0  0  0  0
   25.7936  -19.8309   -8.7846 C   0  0  0  0  0  0  0  0  0  0  0  0
   26.0057  -18.7965   -9.4571 O   0  0  0  0  0  0  0  0  0  0  0  0
   20.7696  -19.9351  -15.7020 O   0  0  0  0  0  0  0  0  0  0  0  0
   21.6334  -20.1236  -14.6327 C   0  0  0  0  0  0  0  0  0  0  0  0
   21.6604  -21.3277  -13.9660 C   0  0  0  0  0  0  0  0  0  0  0  0
   22.5147  -21.5261  -12.9025 C   0  0  0  0  0  0  0  0  0  0  0  0
   23.3813  -20.5223  -12.4604 C   0  0  0  0  0  0  0  0  0  0  0  0
   24.2818  -20.7408  -11.3082 C   0  0  0  0  0  0  0  0  0  0  0  0
   23.6399  -20.2326  -10.0561 C   0  0  2  0  0  0  0  0  0  0  0  0
   24.5237  -20.4451   -8.9021 N   0  0  0  0  0  0  0  0  0  0  0  0
   22.3419  -20.8373   -9.7554 C   0  0  0  0  0  0  0  0  0  0  0  0
   21.1831  -20.2945  -10.3241 O   0  0  0  0  0  0  0  0  0  0  0  0
   23.3196  -19.3310  -13.1589 C   0  0  0  0  0  0  0  0  0  0  0  0
   22.4767  -19.1143  -14.2196 C   0  0  0  0  0  0  0  0  0  0  0  0
   22.1845  -21.8417   -8.9989 O   0  0  0  0  0  0  0  0  0  0  0  0
  1  2  1  0
  3  2  1  0
  4  5  1  0
  4  3  1  0
  5  6  1  1
  5  1  1  0
  6  7  2  0
  9  8  1  1
  9 10  1  0
 11  9  1  0
 12 11  1  1
 13 12  1  0
 13  6  1  0
 14 12  1  0
 14 15  2  0
 16 17  1  0
 17 18  2  0
 17 27  1  0
 18 19  1  0
 19 20  2  0
 20 21  1  0
 22 21  1  6
 22 23  1  0
 22 24  1  0
 23 14  1  0
 24 28  2  0
 24 25  1  0
 26 20  1  0
 27 26  2  0
M  END
$$$$
