PLY.pdb
     RDKit          3D

 28 29  0  0  1  0  0  0  0  0999 V2000
   30.1318  -20.5875  -10.8308 N   0  0  0  0  0  0  0  0  0  0  0  0
   31.5557  -20.6984  -11.0052 C   0  0  0  0  0  0  0  0  0  0  0  0
   31.8839  -22.1717  -11.0326 C   0  0  0  0  0  0  0  0  0  0  0  0
   30.7439  -22.8173  -10.2792 C   0  0  0  0  0  0  0  0  0  0  0  0
   29.6142  -21.8656  -10.4797 C   0  0  1  0  0  0  0  0  0  0  0  0
   28.7090  -21.7560   -9.3136 C   0  0  0  0  0  0  0  0  0  0  0  0
   27.8099  -22.5890   -9.0991 O   0  0  0  0  0  0  0  0  0  0  0  0
   28.0751  -20.5602   -4.0912 C   0  0  0  0  0  0  0  0  0  0  0  0
   28.0002  -19.3017   -4.9887 C   0  0  1  0  0  0  0  0  0  0  0  0
   28.5410  -18.1808   -4.1796 C   0  0  0  0  0  0  0  0  0  0  0  0
   28.7048  -19.6614   -6.2328 C   0  0  0  0  0  0  0  0  0  0  0  0
   27.9814  -20.4071   -7.2869 C   0  0  2  0  0  0  0  0  0  0  0  0
   28.8546  -20.6770   -8.4023 N   0  0  0  0  0  0  0  0  0  0  0  0
   26.7035  -19.7949   -7.6875 C   0  0  0  0  0  0  0  0  0  0  0  0
   26.6962  -18.5786   -7.9841 O   0  0  0  0  0  0  0  0  0  0  0  0
   21.5114  -19.9615  -14.4583 O   0  0  0  0  0  0  0  0  0  0  0  0
   22.4028  -20.1122  -13.4058 C   0  0  0  0  0  0  0  0  0  0  0  0
   23.7573  -19.9940  -13.6210 C   0  0  0  0  0  0  0  0  0  0  0  0
   24.6520  -20.1416  -12.5828 C   0  0  0  0  0  0  0  0  0  0  0  0
   24.2254  -20.4151  -11.2798 C   0  0  0  0  0  0  0  0  0  0  0  0
   25.1950  -20.5875  -10.1770 C   0  0  0  0  0  0  0  0  0  0  0  0
   24.5251  -20.3292   -8.8645 C   0  0  2  0  0  0  0  0  0  0  0  0
   25.4773  -20.4984   -7.7588 N   0  0  0  0  0  0  0  0  0  0  0  0
   23.3640  -21.1801   -8.6021 C   0  0  0  0  0  0  0  0  0  0  0  0
   22.1082  -20.7977   -9.0896 O   0  0  0  0  0  0  0  0  0  0  0  0
   22.8579  -20.5254  -11.1110 C   0  0  0  0  0  0  0  0  0  0  0  0
   21.9517  -20.3817  -12.1312 C   0  0  0  0  0  0  0  0  0  0  0  0
   23.4118  -22.2654   -7.9496 O   0  0  0  0  0  0  0  0  0  0  0  0
  1  2  1  0
  3  2  1  0
  4  5  1  0
  4  3  1  0
  5  6  1  1
  5  1  1  0
  6  7  2  0
  9  8  1  1
  9 10  1  0
 11  9  1  0
 12 11  1  1
 13 12  1  0
 13  6  1  0
 14 12  1  0
 14 15  2  0
 16 17  1  0
 17 18  2  0
 17 27  1  0
 18 19  1  0
 19 20  2  0
 20 21  1  0
 22 21  1  6
 22 23  1  0
 22 24  1  0
 23 14  1  0
 24 28  2  0
 24 25  1  0
 26 20  1  0
 27 26  2  0
M  END
$$$$
