PLY.pdb
     RDKit          3D

 28 29  0  0  1  0  0  0  0  0999 V2000
   28.4349  -19.6663  -17.8748 N   0  0  0  0  0  0  0  0  0  0  0  0
   28.3650  -18.6171  -18.8568 C   0  0  0  0  0  0  0  0  0  0  0  0
   28.3899  -17.3074  -18.1063 C   0  0  0  0  0  0  0  0  0  0  0  0
   27.8689  -17.6600  -16.7323 C   0  0  0  0  0  0  0  0  0  0  0  0
   28.2260  -19.0999  -16.5863 C   0  0  1  0  0  0  0  0  0  0  0  0
   27.2304  -19.8902  -15.8278 C   0  0  0  0  0  0  0  0  0  0  0  0
   26.4306  -20.6570  -16.3940 O   0  0  0  0  0  0  0  0  0  0  0  0
   25.4348  -22.1729  -11.2444 C   0  0  0  0  0  0  0  0  0  0  0  0
   25.4973  -20.6306  -11.1332 C   0  0  1  0  0  0  0  0  0  0  0  0
   25.8009  -20.3279   -9.7121 C   0  0  0  0  0  0  0  0  0  0  0  0
   26.4676  -20.1999  -12.1562 C   0  0  0  0  0  0  0  0  0  0  0  0
   26.0976  -20.2802  -13.5869 C   0  0  2  0  0  0  0  0  0  0  0  0
   27.1703  -19.7842  -14.4131 N   0  0  0  0  0  0  0  0  0  0  0  0
   24.7941  -19.6743  -13.9060 C   0  0  0  0  0  0  0  0  0  0  0  0
   24.6748  -18.4329  -13.7966 O   0  0  0  0  0  0  0  0  0  0  0  0
   17.1841  -17.3964  -17.4099 O   0  0  0  0  0  0  0  0  0  0  0  0
   18.4363  -17.9107  -17.1054 C   0  0  0  0  0  0  0  0  0  0  0  0
   18.6154  -19.2691  -16.9732 C   0  0  0  0  0  0  0  0  0  0  0  0
   19.8550  -19.7911  -16.6710 C   0  0  0  0  0  0  0  0  0  0  0  0
   20.9718  -18.9704  -16.4878 C   0  0  0  0  0  0  0  0  0  0  0  0
   22.2931  -19.5401  -16.1480 C   0  0  0  0  0  0  0  0  0  0  0  0
   22.3823  -19.7765  -14.6735 C   0  0  2  0  0  0  0  0  0  0  0  0
   23.6622  -20.4106  -14.3306 N   0  0  0  0  0  0  0  0  0  0  0  0
   21.3032  -20.6008  -14.1284 C   0  0  0  0  0  0  0  0  0  0  0  0
   20.1552  -19.9807  -13.6200 O   0  0  0  0  0  0  0  0  0  0  0  0
   20.7450  -17.6142  -16.6299 C   0  0  0  0  0  0  0  0  0  0  0  0
   19.5193  -17.0757  -16.9304 C   0  0  0  0  0  0  0  0  0  0  0  0
   21.3311  -21.8668  -14.0810 O   0  0  0  0  0  0  0  0  0  0  0  0
  1  2  1  0
  3  2  1  0
  4  5  1  0
  4  3  1  0
  5  6  1  6
  5  1  1  0
  6  7  2  0
  9  8  1  1
  9 10  1  0
 11  9  1  0
 12 11  1  1
 13 12  1  0
 13  6  1  0
 14 12  1  0
 14 15  2  0
 16 17  1  0
 17 18  2  0
 17 27  1  0
 18 19  1  0
 19 20  2  0
 20 21  1  0
 22 21  1  6
 22 23  1  0
 22 24  1  0
 23 14  1  0
 24 28  2  0
 24 25  1  0
 26 20  1  0
 27 26  2  0
M  END
$$$$
