PLY.pdb
     RDKit          3D

 28 29  0  0  1  0  0  0  0  0999 V2000
   24.3888  -13.2248  -19.0252 N   0  0  0  0  0  0  0  0  0  0  0  0
   24.8119  -14.4365  -19.6756 C   0  0  0  0  0  0  0  0  0  0  0  0
   24.7202  -14.1946  -21.1630 C   0  0  0  0  0  0  0  0  0  0  0  0
   23.6936  -13.0934  -21.2947 C   0  0  0  0  0  0  0  0  0  0  0  0
   23.7937  -12.3703  -19.9950 C   0  0  1  0  0  0  0  0  0  0  0  0
   22.5011  -11.8456  -19.5002 C   0  0  0  0  0  0  0  0  0  0  0  0
   21.9255  -10.8900  -20.0515 O   0  0  0  0  0  0  0  0  0  0  0  0
   17.5580  -12.8506  -17.4746 C   0  0  0  0  0  0  0  0  0  0  0  0
   18.6790  -12.8405  -16.4077 C   0  0  1  0  0  0  0  0  0  0  0  0
   18.2680  -13.8117  -15.3631 C   0  0  0  0  0  0  0  0  0  0  0  0
   19.9283  -13.1029  -17.1451 C   0  0  0  0  0  0  0  0  0  0  0  0
   20.6695  -11.9701  -17.7434 C   0  0  2  0  0  0  0  0  0  0  0  0
   21.8842  -12.4356  -18.3657 N   0  0  0  0  0  0  0  0  0  0  0  0
   20.8866  -10.8406  -16.8240 C   0  0  0  0  0  0  0  0  0  0  0  0
   21.9595  -10.7980  -16.1804 O   0  0  0  0  0  0  0  0  0  0  0  0
   22.2153   -2.8725  -13.8912 O   0  0  0  0  0  0  0  0  0  0  0  0
   22.0395   -4.1023  -14.5091 C   0  0  0  0  0  0  0  0  0  0  0  0
   21.4691   -4.1755  -15.7598 C   0  0  0  0  0  0  0  0  0  0  0  0
   21.2898   -5.3919  -16.3831 C   0  0  0  0  0  0  0  0  0  0  0  0
   21.6760   -6.5910  -15.7769 C   0  0  0  0  0  0  0  0  0  0  0  0
   21.4640   -7.8912  -16.4481 C   0  0  0  0  0  0  0  0  0  0  0  0
   20.2730   -8.5798  -15.8604 C   0  0  2  0  0  0  0  0  0  0  0  0
   19.9540   -9.7952  -16.6213 N   0  0  0  0  0  0  0  0  0  0  0  0
   19.0684   -7.7517  -15.7957 C   0  0  0  0  0  0  0  0  0  0  0  0
   18.8046   -7.0125  -14.6360 O   0  0  0  0  0  0  0  0  0  0  0  0
   22.2436   -6.4691  -14.5224 C   0  0  0  0  0  0  0  0  0  0  0  0
   22.4305   -5.2681  -13.8858 C   0  0  0  0  0  0  0  0  0  0  0  0
   18.2243   -7.6512  -16.7355 O   0  0  0  0  0  0  0  0  0  0  0  0
  1  2  1  0
  3  2  1  0
  4  5  1  0
  4  3  1  0
  5  6  1  1
  5  1  1  0
  6  7  2  0
  9  8  1  6
  9 10  1  0
 11  9  1  0
 12 11  1  1
 13 12  1  0
 13  6  1  0
 14 12  1  0
 14 15  2  0
 16 17  1  0
 17 18  2  0
 17 27  1  0
 18 19  1  0
 19 20  2  0
 20 21  1  0
 22 21  1  6
 22 23  1  0
 22 24  1  0
 23 14  1  0
 24 28  2  0
 24 25  1  0
 26 20  1  0
 27 26  2  0
M  END
$$$$
