PLY.pdb
     RDKit          3D

 28 29  0  0  1  0  0  0  0  0999 V2000
   27.6950  -19.5612  -19.1545 N   0  0  0  0  0  0  0  0  0  0  0  0
   29.0556  -19.4191  -19.6004 C   0  0  0  0  0  0  0  0  0  0  0  0
   29.5052  -20.7760  -20.0860 C   0  0  0  0  0  0  0  0  0  0  0  0
   28.6111  -21.7461  -19.3489 C   0  0  0  0  0  0  0  0  0  0  0  0
   27.3817  -20.9472  -19.0800 C   0  0  1  0  0  0  0  0  0  0  0  0
   26.7324  -21.2633  -17.7879 C   0  0  0  0  0  0  0  0  0  0  0  0
   26.3649  -22.4173  -17.5021 O   0  0  0  0  0  0  0  0  0  0  0  0
   28.8276  -19.3530  -13.4138 C   0  0  0  0  0  0  0  0  0  0  0  0
   28.2093  -20.1214  -14.6064 C   0  0  1  0  0  0  0  0  0  0  0  0
   28.7763  -21.4923  -14.5570 C   0  0  0  0  0  0  0  0  0  0  0  0
   26.7502  -19.9692  -14.4604 C   0  0  0  0  0  0  0  0  0  0  0  0
   25.8612  -20.4071  -15.5598 C   0  0  2  0  0  0  0  0  0  0  0  0
   26.5138  -20.2345  -16.8341 N   0  0  0  0  0  0  0  0  0  0  0  0
   24.5135  -19.8157  -15.5152 C   0  0  0  0  0  0  0  0  0  0  0  0
   23.7935  -20.0556  -14.5196 O   0  0  0  0  0  0  0  0  0  0  0  0
   16.9212  -15.9107  -17.6688 O   0  0  0  0  0  0  0  0  0  0  0  0
   18.2633  -16.2575  -17.6085 C   0  0  0  0  0  0  0  0  0  0  0  0
   18.8191  -17.0537  -18.5842 C   0  0  0  0  0  0  0  0  0  0  0  0
   20.1513  -17.4044  -18.5343 C   0  0  0  0  0  0  0  0  0  0  0  0
   20.9861  -16.9702  -17.5004 C   0  0  0  0  0  0  0  0  0  0  0  0
   22.4098  -17.3658  -17.4484 C   0  0  0  0  0  0  0  0  0  0  0  0
   22.5783  -18.5446  -16.5428 C   0  0  2  0  0  0  0  0  0  0  0  0
   23.9784  -18.9891  -16.5321 N   0  0  0  0  0  0  0  0  0  0  0  0
   21.7369  -19.6922  -16.8835 C   0  0  0  0  0  0  0  0  0  0  0  0
   20.5177  -19.8713  -16.2186 O   0  0  0  0  0  0  0  0  0  0  0  0
   20.3853  -16.1736  -16.5436 C   0  0  0  0  0  0  0  0  0  0  0  0
   19.0616  -15.8138  -16.5758 C   0  0  0  0  0  0  0  0  0  0  0  0
   22.0376  -20.5584  -17.7583 O   0  0  0  0  0  0  0  0  0  0  0  0
  1  2  1  0
  3  2  1  0
  4  5  1  0
  4  3  1  0
  5  6  1  1
  5  1  1  0
  6  7  2  0
  9  8  1  1
  9 10  1  0
 11  9  1  0
 12 11  1  1
 13 12  1  0
 13  6  1  0
 14 12  1  0
 14 15  2  0
 16 17  1  0
 17 18  2  0
 17 27  1  0
 18 19  1  0
 19 20  2  0
 20 21  1  0
 22 21  1  6
 22 23  1  0
 22 24  1  0
 23 14  1  0
 24 28  2  0
 24 25  1  0
 26 20  1  0
 27 26  2  0
M  END
$$$$
