TRT.pdb
     RDKit          3D

 26 25  0  0  1  0  0  0  0  0999 V2000
   27.0885  -19.3531  -15.5450 C   0  0  0  0  0  0  0  0  0  0  0  0
   27.3290  -20.7411  -16.1186 C   0  0  1  0  0  0  0  0  0  0  0  0
   28.4589  -20.6945  -16.8979 O   0  0  0  0  0  0  0  0  0  0  0  0
   27.3861  -21.7793  -15.0155 C   0  0  2  0  0  0  0  0  0  0  0  0
   27.5557  -23.0774  -15.6458 N   0  0  0  0  0  0  0  0  0  0  0  0
   26.1597  -21.7847  -14.1881 C   0  0  0  0  0  0  0  0  0  0  0  0
   25.1252  -22.3592  -14.6199 O   0  0  0  0  0  0  0  0  0  0  0  0
   21.8910  -21.9099   -7.1851 N   0  0  0  0  0  0  0  0  0  0  0  0
   21.0597  -21.6149   -8.3250 C   0  0  0  0  0  0  0  0  0  0  0  0
   19.7914  -21.6166   -8.2188 N   0  0  0  0  0  0  0  0  0  0  0  0
   21.6159  -21.3157   -9.5957 N   0  0  0  0  0  0  0  0  0  0  0  0
   23.0042  -21.4818   -9.8207 C   0  0  0  0  0  0  0  0  0  0  0  0
   23.7702  -20.2429  -10.1182 C   0  0  0  0  0  0  0  0  0  0  0  0
   25.1063  -20.5217  -10.7790 C   0  0  0  0  0  0  0  0  0  0  0  0
   24.8911  -21.0641  -12.1991 C   0  0  2  0  0  0  0  0  0  0  0  0
   26.1255  -21.1542  -12.9140 N   0  0  0  0  0  0  0  0  0  0  0  0
   23.8793  -20.2044  -12.8856 C   0  0  0  0  0  0  0  0  0  0  0  0
   24.0912  -18.9697  -12.8840 O   0  0  0  0  0  0  0  0  0  0  0  0
   19.0874  -21.4580   -8.9420 C   0  0  0  0  0  0  0  0  0  0  0  0
   22.7591  -20.1230  -16.4564 C   0  0  2  0  0  0  0  0  0  0  0  0
   21.5203  -20.3738  -15.6124 O   0  0  0  0  0  0  0  0  0  0  0  0
   21.2418  -21.7362  -15.6438 C   0  0  2  0  0  0  0  0  0  0  0  0
   21.7457  -19.9235  -14.1856 N   0  0  0  0  0  0  0  0  0  0  0  0
   22.7324  -20.7308  -13.5131 C   0  0  0  0  0  0  0  0  0  0  0  0
   20.4526  -20.0273  -13.4675 O   0  0  0  0  0  0  0  0  0  0  0  0
   19.3347  -19.2866  -13.7972 O   0  0  0  0  0  0  0  0  0  0  0  0
  2  4  1  0
  2  1  1  1
  3  2  1  0
  4  6  1  0
  4  5  1  6
  6  7  2  0
  9 11  1  0
  9  8  1  0
 10  9  2  0
 12 13  1  0
 12 11  1  0
 13 14  1  0
 15 14  1  1
 16 15  1  0
 16  6  1  0
 17 15  1  0
 17 18  2  0
 20 19  1  6
 20 22  1  0
 21 20  1  0
 22 23  1  1
 22 24  1  0
 23 17  1  0
 24 26  2  0
 24 25  1  0
M  END
$$$$
