TRT.pdb
     RDKit          3D

 26 25  0  0  1  0  0  0  0  0999 V2000
   26.5851  -10.3057  -14.9535 C   0  0  0  0  0  0  0  0  0  0  0  0
   26.8332  -10.7034  -16.4005 C   0  0  1  0  0  0  0  0  0  0  0  0
   28.0039  -11.4195  -16.4549 O   0  0  0  0  0  0  0  0  0  0  0  0
   25.6367  -11.4379  -16.9721 C   0  0  2  0  0  0  0  0  0  0  0  0
   25.9869  -11.8639  -18.3162 N   0  0  0  0  0  0  0  0  0  0  0  0
   24.4278  -10.5865  -17.0193 C   0  0  0  0  0  0  0  0  0  0  0  0
   24.2984   -9.7478  -17.9502 O   0  0  0  0  0  0  0  0  0  0  0  0
   15.9707  -11.2600  -14.4446 N   0  0  0  0  0  0  0  0  0  0  0  0
   16.1031   -9.9741  -15.0821 C   0  0  0  0  0  0  0  0  0  0  0  0
   15.0732   -9.2779  -15.3549 N   0  0  0  0  0  0  0  0  0  0  0  0
   17.3718   -9.4405  -15.4276 N   0  0  0  0  0  0  0  0  0  0  0  0
   18.5325  -10.2459  -15.3284 C   0  0  0  0  0  0  0  0  0  0  0  0
   19.8081   -9.6071  -15.7464 C   0  0  0  0  0  0  0  0  0  0  0  0
   21.0020  -10.5321  -15.6089 C   0  0  0  0  0  0  0  0  0  0  0  0
   22.2786   -9.8217  -16.0810 C   0  0  2  0  0  0  0  0  0  0  0  0
   23.4079  -10.6964  -16.0345 N   0  0  0  0  0  0  0  0  0  0  0  0
   22.4625   -8.5852  -15.2615 C   0  0  0  0  0  0  0  0  0  0  0  0
   22.8589   -8.7409  -14.0834 O   0  0  0  0  0  0  0  0  0  0  0  0
   15.0208   -8.3497  -15.7784 C   0  0  0  0  0  0  0  0  0  0  0  0
   24.7029   -5.5422  -15.9465 C   0  0  2  0  0  0  0  0  0  0  0  0
   23.2612   -5.0805  -15.8125 O   0  0  0  0  0  0  0  0  0  0  0  0
   22.7292   -4.9408  -17.0901 C   0  0  2  0  0  0  0  0  0  0  0  0
   22.4506   -6.0827  -15.0201 N   0  0  0  0  0  0  0  0  0  0  0  0
   22.2099   -7.2933  -15.7646 C   0  0  0  0  0  0  0  0  0  0  0  0
   21.1541   -5.4491  -14.6787 O   0  0  0  0  0  0  0  0  0  0  0  0
   19.9369   -5.8983  -15.1516 O   0  0  0  0  0  0  0  0  0  0  0  0
  2  4  1  0
  2  1  1  1
  3  2  1  0
  4  6  1  0
  4  5  1  6
  6  7  2  0
  9 11  1  0
  9  8  1  0
 10  9  2  0
 12 13  1  0
 12 11  1  0
 13 14  1  0
 15 14  1  1
 16 15  1  0
 16  6  1  0
 17 15  1  0
 17 18  2  0
 20 19  1  6
 20 22  1  0
 21 20  1  0
 22 23  1  1
 22 24  1  0
 23 17  1  0
 24 26  2  0
 24 25  1  0
M  END
$$$$
