TRT.pdb
     RDKit          3D

 26 25  0  0  1  0  0  0  0  0999 V2000
   26.7233  -18.9193  -15.9491 C   0  0  0  0  0  0  0  0  0  0  0  0
   27.1429  -20.2019  -16.6509 C   0  0  1  0  0  0  0  0  0  0  0  0
   28.1615  -19.9019  -17.5219 O   0  0  0  0  0  0  0  0  0  0  0  0
   27.4932  -21.2794  -15.6438 C   0  0  2  0  0  0  0  0  0  0  0  0
   27.8715  -22.4677  -16.3892 N   0  0  0  0  0  0  0  0  0  0  0  0
   26.3608  -21.5952  -14.7456 C   0  0  0  0  0  0  0  0  0  0  0  0
   25.4197  -22.3181  -15.1681 O   0  0  0  0  0  0  0  0  0  0  0  0
   21.3258  -20.5968   -9.1405 N   0  0  0  0  0  0  0  0  0  0  0  0
   22.0651  -21.1966   -8.0583 C   0  0  0  0  0  0  0  0  0  0  0  0
   21.4570  -21.7772   -7.1028 N   0  0  0  0  0  0  0  0  0  0  0  0
   23.4830  -21.1628   -8.0154 N   0  0  0  0  0  0  0  0  0  0  0  0
   24.2067  -20.4429   -8.9971 C   0  0  0  0  0  0  0  0  0  0  0  0
   24.0622  -20.9221  -10.3969 C   0  0  0  0  0  0  0  0  0  0  0  0
   25.3719  -20.9093  -11.1613 C   0  0  0  0  0  0  0  0  0  0  0  0
   25.1287  -21.2709  -12.6335 C   0  0  2  0  0  0  0  0  0  0  0  0
   26.3137  -21.0991  -13.4138 N   0  0  0  0  0  0  0  0  0  0  0  0
   23.9760  -20.4623  -13.1350 C   0  0  0  0  0  0  0  0  0  0  0  0
   24.0289  -19.2247  -12.9478 O   0  0  0  0  0  0  0  0  0  0  0  0
   21.8468  -22.2047   -6.2607 C   0  0  0  0  0  0  0  0  0  0  0  0
   22.5343  -19.9736  -16.5799 C   0  0  2  0  0  0  0  0  0  0  0  0
   21.4245  -20.5306  -15.7037 O   0  0  0  0  0  0  0  0  0  0  0  0
   21.3224  -21.8962  -15.9476 C   0  0  2  0  0  0  0  0  0  0  0  0
   21.7250  -20.2863  -14.2410 N   0  0  0  0  0  0  0  0  0  0  0  0
   22.8696  -21.0380  -13.7910 C   0  0  0  0  0  0  0  0  0  0  0  0
   20.5320  -20.6912  -13.4590 O   0  0  0  0  0  0  0  0  0  0  0  0
   20.5366  -21.7191  -12.5368 O   0  0  0  0  0  0  0  0  0  0  0  0
  2  4  1  0
  2  1  1  1
  3  2  1  0
  4  6  1  0
  4  5  1  6
  6  7  2  0
  9 11  1  0
  9  8  1  0
 10  9  2  0
 12 13  1  0
 12 11  1  0
 13 14  1  0
 15 14  1  1
 16 15  1  0
 16  6  1  0
 17 15  1  0
 17 18  2  0
 20 19  1  6
 20 22  1  0
 21 20  1  0
 22 23  1  1
 22 24  1  0
 23 17  1  0
 24 26  2  0
 24 25  1  0
M  END
$$$$
