TRT.pdb
     RDKit          3D

 26 25  0  0  1  0  0  0  0  0999 V2000
   25.4693  -13.1153  -15.0073 C   0  0  0  0  0  0  0  0  0  0  0  0
   25.3600  -13.9477  -16.2757 C   0  0  1  0  0  0  0  0  0  0  0  0
   26.3433  -14.9062  -16.2469 O   0  0  0  0  0  0  0  0  0  0  0  0
   23.9606  -14.5079  -16.4357 C   0  0  2  0  0  0  0  0  0  0  0  0
   23.9695  -15.3803  -17.5974 N   0  0  0  0  0  0  0  0  0  0  0  0
   22.9496  -13.4437  -16.6206 C   0  0  0  0  0  0  0  0  0  0  0  0
   22.8960  -12.8259  -17.7170 O   0  0  0  0  0  0  0  0  0  0  0  0
   14.7315  -11.9337  -13.7724 N   0  0  0  0  0  0  0  0  0  0  0  0
   15.0351  -10.8694  -14.6957 C   0  0  0  0  0  0  0  0  0  0  0  0
   14.1365  -10.0375  -15.0425 N   0  0  0  0  0  0  0  0  0  0  0  0
   16.3321  -10.7097  -15.2487 N   0  0  0  0  0  0  0  0  0  0  0  0
   17.3484  -11.6532  -14.9613 C   0  0  0  0  0  0  0  0  0  0  0  0
   18.6865  -11.3691  -15.5432 C   0  0  0  0  0  0  0  0  0  0  0  0
   19.6882  -12.4778  -15.2841 C   0  0  0  0  0  0  0  0  0  0  0  0
   21.0761  -12.0672  -15.7964 C   0  0  2  0  0  0  0  0  0  0  0  0
   22.0363  -13.1044  -15.5848 N   0  0  0  0  0  0  0  0  0  0  0  0
   21.4573  -10.7762  -15.1467 C   0  0  0  0  0  0  0  0  0  0  0  0
   21.9249  -10.8429  -13.9864 O   0  0  0  0  0  0  0  0  0  0  0  0
   14.2046   -9.2563  -15.6973 C   0  0  0  0  0  0  0  0  0  0  0  0
   23.9091   -8.0352  -16.3274 C   0  0  2  0  0  0  0  0  0  0  0  0
   22.5265   -7.4325  -16.1410 O   0  0  0  0  0  0  0  0  0  0  0  0
   21.9085   -7.3698  -17.3856 C   0  0  2  0  0  0  0  0  0  0  0  0
   21.6999   -8.2742  -15.1935 N   0  0  0  0  0  0  0  0  0  0  0  0
   21.3088   -9.5288  -15.7856 C   0  0  0  0  0  0  0  0  0  0  0  0
   20.4871   -7.4986  -14.8380 O   0  0  0  0  0  0  0  0  0  0  0  0
   20.5192   -6.3135  -14.1298 O   0  0  0  0  0  0  0  0  0  0  0  0
  2  4  1  0
  2  1  1  1
  3  2  1  0
  4  6  1  0
  4  5  1  6
  6  7  2  0
  9 11  1  0
  9  8  1  0
 10  9  2  0
 12 13  1  0
 12 11  1  0
 13 14  1  0
 15 14  1  1
 16 15  1  0
 16  6  1  0
 17 15  1  0
 17 18  2  0
 20 19  1  6
 20 22  1  0
 21 20  1  0
 22 23  1  1
 22 24  1  0
 23 17  1  0
 24 26  2  0
 24 25  1  0
M  END
$$$$
