TRT.pdb
     RDKit          3D

 26 25  0  0  1  0  0  0  0  0999 V2000
   19.2369  -15.4755  -15.1175 C   0  0  0  0  0  0  0  0  0  0  0  0
   20.3689  -16.0694  -15.9418 C   0  0  1  0  0  0  0  0  0  0  0  0
   19.9656  -16.1183  -17.2537 O   0  0  0  0  0  0  0  0  0  0  0  0
   21.6573  -15.3011  -15.7235 C   0  0  2  0  0  0  0  0  0  0  0  0
   21.4650  -13.9644  -16.2596 N   0  0  0  0  0  0  0  0  0  0  0  0
   22.8115  -15.9430  -16.3901 C   0  0  0  0  0  0  0  0  0  0  0  0
   22.9261  -15.8615  -17.6419 O   0  0  0  0  0  0  0  0  0  0  0  0
   26.1287  -20.7368  -12.0421 N   0  0  0  0  0  0  0  0  0  0  0  0
   27.1036  -20.7416  -13.1037 C   0  0  0  0  0  0  0  0  0  0  0  0
   27.3685  -21.8149  -13.7343 N   0  0  0  0  0  0  0  0  0  0  0  0
   27.7991  -19.5641  -13.4824 N   0  0  0  0  0  0  0  0  0  0  0  0
   27.1569  -18.3041  -13.4069 C   0  0  0  0  0  0  0  0  0  0  0  0
   25.9234  -18.1501  -14.2222 C   0  0  0  0  0  0  0  0  0  0  0  0
   26.1440  -17.3201  -15.4720 C   0  0  0  0  0  0  0  0  0  0  0  0
   24.8690  -17.3021  -16.3270 C   0  0  2  0  0  0  0  0  0  0  0  0
   23.7950  -16.6505  -15.6455 N   0  0  0  0  0  0  0  0  0  0  0  0
   24.5443  -18.7067  -16.7218 C   0  0  0  0  0  0  0  0  0  0  0  0
   24.0668  -19.4486  -15.8323 O   0  0  0  0  0  0  0  0  0  0  0  0
   28.0946  -21.9856  -14.4324 C   0  0  0  0  0  0  0  0  0  0  0  0
   22.2012  -20.2309  -19.4464 C   0  0  2  0  0  0  0  0  0  0  0  0
   23.6526  -20.5971  -19.7095 O   0  0  0  0  0  0  0  0  0  0  0  0
   24.1696  -19.6904  -20.6290 C   0  0  2  0  0  0  0  0  0  0  0  0
   24.4560  -20.5511  -18.4282 N   0  0  0  0  0  0  0  0  0  0  0  0
   24.7546  -19.1998  -18.0252 C   0  0  0  0  0  0  0  0  0  0  0  0
   25.7225  -21.2866  -18.6601 O   0  0  0  0  0  0  0  0  0  0  0  0
   25.7798  -22.6355  -18.9500 O   0  0  0  0  0  0  0  0  0  0  0  0
  2  4  1  0
  2  1  1  1
  3  2  1  0
  4  6  1  0
  4  5  1  6
  6  7  2  0
  9 11  1  0
  9  8  1  0
 10  9  2  0
 12 13  1  0
 12 11  1  0
 13 14  1  0
 15 14  1  1
 16 15  1  0
 16  6  1  0
 17 15  1  0
 17 18  2  0
 20 19  1  6
 20 22  1  0
 21 20  1  0
 22 23  1  1
 22 24  1  0
 23 17  1  0
 24 26  2  0
 24 25  1  0
M  END
$$$$
