TRT.pdb
     RDKit          3D

 26 25  0  0  1  0  0  0  0  0999 V2000
   26.7257  -25.1490  -17.2781 C   0  0  0  0  0  0  0  0  0  0  0  0
   25.5636  -26.1133  -17.0955 C   0  0  1  0  0  0  0  0  0  0  0  0
   26.0137  -27.3838  -17.3591 O   0  0  0  0  0  0  0  0  0  0  0  0
   24.9404  -25.9549  -15.7228 C   0  0  2  0  0  0  0  0  0  0  0  0
   23.7708  -26.8155  -15.6722 N   0  0  0  0  0  0  0  0  0  0  0  0
   24.5416  -24.5571  -15.4472 C   0  0  0  0  0  0  0  0  0  0  0  0
   23.5241  -24.0809  -16.0169 O   0  0  0  0  0  0  0  0  0  0  0  0
   26.5308  -20.7121   -8.9570 N   0  0  0  0  0  0  0  0  0  0  0  0
   25.0964  -20.7488   -9.0943 C   0  0  0  0  0  0  0  0  0  0  0  0
   24.3631  -21.1292   -8.1262 N   0  0  0  0  0  0  0  0  0  0  0  0
   24.4532  -20.3678  -10.3004 N   0  0  0  0  0  0  0  0  0  0  0  0
   25.2199  -19.9227  -11.4049 C   0  0  0  0  0  0  0  0  0  0  0  0
   24.8300  -20.4672  -12.7321 C   0  0  0  0  0  0  0  0  0  0  0  0
   25.3293  -21.8812  -12.9576 C   0  0  0  0  0  0  0  0  0  0  0  0
   24.8977  -22.3798  -14.3441 C   0  0  2  0  0  0  0  0  0  0  0  0
   25.2843  -23.7401  -14.5511 N   0  0  0  0  0  0  0  0  0  0  0  0
   25.4529  -21.4507  -15.3749 C   0  0  0  0  0  0  0  0  0  0  0  0
   26.7007  -21.3617  -15.4431 O   0  0  0  0  0  0  0  0  0  0  0  0
   23.3485  -21.2447   -8.0975 C   0  0  0  0  0  0  0  0  0  0  0  0
   24.6978  -21.3693  -19.2202 C   0  0  2  0  0  0  0  0  0  0  0  0
   24.3800  -20.0261  -18.5844 O   0  0  0  0  0  0  0  0  0  0  0  0
   23.0120  -19.9745  -18.3385 C   0  0  2  0  0  0  0  0  0  0  0  0
   25.1461  -19.8524  -17.2912 N   0  0  0  0  0  0  0  0  0  0  0  0
   24.6354  -20.6987  -16.2422 C   0  0  0  0  0  0  0  0  0  0  0  0
   25.0266  -18.4327  -16.8802 O   0  0  0  0  0  0  0  0  0  0  0  0
   25.5768  -17.3836  -17.5898 O   0  0  0  0  0  0  0  0  0  0  0  0
  2  4  1  0
  2  1  1  1
  3  2  1  0
  4  6  1  0
  4  5  1  6
  6  7  2  0
  9 11  1  0
  9  8  1  0
 10  9  2  0
 12 13  1  0
 12 11  1  0
 13 14  1  0
 15 14  1  1
 16 15  1  0
 16  6  1  0
 17 15  1  0
 17 18  2  0
 20 19  1  6
 20 22  1  0
 21 20  1  0
 22 23  1  6
 22 24  1  0
 23 17  1  0
 24 26  2  0
 24 25  1  0
M  END
$$$$
