TRT.pdb
     RDKit          3D

 26 25  0  0  1  0  0  0  0  0999 V2000
   22.3291   -9.9385  -13.9704 C   0  0  0  0  0  0  0  0  0  0  0  0
   21.0454   -9.3262  -13.4312 C   0  0  1  0  0  0  0  0  0  0  0  0
   21.0925   -7.9705  -13.6460 O   0  0  0  0  0  0  0  0  0  0  0  0
   19.8296  -10.0017  -14.0339 C   0  0  2  0  0  0  0  0  0  0  0  0
   19.8373   -9.7236  -15.4599 N   0  0  0  0  0  0  0  0  0  0  0  0
   18.5660   -9.5139  -13.4389 C   0  0  0  0  0  0  0  0  0  0  0  0
   17.9323   -8.5861  -14.0085 O   0  0  0  0  0  0  0  0  0  0  0  0
   11.8958  -13.4524   -9.5922 N   0  0  0  0  0  0  0  0  0  0  0  0
   12.7606  -13.5224  -10.7431 C   0  0  0  0  0  0  0  0  0  0  0  0
   12.8006  -14.5735  -11.4596 N   0  0  0  0  0  0  0  0  0  0  0  0
   13.5925  -12.4355  -11.1175 N   0  0  0  0  0  0  0  0  0  0  0  0
   13.6603  -11.2790  -10.3030 C   0  0  0  0  0  0  0  0  0  0  0  0
   14.5805  -10.2072  -10.7663 C   0  0  0  0  0  0  0  0  0  0  0  0
   15.9085  -10.7459  -11.2625 C   0  0  0  0  0  0  0  0  0  0  0  0
   16.8183   -9.5891  -11.6998 C   0  0  2  0  0  0  0  0  0  0  0  0
   18.0519  -10.0720  -12.2363 N   0  0  0  0  0  0  0  0  0  0  0  0
   17.0068   -8.6697  -10.5365 C   0  0  0  0  0  0  0  0  0  0  0  0
   17.7387   -9.0778   -9.6053 O   0  0  0  0  0  0  0  0  0  0  0  0
   13.3594  -14.7593  -12.2944 C   0  0  0  0  0  0  0  0  0  0  0  0
   18.5144   -5.2243  -10.4596 C   0  0  2  0  0  0  0  0  0  0  0  0
   17.1046   -5.1196   -9.9017 O   0  0  0  0  0  0  0  0  0  0  0  0
   16.2671   -4.6731  -10.9184 C   0  0  2  0  0  0  0  0  0  0  0  0
   16.6306   -6.4630   -9.3919 N   0  0  0  0  0  0  0  0  0  0  0  0
   16.4024   -7.3986  -10.4643 C   0  0  0  0  0  0  0  0  0  0  0  0
   15.3648   -6.2461   -8.6506 O   0  0  0  0  0  0  0  0  0  0  0  0
   15.2839   -5.5342   -7.4700 O   0  0  0  0  0  0  0  0  0  0  0  0
  2  4  1  0
  2  1  1  6
  3  2  1  0
  4  6  1  0
  4  5  1  6
  6  7  2  0
  9 11  1  0
  9  8  1  0
 10  9  2  0
 12 13  1  0
 12 11  1  0
 13 14  1  0
 15 14  1  1
 16 15  1  0
 16  6  1  0
 17 15  1  0
 17 18  2  0
 20 19  1  1
 20 22  1  0
 21 20  1  0
 22 23  1  1
 22 24  1  0
 23 17  1  0
 24 26  2  0
 24 25  1  0
M  END
$$$$
