TRT.pdb
     RDKit          3D

 26 25  0  0  1  0  0  0  0  0999 V2000
   15.9185  -23.9914  -10.8697 C   0  0  0  0  0  0  0  0  0  0  0  0
   16.4043  -25.2703  -11.5346 C   0  0  1  0  0  0  0  0  0  0  0  0
   15.8032  -25.3700  -12.7655 O   0  0  0  0  0  0  0  0  0  0  0  0
   17.9187  -25.3114  -11.5854 C   0  0  2  0  0  0  0  0  0  0  0  0
   18.3001  -26.5468  -12.2484 N   0  0  0  0  0  0  0  0  0  0  0  0
   18.5254  -25.2629  -10.2370 C   0  0  0  0  0  0  0  0  0  0  0  0
   18.5401  -26.3039   -9.5279 O   0  0  0  0  0  0  0  0  0  0  0  0
   22.1032  -20.6739  -11.8088 N   0  0  0  0  0  0  0  0  0  0  0  0
   21.2155  -19.6290  -11.3644 C   0  0  0  0  0  0  0  0  0  0  0  0
   20.7487  -18.7813  -12.1910 N   0  0  0  0  0  0  0  0  0  0  0  0
   20.8324  -19.5051  -10.0037 N   0  0  0  0  0  0  0  0  0  0  0  0
   21.0859  -20.5613   -9.0950 C   0  0  0  0  0  0  0  0  0  0  0  0
   20.2396  -21.7736   -9.2505 C   0  0  0  0  0  0  0  0  0  0  0  0
   20.4453  -22.7816   -8.1364 C   0  0  0  0  0  0  0  0  0  0  0  0
   19.5790  -24.0252   -8.3816 C   0  0  2  0  0  0  0  0  0  0  0  0
   19.0931  -24.0638   -9.7251 N   0  0  0  0  0  0  0  0  0  0  0  0
   18.4850  -24.0480   -7.3633 C   0  0  0  0  0  0  0  0  0  0  0  0
   17.6512  -23.1140   -7.4075 O   0  0  0  0  0  0  0  0  0  0  0  0
   20.1560  -17.9691  -12.0103 C   0  0  0  0  0  0  0  0  0  0  0  0
   15.5852  -25.9821   -6.9996 C   0  0  2  0  0  0  0  0  0  0  0  0
   16.3390  -26.2441   -5.7062 O   0  0  0  0  0  0  0  0  0  0  0  0
   17.0267  -27.4457   -5.8399 C   0  0  2  0  0  0  0  0  0  0  0  0
   17.3099  -25.1205   -5.4165 N   0  0  0  0  0  0  0  0  0  0  0  0
   18.3724  -25.0596   -6.3887 C   0  0  0  0  0  0  0  0  0  0  0  0
   17.8870  -25.3551   -4.0709 O   0  0  0  0  0  0  0  0  0  0  0  0
   17.1414  -25.3481   -2.9086 O   0  0  0  0  0  0  0  0  0  0  0  0
  2  4  1  0
  2  1  1  6
  3  2  1  0
  4  6  1  0
  4  5  1  1
  6  7  2  0
  9 11  1  0
  9  8  1  0
 10  9  2  0
 12 13  1  0
 12 11  1  0
 13 14  1  0
 15 14  1  6
 16 15  1  0
 16  6  1  0
 17 15  1  0
 17 18  2  0
 20 19  1  1
 20 22  1  0
 21 20  1  0
 22 23  1  1
 22 24  1  0
 23 17  1  0
 24 26  2  0
 24 25  1  0
M  END
$$$$
