TRT.pdb
     RDKit          3D

 26 25  0  0  1  0  0  0  0  0999 V2000
   29.1425  -20.1848  -18.3811 C   0  0  0  0  0  0  0  0  0  0  0  0
   27.9117  -20.4709  -17.5344 C   0  0  1  0  0  0  0  0  0  0  0  0
   26.8448  -20.6625  -18.3778 O   0  0  0  0  0  0  0  0  0  0  0  0
   28.1631  -21.6289  -16.5891 C   0  0  2  0  0  0  0  0  0  0  0  0
   28.3560  -22.8197  -17.3987 N   0  0  0  0  0  0  0  0  0  0  0  0
   27.0377  -21.8412  -15.6526 C   0  0  0  0  0  0  0  0  0  0  0  0
   26.1563  -22.6974  -15.9294 O   0  0  0  0  0  0  0  0  0  0  0  0
   22.3392  -20.3718   -8.6381 N   0  0  0  0  0  0  0  0  0  0  0  0
   23.5358  -21.0559   -8.2166 C   0  0  0  0  0  0  0  0  0  0  0  0
   23.5390  -21.7609   -7.1570 N   0  0  0  0  0  0  0  0  0  0  0  0
   24.7433  -20.9702   -8.9569 N   0  0  0  0  0  0  0  0  0  0  0  0
   24.8308  -20.1078  -10.0768 C   0  0  0  0  0  0  0  0  0  0  0  0
   24.7163  -20.7554  -11.4100 C   0  0  0  0  0  0  0  0  0  0  0  0
   25.9755  -20.6133  -12.2432 C   0  0  0  0  0  0  0  0  0  0  0  0
   25.7590  -21.2203  -13.6366 C   0  0  2  0  0  0  0  0  0  0  0  0
   26.9312  -21.0977  -14.4451 N   0  0  0  0  0  0  0  0  0  0  0  0
   24.5560  -20.5795  -14.2501 C   0  0  0  0  0  0  0  0  0  0  0  0
   24.5825  -19.3337  -14.3796 O   0  0  0  0  0  0  0  0  0  0  0  0
   24.3072  -22.2918   -6.7427 C   0  0  0  0  0  0  0  0  0  0  0  0
   22.9184  -20.8727  -17.6164 C   0  0  2  0  0  0  0  0  0  0  0  0
   21.8910  -21.2898  -16.5771 O   0  0  0  0  0  0  0  0  0  0  0  0
   21.8718  -22.6794  -16.5183 C   0  0  2  0  0  0  0  0  0  0  0  0
   22.2408  -20.7183  -15.2205 N   0  0  0  0  0  0  0  0  0  0  0  0
   23.4317  -21.3171  -14.6721 C   0  0  0  0  0  0  0  0  0  0  0  0
   21.0977  -20.9750  -14.3116 O   0  0  0  0  0  0  0  0  0  0  0  0
   19.8521  -20.4003  -14.4703 O   0  0  0  0  0  0  0  0  0  0  0  0
  2  4  1  0
  2  1  1  6
  3  2  1  0
  4  6  1  0
  4  5  1  6
  6  7  2  0
  9 11  1  0
  9  8  1  0
 10  9  2  0
 12 13  1  0
 12 11  1  0
 13 14  1  0
 15 14  1  1
 16 15  1  0
 16  6  1  0
 17 15  1  0
 17 18  2  0
 20 19  1  6
 20 22  1  0
 21 20  1  0
 22 23  1  1
 22 24  1  0
 23 17  1  0
 24 26  2  0
 24 25  1  0
M  END
$$$$
