TRT.pdb
     RDKit          3D

 26 25  0  0  1  0  0  0  0  0999 V2000
   28.0346  -21.9289  -17.1358 C   0  0  0  0  0  0  0  0  0  0  0  0
   28.8756  -20.6619  -17.1690 C   0  0  1  0  0  0  0  0  0  0  0  0
   29.9113  -20.8563  -18.0497 O   0  0  0  0  0  0  0  0  0  0  0  0
   28.0186  -19.4524  -17.4859 C   0  0  2  0  0  0  0  0  0  0  0  0
   28.8959  -18.2952  -17.5313 N   0  0  0  0  0  0  0  0  0  0  0  0
   26.9611  -19.2353  -16.4744 C   0  0  0  0  0  0  0  0  0  0  0  0
   27.2818  -18.8587  -15.3159 O   0  0  0  0  0  0  0  0  0  0  0  0
   19.6452  -21.4075  -16.4411 N   0  0  0  0  0  0  0  0  0  0  0  0
   19.2069  -20.6494  -15.2961 C   0  0  0  0  0  0  0  0  0  0  0  0
   18.2826  -21.0926  -14.5418 N   0  0  0  0  0  0  0  0  0  0  0  0
   19.7811  -19.3936  -14.9695 N   0  0  0  0  0  0  0  0  0  0  0  0
   20.7785  -18.8300  -15.8021 C   0  0  0  0  0  0  0  0  0  0  0  0
   22.1713  -18.8922  -15.2863 C   0  0  0  0  0  0  0  0  0  0  0  0
   23.1897  -19.1732  -16.3743 C   0  0  0  0  0  0  0  0  0  0  0  0
   24.5975  -19.2684  -15.7694 C   0  0  2  0  0  0  0  0  0  0  0  0
   25.5888  -19.4431  -16.7840 N   0  0  0  0  0  0  0  0  0  0  0  0
   24.6024  -20.3638  -14.7524 C   0  0  0  0  0  0  0  0  0  0  0  0
   24.5480  -21.5382  -15.1854 O   0  0  0  0  0  0  0  0  0  0  0  0
   17.8526  -20.6503  -13.7275 C   0  0  0  0  0  0  0  0  0  0  0  0
   27.0598  -21.2198  -11.9617 C   0  0  2  0  0  0  0  0  0  0  0  0
   25.6938  -21.0092  -11.3299 O   0  0  0  0  0  0  0  0  0  0  0  0
   25.6635  -19.7340  -10.7752 C   0  0  2  0  0  0  0  0  0  0  0  0
   24.5989  -21.1506  -12.3645 N   0  0  0  0  0  0  0  0  0  0  0  0
   24.6647  -20.1165  -13.3665 C   0  0  0  0  0  0  0  0  0  0  0  0
   23.2963  -21.0714  -11.6605 O   0  0  0  0  0  0  0  0  0  0  0  0
   22.8838  -21.9871  -10.7127 O   0  0  0  0  0  0  0  0  0  0  0  0
  2  4  1  0
  2  1  1  6
  3  2  1  0
  4  6  1  0
  4  5  1  1
  6  7  2  0
  9 11  1  0
  9  8  1  0
 10  9  2  0
 12 13  1  0
 12 11  1  0
 13 14  1  0
 15 14  1  6
 16 15  1  0
 16  6  1  0
 17 15  1  0
 17 18  2  0
 20 19  1  1
 20 22  1  0
 21 20  1  0
 22 23  1  1
 22 24  1  0
 23 17  1  0
 24 26  2  0
 24 25  1  0
M  END
$$$$
