TRT.pdb
     RDKit          3D

 26 25  0  0  1  0  0  0  0  0999 V2000
   27.0481  -13.5949  -15.5960 C   0  0  0  0  0  0  0  0  0  0  0  0
   26.2051  -14.8585  -15.6759 C   0  0  1  0  0  0  0  0  0  0  0  0
   25.0230  -14.5479  -16.3024 O   0  0  0  0  0  0  0  0  0  0  0  0
   26.9761  -15.9815  -16.3409 C   0  0  2  0  0  0  0  0  0  0  0  0
   27.2778  -15.5602  -17.6983 N   0  0  0  0  0  0  0  0  0  0  0  0
   26.2084  -17.2457  -16.3716 C   0  0  0  0  0  0  0  0  0  0  0  0
   25.5086  -17.5196  -17.3826 O   0  0  0  0  0  0  0  0  0  0  0  0
   26.8652  -20.1005   -9.6872 N   0  0  0  0  0  0  0  0  0  0  0  0
   25.5714  -20.7353   -9.7149 C   0  0  0  0  0  0  0  0  0  0  0  0
   24.7847  -20.6449   -8.7185 N   0  0  0  0  0  0  0  0  0  0  0  0
   25.1296  -21.4781  -10.8403 N   0  0  0  0  0  0  0  0  0  0  0  0
   25.8151  -21.3727  -12.0750 C   0  0  0  0  0  0  0  0  0  0  0  0
   25.2991  -20.3504  -13.0230 C   0  0  0  0  0  0  0  0  0  0  0  0
   25.9661  -20.4196  -14.3832 C   0  0  0  0  0  0  0  0  0  0  0  0
   25.4121  -19.3201  -15.3005 C   0  0  2  0  0  0  0  0  0  0  0  0
   26.2451  -18.1589  -15.2821 N   0  0  0  0  0  0  0  0  0  0  0  0
   24.0014  -19.0342  -14.8977 C   0  0  0  0  0  0  0  0  0  0  0  0
   23.8332  -18.4445  -13.8052 O   0  0  0  0  0  0  0  0  0  0  0  0
   23.8515  -21.0434   -8.6004 C   0  0  0  0  0  0  0  0  0  0  0  0
   20.7535  -19.5407  -17.6937 C   0  0  2  0  0  0  0  0  0  0  0  0
   20.7970  -18.5023  -16.5849 O   0  0  0  0  0  0  0  0  0  0  0  0
   19.4886  -18.1796  -16.2403 C   0  0  1  0  0  0  0  0  0  0  0  0
   21.5334  -19.0403  -15.3775 N   0  0  0  0  0  0  0  0  0  0  0  0
   22.8941  -19.3990  -15.6896 C   0  0  0  0  0  0  0  0  0  0  0  0
   20.8054  -20.2404  -14.8996 O   0  0  0  0  0  0  0  0  0  0  0  0
   19.5260  -20.2012  -14.3814 O   0  0  0  0  0  0  0  0  0  0  0  0
  2  4  1  0
  2  1  1  6
  3  2  1  0
  4  6  1  0
  4  5  1  6
  6  7  2  0
  9 11  1  0
  9  8  1  0
 10  9  2  0
 12 13  1  0
 12 11  1  0
 13 14  1  0
 15 14  1  1
 16 15  1  0
 16  6  1  0
 17 15  1  0
 17 18  2  0
 20 19  1  6
 20 22  1  0
 21 20  1  0
 22 23  1  6
 22 24  1  0
 23 17  1  0
 24 26  2  0
 24 25  1  0
M  END
$$$$
