TRT.pdb
     RDKit          3D

 26 25  0  0  1  0  0  0  0  0999 V2000
   16.1651   -8.0540  -16.1143 C   0  0  0  0  0  0  0  0  0  0  0  0
   16.0342   -9.3344  -15.3037 C   0  0  1  0  0  0  0  0  0  0  0  0
   14.7240   -9.7431  -15.3541 O   0  0  0  0  0  0  0  0  0  0  0  0
   17.0226  -10.3798  -15.7812 C   0  0  2  0  0  0  0  0  0  0  0  0
   16.8473  -11.5585  -14.9500 N   0  0  0  0  0  0  0  0  0  0  0  0
   18.4224   -9.9099  -15.6891 C   0  0  0  0  0  0  0  0  0  0  0  0
   18.9578   -9.7811  -14.5562 O   0  0  0  0  0  0  0  0  0  0  0  0
   23.3549  -10.7994  -22.4564 N   0  0  0  0  0  0  0  0  0  0  0  0
   23.0211  -11.9303  -21.6275 C   0  0  0  0  0  0  0  0  0  0  0  0
   23.2459  -13.1166  -22.0302 N   0  0  0  0  0  0  0  0  0  0  0  0
   22.4347  -11.7676  -20.3457 N   0  0  0  0  0  0  0  0  0  0  0  0
   22.1317  -10.4715  -19.8620 C   0  0  0  0  0  0  0  0  0  0  0  0
   21.4459  -10.4101  -18.5445 C   0  0  0  0  0  0  0  0  0  0  0  0
   21.2134   -8.9893  -18.0679 C   0  0  0  0  0  0  0  0  0  0  0  0
   20.4651   -8.9969  -16.7273 C   0  0  2  0  0  0  0  0  0  0  0  0
   19.1761   -9.6010  -16.8546 N   0  0  0  0  0  0  0  0  0  0  0  0
   20.4056   -7.5955  -16.2109 C   0  0  0  0  0  0  0  0  0  0  0  0
   19.7006   -6.7845  -16.8550 O   0  0  0  0  0  0  0  0  0  0  0  0
   23.0268  -14.0019  -21.5700 C   0  0  0  0  0  0  0  0  0  0  0  0
   20.9832   -6.6866  -12.1900 C   0  0  2  0  0  0  0  0  0  0  0  0
   20.3254   -5.7694  -13.2077 O   0  0  0  0  0  0  0  0  0  0  0  0
   20.3614   -4.4711  -12.7098 C   0  0  1  0  0  0  0  0  0  0  0  0
   21.0500   -5.8362  -14.5343 N   0  0  0  0  0  0  0  0  0  0  0  0
   21.0988   -7.1787  -15.0569 C   0  0  0  0  0  0  0  0  0  0  0  0
   22.4312   -5.3402  -14.3224 O   0  0  0  0  0  0  0  0  0  0  0  0
   23.5575   -6.1201  -14.4959 O   0  0  0  0  0  0  0  0  0  0  0  0
  2  4  1  0
  2  1  1  6
  3  2  1  0
  4  6  1  0
  4  5  1  1
  6  7  2  0
  9 11  1  0
  9  8  1  0
 10  9  2  0
 12 13  1  0
 12 11  1  0
 13 14  1  0
 15 14  1  6
 16 15  1  0
 16  6  1  0
 17 15  1  0
 17 18  2  0
 20 19  1  1
 20 22  1  0
 21 20  1  0
 22 23  1  1
 22 24  1  0
 23 17  1  0
 24 26  2  0
 24 25  1  0
M  END
$$$$
