TRT.pdb
     RDKit          3D

 26 25  0  0  1  0  0  0  0  0999 V2000
   25.3641  -21.0706  -10.4470 C   0  0  0  0  0  0  0  0  0  0  0  0
   26.3318  -20.1315  -11.1507 C   0  0  1  0  0  0  0  0  0  0  0  0
   27.3351  -19.8091  -10.2700 O   0  0  0  0  0  0  0  0  0  0  0  0
   26.8258  -20.7381  -12.4492 C   0  0  2  0  0  0  0  0  0  0  0  0
   27.8795  -19.8780  -12.9600 N   0  0  0  0  0  0  0  0  0  0  0  0
   25.7489  -20.8571  -13.4565 C   0  0  0  0  0  0  0  0  0  0  0  0
   25.6904  -20.0246  -14.4001 O   0  0  0  0  0  0  0  0  0  0  0  0
   20.9757  -26.5490  -13.5839 N   0  0  0  0  0  0  0  0  0  0  0  0
   21.7473  -27.0379  -14.6989 C   0  0  0  0  0  0  0  0  0  0  0  0
   21.2677  -27.9207  -15.4803 N   0  0  0  0  0  0  0  0  0  0  0  0
   23.0568  -26.5607  -14.9655 N   0  0  0  0  0  0  0  0  0  0  0  0
   23.6597  -25.6173  -14.0983 C   0  0  0  0  0  0  0  0  0  0  0  0
   22.9874  -24.2947  -14.0036 C   0  0  0  0  0  0  0  0  0  0  0  0
   23.5467  -23.2791  -14.9812 C   0  0  0  0  0  0  0  0  0  0  0  0
   23.6840  -21.9098  -14.3006 C   0  0  2  0  0  0  0  0  0  0  0  0
   24.7781  -21.8934  -13.3811 N   0  0  0  0  0  0  0  0  0  0  0  0
   22.3774  -21.5664  -13.6609 C   0  0  0  0  0  0  0  0  0  0  0  0
   22.3477  -21.5492  -12.4085 O   0  0  0  0  0  0  0  0  0  0  0  0
   21.6907  -28.3399  -16.3103 C   0  0  0  0  0  0  0  0  0  0  0  0
   21.3109  -19.0340  -12.4039 C   0  0  2  0  0  0  0  0  0  0  0  0
   20.3065  -19.1700  -13.5364 O   0  0  0  0  0  0  0  0  0  0  0  0
   20.8214  -18.5214  -14.6540 C   0  0  2  0  0  0  0  0  0  0  0  0
   20.0531  -20.6275  -13.8538 N   0  0  0  0  0  0  0  0  0  0  0  0
   21.2184  -21.2712  -14.4063 C   0  0  0  0  0  0  0  0  0  0  0  0
   18.9436  -20.6919  -14.8354 O   0  0  0  0  0  0  0  0  0  0  0  0
   19.1026  -21.1135  -16.1407 O   0  0  0  0  0  0  0  0  0  0  0  0
  2  4  1  0
  2  1  1  1
  3  2  1  0
  4  6  1  0
  4  5  1  6
  6  7  2  0
  9 11  1  0
  9  8  1  0
 10  9  2  0
 12 13  1  0
 12 11  1  0
 13 14  1  0
 15 14  1  1
 16 15  1  0
 16  6  1  0
 17 15  1  0
 17 18  2  0
 20 19  1  1
 20 22  1  0
 21 20  1  0
 22 23  1  1
 22 24  1  0
 23 17  1  0
 24 26  2  0
 24 25  1  0
M  END
$$$$
