CAQ.pdb
     RDKit          3D

 21 20  0  0  1  0  0  0  0  0999 V2000
    6.2823  -14.1484   19.0926 N   0  0  0  0  0  0  0  0  0  0  0  0
    7.6974  -14.1808   19.4064 C   0  0  1  0  0  0  0  0  0  0  0  0
    8.1410  -12.7616   19.6954 C   0  0  0  0  0  0  0  0  0  0  0  0
    9.8876  -12.7281   20.1816 S   0  0  0  0  0  0  0  0  0  0  0  0
    7.8971  -15.0722   20.5637 C   0  0  0  0  0  0  0  0  0  0  0  0
    7.1965  -14.9290   21.6239 O   0  0  0  0  0  0  0  0  0  0  0  0
    9.6409  -18.2951   21.4147 C   0  0  0  0  0  0  0  0  0  0  0  0
    9.0109  -16.9500   21.7591 C   0  0  2  0  0  0  0  0  0  0  0  0
    8.8457  -16.1223   20.5979 N   0  0  0  0  0  0  0  0  0  0  0  0
    9.8952  -16.3323   22.7798 C   0  0  0  0  0  0  0  0  0  0  0  0
   10.8249  -15.5888   22.3724 O   0  0  0  0  0  0  0  0  0  0  0  0
   10.1708  -13.6266   29.6551 N   0  0  0  0  0  0  0  0  0  0  0  0
    9.5864  -14.0831   28.4472 C   0  0  0  0  0  0  0  0  0  0  0  0
    8.3606  -14.0217   28.2989 O   0  0  0  0  0  0  0  0  0  0  0  0
   10.4557  -14.6270   27.3839 C   0  0  0  0  0  0  0  0  0  0  0  0
    9.7499  -15.4105   26.3345 C   0  0  0  0  0  0  0  0  0  0  0  0
   10.5864  -15.8204   25.1717 C   0  0  2  0  0  0  0  0  0  0  0  0
    9.7658  -16.5201   24.1622 N   0  0  0  0  0  0  0  0  0  0  0  0
   11.6374  -16.7646   25.5739 C   0  0  0  0  0  0  0  0  0  0  0  0
   11.4277  -17.9914   25.5231 O   0  0  0  0  0  0  0  0  0  0  0  0
   12.8565  -16.3027   26.0081 O   0  0  0  0  0  0  0  0  0  0  0  0
  2  5  1  0
  2  1  1  1
  3  2  1  0
  4  3  1  0
  5  6  2  0
  8  7  1  6
  8 10  1  0
  9  5  1  0
  9  8  1  0
 10 11  2  0
 12 13  1  0
 13 14  2  0
 15 13  1  0
 15 16  1  0
 17 16  1  1
 17 19  1  0
 18 17  1  0
 18 10  1  0
 19 20  2  0
 19 21  1  0
M  END
$$$$
