CAQ.pdb
     RDKit          3D

 21 20  0  0  1  0  0  0  0  0999 V2000
    6.9623  -14.9001   19.2444 N   0  0  0  0  0  0  0  0  0  0  0  0
    8.1847  -14.4825   19.9025 C   0  0  1  0  0  0  0  0  0  0  0  0
    8.0243  -13.0299   20.3007 C   0  0  0  0  0  0  0  0  0  0  0  0
    8.0847  -11.9595   18.8382 S   0  0  0  0  0  0  0  0  0  0  0  0
    8.4077  -15.3571   21.0684 C   0  0  0  0  0  0  0  0  0  0  0  0
    7.4278  -15.7232   21.8041 O   0  0  0  0  0  0  0  0  0  0  0  0
   11.1317  -17.5059   22.5316 C   0  0  0  0  0  0  0  0  0  0  0  0
    9.8366  -16.7040   22.5980 C   0  0  2  0  0  0  0  0  0  0  0  0
    9.6775  -15.8470   21.4574 N   0  0  0  0  0  0  0  0  0  0  0  0
    9.8863  -15.9500   23.8765 C   0  0  0  0  0  0  0  0  0  0  0  0
   10.5563  -14.8854   23.8997 O   0  0  0  0  0  0  0  0  0  0  0  0
    5.7380  -13.2764   26.6242 N   0  0  0  0  0  0  0  0  0  0  0  0
    6.9207  -12.6077   26.2205 C   0  0  0  0  0  0  0  0  0  0  0  0
    6.8790  -11.4033   25.9443 O   0  0  0  0  0  0  0  0  0  0  0  0
    8.1862  -13.3650   26.1356 C   0  0  0  0  0  0  0  0  0  0  0  0
    8.0945  -14.7908   26.5504 C   0  0  0  0  0  0  0  0  0  0  0  0
    9.3256  -15.6008   26.3311 C   0  0  2  0  0  0  0  0  0  0  0  0
    9.2396  -16.3419   25.0562 N   0  0  0  0  0  0  0  0  0  0  0  0
    9.4971  -16.6111   27.3836 C   0  0  0  0  0  0  0  0  0  0  0  0
    9.2610  -17.8102   27.1427 O   0  0  0  0  0  0  0  0  0  0  0  0
    9.9180  -16.2419   28.6383 O   0  0  0  0  0  0  0  0  0  0  0  0
  2  5  1  0
  2  1  1  1
  3  2  1  0
  4  3  1  0
  5  6  2  0
  8  7  1  6
  8 10  1  0
  9  5  1  0
  9  8  1  0
 10 11  2  0
 12 13  1  0
 13 14  2  0
 15 13  1  0
 15 16  1  0
 17 16  1  1
 17 19  1  0
 18 17  1  0
 18 10  1  0
 19 20  2  0
 19 21  1  0
M  END
$$$$
