CAQ.pdb
     RDKit          3D

 21 20  0  0  1  0  0  0  0  0999 V2000
    6.6234  -14.8150   19.5883 N   0  0  0  0  0  0  0  0  0  0  0  0
    7.9176  -14.5680   20.1929 C   0  0  1  0  0  0  0  0  0  0  0  0
    7.9952  -13.0950   20.5374 C   0  0  0  0  0  0  0  0  0  0  0  0
    8.0843  -12.0931   19.0286 S   0  0  0  0  0  0  0  0  0  0  0  0
    8.0453  -15.4252   21.3857 C   0  0  0  0  0  0  0  0  0  0  0  0
    7.0648  -15.5646   22.1948 O   0  0  0  0  0  0  0  0  0  0  0  0
   10.1041  -18.2346   22.6451 C   0  0  0  0  0  0  0  0  0  0  0  0
    9.2847  -16.9725   22.8908 C   0  0  2  0  0  0  0  0  0  0  0  0
    9.2197  -16.1397   21.7233 N   0  0  0  0  0  0  0  0  0  0  0  0
    9.9210  -16.2888   24.0454 C   0  0  0  0  0  0  0  0  0  0  0  0
   10.9422  -15.5898   23.8186 O   0  0  0  0  0  0  0  0  0  0  0  0
    6.8313  -12.0934   25.6865 N   0  0  0  0  0  0  0  0  0  0  0  0
    7.6228  -12.8462   26.5897 C   0  0  0  0  0  0  0  0  0  0  0  0
    7.7033  -12.4950   27.7723 O   0  0  0  0  0  0  0  0  0  0  0  0
    8.3407  -14.0406   26.0995 C   0  0  0  0  0  0  0  0  0  0  0  0
    9.3521  -14.5954   27.0389 C   0  0  0  0  0  0  0  0  0  0  0  0
   10.1468  -15.7429   26.5177 C   0  0  2  0  0  0  0  0  0  0  0  0
    9.4632  -16.3684   25.3673 N   0  0  0  0  0  0  0  0  0  0  0  0
   10.2951  -16.7963   27.5308 C   0  0  0  0  0  0  0  0  0  0  0  0
   10.9671  -16.5847   28.5580 O   0  0  0  0  0  0  0  0  0  0  0  0
    9.6951  -18.0196   27.3533 O   0  0  0  0  0  0  0  0  0  0  0  0
  2  5  1  0
  2  1  1  1
  3  2  1  0
  4  3  1  0
  5  6  2  0
  8  7  1  6
  8 10  1  0
  9  5  1  0
  9  8  1  0
 10 11  2  0
 12 13  1  0
 13 14  2  0
 15 13  1  0
 15 16  1  0
 17 16  1  1
 17 19  1  0
 18 17  1  0
 18 10  1  0
 19 20  2  0
 19 21  1  0
M  END
$$$$
