CAQ.pdb
     RDKit          3D

 21 20  0  0  1  0  0  0  0  0999 V2000
    5.4466  -13.7726   26.5239 N   0  0  0  0  0  0  0  0  0  0  0  0
    6.0801  -13.3095   25.3048 C   0  0  1  0  0  0  0  0  0  0  0  0
    6.7654  -11.9934   25.6093 C   0  0  0  0  0  0  0  0  0  0  0  0
    7.8982  -12.1763   27.0133 S   0  0  0  0  0  0  0  0  0  0  0  0
    7.0325  -14.3409   24.8545 C   0  0  0  0  0  0  0  0  0  0  0  0
    7.6267  -15.0923   25.7017 O   0  0  0  0  0  0  0  0  0  0  0  0
    8.4554  -15.6806   21.6002 C   0  0  0  0  0  0  0  0  0  0  0  0
    8.2856  -15.6036   23.1135 C   0  0  2  0  0  0  0  0  0  0  0  0
    7.3576  -14.5778   23.4973 N   0  0  0  0  0  0  0  0  0  0  0  0
    9.6451  -15.3805   23.6678 C   0  0  0  0  0  0  0  0  0  0  0  0
   10.1565  -14.2410   23.5165 O   0  0  0  0  0  0  0  0  0  0  0  0
    9.7052  -16.6334   28.1682 N   0  0  0  0  0  0  0  0  0  0  0  0
   10.6364  -15.5709   28.2806 C   0  0  0  0  0  0  0  0  0  0  0  0
   10.4752  -14.7050   29.1483 O   0  0  0  0  0  0  0  0  0  0  0  0
   11.7863  -15.5164   27.3549 C   0  0  0  0  0  0  0  0  0  0  0  0
   11.8107  -16.5844   26.3194 C   0  0  0  0  0  0  0  0  0  0  0  0
   11.7402  -16.1090   24.9092 C   0  0  2  0  0  0  0  0  0  0  0  0
   10.3959  -16.3497   24.3463 N   0  0  0  0  0  0  0  0  0  0  0  0
   12.6826  -16.8382   24.0501 C   0  0  0  0  0  0  0  0  0  0  0  0
   13.8628  -16.4525   23.9494 O   0  0  0  0  0  0  0  0  0  0  0  0
   12.2704  -17.9482   23.3530 O   0  0  0  0  0  0  0  0  0  0  0  0
  2  5  1  0
  2  1  1  1
  3  2  1  0
  4  3  1  0
  5  6  2  0
  8  7  1  6
  8 10  1  0
  9  5  1  0
  9  8  1  0
 10 11  2  0
 12 13  1  0
 13 14  2  0
 15 13  1  0
 15 16  1  0
 17 16  1  1
 17 19  1  0
 18 17  1  0
 18 10  1  0
 19 20  2  0
 19 21  1  0
M  END
$$$$
