CAQ.pdb
     RDKit          3D

 21 20  0  0  1  0  0  0  0  0999 V2000
    8.6723  -15.1808   14.8244 N   0  0  0  0  0  0  0  0  0  0  0  0
    7.9665  -15.6298   16.0085 C   0  0  1  0  0  0  0  0  0  0  0  0
    8.1214  -17.1338   16.0984 C   0  0  0  0  0  0  0  0  0  0  0  0
    6.9269  -17.9619   15.0141 S   0  0  0  0  0  0  0  0  0  0  0  0
    8.5380  -14.9410   17.1802 C   0  0  0  0  0  0  0  0  0  0  0  0
    9.8050  -14.8459   17.3250 O   0  0  0  0  0  0  0  0  0  0  0  0
    7.3415  -13.1205   20.2872 C   0  0  0  0  0  0  0  0  0  0  0  0
    8.3668  -13.7981   19.3847 C   0  0  2  0  0  0  0  0  0  0  0  0
    7.7618  -14.3490   18.2052 N   0  0  0  0  0  0  0  0  0  0  0  0
    9.0311  -14.8298   20.2212 C   0  0  0  0  0  0  0  0  0  0  0  0
    8.5135  -15.9761   20.2533 O   0  0  0  0  0  0  0  0  0  0  0  0
   15.2713  -15.1127   21.4497 N   0  0  0  0  0  0  0  0  0  0  0  0
   14.2978  -14.8791   20.4464 C   0  0  0  0  0  0  0  0  0  0  0  0
   14.5514  -14.1055   19.5159 O   0  0  0  0  0  0  0  0  0  0  0  0
   12.9927  -15.5657   20.5316 C   0  0  0  0  0  0  0  0  0  0  0  0
   12.3093  -15.4553   21.8484 C   0  0  0  0  0  0  0  0  0  0  0  0
   10.8317  -15.6447   21.8196 C   0  0  2  0  0  0  0  0  0  0  0  0
   10.1923  -14.6149   20.9754 N   0  0  0  0  0  0  0  0  0  0  0  0
   10.2466  -15.5000   23.1592 C   0  0  0  0  0  0  0  0  0  0  0  0
    9.4631  -14.5621   23.4006 O   0  0  0  0  0  0  0  0  0  0  0  0
   10.5582  -16.3959   24.1534 O   0  0  0  0  0  0  0  0  0  0  0  0
  2  5  1  0
  2  1  1  6
  3  2  1  0
  4  3  1  0
  5  6  2  0
  8  7  1  1
  8 10  1  0
  9  5  1  0
  9  8  1  0
 10 11  2  0
 12 13  1  0
 13 14  2  0
 15 13  1  0
 15 16  1  0
 17 16  1  1
 17 19  1  0
 18 17  1  0
 18 10  1  0
 19 20  2  0
 19 21  1  0
M  END
$$$$
