CAQ.pdb
     RDKit          3D

 21 20  0  0  1  0  0  0  0  0999 V2000
    7.6354  -14.6592   18.0278 N   0  0  0  0  0  0  0  0  0  0  0  0
    8.4620  -14.1438   19.1016 C   0  0  1  0  0  0  0  0  0  0  0  0
    8.0088  -12.7292   19.3979 C   0  0  0  0  0  0  0  0  0  0  0  0
    8.6513  -11.5813   18.1498 S   0  0  0  0  0  0  0  0  0  0  0  0
    8.3139  -15.0311   20.2697 C   0  0  0  0  0  0  0  0  0  0  0  0
    7.1627  -15.4715   20.6106 O   0  0  0  0  0  0  0  0  0  0  0  0
   10.1194  -17.5424   22.1473 C   0  0  0  0  0  0  0  0  0  0  0  0
    9.1938  -16.3319   22.2009 C   0  0  2  0  0  0  0  0  0  0  0  0
    9.3929  -15.4547   21.0822 N   0  0  0  0  0  0  0  0  0  0  0  0
    9.4617  -15.6682   23.5021 C   0  0  0  0  0  0  0  0  0  0  0  0
   10.5255  -15.0052   23.6101 O   0  0  0  0  0  0  0  0  0  0  0  0
    5.3166  -12.9580   26.8908 N   0  0  0  0  0  0  0  0  0  0  0  0
    6.4039  -12.2041   26.3825 C   0  0  0  0  0  0  0  0  0  0  0  0
    6.2811  -10.9843   26.2225 O   0  0  0  0  0  0  0  0  0  0  0  0
    7.6683  -12.8921   26.0509 C   0  0  0  0  0  0  0  0  0  0  0  0
    7.7084  -14.3372   26.4024 C   0  0  0  0  0  0  0  0  0  0  0  0
    8.9018  -15.0816   25.9111 C   0  0  2  0  0  0  0  0  0  0  0  0
    8.6130  -15.7293   24.6153 N   0  0  0  0  0  0  0  0  0  0  0  0
    9.2788  -16.1597   26.8351 C   0  0  0  0  0  0  0  0  0  0  0  0
    9.9078  -15.8973   27.8777 O   0  0  0  0  0  0  0  0  0  0  0  0
    8.9411  -17.4622   26.5568 O   0  0  0  0  0  0  0  0  0  0  0  0
  2  5  1  0
  2  1  1  6
  3  2  1  0
  4  3  1  0
  5  6  2  0
  8  7  1  6
  8 10  1  0
  9  5  1  0
  9  8  1  0
 10 11  2  0
 12 13  1  0
 13 14  2  0
 15 13  1  0
 15 16  1  0
 17 16  1  1
 17 19  1  0
 18 17  1  0
 18 10  1  0
 19 20  2  0
 19 21  1  0
M  END
$$$$
