CAQ.pdb
     RDKit          3D

 21 20  0  0  1  0  0  0  0  0999 V2000
    7.1219  -15.9196   21.4356 N   0  0  0  0  0  0  0  0  0  0  0  0
    8.4719  -15.4284   21.6312 C   0  0  1  0  0  0  0  0  0  0  0  0
    8.7959  -14.4932   20.4846 C   0  0  0  0  0  0  0  0  0  0  0  0
    7.9351  -15.0147   18.9762 S   0  0  0  0  0  0  0  0  0  0  0  0
    8.5350  -14.7486   22.9380 C   0  0  0  0  0  0  0  0  0  0  0  0
    9.6440  -14.2906   23.3804 O   0  0  0  0  0  0  0  0  0  0  0  0
    6.2165  -13.2430   25.4752 C   0  0  0  0  0  0  0  0  0  0  0  0
    7.5330  -13.8803   25.0446 C   0  0  2  0  0  0  0  0  0  0  0  0
    7.4154  -14.5526   23.7817 N   0  0  0  0  0  0  0  0  0  0  0  0
    7.9242  -14.7970   26.1455 C   0  0  0  0  0  0  0  0  0  0  0  0
    7.8385  -14.3634   27.3234 O   0  0  0  0  0  0  0  0  0  0  0  0
    6.4220  -19.9481   24.0105 N   0  0  0  0  0  0  0  0  0  0  0  0
    6.6079  -19.7759   25.4051 C   0  0  0  0  0  0  0  0  0  0  0  0
    6.4773  -20.7432   26.1640 O   0  0  0  0  0  0  0  0  0  0  0  0
    6.9544  -18.4387   25.9286 C   0  0  0  0  0  0  0  0  0  0  0  0
    8.1690  -18.3951   26.7866 C   0  0  0  0  0  0  0  0  0  0  0  0
    8.7033  -17.0333   27.0692 C   0  0  2  0  0  0  0  0  0  0  0  0
    8.3813  -16.1089   25.9629 N   0  0  0  0  0  0  0  0  0  0  0  0
   10.1678  -17.0450   27.1826 C   0  0  0  0  0  0  0  0  0  0  0  0
   10.7158  -17.6311   28.1355 O   0  0  0  0  0  0  0  0  0  0  0  0
   10.9422  -16.4114   26.2409 O   0  0  0  0  0  0  0  0  0  0  0  0
  2  5  1  0
  2  1  1  6
  3  2  1  0
  4  3  1  0
  5  6  2  0
  8  7  1  1
  8 10  1  0
  9  5  1  0
  9  8  1  0
 10 11  2  0
 12 13  1  0
 13 14  2  0
 15 13  1  0
 15 16  1  0
 17 16  1  6
 17 19  1  0
 18 17  1  0
 18 10  1  0
 19 20  2  0
 19 21  1  0
M  END
$$$$
