CAQ.pdb
     RDKit          3D

 21 20  0  0  1  0  0  0  0  0999 V2000
    7.6326  -14.6387   18.1795 N   0  0  0  0  0  0  0  0  0  0  0  0
    8.7107  -14.3339   19.0996 C   0  0  1  0  0  0  0  0  0  0  0  0
    8.7186  -12.8360   19.3250 C   0  0  0  0  0  0  0  0  0  0  0  0
    9.4771  -11.9849   17.9148 S   0  0  0  0  0  0  0  0  0  0  0  0
    8.4821  -15.0828   20.3488 C   0  0  0  0  0  0  0  0  0  0  0  0
    7.3291  -15.0892   20.9020 O   0  0  0  0  0  0  0  0  0  0  0  0
   10.0624  -17.8097   22.3449 C   0  0  0  0  0  0  0  0  0  0  0  0
    9.1989  -16.5592   22.2202 C   0  0  2  0  0  0  0  0  0  0  0  0
    9.4819  -15.8301   21.0165 N   0  0  0  0  0  0  0  0  0  0  0  0
    9.4549  -15.7603   23.4456 C   0  0  0  0  0  0  0  0  0  0  0  0
   10.5294  -15.1084   23.5025 O   0  0  0  0  0  0  0  0  0  0  0  0
    5.1100  -12.6294   26.5251 N   0  0  0  0  0  0  0  0  0  0  0  0
    6.2773  -12.2419   27.2295 C   0  0  0  0  0  0  0  0  0  0  0  0
    6.2209  -11.3133   28.0437 O   0  0  0  0  0  0  0  0  0  0  0  0
    7.5451  -12.9565   26.9762 C   0  0  0  0  0  0  0  0  0  0  0  0
    7.4900  -13.9668   25.8854 C   0  0  0  0  0  0  0  0  0  0  0  0
    8.7472  -14.7341   25.6608 C   0  0  2  0  0  0  0  0  0  0  0  0
    8.5838  -15.6827   24.5404 N   0  0  0  0  0  0  0  0  0  0  0  0
    9.0992  -15.5421   26.8361 C   0  0  0  0  0  0  0  0  0  0  0  0
    8.7964  -16.7497   26.8772 O   0  0  0  0  0  0  0  0  0  0  0  0
    9.7633  -14.9734   27.8960 O   0  0  0  0  0  0  0  0  0  0  0  0
  2  5  1  0
  2  1  1  6
  3  2  1  0
  4  3  1  0
  5  6  2  0
  8  7  1  1
  8 10  1  0
  9  5  1  0
  9  8  1  0
 10 11  2  0
 12 13  1  0
 13 14  2  0
 15 13  1  0
 15 16  1  0
 17 16  1  1
 17 19  1  0
 18 17  1  0
 18 10  1  0
 19 20  2  0
 19 21  1  0
M  END
$$$$
