CAQ.pdb
     RDKit          3D

 21 20  0  0  1  0  0  0  0  0999 V2000
    7.8028  -14.4214   16.9629 N   0  0  0  0  0  0  0  0  0  0  0  0
    8.8117  -14.2530   17.9903 C   0  0  1  0  0  0  0  0  0  0  0  0
    8.8564  -12.7848   18.3603 C   0  0  0  0  0  0  0  0  0  0  0  0
   10.0226  -12.5073   19.7209 S   0  0  0  0  0  0  0  0  0  0  0  0
    8.4530  -15.1050   19.1388 C   0  0  0  0  0  0  0  0  0  0  0  0
    7.2673  -15.0865   19.6176 O   0  0  0  0  0  0  0  0  0  0  0  0
    9.6642  -18.0649   21.0455 C   0  0  0  0  0  0  0  0  0  0  0  0
    8.9909  -16.6988   20.9736 C   0  0  2  0  0  0  0  0  0  0  0  0
    9.3567  -15.9827   19.7844 N   0  0  0  0  0  0  0  0  0  0  0  0
    9.3820  -15.9830   22.2146 C   0  0  0  0  0  0  0  0  0  0  0  0
   10.5022  -15.4104   22.2288 O   0  0  0  0  0  0  0  0  0  0  0  0
    5.3993  -13.1645   26.1282 N   0  0  0  0  0  0  0  0  0  0  0  0
    6.6374  -12.8946   26.7633 C   0  0  0  0  0  0  0  0  0  0  0  0
    6.6703  -12.1471   27.7475 O   0  0  0  0  0  0  0  0  0  0  0  0
    7.8707  -13.5128   26.2350 C   0  0  0  0  0  0  0  0  0  0  0  0
    7.6776  -14.3801   25.0418 C   0  0  0  0  0  0  0  0  0  0  0  0
    8.9084  -15.0450   24.5291 C   0  0  2  0  0  0  0  0  0  0  0  0
    8.5910  -15.9016   23.3683 N   0  0  0  0  0  0  0  0  0  0  0  0
    9.5020  -15.9280   25.5420 C   0  0  0  0  0  0  0  0  0  0  0  0
    9.1820  -17.1311   25.5866 O   0  0  0  0  0  0  0  0  0  0  0  0
   10.4123  -15.4348   26.4453 O   0  0  0  0  0  0  0  0  0  0  0  0
  2  5  1  0
  2  1  1  6
  3  2  1  0
  4  3  1  0
  5  6  2  0
  8  7  1  6
  8 10  1  0
  9  5  1  0
  9  8  1  0
 10 11  2  0
 12 13  1  0
 13 14  2  0
 15 13  1  0
 15 16  1  0
 17 16  1  1
 17 19  1  0
 18 17  1  0
 18 10  1  0
 19 20  2  0
 19 21  1  0
M  END
$$$$
