CAQ.pdb
     RDKit          3D

 21 20  0  0  1  0  0  0  0  0999 V2000
    8.4346  -14.7878   17.6749 N   0  0  0  0  0  0  0  0  0  0  0  0
    9.3575  -13.9477   18.4126 C   0  0  1  0  0  0  0  0  0  0  0  0
    8.6491  -13.4658   19.6617 C   0  0  0  0  0  0  0  0  0  0  0  0
    7.2975  -12.3365   19.2304 S   0  0  0  0  0  0  0  0  0  0  0  0
   10.5599  -14.7412   18.7265 C   0  0  0  0  0  0  0  0  0  0  0  0
   10.4536  -15.9152   19.2222 O   0  0  0  0  0  0  0  0  0  0  0  0
   14.2759  -14.6719   18.1254 C   0  0  0  0  0  0  0  0  0  0  0  0
   13.0204  -15.0805   18.8880 C   0  0  2  0  0  0  0  0  0  0  0  0
   11.8838  -14.2877   18.5137 N   0  0  0  0  0  0  0  0  0  0  0  0
   13.3563  -14.9530   20.3290 C   0  0  0  0  0  0  0  0  0  0  0  0
   13.4298  -13.7928   20.8100 O   0  0  0  0  0  0  0  0  0  0  0  0
   11.9916  -18.9869   24.8400 N   0  0  0  0  0  0  0  0  0  0  0  0
   12.3247  -17.7946   25.5303 C   0  0  0  0  0  0  0  0  0  0  0  0
   12.0513  -17.6858   26.7311 O   0  0  0  0  0  0  0  0  0  0  0  0
   12.9939  -16.6990   24.7995 C   0  0  0  0  0  0  0  0  0  0  0  0
   13.3992  -17.0285   23.4065 C   0  0  0  0  0  0  0  0  0  0  0  0
   13.9496  -15.8922   22.6153 C   0  0  2  0  0  0  0  0  0  0  0  0
   13.5964  -16.0337   21.1880 N   0  0  0  0  0  0  0  0  0  0  0  0
   15.4170  -15.8588   22.6747 C   0  0  0  0  0  0  0  0  0  0  0  0
   15.9912  -15.4328   23.6948 O   0  0  0  0  0  0  0  0  0  0  0  0
   16.1651  -16.2960   21.6084 O   0  0  0  0  0  0  0  0  0  0  0  0
  2  5  1  0
  2  1  1  1
  3  2  1  0
  4  3  1  0
  5  6  2  0
  8  7  1  6
  8 10  1  0
  9  5  1  0
  9  8  1  0
 10 11  2  0
 12 13  1  0
 13 14  2  0
 15 13  1  0
 15 16  1  0
 17 16  1  1
 17 19  1  0
 18 17  1  0
 18 10  1  0
 19 20  2  0
 19 21  1  0
M  END
$$$$
