CAQ.pdb
     RDKit          3D

 21 20  0  0  1  0  0  0  0  0999 V2000
    7.3224  -13.6410   17.9966 N   0  0  0  0  0  0  0  0  0  0  0  0
    8.5371  -14.3537   18.3409 C   0  0  1  0  0  0  0  0  0  0  0  0
    9.6726  -13.3515   18.3626 C   0  0  0  0  0  0  0  0  0  0  0  0
    9.3400  -12.0398   19.5697 S   0  0  0  0  0  0  0  0  0  0  0  0
    8.3415  -15.0005   19.6513 C   0  0  0  0  0  0  0  0  0  0  0  0
    7.5167  -14.5155   20.4998 O   0  0  0  0  0  0  0  0  0  0  0  0
    9.4697  -18.1333   21.4671 C   0  0  0  0  0  0  0  0  0  0  0  0
    8.7371  -16.8042   21.3204 C   0  0  2  0  0  0  0  0  0  0  0  0
    9.0245  -16.1691   20.0655 N   0  0  0  0  0  0  0  0  0  0  0  0
    9.1471  -15.9792   22.4853 C   0  0  0  0  0  0  0  0  0  0  0  0
   10.1853  -15.2785   22.3668 O   0  0  0  0  0  0  0  0  0  0  0  0
    5.2099  -12.9630   26.1481 N   0  0  0  0  0  0  0  0  0  0  0  0
    6.4567  -12.5147   26.6514 C   0  0  0  0  0  0  0  0  0  0  0  0
    6.4963  -11.5348   27.4042 O   0  0  0  0  0  0  0  0  0  0  0  0
    7.6911  -13.2283   26.2649 C   0  0  0  0  0  0  0  0  0  0  0  0
    7.5039  -14.3082   25.2588 C   0  0  0  0  0  0  0  0  0  0  0  0
    8.7553  -14.9602   24.7808 C   0  0  2  0  0  0  0  0  0  0  0  0
    8.4587  -15.9276   23.7046 N   0  0  0  0  0  0  0  0  0  0  0  0
    9.4049  -15.7248   25.8537 C   0  0  0  0  0  0  0  0  0  0  0  0
    9.1867  -16.9456   25.9711 O   0  0  0  0  0  0  0  0  0  0  0  0
   10.2559  -15.1007   26.7337 O   0  0  0  0  0  0  0  0  0  0  0  0
  2  5  1  0
  2  1  1  1
  3  2  1  0
  4  3  1  0
  5  6  2  0
  8  7  1  6
  8 10  1  0
  9  5  1  0
  9  8  1  0
 10 11  2  0
 12 13  1  0
 13 14  2  0
 15 13  1  0
 15 16  1  0
 17 16  1  1
 17 19  1  0
 18 17  1  0
 18 10  1  0
 19 20  2  0
 19 21  1  0
M  END
$$$$
