WYE.pdb
     RDKit          3D

 36 38  0  0  1  0  0  0  0  0999 V2000
   20.6386  -15.0196  -19.0026 N   0  0  0  0  0  0  0  0  0  0  0  0
   20.2434  -14.4677  -17.7540 C   0  0  1  0  0  0  0  0  0  0  0  0
   21.2794  -14.5515  -16.6597 C   0  0  0  0  0  0  0  0  0  0  0  0
   21.6101  -15.9204  -16.2454 C   0  0  0  0  0  0  0  0  0  0  0  0
   22.7983  -16.5625  -16.5898 C   0  0  0  0  0  0  0  0  0  0  0  0
   22.7582  -17.7594  -16.0270 N   0  0  0  0  0  0  0  0  0  0  0  0
   21.6104  -17.9371  -15.3339 C   0  0  0  0  0  0  0  0  0  0  0  0
   21.0918  -18.9803  -14.5921 C   0  0  0  0  0  0  0  0  0  0  0  0
   19.8467  -18.8329  -14.0019 C   0  0  0  0  0  0  0  0  0  0  0  0
   19.1029  -17.6918  -14.1223 C   0  0  0  0  0  0  0  0  0  0  0  0
   19.6286  -16.6452  -14.8691 C   0  0  0  0  0  0  0  0  0  0  0  0
   20.8740  -16.7620  -15.4723 C   0  0  0  0  0  0  0  0  0  0  0  0
   19.8322  -13.0287  -17.8475 C   0  0  0  0  0  0  0  0  0  0  0  0
   20.4828  -12.2885  -18.6282 O   0  0  0  0  0  0  0  0  0  0  0  0
   14.6632   -5.9903  -18.5638 O   0  0  0  0  0  0  0  0  0  0  0  0
   15.2071   -7.2580  -18.3752 C   0  0  0  0  0  0  0  0  0  0  0  0
   15.9153   -7.8812  -19.3641 C   0  0  0  0  0  0  0  0  0  0  0  0
   16.4476   -9.1570  -19.1373 C   0  0  0  0  0  0  0  0  0  0  0  0
   16.2732   -9.8005  -17.9369 C   0  0  0  0  0  0  0  0  0  0  0  0
   16.8356  -11.1183  -17.7088 C   0  0  0  0  0  0  0  0  0  0  0  0
   18.3015  -11.0999  -17.3230 C   0  0  2  0  0  0  0  0  0  0  0  0
   18.7665  -12.4842  -17.1081 N   0  0  0  0  0  0  0  0  0  0  0  0
   18.6060  -10.2664  -16.1520 C   0  0  0  0  0  0  0  0  0  0  0  0
   18.4067  -10.7362  -14.9952 O   0  0  0  0  0  0  0  0  0  0  0  0
   15.5572   -9.1512  -16.9615 C   0  0  0  0  0  0  0  0  0  0  0  0
   15.0202   -7.8811  -17.1688 C   0  0  0  0  0  0  0  0  0  0  0  0
   19.1169   -8.9549  -16.2426 N   0  0  0  0  0  0  0  0  0  0  0  0
   19.3201   -8.1188  -15.0401 C   0  0  1  0  0  0  0  0  0  0  0  0
   20.5298   -7.3154  -15.3360 C   0  0  0  0  0  0  0  0  0  0  0  0
   20.9992   -6.2916  -14.3954 C   0  0  0  0  0  0  0  0  0  0  0  0
   22.1045   -5.4296  -14.7750 C   0  0  0  0  0  0  0  0  0  0  0  0
   22.6675   -5.5273  -15.8824 O   0  0  0  0  0  0  0  0  0  0  0  0
   18.0891   -7.4167  -14.7614 C   0  0  0  0  0  0  0  0  0  0  0  0
   17.6240   -7.2911  -13.4501 O   0  0  0  0  0  0  0  0  0  0  0  0
   22.5384   -4.4663  -13.8604 O   0  0  0  0  0  0  0  0  0  0  0  0
   17.3633   -6.8825  -15.6437 O   0  0  0  0  0  0  0  0  0  0  0  0
  2  3  1  0
  2  1  1  6
  4  3  1  0
  5  4  2  0
  6  5  1  0
  7 12  2  0
  7  6  1  0
  8  7  1  0
  9  8  2  0
  9 10  1  0
 10 11  2  0
 11 12  1  0
 12  4  1  0
 13  2  1  0
 14 13  2  0
 15 16  1  0
 16 17  2  0
 16 26  1  0
 17 18  1  0
 18 19  2  0
 19 20  1  0
 21 20  1  1
 21 22  1  0
 22 13  1  0
 23 21  1  0
 23 27  1  0
 24 23  2  0
 25 19  1  0
 26 25  2  0
 28 27  1  0
 28 33  1  0
 28 29  1  6
 29 30  1  0
 31 30  1  0
 32 31  2  0
 33 34  1  0
 35 31  1  0
 36 33  2  0
M  END
$$$$
