WYE.pdb
     RDKit          3D

 36 38  0  0  1  0  0  0  0  0999 V2000
   23.6851  -17.6894  -18.4614 N   0  0  0  0  0  0  0  0  0  0  0  0
   22.9765  -17.6064  -17.2322 C   0  0  1  0  0  0  0  0  0  0  0  0
   21.5345  -17.1769  -17.3517 C   0  0  0  0  0  0  0  0  0  0  0  0
   21.3524  -15.8004  -17.8278 C   0  0  0  0  0  0  0  0  0  0  0  0
   22.3729  -15.0431  -18.4004 C   0  0  0  0  0  0  0  0  0  0  0  0
   21.8408  -13.8761  -18.7260 N   0  0  0  0  0  0  0  0  0  0  0  0
   20.5295  -13.8267  -18.3982 C   0  0  0  0  0  0  0  0  0  0  0  0
   19.5486  -12.8618  -18.5178 C   0  0  0  0  0  0  0  0  0  0  0  0
   18.2706  -13.1408  -18.0606 C   0  0  0  0  0  0  0  0  0  0  0  0
   17.9347  -14.3381  -17.4918 C   0  0  0  0  0  0  0  0  0  0  0  0
   18.9244  -15.3056  -17.3739 C   0  0  0  0  0  0  0  0  0  0  0  0
   20.2146  -15.0566  -17.8232 C   0  0  0  0  0  0  0  0  0  0  0  0
   22.9797  -18.8918  -16.4601 C   0  0  0  0  0  0  0  0  0  0  0  0
   22.6483  -19.9383  -17.0733 O   0  0  0  0  0  0  0  0  0  0  0  0
   29.0707  -20.8921  -17.0143 O   0  0  0  0  0  0  0  0  0  0  0  0
   27.9582  -20.8068  -16.1817 C   0  0  0  0  0  0  0  0  0  0  0  0
   27.1963  -21.9058  -15.8995 C   0  0  0  0  0  0  0  0  0  0  0  0
   26.0840  -21.7810  -15.0572 C   0  0  0  0  0  0  0  0  0  0  0  0
   25.7386  -20.5722  -14.5049 C   0  0  0  0  0  0  0  0  0  0  0  0
   24.5895  -20.4547  -13.6269 C   0  0  0  0  0  0  0  0  0  0  0  0
   23.2785  -20.2461  -14.3589 C   0  0  2  0  0  0  0  0  0  0  0  0
   23.3319  -18.9710  -15.1005 N   0  0  0  0  0  0  0  0  0  0  0  0
   22.0918  -20.2898  -13.4939 C   0  0  0  0  0  0  0  0  0  0  0  0
   22.0247  -19.5070  -12.5032 O   0  0  0  0  0  0  0  0  0  0  0  0
   26.5213  -19.4848  -14.8057 C   0  0  0  0  0  0  0  0  0  0  0  0
   27.6325  -19.5899  -15.6417 C   0  0  0  0  0  0  0  0  0  0  0  0
   21.0060  -21.1644  -13.7069 N   0  0  0  0  0  0  0  0  0  0  0  0
   19.8447  -21.1934  -12.7918 C   0  0  1  0  0  0  0  0  0  0  0  0
   18.7907  -20.4212  -13.4912 C   0  0  0  0  0  0  0  0  0  0  0  0
   18.2051  -20.9145  -14.7430 C   0  0  0  0  0  0  0  0  0  0  0  0
   17.1431  -20.1554  -15.3795 C   0  0  0  0  0  0  0  0  0  0  0  0
   16.6604  -20.4895  -16.4787 O   0  0  0  0  0  0  0  0  0  0  0  0
   19.5674  -22.5698  -12.4530 C   0  0  0  0  0  0  0  0  0  0  0  0
   18.6834  -22.8822  -11.4175 O   0  0  0  0  0  0  0  0  0  0  0  0
   16.6583  -19.0186  -14.7274 O   0  0  0  0  0  0  0  0  0  0  0  0
   20.0810  -23.5609  -13.0401 O   0  0  0  0  0  0  0  0  0  0  0  0
  2  3  1  0
  2  1  1  6
  4  3  1  0
  5  4  2  0
  6  5  1  0
  7 12  2  0
  7  6  1  0
  8  7  1  0
  9  8  2  0
  9 10  1  0
 10 11  2  0
 11 12  1  0
 12  4  1  0
 13  2  1  0
 14 13  2  0
 15 16  1  0
 16 17  2  0
 16 26  1  0
 17 18  1  0
 18 19  2  0
 19 20  1  0
 21 20  1  1
 21 22  1  0
 22 13  1  0
 23 21  1  0
 23 27  1  0
 24 23  2  0
 25 19  1  0
 26 25  2  0
 28 27  1  0
 28 33  1  0
 28 29  1  6
 29 30  1  0
 31 30  1  0
 32 31  2  0
 33 34  1  0
 35 31  1  0
 36 33  2  0
M  END
$$$$
