WYE.pdb
     RDKit          3D

 36 38  0  0  1  0  0  0  0  0999 V2000
   12.9222  -22.4747   -5.6947 N   0  0  0  0  0  0  0  0  0  0  0  0
   13.3583  -23.1617   -4.5296 C   0  0  1  0  0  0  0  0  0  0  0  0
   14.7324  -22.7786   -4.0366 C   0  0  0  0  0  0  0  0  0  0  0  0
   15.7354  -23.8436   -4.1571 C   0  0  0  0  0  0  0  0  0  0  0  0
   16.4281  -24.1182   -5.3351 C   0  0  0  0  0  0  0  0  0  0  0  0
   17.2550  -25.1150   -5.0639 N   0  0  0  0  0  0  0  0  0  0  0  0
   17.1423  -25.5087   -3.7748 C   0  0  0  0  0  0  0  0  0  0  0  0
   17.7583  -26.4831   -3.0141 C   0  0  0  0  0  0  0  0  0  0  0  0
   17.3931  -26.6309   -1.6856 C   0  0  0  0  0  0  0  0  0  0  0  0
   16.4425  -25.8491   -1.0896 C   0  0  0  0  0  0  0  0  0  0  0  0
   15.8259  -24.8704   -1.8585 C   0  0  0  0  0  0  0  0  0  0  0  0
   16.1705  -24.6970   -3.1926 C   0  0  0  0  0  0  0  0  0  0  0  0
   12.4250  -23.0046   -3.3666 C   0  0  0  0  0  0  0  0  0  0  0  0
   11.9175  -21.8697   -3.1786 O   0  0  0  0  0  0  0  0  0  0  0  0
    6.5277  -24.5338    2.9700 O   0  0  0  0  0  0  0  0  0  0  0  0
    7.4250  -24.6320    1.9101 C   0  0  0  0  0  0  0  0  0  0  0  0
    7.3242  -23.8186    0.8165 C   0  0  0  0  0  0  0  0  0  0  0  0
    8.2458  -23.9469   -0.2307 C   0  0  0  0  0  0  0  0  0  0  0  0
    9.2549  -24.8770   -0.1839 C   0  0  0  0  0  0  0  0  0  0  0  0
   10.2097  -24.9965   -1.2698 C   0  0  0  0  0  0  0  0  0  0  0  0
   11.2091  -23.8585   -1.3341 C   0  0  2  0  0  0  0  0  0  0  0  0
   12.1016  -24.0584   -2.4926 N   0  0  0  0  0  0  0  0  0  0  0  0
   11.9933  -23.6750   -0.1053 C   0  0  0  0  0  0  0  0  0  0  0  0
   13.1317  -24.2179   -0.0163 O   0  0  0  0  0  0  0  0  0  0  0  0
    9.3323  -25.6811    0.9265 C   0  0  0  0  0  0  0  0  0  0  0  0
    8.4242  -25.5677    1.9787 C   0  0  0  0  0  0  0  0  0  0  0  0
   11.5462  -22.9165    0.9966 N   0  0  0  0  0  0  0  0  0  0  0  0
   12.3030  -22.8759    2.2663 C   0  0  1  0  0  0  0  0  0  0  0  0
   12.3591  -24.2856    2.7201 C   0  0  0  0  0  0  0  0  0  0  0  0
   13.1373  -24.6616    3.9060 C   0  0  0  0  0  0  0  0  0  0  0  0
   13.0430  -26.0170    4.4187 C   0  0  0  0  0  0  0  0  0  0  0  0
   13.8922  -26.4879    5.1998 O   0  0  0  0  0  0  0  0  0  0  0  0
   13.5506  -22.1877    2.0300 C   0  0  0  0  0  0  0  0  0  0  0  0
   14.5299  -22.1304    3.0246 O   0  0  0  0  0  0  0  0  0  0  0  0
   11.9617  -26.8047    4.0152 O   0  0  0  0  0  0  0  0  0  0  0  0
   13.8446  -21.6052    0.9506 O   0  0  0  0  0  0  0  0  0  0  0  0
  2  3  1  0
  2  1  1  6
  4  3  1  0
  5  4  2  0
  6  5  1  0
  7 12  2  0
  7  6  1  0
  8  7  1  0
  9  8  2  0
  9 10  1  0
 10 11  2  0
 11 12  1  0
 12  4  1  0
 13  2  1  0
 14 13  2  0
 15 16  1  0
 16 17  2  0
 16 26  1  0
 17 18  1  0
 18 19  2  0
 19 20  1  0
 21 20  1  1
 21 22  1  0
 22 13  1  0
 23 21  1  0
 23 27  1  0
 24 23  2  0
 25 19  1  0
 26 25  2  0
 28 27  1  0
 28 33  1  0
 28 29  1  6
 29 30  1  0
 31 30  1  0
 32 31  2  0
 33 34  1  0
 35 31  1  0
 36 33  2  0
M  END
$$$$
