WYE.pdb
     RDKit          3D

 36 38  0  0  1  0  0  0  0  0999 V2000
   27.4379  -22.4095  -16.0561 N   0  0  0  0  0  0  0  0  0  0  0  0
   26.8084  -21.5728  -15.0952 C   0  0  1  0  0  0  0  0  0  0  0  0
   27.0341  -20.0929  -15.2884 C   0  0  0  0  0  0  0  0  0  0  0  0
   28.3337  -19.6125  -14.8036 C   0  0  0  0  0  0  0  0  0  0  0  0
   29.1503  -18.7431  -15.5249 C   0  0  0  0  0  0  0  0  0  0  0  0
   30.2155  -18.5142  -14.7739 N   0  0  0  0  0  0  0  0  0  0  0  0
   30.1423  -19.1851  -13.6017 C   0  0  0  0  0  0  0  0  0  0  0  0
   30.9740  -19.2875  -12.5038 C   0  0  0  0  0  0  0  0  0  0  0  0
   30.5910  -20.0911  -11.4418 C   0  0  0  0  0  0  0  0  0  0  0  0
   29.4173  -20.7927  -11.4324 C   0  0  0  0  0  0  0  0  0  0  0  0
   28.5840  -20.6865  -12.5386 C   0  0  0  0  0  0  0  0  0  0  0  0
   28.9394  -19.8888  -13.6184 C   0  0  0  0  0  0  0  0  0  0  0  0
   25.3247  -21.7747  -15.0171 C   0  0  0  0  0  0  0  0  0  0  0  0
   24.7527  -22.2717  -16.0205 O   0  0  0  0  0  0  0  0  0  0  0  0
   25.2304  -20.3835   -7.9346 O   0  0  0  0  0  0  0  0  0  0  0  0
   24.6104  -20.8943   -9.0717 C   0  0  0  0  0  0  0  0  0  0  0  0
   23.3194  -20.5708   -9.3826 C   0  0  0  0  0  0  0  0  0  0  0  0
   22.7290  -21.1045  -10.5354 C   0  0  0  0  0  0  0  0  0  0  0  0
   23.4215  -21.9508  -11.3659 C   0  0  0  0  0  0  0  0  0  0  0  0
   22.8041  -22.4917  -12.5623 C   0  0  0  0  0  0  0  0  0  0  0  0
   23.1112  -21.7029  -13.8198 C   0  0  2  0  0  0  0  0  0  0  0  0
   24.5612  -21.4351  -13.8855 N   0  0  0  0  0  0  0  0  0  0  0  0
   22.3500  -20.4527  -13.9478 C   0  0  0  0  0  0  0  0  0  0  0  0
   22.8012  -19.4012  -13.4097 O   0  0  0  0  0  0  0  0  0  0  0  0
   24.7166  -22.2590  -11.0292 C   0  0  0  0  0  0  0  0  0  0  0  0
   25.3210  -21.7372   -9.8859 C   0  0  0  0  0  0  0  0  0  0  0  0
   21.1291  -20.3536  -14.6470 N   0  0  0  0  0  0  0  0  0  0  0  0
   20.4090  -19.0678  -14.7682 C   0  0  1  0  0  0  0  0  0  0  0  0
   19.6014  -19.1998  -16.0038 C   0  0  0  0  0  0  0  0  0  0  0  0
   18.4600  -20.1203  -16.0594 C   0  0  0  0  0  0  0  0  0  0  0  0
   18.1293  -20.7688  -17.3159 C   0  0  0  0  0  0  0  0  0  0  0  0
   18.7804  -20.5603  -18.3578 O   0  0  0  0  0  0  0  0  0  0  0  0
   19.7155  -18.8165  -13.5264 C   0  0  0  0  0  0  0  0  0  0  0  0
   19.3470  -17.5174  -13.1688 O   0  0  0  0  0  0  0  0  0  0  0  0
   17.0456  -21.6506  -17.3418 O   0  0  0  0  0  0  0  0  0  0  0  0
   19.4001  -19.7132  -12.6975 O   0  0  0  0  0  0  0  0  0  0  0  0
  2  3  1  0
  2  1  1  6
  4  3  1  0
  5  4  2  0
  6  5  1  0
  7 12  2  0
  7  6  1  0
  8  7  1  0
  9  8  2  0
  9 10  1  0
 10 11  2  0
 11 12  1  0
 12  4  1  0
 13  2  1  0
 14 13  2  0
 15 16  1  0
 16 17  2  0
 16 26  1  0
 17 18  1  0
 18 19  2  0
 19 20  1  0
 21 20  1  1
 21 22  1  0
 22 13  1  0
 23 21  1  0
 23 27  1  0
 24 23  2  0
 25 19  1  0
 26 25  2  0
 28 27  1  0
 28 33  1  0
 28 29  1  6
 29 30  1  0
 31 30  1  0
 32 31  2  0
 33 34  1  0
 35 31  1  0
 36 33  2  0
M  END
$$$$
