WYE.pdb
     RDKit          3D

 36 38  0  0  1  0  0  0  0  0999 V2000
   27.2652  -20.1301  -18.4765 N   0  0  0  0  0  0  0  0  0  0  0  0
   27.4550  -19.4450  -17.2459 C   0  0  1  0  0  0  0  0  0  0  0  0
   27.0129  -18.0018  -17.2413 C   0  0  0  0  0  0  0  0  0  0  0  0
   27.8034  -17.1258  -18.1146 C   0  0  0  0  0  0  0  0  0  0  0  0
   27.2437  -16.3124  -19.0984 C   0  0  0  0  0  0  0  0  0  0  0  0
   28.2454  -15.6563  -19.6616 N   0  0  0  0  0  0  0  0  0  0  0  0
   29.4294  -15.9947  -19.1020 C   0  0  0  0  0  0  0  0  0  0  0  0
   30.7375  -15.6118  -19.3245 C   0  0  0  0  0  0  0  0  0  0  0  0
   31.7438  -16.1746  -18.5557 C   0  0  0  0  0  0  0  0  0  0  0  0
   31.4973  -17.0995  -17.5791 C   0  0  0  0  0  0  0  0  0  0  0  0
   30.1801  -17.4814  -17.3587 C   0  0  0  0  0  0  0  0  0  0  0  0
   29.1493  -16.9350  -18.1121 C   0  0  0  0  0  0  0  0  0  0  0  0
   26.7704  -20.1080  -16.0884 C   0  0  0  0  0  0  0  0  0  0  0  0
   25.8607  -20.9361  -16.3486 O   0  0  0  0  0  0  0  0  0  0  0  0
   24.1660  -21.6956   -7.7507 O   0  0  0  0  0  0  0  0  0  0  0  0
   24.8939  -21.3416   -8.8834 C   0  0  0  0  0  0  0  0  0  0  0  0
   25.6090  -22.2698   -9.5870 C   0  0  0  0  0  0  0  0  0  0  0  0
   26.3294  -21.8758  -10.7220 C   0  0  0  0  0  0  0  0  0  0  0  0
   26.3341  -20.5702  -11.1471 C   0  0  0  0  0  0  0  0  0  0  0  0
   27.0765  -20.1735  -12.3288 C   0  0  0  0  0  0  0  0  0  0  0  0
   26.3515  -20.4542  -13.6302 C   0  0  2  0  0  0  0  0  0  0  0  0
   27.0996  -19.8438  -14.7465 N   0  0  0  0  0  0  0  0  0  0  0  0
   24.9502  -20.0127  -13.6466 C   0  0  0  0  0  0  0  0  0  0  0  0
   24.6963  -18.7789  -13.7555 O   0  0  0  0  0  0  0  0  0  0  0  0
   25.6074  -19.6588  -10.4212 C   0  0  0  0  0  0  0  0  0  0  0  0
   24.8840  -20.0324   -9.2891 C   0  0  0  0  0  0  0  0  0  0  0  0
   23.8553  -20.8963  -13.5486 N   0  0  0  0  0  0  0  0  0  0  0  0
   22.4613  -20.4170  -13.6648 C   0  0  1  0  0  0  0  0  0  0  0  0
   21.7963  -21.3955  -14.5574 C   0  0  0  0  0  0  0  0  0  0  0  0
   20.3893  -21.7598  -14.3555 C   0  0  0  0  0  0  0  0  0  0  0  0
   19.9384  -23.0897  -14.7254 C   0  0  0  0  0  0  0  0  0  0  0  0
   20.5192  -24.1180  -14.3277 O   0  0  0  0  0  0  0  0  0  0  0  0
   21.9292  -20.2398  -12.3338 C   0  0  0  0  0  0  0  0  0  0  0  0
   20.8303  -19.4059  -12.1132 O   0  0  0  0  0  0  0  0  0  0  0  0
   18.8180  -23.2037  -15.5527 O   0  0  0  0  0  0  0  0  0  0  0  0
   22.3953  -20.8001  -11.3045 O   0  0  0  0  0  0  0  0  0  0  0  0
  2  3  1  0
  2  1  1  6
  4  3  1  0
  5  4  2  0
  6  5  1  0
  7 12  2  0
  7  6  1  0
  8  7  1  0
  9  8  2  0
  9 10  1  0
 10 11  2  0
 11 12  1  0
 12  4  1  0
 13  2  1  0
 14 13  2  0
 15 16  1  0
 16 17  2  0
 16 26  1  0
 17 18  1  0
 18 19  2  0
 19 20  1  0
 21 20  1  1
 21 22  1  0
 22 13  1  0
 23 21  1  0
 23 27  1  0
 24 23  2  0
 25 19  1  0
 26 25  2  0
 28 27  1  0
 28 33  1  0
 28 29  1  6
 29 30  1  0
 31 30  1  0
 32 31  2  0
 33 34  1  0
 35 31  1  0
 36 33  2  0
M  END
$$$$
