WYE.pdb
     RDKit          3D

 36 38  0  0  1  0  0  0  0  0999 V2000
   24.4321  -19.6664   -9.6644 N   0  0  0  0  0  0  0  0  0  0  0  0
   25.7698  -19.9482  -10.0531 C   0  0  1  0  0  0  0  0  0  0  0  0
   26.4284  -21.0827   -9.3066 C   0  0  0  0  0  0  0  0  0  0  0  0
   26.5675  -20.8548   -7.8631 C   0  0  0  0  0  0  0  0  0  0  0  0
   25.5652  -21.1441   -6.9386 C   0  0  0  0  0  0  0  0  0  0  0  0
   26.0495  -20.8346   -5.7467 N   0  0  0  0  0  0  0  0  0  0  0  0
   27.3122  -20.3586   -5.8390 C   0  0  0  0  0  0  0  0  0  0  0  0
   28.2333  -19.9029   -4.9162 C   0  0  0  0  0  0  0  0  0  0  0  0
   29.4712  -19.4661   -5.3600 C   0  0  0  0  0  0  0  0  0  0  0  0
   29.8241  -19.4659   -6.6812 C   0  0  0  0  0  0  0  0  0  0  0  0
   28.8946  -19.9252   -7.6055 C   0  0  0  0  0  0  0  0  0  0  0  0
   27.6458  -20.3703   -7.1921 C   0  0  0  0  0  0  0  0  0  0  0  0
   25.9082  -20.2572  -11.5138 C   0  0  0  0  0  0  0  0  0  0  0  0
   24.9580  -20.8625  -12.0719 O   0  0  0  0  0  0  0  0  0  0  0  0
   24.3953  -14.7039  -16.1859 O   0  0  0  0  0  0  0  0  0  0  0  0
   25.2185  -15.7325  -15.7359 C   0  0  0  0  0  0  0  0  0  0  0  0
   25.0369  -17.0214  -16.1526 C   0  0  0  0  0  0  0  0  0  0  0  0
   25.8855  -18.0299  -15.6779 C   0  0  0  0  0  0  0  0  0  0  0  0
   26.9021  -17.7520  -14.7977 C   0  0  0  0  0  0  0  0  0  0  0  0
   27.7810  -18.8021  -14.3182 C   0  0  0  0  0  0  0  0  0  0  0  0
   27.0487  -19.9985  -13.7434 C   0  0  2  0  0  0  0  0  0  0  0  0
   27.0402  -19.9032  -12.2705 N   0  0  0  0  0  0  0  0  0  0  0  0
   27.5857  -21.2970  -14.1726 C   0  0  0  0  0  0  0  0  0  0  0  0
   28.2803  -21.9730  -13.3607 O   0  0  0  0  0  0  0  0  0  0  0  0
   27.0613  -16.4488  -14.3955 C   0  0  0  0  0  0  0  0  0  0  0  0
   26.2267  -15.4316  -14.8576 C   0  0  0  0  0  0  0  0  0  0  0  0
   27.3678  -21.8433  -15.4545 N   0  0  0  0  0  0  0  0  0  0  0  0
   26.9776  -23.2579  -15.6366 C   0  0  1  0  0  0  0  0  0  0  0  0
   25.8128  -23.4490  -14.7405 C   0  0  0  0  0  0  0  0  0  0  0  0
   25.4277  -24.7901  -14.2862 C   0  0  0  0  0  0  0  0  0  0  0  0
   24.0821  -25.2705  -14.5462 C   0  0  0  0  0  0  0  0  0  0  0  0
   23.2446  -24.5854  -15.1644 O   0  0  0  0  0  0  0  0  0  0  0  0
   26.7961  -23.5011  -17.0487 C   0  0  0  0  0  0  0  0  0  0  0  0
   27.1524  -24.7300  -17.6095 O   0  0  0  0  0  0  0  0  0  0  0  0
   23.7307  -26.5411  -14.0830 O   0  0  0  0  0  0  0  0  0  0  0  0
   26.3214  -22.6576  -17.8573 O   0  0  0  0  0  0  0  0  0  0  0  0
  2  3  1  0
  2  1  1  1
  4  3  1  0
  5  4  2  0
  6  5  1  0
  7 12  2  0
  7  6  1  0
  8  7  1  0
  9  8  2  0
  9 10  1  0
 10 11  2  0
 11 12  1  0
 12  4  1  0
 13  2  1  0
 14 13  2  0
 15 16  1  0
 16 17  2  0
 16 26  1  0
 17 18  1  0
 18 19  2  0
 19 20  1  0
 21 20  1  6
 21 22  1  0
 22 13  1  0
 23 21  1  0
 23 27  1  0
 24 23  2  0
 25 19  1  0
 26 25  2  0
 28 27  1  0
 28 33  1  0
 28 29  1  1
 29 30  1  0
 31 30  1  0
 32 31  2  0
 33 34  1  0
 35 31  1  0
 36 33  2  0
M  END
$$$$
