WYE.pdb
     RDKit          3D

 36 38  0  0  1  0  0  0  0  0999 V2000
   26.0794  -22.9192  -13.1916 N   0  0  0  0  0  0  0  0  0  0  0  0
   25.6316  -21.7646  -12.4942 C   0  0  1  0  0  0  0  0  0  0  0  0
   26.3675  -20.4895  -12.8270 C   0  0  0  0  0  0  0  0  0  0  0  0
   27.7277  -20.4175  -12.2799 C   0  0  0  0  0  0  0  0  0  0  0  0
   28.8615  -20.2063  -13.0626 C   0  0  0  0  0  0  0  0  0  0  0  0
   29.8930  -20.1779  -12.2342 N   0  0  0  0  0  0  0  0  0  0  0  0
   29.4982  -20.3590  -10.9533 C   0  0  0  0  0  0  0  0  0  0  0  0
   30.1652  -20.4180   -9.7453 C   0  0  0  0  0  0  0  0  0  0  0  0
   29.4383  -20.6304   -8.5847 C   0  0  0  0  0  0  0  0  0  0  0  0
   28.0797  -20.7854   -8.5822 C   0  0  0  0  0  0  0  0  0  0  0  0
   27.4132  -20.7251   -9.7994 C   0  0  0  0  0  0  0  0  0  0  0  0
   28.1133  -20.5129  -10.9798 C   0  0  0  0  0  0  0  0  0  0  0  0
   24.1723  -21.4831  -12.6927 C   0  0  0  0  0  0  0  0  0  0  0  0
   23.6238  -21.9578  -13.7196 O   0  0  0  0  0  0  0  0  0  0  0  0
   15.8840  -20.9722   -9.6906 O   0  0  0  0  0  0  0  0  0  0  0  0
   17.2603  -20.8401   -9.8533 C   0  0  0  0  0  0  0  0  0  0  0  0
   18.1185  -21.8360   -9.4797 C   0  0  0  0  0  0  0  0  0  0  0  0
   19.4975  -21.6668   -9.6590 C   0  0  0  0  0  0  0  0  0  0  0  0
   20.0107  -20.5161  -10.2048 C   0  0  0  0  0  0  0  0  0  0  0  0
   21.4400  -20.3537  -10.3942 C   0  0  0  0  0  0  0  0  0  0  0  0
   21.9345  -20.8182  -11.7498 C   0  0  2  0  0  0  0  0  0  0  0  0
   23.4068  -20.7214  -11.7911 N   0  0  0  0  0  0  0  0  0  0  0  0
   21.3390  -20.1022  -12.8862 C   0  0  0  0  0  0  0  0  0  0  0  0
   21.6877  -18.9077  -13.1104 O   0  0  0  0  0  0  0  0  0  0  0  0
   19.1258  -19.5320  -10.5707 C   0  0  0  0  0  0  0  0  0  0  0  0
   17.7499  -19.6827  -10.4002 C   0  0  0  0  0  0  0  0  0  0  0  0
   20.3891  -20.6770  -13.7561 N   0  0  0  0  0  0  0  0  0  0  0  0
   19.6414  -19.8588  -14.7349 C   0  0  1  0  0  0  0  0  0  0  0  0
   20.0301  -20.4006  -16.0584 C   0  0  0  0  0  0  0  0  0  0  0  0
   21.4365  -20.6779  -16.3719 C   0  0  0  0  0  0  0  0  0  0  0  0
   21.9385  -20.3915  -17.7042 C   0  0  0  0  0  0  0  0  0  0  0  0
   21.2337  -19.8382  -18.5703 O   0  0  0  0  0  0  0  0  0  0  0  0
   18.2431  -19.8837  -14.3741 C   0  0  0  0  0  0  0  0  0  0  0  0
   17.4365  -18.7618  -14.5790 O   0  0  0  0  0  0  0  0  0  0  0  0
   23.2535  -20.7529  -18.0091 O   0  0  0  0  0  0  0  0  0  0  0  0
   17.6609  -20.8797  -13.8645 O   0  0  0  0  0  0  0  0  0  0  0  0
  2  3  1  0
  2  1  1  6
  4  3  1  0
  5  4  2  0
  6  5  1  0
  7 12  2  0
  7  6  1  0
  8  7  1  0
  9  8  2  0
  9 10  1  0
 10 11  2  0
 11 12  1  0
 12  4  1  0
 13  2  1  0
 14 13  2  0
 15 16  1  0
 16 17  2  0
 16 26  1  0
 17 18  1  0
 18 19  2  0
 19 20  1  0
 21 20  1  1
 21 22  1  0
 22 13  1  0
 23 21  1  0
 23 27  1  0
 24 23  2  0
 25 19  1  0
 26 25  2  0
 28 27  1  0
 28 33  1  0
 28 29  1  6
 29 30  1  0
 31 30  1  0
 32 31  2  0
 33 34  1  0
 35 31  1  0
 36 33  2  0
M  END
$$$$
