WYE.pdb
     RDKit          3D

 36 38  0  0  1  0  0  0  0  0999 V2000
   26.8412  -18.5368  -18.8002 N   0  0  0  0  0  0  0  0  0  0  0  0
   26.6250  -17.9566  -17.5210 C   0  0  1  0  0  0  0  0  0  0  0  0
   25.6303  -16.8218  -17.4919 C   0  0  0  0  0  0  0  0  0  0  0  0
   26.1851  -15.5228  -17.8911 C   0  0  0  0  0  0  0  0  0  0  0  0
   26.0840  -15.0071  -19.1821 C   0  0  0  0  0  0  0  0  0  0  0  0
   26.6714  -13.8215  -19.1628 N   0  0  0  0  0  0  0  0  0  0  0  0
   27.1516  -13.5322  -17.9319 C   0  0  0  0  0  0  0  0  0  0  0  0
   27.8331  -12.4556  -17.3989 C   0  0  0  0  0  0  0  0  0  0  0  0
   28.1944  -12.4830  -16.0614 C   0  0  0  0  0  0  0  0  0  0  0  0
   27.9042  -13.5366  -15.2394 C   0  0  0  0  0  0  0  0  0  0  0  0
   27.2186  -14.6170  -15.7798 C   0  0  0  0  0  0  0  0  0  0  0  0
   26.8420  -14.6192  -17.1165 C   0  0  0  0  0  0  0  0  0  0  0  0
   26.1757  -18.9487  -16.4903 C   0  0  0  0  0  0  0  0  0  0  0  0
   25.4960  -19.9296  -16.8860 O   0  0  0  0  0  0  0  0  0  0  0  0
   24.5725  -22.5913   -8.5381 O   0  0  0  0  0  0  0  0  0  0  0  0
   25.0911  -21.8495   -9.5959 C   0  0  0  0  0  0  0  0  0  0  0  0
   24.7537  -20.5373   -9.7760 C   0  0  0  0  0  0  0  0  0  0  0  0
   25.2959  -19.8231  -10.8523 C   0  0  0  0  0  0  0  0  0  0  0  0
   26.1640  -20.4144  -11.7367 C   0  0  0  0  0  0  0  0  0  0  0  0
   26.7269  -19.6639  -12.8435 C   0  0  0  0  0  0  0  0  0  0  0  0
   25.9075  -19.7434  -14.1165 C   0  0  2  0  0  0  0  0  0  0  0  0
   26.4789  -18.8264  -15.1220 N   0  0  0  0  0  0  0  0  0  0  0  0
   24.4753  -19.4746  -13.9290 C   0  0  0  0  0  0  0  0  0  0  0  0
   24.0877  -18.2790  -13.7909 O   0  0  0  0  0  0  0  0  0  0  0  0
   26.4853  -21.7337  -11.5321 C   0  0  0  0  0  0  0  0  0  0  0  0
   25.9558  -22.4605  -10.4662 C   0  0  0  0  0  0  0  0  0  0  0  0
   23.4922  -20.4854  -13.8954 N   0  0  0  0  0  0  0  0  0  0  0  0
   22.0865  -20.1864  -13.5472 C   0  0  1  0  0  0  0  0  0  0  0  0
   21.4661  -19.7447  -14.8185 C   0  0  0  0  0  0  0  0  0  0  0  0
   20.0125  -19.5740  -14.9245 C   0  0  0  0  0  0  0  0  0  0  0  0
   19.4763  -18.6057  -15.8645 C   0  0  0  0  0  0  0  0  0  0  0  0
   19.7543  -18.6405  -17.0788 O   0  0  0  0  0  0  0  0  0  0  0  0
   21.5275  -21.3406  -12.8829 C   0  0  0  0  0  0  0  0  0  0  0  0
   22.1257  -22.5960  -13.0161 O   0  0  0  0  0  0  0  0  0  0  0  0
   18.6242  -17.6108  -15.3778 O   0  0  0  0  0  0  0  0  0  0  0  0
   20.4952  -21.3101  -12.1590 O   0  0  0  0  0  0  0  0  0  0  0  0
  2  3  1  0
  2  1  1  6
  4  3  1  0
  5  4  2  0
  6  5  1  0
  7 12  2  0
  7  6  1  0
  8  7  1  0
  9  8  2  0
  9 10  1  0
 10 11  2  0
 11 12  1  0
 12  4  1  0
 13  2  1  0
 14 13  2  0
 15 16  1  0
 16 17  2  0
 16 26  1  0
 17 18  1  0
 18 19  2  0
 19 20  1  0
 21 20  1  1
 21 22  1  0
 22 13  1  0
 23 21  1  0
 23 27  1  0
 24 23  2  0
 25 19  1  0
 26 25  2  0
 28 27  1  0
 28 33  1  0
 28 29  1  6
 29 30  1  0
 31 30  1  0
 32 31  2  0
 33 34  1  0
 35 31  1  0
 36 33  2  0
M  END
$$$$
