WYE.pdb
     RDKit          3D

 36 38  0  0  1  0  0  0  0  0999 V2000
   27.6451  -20.8176   -9.7418 N   0  0  0  0  0  0  0  0  0  0  0  0
   26.5172  -20.6593   -8.8919 C   0  0  1  0  0  0  0  0  0  0  0  0
   26.4654  -19.3563   -8.1319 C   0  0  0  0  0  0  0  0  0  0  0  0
   27.5545  -19.1786   -7.1640 C   0  0  0  0  0  0  0  0  0  0  0  0
   28.5491  -18.2107   -7.2942 C   0  0  0  0  0  0  0  0  0  0  0  0
   29.3348  -18.3312   -6.2363 N   0  0  0  0  0  0  0  0  0  0  0  0
   28.9107  -19.3237   -5.4211 C   0  0  0  0  0  0  0  0  0  0  0  0
   29.3695  -19.8429   -4.2263 C   0  0  0  0  0  0  0  0  0  0  0  0
   28.6842  -20.8966   -3.6429 C   0  0  0  0  0  0  0  0  0  0  0  0
   27.5654  -21.4496   -4.2019 C   0  0  0  0  0  0  0  0  0  0  0  0
   27.1076  -20.9240   -5.4033 C   0  0  0  0  0  0  0  0  0  0  0  0
   27.7720  -19.8676   -6.0126 C   0  0  0  0  0  0  0  0  0  0  0  0
   25.2097  -20.7877   -9.6147 C   0  0  0  0  0  0  0  0  0  0  0  0
   25.2491  -21.0459  -10.8445 O   0  0  0  0  0  0  0  0  0  0  0  0
   16.5243  -22.0852  -10.9194 O   0  0  0  0  0  0  0  0  0  0  0  0
   17.7604  -21.7402  -10.3796 C   0  0  0  0  0  0  0  0  0  0  0  0
   18.1523  -20.4347  -10.2799 C   0  0  0  0  0  0  0  0  0  0  0  0
   19.4037  -20.1262   -9.7310 C   0  0  0  0  0  0  0  0  0  0  0  0
   20.2515  -21.1112   -9.2879 C   0  0  0  0  0  0  0  0  0  0  0  0
   21.5422  -20.7812   -8.7131 C   0  0  0  0  0  0  0  0  0  0  0  0
   22.6958  -20.9011   -9.6893 C   0  0  2  0  0  0  0  0  0  0  0  0
   23.9630  -20.6324   -8.9818 N   0  0  0  0  0  0  0  0  0  0  0  0
   22.5746  -20.0405  -10.8740 C   0  0  0  0  0  0  0  0  0  0  0  0
   22.8573  -18.8123  -10.7724 O   0  0  0  0  0  0  0  0  0  0  0  0
   19.8323  -22.4140   -9.4005 C   0  0  0  0  0  0  0  0  0  0  0  0
   18.5901  -22.7402   -9.9438 C   0  0  0  0  0  0  0  0  0  0  0  0
   22.1574  -20.5100  -12.1368 N   0  0  0  0  0  0  0  0  0  0  0  0
   21.9413  -19.5879  -13.2725 C   0  0  1  0  0  0  0  0  0  0  0  0
   22.9602  -19.9763  -14.2761 C   0  0  0  0  0  0  0  0  0  0  0  0
   23.0351  -19.2926  -15.5724 C   0  0  0  0  0  0  0  0  0  0  0  0
   24.0529  -19.6903  -16.5289 C   0  0  0  0  0  0  0  0  0  0  0  0
   24.1483  -19.1572  -17.6512 O   0  0  0  0  0  0  0  0  0  0  0  0
   20.5501  -19.6558  -13.6546 C   0  0  0  0  0  0  0  0  0  0  0  0
   19.9967  -20.8542  -14.1121 O   0  0  0  0  0  0  0  0  0  0  0  0
   24.9449  -20.7027  -16.1654 O   0  0  0  0  0  0  0  0  0  0  0  0
   19.7548  -18.6781  -13.6092 O   0  0  0  0  0  0  0  0  0  0  0  0
  2  3  1  0
  2  1  1  6
  4  3  1  0
  5  4  2  0
  6  5  1  0
  7 12  2  0
  7  6  1  0
  8  7  1  0
  9  8  2  0
  9 10  1  0
 10 11  2  0
 11 12  1  0
 12  4  1  0
 13  2  1  0
 14 13  2  0
 15 16  1  0
 16 17  2  0
 16 26  1  0
 17 18  1  0
 18 19  2  0
 19 20  1  0
 21 20  1  1
 21 22  1  0
 22 13  1  0
 23 21  1  0
 23 27  1  0
 24 23  2  0
 25 19  1  0
 26 25  2  0
 28 27  1  0
 28 33  1  0
 28 29  1  6
 29 30  1  0
 31 30  1  0
 32 31  2  0
 33 34  1  0
 35 31  1  0
 36 33  2  0
M  END
$$$$
