WYE.pdb
     RDKit          3D

 36 38  0  0  1  0  0  0  0  0999 V2000
   28.4296  -20.9296  -14.2051 N   0  0  0  0  0  0  0  0  0  0  0  0
   27.2926  -20.1063  -13.9831 C   0  0  1  0  0  0  0  0  0  0  0  0
   26.5318  -19.7156  -15.2267 C   0  0  0  0  0  0  0  0  0  0  0  0
   27.1847  -18.6763  -16.0319 C   0  0  0  0  0  0  0  0  0  0  0  0
   27.9306  -18.9462  -17.1780 C   0  0  0  0  0  0  0  0  0  0  0  0
   28.3403  -17.7784  -17.6463 N   0  0  0  0  0  0  0  0  0  0  0  0
   27.9049  -16.7592  -16.8710 C   0  0  0  0  0  0  0  0  0  0  0  0
   28.0568  -15.3873  -16.9192 C   0  0  0  0  0  0  0  0  0  0  0  0
   27.4687  -14.6099  -15.9342 C   0  0  0  0  0  0  0  0  0  0  0  0
   26.7392  -15.1447  -14.9087 C   0  0  0  0  0  0  0  0  0  0  0  0
   26.5889  -16.5249  -14.8645 C   0  0  0  0  0  0  0  0  0  0  0  0
   27.1655  -17.3310  -15.8373 C   0  0  0  0  0  0  0  0  0  0  0  0
   26.2960  -20.7158  -13.0431 C   0  0  0  0  0  0  0  0  0  0  0  0
   26.1655  -21.9661  -13.0660 O   0  0  0  0  0  0  0  0  0  0  0  0
   28.6794  -21.0188   -6.5270 O   0  0  0  0  0  0  0  0  0  0  0  0
   27.6155  -20.7564   -7.3858 C   0  0  0  0  0  0  0  0  0  0  0  0
   26.8409  -21.7653   -7.8858 C   0  0  0  0  0  0  0  0  0  0  0  0
   25.7788  -21.4624   -8.7475 C   0  0  0  0  0  0  0  0  0  0  0  0
   25.4958  -20.1669   -9.1040 C   0  0  0  0  0  0  0  0  0  0  0  0
   24.3882  -19.8626   -9.9905 C   0  0  0  0  0  0  0  0  0  0  0  0
   24.4597  -20.5753  -11.3265 C   0  0  2  0  0  0  0  0  0  0  0  0
   25.5146  -19.9567  -12.1531 N   0  0  0  0  0  0  0  0  0  0  0  0
   23.1865  -20.6120  -12.0588 C   0  0  0  0  0  0  0  0  0  0  0  0
   22.8474  -19.6102  -12.7517 O   0  0  0  0  0  0  0  0  0  0  0  0
   26.2903  -19.1733   -8.5872 C   0  0  0  0  0  0  0  0  0  0  0  0
   27.3517  -19.4557   -7.7279 C   0  0  0  0  0  0  0  0  0  0  0  0
   22.3079  -21.7151  -12.0362 N   0  0  0  0  0  0  0  0  0  0  0  0
   21.0040  -21.6802  -12.7328 C   0  0  1  0  0  0  0  0  0  0  0  0
   20.6224  -23.1030  -12.8957 C   0  0  0  0  0  0  0  0  0  0  0  0
   19.2943  -23.4704  -13.4002 C   0  0  0  0  0  0  0  0  0  0  0  0
   19.1732  -24.5478  -14.3664 C   0  0  0  0  0  0  0  0  0  0  0  0
   20.1446  -25.2598  -14.6864 O   0  0  0  0  0  0  0  0  0  0  0  0
   20.1146  -20.8186  -11.9895 C   0  0  0  0  0  0  0  0  0  0  0  0
   18.9716  -20.2877  -12.5923 O   0  0  0  0  0  0  0  0  0  0  0  0
   17.9233  -24.7810  -14.9461 O   0  0  0  0  0  0  0  0  0  0  0  0
   20.2911  -20.4882  -10.7852 O   0  0  0  0  0  0  0  0  0  0  0  0
  2  3  1  0
  2  1  1  6
  4  3  1  0
  5  4  2  0
  6  5  1  0
  7 12  2  0
  7  6  1  0
  8  7  1  0
  9  8  2  0
  9 10  1  0
 10 11  2  0
 11 12  1  0
 12  4  1  0
 13  2  1  0
 14 13  2  0
 15 16  1  0
 16 17  2  0
 16 26  1  0
 17 18  1  0
 18 19  2  0
 19 20  1  0
 21 20  1  1
 21 22  1  0
 22 13  1  0
 23 21  1  0
 23 27  1  0
 24 23  2  0
 25 19  1  0
 26 25  2  0
 28 27  1  0
 28 33  1  0
 28 29  1  1
 29 30  1  0
 31 30  1  0
 32 31  2  0
 33 34  1  0
 35 31  1  0
 36 33  2  0
M  END
$$$$
