WYE.pdb
     RDKit          3D

 36 38  0  0  1  0  0  0  0  0999 V2000
   14.0630  -14.3749    4.2188 N   0  0  0  0  0  0  0  0  0  0  0  0
   15.4425  -14.4618    4.5492 C   0  0  1  0  0  0  0  0  0  0  0  0
   16.0777  -13.1667    4.9936 C   0  0  0  0  0  0  0  0  0  0  0  0
   17.5214  -13.2571    5.2432 C   0  0  0  0  0  0  0  0  0  0  0  0
   18.4018  -13.9582    4.4209 C   0  0  0  0  0  0  0  0  0  0  0  0
   19.6095  -13.8003    4.9382 N   0  0  0  0  0  0  0  0  0  0  0  0
   19.5690  -13.0357    6.0532 C   0  0  0  0  0  0  0  0  0  0  0  0
   20.5262  -12.5906    6.9439 C   0  0  0  0  0  0  0  0  0  0  0  0
   20.1343  -11.8059    8.0167 C   0  0  0  0  0  0  0  0  0  0  0  0
   18.8320  -11.4500    8.2346 C   0  0  0  0  0  0  0  0  0  0  0  0
   17.8730  -11.8998    7.3361 C   0  0  0  0  0  0  0  0  0  0  0  0
   18.2342  -12.6871    6.2506 C   0  0  0  0  0  0  0  0  0  0  0  0
   15.7316  -15.4717    5.6192 C   0  0  0  0  0  0  0  0  0  0  0  0
   14.8346  -15.6850    6.4739 O   0  0  0  0  0  0  0  0  0  0  0  0
   15.3167  -20.7157    1.9097 O   0  0  0  0  0  0  0  0  0  0  0  0
   15.5496  -20.0771    3.1246 C   0  0  0  0  0  0  0  0  0  0  0  0
   16.4521  -19.0561    3.2289 C   0  0  0  0  0  0  0  0  0  0  0  0
   16.6595  -18.4375    4.4685 C   0  0  0  0  0  0  0  0  0  0  0  0
   15.9728  -18.8357    5.5890 C   0  0  0  0  0  0  0  0  0  0  0  0
   16.1885  -18.1831    6.8668 C   0  0  0  0  0  0  0  0  0  0  0  0
   17.2370  -17.0890    6.8261 C   0  0  2  0  0  0  0  0  0  0  0  0
   16.9462  -16.1766    5.7029 N   0  0  0  0  0  0  0  0  0  0  0  0
   18.6189  -17.5814    6.7454 C   0  0  0  0  0  0  0  0  0  0  0  0
   19.3002  -17.3320    5.7099 O   0  0  0  0  0  0  0  0  0  0  0  0
   15.0726  -19.8640    5.4555 C   0  0  0  0  0  0  0  0  0  0  0  0
   14.8526  -20.4914    4.2297 C   0  0  0  0  0  0  0  0  0  0  0  0
   19.2406  -18.3249    7.7701 N   0  0  0  0  0  0  0  0  0  0  0  0
   20.6492  -18.0879    8.1526 C   0  0  1  0  0  0  0  0  0  0  0  0
   20.7291  -16.6333    8.4251 C   0  0  0  0  0  0  0  0  0  0  0  0
   21.9936  -16.0165    8.8419 C   0  0  0  0  0  0  0  0  0  0  0  0
   21.9832  -15.0089    9.8877 C   0  0  0  0  0  0  0  0  0  0  0  0
   20.9941  -14.8332   10.6251 O   0  0  0  0  0  0  0  0  0  0  0  0
   20.9898  -18.9993    9.2199 C   0  0  0  0  0  0  0  0  0  0  0  0
   22.2459  -19.6095    9.2593 O   0  0  0  0  0  0  0  0  0  0  0  0
   23.1240  -14.2206   10.0602 O   0  0  0  0  0  0  0  0  0  0  0  0
   20.2121  -19.3064   10.1641 O   0  0  0  0  0  0  0  0  0  0  0  0
  2  3  1  0
  2  1  1  1
  4  3  1  0
  5  4  2  0
  6  5  1  0
  7 12  2  0
  7  6  1  0
  8  7  1  0
  9  8  2  0
  9 10  1  0
 10 11  2  0
 11 12  1  0
 12  4  1  0
 13  2  1  0
 14 13  2  0
 15 16  1  0
 16 17  2  0
 16 26  1  0
 17 18  1  0
 18 19  2  0
 19 20  1  0
 21 20  1  6
 21 22  1  0
 22 13  1  0
 23 21  1  0
 23 27  1  0
 24 23  2  0
 25 19  1  0
 26 25  2  0
 28 27  1  0
 28 33  1  0
 28 29  1  1
 29 30  1  0
 31 30  1  0
 32 31  2  0
 33 34  1  0
 35 31  1  0
 36 33  2  0
M  END
$$$$
