WYE.pdb
     RDKit          3D

 36 38  0  0  1  0  0  0  0  0999 V2000
   26.2868  -20.0034  -13.3704 N   0  0  0  0  0  0  0  0  0  0  0  0
   26.1508  -21.3995  -13.1421 C   0  0  1  0  0  0  0  0  0  0  0  0
   25.1595  -21.7798  -12.0694 C   0  0  0  0  0  0  0  0  0  0  0  0
   25.3030  -21.0233  -10.8196 C   0  0  0  0  0  0  0  0  0  0  0  0
   24.2920  -20.2298  -10.2803 C   0  0  0  0  0  0  0  0  0  0  0  0
   24.7668  -19.7275   -9.1519 N   0  0  0  0  0  0  0  0  0  0  0  0
   26.0319  -20.1473   -8.9224 C   0  0  0  0  0  0  0  0  0  0  0  0
   26.9503  -19.9144   -7.9176 C   0  0  0  0  0  0  0  0  0  0  0  0
   28.1981  -20.5122   -7.9942 C   0  0  0  0  0  0  0  0  0  0  0  0
   28.5634  -21.3288   -9.0285 C   0  0  0  0  0  0  0  0  0  0  0  0
   27.6364  -21.5604  -10.0366 C   0  0  0  0  0  0  0  0  0  0  0  0
   26.3774  -20.9763   -9.9881 C   0  0  0  0  0  0  0  0  0  0  0  0
   25.7671  -22.1651  -14.3730 C   0  0  0  0  0  0  0  0  0  0  0  0
   25.3790  -21.5048  -15.3700 O   0  0  0  0  0  0  0  0  0  0  0  0
   24.7076  -28.8222  -20.1431 O   0  0  0  0  0  0  0  0  0  0  0  0
   24.9837  -28.0690  -19.0053 C   0  0  0  0  0  0  0  0  0  0  0  0
   24.3349  -28.3012  -17.8251 C   0  0  0  0  0  0  0  0  0  0  0  0
   24.6395  -27.5225  -16.7012 C   0  0  0  0  0  0  0  0  0  0  0  0
   25.5809  -26.5245  -16.7578 C   0  0  0  0  0  0  0  0  0  0  0  0
   25.8956  -25.7289  -15.5860 C   0  0  0  0  0  0  0  0  0  0  0  0
   25.4259  -24.2905  -15.6786 C   0  0  2  0  0  0  0  0  0  0  0  0
   25.8226  -23.5684  -14.4539 N   0  0  0  0  0  0  0  0  0  0  0  0
   23.9843  -24.1417  -15.9203 C   0  0  0  0  0  0  0  0  0  0  0  0
   23.5206  -24.4246  -17.0620 O   0  0  0  0  0  0  0  0  0  0  0  0
   26.2170  -26.3128  -17.9563 C   0  0  0  0  0  0  0  0  0  0  0  0
   25.9272  -27.0780  -19.0854 C   0  0  0  0  0  0  0  0  0  0  0  0
   23.0732  -23.6975  -14.9396 N   0  0  0  0  0  0  0  0  0  0  0  0
   21.6280  -23.5716  -15.2265 C   0  0  1  0  0  0  0  0  0  0  0  0
   20.9610  -23.7963  -13.9223 C   0  0  0  0  0  0  0  0  0  0  0  0
   19.5141  -23.6003  -13.7760 C   0  0  0  0  0  0  0  0  0  0  0  0
   18.8841  -23.8776  -12.4973 C   0  0  0  0  0  0  0  0  0  0  0  0
   17.7693  -23.4096  -12.1953 O   0  0  0  0  0  0  0  0  0  0  0  0
   21.4056  -22.3112  -15.8957 C   0  0  0  0  0  0  0  0  0  0  0  0
   20.6453  -22.2527  -17.0662 O   0  0  0  0  0  0  0  0  0  0  0  0
   19.5606  -24.6956  -11.5885 O   0  0  0  0  0  0  0  0  0  0  0  0
   21.8620  -21.2061  -15.4943 O   0  0  0  0  0  0  0  0  0  0  0  0
  2  3  1  0
  2  1  1  6
  4  3  1  0
  5  4  2  0
  6  5  1  0
  7 12  2  0
  7  6  1  0
  8  7  1  0
  9  8  2  0
  9 10  1  0
 10 11  2  0
 11 12  1  0
 12  4  1  0
 13  2  1  0
 14 13  2  0
 15 16  1  0
 16 17  2  0
 16 26  1  0
 17 18  1  0
 18 19  2  0
 19 20  1  0
 21 20  1  1
 21 22  1  0
 22 13  1  0
 23 21  1  0
 23 27  1  0
 24 23  2  0
 25 19  1  0
 26 25  2  0
 28 27  1  0
 28 33  1  0
 28 29  1  1
 29 30  1  0
 31 30  1  0
 32 31  2  0
 33 34  1  0
 35 31  1  0
 36 33  2  0
M  END
$$$$
