WYE.pdb
     RDKit          3D

 36 38  0  0  1  0  0  0  0  0999 V2000
   26.1493  -19.3572  -17.4267 N   0  0  0  0  0  0  0  0  0  0  0  0
   26.4645  -19.2475  -16.0453 C   0  0  1  0  0  0  0  0  0  0  0  0
   26.2143  -17.8891  -15.4369 C   0  0  0  0  0  0  0  0  0  0  0  0
   27.0492  -16.8166  -15.9913 C   0  0  0  0  0  0  0  0  0  0  0  0
   26.5766  -15.5322  -16.2553 C   0  0  0  0  0  0  0  0  0  0  0  0
   27.6037  -14.8393  -16.7200 N   0  0  0  0  0  0  0  0  0  0  0  0
   28.7220  -15.5980  -16.7755 C   0  0  0  0  0  0  0  0  0  0  0  0
   30.0212  -15.3600  -17.1793 C   0  0  0  0  0  0  0  0  0  0  0  0
   30.9463  -16.3896  -17.1122 C   0  0  0  0  0  0  0  0  0  0  0  0
   30.6276  -17.6405  -16.6608 C   0  0  0  0  0  0  0  0  0  0  0  0
   29.3199  -17.8751  -16.2556 C   0  0  0  0  0  0  0  0  0  0  0  0
   28.3699  -16.8636  -16.3101 C   0  0  0  0  0  0  0  0  0  0  0  0
   25.7353  -20.2417  -15.1919 C   0  0  0  0  0  0  0  0  0  0  0  0
   24.6461  -20.6932  -15.6283 O   0  0  0  0  0  0  0  0  0  0  0  0
   25.0907  -19.3794   -7.1047 O   0  0  0  0  0  0  0  0  0  0  0  0
   25.3939  -20.0566   -8.2827 C   0  0  0  0  0  0  0  0  0  0  0  0
   25.8768  -21.3350   -8.2628 C   0  0  0  0  0  0  0  0  0  0  0  0
   26.1706  -21.9843   -9.4688 C   0  0  0  0  0  0  0  0  0  0  0  0
   25.9837  -21.3623  -10.6786 C   0  0  0  0  0  0  0  0  0  0  0  0
   26.2830  -22.0461  -11.9227 C   0  0  0  0  0  0  0  0  0  0  0  0
   25.4288  -21.5941  -13.0906 C   0  0  2  0  0  0  0  0  0  0  0  0
   26.2135  -20.6804  -13.9437 N   0  0  0  0  0  0  0  0  0  0  0  0
   24.1569  -20.9702  -12.7009 C   0  0  0  0  0  0  0  0  0  0  0  0
   24.1739  -19.8285  -12.1580 O   0  0  0  0  0  0  0  0  0  0  0  0
   25.4978  -20.0780  -10.6690 C   0  0  0  0  0  0  0  0  0  0  0  0
   25.1994  -19.4158   -9.4785 C   0  0  0  0  0  0  0  0  0  0  0  0
   22.8995  -21.5770  -12.9012 N   0  0  0  0  0  0  0  0  0  0  0  0
   21.6467  -20.9231  -12.4661 C   0  0  1  0  0  0  0  0  0  0  0  0
   20.9910  -20.4856  -13.7211 C   0  0  0  0  0  0  0  0  0  0  0  0
   19.5329  -20.5574  -13.8703 C   0  0  0  0  0  0  0  0  0  0  0  0
   18.9236  -20.1346  -15.1189 C   0  0  0  0  0  0  0  0  0  0  0  0
   19.6041  -19.7344  -16.0831 O   0  0  0  0  0  0  0  0  0  0  0  0
   20.9307  -21.8381  -11.6082 C   0  0  0  0  0  0  0  0  0  0  0  0
   19.8232  -21.4053  -10.8749 O   0  0  0  0  0  0  0  0  0  0  0  0
   17.5313  -20.1838  -15.2272 O   0  0  0  0  0  0  0  0  0  0  0  0
   21.2356  -23.0525  -11.4568 O   0  0  0  0  0  0  0  0  0  0  0  0
  2  3  1  0
  2  1  1  6
  4  3  1  0
  5  4  2  0
  6  5  1  0
  7 12  2  0
  7  6  1  0
  8  7  1  0
  9  8  2  0
  9 10  1  0
 10 11  2  0
 11 12  1  0
 12  4  1  0
 13  2  1  0
 14 13  2  0
 15 16  1  0
 16 17  2  0
 16 26  1  0
 17 18  1  0
 18 19  2  0
 19 20  1  0
 21 20  1  1
 21 22  1  0
 22 13  1  0
 23 21  1  0
 23 27  1  0
 24 23  2  0
 25 19  1  0
 26 25  2  0
 28 27  1  0
 28 33  1  0
 28 29  1  6
 29 30  1  0
 31 30  1  0
 32 31  2  0
 33 34  1  0
 35 31  1  0
 36 33  2  0
M  END
$$$$
