WYE.pdb
     RDKit          3D

 36 38  0  0  1  0  0  0  0  0999 V2000
   23.8023  -26.6287  -17.5750 N   0  0  0  0  0  0  0  0  0  0  0  0
   23.9120  -26.3249  -16.1910 C   0  0  1  0  0  0  0  0  0  0  0  0
   24.4933  -24.9678  -15.8770 C   0  0  0  0  0  0  0  0  0  0  0  0
   25.8730  -24.7802  -16.3417 C   0  0  0  0  0  0  0  0  0  0  0  0
   26.3080  -23.6432  -17.0206 C   0  0  0  0  0  0  0  0  0  0  0  0
   27.5988  -23.8144  -17.2566 N   0  0  0  0  0  0  0  0  0  0  0  0
   28.0330  -24.9997  -16.7707 C   0  0  0  0  0  0  0  0  0  0  0  0
   29.2568  -25.6399  -16.7614 C   0  0  0  0  0  0  0  0  0  0  0  0
   29.3589  -26.8882  -16.1684 C   0  0  0  0  0  0  0  0  0  0  0  0
   28.2938  -27.5193  -15.5877 C   0  0  0  0  0  0  0  0  0  0  0  0
   27.0651  -26.8715  -15.5993 C   0  0  0  0  0  0  0  0  0  0  0  0
   26.9307  -25.6196  -16.1852 C   0  0  0  0  0  0  0  0  0  0  0  0
   22.6051  -26.4121  -15.4612 C   0  0  0  0  0  0  0  0  0  0  0  0
   21.5581  -26.1710  -16.1143 O   0  0  0  0  0  0  0  0  0  0  0  0
   16.7503  -27.1065   -8.8245 O   0  0  0  0  0  0  0  0  0  0  0  0
   17.8855  -27.1959   -9.6255 C   0  0  0  0  0  0  0  0  0  0  0  0
   18.0510  -28.2241  -10.5105 C   0  0  0  0  0  0  0  0  0  0  0  0
   19.2069  -28.2805  -11.2999 C   0  0  0  0  0  0  0  0  0  0  0  0
   20.1841  -27.3206  -11.2047 C   0  0  0  0  0  0  0  0  0  0  0  0
   21.3739  -27.3831  -12.0327 C   0  0  0  0  0  0  0  0  0  0  0  0
   21.2155  -26.7137  -13.3836 C   0  0  2  0  0  0  0  0  0  0  0  0
   22.5065  -26.7464  -14.0983 N   0  0  0  0  0  0  0  0  0  0  0  0
   20.6973  -25.3404  -13.3185 C   0  0  0  0  0  0  0  0  0  0  0  0
   21.4838  -24.4015  -13.0046 O   0  0  0  0  0  0  0  0  0  0  0  0
   19.9919  -26.2992  -10.3072 C   0  0  0  0  0  0  0  0  0  0  0  0
   18.8477  -26.2264   -9.5133 C   0  0  0  0  0  0  0  0  0  0  0  0
   19.3556  -25.0017  -13.5913 N   0  0  0  0  0  0  0  0  0  0  0  0
   18.8694  -23.6102  -13.4732 C   0  0  1  0  0  0  0  0  0  0  0  0
   18.4836  -23.2244  -14.8511 C   0  0  0  0  0  0  0  0  0  0  0  0
   17.9104  -21.9022  -15.1274 C   0  0  0  0  0  0  0  0  0  0  0  0
   16.4723  -21.7185  -15.0441 C   0  0  0  0  0  0  0  0  0  0  0  0
   15.8028  -22.1715  -14.0956 O   0  0  0  0  0  0  0  0  0  0  0  0
   17.8546  -23.5690  -12.4463 C   0  0  0  0  0  0  0  0  0  0  0  0
   17.5442  -22.3690  -11.8020 O   0  0  0  0  0  0  0  0  0  0  0  0
   15.8341  -21.0101  -16.0656 O   0  0  0  0  0  0  0  0  0  0  0  0
   17.1939  -24.5726  -12.0630 O   0  0  0  0  0  0  0  0  0  0  0  0
  2  3  1  0
  2  1  1  6
  4  3  1  0
  5  4  2  0
  6  5  1  0
  7 12  2  0
  7  6  1  0
  8  7  1  0
  9  8  2  0
  9 10  1  0
 10 11  2  0
 11 12  1  0
 12  4  1  0
 13  2  1  0
 14 13  2  0
 15 16  1  0
 16 17  2  0
 16 26  1  0
 17 18  1  0
 18 19  2  0
 19 20  1  0
 21 20  1  1
 21 22  1  0
 22 13  1  0
 23 21  1  0
 23 27  1  0
 24 23  2  0
 25 19  1  0
 26 25  2  0
 28 27  1  0
 28 33  1  0
 28 29  1  6
 29 30  1  0
 31 30  1  0
 32 31  2  0
 33 34  1  0
 35 31  1  0
 36 33  2  0
M  END
$$$$
