RNV.pdb
     RDKit          3D

 27 26  0  0  1  0  0  0  0  0999 V2000
    7.6104  -14.4718   15.4713 N   0  0  0  0  0  0  0  0  0  0  0  0
    8.6971  -14.1113   16.3407 C   0  0  0  0  0  0  0  0  0  0  0  0
    9.7837  -14.7564   16.2405 N   0  0  0  0  0  0  0  0  0  0  0  0
    8.5775  -13.0721   17.2666 N   0  0  0  0  0  0  0  0  0  0  0  0
    8.4742  -13.2146   18.7028 C   0  0  0  0  0  0  0  0  0  0  0  0
    7.1805  -13.7773   19.1662 C   0  0  0  0  0  0  0  0  0  0  0  0
    7.0340  -14.2583   20.5366 C   0  0  0  0  0  0  0  0  0  0  0  0
    8.2733  -14.9259   21.0954 C   0  0  2  0  0  0  0  0  0  0  0  0
    8.8039  -15.9490   20.2892 N   0  0  0  0  0  0  0  0  0  0  0  0
    7.9965  -15.3834   22.4877 C   0  0  0  0  0  0  0  0  0  0  0  0
    7.3340  -14.6587   23.2585 O   0  0  0  0  0  0  0  0  0  0  0  0
   10.6776  -14.5662   16.7188 N   0  0  0  0  0  0  0  0  0  0  0  0
    6.5597  -19.4189   26.0626 C   0  0  0  0  0  0  0  0  0  0  0  0
    7.9341  -19.1232   25.7473 O   0  0  0  0  0  0  0  0  0  0  0  0
    8.8613  -19.3444   26.5407 C   0  0  0  0  0  0  0  0  0  0  0  0
    8.1730  -18.5409   24.4213 C   0  0  1  0  0  0  0  0  0  0  0  0
    8.1376  -17.0278   24.3770 N   0  0  0  0  0  0  0  0  0  0  0  0
    8.4534  -16.6184   22.9744 C   0  0  0  0  0  0  0  0  0  0  0  0
    9.1243  -16.4715   25.2971 O   0  0  0  0  0  0  0  0  0  0  0  0
   10.3588  -16.4859   24.9588 C   0  0  0  0  0  0  0  0  0  0  0  0
   10.0015  -13.2548   28.9088 C   0  0  2  0  0  0  0  0  0  0  0  0
    9.1022  -14.0656   28.0337 C   0  0  0  0  0  0  0  0  0  0  0  0
    8.4259  -13.1982   27.0254 C   0  0  1  0  0  0  0  0  0  0  0  0
    9.8131  -15.2650   27.3959 N   0  0  0  0  0  0  0  0  0  0  0  0
    8.8426  -15.9084   26.5399 C   0  0  0  0  0  0  0  0  0  0  0  0
   10.4639  -16.1026   28.3827 O   0  0  0  0  0  0  0  0  0  0  0  0
   11.6972  -15.7350   28.8878 O   0  0  0  0  0  0  0  0  0  0  0  0
  2  1  1  0
  3  2  2  0
  4  2  1  0
  5  6  1  0
  5  4  1  0
  7  6  1  0
  8  7  1  0
  8  9  1  6
 10 17  1  0
 10  8  1  0
 11 10  2  0
 13 12  1  0
 14 13  2  0
 15 13  1  0
 16 15  1  6
 16 17  1  0
 18 19  2  0
 18 16  1  0
 21 20  1  1
 21 22  1  0
 23 24  1  1
 23 21  1  0
 24 18  1  0
 25 23  1  0
 26 25  1  0
 27 25  2  0
M  END
$$$$
