RNV.pdb
     RDKit          3D

 27 26  0  0  1  0  0  0  0  0999 V2000
    9.4225  -14.6914   17.3967 N   0  0  0  0  0  0  0  0  0  0  0  0
    8.7136  -13.6968   18.1549 C   0  0  0  0  0  0  0  0  0  0  0  0
    8.1100  -12.7790   17.5223 N   0  0  0  0  0  0  0  0  0  0  0  0
    8.6717  -13.7354   19.5507 N   0  0  0  0  0  0  0  0  0  0  0  0
    7.9752  -14.7134   20.3582 C   0  0  0  0  0  0  0  0  0  0  0  0
    6.7986  -15.3257   19.6907 C   0  0  0  0  0  0  0  0  0  0  0  0
    5.9460  -16.2645   20.4137 C   0  0  0  0  0  0  0  0  0  0  0  0
    6.7035  -17.3523   21.1463 C   0  0  2  0  0  0  0  0  0  0  0  0
    6.4242  -18.6596   20.7091 N   0  0  0  0  0  0  0  0  0  0  0  0
    6.4988  -17.1868   22.6144 C   0  0  0  0  0  0  0  0  0  0  0  0
    5.4450  -16.6700   23.0393 O   0  0  0  0  0  0  0  0  0  0  0  0
    7.5740  -11.9895   17.9137 N   0  0  0  0  0  0  0  0  0  0  0  0
    6.0815  -19.7106   24.8922 C   0  0  0  0  0  0  0  0  0  0  0  0
    7.2368  -19.6540   25.7513 O   0  0  0  0  0  0  0  0  0  0  0  0
    7.6281  -20.6321   26.4056 C   0  0  0  0  0  0  0  0  0  0  0  0
    7.9281  -18.3603   25.8056 C   0  0  2  0  0  0  0  0  0  0  0  0
    7.2755  -17.2577   24.9987 N   0  0  0  0  0  0  0  0  0  0  0  0
    7.4560  -17.5996   23.5548 C   0  0  0  0  0  0  0  0  0  0  0  0
    7.9049  -15.9745   25.2938 O   0  0  0  0  0  0  0  0  0  0  0  0
    9.1377  -15.8091   24.9914 C   0  0  0  0  0  0  0  0  0  0  0  0
    5.7001  -12.8463   27.1232 C   0  0  2  0  0  0  0  0  0  0  0  0
    6.8571  -12.5573   26.2234 C   0  0  0  0  0  0  0  0  0  0  0  0
    7.4127  -11.2001   26.4988 C   0  0  1  0  0  0  0  0  0  0  0  0
    7.9305  -13.6513   26.2617 N   0  0  0  0  0  0  0  0  0  0  0  0
    7.2739  -14.8826   25.8859 C   0  0  0  0  0  0  0  0  0  0  0  0
    8.6574  -13.6601   27.5150 O   0  0  0  0  0  0  0  0  0  0  0  0
    9.6264  -12.7031   27.7522 O   0  0  0  0  0  0  0  0  0  0  0  0
  2  1  1  0
  3  2  2  0
  4  2  1  0
  5  6  1  0
  5  4  1  0
  7  6  1  0
  8  7  1  0
  8  9  1  6
 10 17  1  0
 10  8  1  0
 11 10  2  0
 13 12  1  0
 14 13  2  0
 15 13  1  0
 16 15  1  1
 16 17  1  0
 18 19  2  0
 18 16  1  0
 21 20  1  6
 21 22  1  0
 23 24  1  6
 23 21  1  0
 24 18  1  0
 25 23  1  0
 26 25  1  0
 27 25  2  0
M  END
$$$$
