RNV.pdb
     RDKit          3D

 27 26  0  0  1  0  0  0  0  0999 V2000
    9.5880  -15.4840   14.7412 N   0  0  0  0  0  0  0  0  0  0  0  0
    8.1511  -15.4545   14.7709 C   0  0  0  0  0  0  0  0  0  0  0  0
    7.5200  -16.3231   14.0971 N   0  0  0  0  0  0  0  0  0  0  0  0
    7.4558  -14.5081   15.5276 N   0  0  0  0  0  0  0  0  0  0  0  0
    8.0426  -13.4961   16.3793 C   0  0  0  0  0  0  0  0  0  0  0  0
    8.5833  -14.0185   17.6598 C   0  0  0  0  0  0  0  0  0  0  0  0
    7.9280  -13.6956   18.9236 C   0  0  0  0  0  0  0  0  0  0  0  0
    8.8841  -13.4306   20.0680 C   0  0  2  0  0  0  0  0  0  0  0  0
   10.2415  -13.6273   19.7571 N   0  0  0  0  0  0  0  0  0  0  0  0
    8.4522  -14.2188   21.2582 C   0  0  0  0  0  0  0  0  0  0  0  0
    7.3167  -14.0370   21.7437 O   0  0  0  0  0  0  0  0  0  0  0  0
    6.4998  -16.4035   13.9680 N   0  0  0  0  0  0  0  0  0  0  0  0
    8.5510  -17.8528   21.1969 C   0  0  0  0  0  0  0  0  0  0  0  0
    9.5258  -18.1468   22.2162 O   0  0  0  0  0  0  0  0  0  0  0  0
   10.1820  -19.1991   22.2259 C   0  0  0  0  0  0  0  0  0  0  0  0
    9.6976  -17.1186   23.2497 C   0  0  2  0  0  0  0  0  0  0  0  0
    8.8147  -15.8996   23.0849 N   0  0  0  0  0  0  0  0  0  0  0  0
    9.2816  -15.1768   21.8626 C   0  0  0  0  0  0  0  0  0  0  0  0
    8.9251  -15.0331   24.2540 O   0  0  0  0  0  0  0  0  0  0  0  0
   10.0115  -14.3813   24.4371 C   0  0  0  0  0  0  0  0  0  0  0  0
    6.8318  -12.1968   27.6190 C   0  0  2  0  0  0  0  0  0  0  0  0
    6.8820  -13.0552   26.3973 C   0  0  0  0  0  0  0  0  0  0  0  0
    6.8199  -12.2191   25.1629 C   0  0  1  0  0  0  0  0  0  0  0  0
    8.0732  -14.0204   26.3949 N   0  0  0  0  0  0  0  0  0  0  0  0
    7.9333  -14.8405   25.2132 C   0  0  0  0  0  0  0  0  0  0  0  0
    8.2130  -14.7190   27.6564 O   0  0  0  0  0  0  0  0  0  0  0  0
    7.8687  -16.0551   27.7420 O   0  0  0  0  0  0  0  0  0  0  0  0
  2  1  1  0
  3  2  2  0
  4  2  1  0
  5  6  1  0
  5  4  1  0
  7  6  1  0
  8  7  1  0
  8  9  1  6
 10 17  1  0
 10  8  1  0
 11 10  2  0
 13 12  1  0
 14 13  2  0
 15 13  1  0
 16 15  1  6
 16 17  1  0
 18 19  2  0
 18 16  1  0
 21 20  1  1
 21 22  1  0
 23 24  1  1
 23 21  1  0
 24 18  1  0
 25 23  1  0
 26 25  1  0
 27 25  2  0
M  END
$$$$
