RNV.pdb
     RDKit          3D

 27 26  0  0  1  0  0  0  0  0999 V2000
   12.3415  -14.6272   21.9282 N   0  0  0  0  0  0  0  0  0  0  0  0
   12.2822  -16.0484   21.7200 C   0  0  0  0  0  0  0  0  0  0  0  0
   13.2167  -16.7626   22.1930 N   0  0  0  0  0  0  0  0  0  0  0  0
   11.2232  -16.6415   21.0285 N   0  0  0  0  0  0  0  0  0  0  0  0
   10.2146  -15.9508   20.2542 C   0  0  0  0  0  0  0  0  0  0  0  0
    8.8240  -16.1895   20.7171 C   0  0  0  0  0  0  0  0  0  0  0  0
    8.1843  -17.4827   20.4947 C   0  0  0  0  0  0  0  0  0  0  0  0
    6.7155  -17.5194   20.8623 C   0  0  2  0  0  0  0  0  0  0  0  0
    5.8789  -16.7703   20.0155 N   0  0  0  0  0  0  0  0  0  0  0  0
    6.5609  -17.1403   22.2965 C   0  0  0  0  0  0  0  0  0  0  0  0
    5.8790  -16.1410   22.6038 O   0  0  0  0  0  0  0  0  0  0  0  0
   13.3265  -17.7859   22.1236 N   0  0  0  0  0  0  0  0  0  0  0  0
    6.5777  -17.2013   27.4512 C   0  0  0  0  0  0  0  0  0  0  0  0
    7.0532  -18.5016   27.0524 O   0  0  0  0  0  0  0  0  0  0  0  0
    7.3206  -19.3927   27.8724 C   0  0  0  0  0  0  0  0  0  0  0  0
    7.2027  -18.7101   25.6071 C   0  0  1  0  0  0  0  0  0  0  0  0
    6.9039  -17.4937   24.7563 N   0  0  0  0  0  0  0  0  0  0  0  0
    7.1564  -17.8759   23.3334 C   0  0  0  0  0  0  0  0  0  0  0  0
    7.7695  -16.3831   25.1396 O   0  0  0  0  0  0  0  0  0  0  0  0
    9.0069  -16.4261   24.8144 C   0  0  0  0  0  0  0  0  0  0  0  0
    6.7669  -12.4902   25.0981 C   0  0  2  0  0  0  0  0  0  0  0  0
    7.3646  -12.9281   26.3954 C   0  0  0  0  0  0  0  0  0  0  0  0
    6.3074  -13.0838   27.4368 C   0  0  2  0  0  0  0  0  0  0  0  0
    8.2421  -14.1776   26.2564 N   0  0  0  0  0  0  0  0  0  0  0  0
    7.3659  -15.2492   25.8413 C   0  0  0  0  0  0  0  0  0  0  0  0
    9.0439  -14.4167   27.4392 O   0  0  0  0  0  0  0  0  0  0  0  0
    8.9170  -15.6111   28.1236 O   0  0  0  0  0  0  0  0  0  0  0  0
  2  1  1  0
  3  2  2  0
  4  2  1  0
  5  6  1  0
  5  4  1  0
  7  6  1  0
  8  7  1  0
  8  9  1  6
 10 17  1  0
 10  8  1  0
 11 10  2  0
 13 12  1  0
 14 13  2  0
 15 13  1  0
 16 15  1  6
 16 17  1  0
 18 19  2  0
 18 16  1  0
 21 20  1  1
 21 22  1  0
 23 24  1  1
 23 21  1  0
 24 18  1  0
 25 23  1  0
 26 25  1  0
 27 25  2  0
M  END
$$$$
