RNV.pdb
     RDKit          3D

 27 26  0  0  1  0  0  0  0  0999 V2000
    9.1167  -13.9347   13.5946 N   0  0  0  0  0  0  0  0  0  0  0  0
    8.2082  -14.1044   14.6956 C   0  0  0  0  0  0  0  0  0  0  0  0
    7.1223  -13.4506   14.6825 N   0  0  0  0  0  0  0  0  0  0  0  0
    8.4953  -14.9724   15.7519 N   0  0  0  0  0  0  0  0  0  0  0  0
    8.6605  -14.6030   17.1412 C   0  0  0  0  0  0  0  0  0  0  0  0
    7.4518  -13.9993   17.7572 C   0  0  0  0  0  0  0  0  0  0  0  0
    7.1251  -14.2655   19.1549 C   0  0  0  0  0  0  0  0  0  0  0  0
    8.2752  -14.8275   19.9644 C   0  0  2  0  0  0  0  0  0  0  0  0
    8.9091  -15.9432   19.3885 N   0  0  0  0  0  0  0  0  0  0  0  0
    7.8098  -15.0923   21.3564 C   0  0  0  0  0  0  0  0  0  0  0  0
    7.1184  -14.2405   21.9518 O   0  0  0  0  0  0  0  0  0  0  0  0
    6.3702  -13.4611   15.3883 N   0  0  0  0  0  0  0  0  0  0  0  0
    6.0013  -18.3409   25.3612 C   0  0  0  0  0  0  0  0  0  0  0  0
    7.4154  -18.3816   25.0882 O   0  0  0  0  0  0  0  0  0  0  0  0
    8.2477  -18.7308   25.9387 C   0  0  0  0  0  0  0  0  0  0  0  0
    7.8148  -17.9827   23.7332 C   0  0  1  0  0  0  0  0  0  0  0  0
    7.5502  -16.5307   23.3953 N   0  0  0  0  0  0  0  0  0  0  0  0
    8.1178  -16.2821   22.0349 C   0  0  0  0  0  0  0  0  0  0  0  0
    8.1910  -15.6584   24.3742 O   0  0  0  0  0  0  0  0  0  0  0  0
    9.4557  -15.4746   24.3007 C   0  0  0  0  0  0  0  0  0  0  0  0
    7.6321  -12.0244   27.6902 C   0  0  2  0  0  0  0  0  0  0  0  0
    7.1264  -13.0289   26.7067 C   0  0  0  0  0  0  0  0  0  0  0  0
    6.5502  -12.3500   25.5093 C   0  0  1  0  0  0  0  0  0  0  0  0
    8.1765  -14.0830   26.3370 N   0  0  0  0  0  0  0  0  0  0  0  0
    7.5395  -14.9866   25.4063 C   0  0  0  0  0  0  0  0  0  0  0  0
    8.7862  -14.6808   27.5073 O   0  0  0  0  0  0  0  0  0  0  0  0
    9.7737  -13.9965   28.1911 O   0  0  0  0  0  0  0  0  0  0  0  0
  2  1  1  0
  3  2  2  0
  4  2  1  0
  5  6  1  0
  5  4  1  0
  7  6  1  0
  8  7  1  0
  8  9  1  6
 10 17  1  0
 10  8  1  0
 11 10  2  0
 13 12  1  0
 14 13  2  0
 15 13  1  0
 16 15  1  6
 16 17  1  0
 18 19  2  0
 18 16  1  0
 21 20  1  1
 21 22  1  0
 23 24  1  1
 23 21  1  0
 24 18  1  0
 25 23  1  0
 26 25  1  0
 27 25  2  0
M  END
$$$$
