RNV.pdb
     RDKit          3D

 27 26  0  0  1  0  0  0  0  0999 V2000
    9.3670  -14.9484   16.5732 N   0  0  0  0  0  0  0  0  0  0  0  0
    8.7693  -13.8000   17.1980 C   0  0  0  0  0  0  0  0  0  0  0  0
    7.9644  -13.0977   16.5155 N   0  0  0  0  0  0  0  0  0  0  0  0
    9.0488  -13.4624   18.5244 N   0  0  0  0  0  0  0  0  0  0  0  0
    8.5661  -14.1514   19.7017 C   0  0  0  0  0  0  0  0  0  0  0  0
    7.0984  -14.3769   19.7149 C   0  0  0  0  0  0  0  0  0  0  0  0
    6.4460  -14.9187   20.9031 C   0  0  0  0  0  0  0  0  0  0  0  0
    6.7068  -16.3923   21.1361 C   0  0  2  0  0  0  0  0  0  0  0  0
    5.7429  -17.2543   20.5829 N   0  0  0  0  0  0  0  0  0  0  0  0
    6.9115  -16.6278   22.5946 C   0  0  0  0  0  0  0  0  0  0  0  0
    5.9391  -16.5680   23.3750 O   0  0  0  0  0  0  0  0  0  0  0  0
    7.5078  -12.2144   16.7899 N   0  0  0  0  0  0  0  0  0  0  0  0
    8.9189  -17.7128   27.2044 C   0  0  0  0  0  0  0  0  0  0  0  0
    9.6360  -18.5010   26.2347 O   0  0  0  0  0  0  0  0  0  0  0  0
   10.4443  -19.3833   26.5608 C   0  0  0  0  0  0  0  0  0  0  0  0
    9.3502  -18.1955   24.8277 C   0  0  2  0  0  0  0  0  0  0  0  0
    8.3264  -17.1011   24.6114 N   0  0  0  0  0  0  0  0  0  0  0  0
    8.1729  -16.9242   23.1350 C   0  0  0  0  0  0  0  0  0  0  0  0
    8.7802  -15.8559   25.2222 O   0  0  0  0  0  0  0  0  0  0  0  0
    9.9097  -15.3705   24.8653 C   0  0  0  0  0  0  0  0  0  0  0  0
    7.1696  -12.4497   25.5048 C   0  0  2  0  0  0  0  0  0  0  0  0
    7.5078  -12.9170   26.8829 C   0  0  0  0  0  0  0  0  0  0  0  0
    6.2783  -13.3504   27.6090 C   0  0  2  0  0  0  0  0  0  0  0  0
    8.6071  -13.9856   26.8976 N   0  0  0  0  0  0  0  0  0  0  0  0
    8.0811  -15.1242   26.1798 C   0  0  0  0  0  0  0  0  0  0  0  0
    9.1079  -14.2361   28.2338 O   0  0  0  0  0  0  0  0  0  0  0  0
    9.8659  -13.2733   28.8736 O   0  0  0  0  0  0  0  0  0  0  0  0
  2  1  1  0
  3  2  2  0
  4  2  1  0
  5  6  1  0
  5  4  1  0
  7  6  1  0
  8  7  1  0
  8  9  1  1
 10 17  1  0
 10  8  1  0
 11 10  2  0
 13 12  1  0
 14 13  2  0
 15 13  1  0
 16 15  1  6
 16 17  1  0
 18 19  2  0
 18 16  1  0
 21 20  1  1
 21 22  1  0
 23 24  1  1
 23 21  1  0
 24 18  1  0
 25 23  1  0
 26 25  1  0
 27 25  2  0
M  END
$$$$
