RNV.pdb
     RDKit          3D

 27 26  0  0  1  0  0  0  0  0999 V2000
    8.9474  -14.8063   18.6165 N   0  0  0  0  0  0  0  0  0  0  0  0
    8.2502  -13.5550   18.7370 C   0  0  0  0  0  0  0  0  0  0  0  0
    8.2349  -12.7789   17.7348 N   0  0  0  0  0  0  0  0  0  0  0  0
    7.5920  -13.1965   19.9159 N   0  0  0  0  0  0  0  0  0  0  0  0
    7.3410  -14.0584   21.0507 C   0  0  0  0  0  0  0  0  0  0  0  0
    6.3275  -15.1142   20.7995 C   0  0  0  0  0  0  0  0  0  0  0  0
    6.7410  -16.4982   20.5881 C   0  0  0  0  0  0  0  0  0  0  0  0
    7.0674  -17.2493   21.8622 C   0  0  2  0  0  0  0  0  0  0  0  0
    6.7064  -16.5822   23.0466 N   0  0  0  0  0  0  0  0  0  0  0  0
    8.5068  -17.6397   21.8443 C   0  0  0  0  0  0  0  0  0  0  0  0
    9.0518  -17.9503   20.7651 O   0  0  0  0  0  0  0  0  0  0  0  0
    7.7799  -11.8565   17.6572 N   0  0  0  0  0  0  0  0  0  0  0  0
   12.1027  -14.7970   20.3931 C   0  0  0  0  0  0  0  0  0  0  0  0
   11.7054  -15.0645   21.7519 O   0  0  0  0  0  0  0  0  0  0  0  0
   12.3438  -14.6417   22.7275 C   0  0  0  0  0  0  0  0  0  0  0  0
   10.4907  -15.8726   21.9137 C   0  0  1  0  0  0  0  0  0  0  0  0
   10.4963  -16.7927   23.1163 N   0  0  0  0  0  0  0  0  0  0  0  0
    9.2891  -17.6678   23.0097 C   0  0  0  0  0  0  0  0  0  0  0  0
   10.4451  -16.0139   24.3494 O   0  0  0  0  0  0  0  0  0  0  0  0
   11.5257  -15.8401   25.0133 C   0  0  0  0  0  0  0  0  0  0  0  0
    7.8989  -12.8616   27.2225 C   0  0  2  0  0  0  0  0  0  0  0  0
    8.0517  -13.7405   26.0242 C   0  0  0  0  0  0  0  0  0  0  0  0
    8.0611  -12.9282   24.7726 C   0  0  1  0  0  0  0  0  0  0  0  0
    9.2582  -14.6812   26.1242 N   0  0  0  0  0  0  0  0  0  0  0  0
    9.3026  -15.4234   24.8850 C   0  0  0  0  0  0  0  0  0  0  0  0
    9.2447  -15.4593   27.3462 O   0  0  0  0  0  0  0  0  0  0  0  0
    9.6908  -14.8919   28.5252 O   0  0  0  0  0  0  0  0  0  0  0  0
  2  1  1  0
  3  2  2  0
  4  2  1  0
  5  6  1  0
  5  4  1  0
  7  6  1  0
  8  7  1  0
  8  9  1  1
 10 17  1  0
 10  8  1  0
 11 10  2  0
 13 12  1  0
 14 13  2  0
 15 13  1  0
 16 15  1  6
 16 17  1  0
 18 19  2  0
 18 16  1  0
 21 20  1  6
 21 22  1  0
 23 24  1  6
 23 21  1  0
 24 18  1  0
 25 23  1  0
 26 25  1  0
 27 25  2  0
M  END
$$$$
