RNV.pdb
     RDKit          3D

 27 26  0  0  1  0  0  0  0  0999 V2000
    7.6606  -12.9363   17.3390 N   0  0  0  0  0  0  0  0  0  0  0  0
    7.8137  -13.6909   16.1250 C   0  0  0  0  0  0  0  0  0  0  0  0
    7.6049  -13.1010   15.0227 N   0  0  0  0  0  0  0  0  0  0  0  0
    8.1943  -15.0349   16.1439 N   0  0  0  0  0  0  0  0  0  0  0  0
    8.4153  -15.8442   17.3229 C   0  0  0  0  0  0  0  0  0  0  0  0
    7.1812  -16.1502   18.0899 C   0  0  0  0  0  0  0  0  0  0  0  0
    7.2517  -16.4233   19.5222 C   0  0  0  0  0  0  0  0  0  0  0  0
    8.1829  -15.5031   20.2839 C   0  0  2  0  0  0  0  0  0  0  0  0
    9.4935  -15.4426   19.7771 N   0  0  0  0  0  0  0  0  0  0  0  0
    8.1478  -15.8611   21.7313 C   0  0  0  0  0  0  0  0  0  0  0  0
    7.0504  -15.9880   22.3124 O   0  0  0  0  0  0  0  0  0  0  0  0
    7.7411  -13.4743   14.0708 N   0  0  0  0  0  0  0  0  0  0  0  0
   11.1259  -18.8527   22.3587 C   0  0  0  0  0  0  0  0  0  0  0  0
   10.1843  -18.6960   23.4380 O   0  0  0  0  0  0  0  0  0  0  0  0
    9.3287  -19.5533   23.7045 C   0  0  0  0  0  0  0  0  0  0  0  0
   10.2996  -17.4523   24.2090 C   0  0  2  0  0  0  0  0  0  0  0  0
    9.2201  -16.4286   23.9271 N   0  0  0  0  0  0  0  0  0  0  0  0
    9.3175  -16.0699   22.4792 C   0  0  0  0  0  0  0  0  0  0  0  0
    9.4198  -15.2422   24.7532 O   0  0  0  0  0  0  0  0  0  0  0  0
   10.5959  -14.7446   24.8423 C   0  0  0  0  0  0  0  0  0  0  0  0
    7.2723  -12.0127   25.2833 C   0  0  2  0  0  0  0  0  0  0  0  0
    7.4826  -12.6981   26.5939 C   0  0  0  0  0  0  0  0  0  0  0  0
    6.2181  -13.3357   27.0640 C   0  0  2  0  0  0  0  0  0  0  0  0
    8.6625  -13.6768   26.5728 N   0  0  0  0  0  0  0  0  0  0  0  0
    8.4254  -14.5804   25.4702 C   0  0  0  0  0  0  0  0  0  0  0  0
    8.8941  -14.2816   27.8688 O   0  0  0  0  0  0  0  0  0  0  0  0
    9.4783  -13.5385   28.8776 O   0  0  0  0  0  0  0  0  0  0  0  0
  2  1  1  0
  3  2  2  0
  4  2  1  0
  5  6  1  0
  5  4  1  0
  7  6  1  0
  8  7  1  0
  8  9  1  6
 10 17  1  0
 10  8  1  0
 11 10  2  0
 13 12  1  0
 14 13  2  0
 15 13  1  0
 16 15  1  6
 16 17  1  0
 18 19  2  0
 18 16  1  0
 21 20  1  1
 21 22  1  0
 23 24  1  1
 23 21  1  0
 24 18  1  0
 25 23  1  0
 26 25  1  0
 27 25  2  0
M  END
$$$$
