RNV.pdb
     RDKit          3D

 27 26  0  0  1  0  0  0  0  0999 V2000
    8.1952  -15.2431   18.0024 N   0  0  0  0  0  0  0  0  0  0  0  0
    8.2196  -13.8098   18.1097 C   0  0  0  0  0  0  0  0  0  0  0  0
    8.4770  -13.1354   17.0677 N   0  0  0  0  0  0  0  0  0  0  0  0
    7.9561  -13.1637   19.3199 N   0  0  0  0  0  0  0  0  0  0  0  0
    7.5909  -13.8003   20.5670 C   0  0  0  0  0  0  0  0  0  0  0  0
    8.4882  -14.9140   20.9662 C   0  0  0  0  0  0  0  0  0  0  0  0
    9.4016  -14.7572   22.0941 C   0  0  0  0  0  0  0  0  0  0  0  0
   10.3061  -15.9490   22.3298 C   0  0  2  0  0  0  0  0  0  0  0  0
   10.0656  -17.0459   21.4831 N   0  0  0  0  0  0  0  0  0  0  0  0
   10.2571  -16.3219   23.7731 C   0  0  0  0  0  0  0  0  0  0  0  0
    9.7689  -17.4190   24.1140 O   0  0  0  0  0  0  0  0  0  0  0  0
    8.4865  -12.1090   16.9660 N   0  0  0  0  0  0  0  0  0  0  0  0
   11.1621  -14.1111   29.3021 C   0  0  0  0  0  0  0  0  0  0  0  0
   11.5129  -15.2323   28.4681 O   0  0  0  0  0  0  0  0  0  0  0  0
   11.7935  -16.3467   28.9345 C   0  0  0  0  0  0  0  0  0  0  0  0
   11.5178  -14.9751   27.0229 C   0  0  2  0  0  0  0  0  0  0  0  0
   10.5975  -15.8669   26.2165 N   0  0  0  0  0  0  0  0  0  0  0  0
   10.7503  -15.4784   24.7812 C   0  0  0  0  0  0  0  0  0  0  0  0
    9.2138  -15.6830   26.6424 O   0  0  0  0  0  0  0  0  0  0  0  0
    8.7583  -16.4146   27.5889 C   0  0  0  0  0  0  0  0  0  0  0  0
    7.4597  -12.3005   27.1644 C   0  0  2  0  0  0  0  0  0  0  0  0
    6.5531  -13.1762   26.3624 C   0  0  0  0  0  0  0  0  0  0  0  0
    6.4684  -12.6960   24.9522 C   0  0  2  0  0  0  0  0  0  0  0  0
    6.9210  -14.6616   26.4571 N   0  0  0  0  0  0  0  0  0  0  0  0
    8.3190  -14.7604   26.1047 C   0  0  0  0  0  0  0  0  0  0  0  0
    6.0036  -15.5003   25.7128 O   0  0  0  0  0  0  0  0  0  0  0  0
    4.7052  -15.6607   26.1595 O   0  0  0  0  0  0  0  0  0  0  0  0
  2  1  1  0
  3  2  2  0
  4  2  1  0
  5  6  1  0
  5  4  1  0
  7  6  1  0
  8  7  1  0
  8  9  1  6
 10 17  1  0
 10  8  1  0
 11 10  2  0
 13 12  1  0
 14 13  2  0
 15 13  1  0
 16 15  1  6
 16 17  1  0
 18 19  2  0
 18 16  1  0
 21 20  1  1
 21 22  1  0
 23 24  1  1
 23 21  1  0
 24 18  1  0
 25 23  1  0
 26 25  1  0
 27 25  2  0
M  END
$$$$
