RNV.pdb
     RDKit          3D

 27 26  0  0  1  0  0  0  0  0999 V2000
    7.6481  -14.8456   15.5096 N   0  0  0  0  0  0  0  0  0  0  0  0
    8.1861  -13.5155   15.5992 C   0  0  0  0  0  0  0  0  0  0  0  0
    8.6527  -12.9858   14.5464 N   0  0  0  0  0  0  0  0  0  0  0  0
    8.1894  -12.8090   16.8044 N   0  0  0  0  0  0  0  0  0  0  0  0
    7.4827  -13.1763   18.0125 C   0  0  0  0  0  0  0  0  0  0  0  0
    7.8792  -14.4935   18.5718 C   0  0  0  0  0  0  0  0  0  0  0  0
    9.0356  -14.6015   19.4562 C   0  0  0  0  0  0  0  0  0  0  0  0
    9.3094  -16.0068   19.9502 C   0  0  2  0  0  0  0  0  0  0  0  0
    8.8710  -17.0284   19.0887 N   0  0  0  0  0  0  0  0  0  0  0  0
    8.7660  -16.1540   21.3313 C   0  0  0  0  0  0  0  0  0  0  0  0
    7.5316  -16.2037   21.5101 O   0  0  0  0  0  0  0  0  0  0  0  0
    9.1367  -12.0793   14.4565 N   0  0  0  0  0  0  0  0  0  0  0  0
   10.4373  -19.6357   23.1702 C   0  0  0  0  0  0  0  0  0  0  0  0
    9.3414  -18.9385   23.7937 O   0  0  0  0  0  0  0  0  0  0  0  0
    8.1852  -19.3871   23.8010 C   0  0  0  0  0  0  0  0  0  0  0  0
    9.6777  -17.6567   24.4249 C   0  0  2  0  0  0  0  0  0  0  0  0
    8.9994  -16.4500   23.8115 N   0  0  0  0  0  0  0  0  0  0  0  0
    9.5991  -16.2457   22.4576 C   0  0  0  0  0  0  0  0  0  0  0  0
    9.2187  -15.2699   24.6415 O   0  0  0  0  0  0  0  0  0  0  0  0
   10.3955  -14.7696   24.7021 C   0  0  0  0  0  0  0  0  0  0  0  0
    7.0905  -12.0235   24.9855 C   0  0  2  0  0  0  0  0  0  0  0  0
    7.3025  -12.6355   26.3317 C   0  0  0  0  0  0  0  0  0  0  0  0
    6.0474  -13.2758   26.8231 C   0  0  2  0  0  0  0  0  0  0  0  0
    8.5034  -13.5878   26.3717 N   0  0  0  0  0  0  0  0  0  0  0  0
    8.2428  -14.6170   25.3913 C   0  0  0  0  0  0  0  0  0  0  0  0
    8.8021  -14.0344   27.7172 O   0  0  0  0  0  0  0  0  0  0  0  0
    9.4059  -13.1677   28.6091 O   0  0  0  0  0  0  0  0  0  0  0  0
  2  1  1  0
  3  2  2  0
  4  2  1  0
  5  6  1  0
  5  4  1  0
  7  6  1  0
  8  7  1  0
  8  9  1  6
 10 17  1  0
 10  8  1  0
 11 10  2  0
 13 12  1  0
 14 13  2  0
 15 13  1  0
 16 15  1  6
 16 17  1  0
 18 19  2  0
 18 16  1  0
 21 20  1  1
 21 22  1  0
 23 24  1  1
 23 21  1  0
 24 18  1  0
 25 23  1  0
 26 25  1  0
 27 25  2  0
M  END
$$$$
