RHQ.pdb
     RDKit          3D

 31 31  0  0  1  0  0  0  0  0999 V2000
   11.7895  -20.3138   11.1783 N   0  0  0  0  0  0  0  0  0  0  0  0
   13.1991  -20.4758   11.0515 C   0  0  0  0  0  0  0  0  0  0  0  0
   13.6776  -21.2257   10.1447 N   0  0  0  0  0  0  0  0  0  0  0  0
   14.0620  -19.8049   11.9321 N   0  0  0  0  0  0  0  0  0  0  0  0
   13.5904  -18.8335   12.8869 C   0  0  0  0  0  0  0  0  0  0  0  0
   12.2615  -19.1203   13.4552 C   0  0  0  0  0  0  0  0  0  0  0  0
   11.9507  -18.2323   14.6225 C   0  0  0  0  0  0  0  0  0  0  0  0
   11.3095  -16.9282   14.3327 C   0  0  2  0  0  0  0  0  0  0  0  0
   11.9594  -16.2048   13.2835 N   0  0  0  0  0  0  0  0  0  0  0  0
   11.1079  -16.0919   15.5570 C   0  0  0  0  0  0  0  0  0  0  0  0
   12.1078  -15.4065   15.9388 O   0  0  0  0  0  0  0  0  0  0  0  0
   14.7161  -21.3430   10.0462 N   0  0  0  0  0  0  0  0  0  0  0  0
    9.8739  -16.0643   16.2491 C   0  0  2  0  0  0  0  0  0  0  0  0
    9.7155  -15.3774   17.4948 C   0  0  0  0  0  0  0  0  0  0  0  0
    8.2724  -15.4379   17.9843 C   0  0  0  0  0  0  0  0  0  0  0  0
    8.1279  -14.3996   19.0385 C   0  0  0  0  0  0  0  0  0  0  0  0
    9.1794  -13.6234   19.4897 N   0  0  0  0  0  0  0  0  0  0  0  0
    8.6768  -12.8146   20.4284 C   0  0  0  0  0  0  0  0  0  0  0  0
    7.3632  -13.0727   20.5614 N   0  0  0  0  0  0  0  0  0  0  0  0
    7.0266  -14.0462   19.7075 C   0  0  0  0  0  0  0  0  0  0  0  0
   10.5316  -16.0201   18.5585 O   0  0  0  0  0  0  0  0  0  0  0  0
   11.4393  -16.8631   18.2680 N   0  0  0  0  0  0  0  0  0  0  0  0
   14.7720  -13.7854   18.4001 C   0  0  0  0  0  0  0  0  0  0  0  0
   14.7486  -14.6579   19.5477 O   0  0  0  0  0  0  0  0  0  0  0  0
   15.7971  -14.6994   20.2201 C   0  0  0  0  0  0  0  0  0  0  0  0
   13.5476  -15.4273   19.8639 C   0  0  0  0  0  0  0  0  0  0  0  0
   12.4165  -14.6703   20.4742 C   0  0  2  0  0  0  0  0  0  0  0  0
   11.3176  -15.5818   20.9110 N   0  0  0  0  0  0  0  0  0  0  0  0
   10.2674  -15.6650   19.9003 C   0  0  0  0  0  0  0  0  0  0  0  0
   10.6940  -15.2228   22.1868 O   0  0  0  0  0  0  0  0  0  0  0  0
   11.2472  -15.6076   23.3897 O   0  0  0  0  0  0  0  0  0  0  0  0
  2  3  2  0
  2  1  1  0
  4  2  1  0
  5  4  1  0
  6  5  1  0
  7  6  1  0
  8 10  1  0
  8  7  1  0
  8  9  1  6
 10 11  2  0
 12 13  1  0
 12 10  1  0
 13 14  1  6
 14 15  1  0
 15 19  1  0
 15 16  2  0
 16 17  1  0
 18 17  1  0
 19 18  2  0
 20 13  1  0
 21 20  2  0
 22 23  1  0
 23 25  1  0
 23 24  2  0
 25 26  1  0
 27 26  1  6
 27 28  1  0
 28 20  1  0
 29 27  1  0
 29 30  1  0
 31 29  2  0
M  END
$$$$
