RHQ.pdb
     RDKit          3D

 31 31  0  0  1  0  0  0  0  0999 V2000
    7.2973  -13.0418   15.2177 N   0  0  0  0  0  0  0  0  0  0  0  0
    7.8991  -14.2099   14.6678 C   0  0  0  0  0  0  0  0  0  0  0  0
    8.0962  -14.2988   13.4160 N   0  0  0  0  0  0  0  0  0  0  0  0
    8.2748  -15.2664   15.5120 N   0  0  0  0  0  0  0  0  0  0  0  0
    8.0838  -15.2208   16.9399 C   0  0  0  0  0  0  0  0  0  0  0  0
    8.2684  -13.8905   17.5459 C   0  0  0  0  0  0  0  0  0  0  0  0
    8.0267  -13.9132   19.0254 C   0  0  0  0  0  0  0  0  0  0  0  0
    9.0690  -14.5360   19.8748 C   0  0  2  0  0  0  0  0  0  0  0  0
    9.9398  -15.4063   19.1464 N   0  0  0  0  0  0  0  0  0  0  0  0
    8.5105  -15.1887   21.1000 C   0  0  0  0  0  0  0  0  0  0  0  0
    7.6959  -14.4931   21.7840 O   0  0  0  0  0  0  0  0  0  0  0  0
    8.5392  -15.1586   13.0081 N   0  0  0  0  0  0  0  0  0  0  0  0
    8.8672  -16.5059   21.4744 C   0  0  1  0  0  0  0  0  0  0  0  0
    8.4305  -17.0915   22.7053 C   0  0  0  0  0  0  0  0  0  0  0  0
    8.9133  -18.5320   22.8386 C   0  0  0  0  0  0  0  0  0  0  0  0
    8.2944  -19.0848   24.0721 C   0  0  0  0  0  0  0  0  0  0  0  0
    6.9954  -18.8111   24.4587 N   0  0  0  0  0  0  0  0  0  0  0  0
    6.7945  -19.4717   25.6038 C   0  0  0  0  0  0  0  0  0  0  0  0
    7.9216  -20.1330   25.9233 N   0  0  0  0  0  0  0  0  0  0  0  0
    8.8424  -19.8951   24.9823 C   0  0  0  0  0  0  0  0  0  0  0  0
    9.0032  -16.3630   23.8680 O   0  0  0  0  0  0  0  0  0  0  0  0
   10.2173  -15.9824   23.8688 N   0  0  0  0  0  0  0  0  0  0  0  0
    5.5583  -11.9799   26.5963 C   0  0  0  0  0  0  0  0  0  0  0  0
    6.7483  -12.0424   27.4079 O   0  0  0  0  0  0  0  0  0  0  0  0
    6.8719  -11.1426   28.2612 C   0  0  0  0  0  0  0  0  0  0  0  0
    7.7221  -13.1127   27.2064 C   0  0  0  0  0  0  0  0  0  0  0  0
    7.4119  -14.0977   26.1301 C   0  0  1  0  0  0  0  0  0  0  0  0
    8.4863  -15.1264   26.0005 N   0  0  0  0  0  0  0  0  0  0  0  0
    8.1571  -16.1068   24.9701 C   0  0  0  0  0  0  0  0  0  0  0  0
    8.7939  -15.8504   27.2360 O   0  0  0  0  0  0  0  0  0  0  0  0
    9.7883  -15.4229   28.0901 O   0  0  0  0  0  0  0  0  0  0  0  0
  2  3  2  0
  2  1  1  0
  4  2  1  0
  5  4  1  0
  6  5  1  0
  7  6  1  0
  8 10  1  0
  8  7  1  0
  8  9  1  6
 10 11  2  0
 12 13  1  0
 12 10  1  0
 13 14  1  1
 14 15  1  0
 15 19  1  0
 15 16  2  0
 16 17  1  0
 18 17  1  0
 19 18  2  0
 20 13  1  0
 21 20  2  0
 22 23  1  0
 23 25  1  0
 23 24  2  0
 25 26  1  0
 27 26  1  6
 27 28  1  0
 28 20  1  0
 29 27  1  0
 29 30  1  0
 31 29  2  0
M  END
$$$$
