RHQ.pdb
     RDKit          3D

 31 31  0  0  1  0  0  0  0  0999 V2000
    8.5409  -11.4392   18.6898 N   0  0  0  0  0  0  0  0  0  0  0  0
    9.0177  -12.3229   17.6795 C   0  0  0  0  0  0  0  0  0  0  0  0
   10.2388  -12.2958   17.3305 N   0  0  0  0  0  0  0  0  0  0  0  0
    8.1349  -13.2261   17.0672 N   0  0  0  0  0  0  0  0  0  0  0  0
    8.3097  -14.6545   17.1494 C   0  0  0  0  0  0  0  0  0  0  0  0
    9.2844  -15.1006   18.1604 C   0  0  0  0  0  0  0  0  0  0  0  0
    9.4697  -16.5883   18.1381 C   0  0  0  0  0  0  0  0  0  0  0  0
   10.4634  -17.1634   19.0749 C   0  0  2  0  0  0  0  0  0  0  0  0
   10.5574  -18.5881   18.9875 N   0  0  0  0  0  0  0  0  0  0  0  0
   10.2783  -16.6930   20.4833 C   0  0  0  0  0  0  0  0  0  0  0  0
   10.6204  -15.4926   20.7230 O   0  0  0  0  0  0  0  0  0  0  0  0
   10.6135  -13.0059   16.6542 N   0  0  0  0  0  0  0  0  0  0  0  0
    9.7507  -17.5358   21.4901 C   0  0  1  0  0  0  0  0  0  0  0  0
    9.5855  -17.0948   22.8417 C   0  0  0  0  0  0  0  0  0  0  0  0
    8.2963  -17.6364   23.4504 C   0  0  0  0  0  0  0  0  0  0  0  0
    7.1701  -17.0207   22.7003 C   0  0  0  0  0  0  0  0  0  0  0  0
    7.3125  -15.9044   21.8969 N   0  0  0  0  0  0  0  0  0  0  0  0
    6.1011  -15.6427   21.3951 C   0  0  0  0  0  0  0  0  0  0  0  0
    5.2333  -16.5571   21.8645 N   0  0  0  0  0  0  0  0  0  0  0  0
    5.8903  -17.4033   22.6660 C   0  0  0  0  0  0  0  0  0  0  0  0
   10.6856  -17.6065   23.7012 O   0  0  0  0  0  0  0  0  0  0  0  0
   10.8531  -18.8556   23.8759 N   0  0  0  0  0  0  0  0  0  0  0  0
   15.3325  -14.6859   21.6242 C   0  0  0  0  0  0  0  0  0  0  0  0
   15.9339  -15.5316   22.6252 O   0  0  0  0  0  0  0  0  0  0  0  0
   17.0963  -15.9129   22.3872 C   0  0  0  0  0  0  0  0  0  0  0  0
   15.1884  -15.8938   23.8283 C   0  0  0  0  0  0  0  0  0  0  0  0
   13.7104  -15.7002   23.7762 C   0  0  2  0  0  0  0  0  0  0  0  0
   12.9838  -16.8469   24.3978 N   0  0  0  0  0  0  0  0  0  0  0  0
   11.5379  -16.6624   24.3166 C   0  0  0  0  0  0  0  0  0  0  0  0
   13.3316  -17.1071   25.7967 O   0  0  0  0  0  0  0  0  0  0  0  0
   12.3924  -17.0047   26.8009 O   0  0  0  0  0  0  0  0  0  0  0  0
  2  3  2  0
  2  1  1  0
  4  2  1  0
  5  4  1  0
  6  5  1  0
  7  6  1  0
  8 10  1  0
  8  7  1  0
  8  9  1  1
 10 11  2  0
 12 13  1  0
 12 10  1  0
 13 14  1  1
 14 15  1  0
 15 19  1  0
 15 16  2  0
 16 17  1  0
 18 17  1  0
 19 18  2  0
 20 13  1  0
 21 20  2  0
 22 23  1  0
 23 25  1  0
 23 24  2  0
 25 26  1  0
 27 26  1  6
 27 28  1  0
 28 20  1  0
 29 27  1  0
 29 30  1  0
 31 29  2  0
M  END
$$$$
