RHQ.pdb
     RDKit          3D

 31 31  0  0  1  0  0  0  0  0999 V2000
   12.6426  -19.0762   17.8047 N   0  0  0  0  0  0  0  0  0  0  0  0
   12.4619  -20.2324   16.9925 C   0  0  0  0  0  0  0  0  0  0  0  0
   13.3731  -21.1149   16.9245 N   0  0  0  0  0  0  0  0  0  0  0  0
   11.2731  -20.3965   16.2645 N   0  0  0  0  0  0  0  0  0  0  0  0
   10.2815  -19.3560   16.1580 C   0  0  0  0  0  0  0  0  0  0  0  0
   10.8202  -18.0169   15.8613 C   0  0  0  0  0  0  0  0  0  0  0  0
    9.7431  -16.9741   15.8424 C   0  0  0  0  0  0  0  0  0  0  0  0
   10.1319  -15.6029   15.4370 C   0  0  2  0  0  0  0  0  0  0  0  0
   10.7293  -15.5503   14.1383 N   0  0  0  0  0  0  0  0  0  0  0  0
   10.9571  -14.9009   16.4692 C   0  0  0  0  0  0  0  0  0  0  0  0
   12.1837  -14.7283   16.1842 O   0  0  0  0  0  0  0  0  0  0  0  0
   13.2073  -22.0098   16.4013 N   0  0  0  0  0  0  0  0  0  0  0  0
   10.4031  -14.4532   17.6919 C   0  0  2  0  0  0  0  0  0  0  0  0
   11.1750  -13.7326   18.6582 C   0  0  0  0  0  0  0  0  0  0  0  0
   10.3373  -12.6674   19.3577 C   0  0  0  0  0  0  0  0  0  0  0  0
    8.9637  -13.2184   19.4981 C   0  0  0  0  0  0  0  0  0  0  0  0
    8.5998  -14.1083   20.4918 N   0  0  0  0  0  0  0  0  0  0  0  0
    7.3047  -14.3799   20.3004 C   0  0  0  0  0  0  0  0  0  0  0  0
    6.8730  -13.6889   19.2299 N   0  0  0  0  0  0  0  0  0  0  0  0
    7.8922  -12.9757   18.7375 C   0  0  0  0  0  0  0  0  0  0  0  0
   11.6550  -14.6411   19.7329 O   0  0  0  0  0  0  0  0  0  0  0  0
   11.2641  -15.8505   19.7910 N   0  0  0  0  0  0  0  0  0  0  0  0
   11.7195  -19.0192   23.7927 C   0  0  0  0  0  0  0  0  0  0  0  0
   11.6051  -17.6068   24.0586 O   0  0  0  0  0  0  0  0  0  0  0  0
   10.6736  -17.2700   24.8149 C   0  0  0  0  0  0  0  0  0  0  0  0
   12.5457  -16.6651   23.4561 C   0  0  0  0  0  0  0  0  0  0  0  0
   12.0260  -15.8385   22.3284 C   0  0  1  0  0  0  0  0  0  0  0  0
   13.0714  -14.9139   21.7977 N   0  0  0  0  0  0  0  0  0  0  0  0
   12.5581  -14.1191   20.6859 C   0  0  0  0  0  0  0  0  0  0  0  0
   14.3040  -15.5709   21.3567 O   0  0  0  0  0  0  0  0  0  0  0  0
   15.4566  -15.5156   22.1113 O   0  0  0  0  0  0  0  0  0  0  0  0
  2  3  2  0
  2  1  1  0
  4  2  1  0
  5  4  1  0
  6  5  1  0
  7  6  1  0
  8 10  1  0
  8  7  1  0
  8  9  1  6
 10 11  2  0
 12 13  1  0
 12 10  1  0
 13 14  1  6
 14 15  1  0
 15 19  1  0
 15 16  2  0
 16 17  1  0
 18 17  1  0
 19 18  2  0
 20 13  1  0
 21 20  2  0
 22 23  1  0
 23 25  1  0
 23 24  2  0
 25 26  1  0
 27 26  1  1
 27 28  1  0
 28 20  1  0
 29 27  1  0
 29 30  1  0
 31 29  2  0
M  END
$$$$
