RHQ.pdb
     RDKit          3D

 31 31  0  0  1  0  0  0  0  0999 V2000
    9.3802  -15.6661   17.6399 N   0  0  0  0  0  0  0  0  0  0  0  0
    9.5892  -14.2883   17.3450 C   0  0  0  0  0  0  0  0  0  0  0  0
    8.9646  -13.7379   16.3855 N   0  0  0  0  0  0  0  0  0  0  0  0
   10.4888  -13.5367   18.1168 N   0  0  0  0  0  0  0  0  0  0  0  0
   11.5820  -14.1402   18.8368 C   0  0  0  0  0  0  0  0  0  0  0  0
   11.4565  -15.5932   19.0466 C   0  0  0  0  0  0  0  0  0  0  0  0
   12.2099  -16.0486   20.2602 C   0  0  0  0  0  0  0  0  0  0  0  0
   11.4577  -16.8207   21.2770 C   0  0  2  0  0  0  0  0  0  0  0  0
   10.5499  -17.7664   20.7045 N   0  0  0  0  0  0  0  0  0  0  0  0
   10.7988  -15.9507   22.3008 C   0  0  0  0  0  0  0  0  0  0  0  0
   11.5623  -15.1622   22.9416 O   0  0  0  0  0  0  0  0  0  0  0  0
    9.1441  -12.7325   16.1427 N   0  0  0  0  0  0  0  0  0  0  0  0
    9.4051  -16.0016   22.5402 C   0  0  1  0  0  0  0  0  0  0  0  0
    8.7496  -15.0792   23.4167 C   0  0  0  0  0  0  0  0  0  0  0  0
    7.3713  -14.6940   22.8896 C   0  0  0  0  0  0  0  0  0  0  0  0
    7.5221  -14.4262   21.4351 C   0  0  0  0  0  0  0  0  0  0  0  0
    8.0058  -13.2343   20.9281 N   0  0  0  0  0  0  0  0  0  0  0  0
    7.9960  -13.3580   19.5967 C   0  0  0  0  0  0  0  0  0  0  0  0
    7.5250  -14.5778   19.2806 N   0  0  0  0  0  0  0  0  0  0  0  0
    7.2342  -15.2335   20.4100 C   0  0  0  0  0  0  0  0  0  0  0  0
    8.5163  -15.6941   24.7501 O   0  0  0  0  0  0  0  0  0  0  0  0
    7.8145  -15.1016   25.6306 N   0  0  0  0  0  0  0  0  0  0  0  0
    8.0384  -21.0982   27.8524 C   0  0  0  0  0  0  0  0  0  0  0  0
    7.0531  -20.0706   28.0802 O   0  0  0  0  0  0  0  0  0  0  0  0
    6.2802  -20.2619   29.0390 C   0  0  0  0  0  0  0  0  0  0  0  0
    7.0010  -18.8949   27.2145 C   0  0  0  0  0  0  0  0  0  0  0  0
    8.0115  -18.8325   26.1190 C   0  0  2  0  0  0  0  0  0  0  0  0
    8.9194  -17.6576   26.2752 N   0  0  0  0  0  0  0  0  0  0  0  0
    9.0977  -16.9558   25.0076 C   0  0  0  0  0  0  0  0  0  0  0  0
   10.2455  -17.9746   26.8104 O   0  0  0  0  0  0  0  0  0  0  0  0
   11.3081  -17.1100   26.6545 O   0  0  0  0  0  0  0  0  0  0  0  0
  2  3  2  0
  2  1  1  0
  4  2  1  0
  5  4  1  0
  6  5  1  0
  7  6  1  0
  8 10  1  0
  8  7  1  0
  8  9  1  6
 10 11  2  0
 12 13  1  0
 12 10  1  0
 13 14  1  1
 14 15  1  0
 15 19  1  0
 15 16  2  0
 16 17  1  0
 18 17  1  0
 19 18  2  0
 20 13  1  0
 21 20  2  0
 22 23  1  0
 23 25  1  0
 23 24  2  0
 25 26  1  0
 27 26  1  1
 27 28  1  0
 28 20  1  0
 29 27  1  0
 29 30  1  0
 31 29  2  0
M  END
$$$$
