RHQ.pdb
     RDKit          3D

 31 31  0  0  1  0  0  0  0  0999 V2000
    9.4030  -13.4559   11.8376 N   0  0  0  0  0  0  0  0  0  0  0  0
    9.4389  -14.5239   12.7794 C   0  0  0  0  0  0  0  0  0  0  0  0
    9.7748  -15.6918   12.4094 N   0  0  0  0  0  0  0  0  0  0  0  0
    9.1014  -14.2849   14.1207 N   0  0  0  0  0  0  0  0  0  0  0  0
    8.8847  -15.3516   15.0656 C   0  0  0  0  0  0  0  0  0  0  0  0
   10.0944  -16.1104   15.4291 C   0  0  0  0  0  0  0  0  0  0  0  0
   10.5900  -15.7480   16.7969 C   0  0  0  0  0  0  0  0  0  0  0  0
   10.5629  -16.8077   17.8323 C   0  0  2  0  0  0  0  0  0  0  0  0
    9.5716  -17.8088   17.5843 N   0  0  0  0  0  0  0  0  0  0  0  0
   10.4819  -16.2625   19.2235 C   0  0  0  0  0  0  0  0  0  0  0  0
   11.4249  -15.4874   19.5777 O   0  0  0  0  0  0  0  0  0  0  0  0
    9.8271  -16.4750   13.1065 N   0  0  0  0  0  0  0  0  0  0  0  0
    9.4155  -16.5896   20.0942 C   0  0  1  0  0  0  0  0  0  0  0  0
    9.3415  -16.0822   21.4305 C   0  0  0  0  0  0  0  0  0  0  0  0
    8.0242  -15.3544   21.6775 C   0  0  0  0  0  0  0  0  0  0  0  0
    8.0110  -14.1658   20.7845 C   0  0  0  0  0  0  0  0  0  0  0  0
    7.1996  -14.0619   19.6698 N   0  0  0  0  0  0  0  0  0  0  0  0
    7.4612  -12.8708   19.1214 C   0  0  0  0  0  0  0  0  0  0  0  0
    8.3990  -12.2522   19.8615 N   0  0  0  0  0  0  0  0  0  0  0  0
    8.7363  -13.0479   20.8828 C   0  0  0  0  0  0  0  0  0  0  0  0
    9.3827  -17.1921   22.4188 O   0  0  0  0  0  0  0  0  0  0  0  0
    8.6804  -18.2405   22.2558 N   0  0  0  0  0  0  0  0  0  0  0  0
   13.2418  -20.5646   21.3353 C   0  0  0  0  0  0  0  0  0  0  0  0
   13.2089  -20.9004   22.7370 O   0  0  0  0  0  0  0  0  0  0  0  0
   13.8539  -21.9141   23.0681 C   0  0  0  0  0  0  0  0  0  0  0  0
   12.4522  -20.0746   23.6750 C   0  0  0  0  0  0  0  0  0  0  0  0
   11.7807  -18.8704   23.1060 C   0  0  2  0  0  0  0  0  0  0  0  0
   10.9520  -18.1680   24.1303 N   0  0  0  0  0  0  0  0  0  0  0  0
   10.2259  -17.0458   23.5431 C   0  0  0  0  0  0  0  0  0  0  0  0
   11.6996  -17.6708   25.2876 O   0  0  0  0  0  0  0  0  0  0  0  0
   12.0694  -18.5094   26.3176 O   0  0  0  0  0  0  0  0  0  0  0  0
  2  3  2  0
  2  1  1  0
  4  2  1  0
  5  4  1  0
  6  5  1  0
  7  6  1  0
  8 10  1  0
  8  7  1  0
  8  9  1  6
 10 11  2  0
 12 13  1  0
 12 10  1  0
 13 14  1  1
 14 15  1  0
 15 19  1  0
 15 16  2  0
 16 17  1  0
 18 17  1  0
 19 18  2  0
 20 13  1  0
 21 20  2  0
 22 23  1  0
 23 25  1  0
 23 24  2  0
 25 26  1  0
 27 26  1  6
 27 28  1  0
 28 20  1  0
 29 27  1  0
 29 30  1  0
 31 29  2  0
M  END
$$$$
