RHQ.pdb
     RDKit          3D

 31 31  0  0  1  0  0  0  0  0999 V2000
    9.9302  -13.1521   18.0755 N   0  0  0  0  0  0  0  0  0  0  0  0
    8.5325  -13.4259   18.0990 C   0  0  0  0  0  0  0  0  0  0  0  0
    7.7336  -12.7357   17.3924 N   0  0  0  0  0  0  0  0  0  0  0  0
    8.0363  -14.4614   18.9062 N   0  0  0  0  0  0  0  0  0  0  0  0
    7.2724  -14.2111   20.1026 C   0  0  0  0  0  0  0  0  0  0  0  0
    6.2382  -15.2184   20.3975 C   0  0  0  0  0  0  0  0  0  0  0  0
    6.3360  -15.7223   21.8061 C   0  0  0  0  0  0  0  0  0  0  0  0
    7.6860  -16.0616   22.3143 C   0  0  2  0  0  0  0  0  0  0  0  0
    8.4251  -16.9028   21.4241 N   0  0  0  0  0  0  0  0  0  0  0  0
    7.6665  -16.5946   23.7124 C   0  0  0  0  0  0  0  0  0  0  0  0
    7.0368  -15.8983   24.5691 O   0  0  0  0  0  0  0  0  0  0  0  0
    6.6977  -12.8933   17.4553 N   0  0  0  0  0  0  0  0  0  0  0  0
    8.3106  -17.8056   24.0603 C   0  0  1  0  0  0  0  0  0  0  0  0
    8.3966  -18.2595   25.4150 C   0  0  0  0  0  0  0  0  0  0  0  0
    8.6432  -19.7630   25.4837 C   0  0  0  0  0  0  0  0  0  0  0  0
    7.4303  -20.4271   24.9378 C   0  0  0  0  0  0  0  0  0  0  0  0
    6.2399  -19.7632   24.7056 N   0  0  0  0  0  0  0  0  0  0  0  0
    5.3874  -20.6731   24.2228 C   0  0  0  0  0  0  0  0  0  0  0  0
    6.0167  -21.8601   24.1549 N   0  0  0  0  0  0  0  0  0  0  0  0
    7.2714  -21.7086   24.5940 C   0  0  0  0  0  0  0  0  0  0  0  0
    9.5489  -17.6277   26.1104 O   0  0  0  0  0  0  0  0  0  0  0  0
   10.6713  -17.4915   25.5269 N   0  0  0  0  0  0  0  0  0  0  0  0
    8.3882  -12.5642   28.9835 C   0  0  0  0  0  0  0  0  0  0  0  0
    8.5331  -13.0290   27.6264 O   0  0  0  0  0  0  0  0  0  0  0  0
    8.0582  -12.2874   26.7445 C   0  0  0  0  0  0  0  0  0  0  0  0
    9.2023  -14.2978   27.3497 C   0  0  0  0  0  0  0  0  0  0  0  0
    9.7345  -15.0383   28.5301 C   0  0  2  0  0  0  0  0  0  0  0  0
   10.3318  -16.3479   28.1336 N   0  0  0  0  0  0  0  0  0  0  0  0
    9.3576  -17.1837   27.4381 C   0  0  0  0  0  0  0  0  0  0  0  0
   10.8915  -17.1267   29.2408 O   0  0  0  0  0  0  0  0  0  0  0  0
   11.9594  -16.6613   29.9781 O   0  0  0  0  0  0  0  0  0  0  0  0
  2  3  2  0
  2  1  1  0
  4  2  1  0
  5  4  1  0
  6  5  1  0
  7  6  1  0
  8 10  1  0
  8  7  1  0
  8  9  1  6
 10 11  2  0
 12 13  1  0
 12 10  1  0
 13 14  1  1
 14 15  1  0
 15 19  1  0
 15 16  2  0
 16 17  1  0
 18 17  1  0
 19 18  2  0
 20 13  1  0
 21 20  2  0
 22 23  1  0
 23 25  1  0
 23 24  2  0
 25 26  1  0
 27 26  1  6
 27 28  1  0
 28 20  1  0
 29 27  1  0
 29 30  1  0
 31 29  2  0
M  END
$$$$
