RHQ.pdb
     RDKit          3D

 31 31  0  0  1  0  0  0  0  0999 V2000
    7.9596  -12.9575   15.0897 N   0  0  0  0  0  0  0  0  0  0  0  0
    8.6789  -14.1272   15.4688 C   0  0  0  0  0  0  0  0  0  0  0  0
    9.0404  -14.9689   14.5887 N   0  0  0  0  0  0  0  0  0  0  0  0
    8.9886  -14.3505   16.8194 N   0  0  0  0  0  0  0  0  0  0  0  0
    7.9865  -14.6980   17.7955 C   0  0  0  0  0  0  0  0  0  0  0  0
    7.4941  -13.5693   18.6045 C   0  0  0  0  0  0  0  0  0  0  0  0
    8.1104  -13.5519   19.9712 C   0  0  0  0  0  0  0  0  0  0  0  0
    8.0990  -14.8199   20.7379 C   0  0  2  0  0  0  0  0  0  0  0  0
    6.8142  -15.4483   20.7633 N   0  0  0  0  0  0  0  0  0  0  0  0
    8.6885  -14.6800   22.1062 C   0  0  0  0  0  0  0  0  0  0  0  0
    9.8972  -14.2905   22.1587 O   0  0  0  0  0  0  0  0  0  0  0  0
    9.6078  -15.8095   14.8596 N   0  0  0  0  0  0  0  0  0  0  0  0
    7.9423  -14.9632   23.2746 C   0  0  2  0  0  0  0  0  0  0  0  0
    8.5447  -14.9959   24.5726 C   0  0  0  0  0  0  0  0  0  0  0  0
    7.5361  -14.6509   25.6633 C   0  0  0  0  0  0  0  0  0  0  0  0
    8.2881  -14.5831   26.9440 C   0  0  0  0  0  0  0  0  0  0  0  0
    9.0297  -13.4827   27.3324 N   0  0  0  0  0  0  0  0  0  0  0  0
    9.5588  -13.7843   28.5227 C   0  0  0  0  0  0  0  0  0  0  0  0
    9.1657  -15.0237   28.8676 N   0  0  0  0  0  0  0  0  0  0  0  0
    8.3852  -15.5139   27.8978 C   0  0  0  0  0  0  0  0  0  0  0  0
    9.0350  -16.3628   24.8918 O   0  0  0  0  0  0  0  0  0  0  0  0
    8.4141  -17.3940   24.4796 N   0  0  0  0  0  0  0  0  0  0  0  0
   13.1225  -18.1648   22.1425 C   0  0  0  0  0  0  0  0  0  0  0  0
   13.5825  -17.7178   23.4338 O   0  0  0  0  0  0  0  0  0  0  0  0
   14.8165  -17.7364   23.6073 C   0  0  0  0  0  0  0  0  0  0  0  0
   12.6245  -17.2794   24.4459 C   0  0  0  0  0  0  0  0  0  0  0  0
   11.6477  -18.3015   24.9214 C   0  0  1  0  0  0  0  0  0  0  0  0
   10.7902  -17.7714   26.0228 N   0  0  0  0  0  0  0  0  0  0  0  0
   10.2111  -16.4796   25.6661 C   0  0  0  0  0  0  0  0  0  0  0  0
   11.4695  -17.6252   27.3122 O   0  0  0  0  0  0  0  0  0  0  0  0
   12.0589  -18.7024   27.9394 O   0  0  0  0  0  0  0  0  0  0  0  0
  2  3  2  0
  2  1  1  0
  4  2  1  0
  5  4  1  0
  6  5  1  0
  7  6  1  0
  8 10  1  0
  8  7  1  0
  8  9  1  1
 10 11  2  0
 12 13  1  0
 12 10  1  0
 13 14  1  6
 14 15  1  0
 15 19  1  0
 15 16  2  0
 16 17  1  0
 18 17  1  0
 19 18  2  0
 20 13  1  0
 21 20  2  0
 22 23  1  0
 23 25  1  0
 23 24  2  0
 25 26  1  0
 27 26  1  6
 27 28  1  0
 28 20  1  0
 29 27  1  0
 29 30  1  0
 31 29  2  0
M  END
$$$$
