RHQ.pdb
     RDKit          3D

 31 31  0  0  1  0  0  0  0  0999 V2000
    7.5996  -17.6598   14.8054 N   0  0  0  0  0  0  0  0  0  0  0  0
    8.5046  -17.1707   13.8201 C   0  0  0  0  0  0  0  0  0  0  0  0
    9.1303  -17.9810   13.0681 N   0  0  0  0  0  0  0  0  0  0  0  0
    8.7060  -15.7887   13.6804 N   0  0  0  0  0  0  0  0  0  0  0  0
    8.1802  -14.8315   14.6210 C   0  0  0  0  0  0  0  0  0  0  0  0
    8.8221  -14.8515   15.9472 C   0  0  0  0  0  0  0  0  0  0  0  0
    7.8124  -14.8789   17.0551 C   0  0  0  0  0  0  0  0  0  0  0  0
    7.8604  -13.7778   18.0456 C   0  0  2  0  0  0  0  0  0  0  0  0
    8.1826  -12.5122   17.4620 N   0  0  0  0  0  0  0  0  0  0  0  0
    8.7226  -14.0929   19.2274 C   0  0  0  0  0  0  0  0  0  0  0  0
    9.8432  -13.4954   19.2791 O   0  0  0  0  0  0  0  0  0  0  0  0
    9.7859  -17.6226   12.3307 N   0  0  0  0  0  0  0  0  0  0  0  0
    8.3129  -15.0026   20.2309 C   0  0  2  0  0  0  0  0  0  0  0  0
    9.1273  -15.2949   21.3710 C   0  0  0  0  0  0  0  0  0  0  0  0
    8.4554  -16.3102   22.2896 C   0  0  0  0  0  0  0  0  0  0  0  0
    9.3027  -16.4224   23.5059 C   0  0  0  0  0  0  0  0  0  0  0  0
    9.5742  -15.3565   24.3438 N   0  0  0  0  0  0  0  0  0  0  0  0
   10.3601  -15.8306   25.3162 C   0  0  0  0  0  0  0  0  0  0  0  0
   10.5737  -17.1406   25.0976 N   0  0  0  0  0  0  0  0  0  0  0  0
    9.9241  -17.5037   23.9857 C   0  0  0  0  0  0  0  0  0  0  0  0
   10.4137  -15.9136   20.9552 O   0  0  0  0  0  0  0  0  0  0  0  0
   10.4529  -16.7791   20.0234 N   0  0  0  0  0  0  0  0  0  0  0  0
   15.4916  -13.4195   19.0393 C   0  0  0  0  0  0  0  0  0  0  0  0
   14.6954  -14.4197   18.3726 O   0  0  0  0  0  0  0  0  0  0  0  0
   14.8221  -14.4783   17.1342 C   0  0  0  0  0  0  0  0  0  0  0  0
   13.8083  -15.2886   19.1423 C   0  0  0  0  0  0  0  0  0  0  0  0
   13.7567  -15.0479   20.6134 C   0  0  2  0  0  0  0  0  0  0  0  0
   12.9036  -16.0589   21.3059 N   0  0  0  0  0  0  0  0  0  0  0  0
   11.5894  -15.5100   21.6268 C   0  0  0  0  0  0  0  0  0  0  0  0
   13.4800  -16.6083   22.5353 O   0  0  0  0  0  0  0  0  0  0  0  0
   14.6238  -17.3777   22.5106 O   0  0  0  0  0  0  0  0  0  0  0  0
  2  3  2  0
  2  1  1  0
  4  2  1  0
  5  4  1  0
  6  5  1  0
  7  6  1  0
  8 10  1  0
  8  7  1  0
  8  9  1  6
 10 11  2  0
 12 13  1  0
 12 10  1  0
 13 14  1  1
 14 15  1  0
 15 19  1  0
 15 16  2  0
 16 17  1  0
 18 17  1  0
 19 18  2  0
 20 13  1  0
 21 20  2  0
 22 23  1  0
 23 25  1  0
 23 24  2  0
 25 26  1  0
 27 26  1  6
 27 28  1  0
 28 20  1  0
 29 27  1  0
 29 30  1  0
 31 29  2  0
M  END
$$$$
