RHQ.pdb
     RDKit          3D

 31 31  0  0  1  0  0  0  0  0999 V2000
    9.9942  -16.3544   11.5250 N   0  0  0  0  0  0  0  0  0  0  0  0
   11.2351  -17.0180   11.3036 C   0  0  0  0  0  0  0  0  0  0  0  0
   11.5851  -17.3436   10.1266 N   0  0  0  0  0  0  0  0  0  0  0  0
   12.0734  -17.3136   12.3898 N   0  0  0  0  0  0  0  0  0  0  0  0
   11.8929  -16.7189   13.6903 C   0  0  0  0  0  0  0  0  0  0  0  0
   10.6631  -15.9212   13.8398 C   0  0  0  0  0  0  0  0  0  0  0  0
   10.5606  -15.3043   15.2025 C   0  0  0  0  0  0  0  0  0  0  0  0
   10.9567  -16.1417   16.3591 C   0  0  2  0  0  0  0  0  0  0  0  0
   10.1614  -17.3230   16.4945 N   0  0  0  0  0  0  0  0  0  0  0  0
   11.0445  -15.3681   17.6369 C   0  0  0  0  0  0  0  0  0  0  0  0
   11.8143  -14.3568   17.6284 O   0  0  0  0  0  0  0  0  0  0  0  0
   12.5339  -17.7566    9.9502 N   0  0  0  0  0  0  0  0  0  0  0  0
   10.3110  -15.7402   18.7884 C   0  0  1  0  0  0  0  0  0  0  0  0
   10.4290  -15.0326   20.0270 C   0  0  0  0  0  0  0  0  0  0  0  0
    9.0897  -14.9526   20.7522 C   0  0  0  0  0  0  0  0  0  0  0  0
    8.1983  -14.0980   19.9244 C   0  0  0  0  0  0  0  0  0  0  0  0
    8.0886  -12.7298   20.0904 N   0  0  0  0  0  0  0  0  0  0  0  0
    7.2029  -12.3084   19.1816 C   0  0  0  0  0  0  0  0  0  0  0  0
    6.7736  -13.3690   18.4741 N   0  0  0  0  0  0  0  0  0  0  0  0
    7.3853  -14.4679   18.9306 C   0  0  0  0  0  0  0  0  0  0  0  0
   11.3499  -15.7423   20.9538 O   0  0  0  0  0  0  0  0  0  0  0  0
   11.1212  -16.9411   21.3134 N   0  0  0  0  0  0  0  0  0  0  0  0
   16.8448  -13.2343   19.3938 C   0  0  0  0  0  0  0  0  0  0  0  0
   17.2158  -14.4143   20.1345 O   0  0  0  0  0  0  0  0  0  0  0  0
   18.4288  -14.7006   20.1285 C   0  0  0  0  0  0  0  0  0  0  0  0
   16.1983  -15.1957   20.8334 C   0  0  0  0  0  0  0  0  0  0  0  0
   14.8129  -14.6430   20.8210 C   0  0  1  0  0  0  0  0  0  0  0  0
   13.8286  -15.6150   21.3827 N   0  0  0  0  0  0  0  0  0  0  0  0
   12.4856  -15.0438   21.4213 C   0  0  0  0  0  0  0  0  0  0  0  0
   14.1517  -16.1091   22.7232 O   0  0  0  0  0  0  0  0  0  0  0  0
   15.2179  -16.9563   22.9383 O   0  0  0  0  0  0  0  0  0  0  0  0
  2  3  2  0
  2  1  1  0
  4  2  1  0
  5  4  1  0
  6  5  1  0
  7  6  1  0
  8 10  1  0
  8  7  1  0
  8  9  1  1
 10 11  2  0
 12 13  1  0
 12 10  1  0
 13 14  1  6
 14 15  1  0
 15 19  1  0
 15 16  2  0
 16 17  1  0
 18 17  1  0
 19 18  2  0
 20 13  1  0
 21 20  2  0
 22 23  1  0
 23 25  1  0
 23 24  2  0
 25 26  1  0
 27 26  1  6
 27 28  1  0
 28 20  1  0
 29 27  1  0
 29 30  1  0
 31 29  2  0
M  END
$$$$
