RHQ.pdb
     RDKit          3D

 31 31  0  0  1  0  0  0  0  0999 V2000
    9.5211  -14.1475   17.2418 N   0  0  0  0  0  0  0  0  0  0  0  0
    8.1091  -14.1048   17.4244 C   0  0  0  0  0  0  0  0  0  0  0  0
    7.3526  -13.7286   16.4757 N   0  0  0  0  0  0  0  0  0  0  0  0
    7.5519  -14.4790   18.6571 N   0  0  0  0  0  0  0  0  0  0  0  0
    8.3063  -15.1792   19.6662 C   0  0  0  0  0  0  0  0  0  0  0  0
    9.2606  -16.1738   19.1453 C   0  0  0  0  0  0  0  0  0  0  0  0
   10.5627  -16.1395   19.8878 C   0  0  0  0  0  0  0  0  0  0  0  0
   10.7559  -17.1361   20.9672 C   0  0  2  0  0  0  0  0  0  0  0  0
   10.0077  -18.3378   20.7614 N   0  0  0  0  0  0  0  0  0  0  0  0
   10.5453  -16.5644   22.3340 C   0  0  0  0  0  0  0  0  0  0  0  0
   11.1768  -15.4933   22.5971 O   0  0  0  0  0  0  0  0  0  0  0  0
    6.3281  -13.5730   16.6436 N   0  0  0  0  0  0  0  0  0  0  0  0
    9.6905  -17.1801   23.2787 C   0  0  1  0  0  0  0  0  0  0  0  0
    9.4630  -16.6211   24.5765 C   0  0  0  0  0  0  0  0  0  0  0  0
    7.9741  -16.4335   24.8487 C   0  0  0  0  0  0  0  0  0  0  0  0
    7.5780  -15.1436   24.2248 C   0  0  0  0  0  0  0  0  0  0  0  0
    8.4553  -14.3383   23.5223 N   0  0  0  0  0  0  0  0  0  0  0  0
    7.7517  -13.2760   23.1170 C   0  0  0  0  0  0  0  0  0  0  0  0
    6.4842  -13.4087   23.5477 N   0  0  0  0  0  0  0  0  0  0  0  0
    6.3780  -14.5559   24.2280 C   0  0  0  0  0  0  0  0  0  0  0  0
    9.9569  -17.5367   25.6388 O   0  0  0  0  0  0  0  0  0  0  0  0
   10.2087  -18.7579   25.3856 N   0  0  0  0  0  0  0  0  0  0  0  0
   12.1116  -15.0256   31.3361 C   0  0  0  0  0  0  0  0  0  0  0  0
   11.0905  -14.8288   30.3374 O   0  0  0  0  0  0  0  0  0  0  0  0
   10.2840  -13.9051   30.5596 C   0  0  0  0  0  0  0  0  0  0  0  0
   11.0429  -15.6842   29.1540 C   0  0  0  0  0  0  0  0  0  0  0  0
   10.4853  -17.0541   29.3478 C   0  0  2  0  0  0  0  0  0  0  0  0
   10.5049  -17.8399   28.0784 N   0  0  0  0  0  0  0  0  0  0  0  0
   10.1378  -17.0078   26.9364 C   0  0  0  0  0  0  0  0  0  0  0  0
    9.6408  -19.0226   28.0762 O   0  0  0  0  0  0  0  0  0  0  0  0
   10.0908  -20.2414   28.5377 O   0  0  0  0  0  0  0  0  0  0  0  0
  2  3  2  0
  2  1  1  0
  4  2  1  0
  5  4  1  0
  6  5  1  0
  7  6  1  0
  8 10  1  0
  8  7  1  0
  8  9  1  6
 10 11  2  0
 12 13  1  0
 12 10  1  0
 13 14  1  1
 14 15  1  0
 15 19  1  0
 15 16  2  0
 16 17  1  0
 18 17  1  0
 19 18  2  0
 20 13  1  0
 21 20  2  0
 22 23  1  0
 23 25  1  0
 23 24  2  0
 25 26  1  0
 27 26  1  6
 27 28  1  0
 28 20  1  0
 29 27  1  0
 29 30  1  0
 31 29  2  0
M  END
$$$$
