RHQ.pdb
     RDKit          3D

 31 31  0  0  1  0  0  0  0  0999 V2000
    8.0824  -12.1443   17.3505 N   0  0  0  0  0  0  0  0  0  0  0  0
    8.8101  -12.4509   18.5361 C   0  0  0  0  0  0  0  0  0  0  0  0
    8.8007  -11.6454   19.5185 N   0  0  0  0  0  0  0  0  0  0  0  0
    9.5404  -13.6466   18.6187 N   0  0  0  0  0  0  0  0  0  0  0  0
    9.6208  -14.5809   17.5241 C   0  0  0  0  0  0  0  0  0  0  0  0
    8.5373  -15.5786   17.4823 C   0  0  0  0  0  0  0  0  0  0  0  0
    9.0701  -16.9775   17.3987 C   0  0  0  0  0  0  0  0  0  0  0  0
    9.6901  -17.5427   18.6202 C   0  0  2  0  0  0  0  0  0  0  0  0
    8.8266  -17.4971   19.7597 N   0  0  0  0  0  0  0  0  0  0  0  0
   11.0407  -16.9669   18.9092 C   0  0  0  0  0  0  0  0  0  0  0  0
   11.7048  -16.5628   17.9037 O   0  0  0  0  0  0  0  0  0  0  0  0
    9.3344  -11.8700   20.3941 N   0  0  0  0  0  0  0  0  0  0  0  0
   11.5486  -16.8757   20.2268 C   0  0  2  0  0  0  0  0  0  0  0  0
   12.8008  -16.2464   20.5175 C   0  0  0  0  0  0  0  0  0  0  0  0
   12.8093  -14.7893   20.0674 C   0  0  0  0  0  0  0  0  0  0  0  0
   13.6572  -14.7166   18.8484 C   0  0  0  0  0  0  0  0  0  0  0  0
   14.2710  -15.8189   18.2829 N   0  0  0  0  0  0  0  0  0  0  0  0
   14.9423  -15.3723   17.2162 C   0  0  0  0  0  0  0  0  0  0  0  0
   14.7577  -14.0435   17.1162 N   0  0  0  0  0  0  0  0  0  0  0  0
   13.9684  -13.6412   18.1188 C   0  0  0  0  0  0  0  0  0  0  0  0
   13.0493  -16.2192   21.9832 O   0  0  0  0  0  0  0  0  0  0  0  0
   12.4319  -15.4010   22.7369 N   0  0  0  0  0  0  0  0  0  0  0  0
   13.1542  -21.2009   25.3154 C   0  0  0  0  0  0  0  0  0  0  0  0
   12.1469  -20.2532   24.9081 O   0  0  0  0  0  0  0  0  0  0  0  0
   10.9665  -20.6429   24.9974 C   0  0  0  0  0  0  0  0  0  0  0  0
   12.5329  -18.9290   24.4266 C   0  0  0  0  0  0  0  0  0  0  0  0
   13.9914  -18.6167   24.4421 C   0  0  2  0  0  0  0  0  0  0  0  0
   14.2630  -17.2364   23.9418 N   0  0  0  0  0  0  0  0  0  0  0  0
   13.9915  -17.1301   22.5114 C   0  0  0  0  0  0  0  0  0  0  0  0
   15.6246  -16.7537   24.1837 O   0  0  0  0  0  0  0  0  0  0  0  0
   16.0970  -16.5485   25.4626 O   0  0  0  0  0  0  0  0  0  0  0  0
  2  3  2  0
  2  1  1  0
  4  2  1  0
  5  4  1  0
  6  5  1  0
  7  6  1  0
  8 10  1  0
  8  7  1  0
  8  9  1  1
 10 11  2  0
 12 13  1  0
 12 10  1  0
 13 14  1  6
 14 15  1  0
 15 19  1  0
 15 16  2  0
 16 17  1  0
 18 17  1  0
 19 18  2  0
 20 13  1  0
 21 20  2  0
 22 23  1  0
 23 25  1  0
 23 24  2  0
 25 26  1  0
 27 26  1  1
 27 28  1  0
 28 20  1  0
 29 27  1  0
 29 30  1  0
 31 29  2  0
M  END
$$$$
