RHQ.pdb
     RDKit          3D

 31 31  0  0  1  0  0  0  0  0999 V2000
    8.3044  -15.4793   16.8450 N   0  0  0  0  0  0  0  0  0  0  0  0
    8.2609  -14.1117   16.4487 C   0  0  0  0  0  0  0  0  0  0  0  0
    7.9441  -13.8006   15.2585 N   0  0  0  0  0  0  0  0  0  0  0  0
    8.5698  -13.1048   17.3764 N   0  0  0  0  0  0  0  0  0  0  0  0
    8.7935  -13.3821   18.7730 C   0  0  0  0  0  0  0  0  0  0  0  0
    7.5817  -13.7294   19.5359 C   0  0  0  0  0  0  0  0  0  0  0  0
    7.8925  -14.0240   20.9728 C   0  0  0  0  0  0  0  0  0  0  0  0
    8.8702  -15.1027   21.2492 C   0  0  2  0  0  0  0  0  0  0  0  0
    8.5587  -16.3272   20.5785 N   0  0  0  0  0  0  0  0  0  0  0  0
    9.1189  -15.3045   22.7109 C   0  0  0  0  0  0  0  0  0  0  0  0
   10.3254  -15.1934   23.0950 O   0  0  0  0  0  0  0  0  0  0  0  0
    8.0881  -12.8211   14.9097 N   0  0  0  0  0  0  0  0  0  0  0  0
    8.0705  -15.6001   23.6142 C   0  0  1  0  0  0  0  0  0  0  0  0
    8.3138  -15.8808   24.9964 C   0  0  0  0  0  0  0  0  0  0  0  0
    7.0565  -15.6781   25.8354 C   0  0  0  0  0  0  0  0  0  0  0  0
    6.8519  -14.2112   25.9633 C   0  0  0  0  0  0  0  0  0  0  0  0
    7.7561  -13.2744   25.4980 N   0  0  0  0  0  0  0  0  0  0  0  0
    7.2418  -12.0751   25.7893 C   0  0  0  0  0  0  0  0  0  0  0  0
    6.0627  -12.2515   26.4125 N   0  0  0  0  0  0  0  0  0  0  0  0
    5.8236  -13.5636   26.5190 C   0  0  0  0  0  0  0  0  0  0  0  0
    8.7018  -17.3036   25.1850 O   0  0  0  0  0  0  0  0  0  0  0  0
    8.5370  -18.1561   24.2549 N   0  0  0  0  0  0  0  0  0  0  0  0
   13.7204  -17.2610   24.0263 C   0  0  0  0  0  0  0  0  0  0  0  0
   12.8710  -18.3537   23.6224 O   0  0  0  0  0  0  0  0  0  0  0  0
   13.1622  -18.8964   22.5389 C   0  0  0  0  0  0  0  0  0  0  0  0
   11.7491  -18.7645   24.4631 C   0  0  0  0  0  0  0  0  0  0  0  0
   11.5724  -18.0203   25.7436 C   0  0  2  0  0  0  0  0  0  0  0  0
   10.4233  -18.5526   26.5344 N   0  0  0  0  0  0  0  0  0  0  0  0
    9.2591  -17.6781   26.4283 C   0  0  0  0  0  0  0  0  0  0  0  0
   10.7041  -18.7660   27.9561 O   0  0  0  0  0  0  0  0  0  0  0  0
   10.5193  -17.7621   28.8829 O   0  0  0  0  0  0  0  0  0  0  0  0
  2  3  2  0
  2  1  1  0
  4  2  1  0
  5  4  1  0
  6  5  1  0
  7  6  1  0
  8 10  1  0
  8  7  1  0
  8  9  1  1
 10 11  2  0
 12 13  1  0
 12 10  1  0
 13 14  1  1
 14 15  1  0
 15 19  1  0
 15 16  2  0
 16 17  1  0
 18 17  1  0
 19 18  2  0
 20 13  1  0
 21 20  2  0
 22 23  1  0
 23 25  1  0
 23 24  2  0
 25 26  1  0
 27 26  1  6
 27 28  1  0
 28 20  1  0
 29 27  1  0
 29 30  1  0
 31 29  2  0
M  END
$$$$
