EQP.pdb
     RDKit          3D

 26 26  0  0  1  0  0  0  0  0999 V2000
    6.5136  -18.1840   20.3783 N   0  0  0  0  0  0  0  0  0  0  0  0
    7.4006  -17.0977   20.8425 C   0  0  1  0  0  0  0  0  0  0  0  0
    7.4149  -16.0836   19.7551 C   0  0  0  0  0  0  0  0  0  0  0  0
    8.3552  -14.9665   20.0542 C   0  0  0  0  0  0  0  0  0  0  0  0
    8.3865  -13.8878   19.0501 C   0  0  0  0  0  0  0  0  0  0  0  0
    8.2438  -12.6853   19.3030 O   0  0  0  0  0  0  0  0  0  0  0  0
    6.9167  -16.6181   22.1504 C   0  0  0  0  0  0  0  0  0  0  0  0
    5.7716  -16.1223   22.3262 O   0  0  0  0  0  0  0  0  0  0  0  0
    8.5912  -14.2177   17.7020 O   0  0  0  0  0  0  0  0  0  0  0  0
    7.4748  -19.6088   27.0900 N   0  0  0  0  0  0  0  0  0  0  0  0
    6.4770  -19.6440   26.0615 C   0  0  0  0  0  0  0  0  0  0  0  0
    5.7431  -20.6492   25.9331 O   0  0  0  0  0  0  0  0  0  0  0  0
    6.3303  -18.4747   25.1569 C   0  0  0  0  0  0  0  0  0  0  0  0
    7.3779  -17.4532   25.5338 C   0  0  0  0  0  0  0  0  0  0  0  0
    7.3276  -16.2313   24.6042 C   0  0  2  0  0  0  0  0  0  0  0  0
    7.7672  -16.7107   23.2793 N   0  0  0  0  0  0  0  0  0  0  0  0
    8.3446  -15.2814   25.0929 C   0  0  0  0  0  0  0  0  0  0  0  0
    9.5253  -15.4120   24.6005 O   0  0  0  0  0  0  0  0  0  0  0  0
    8.1435  -14.2543   26.0381 N   0  0  0  0  0  0  0  0  0  0  0  0
    6.8009  -13.8374   26.5047 C   0  0  0  0  0  0  0  0  0  0  0  0
    6.8660  -12.3316   26.5658 C   0  0  0  0  0  0  0  0  0  0  0  0
    8.3401  -12.0369   26.7809 C   0  0  0  0  0  0  0  0  0  0  0  0
    9.0232  -13.4104   26.7783 C   0  0  1  0  0  0  0  0  0  0  0  0
    9.1213  -13.8371   28.2203 C   0  0  0  0  0  0  0  0  0  0  0  0
   10.0881  -13.2458   29.0208 O   0  0  0  0  0  0  0  0  0  0  0  0
    8.3562  -14.7023   28.6977 O   0  0  0  0  0  0  0  0  0  0  0  0
  2  1  1  6
  2  3  1  0
  3  4  1  0
  4  5  1  0
  5  6  2  0
  5  9  1  0
  7 16  1  0
  7  2  1  0
  8  7  2  0
 10 11  1  0
 11 12  2  0
 11 13  1  0
 13 14  1  0
 15 14  1  1
 15 16  1  0
 17 15  1  0
 17 18  2  0
 19 17  1  0
 20 19  1  0
 21 20  1  0
 21 22  1  0
 23 22  1  0
 23 19  1  0
 23 24  1  1
 25 24  1  0
 26 24  2  0
M  END
$$$$
