EQP.pdb
     RDKit          3D

 26 26  0  0  1  0  0  0  0  0999 V2000
    8.3875  -12.9585   19.2159 N   0  0  0  0  0  0  0  0  0  0  0  0
    8.4311  -14.3112   19.8081 C   0  0  1  0  0  0  0  0  0  0  0  0
    9.8402  -14.7700   19.6857 C   0  0  0  0  0  0  0  0  0  0  0  0
   10.8054  -13.6849   20.0218 C   0  0  0  0  0  0  0  0  0  0  0  0
   12.2263  -14.0744   19.9778 C   0  0  0  0  0  0  0  0  0  0  0  0
   12.6471  -15.2253   20.1476 O   0  0  0  0  0  0  0  0  0  0  0  0
    7.9040  -14.2426   21.1837 C   0  0  0  0  0  0  0  0  0  0  0  0
    7.6081  -13.1614   21.7593 O   0  0  0  0  0  0  0  0  0  0  0  0
   13.1949  -13.0910   19.7271 O   0  0  0  0  0  0  0  0  0  0  0  0
    6.8682  -19.4229   24.5068 N   0  0  0  0  0  0  0  0  0  0  0  0
    6.5662  -18.4479   25.5132 C   0  0  0  0  0  0  0  0  0  0  0  0
    6.2459  -18.8143   26.6659 O   0  0  0  0  0  0  0  0  0  0  0  0
    6.6396  -17.0052   25.1665 C   0  0  0  0  0  0  0  0  0  0  0  0
    7.0665  -16.8890   23.7219 C   0  0  0  0  0  0  0  0  0  0  0  0
    7.1838  -15.4195   23.2898 C   0  0  2  0  0  0  0  0  0  0  0  0
    7.7129  -15.4423   21.9122 N   0  0  0  0  0  0  0  0  0  0  0  0
    8.2110  -14.8027   24.1501 C   0  0  0  0  0  0  0  0  0  0  0  0
    9.4219  -14.8670   23.7222 O   0  0  0  0  0  0  0  0  0  0  0  0
    7.9899  -14.1553   25.3834 N   0  0  0  0  0  0  0  0  0  0  0  0
    6.6726  -14.1353   26.0605 C   0  0  0  0  0  0  0  0  0  0  0  0
    6.5330  -12.7289   26.5874 C   0  0  0  0  0  0  0  0  0  0  0  0
    7.9664  -12.2615   26.7690 C   0  0  0  0  0  0  0  0  0  0  0  0
    8.8295  -13.4318   26.2809 C   0  0  1  0  0  0  0  0  0  0  0  0
    9.1695  -14.2456   27.5029 C   0  0  0  0  0  0  0  0  0  0  0  0
    8.5887  -15.4975   27.6465 O   0  0  0  0  0  0  0  0  0  0  0  0
    9.9548  -13.8156   28.3747 O   0  0  0  0  0  0  0  0  0  0  0  0
  2  1  1  1
  2  3  1  0
  3  4  1  0
  4  5  1  0
  5  6  2  0
  5  9  1  0
  7 16  1  0
  7  2  1  0
  8  7  2  0
 10 11  1  0
 11 12  2  0
 11 13  1  0
 13 14  1  0
 15 14  1  1
 15 16  1  0
 17 15  1  0
 17 18  2  0
 19 17  1  0
 20 19  1  0
 21 20  1  0
 21 22  1  0
 23 22  1  0
 23 19  1  0
 23 24  1  1
 25 24  1  0
 26 24  2  0
M  END
$$$$
