EQP.pdb
     RDKit          3D

 26 26  0  0  1  0  0  0  0  0999 V2000
    6.3332  -18.6822   20.3697 N   0  0  0  0  0  0  0  0  0  0  0  0
    7.2388  -17.6397   20.8944 C   0  0  1  0  0  0  0  0  0  0  0  0
    7.4679  -16.6899   19.7735 C   0  0  0  0  0  0  0  0  0  0  0  0
    8.2227  -17.3257   18.6565 C   0  0  0  0  0  0  0  0  0  0  0  0
    8.6633  -16.4043   17.5935 C   0  0  0  0  0  0  0  0  0  0  0  0
    8.4911  -15.1794   17.6067 O   0  0  0  0  0  0  0  0  0  0  0  0
    6.6360  -17.0558   22.1069 C   0  0  0  0  0  0  0  0  0  0  0  0
    5.4107  -16.7790   22.2072 O   0  0  0  0  0  0  0  0  0  0  0  0
    9.3286  -16.9247   16.4734 O   0  0  0  0  0  0  0  0  0  0  0  0
    6.5762  -19.1214   27.4040 N   0  0  0  0  0  0  0  0  0  0  0  0
    7.9139  -18.7404   27.0575 C   0  0  0  0  0  0  0  0  0  0  0  0
    8.8856  -19.2260   27.6783 O   0  0  0  0  0  0  0  0  0  0  0  0
    8.1252  -17.7659   25.9561 C   0  0  0  0  0  0  0  0  0  0  0  0
    6.7715  -17.2989   25.4742 C   0  0  0  0  0  0  0  0  0  0  0  0
    6.9044  -16.1649   24.4465 C   0  0  2  0  0  0  0  0  0  0  0  0
    7.4592  -16.7847   23.2273 N   0  0  0  0  0  0  0  0  0  0  0  0
    7.9184  -15.2308   24.9709 C   0  0  0  0  0  0  0  0  0  0  0  0
    9.1033  -15.3497   24.4858 O   0  0  0  0  0  0  0  0  0  0  0  0
    7.7102  -14.2301   25.9425 N   0  0  0  0  0  0  0  0  0  0  0  0
    6.4142  -14.0302   26.6315 C   0  0  0  0  0  0  0  0  0  0  0  0
    6.2371  -12.5334   26.6896 C   0  0  0  0  0  0  0  0  0  0  0  0
    7.6565  -11.9947   26.6546 C   0  0  0  0  0  0  0  0  0  0  0  0
    8.5484  -13.2362   26.5287 C   0  0  1  0  0  0  0  0  0  0  0  0
    8.9561  -13.6086   27.9309 C   0  0  0  0  0  0  0  0  0  0  0  0
    9.8732  -12.8021   28.5894 O   0  0  0  0  0  0  0  0  0  0  0  0
    8.4872  -14.6176   28.5000 O   0  0  0  0  0  0  0  0  0  0  0  0
  2  1  1  6
  2  3  1  0
  3  4  1  0
  4  5  1  0
  5  6  2  0
  5  9  1  0
  7 16  1  0
  7  2  1  0
  8  7  2  0
 10 11  1  0
 11 12  2  0
 11 13  1  0
 13 14  1  0
 15 14  1  1
 15 16  1  0
 17 15  1  0
 17 18  2  0
 19 17  1  0
 20 19  1  0
 21 20  1  0
 21 22  1  0
 23 22  1  0
 23 19  1  0
 23 24  1  1
 25 24  1  0
 26 24  2  0
M  END
$$$$
