EQP.pdb
     RDKit          3D

 26 26  0  0  1  0  0  0  0  0999 V2000
    9.1908  -19.7047   17.4194 N   0  0  0  0  0  0  0  0  0  0  0  0
    8.6639  -18.5776   16.6228 C   0  0  1  0  0  0  0  0  0  0  0  0
    7.7696  -19.1790   15.5984 C   0  0  0  0  0  0  0  0  0  0  0  0
    7.1536  -18.1402   14.7248 C   0  0  0  0  0  0  0  0  0  0  0  0
    6.2137  -18.6511   13.7107 C   0  0  0  0  0  0  0  0  0  0  0  0
    5.1330  -18.1230   13.4220 O   0  0  0  0  0  0  0  0  0  0  0  0
    8.0236  -17.6120   17.5351 C   0  0  0  0  0  0  0  0  0  0  0  0
    7.6910  -16.4470   17.1886 O   0  0  0  0  0  0  0  0  0  0  0  0
    6.5410  -19.8188   13.0054 O   0  0  0  0  0  0  0  0  0  0  0  0
    5.4652  -19.4809   22.8061 N   0  0  0  0  0  0  0  0  0  0  0  0
    4.5659  -19.0644   21.7705 C   0  0  0  0  0  0  0  0  0  0  0  0
    3.3792  -19.4611   21.7727 O   0  0  0  0  0  0  0  0  0  0  0  0
    5.0637  -18.1601   20.7020 C   0  0  0  0  0  0  0  0  0  0  0  0
    6.5348  -17.9129   20.9416 C   0  0  0  0  0  0  0  0  0  0  0  0
    7.1457  -17.0501   19.8270 C   0  0  2  0  0  0  0  0  0  0  0  0
    7.7602  -17.9941   18.8734 N   0  0  0  0  0  0  0  0  0  0  0  0
    8.2345  -16.2677   20.4418 C   0  0  0  0  0  0  0  0  0  0  0  0
    9.3997  -16.8114   20.4300 O   0  0  0  0  0  0  0  0  0  0  0  0
    8.1171  -14.9926   21.0327 N   0  0  0  0  0  0  0  0  0  0  0  0
    6.8467  -14.2314   21.0659 C   0  0  0  0  0  0  0  0  0  0  0  0
    7.2441  -12.8077   20.7656 C   0  0  0  0  0  0  0  0  0  0  0  0
    8.6881  -12.7248   21.2283 C   0  0  0  0  0  0  0  0  0  0  0  0
    9.0282  -14.1374   21.7200 C   0  0  1  0  0  0  0  0  0  0  0  0
    8.7798  -14.1395   23.2065 C   0  0  0  0  0  0  0  0  0  0  0  0
    9.7490  -13.5996   24.0398 O   0  0  0  0  0  0  0  0  0  0  0  0
    7.7300  -14.6132   23.6914 O   0  0  0  0  0  0  0  0  0  0  0  0
  2  1  1  1
  2  3  1  0
  3  4  1  0
  4  5  1  0
  5  6  2  0
  5  9  1  0
  7 16  1  0
  7  2  1  0
  8  7  2  0
 10 11  1  0
 11 12  2  0
 11 13  1  0
 13 14  1  0
 15 14  1  1
 15 16  1  0
 17 15  1  0
 17 18  2  0
 19 17  1  0
 20 19  1  0
 21 20  1  0
 21 22  1  0
 23 22  1  0
 23 19  1  0
 23 24  1  1
 25 24  1  0
 26 24  2  0
M  END
$$$$
