EQP.pdb
     RDKit          3D

 26 26  0  0  1  0  0  0  0  0999 V2000
    8.1763  -12.9180   19.0419 N   0  0  0  0  0  0  0  0  0  0  0  0
    8.4477  -14.2052   19.7140 C   0  0  1  0  0  0  0  0  0  0  0  0
    9.9037  -14.4578   19.5490 C   0  0  0  0  0  0  0  0  0  0  0  0
   10.7241  -13.4951   20.3377 C   0  0  0  0  0  0  0  0  0  0  0  0
   12.1785  -13.7309   20.2970 C   0  0  0  0  0  0  0  0  0  0  0  0
   12.9390  -13.2947   19.4242 O   0  0  0  0  0  0  0  0  0  0  0  0
    7.9729  -14.1207   21.1076 C   0  0  0  0  0  0  0  0  0  0  0  0
    7.6755  -13.0348   21.6736 O   0  0  0  0  0  0  0  0  0  0  0  0
   12.7722  -14.5020   21.3075 O   0  0  0  0  0  0  0  0  0  0  0  0
    7.1596  -19.1988   24.5469 N   0  0  0  0  0  0  0  0  0  0  0  0
    6.5501  -18.2460   25.4275 C   0  0  0  0  0  0  0  0  0  0  0  0
    6.2255  -18.5821   26.5882 O   0  0  0  0  0  0  0  0  0  0  0  0
    6.3123  -16.8623   24.9417 C   0  0  0  0  0  0  0  0  0  0  0  0
    6.8995  -16.7426   23.5547 C   0  0  0  0  0  0  0  0  0  0  0  0
    7.2507  -15.2851   23.2200 C   0  0  2  0  0  0  0  0  0  0  0  0
    7.8372  -15.3094   21.8658 N   0  0  0  0  0  0  0  0  0  0  0  0
    8.3138  -14.8765   24.1573 C   0  0  0  0  0  0  0  0  0  0  0  0
    9.5122  -15.2161   23.8380 O   0  0  0  0  0  0  0  0  0  0  0  0
    8.1393  -14.1548   25.3563 N   0  0  0  0  0  0  0  0  0  0  0  0
    6.8132  -13.7157   25.8491 C   0  0  0  0  0  0  0  0  0  0  0  0
    7.0400  -12.3176   26.3677 C   0  0  0  0  0  0  0  0  0  0  0  0
    8.5104  -12.3012   26.7467 C   0  0  0  0  0  0  0  0  0  0  0  0
    9.0329  -13.6925   26.3670 C   0  0  1  0  0  0  0  0  0  0  0  0
    8.9445  -14.5330   27.6147 C   0  0  0  0  0  0  0  0  0  0  0  0
    9.8908  -14.3397   28.6109 O   0  0  0  0  0  0  0  0  0  0  0  0
    8.0451  -15.3880   27.7625 O   0  0  0  0  0  0  0  0  0  0  0  0
  2  1  1  6
  2  3  1  0
  3  4  1  0
  4  5  1  0
  5  6  2  0
  5  9  1  0
  7 16  1  0
  7  2  1  0
  8  7  2  0
 10 11  1  0
 11 12  2  0
 11 13  1  0
 13 14  1  0
 15 14  1  1
 15 16  1  0
 17 15  1  0
 17 18  2  0
 19 17  1  0
 20 19  1  0
 21 20  1  0
 21 22  1  0
 23 22  1  0
 23 19  1  0
 23 24  1  1
 25 24  1  0
 26 24  2  0
M  END
$$$$
