EQP.pdb
     RDKit          3D

 26 26  0  0  1  0  0  0  0  0999 V2000
    7.6708  -17.0857   19.5046 N   0  0  0  0  0  0  0  0  0  0  0  0
    8.5733  -17.0583   20.6738 C   0  0  1  0  0  0  0  0  0  0  0  0
    9.7924  -16.3277   20.2368 C   0  0  0  0  0  0  0  0  0  0  0  0
   11.0363  -17.0721   20.5838 C   0  0  0  0  0  0  0  0  0  0  0  0
   12.1838  -16.2303   20.9679 C   0  0  0  0  0  0  0  0  0  0  0  0
   12.8330  -15.5247   20.1862 O   0  0  0  0  0  0  0  0  0  0  0  0
    7.8522  -16.4632   21.8143 C   0  0  0  0  0  0  0  0  0  0  0  0
    7.0347  -15.5115   21.6967 O   0  0  0  0  0  0  0  0  0  0  0  0
   12.5928  -16.2070   22.3096 O   0  0  0  0  0  0  0  0  0  0  0  0
    7.1418  -19.7479   26.8585 N   0  0  0  0  0  0  0  0  0  0  0  0
    6.2750  -19.8085   25.7184 C   0  0  0  0  0  0  0  0  0  0  0  0
    5.5294  -20.7989   25.5487 O   0  0  0  0  0  0  0  0  0  0  0  0
    6.2771  -18.6830   24.7486 C   0  0  0  0  0  0  0  0  0  0  0  0
    7.2121  -17.6157   25.2677 C   0  0  0  0  0  0  0  0  0  0  0  0
    7.3317  -16.4472   24.2776 C   0  0  2  0  0  0  0  0  0  0  0  0
    8.0758  -16.9733   23.1166 N   0  0  0  0  0  0  0  0  0  0  0  0
    8.1787  -15.4265   24.9229 C   0  0  0  0  0  0  0  0  0  0  0  0
    9.4213  -15.4294   24.5921 O   0  0  0  0  0  0  0  0  0  0  0  0
    7.7559  -14.4581   25.8568 N   0  0  0  0  0  0  0  0  0  0  0  0
    6.3644  -14.3716   26.3572 C   0  0  0  0  0  0  0  0  0  0  0  0
    6.0598  -12.8947   26.3916 C   0  0  0  0  0  0  0  0  0  0  0  0
    7.4215  -12.2433   26.5569 C   0  0  0  0  0  0  0  0  0  0  0  0
    8.4203  -13.4075   26.5560 C   0  0  1  0  0  0  0  0  0  0  0  0
    8.6568  -13.7636   28.0012 C   0  0  0  0  0  0  0  0  0  0  0  0
    8.1107  -14.9417   28.4901 O   0  0  0  0  0  0  0  0  0  0  0  0
    9.3272  -13.0244   28.7535 O   0  0  0  0  0  0  0  0  0  0  0  0
  2  1  1  6
  2  3  1  0
  3  4  1  0
  4  5  1  0
  5  6  2  0
  5  9  1  0
  7 16  1  0
  7  2  1  0
  8  7  2  0
 10 11  1  0
 11 12  2  0
 11 13  1  0
 13 14  1  0
 15 14  1  1
 15 16  1  0
 17 15  1  0
 17 18  2  0
 19 17  1  0
 20 19  1  0
 21 20  1  0
 21 22  1  0
 23 22  1  0
 23 19  1  0
 23 24  1  1
 25 24  1  0
 26 24  2  0
M  END
$$$$
