EQP.pdb
     RDKit          3D

 26 26  0  0  1  0  0  0  0  0999 V2000
    8.7709  -16.1761   19.4544 N   0  0  0  0  0  0  0  0  0  0  0  0
    9.2887  -16.6576   20.7514 C   0  0  1  0  0  0  0  0  0  0  0  0
   10.7375  -16.3233   20.7671 C   0  0  0  0  0  0  0  0  0  0  0  0
   11.1776  -15.7145   19.4797 C   0  0  0  0  0  0  0  0  0  0  0  0
   12.6150  -15.3991   19.3947 C   0  0  0  0  0  0  0  0  0  0  0  0
   13.1134  -14.3018   19.6739 O   0  0  0  0  0  0  0  0  0  0  0  0
    8.4875  -16.0560   21.8335 C   0  0  0  0  0  0  0  0  0  0  0  0
    7.7821  -15.0230   21.6812 O   0  0  0  0  0  0  0  0  0  0  0  0
   13.5071  -16.3950   18.9698 O   0  0  0  0  0  0  0  0  0  0  0  0
    5.6035  -20.6804   24.5377 N   0  0  0  0  0  0  0  0  0  0  0  0
    6.0334  -19.4600   25.1546 C   0  0  0  0  0  0  0  0  0  0  0  0
    6.1717  -19.3993   26.3967 O   0  0  0  0  0  0  0  0  0  0  0  0
    6.3100  -18.2768   24.2997 C   0  0  0  0  0  0  0  0  0  0  0  0
    7.2526  -17.3643   25.0491 C   0  0  0  0  0  0  0  0  0  0  0  0
    7.6389  -16.1421   24.2024 C   0  0  2  0  0  0  0  0  0  0  0  0
    8.4976  -16.6549   23.1171 N   0  0  0  0  0  0  0  0  0  0  0  0
    8.4730  -15.2771   25.0579 C   0  0  0  0  0  0  0  0  0  0  0  0
    9.7447  -15.3772   24.8963 O   0  0  0  0  0  0  0  0  0  0  0  0
    8.0096  -14.3601   26.0240 N   0  0  0  0  0  0  0  0  0  0  0  0
    6.5716  -14.1041   26.2705 C   0  0  0  0  0  0  0  0  0  0  0  0
    6.4733  -12.6099   26.4523 C   0  0  0  0  0  0  0  0  0  0  0  0
    7.8510  -12.2097   26.9501 C   0  0  0  0  0  0  0  0  0  0  0  0
    8.6591  -13.5134   26.9701 C   0  0  1  0  0  0  0  0  0  0  0  0
    8.5498  -14.0578   28.3711 C   0  0  0  0  0  0  0  0  0  0  0  0
    9.2811  -13.4443   29.3781 O   0  0  0  0  0  0  0  0  0  0  0  0
    7.8213  -15.0385   28.6345 O   0  0  0  0  0  0  0  0  0  0  0  0
  2  1  1  6
  2  3  1  0
  3  4  1  0
  4  5  1  0
  5  6  2  0
  5  9  1  0
  7 16  1  0
  7  2  1  0
  8  7  2  0
 10 11  1  0
 11 12  2  0
 11 13  1  0
 13 14  1  0
 15 14  1  1
 15 16  1  0
 17 15  1  0
 17 18  2  0
 19 17  1  0
 20 19  1  0
 21 20  1  0
 21 22  1  0
 23 22  1  0
 23 19  1  0
 23 24  1  1
 25 24  1  0
 26 24  2  0
M  END
$$$$
