EQP.pdb
     RDKit          3D

 26 26  0  0  1  0  0  0  0  0999 V2000
    6.2982  -18.3499   20.1793 N   0  0  0  0  0  0  0  0  0  0  0  0
    7.3684  -17.8818   21.0838 C   0  0  1  0  0  0  0  0  0  0  0  0
    8.3172  -17.1118   20.2365 C   0  0  0  0  0  0  0  0  0  0  0  0
    7.6209  -16.0568   19.4465 C   0  0  0  0  0  0  0  0  0  0  0  0
    8.4792  -15.3019   18.5158 C   0  0  0  0  0  0  0  0  0  0  0  0
    8.8645  -15.7189   17.4167 O   0  0  0  0  0  0  0  0  0  0  0  0
    6.7545  -17.1288   22.1932 C   0  0  0  0  0  0  0  0  0  0  0  0
    5.6644  -16.5055   22.0880 O   0  0  0  0  0  0  0  0  0  0  0  0
    8.9062  -14.0146   18.8747 O   0  0  0  0  0  0  0  0  0  0  0  0
    6.1152  -19.2134   27.5547 N   0  0  0  0  0  0  0  0  0  0  0  0
    7.4953  -18.9302   27.2904 C   0  0  0  0  0  0  0  0  0  0  0  0
    8.3905  -19.4863   27.9648 O   0  0  0  0  0  0  0  0  0  0  0  0
    7.8420  -17.9719   26.2093 C   0  0  0  0  0  0  0  0  0  0  0  0
    6.5593  -17.3714   25.6830 C   0  0  0  0  0  0  0  0  0  0  0  0
    6.8368  -16.3368   24.5818 C   0  0  2  0  0  0  0  0  0  0  0  0
    7.4077  -17.0921   23.4496 N   0  0  0  0  0  0  0  0  0  0  0  0
    7.8902  -15.4406   25.0943 C   0  0  0  0  0  0  0  0  0  0  0  0
    9.0830  -15.6679   24.6713 O   0  0  0  0  0  0  0  0  0  0  0  0
    7.7116  -14.3690   25.9936 N   0  0  0  0  0  0  0  0  0  0  0  0
    6.3975  -14.0165   26.5794 C   0  0  0  0  0  0  0  0  0  0  0  0
    6.3532  -12.5092   26.5440 C   0  0  0  0  0  0  0  0  0  0  0  0
    7.8148  -12.0986   26.5780 C   0  0  0  0  0  0  0  0  0  0  0  0
    8.5970  -13.4180   26.5815 C   0  0  1  0  0  0  0  0  0  0  0  0
    8.8787  -13.7394   28.0267 C   0  0  0  0  0  0  0  0  0  0  0  0
    8.2354  -14.8268   28.6001 O   0  0  0  0  0  0  0  0  0  0  0  0
    9.6711  -13.0512   28.7051 O   0  0  0  0  0  0  0  0  0  0  0  0
  2  1  1  6
  2  3  1  0
  3  4  1  0
  4  5  1  0
  5  6  2  0
  5  9  1  0
  7 16  1  0
  7  2  1  0
  8  7  2  0
 10 11  1  0
 11 12  2  0
 11 13  1  0
 13 14  1  0
 15 14  1  1
 15 16  1  0
 17 15  1  0
 17 18  2  0
 19 17  1  0
 20 19  1  0
 21 20  1  0
 21 22  1  0
 23 22  1  0
 23 19  1  0
 23 24  1  1
 25 24  1  0
 26 24  2  0
M  END
$$$$
