EQP.pdb
     RDKit          3D

 26 26  0  0  1  0  0  0  0  0999 V2000
    7.8066  -16.1193   19.2790 N   0  0  0  0  0  0  0  0  0  0  0  0
    8.3284  -16.8694   20.4398 C   0  0  1  0  0  0  0  0  0  0  0  0
    9.8101  -16.8349   20.3211 C   0  0  0  0  0  0  0  0  0  0  0  0
   10.3200  -15.4421   20.1736 C   0  0  0  0  0  0  0  0  0  0  0  0
   11.7880  -15.3121   20.1432 C   0  0  0  0  0  0  0  0  0  0  0  0
   12.4453  -14.9761   19.1505 O   0  0  0  0  0  0  0  0  0  0  0  0
    7.7771  -16.2768   21.6726 C   0  0  0  0  0  0  0  0  0  0  0  0
    6.8859  -15.3859   21.6747 O   0  0  0  0  0  0  0  0  0  0  0  0
   12.5202  -15.5822   21.3089 O   0  0  0  0  0  0  0  0  0  0  0  0
    8.1211  -19.3248   27.5483 N   0  0  0  0  0  0  0  0  0  0  0  0
    6.8754  -18.8175   27.0526 C   0  0  0  0  0  0  0  0  0  0  0  0
    5.8197  -19.4662   27.2264 O   0  0  0  0  0  0  0  0  0  0  0  0
    6.8596  -17.5172   26.3340 C   0  0  0  0  0  0  0  0  0  0  0  0
    7.5564  -17.7042   25.0065 C   0  0  0  0  0  0  0  0  0  0  0  0
    7.5305  -16.4130   24.1746 C   0  0  2  0  0  0  0  0  0  0  0  0
    8.2607  -16.7180   22.9287 N   0  0  0  0  0  0  0  0  0  0  0  0
    8.3181  -15.4113   24.9174 C   0  0  0  0  0  0  0  0  0  0  0  0
    9.5653  -15.3327   24.6144 O   0  0  0  0  0  0  0  0  0  0  0  0
    7.8348  -14.5408   25.9162 N   0  0  0  0  0  0  0  0  0  0  0  0
    6.4699  -14.6405   26.4832 C   0  0  0  0  0  0  0  0  0  0  0  0
    5.9991  -13.2126   26.6041 C   0  0  0  0  0  0  0  0  0  0  0  0
    7.2832  -12.4134   26.7388 C   0  0  0  0  0  0  0  0  0  0  0  0
    8.4083  -13.4509   26.6351 C   0  0  1  0  0  0  0  0  0  0  0  0
    8.7578  -13.8392   28.0487 C   0  0  0  0  0  0  0  0  0  0  0  0
    9.4968  -12.9497   28.8155 O   0  0  0  0  0  0  0  0  0  0  0  0
    8.3972  -14.9336   28.5323 O   0  0  0  0  0  0  0  0  0  0  0  0
  2  1  1  6
  2  3  1  0
  3  4  1  0
  4  5  1  0
  5  6  2  0
  5  9  1  0
  7 16  1  0
  7  2  1  0
  8  7  2  0
 10 11  1  0
 11 12  2  0
 11 13  1  0
 13 14  1  0
 15 14  1  1
 15 16  1  0
 17 15  1  0
 17 18  2  0
 19 17  1  0
 20 19  1  0
 21 20  1  0
 21 22  1  0
 23 22  1  0
 23 19  1  0
 23 24  1  1
 25 24  1  0
 26 24  2  0
M  END
$$$$
