EQP.pdb
     RDKit          3D

 26 26  0  0  1  0  0  0  0  0999 V2000
    5.8857  -17.7598   19.9348 N   0  0  0  0  0  0  0  0  0  0  0  0
    7.0697  -17.2369   20.6468 C   0  0  1  0  0  0  0  0  0  0  0  0
    7.6439  -16.1804   19.7721 C   0  0  0  0  0  0  0  0  0  0  0  0
    8.1904  -16.7478   18.5068 C   0  0  0  0  0  0  0  0  0  0  0  0
    8.8818  -15.7819   17.6340 C   0  0  0  0  0  0  0  0  0  0  0  0
    9.3653  -16.0521   16.5279 O   0  0  0  0  0  0  0  0  0  0  0  0
    6.6556  -16.7918   21.9903 C   0  0  0  0  0  0  0  0  0  0  0  0
    5.5626  -16.2084   22.2207 O   0  0  0  0  0  0  0  0  0  0  0  0
    9.0167  -14.4525   18.0615 O   0  0  0  0  0  0  0  0  0  0  0  0
    7.6498  -19.9964   26.8714 N   0  0  0  0  0  0  0  0  0  0  0  0
    7.4870  -18.7583   27.5752 C   0  0  0  0  0  0  0  0  0  0  0  0
    7.5409  -18.7349   28.8250 O   0  0  0  0  0  0  0  0  0  0  0  0
    7.2549  -17.5120   26.8004 C   0  0  0  0  0  0  0  0  0  0  0  0
    7.2607  -17.8630   25.3309 C   0  0  0  0  0  0  0  0  0  0  0  0
    7.1339  -16.6071   24.4554 C   0  0  2  0  0  0  0  0  0  0  0  0
    7.5159  -17.0225   23.0917 N   0  0  0  0  0  0  0  0  0  0  0  0
    8.1521  -15.6515   24.9305 C   0  0  0  0  0  0  0  0  0  0  0  0
    9.3502  -15.8410   24.5037 O   0  0  0  0  0  0  0  0  0  0  0  0
    7.9350  -14.5611   25.7980 N   0  0  0  0  0  0  0  0  0  0  0  0
    6.6026  -14.2187   26.3475 C   0  0  0  0  0  0  0  0  0  0  0  0
    6.5314  -12.7139   26.2724 C   0  0  0  0  0  0  0  0  0  0  0  0
    7.9842  -12.2750   26.3259 C   0  0  0  0  0  0  0  0  0  0  0  0
    8.7902  -13.5790   26.3794 C   0  0  1  0  0  0  0  0  0  0  0  0
    9.0473  -13.8583   27.8378 C   0  0  0  0  0  0  0  0  0  0  0  0
    8.3952  -14.9297   28.4311 O   0  0  0  0  0  0  0  0  0  0  0  0
    9.8273  -13.1497   28.5097 O   0  0  0  0  0  0  0  0  0  0  0  0
  2  1  1  6
  2  3  1  0
  3  4  1  0
  4  5  1  0
  5  6  2  0
  5  9  1  0
  7 16  1  0
  7  2  1  0
  8  7  2  0
 10 11  1  0
 11 12  2  0
 11 13  1  0
 13 14  1  0
 15 14  1  1
 15 16  1  0
 17 15  1  0
 17 18  2  0
 19 17  1  0
 20 19  1  0
 21 20  1  0
 21 22  1  0
 23 22  1  0
 23 19  1  0
 23 24  1  1
 25 24  1  0
 26 24  2  0
M  END
$$$$
