EQP.pdb
     RDKit          3D

 26 26  0  0  1  0  0  0  0  0999 V2000
    8.9684  -15.2377   20.1421 N   0  0  0  0  0  0  0  0  0  0  0  0
    8.3220  -13.9589   20.5018 C   0  0  1  0  0  0  0  0  0  0  0  0
    7.3590  -13.6615   19.4086 C   0  0  0  0  0  0  0  0  0  0  0  0
    8.0557  -13.2705   18.1502 C   0  0  0  0  0  0  0  0  0  0  0  0
    8.3121  -14.3739   17.2071 C   0  0  0  0  0  0  0  0  0  0  0  0
    9.4235  -14.6646   16.7480 O   0  0  0  0  0  0  0  0  0  0  0  0
    7.7331  -14.0886   21.8476 C   0  0  0  0  0  0  0  0  0  0  0  0
    7.1657  -13.1384   22.4502 O   0  0  0  0  0  0  0  0  0  0  0  0
    7.2381  -15.1695   16.7811 O   0  0  0  0  0  0  0  0  0  0  0  0
    7.3888  -19.5970   24.7462 N   0  0  0  0  0  0  0  0  0  0  0  0
    6.9750  -18.7530   25.8284 C   0  0  0  0  0  0  0  0  0  0  0  0
    6.6723  -19.2536   26.9345 O   0  0  0  0  0  0  0  0  0  0  0  0
    6.9122  -17.2840   25.6156 C   0  0  0  0  0  0  0  0  0  0  0  0
    7.3557  -16.9937   24.2008 C   0  0  0  0  0  0  0  0  0  0  0  0
    7.2945  -15.4899   23.8929 C   0  0  2  0  0  0  0  0  0  0  0  0
    7.7979  -15.3369   22.5140 N   0  0  0  0  0  0  0  0  0  0  0  0
    8.2588  -14.8307   24.7937 C   0  0  0  0  0  0  0  0  0  0  0  0
    9.4960  -14.9041   24.4511 O   0  0  0  0  0  0  0  0  0  0  0  0
    7.9523  -14.1341   25.9810 N   0  0  0  0  0  0  0  0  0  0  0  0
    6.5716  -13.9843   26.4963 C   0  0  0  0  0  0  0  0  0  0  0  0
    6.4947  -12.5576   26.9795 C   0  0  0  0  0  0  0  0  0  0  0  0
    7.9323  -12.2087   27.3225 C   0  0  0  0  0  0  0  0  0  0  0  0
    8.7411  -13.4606   26.9598 C   0  0  1  0  0  0  0  0  0  0  0  0
    8.8634  -14.2673   28.2269 C   0  0  0  0  0  0  0  0  0  0  0  0
    9.7506  -13.8359   29.2026 O   0  0  0  0  0  0  0  0  0  0  0  0
    8.1879  -15.3029   28.4083 O   0  0  0  0  0  0  0  0  0  0  0  0
  2  1  1  6
  2  3  1  0
  3  4  1  0
  4  5  1  0
  5  6  2  0
  5  9  1  0
  7 16  1  0
  7  2  1  0
  8  7  2  0
 10 11  1  0
 11 12  2  0
 11 13  1  0
 13 14  1  0
 15 14  1  1
 15 16  1  0
 17 15  1  0
 17 18  2  0
 19 17  1  0
 20 19  1  0
 21 20  1  0
 21 22  1  0
 23 22  1  0
 23 19  1  0
 23 24  1  1
 25 24  1  0
 26 24  2  0
M  END
$$$$
