EQP.pdb
     RDKit          3D

 26 26  0  0  1  0  0  0  0  0999 V2000
    8.9879  -16.1743   20.3351 N   0  0  0  0  0  0  0  0  0  0  0  0
    8.0783  -15.0164   20.4547 C   0  0  1  0  0  0  0  0  0  0  0  0
    7.0061  -15.2281   19.4465 C   0  0  0  0  0  0  0  0  0  0  0  0
    6.3895  -16.5794   19.5715 C   0  0  0  0  0  0  0  0  0  0  0  0
    6.9995  -17.6266   18.7324 C   0  0  0  0  0  0  0  0  0  0  0  0
    8.1923  -17.9524   18.7681 O   0  0  0  0  0  0  0  0  0  0  0  0
    7.6222  -14.9156   21.8535 C   0  0  0  0  0  0  0  0  0  0  0  0
    6.9992  -13.9194   22.3091 O   0  0  0  0  0  0  0  0  0  0  0  0
    6.1943  -18.3215   17.8175 O   0  0  0  0  0  0  0  0  0  0  0  0
    7.8236  -19.8334   25.6456 N   0  0  0  0  0  0  0  0  0  0  0  0
    7.3740  -18.8536   26.5904 C   0  0  0  0  0  0  0  0  0  0  0  0
    7.1751  -19.1764   27.7828 O   0  0  0  0  0  0  0  0  0  0  0  0
    7.1501  -17.4580   26.1327 C   0  0  0  0  0  0  0  0  0  0  0  0
    7.5057  -17.3805   24.6663 C   0  0  0  0  0  0  0  0  0  0  0  0
    7.4193  -15.9378   24.1455 C   0  0  2  0  0  0  0  0  0  0  0  0
    7.8878  -15.9824   22.7466 N   0  0  0  0  0  0  0  0  0  0  0  0
    8.3969  -15.1468   24.9165 C   0  0  0  0  0  0  0  0  0  0  0  0
    9.6349  -15.3360   24.6251 O   0  0  0  0  0  0  0  0  0  0  0  0
    8.1022  -14.2121   25.9305 N   0  0  0  0  0  0  0  0  0  0  0  0
    6.7193  -13.8643   26.3316 C   0  0  0  0  0  0  0  0  0  0  0  0
    6.7412  -12.3690   26.5288 C   0  0  0  0  0  0  0  0  0  0  0  0
    8.1880  -12.0663   26.8768 C   0  0  0  0  0  0  0  0  0  0  0  0
    8.9046  -13.4207   26.8044 C   0  0  1  0  0  0  0  0  0  0  0  0
    8.9100  -13.9723   28.2069 C   0  0  0  0  0  0  0  0  0  0  0  0
    8.0957  -15.0585   28.4936 O   0  0  0  0  0  0  0  0  0  0  0  0
    9.6262  -13.4731   29.1011 O   0  0  0  0  0  0  0  0  0  0  0  0
  2  1  1  1
  2  3  1  0
  3  4  1  0
  4  5  1  0
  5  6  2  0
  5  9  1  0
  7 16  1  0
  7  2  1  0
  8  7  2  0
 10 11  1  0
 11 12  2  0
 11 13  1  0
 13 14  1  0
 15 14  1  1
 15 16  1  0
 17 15  1  0
 17 18  2  0
 19 17  1  0
 20 19  1  0
 21 20  1  0
 21 22  1  0
 23 22  1  0
 23 19  1  0
 23 24  1  1
 25 24  1  0
 26 24  2  0
M  END
$$$$
