EQP.pdb
     RDKit          3D

 26 26  0  0  1  0  0  0  0  0999 V2000
    8.9424  -15.3802   20.1783 N   0  0  0  0  0  0  0  0  0  0  0  0
    8.4003  -14.0618   20.5661 C   0  0  1  0  0  0  0  0  0  0  0  0
    7.4379  -13.6813   19.4984 C   0  0  0  0  0  0  0  0  0  0  0  0
    8.1315  -13.3588   18.2191 C   0  0  0  0  0  0  0  0  0  0  0  0
    8.3565  -14.5062   17.3216 C   0  0  0  0  0  0  0  0  0  0  0  0
    7.6033  -15.4827   17.2239 O   0  0  0  0  0  0  0  0  0  0  0  0
    7.8335  -14.1640   21.9236 C   0  0  0  0  0  0  0  0  0  0  0  0
    7.2243  -13.2192   22.4930 O   0  0  0  0  0  0  0  0  0  0  0  0
    9.4986  -14.5205   16.5071 O   0  0  0  0  0  0  0  0  0  0  0  0
    5.3794  -19.8356   22.7117 N   0  0  0  0  0  0  0  0  0  0  0  0
    6.0056  -19.0141   23.7055 C   0  0  0  0  0  0  0  0  0  0  0  0
    6.4826  -19.5330   24.7393 O   0  0  0  0  0  0  0  0  0  0  0  0
    6.0780  -17.5461   23.4884 C   0  0  0  0  0  0  0  0  0  0  0  0
    7.2652  -17.0143   24.2568 C   0  0  0  0  0  0  0  0  0  0  0  0
    7.4567  -15.5088   24.0186 C   0  0  2  0  0  0  0  0  0  0  0  0
    7.9699  -15.3777   22.6410 N   0  0  0  0  0  0  0  0  0  0  0  0
    8.5241  -15.0645   24.9345 C   0  0  0  0  0  0  0  0  0  0  0  0
    9.7297  -15.3129   24.5628 O   0  0  0  0  0  0  0  0  0  0  0  0
    8.3464  -14.3987   26.1650 N   0  0  0  0  0  0  0  0  0  0  0  0
    7.0129  -14.0784   26.7250 C   0  0  0  0  0  0  0  0  0  0  0  0
    7.1563  -12.6852   27.2851 C   0  0  0  0  0  0  0  0  0  0  0  0
    8.6359  -12.5699   27.6067 C   0  0  0  0  0  0  0  0  0  0  0  0
    9.2444  -13.9040   27.1563 C   0  0  1  0  0  0  0  0  0  0  0  0
    9.2709  -14.7901   28.3750 C   0  0  0  0  0  0  0  0  0  0  0  0
   10.2303  -14.5485   29.3478 O   0  0  0  0  0  0  0  0  0  0  0  0
    8.4539  -15.7247   28.5195 O   0  0  0  0  0  0  0  0  0  0  0  0
  2  1  1  6
  2  3  1  0
  3  4  1  0
  4  5  1  0
  5  6  2  0
  5  9  1  0
  7 16  1  0
  7  2  1  0
  8  7  2  0
 10 11  1  0
 11 12  2  0
 11 13  1  0
 13 14  1  0
 15 14  1  1
 15 16  1  0
 17 15  1  0
 17 18  2  0
 19 17  1  0
 20 19  1  0
 21 20  1  0
 21 22  1  0
 23 22  1  0
 23 19  1  0
 23 24  1  1
 25 24  1  0
 26 24  2  0
M  END
$$$$
