FMH.pdb
     RDKit          3D

 30 31  0  0  1  0  0  0  0  0999 V2000
    6.1842  -17.2009   25.1152 N   0  0  0  0  0  0  0  0  0  0  0  0
    6.8761  -15.9441   24.7697 C   0  0  1  0  0  0  0  0  0  0  0  0
    7.5361  -15.4292   26.0330 C   0  0  0  0  0  0  0  0  0  0  0  0
    7.1184  -14.0777   26.4295 C   0  0  0  0  0  0  0  0  0  0  0  0
    8.0469  -13.0583   26.3550 C   0  0  0  0  0  0  0  0  0  0  0  0
    7.7395  -11.7464   26.6989 C   0  0  0  0  0  0  0  0  0  0  0  0
    6.4590  -11.5014   27.1212 C   0  0  0  0  0  0  0  0  0  0  0  0
    5.4979  -12.5012   27.2094 C   0  0  0  0  0  0  0  0  0  0  0  0
    5.8335  -13.7930   26.8612 C   0  0  0  0  0  0  0  0  0  0  0  0
    7.8736  -16.2041   23.7036 C   0  0  0  0  0  0  0  0  0  0  0  0
    8.2652  -17.4059   23.5634 O   0  0  0  0  0  0  0  0  0  0  0  0
    6.3058  -12.1407   18.8195 C   0  0  0  0  0  0  0  0  0  0  0  0
    8.0128  -12.5351   19.3181 S   0  0  0  0  0  0  0  0  0  0  0  0
    7.9269  -14.0644   20.3198 C   0  0  0  0  0  0  0  0  0  0  0  0
    9.3169  -14.3762   20.7737 C   0  0  0  0  0  0  0  0  0  0  0  0
    9.3163  -15.5552   21.7134 C   0  0  2  0  0  0  0  0  0  0  0  0
    8.4138  -15.2430   22.8444 N   0  0  0  0  0  0  0  0  0  0  0  0
   10.6159  -15.9502   22.2451 C   0  0  0  0  0  0  0  0  0  0  0  0
   11.1085  -15.3303   23.2675 O   0  0  0  0  0  0  0  0  0  0  0  0
   11.4401  -16.9939   21.7474 N   0  0  0  0  0  0  0  0  0  0  0  0
   12.8329  -17.1293   22.1746 C   0  0  1  0  0  0  0  0  0  0  0  0
   13.5655  -15.8251   22.0639 C   0  0  0  0  0  0  0  0  0  0  0  0
   13.7171  -15.4622   20.6377 C   0  0  0  0  0  0  0  0  0  0  0  0
   13.2253  -16.1471   19.5307 C   0  0  0  0  0  0  0  0  0  0  0  0
   13.5729  -15.5033   18.3997 N   0  0  0  0  0  0  0  0  0  0  0  0
   14.2858  -14.4083   18.7627 C   0  0  0  0  0  0  0  0  0  0  0  0
   14.3567  -14.4057   20.0968 N   0  0  0  0  0  0  0  0  0  0  0  0
   12.8477  -17.6042   23.5635 C   0  0  0  0  0  0  0  0  0  0  0  0
   13.9538  -17.8159   24.1256 O   0  0  0  0  0  0  0  0  0  0  0  0
   11.7291  -17.8494   24.3461 O   0  0  0  0  0  0  0  0  0  0  0  0
  2  1  1  1
  3  4  1  0
  3  2  1  0
  4  5  2  0
  5  6  1  0
  7  6  2  0
  8  7  1  0
  9  4  1  0
  9  8  2  0
 10  2  1  0
 10 17  1  0
 11 10  2  0
 13 12  1  0
 14 13  1  0
 15 14  1  0
 16 15  1  6
 16 17  1  0
 18 16  1  0
 19 18  2  0
 20 18  1  0
 21 20  1  0
 21 28  1  0
 22 23  1  0
 21 22  1  1
 23 27  1  0
 24 23  2  0
 24 25  1  0
 25 26  1  0
 27 26  2  0
 28 30  1  0
 29 28  2  0
M  END
$$$$
