FMH.pdb
     RDKit          3D

 30 31  0  0  1  0  0  0  0  0999 V2000
    5.5524  -19.2817   22.1086 N   0  0  0  0  0  0  0  0  0  0  0  0
    5.9998  -19.0734   23.4993 C   0  0  1  0  0  0  0  0  0  0  0  0
    6.8692  -20.2559   23.8766 C   0  0  0  0  0  0  0  0  0  0  0  0
    6.3605  -21.0491   25.0038 C   0  0  0  0  0  0  0  0  0  0  0  0
    5.7221  -22.2422   24.7281 C   0  0  0  0  0  0  0  0  0  0  0  0
    5.2180  -23.0641   25.7301 C   0  0  0  0  0  0  0  0  0  0  0  0
    5.3823  -22.6369   27.0218 C   0  0  0  0  0  0  0  0  0  0  0  0
    6.0188  -21.4427   27.3378 C   0  0  0  0  0  0  0  0  0  0  0  0
    6.5082  -20.6489   26.3215 C   0  0  0  0  0  0  0  0  0  0  0  0
    6.7492  -17.7971   23.5932 C   0  0  0  0  0  0  0  0  0  0  0  0
    7.5874  -17.5532   22.6685 O   0  0  0  0  0  0  0  0  0  0  0  0
    7.6268  -10.7723   27.0546 C   0  0  0  0  0  0  0  0  0  0  0  0
    6.5986  -12.2588   26.8279 S   0  0  0  0  0  0  0  0  0  0  0  0
    7.5883  -13.4350   25.8346 C   0  0  0  0  0  0  0  0  0  0  0  0
    6.7452  -14.6502   25.6159 C   0  0  0  0  0  0  0  0  0  0  0  0
    7.4660  -15.6459   24.7430 C   0  0  2  0  0  0  0  0  0  0  0  0
    6.6092  -16.8454   24.6073 N   0  0  0  0  0  0  0  0  0  0  0  0
    8.7864  -16.0618   25.2027 C   0  0  0  0  0  0  0  0  0  0  0  0
    8.8926  -16.9411   26.1451 O   0  0  0  0  0  0  0  0  0  0  0  0
   10.0306  -15.5927   24.7046 N   0  0  0  0  0  0  0  0  0  0  0  0
   11.2964  -16.1575   25.1729 C   0  0  1  0  0  0  0  0  0  0  0  0
   12.4434  -15.7059   24.3182 C   0  0  0  0  0  0  0  0  0  0  0  0
   12.2360  -16.1672   22.9279 C   0  0  0  0  0  0  0  0  0  0  0  0
   11.2920  -17.0805   22.4685 C   0  0  0  0  0  0  0  0  0  0  0  0
   11.4188  -17.2428   21.1373 N   0  0  0  0  0  0  0  0  0  0  0  0
   12.4361  -16.4442   20.7295 C   0  0  0  0  0  0  0  0  0  0  0  0
   12.9045  -15.8152   21.8111 N   0  0  0  0  0  0  0  0  0  0  0  0
   11.5041  -15.7390   26.5645 C   0  0  0  0  0  0  0  0  0  0  0  0
   12.5699  -16.0659   27.1488 O   0  0  0  0  0  0  0  0  0  0  0  0
   10.6162  -14.9932   27.3256 O   0  0  0  0  0  0  0  0  0  0  0  0
  2  1  1  6
  3  4  1  0
  3  2  1  0
  4  5  2  0
  5  6  1  0
  7  6  2  0
  8  7  1  0
  9  4  1  0
  9  8  2  0
 10  2  1  0
 10 17  1  0
 11 10  2  0
 13 12  1  0
 14 13  1  0
 15 14  1  0
 16 15  1  1
 16 17  1  0
 18 16  1  0
 19 18  2  0
 20 18  1  0
 21 20  1  0
 21 28  1  0
 22 23  1  0
 21 22  1  6
 23 27  1  0
 24 23  2  0
 24 25  1  0
 25 26  1  0
 27 26  2  0
 28 30  1  0
 29 28  2  0
M  END
$$$$
