FMH.pdb
     RDKit          3D

 30 31  0  0  1  0  0  0  0  0999 V2000
    8.8602  -17.1119   21.0561 N   0  0  0  0  0  0  0  0  0  0  0  0
    9.8387  -16.0809   21.4523 C   0  0  1  0  0  0  0  0  0  0  0  0
    9.7241  -14.9428   20.4583 C   0  0  0  0  0  0  0  0  0  0  0  0
    8.4792  -14.1693   20.5608 C   0  0  0  0  0  0  0  0  0  0  0  0
    8.5669  -12.7917   20.6001 C   0  0  0  0  0  0  0  0  0  0  0  0
    7.4428  -11.9777   20.6855 C   0  0  0  0  0  0  0  0  0  0  0  0
    6.2257  -12.6061   20.7299 C   0  0  0  0  0  0  0  0  0  0  0  0
    6.0982  -13.9894   20.6928 C   0  0  0  0  0  0  0  0  0  0  0  0
    7.2322  -14.7700   20.6080 C   0  0  0  0  0  0  0  0  0  0  0  0
    9.5480  -15.6262   22.8337 C   0  0  0  0  0  0  0  0  0  0  0  0
    9.5181  -14.3702   23.0311 O   0  0  0  0  0  0  0  0  0  0  0  0
    7.7264  -11.5361   26.1908 C   0  0  0  0  0  0  0  0  0  0  0  0
    6.5541  -12.9224   26.3390 S   0  0  0  0  0  0  0  0  0  0  0  0
    7.5574  -14.4362   26.5656 C   0  0  0  0  0  0  0  0  0  0  0  0
    7.9302  -14.9293   25.2043 C   0  0  0  0  0  0  0  0  0  0  0  0
    9.0175  -15.9696   25.2962 C   0  0  2  0  0  0  0  0  0  0  0  0
    9.3039  -16.4594   23.9290 N   0  0  0  0  0  0  0  0  0  0  0  0
    8.7369  -17.1142   26.1557 C   0  0  0  0  0  0  0  0  0  0  0  0
    7.5390  -17.3041   26.6043 O   0  0  0  0  0  0  0  0  0  0  0  0
    9.6743  -18.0964   26.5718 N   0  0  0  0  0  0  0  0  0  0  0  0
    9.3415  -19.0693   27.6126 C   0  0  1  0  0  0  0  0  0  0  0  0
    9.4106  -20.4729   27.0879 C   0  0  0  0  0  0  0  0  0  0  0  0
    8.6394  -20.5690   25.8289 C   0  0  0  0  0  0  0  0  0  0  0  0
    8.5701  -19.6322   24.8024 C   0  0  0  0  0  0  0  0  0  0  0  0
    7.7609  -20.0813   23.8236 N   0  0  0  0  0  0  0  0  0  0  0  0
    7.3045  -21.2997   24.2060 C   0  0  0  0  0  0  0  0  0  0  0  0
    7.8413  -21.5674   25.3998 N   0  0  0  0  0  0  0  0  0  0  0  0
   10.2817  -18.8964   28.7264 C   0  0  0  0  0  0  0  0  0  0  0  0
   11.2254  -18.0722   28.6078 O   0  0  0  0  0  0  0  0  0  0  0  0
   10.2328  -19.5703   29.9378 O   0  0  0  0  0  0  0  0  0  0  0  0
  2  1  1  6
  3  4  1  0
  3  2  1  0
  4  5  2  0
  5  6  1  0
  7  6  2  0
  8  7  1  0
  9  4  1  0
  9  8  2  0
 10  2  1  0
 10 17  1  0
 11 10  2  0
 13 12  1  0
 14 13  1  0
 15 14  1  0
 16 15  1  6
 16 17  1  0
 18 16  1  0
 19 18  2  0
 20 18  1  0
 21 20  1  0
 21 28  1  0
 22 23  1  0
 21 22  1  6
 23 27  1  0
 24 23  2  0
 24 25  1  0
 25 26  1  0
 27 26  2  0
 28 30  1  0
 29 28  2  0
M  END
$$$$
