FMH.pdb
     RDKit          3D

 30 31  0  0  1  0  0  0  0  0999 V2000
   11.1397  -17.1322   20.9501 N   0  0  0  0  0  0  0  0  0  0  0  0
   10.2197  -16.1194   21.5026 C   0  0  1  0  0  0  0  0  0  0  0  0
    8.8865  -16.2896   20.8024 C   0  0  0  0  0  0  0  0  0  0  0  0
    8.1348  -15.0413   20.6147 C   0  0  0  0  0  0  0  0  0  0  0  0
    6.8147  -15.0061   21.0184 C   0  0  0  0  0  0  0  0  0  0  0  0
    6.0285  -13.8663   20.8904 C   0  0  0  0  0  0  0  0  0  0  0  0
    6.6247  -12.7623   20.3392 C   0  0  0  0  0  0  0  0  0  0  0  0
    7.9500  -12.7600   19.9212 C   0  0  0  0  0  0  0  0  0  0  0  0
    8.7041  -13.9064   20.0613 C   0  0  0  0  0  0  0  0  0  0  0  0
   10.0916  -16.3122   22.9675 C   0  0  0  0  0  0  0  0  0  0  0  0
   10.9974  -16.9984   23.5383 O   0  0  0  0  0  0  0  0  0  0  0  0
    5.9189  -12.4668   26.5242 C   0  0  0  0  0  0  0  0  0  0  0  0
    7.5538  -11.8161   26.0532 S   0  0  0  0  0  0  0  0  0  0  0  0
    8.2783  -13.0178   24.8783 C   0  0  0  0  0  0  0  0  0  0  0  0
    8.0920  -14.3801   25.4656 C   0  0  0  0  0  0  0  0  0  0  0  0
    9.2651  -15.2665   25.1323 C   0  0  2  0  0  0  0  0  0  0  0  0
    9.0647  -15.8030   23.7673 N   0  0  0  0  0  0  0  0  0  0  0  0
    9.5050  -16.3798   26.0437 C   0  0  0  0  0  0  0  0  0  0  0  0
    9.7014  -16.1515   27.3013 O   0  0  0  0  0  0  0  0  0  0  0  0
    9.5432  -17.7549   25.6912 N   0  0  0  0  0  0  0  0  0  0  0  0
    9.8554  -18.7837   26.6835 C   0  0  1  0  0  0  0  0  0  0  0  0
   10.8769  -19.7507   26.1622 C   0  0  0  0  0  0  0  0  0  0  0  0
   10.3704  -20.3868   24.9262 C   0  0  0  0  0  0  0  0  0  0  0  0
    9.1232  -20.2160   24.3334 C   0  0  0  0  0  0  0  0  0  0  0  0
    9.0365  -20.9681   23.2192 N   0  0  0  0  0  0  0  0  0  0  0  0
   10.2151  -21.6252   23.0845 C   0  0  0  0  0  0  0  0  0  0  0  0
   10.9907  -21.2625   24.1101 N   0  0  0  0  0  0  0  0  0  0  0  0
   10.3538  -18.1225   27.8956 C   0  0  0  0  0  0  0  0  0  0  0  0
   10.6985  -16.9135   27.8350 O   0  0  0  0  0  0  0  0  0  0  0  0
   10.4858  -18.7141   29.1432 O   0  0  0  0  0  0  0  0  0  0  0  0
  2  1  1  6
  3  4  1  0
  3  2  1  0
  4  5  2  0
  5  6  1  0
  7  6  2  0
  8  7  1  0
  9  4  1  0
  9  8  2  0
 10  2  1  0
 10 17  1  0
 11 10  2  0
 13 12  1  0
 14 13  1  0
 15 14  1  0
 16 15  1  1
 16 17  1  0
 18 16  1  0
 19 18  2  0
 20 18  1  0
 21 20  1  0
 21 28  1  0
 22 23  1  0
 21 22  1  6
 23 27  1  0
 24 23  2  0
 24 25  1  0
 25 26  1  0
 27 26  2  0
 28 30  1  0
 29 28  2  0
M  END
$$$$
