FMH.pdb
     RDKit          3D

 30 31  0  0  1  0  0  0  0  0999 V2000
   10.2342  -15.0470   20.6472 N   0  0  0  0  0  0  0  0  0  0  0  0
    8.9333  -14.6952   21.2485 C   0  0  1  0  0  0  0  0  0  0  0  0
    7.8836  -15.5781   20.6041 C   0  0  0  0  0  0  0  0  0  0  0  0
    7.4899  -15.1651   19.2503 C   0  0  0  0  0  0  0  0  0  0  0  0
    7.3655  -16.1396   18.2799 C   0  0  0  0  0  0  0  0  0  0  0  0
    6.9874  -15.8447   16.9746 C   0  0  0  0  0  0  0  0  0  0  0  0
    6.7392  -14.5284   16.6849 C   0  0  0  0  0  0  0  0  0  0  0  0
    6.8542  -13.5205   17.6346 C   0  0  0  0  0  0  0  0  0  0  0  0
    7.2313  -13.8449   18.9212 C   0  0  0  0  0  0  0  0  0  0  0  0
    8.9923  -14.9046   22.7155 C   0  0  0  0  0  0  0  0  0  0  0  0
    9.6969  -15.8791   23.1292 O   0  0  0  0  0  0  0  0  0  0  0  0
    5.1831  -11.8693   27.2803 C   0  0  0  0  0  0  0  0  0  0  0  0
    6.8104  -12.0633   28.0756 S   0  0  0  0  0  0  0  0  0  0  0  0
    7.6009  -13.5225   27.3039 C   0  0  0  0  0  0  0  0  0  0  0  0
    7.7153  -13.2428   25.8397 C   0  0  0  0  0  0  0  0  0  0  0  0
    8.3736  -14.3979   25.1287 C   0  0  2  0  0  0  0  0  0  0  0  0
    8.3426  -14.1225   23.6746 N   0  0  0  0  0  0  0  0  0  0  0  0
    7.7910  -15.7133   25.3698 C   0  0  0  0  0  0  0  0  0  0  0  0
    6.5302  -15.9077   25.1580 O   0  0  0  0  0  0  0  0  0  0  0  0
    8.4862  -16.8639   25.8273 N   0  0  0  0  0  0  0  0  0  0  0  0
    7.8044  -17.9065   26.5946 C   0  0  1  0  0  0  0  0  0  0  0  0
    6.9049  -18.7271   25.7184 C   0  0  0  0  0  0  0  0  0  0  0  0
    7.6847  -19.2810   24.5896 C   0  0  0  0  0  0  0  0  0  0  0  0
    8.7143  -18.6642   23.8857 C   0  0  0  0  0  0  0  0  0  0  0  0
    9.1740  -19.4895   22.9254 N   0  0  0  0  0  0  0  0  0  0  0  0
    8.4518  -20.6350   22.9996 C   0  0  0  0  0  0  0  0  0  0  0  0
    7.5746  -20.4867   23.9963 N   0  0  0  0  0  0  0  0  0  0  0  0
    8.8206  -18.7606   27.2210 C   0  0  0  0  0  0  0  0  0  0  0  0
    8.4516  -19.7681   27.8789 O   0  0  0  0  0  0  0  0  0  0  0  0
   10.1923  -18.5645   27.1577 O   0  0  0  0  0  0  0  0  0  0  0  0
  2  1  1  6
  3  4  1  0
  3  2  1  0
  4  5  2  0
  5  6  1  0
  7  6  2  0
  8  7  1  0
  9  4  1  0
  9  8  2  0
 10  2  1  0
 10 17  1  0
 11 10  2  0
 13 12  1  0
 14 13  1  0
 15 14  1  0
 16 15  1  1
 16 17  1  0
 18 16  1  0
 19 18  2  0
 20 18  1  0
 21 20  1  0
 21 28  1  0
 22 23  1  0
 21 22  1  6
 23 27  1  0
 24 23  2  0
 24 25  1  0
 25 26  1  0
 27 26  2  0
 28 30  1  0
 29 28  2  0
M  END
$$$$
