FMH.pdb
     RDKit          3D

 30 31  0  0  1  0  0  0  0  0999 V2000
    6.1607  -18.1544   25.2743 N   0  0  0  0  0  0  0  0  0  0  0  0
    6.5153  -16.7255   25.1742 C   0  0  1  0  0  0  0  0  0  0  0  0
    6.8952  -16.2554   26.5639 C   0  0  0  0  0  0  0  0  0  0  0  0
    6.9079  -14.7957   26.7294 C   0  0  0  0  0  0  0  0  0  0  0  0
    5.7029  -14.1225   26.6879 C   0  0  0  0  0  0  0  0  0  0  0  0
    5.6160  -12.7437   26.8456 C   0  0  0  0  0  0  0  0  0  0  0  0
    6.7916  -12.0687   27.0468 C   0  0  0  0  0  0  0  0  0  0  0  0
    8.0227  -12.7116   27.0942 C   0  0  0  0  0  0  0  0  0  0  0  0
    8.0762  -14.0806   26.9343 C   0  0  0  0  0  0  0  0  0  0  0  0
    7.6376  -16.5588   24.2193 C   0  0  0  0  0  0  0  0  0  0  0  0
    8.5488  -17.4456   24.2426 O   0  0  0  0  0  0  0  0  0  0  0  0
    8.5551  -11.8938   19.8410 C   0  0  0  0  0  0  0  0  0  0  0  0
    7.0375  -12.8906   19.6950 S   0  0  0  0  0  0  0  0  0  0  0  0
    7.2059  -14.2788   20.8757 C   0  0  0  0  0  0  0  0  0  0  0  0
    8.5970  -14.2311   21.4213 C   0  0  0  0  0  0  0  0  0  0  0  0
    8.8631  -15.4260   22.3014 C   0  0  2  0  0  0  0  0  0  0  0  0
    7.7742  -15.5146   23.3003 N   0  0  0  0  0  0  0  0  0  0  0  0
   10.1432  -15.4332   23.0006 C   0  0  0  0  0  0  0  0  0  0  0  0
   10.1745  -15.3100   24.2875 O   0  0  0  0  0  0  0  0  0  0  0  0
   11.4224  -15.5733   22.4003 N   0  0  0  0  0  0  0  0  0  0  0  0
   12.3739  -16.5808   22.8695 C   0  0  1  0  0  0  0  0  0  0  0  0
   11.7985  -17.9623   22.7675 C   0  0  0  0  0  0  0  0  0  0  0  0
   12.7048  -18.9259   23.4303 C   0  0  0  0  0  0  0  0  0  0  0  0
   13.6825  -19.7181   22.8364 C   0  0  0  0  0  0  0  0  0  0  0  0
   14.2979  -20.4676   23.7713 N   0  0  0  0  0  0  0  0  0  0  0  0
   13.7281  -20.1694   24.9653 C   0  0  0  0  0  0  0  0  0  0  0  0
   12.7855  -19.2507   24.7364 N   0  0  0  0  0  0  0  0  0  0  0  0
   13.5945  -16.4779   22.0607 C   0  0  0  0  0  0  0  0  0  0  0  0
   14.7076  -16.3907   22.6418 O   0  0  0  0  0  0  0  0  0  0  0  0
   13.6477  -16.4686   20.6747 O   0  0  0  0  0  0  0  0  0  0  0  0
  2  1  1  1
  3  4  1  0
  3  2  1  0
  4  5  2  0
  5  6  1  0
  7  6  2  0
  8  7  1  0
  9  4  1  0
  9  8  2  0
 10  2  1  0
 10 17  1  0
 11 10  2  0
 13 12  1  0
 14 13  1  0
 15 14  1  0
 16 15  1  1
 16 17  1  0
 18 16  1  0
 19 18  2  0
 20 18  1  0
 21 20  1  0
 21 28  1  0
 22 23  1  0
 21 22  1  6
 23 27  1  0
 24 23  2  0
 24 25  1  0
 25 26  1  0
 27 26  2  0
 28 30  1  0
 29 28  2  0
M  END
$$$$
