FMH.pdb
     RDKit          3D

 30 31  0  0  1  0  0  0  0  0999 V2000
    5.2472  -17.5678   25.3041 N   0  0  0  0  0  0  0  0  0  0  0  0
    6.1127  -16.4109   25.0043 C   0  0  1  0  0  0  0  0  0  0  0  0
    6.9388  -16.1309   26.2435 C   0  0  0  0  0  0  0  0  0  0  0  0
    7.0837  -14.7055   26.5681 C   0  0  0  0  0  0  0  0  0  0  0  0
    8.3450  -14.1464   26.5089 C   0  0  0  0  0  0  0  0  0  0  0  0
    8.5770  -12.8042   26.7885 C   0  0  0  0  0  0  0  0  0  0  0  0
    7.4875  -12.0463   27.1304 C   0  0  0  0  0  0  0  0  0  0  0  0
    6.2038  -12.5736   27.2008 C   0  0  0  0  0  0  0  0  0  0  0  0
    6.0059  -13.9090   26.9178 C   0  0  0  0  0  0  0  0  0  0  0  0
    6.9733  -16.7244   23.8378 C   0  0  0  0  0  0  0  0  0  0  0  0
    6.3925  -17.1722   22.7989 O   0  0  0  0  0  0  0  0  0  0  0  0
    8.2831  -12.4561   20.2301 C   0  0  0  0  0  0  0  0  0  0  0  0
    6.7950  -13.4607   20.5377 S   0  0  0  0  0  0  0  0  0  0  0  0
    7.3754  -15.0835   21.1535 C   0  0  0  0  0  0  0  0  0  0  0  0
    8.4881  -14.8203   22.1169 C   0  0  0  0  0  0  0  0  0  0  0  0
    9.1007  -16.1154   22.5864 C   0  0  2  0  0  0  0  0  0  0  0  0
    8.3611  -16.5672   23.7865 N   0  0  0  0  0  0  0  0  0  0  0  0
   10.5244  -16.0727   22.9010 C   0  0  0  0  0  0  0  0  0  0  0  0
   10.9899  -15.1277   23.6510 O   0  0  0  0  0  0  0  0  0  0  0  0
   11.5056  -17.0001   22.4609 N   0  0  0  0  0  0  0  0  0  0  0  0
   12.9072  -16.8670   22.8587 C   0  0  1  0  0  0  0  0  0  0  0  0
   13.5509  -18.2094   23.0422 C   0  0  0  0  0  0  0  0  0  0  0  0
   12.8997  -18.9212   24.1639 C   0  0  0  0  0  0  0  0  0  0  0  0
   12.3939  -18.3722   25.3382 C   0  0  0  0  0  0  0  0  0  0  0  0
   11.8800  -19.3442   26.1164 N   0  0  0  0  0  0  0  0  0  0  0  0
   12.0483  -20.5179   25.4583 C   0  0  0  0  0  0  0  0  0  0  0  0
   12.6553  -20.2400   24.3011 N   0  0  0  0  0  0  0  0  0  0  0  0
   13.6125  -16.1026   21.8230 C   0  0  0  0  0  0  0  0  0  0  0  0
   13.0821  -15.9760   20.6886 O   0  0  0  0  0  0  0  0  0  0  0  0
   14.8445  -15.4832   21.9731 O   0  0  0  0  0  0  0  0  0  0  0  0
  2  1  1  1
  3  4  1  0
  3  2  1  0
  4  5  2  0
  5  6  1  0
  7  6  2  0
  8  7  1  0
  9  4  1  0
  9  8  2  0
 10  2  1  0
 10 17  1  0
 11 10  2  0
 13 12  1  0
 14 13  1  0
 15 14  1  0
 16 15  1  1
 16 17  1  0
 18 16  1  0
 19 18  2  0
 20 18  1  0
 21 20  1  0
 21 28  1  0
 22 23  1  0
 21 22  1  6
 23 27  1  0
 24 23  2  0
 24 25  1  0
 25 26  1  0
 27 26  2  0
 28 30  1  0
 29 28  2  0
M  END
$$$$
