FMH.pdb
     RDKit          3D

 30 31  0  0  1  0  0  0  0  0999 V2000
    7.8039  -17.2707   21.0415 N   0  0  0  0  0  0  0  0  0  0  0  0
    9.1947  -16.7856   21.1297 C   0  0  1  0  0  0  0  0  0  0  0  0
    9.3755  -15.7327   20.0549 C   0  0  0  0  0  0  0  0  0  0  0  0
    8.5018  -14.5604   20.1995 C   0  0  0  0  0  0  0  0  0  0  0  0
    9.0623  -13.3061   20.0599 C   0  0  0  0  0  0  0  0  0  0  0  0
    8.3121  -12.1404   20.1692 C   0  0  0  0  0  0  0  0  0  0  0  0
    6.9738  -12.2878   20.4250 C   0  0  0  0  0  0  0  0  0  0  0  0
    6.3746  -13.5329   20.5720 C   0  0  0  0  0  0  0  0  0  0  0  0
    7.1456  -14.6710   20.4580 C   0  0  0  0  0  0  0  0  0  0  0  0
    9.4409  -16.2285   22.4819 C   0  0  0  0  0  0  0  0  0  0  0  0
   10.5939  -15.7388   22.7007 O   0  0  0  0  0  0  0  0  0  0  0  0
    7.1153  -10.8945   26.0219 C   0  0  0  0  0  0  0  0  0  0  0  0
    6.9572  -12.6556   26.4594 S   0  0  0  0  0  0  0  0  0  0  0  0
    7.8185  -13.6010   25.1502 C   0  0  0  0  0  0  0  0  0  0  0  0
    7.6966  -15.0504   25.4962 C   0  0  0  0  0  0  0  0  0  0  0  0
    8.8515  -15.8317   24.9228 C   0  0  2  0  0  0  0  0  0  0  0  0
    8.5147  -16.1959   23.5282 N   0  0  0  0  0  0  0  0  0  0  0  0
    9.2275  -17.0413   25.6461 C   0  0  0  0  0  0  0  0  0  0  0  0
    8.3283  -17.9249   25.9341 O   0  0  0  0  0  0  0  0  0  0  0  0
   10.5344  -17.3792   26.0867 N   0  0  0  0  0  0  0  0  0  0  0  0
   10.8090  -18.6638   26.7310 C   0  0  1  0  0  0  0  0  0  0  0  0
   12.2159  -19.1140   26.4702 C   0  0  0  0  0  0  0  0  0  0  0  0
   12.4299  -19.2489   25.0125 C   0  0  0  0  0  0  0  0  0  0  0  0
   11.4664  -19.4426   24.0274 C   0  0  0  0  0  0  0  0  0  0  0  0
   12.0541  -19.5192   22.8177 N   0  0  0  0  0  0  0  0  0  0  0  0
   13.3892  -19.3778   23.0092 C   0  0  0  0  0  0  0  0  0  0  0  0
   13.5869  -19.2177   24.3208 N   0  0  0  0  0  0  0  0  0  0  0  0
   10.5817  -18.5167   28.1737 C   0  0  0  0  0  0  0  0  0  0  0  0
   10.7308  -19.5182   28.9214 O   0  0  0  0  0  0  0  0  0  0  0  0
   10.2089  -17.3466   28.8184 O   0  0  0  0  0  0  0  0  0  0  0  0
  2  1  1  1
  3  4  1  0
  3  2  1  0
  4  5  2  0
  5  6  1  0
  7  6  2  0
  8  7  1  0
  9  4  1  0
  9  8  2  0
 10  2  1  0
 10 17  1  0
 11 10  2  0
 13 12  1  0
 14 13  1  0
 15 14  1  0
 16 15  1  1
 16 17  1  0
 18 16  1  0
 19 18  2  0
 20 18  1  0
 21 20  1  0
 21 28  1  0
 22 23  1  0
 21 22  1  1
 23 27  1  0
 24 23  2  0
 24 25  1  0
 25 26  1  0
 27 26  2  0
 28 30  1  0
 29 28  2  0
M  END
$$$$
