FMH.pdb
     RDKit          3D

 30 31  0  0  1  0  0  0  0  0999 V2000
    6.2061  -18.3476   25.7182 N   0  0  0  0  0  0  0  0  0  0  0  0
    6.4122  -16.9241   25.3885 C   0  0  1  0  0  0  0  0  0  0  0  0
    7.1339  -16.2885   26.5597 C   0  0  0  0  0  0  0  0  0  0  0  0
    7.2425  -14.8253   26.4851 C   0  0  0  0  0  0  0  0  0  0  0  0
    8.5033  -14.2659   26.4179 C   0  0  0  0  0  0  0  0  0  0  0  0
    8.7035  -12.8925   26.3338 C   0  0  0  0  0  0  0  0  0  0  0  0
    7.5829  -12.1036   26.3203 C   0  0  0  0  0  0  0  0  0  0  0  0
    6.2986  -12.6301   26.3866 C   0  0  0  0  0  0  0  0  0  0  0  0
    6.1326  -13.9969   26.4694 C   0  0  0  0  0  0  0  0  0  0  0  0
    7.2036  -16.8140   24.1391 C   0  0  0  0  0  0  0  0  0  0  0  0
    7.9291  -17.8112   23.8284 O   0  0  0  0  0  0  0  0  0  0  0  0
    8.0500  -11.5093   20.3715 C   0  0  0  0  0  0  0  0  0  0  0  0
    7.5437  -12.7548   19.1425 S   0  0  0  0  0  0  0  0  0  0  0  0
    7.9684  -14.3898   19.8467 C   0  0  0  0  0  0  0  0  0  0  0  0
    7.4536  -14.4158   21.2501 C   0  0  0  0  0  0  0  0  0  0  0  0
    7.7610  -15.7393   21.9036 C   0  0  2  0  0  0  0  0  0  0  0  0
    7.2159  -15.7119   23.2795 N   0  0  0  0  0  0  0  0  0  0  0  0
    9.1703  -16.1108   21.9643 C   0  0  0  0  0  0  0  0  0  0  0  0
    9.7023  -16.7793   20.9936 O   0  0  0  0  0  0  0  0  0  0  0  0
   10.0713  -15.8013   23.0173 N   0  0  0  0  0  0  0  0  0  0  0  0
   11.4820  -16.1826   22.9448 C   0  0  1  0  0  0  0  0  0  0  0  0
   12.3488  -15.0026   22.6186 C   0  0  0  0  0  0  0  0  0  0  0  0
   12.5354  -14.9158   21.1535 C   0  0  0  0  0  0  0  0  0  0  0  0
   12.1539  -15.8471   20.1926 C   0  0  0  0  0  0  0  0  0  0  0  0
   12.4988  -15.4101   18.9660 N   0  0  0  0  0  0  0  0  0  0  0  0
   13.1006  -14.2050   19.1225 C   0  0  0  0  0  0  0  0  0  0  0  0
   13.1093  -13.9331   20.4305 N   0  0  0  0  0  0  0  0  0  0  0  0
   11.8734  -16.7589   24.2368 C   0  0  0  0  0  0  0  0  0  0  0  0
   11.0176  -16.8358   25.1565 O   0  0  0  0  0  0  0  0  0  0  0  0
   13.1323  -17.2453   24.5571 O   0  0  0  0  0  0  0  0  0  0  0  0
  2  1  1  1
  3  4  1  0
  3  2  1  0
  4  5  2  0
  5  6  1  0
  7  6  2  0
  8  7  1  0
  9  4  1  0
  9  8  2  0
 10  2  1  0
 10 17  1  0
 11 10  2  0
 13 12  1  0
 14 13  1  0
 15 14  1  0
 16 15  1  1
 16 17  1  0
 18 16  1  0
 19 18  2  0
 20 18  1  0
 21 20  1  0
 21 28  1  0
 22 23  1  0
 21 22  1  1
 23 27  1  0
 24 23  2  0
 24 25  1  0
 25 26  1  0
 27 26  2  0
 28 30  1  0
 29 28  2  0
M  END
$$$$
