FMH.pdb
     RDKit          3D

 30 31  0  0  1  0  0  0  0  0999 V2000
    5.8961  -17.4334   25.3868 N   0  0  0  0  0  0  0  0  0  0  0  0
    6.6408  -16.1875   25.1211 C   0  0  1  0  0  0  0  0  0  0  0  0
    7.1878  -15.6962   26.4461 C   0  0  0  0  0  0  0  0  0  0  0  0
    7.1649  -14.2363   26.6094 C   0  0  0  0  0  0  0  0  0  0  0  0
    5.9477  -13.6222   26.8294 C   0  0  0  0  0  0  0  0  0  0  0  0
    5.8298  -12.2480   27.0062 C   0  0  0  0  0  0  0  0  0  0  0  0
    6.9871  -11.5158   26.9524 C   0  0  0  0  0  0  0  0  0  0  0  0
    8.2294  -12.0983   26.7327 C   0  0  0  0  0  0  0  0  0  0  0  0
    8.3138  -13.4643   26.5609 C   0  0  0  0  0  0  0  0  0  0  0  0
    7.7298  -16.4579   24.1513 C   0  0  0  0  0  0  0  0  0  0  0  0
    8.0805  -17.6714   24.0043 O   0  0  0  0  0  0  0  0  0  0  0  0
    8.6227  -12.5387   19.4815 C   0  0  0  0  0  0  0  0  0  0  0  0
    7.3148  -13.7945   19.3069 S   0  0  0  0  0  0  0  0  0  0  0  0
    7.5853  -15.0223   20.6368 C   0  0  0  0  0  0  0  0  0  0  0  0
    8.9823  -14.8357   21.1356 C   0  0  0  0  0  0  0  0  0  0  0  0
    9.2836  -15.8095   22.2465 C   0  0  2  0  0  0  0  0  0  0  0  0
    8.3966  -15.4947   23.3890 N   0  0  0  0  0  0  0  0  0  0  0  0
   10.6640  -15.8359   22.7173 C   0  0  0  0  0  0  0  0  0  0  0  0
   11.6134  -16.1787   21.9090 O   0  0  0  0  0  0  0  0  0  0  0  0
   11.1071  -15.5057   24.0254 N   0  0  0  0  0  0  0  0  0  0  0  0
   12.4714  -15.8038   24.4616 C   0  0  1  0  0  0  0  0  0  0  0  0
   12.4764  -16.7492   25.6262 C   0  0  0  0  0  0  0  0  0  0  0  0
   11.6797  -16.1751   26.7328 C   0  0  0  0  0  0  0  0  0  0  0  0
   10.9853  -14.9693   26.7422 C   0  0  0  0  0  0  0  0  0  0  0  0
   10.3838  -14.7940   27.9347 N   0  0  0  0  0  0  0  0  0  0  0  0
   10.6821  -15.8741   28.6986 C   0  0  0  0  0  0  0  0  0  0  0  0
   11.4520  -16.6802   27.9620 N   0  0  0  0  0  0  0  0  0  0  0  0
   13.2027  -16.3872   23.3305 C   0  0  0  0  0  0  0  0  0  0  0  0
   14.0804  -15.6977   22.7488 O   0  0  0  0  0  0  0  0  0  0  0  0
   13.0199  -17.6646   22.8219 O   0  0  0  0  0  0  0  0  0  0  0  0
  2  1  1  1
  3  4  1  0
  3  2  1  0
  4  5  2  0
  5  6  1  0
  7  6  2  0
  8  7  1  0
  9  4  1  0
  9  8  2  0
 10  2  1  0
 10 17  1  0
 11 10  2  0
 13 12  1  0
 14 13  1  0
 15 14  1  0
 16 15  1  6
 16 17  1  0
 18 16  1  0
 19 18  2  0
 20 18  1  0
 21 20  1  0
 21 28  1  0
 22 23  1  0
 21 22  1  1
 23 27  1  0
 24 23  2  0
 24 25  1  0
 25 26  1  0
 27 26  2  0
 28 30  1  0
 29 28  2  0
M  END
$$$$
