FMH.pdb
     RDKit          3D

 30 31  0  0  1  0  0  0  0  0999 V2000
    9.7562  -17.6810   20.9939 N   0  0  0  0  0  0  0  0  0  0  0  0
    9.3121  -16.3995   21.5752 C   0  0  1  0  0  0  0  0  0  0  0  0
    7.9323  -16.1057   21.0216 C   0  0  0  0  0  0  0  0  0  0  0  0
    7.6869  -14.6886   20.7216 C   0  0  0  0  0  0  0  0  0  0  0  0
    8.0081  -14.2218   19.4623 C   0  0  0  0  0  0  0  0  0  0  0  0
    7.8012  -12.8997   19.0846 C   0  0  0  0  0  0  0  0  0  0  0  0
    7.2575  -12.0652   20.0260 C   0  0  0  0  0  0  0  0  0  0  0  0
    6.9220  -12.4986   21.3030 C   0  0  0  0  0  0  0  0  0  0  0  0
    7.1394  -13.8163   21.6477 C   0  0  0  0  0  0  0  0  0  0  0  0
    9.2918  -16.5064   23.0543 C   0  0  0  0  0  0  0  0  0  0  0  0
   10.3474  -16.9424   23.6136 O   0  0  0  0  0  0  0  0  0  0  0  0
    7.3546  -11.1253   26.2557 C   0  0  0  0  0  0  0  0  0  0  0  0
    7.5094  -12.8594   26.7915 S   0  0  0  0  0  0  0  0  0  0  0  0
    6.9865  -13.8947   25.3758 C   0  0  0  0  0  0  0  0  0  0  0  0
    7.0484  -15.3204   25.8218 C   0  0  0  0  0  0  0  0  0  0  0  0
    8.3208  -15.9716   25.3421 C   0  0  2  0  0  0  0  0  0  0  0  0
    8.2151  -16.1677   23.8787 N   0  0  0  0  0  0  0  0  0  0  0  0
    8.6604  -17.2469   25.9633 C   0  0  0  0  0  0  0  0  0  0  0  0
    7.7202  -18.0622   26.3152 O   0  0  0  0  0  0  0  0  0  0  0  0
    9.9710  -17.7220   26.2335 N   0  0  0  0  0  0  0  0  0  0  0  0
   10.1916  -18.9137   27.0531 C   0  0  1  0  0  0  0  0  0  0  0  0
   11.4202  -19.6551   26.6163 C   0  0  0  0  0  0  0  0  0  0  0  0
   11.2602  -20.0943   25.2126 C   0  0  0  0  0  0  0  0  0  0  0  0
   10.0841  -20.4653   24.5681 C   0  0  0  0  0  0  0  0  0  0  0  0
   10.3466  -20.8047   23.2912 N   0  0  0  0  0  0  0  0  0  0  0  0
   11.6814  -20.6581   23.1020 C   0  0  0  0  0  0  0  0  0  0  0  0
   12.2014  -20.2343   24.2574 N   0  0  0  0  0  0  0  0  0  0  0  0
   10.3218  -18.4953   28.4540 C   0  0  0  0  0  0  0  0  0  0  0  0
   10.3955  -19.3753   29.3508 O   0  0  0  0  0  0  0  0  0  0  0  0
   10.3757  -17.1846   28.9047 O   0  0  0  0  0  0  0  0  0  0  0  0
  2  1  1  6
  3  4  1  0
  3  2  1  0
  4  5  2  0
  5  6  1  0
  7  6  2  0
  8  7  1  0
  9  4  1  0
  9  8  2  0
 10  2  1  0
 10 17  1  0
 11 10  2  0
 13 12  1  0
 14 13  1  0
 15 14  1  0
 16 15  1  1
 16 17  1  0
 18 16  1  0
 19 18  2  0
 20 18  1  0
 21 20  1  0
 21 28  1  0
 22 23  1  0
 21 22  1  6
 23 27  1  0
 24 23  2  0
 24 25  1  0
 25 26  1  0
 27 26  2  0
 28 30  1  0
 29 28  2  0
M  END
$$$$
