WPY.pdb
     RDKit          3D

 34 37  0  0  1  0  0  0  0  0999 V2000
   26.8755  -21.1688   -9.9935 N   0  0  0  0  0  0  0  0  0  0  0  0
   25.9475  -20.8196  -11.0100 C   0  0  1  0  0  0  0  0  0  0  0  0
   25.0180  -19.7652  -10.4467 C   0  0  0  0  0  0  0  0  0  0  0  0
   23.9292  -20.3685   -9.6426 C   0  0  0  0  0  0  0  0  0  0  0  0
   23.9315  -20.5198   -8.2724 C   0  0  0  0  0  0  0  0  0  0  0  0
   22.8068  -21.0983   -7.8569 N   0  0  0  0  0  0  0  0  0  0  0  0
   22.0622  -21.3292   -8.9499 C   0  0  0  0  0  0  0  0  0  0  0  0
   20.8294  -21.8970   -9.0927 C   0  0  0  0  0  0  0  0  0  0  0  0
   20.2689  -22.0234  -10.3427 C   0  0  0  0  0  0  0  0  0  0  0  0
   20.9465  -21.5797  -11.4493 C   0  0  0  0  0  0  0  0  0  0  0  0
   22.1979  -20.9984  -11.3482 C   0  0  0  0  0  0  0  0  0  0  0  0
   22.7236  -20.8906  -10.0780 C   0  0  0  0  0  0  0  0  0  0  0  0
   26.4946  -20.4647  -12.3155 C   0  0  0  0  0  0  0  0  0  0  0  0
   27.5470  -19.7325  -12.2891 O   0  0  0  0  0  0  0  0  0  0  0  0
   26.0005  -20.8326  -13.5883 N   0  0  0  0  0  0  0  0  0  0  0  0
   24.8394  -21.6035  -13.9488 C   0  0  0  0  0  0  0  0  0  0  0  0
   25.2508  -22.2823  -15.2350 C   0  0  0  0  0  0  0  0  0  0  0  0
   26.6087  -21.7733  -15.5815 C   0  0  0  0  0  0  0  0  0  0  0  0
   26.6278  -20.4558  -14.8330 C   0  0  1  0  0  0  0  0  0  0  0  0
   25.8183  -19.4027  -15.4754 C   0  0  0  0  0  0  0  0  0  0  0  0
   24.6915  -19.1362  -15.0309 O   0  0  0  0  0  0  0  0  0  0  0  0
   31.9834  -16.9240  -18.3407 O   0  0  0  0  0  0  0  0  0  0  0  0
   30.6750  -16.7739  -17.9032 C   0  0  0  0  0  0  0  0  0  0  0  0
   29.7162  -16.0748  -18.6140 C   0  0  0  0  0  0  0  0  0  0  0  0
   28.4257  -15.9460  -18.1488 C   0  0  0  0  0  0  0  0  0  0  0  0
   28.0380  -16.5107  -16.9525 C   0  0  0  0  0  0  0  0  0  0  0  0
   26.6429  -16.3286  -16.5130 C   0  0  0  0  0  0  0  0  0  0  0  0
   25.7007  -17.4017  -17.0357 C   0  0  2  0  0  0  0  0  0  0  0  0
   26.2722  -18.6601  -16.6030 N   0  0  0  0  0  0  0  0  0  0  0  0
   25.6550  -17.4193  -18.5201 C   0  0  0  0  0  0  0  0  0  0  0  0
   26.2007  -18.3535  -19.2010 O   0  0  0  0  0  0  0  0  0  0  0  0
   28.9724  -17.2105  -16.2275 C   0  0  0  0  0  0  0  0  0  0  0  0
   30.2453  -17.3242  -16.7096 C   0  0  0  0  0  0  0  0  0  0  0  0
   25.0263  -16.4406  -19.2833 O   0  0  0  0  0  0  0  0  0  0  0  0
  2  1  1  1
  2 13  1  0
  2  3  1  0
  4  3  1  0
  4  5  2  0
  6  5  1  0
  7  6  1  0
  8  7  2  0
  9  8  1  0
 10  9  2  0
 10 11  1  0
 11 12  2  0
 12  7  1  0
 12  4  1  0
 13 14  2  0
 15 13  1  0
 15 16  1  0
 17 16  1  0
 18 19  1  0
 18 17  1  0
 19 15  1  0
 19 20  1  6
 21 20  2  0
 22 23  1  0
 23 24  2  0
 24 25  1  0
 26 27  1  0
 26 25  2  0
 28 27  1  6
 28 29  1  0
 29 20  1  0
 30 28  1  0
 31 30  2  0
 32 26  1  0
 33 32  2  0
 33 23  1  0
 34 30  1  0
M  END
$$$$
