WPY.pdb
     RDKit          3D

 34 37  0  0  1  0  0  0  0  0999 V2000
   24.5242  -22.0696  -14.1335 N   0  0  0  0  0  0  0  0  0  0  0  0
   25.1908  -21.1118  -13.3243 C   0  0  1  0  0  0  0  0  0  0  0  0
   24.1440  -20.1783  -12.7536 C   0  0  0  0  0  0  0  0  0  0  0  0
   23.4141  -19.4558  -13.8219 C   0  0  0  0  0  0  0  0  0  0  0  0
   23.9928  -18.7224  -14.8357 C   0  0  0  0  0  0  0  0  0  0  0  0
   23.0637  -18.1972  -15.6314 N   0  0  0  0  0  0  0  0  0  0  0  0
   21.8731  -18.5823  -15.1450 C   0  0  0  0  0  0  0  0  0  0  0  0
   20.6030  -18.3268  -15.5741 C   0  0  0  0  0  0  0  0  0  0  0  0
   19.5270  -18.8454  -14.8915 C   0  0  0  0  0  0  0  0  0  0  0  0
   19.7265  -19.6206  -13.7780 C   0  0  0  0  0  0  0  0  0  0  0  0
   20.9974  -19.9034  -13.3099 C   0  0  0  0  0  0  0  0  0  0  0  0
   22.0477  -19.3647  -14.0225 C   0  0  0  0  0  0  0  0  0  0  0  0
   26.1158  -21.6217  -12.3173 C   0  0  0  0  0  0  0  0  0  0  0  0
   25.7054  -22.6453  -11.6629 O   0  0  0  0  0  0  0  0  0  0  0  0
   27.3960  -21.1198  -11.9871 N   0  0  0  0  0  0  0  0  0  0  0  0
   28.2801  -20.2624  -12.7323 C   0  0  0  0  0  0  0  0  0  0  0  0
   29.6566  -20.7070  -12.2940 C   0  0  0  0  0  0  0  0  0  0  0  0
   29.4647  -21.7429  -11.2391 C   0  0  0  0  0  0  0  0  0  0  0  0
   28.0734  -21.4030  -10.7439 C   0  0  1  0  0  0  0  0  0  0  0  0
   28.0302  -20.1988   -9.8923 C   0  0  0  0  0  0  0  0  0  0  0  0
   27.5748  -19.1391  -10.3483 O   0  0  0  0  0  0  0  0  0  0  0  0
   23.3139  -21.3712   -2.8060 O   0  0  0  0  0  0  0  0  0  0  0  0
   24.1125  -21.3010   -3.9387 C   0  0  0  0  0  0  0  0  0  0  0  0
   23.8921  -22.0695   -5.0673 C   0  0  0  0  0  0  0  0  0  0  0  0
   24.7062  -21.9734   -6.1748 C   0  0  0  0  0  0  0  0  0  0  0  0
   25.7762  -21.1047   -6.2015 C   0  0  0  0  0  0  0  0  0  0  0  0
   26.6085  -21.0578   -7.4172 C   0  0  0  0  0  0  0  0  0  0  0  0
   27.6495  -19.9494   -7.3933 C   0  0  2  0  0  0  0  0  0  0  0  0
   28.4936  -20.1889   -8.5454 N   0  0  0  0  0  0  0  0  0  0  0  0
   28.5102  -20.0280   -6.1854 C   0  0  0  0  0  0  0  0  0  0  0  0
   28.7035  -19.0169   -5.4275 O   0  0  0  0  0  0  0  0  0  0  0  0
   26.0163  -20.3301   -5.0922 C   0  0  0  0  0  0  0  0  0  0  0  0
   25.1951  -20.4433   -4.0066 C   0  0  0  0  0  0  0  0  0  0  0  0
   29.1673  -21.1859   -5.7814 O   0  0  0  0  0  0  0  0  0  0  0  0
  2  1  1  1
  2 13  1  0
  2  3  1  0
  4  3  1  0
  4  5  2  0
  6  5  1  0
  7  6  1  0
  8  7  2  0
  9  8  1  0
 10  9  2  0
 10 11  1  0
 11 12  2  0
 12  7  1  0
 12  4  1  0
 13 14  2  0
 15 13  1  0
 15 16  1  0
 17 16  1  0
 18 19  1  0
 18 17  1  0
 19 15  1  0
 19 20  1  1
 21 20  2  0
 22 23  1  0
 23 24  2  0
 24 25  1  0
 26 27  1  0
 26 25  2  0
 28 27  1  1
 28 29  1  0
 29 20  1  0
 30 28  1  0
 31 30  2  0
 32 26  1  0
 33 32  2  0
 33 23  1  0
 34 30  1  0
M  END
$$$$
