WPY.pdb
     RDKit          3D

 34 37  0  0  1  0  0  0  0  0999 V2000
   22.9611  -20.0099  -13.1880 N   0  0  0  0  0  0  0  0  0  0  0  0
   24.3794  -19.9638  -13.2392 C   0  0  1  0  0  0  0  0  0  0  0  0
   24.9062  -21.2678  -12.6779 C   0  0  0  0  0  0  0  0  0  0  0  0
   25.5409  -21.0764  -11.3524 C   0  0  0  0  0  0  0  0  0  0  0  0
   24.8726  -20.8984  -10.1599 C   0  0  0  0  0  0  0  0  0  0  0  0
   25.7305  -20.7534   -9.1523 N   0  0  0  0  0  0  0  0  0  0  0  0
   26.9634  -20.8351   -9.6772 C   0  0  0  0  0  0  0  0  0  0  0  0
   28.1945  -20.7536   -9.0939 C   0  0  0  0  0  0  0  0  0  0  0  0
   29.3304  -20.8706   -9.8612 C   0  0  0  0  0  0  0  0  0  0  0  0
   29.2298  -21.0693  -11.2144 C   0  0  0  0  0  0  0  0  0  0  0  0
   28.0014  -21.1577  -11.8447 C   0  0  0  0  0  0  0  0  0  0  0  0
   26.8885  -21.0354  -11.0398 C   0  0  0  0  0  0  0  0  0  0  0  0
   24.9866  -19.6012  -14.5158 C   0  0  0  0  0  0  0  0  0  0  0  0
   24.1647  -19.4249  -15.4842 O   0  0  0  0  0  0  0  0  0  0  0  0
   26.3606  -19.4254  -14.8000 N   0  0  0  0  0  0  0  0  0  0  0  0
   27.5165  -19.6226  -13.9648 C   0  0  0  0  0  0  0  0  0  0  0  0
   28.5044  -18.6019  -14.4814 C   0  0  0  0  0  0  0  0  0  0  0  0
   27.8725  -17.9410  -15.6591 C   0  0  0  0  0  0  0  0  0  0  0  0
   26.8667  -18.9929  -16.0812 C   0  0  1  0  0  0  0  0  0  0  0  0
   27.4767  -20.1479  -16.7675 C   0  0  0  0  0  0  0  0  0  0  0  0
   28.6412  -20.4788  -16.4976 O   0  0  0  0  0  0  0  0  0  0  0  0
   24.1207  -27.8635  -15.4656 O   0  0  0  0  0  0  0  0  0  0  0  0
   24.6296  -26.5864  -15.6544 C   0  0  0  0  0  0  0  0  0  0  0  0
   25.9807  -26.3242  -15.7925 C   0  0  0  0  0  0  0  0  0  0  0  0
   26.4506  -25.0424  -15.9787 C   0  0  0  0  0  0  0  0  0  0  0  0
   25.5899  -23.9672  -16.0347 C   0  0  0  0  0  0  0  0  0  0  0  0
   26.1621  -22.6229  -16.2306 C   0  0  0  0  0  0  0  0  0  0  0  0
   26.5886  -22.3519  -17.6650 C   0  0  2  0  0  0  0  0  0  0  0  0
   26.7843  -20.9192  -17.7445 N   0  0  0  0  0  0  0  0  0  0  0  0
   25.5220  -22.7111  -18.6341 C   0  0  0  0  0  0  0  0  0  0  0  0
   24.5839  -21.8974  -18.9373 O   0  0  0  0  0  0  0  0  0  0  0  0
   24.2425  -24.2016  -15.9001 C   0  0  0  0  0  0  0  0  0  0  0  0
   23.8011  -25.4810  -15.7165 C   0  0  0  0  0  0  0  0  0  0  0  0
   25.4528  -23.9395  -19.2837 O   0  0  0  0  0  0  0  0  0  0  0  0
  2  1  1  6
  2 13  1  0
  2  3  1  0
  4  3  1  0
  4  5  2  0
  6  5  1  0
  7  6  1  0
  8  7  2  0
  9  8  1  0
 10  9  2  0
 10 11  1  0
 11 12  2  0
 12  7  1  0
 12  4  1  0
 13 14  2  0
 15 13  1  0
 15 16  1  0
 17 16  1  0
 18 19  1  0
 18 17  1  0
 19 15  1  0
 19 20  1  1
 21 20  2  0
 22 23  1  0
 23 24  2  0
 24 25  1  0
 26 27  1  0
 26 25  2  0
 28 27  1  1
 28 29  1  0
 29 20  1  0
 30 28  1  0
 31 30  2  0
 32 26  1  0
 33 32  2  0
 33 23  1  0
 34 30  1  0
M  END
$$$$
