WPY.pdb
     RDKit          3D

 34 37  0  0  1  0  0  0  0  0999 V2000
   26.5980  -19.0849  -16.8859 N   0  0  0  0  0  0  0  0  0  0  0  0
   26.2306  -19.8491  -15.7468 C   0  0  1  0  0  0  0  0  0  0  0  0
   26.1318  -18.9049  -14.5672 C   0  0  0  0  0  0  0  0  0  0  0  0
   26.4761  -19.5813  -13.2944 C   0  0  0  0  0  0  0  0  0  0  0  0
   27.7358  -19.9997  -12.9222 C   0  0  0  0  0  0  0  0  0  0  0  0
   27.7098  -20.5728  -11.7208 N   0  0  0  0  0  0  0  0  0  0  0  0
   26.4356  -20.5335  -11.2994 C   0  0  0  0  0  0  0  0  0  0  0  0
   25.8576  -20.9788  -10.1462 C   0  0  0  0  0  0  0  0  0  0  0  0
   24.5059  -20.8187   -9.9457 C   0  0  0  0  0  0  0  0  0  0  0  0
   23.7349  -20.2114  -10.9035 C   0  0  0  0  0  0  0  0  0  0  0  0
   24.2815  -19.7460  -12.0862 C   0  0  0  0  0  0  0  0  0  0  0  0
   25.6390  -19.9260  -12.2475 C   0  0  0  0  0  0  0  0  0  0  0  0
   25.0707  -20.7246  -15.8804 C   0  0  0  0  0  0  0  0  0  0  0  0
   24.1405  -20.2903  -16.6489 O   0  0  0  0  0  0  0  0  0  0  0  0
   24.8609  -21.9806  -15.2654 N   0  0  0  0  0  0  0  0  0  0  0  0
   25.6801  -22.7081  -14.3316 C   0  0  0  0  0  0  0  0  0  0  0  0
   25.3805  -24.1548  -14.6505 C   0  0  0  0  0  0  0  0  0  0  0  0
   24.3212  -24.1594  -15.6998 C   0  0  0  0  0  0  0  0  0  0  0  0
   23.6913  -22.7978  -15.4867 C   0  0  1  0  0  0  0  0  0  0  0  0
   22.8287  -22.7294  -14.2915 C   0  0  0  0  0  0  0  0  0  0  0  0
   23.3372  -22.7898  -13.1619 O   0  0  0  0  0  0  0  0  0  0  0  0
   20.5184  -16.8427  -16.5020 O   0  0  0  0  0  0  0  0  0  0  0  0
   20.6311  -17.8625  -15.5677 C   0  0  0  0  0  0  0  0  0  0  0  0
   21.8316  -18.4778  -15.2620 C   0  0  0  0  0  0  0  0  0  0  0  0
   21.9063  -19.4880  -14.3280 C   0  0  0  0  0  0  0  0  0  0  0  0
   20.7836  -19.9269  -13.6593 C   0  0  0  0  0  0  0  0  0  0  0  0
   20.9357  -21.0155  -12.6771 C   0  0  0  0  0  0  0  0  0  0  0  0
   20.5499  -22.3807  -13.2249 C   0  0  2  0  0  0  0  0  0  0  0  0
   21.4127  -22.5948  -14.3681 N   0  0  0  0  0  0  0  0  0  0  0  0
   19.1477  -22.4019  -13.7139 C   0  0  0  0  0  0  0  0  0  0  0  0
   18.8672  -22.3679  -14.9607 O   0  0  0  0  0  0  0  0  0  0  0  0
   19.5786  -19.3315  -13.9453 C   0  0  0  0  0  0  0  0  0  0  0  0
   19.5302  -18.3321  -14.8750 C   0  0  0  0  0  0  0  0  0  0  0  0
   18.0396  -22.4602  -12.8746 O   0  0  0  0  0  0  0  0  0  0  0  0
  2  1  1  6
  2 13  1  0
  2  3  1  0
  4  3  1  0
  4  5  2  0
  6  5  1  0
  7  6  1  0
  8  7  2  0
  9  8  1  0
 10  9  2  0
 10 11  1  0
 11 12  2  0
 12  7  1  0
 12  4  1  0
 13 14  2  0
 15 13  1  0
 15 16  1  0
 17 16  1  0
 18 19  1  0
 18 17  1  0
 19 15  1  0
 19 20  1  1
 21 20  2  0
 22 23  1  0
 23 24  2  0
 24 25  1  0
 26 27  1  0
 26 25  2  0
 28 27  1  6
 28 29  1  0
 29 20  1  0
 30 28  1  0
 31 30  2  0
 32 26  1  0
 33 32  2  0
 33 23  1  0
 34 30  1  0
M  END
$$$$
