WPY.pdb
     RDKit          3D

 34 37  0  0  1  0  0  0  0  0999 V2000
   24.9461  -21.9355  -17.5770 N   0  0  0  0  0  0  0  0  0  0  0  0
   24.8755  -21.0035  -16.5080 C   0  0  1  0  0  0  0  0  0  0  0  0
   23.4334  -20.9289  -16.0524 C   0  0  0  0  0  0  0  0  0  0  0  0
   22.7414  -19.7465  -16.6173 C   0  0  0  0  0  0  0  0  0  0  0  0
   21.7812  -19.7739  -17.6062 C   0  0  0  0  0  0  0  0  0  0  0  0
   21.3582  -18.5442  -17.8910 N   0  0  0  0  0  0  0  0  0  0  0  0
   22.0371  -17.7052  -17.0924 C   0  0  0  0  0  0  0  0  0  0  0  0
   21.9928  -16.3465  -16.9732 C   0  0  0  0  0  0  0  0  0  0  0  0
   22.8034  -15.7071  -16.0639 C   0  0  0  0  0  0  0  0  0  0  0  0
   23.6584  -16.4324  -15.2743 C   0  0  0  0  0  0  0  0  0  0  0  0
   23.7341  -17.8110  -15.3637 C   0  0  0  0  0  0  0  0  0  0  0  0
   22.9053  -18.4124  -16.2871 C   0  0  0  0  0  0  0  0  0  0  0  0
   25.8169  -21.1827  -15.4074 C   0  0  0  0  0  0  0  0  0  0  0  0
   26.2713  -22.3730  -15.2618 O   0  0  0  0  0  0  0  0  0  0  0  0
   26.2771  -20.2041  -14.4962 N   0  0  0  0  0  0  0  0  0  0  0  0
   25.9281  -18.8133  -14.3691 C   0  0  0  0  0  0  0  0  0  0  0  0
   27.1947  -18.1773  -13.8442 C   0  0  0  0  0  0  0  0  0  0  0  0
   28.1720  -19.2791  -13.6124 C   0  0  0  0  0  0  0  0  0  0  0  0
   27.2437  -20.4666  -13.4562 C   0  0  1  0  0  0  0  0  0  0  0  0
   26.5473  -20.5016  -12.1558 C   0  0  0  0  0  0  0  0  0  0  0  0
   25.4572  -19.9243  -12.0263 O   0  0  0  0  0  0  0  0  0  0  0  0
   28.8495  -18.4054   -4.9982 O   0  0  0  0  0  0  0  0  0  0  0  0
   28.4712  -19.3381   -5.9535 C   0  0  0  0  0  0  0  0  0  0  0  0
   29.3794  -20.0393   -6.7259 C   0  0  0  0  0  0  0  0  0  0  0  0
   28.9675  -20.9588   -7.6658 C   0  0  0  0  0  0  0  0  0  0  0  0
   27.6295  -21.2168   -7.8741 C   0  0  0  0  0  0  0  0  0  0  0  0
   27.2602  -22.2089   -8.8999 C   0  0  0  0  0  0  0  0  0  0  0  0
   26.2672  -21.6785   -9.9223 C   0  0  2  0  0  0  0  0  0  0  0  0
   27.0720  -21.1777  -11.0171 N   0  0  0  0  0  0  0  0  0  0  0  0
   25.4820  -20.5371   -9.3871 C   0  0  0  0  0  0  0  0  0  0  0  0
   25.9070  -19.3335   -9.4578 O   0  0  0  0  0  0  0  0  0  0  0  0
   26.7073  -20.5328   -7.1191 C   0  0  0  0  0  0  0  0  0  0  0  0
   27.1403  -19.6264   -6.1937 C   0  0  0  0  0  0  0  0  0  0  0  0
   24.2402  -20.6755   -8.7751 O   0  0  0  0  0  0  0  0  0  0  0  0
  2  1  1  6
  2 13  1  0
  2  3  1  0
  4  3  1  0
  4  5  2  0
  6  5  1  0
  7  6  1  0
  8  7  2  0
  9  8  1  0
 10  9  2  0
 10 11  1  0
 11 12  2  0
 12  7  1  0
 12  4  1  0
 13 14  2  0
 15 13  1  0
 15 16  1  0
 17 16  1  0
 18 19  1  0
 18 17  1  0
 19 15  1  0
 19 20  1  1
 21 20  2  0
 22 23  1  0
 23 24  2  0
 24 25  1  0
 26 27  1  0
 26 25  2  0
 28 27  1  1
 28 29  1  0
 29 20  1  0
 30 28  1  0
 31 30  2  0
 32 26  1  0
 33 32  2  0
 33 23  1  0
 34 30  1  0
M  END
$$$$
