WPY.pdb
     RDKit          3D

 34 37  0  0  1  0  0  0  0  0999 V2000
   24.9813  -18.7593  -10.3062 N   0  0  0  0  0  0  0  0  0  0  0  0
   25.1922  -19.9781  -11.0038 C   0  0  1  0  0  0  0  0  0  0  0  0
   25.3610  -21.0773   -9.9761 C   0  0  0  0  0  0  0  0  0  0  0  0
   26.4401  -20.7625   -9.0103 C   0  0  0  0  0  0  0  0  0  0  0  0
   26.2885  -20.0483   -7.8410 C   0  0  0  0  0  0  0  0  0  0  0  0
   27.4491  -19.9384   -7.1982 N   0  0  0  0  0  0  0  0  0  0  0  0
   28.3664  -20.5786   -7.9407 C   0  0  0  0  0  0  0  0  0  0  0  0
   29.7037  -20.7696   -7.7470 C   0  0  0  0  0  0  0  0  0  0  0  0
   30.4407  -21.4740   -8.6708 C   0  0  0  0  0  0  0  0  0  0  0  0
   29.8346  -21.9864   -9.7891 C   0  0  0  0  0  0  0  0  0  0  0  0
   28.4819  -21.8153  -10.0233 C   0  0  0  0  0  0  0  0  0  0  0  0
   27.7799  -21.1038   -9.0733 C   0  0  0  0  0  0  0  0  0  0  0  0
   24.2373  -20.3158  -12.0544 C   0  0  0  0  0  0  0  0  0  0  0  0
   23.1237  -19.6815  -12.0088 O   0  0  0  0  0  0  0  0  0  0  0  0
   24.4005  -21.2515  -13.1020 N   0  0  0  0  0  0  0  0  0  0  0  0
   25.3715  -22.3010  -13.2697 C   0  0  0  0  0  0  0  0  0  0  0  0
   25.5380  -22.3925  -14.7692 C   0  0  0  0  0  0  0  0  0  0  0  0
   24.5655  -21.4382  -15.3747 C   0  0  0  0  0  0  0  0  0  0  0  0
   23.5438  -21.3154  -14.2624 C   0  0  1  0  0  0  0  0  0  0  0  0
   22.6628  -22.4928  -14.1406 C   0  0  0  0  0  0  0  0  0  0  0  0
   23.1171  -23.5571  -13.6944 O   0  0  0  0  0  0  0  0  0  0  0  0
   20.3225  -23.0915   -7.9335 O   0  0  0  0  0  0  0  0  0  0  0  0
   20.0612  -23.0735   -9.2962 C   0  0  0  0  0  0  0  0  0  0  0  0
   20.2269  -21.9477  -10.0825 C   0  0  0  0  0  0  0  0  0  0  0  0
   19.9574  -21.9663  -11.4336 C   0  0  0  0  0  0  0  0  0  0  0  0
   19.5103  -23.1116  -12.0570 C   0  0  0  0  0  0  0  0  0  0  0  0
   19.2364  -23.0584  -13.5044 C   0  0  0  0  0  0  0  0  0  0  0  0
   20.3807  -23.5875  -14.3549 C   0  0  2  0  0  0  0  0  0  0  0  0
   21.2890  -22.4711  -14.5163 N   0  0  0  0  0  0  0  0  0  0  0  0
   19.9211  -23.9882  -15.7091 C   0  0  0  0  0  0  0  0  0  0  0  0
   20.1757  -23.2828  -16.7444 O   0  0  0  0  0  0  0  0  0  0  0  0
   19.3376  -24.2436  -11.2974 C   0  0  0  0  0  0  0  0  0  0  0  0
   19.6115  -24.2002   -9.9600 C   0  0  0  0  0  0  0  0  0  0  0  0
   19.1886  -25.1433  -15.9639 O   0  0  0  0  0  0  0  0  0  0  0  0
  2  1  1  1
  2 13  1  0
  2  3  1  0
  4  3  1  0
  4  5  2  0
  6  5  1  0
  7  6  1  0
  8  7  2  0
  9  8  1  0
 10  9  2  0
 10 11  1  0
 11 12  2  0
 12  7  1  0
 12  4  1  0
 13 14  2  0
 15 13  1  0
 15 16  1  0
 17 16  1  0
 18 19  1  0
 18 17  1  0
 19 15  1  0
 19 20  1  1
 21 20  2  0
 22 23  1  0
 23 24  2  0
 24 25  1  0
 26 27  1  0
 26 25  2  0
 28 27  1  1
 28 29  1  0
 29 20  1  0
 30 28  1  0
 31 30  2  0
 32 26  1  0
 33 32  2  0
 33 23  1  0
 34 30  1  0
M  END
$$$$
