WPY.pdb
     RDKit          3D

 34 37  0  0  1  0  0  0  0  0999 V2000
   26.8508  -19.8349  -16.8582 N   0  0  0  0  0  0  0  0  0  0  0  0
   26.3329  -20.3725  -15.6503 C   0  0  1  0  0  0  0  0  0  0  0  0
   26.4516  -19.3076  -14.5804 C   0  0  0  0  0  0  0  0  0  0  0  0
   26.8068  -19.8904  -13.2650 C   0  0  0  0  0  0  0  0  0  0  0  0
   28.0590  -20.3311  -12.8933 C   0  0  0  0  0  0  0  0  0  0  0  0
   28.0464  -20.8008  -11.6477 N   0  0  0  0  0  0  0  0  0  0  0  0
   26.7886  -20.6712  -11.1966 C   0  0  0  0  0  0  0  0  0  0  0  0
   26.2284  -20.9937   -9.9946 C   0  0  0  0  0  0  0  0  0  0  0  0
   24.8913  -20.7588   -9.7716 C   0  0  0  0  0  0  0  0  0  0  0  0
   24.1169  -20.1999  -10.7558 C   0  0  0  0  0  0  0  0  0  0  0  0
   24.6455  -19.8585  -11.9879 C   0  0  0  0  0  0  0  0  0  0  0  0
   25.9889  -20.1103  -12.1704 C   0  0  0  0  0  0  0  0  0  0  0  0
   25.0084  -20.9825  -15.7089 C   0  0  0  0  0  0  0  0  0  0  0  0
   24.2052  -20.4696  -16.5669 O   0  0  0  0  0  0  0  0  0  0  0  0
   24.5189  -22.0607  -14.9358 N   0  0  0  0  0  0  0  0  0  0  0  0
   25.1534  -22.8198  -13.8901 C   0  0  0  0  0  0  0  0  0  0  0  0
   24.5287  -24.1900  -14.0188 C   0  0  0  0  0  0  0  0  0  0  0  0
   23.4923  -24.0980  -15.0866 C   0  0  0  0  0  0  0  0  0  0  0  0
   23.1922  -22.6127  -15.0769 C   0  0  1  0  0  0  0  0  0  0  0  0
   22.3732  -22.1857  -13.9261 C   0  0  0  0  0  0  0  0  0  0  0  0
   22.8869  -22.1115  -12.7996 O   0  0  0  0  0  0  0  0  0  0  0  0
   21.0482  -16.5212  -17.3030 O   0  0  0  0  0  0  0  0  0  0  0  0
   21.0171  -17.3449  -16.1866 C   0  0  0  0  0  0  0  0  0  0  0  0
   22.1118  -18.0702  -15.7522 C   0  0  0  0  0  0  0  0  0  0  0  0
   22.0445  -18.8786  -14.6384 C   0  0  0  0  0  0  0  0  0  0  0  0
   20.8796  -18.9970  -13.9110 C   0  0  0  0  0  0  0  0  0  0  0  0
   20.8775  -19.8841  -12.7338 C   0  0  0  0  0  0  0  0  0  0  0  0
   20.2140  -21.2279  -12.9921 C   0  0  2  0  0  0  0  0  0  0  0  0
   20.9946  -21.8471  -14.0431 N   0  0  0  0  0  0  0  0  0  0  0  0
   18.8276  -21.0691  -13.5006 C   0  0  0  0  0  0  0  0  0  0  0  0
   18.5160  -21.3466  -14.7089 O   0  0  0  0  0  0  0  0  0  0  0  0
   19.7777  -18.2863  -14.3224 C   0  0  0  0  0  0  0  0  0  0  0  0
   19.8693  -17.4916  -15.4295 C   0  0  0  0  0  0  0  0  0  0  0  0
   17.7684  -20.6142  -12.7215 O   0  0  0  0  0  0  0  0  0  0  0  0
  2  1  1  6
  2 13  1  0
  2  3  1  0
  4  3  1  0
  4  5  2  0
  6  5  1  0
  7  6  1  0
  8  7  2  0
  9  8  1  0
 10  9  2  0
 10 11  1  0
 11 12  2  0
 12  7  1  0
 12  4  1  0
 13 14  2  0
 15 13  1  0
 15 16  1  0
 17 16  1  0
 18 19  1  0
 18 17  1  0
 19 15  1  0
 19 20  1  1
 21 20  2  0
 22 23  1  0
 23 24  2  0
 24 25  1  0
 26 27  1  0
 26 25  2  0
 28 27  1  6
 28 29  1  0
 29 20  1  0
 30 28  1  0
 31 30  2  0
 32 26  1  0
 33 32  2  0
 33 23  1  0
 34 30  1  0
M  END
$$$$
