WPY.pdb
     RDKit          3D

 34 37  0  0  1  0  0  0  0  0999 V2000
   23.3574  -21.1433  -16.5495 N   0  0  0  0  0  0  0  0  0  0  0  0
   23.8216  -20.2201  -15.5755 C   0  0  1  0  0  0  0  0  0  0  0  0
   22.6398  -19.8161  -14.7194 C   0  0  0  0  0  0  0  0  0  0  0  0
   21.8891  -18.6882  -15.3198 C   0  0  0  0  0  0  0  0  0  0  0  0
   20.5800  -18.7327  -15.7496 C   0  0  0  0  0  0  0  0  0  0  0  0
   20.2015  -17.5547  -16.2408 N   0  0  0  0  0  0  0  0  0  0  0  0
   21.2579  -16.7328  -16.1361 C   0  0  0  0  0  0  0  0  0  0  0  0
   21.4145  -15.4233  -16.4868 C   0  0  0  0  0  0  0  0  0  0  0  0
   22.6180  -14.7914  -16.2740 C   0  0  0  0  0  0  0  0  0  0  0  0
   23.6641  -15.4749  -15.7090 C   0  0  0  0  0  0  0  0  0  0  0  0
   23.5470  -16.8029  -15.3392 C   0  0  0  0  0  0  0  0  0  0  0  0
   22.3248  -17.3985  -15.5695 C   0  0  0  0  0  0  0  0  0  0  0  0
   24.9902  -20.6110  -14.7936 C   0  0  0  0  0  0  0  0  0  0  0  0
   25.2070  -21.8730  -14.7238 O   0  0  0  0  0  0  0  0  0  0  0  0
   25.8971  -19.7654  -14.1139 N   0  0  0  0  0  0  0  0  0  0  0  0
   25.9911  -18.3291  -14.0897 C   0  0  0  0  0  0  0  0  0  0  0  0
   27.4689  -18.0745  -13.9015 C   0  0  0  0  0  0  0  0  0  0  0  0
   28.1224  -19.4040  -13.7332 C   0  0  0  0  0  0  0  0  0  0  0  0
   26.9557  -20.2461  -13.2578 C   0  0  1  0  0  0  0  0  0  0  0  0
   26.5835  -19.9950  -11.8522 C   0  0  0  0  0  0  0  0  0  0  0  0
   25.6945  -19.1710  -11.5893 O   0  0  0  0  0  0  0  0  0  0  0  0
   28.2753  -18.0193   -4.6876 O   0  0  0  0  0  0  0  0  0  0  0  0
   28.0972  -18.9744   -5.6784 C   0  0  0  0  0  0  0  0  0  0  0  0
   28.4174  -20.3091   -5.5076 C   0  0  0  0  0  0  0  0  0  0  0  0
   28.2270  -21.2304   -6.5143 C   0  0  0  0  0  0  0  0  0  0  0  0
   27.7082  -20.8568   -7.7356 C   0  0  0  0  0  0  0  0  0  0  0  0
   27.5365  -21.8938   -8.7690 C   0  0  0  0  0  0  0  0  0  0  0  0
   26.5079  -21.5266   -9.8272 C   0  0  2  0  0  0  0  0  0  0  0  0
   27.2044  -20.6630  -10.7580 N   0  0  0  0  0  0  0  0  0  0  0  0
   25.3811  -20.7476   -9.2533 C   0  0  0  0  0  0  0  0  0  0  0  0
   24.4954  -21.2908   -8.5086 O   0  0  0  0  0  0  0  0  0  0  0  0
   27.3821  -19.5362   -7.9302 C   0  0  0  0  0  0  0  0  0  0  0  0
   27.5800  -18.6418   -6.9171 C   0  0  0  0  0  0  0  0  0  0  0  0
   25.1956  -19.3861   -9.4713 O   0  0  0  0  0  0  0  0  0  0  0  0
  2  1  1  1
  2 13  1  0
  2  3  1  0
  4  3  1  0
  4  5  2  0
  6  5  1  0
  7  6  1  0
  8  7  2  0
  9  8  1  0
 10  9  2  0
 10 11  1  0
 11 12  2  0
 12  7  1  0
 12  4  1  0
 13 14  2  0
 15 13  1  0
 15 16  1  0
 17 16  1  0
 18 19  1  0
 18 17  1  0
 19 15  1  0
 19 20  1  1
 21 20  2  0
 22 23  1  0
 23 24  2  0
 24 25  1  0
 26 27  1  0
 26 25  2  0
 28 27  1  1
 28 29  1  0
 29 20  1  0
 30 28  1  0
 31 30  2  0
 32 26  1  0
 33 32  2  0
 33 23  1  0
 34 30  1  0
M  END
$$$$
