WPY.pdb
     RDKit          3D

 34 37  0  0  1  0  0  0  0  0999 V2000
   25.5729  -22.5196  -17.3046 N   0  0  0  0  0  0  0  0  0  0  0  0
   25.3634  -21.5541  -16.2847 C   0  0  1  0  0  0  0  0  0  0  0  0
   23.9064  -21.6189  -15.8772 C   0  0  0  0  0  0  0  0  0  0  0  0
   23.0862  -20.6326  -16.6192 C   0  0  0  0  0  0  0  0  0  0  0  0
   22.5220  -20.8294  -17.8616 C   0  0  0  0  0  0  0  0  0  0  0  0
   21.8467  -19.7507  -18.2524 N   0  0  0  0  0  0  0  0  0  0  0  0
   21.9640  -18.8424  -17.2707 C   0  0  0  0  0  0  0  0  0  0  0  0
   21.4708  -17.5751  -17.1569 C   0  0  0  0  0  0  0  0  0  0  0  0
   21.7355  -16.8305  -16.0306 C   0  0  0  0  0  0  0  0  0  0  0  0
   22.4955  -17.3589  -15.0188 C   0  0  0  0  0  0  0  0  0  0  0  0
   23.0144  -18.6392  -15.0946 C   0  0  0  0  0  0  0  0  0  0  0  0
   22.7257  -19.3514  -16.2395 C   0  0  0  0  0  0  0  0  0  0  0  0
   26.2791  -21.5786  -15.1486 C   0  0  0  0  0  0  0  0  0  0  0  0
   26.7225  -22.7378  -14.8258 O   0  0  0  0  0  0  0  0  0  0  0  0
   26.7254  -20.4824  -14.3748 N   0  0  0  0  0  0  0  0  0  0  0  0
   26.4883  -19.0717  -14.5357 C   0  0  0  0  0  0  0  0  0  0  0  0
   27.7438  -18.4367  -13.9836 C   0  0  0  0  0  0  0  0  0  0  0  0
   28.5910  -19.5404  -13.4479 C   0  0  0  0  0  0  0  0  0  0  0  0
   27.5509  -20.6136  -13.1975 C   0  0  1  0  0  0  0  0  0  0  0  0
   26.7218  -20.3617  -12.0032 C   0  0  0  0  0  0  0  0  0  0  0  0
   25.7318  -19.6194  -12.0873 O   0  0  0  0  0  0  0  0  0  0  0  0
   29.6339  -18.2253   -5.5642 O   0  0  0  0  0  0  0  0  0  0  0  0
   28.9226  -19.1486   -6.3174 C   0  0  0  0  0  0  0  0  0  0  0  0
   27.5525  -19.0835   -6.4952 C   0  0  0  0  0  0  0  0  0  0  0  0
   26.8786  -20.0185   -7.2504 C   0  0  0  0  0  0  0  0  0  0  0  0
   27.5458  -21.0592   -7.8603 C   0  0  0  0  0  0  0  0  0  0  0  0
   26.7609  -22.0262   -8.6488 C   0  0  0  0  0  0  0  0  0  0  0  0
   25.9942  -21.3879   -9.7965 C   0  0  2  0  0  0  0  0  0  0  0  0
   27.0044  -20.9384  -10.7317 N   0  0  0  0  0  0  0  0  0  0  0  0
   25.2331  -20.1921   -9.3529 C   0  0  0  0  0  0  0  0  0  0  0  0
   24.0845  -20.2900   -8.8004 O   0  0  0  0  0  0  0  0  0  0  0  0
   28.9076  -21.1458   -7.6987 C   0  0  0  0  0  0  0  0  0  0  0  0
   29.5531  -20.2070   -6.9455 C   0  0  0  0  0  0  0  0  0  0  0  0
   25.6951  -18.8876   -9.4964 O   0  0  0  0  0  0  0  0  0  0  0  0
  2  1  1  6
  2 13  1  0
  2  3  1  0
  4  3  1  0
  4  5  2  0
  6  5  1  0
  7  6  1  0
  8  7  2  0
  9  8  1  0
 10  9  2  0
 10 11  1  0
 11 12  2  0
 12  7  1  0
 12  4  1  0
 13 14  2  0
 15 13  1  0
 15 16  1  0
 17 16  1  0
 18 19  1  0
 18 17  1  0
 19 15  1  0
 19 20  1  1
 21 20  2  0
 22 23  1  0
 23 24  2  0
 24 25  1  0
 26 27  1  0
 26 25  2  0
 28 27  1  1
 28 29  1  0
 29 20  1  0
 30 28  1  0
 31 30  2  0
 32 26  1  0
 33 32  2  0
 33 23  1  0
 34 30  1  0
M  END
$$$$
