WPY.pdb
     RDKit          3D

 34 37  0  0  1  0  0  0  0  0999 V2000
   26.2061  -21.0555  -17.1160 N   0  0  0  0  0  0  0  0  0  0  0  0
   26.4731  -20.3136  -15.9351 C   0  0  1  0  0  0  0  0  0  0  0  0
   25.5101  -19.1458  -15.8935 C   0  0  0  0  0  0  0  0  0  0  0  0
   25.5925  -18.3244  -17.1242 C   0  0  0  0  0  0  0  0  0  0  0  0
   24.6028  -18.2018  -18.0760 C   0  0  0  0  0  0  0  0  0  0  0  0
   24.9881  -17.3915  -19.0595 N   0  0  0  0  0  0  0  0  0  0  0  0
   26.2299  -16.9791  -18.7589 C   0  0  0  0  0  0  0  0  0  0  0  0
   27.0837  -16.1453  -19.4210 C   0  0  0  0  0  0  0  0  0  0  0  0
   28.3266  -15.8736  -18.8976 C   0  0  0  0  0  0  0  0  0  0  0  0
   28.7121  -16.4394  -17.7093 C   0  0  0  0  0  0  0  0  0  0  0  0
   27.8770  -17.2898  -17.0067 C   0  0  0  0  0  0  0  0  0  0  0  0
   26.6407  -17.5357  -17.5656 C   0  0  0  0  0  0  0  0  0  0  0  0
   26.5275  -21.0581  -14.6811 C   0  0  0  0  0  0  0  0  0  0  0  0
   25.9796  -22.2173  -14.7065 O   0  0  0  0  0  0  0  0  0  0  0  0
   27.1084  -20.6495  -13.4582 N   0  0  0  0  0  0  0  0  0  0  0  0
   27.8400  -19.4543  -13.1288 C   0  0  0  0  0  0  0  0  0  0  0  0
   28.8004  -19.9121  -12.0553 C   0  0  0  0  0  0  0  0  0  0  0  0
   28.4857  -21.3411  -11.7695 C   0  0  0  0  0  0  0  0  0  0  0  0
   27.0484  -21.4251  -12.2419 C   0  0  1  0  0  0  0  0  0  0  0  0
   26.0879  -20.7907  -11.3187 C   0  0  0  0  0  0  0  0  0  0  0  0
   26.4062  -19.7538  -10.7173 O   0  0  0  0  0  0  0  0  0  0  0  0
   21.4634  -20.3841  -16.3010 O   0  0  0  0  0  0  0  0  0  0  0  0
   21.9629  -20.1394  -15.0297 C   0  0  0  0  0  0  0  0  0  0  0  0
   22.4657  -21.1344  -14.2110 C   0  0  0  0  0  0  0  0  0  0  0  0
   22.9540  -20.8545  -12.9533 C   0  0  0  0  0  0  0  0  0  0  0  0
   22.9604  -19.5674  -12.4597 C   0  0  0  0  0  0  0  0  0  0  0  0
   23.4925  -19.3413  -11.1038 C   0  0  0  0  0  0  0  0  0  0  0  0
   23.7517  -20.6276  -10.3350 C   0  0  2  0  0  0  0  0  0  0  0  0
   24.7868  -21.3175  -11.0765 N   0  0  0  0  0  0  0  0  0  0  0  0
   22.5555  -21.5076  -10.3145 C   0  0  0  0  0  0  0  0  0  0  0  0
   21.4760  -21.1654   -9.7215 O   0  0  0  0  0  0  0  0  0  0  0  0
   22.4661  -18.5609  -13.2540 C   0  0  0  0  0  0  0  0  0  0  0  0
   21.9877  -18.8634  -14.4970 C   0  0  0  0  0  0  0  0  0  0  0  0
   22.5064  -22.7557  -10.9273 O   0  0  0  0  0  0  0  0  0  0  0  0
  2  1  1  6
  2 13  1  0
  2  3  1  0
  4  3  1  0
  4  5  2  0
  6  5  1  0
  7  6  1  0
  8  7  2  0
  9  8  1  0
 10  9  2  0
 10 11  1  0
 11 12  2  0
 12  7  1  0
 12  4  1  0
 13 14  2  0
 15 13  1  0
 15 16  1  0
 17 16  1  0
 18 19  1  0
 18 17  1  0
 19 15  1  0
 19 20  1  1
 21 20  2  0
 22 23  1  0
 23 24  2  0
 24 25  1  0
 26 27  1  0
 26 25  2  0
 28 27  1  6
 28 29  1  0
 29 20  1  0
 30 28  1  0
 31 30  2  0
 32 26  1  0
 33 32  2  0
 33 23  1  0
 34 30  1  0
M  END
$$$$
