WPY.pdb
     RDKit          3D

 34 37  0  0  1  0  0  0  0  0999 V2000
   23.4171  -21.2808  -17.0389 N   0  0  0  0  0  0  0  0  0  0  0  0
   24.0494  -20.2366  -16.3135 C   0  0  1  0  0  0  0  0  0  0  0  0
   22.9741  -19.4695  -15.5729 C   0  0  0  0  0  0  0  0  0  0  0  0
   22.0644  -18.7637  -16.5058 C   0  0  0  0  0  0  0  0  0  0  0  0
   20.7956  -19.1741  -16.8554 C   0  0  0  0  0  0  0  0  0  0  0  0
   20.2407  -18.3214  -17.7141 N   0  0  0  0  0  0  0  0  0  0  0  0
   21.1405  -17.3492  -17.9320 C   0  0  0  0  0  0  0  0  0  0  0  0
   21.0864  -16.2364  -18.7202 C   0  0  0  0  0  0  0  0  0  0  0  0
   22.1594  -15.3771  -18.7750 C   0  0  0  0  0  0  0  0  0  0  0  0
   23.2868  -15.6356  -18.0383 C   0  0  0  0  0  0  0  0  0  0  0  0
   23.3824  -16.7522  -17.2270 C   0  0  0  0  0  0  0  0  0  0  0  0
   22.2854  -17.5872  -17.2005 C   0  0  0  0  0  0  0  0  0  0  0  0
   25.1784  -20.6059  -15.4658 C   0  0  0  0  0  0  0  0  0  0  0  0
   25.1570  -21.8062  -15.0150 O   0  0  0  0  0  0  0  0  0  0  0  0
   26.2777  -19.7991  -15.0911 N   0  0  0  0  0  0  0  0  0  0  0  0
   26.6685  -18.4898  -15.5442 C   0  0  0  0  0  0  0  0  0  0  0  0
   28.1753  -18.5102  -15.4273 C   0  0  0  0  0  0  0  0  0  0  0  0
   28.5473  -19.8182  -14.8162 C   0  0  0  0  0  0  0  0  0  0  0  0
   27.2601  -20.1873  -14.1068 C   0  0  1  0  0  0  0  0  0  0  0  0
   27.0277  -19.4155  -12.8709 C   0  0  0  0  0  0  0  0  0  0  0  0
   26.6382  -18.2403  -12.9439 O   0  0  0  0  0  0  0  0  0  0  0  0
   19.8574  -19.1218  -11.1429 O   0  0  0  0  0  0  0  0  0  0  0  0
   21.1608  -19.5963  -11.1845 C   0  0  0  0  0  0  0  0  0  0  0  0
   22.0981  -19.1511  -12.0989 C   0  0  0  0  0  0  0  0  0  0  0  0
   23.3843  -19.6450  -12.1109 C   0  0  0  0  0  0  0  0  0  0  0  0
   23.7889  -20.6059  -11.2091 C   0  0  0  0  0  0  0  0  0  0  0  0
   25.1781  -21.0932  -11.2828 C   0  0  0  0  0  0  0  0  0  0  0  0
   26.1775  -20.1725  -10.6001 C   0  0  2  0  0  0  0  0  0  0  0  0
   27.2312  -19.9605  -11.5707 N   0  0  0  0  0  0  0  0  0  0  0  0
   26.7908  -20.8121   -9.4082 C   0  0  0  0  0  0  0  0  0  0  0  0
   27.5864  -21.8074   -9.5107 O   0  0  0  0  0  0  0  0  0  0  0  0
   22.8759  -21.0647  -10.2902 C   0  0  0  0  0  0  0  0  0  0  0  0
   21.6069  -20.5596  -10.2982 C   0  0  0  0  0  0  0  0  0  0  0  0
   26.5580  -20.3916   -8.1025 O   0  0  0  0  0  0  0  0  0  0  0  0
  2  1  1  1
  2 13  1  0
  2  3  1  0
  4  3  1  0
  4  5  2  0
  6  5  1  0
  7  6  1  0
  8  7  2  0
  9  8  1  0
 10  9  2  0
 10 11  1  0
 11 12  2  0
 12  7  1  0
 12  4  1  0
 13 14  2  0
 15 13  1  0
 15 16  1  0
 17 16  1  0
 18 19  1  0
 18 17  1  0
 19 15  1  0
 19 20  1  1
 21 20  2  0
 22 23  1  0
 23 24  2  0
 24 25  1  0
 26 27  1  0
 26 25  2  0
 28 27  1  6
 28 29  1  0
 29 20  1  0
 30 28  1  0
 31 30  2  0
 32 26  1  0
 33 32  2  0
 33 23  1  0
 34 30  1  0
M  END
$$$$
