WPY.pdb
     RDKit          3D

 34 37  0  0  1  0  0  0  0  0999 V2000
   26.4825  -18.7363   -9.6026 N   0  0  0  0  0  0  0  0  0  0  0  0
   27.1270  -19.7191  -10.3996 C   0  0  1  0  0  0  0  0  0  0  0  0
   27.1150  -21.0221   -9.6284 C   0  0  0  0  0  0  0  0  0  0  0  0
   26.5635  -20.8457   -8.2642 C   0  0  0  0  0  0  0  0  0  0  0  0
   25.2305  -20.9204   -7.9207 C   0  0  0  0  0  0  0  0  0  0  0  0
   25.0644  -20.7144   -6.6160 N   0  0  0  0  0  0  0  0  0  0  0  0
   26.2849  -20.5038   -6.0977 C   0  0  0  0  0  0  0  0  0  0  0  0
   26.6845  -20.2453   -4.8187 C   0  0  0  0  0  0  0  0  0  0  0  0
   28.0186  -20.0634   -4.5363 C   0  0  0  0  0  0  0  0  0  0  0  0
   28.9514  -20.1412   -5.5386 C   0  0  0  0  0  0  0  0  0  0  0  0
   28.5884  -20.4012   -6.8481 C   0  0  0  0  0  0  0  0  0  0  0  0
   27.2420  -20.5772   -7.0882 C   0  0  0  0  0  0  0  0  0  0  0  0
   26.6676  -19.8628  -11.7772 C   0  0  0  0  0  0  0  0  0  0  0  0
   25.4993  -19.3921  -12.0184 O   0  0  0  0  0  0  0  0  0  0  0  0
   27.3570  -20.4551  -12.8605 N   0  0  0  0  0  0  0  0  0  0  0  0
   28.6019  -21.1776  -12.8882 C   0  0  0  0  0  0  0  0  0  0  0  0
   29.1618  -20.8652  -14.2569 C   0  0  0  0  0  0  0  0  0  0  0  0
   28.1392  -20.0472  -14.9698 C   0  0  0  0  0  0  0  0  0  0  0  0
   26.8795  -20.4364  -14.2230 C   0  0  1  0  0  0  0  0  0  0  0  0
   26.3806  -21.7805  -14.5719 C   0  0  0  0  0  0  0  0  0  0  0  0
   27.1688  -22.7372  -14.6140 O   0  0  0  0  0  0  0  0  0  0  0  0
   21.1748  -20.0877  -10.1619 O   0  0  0  0  0  0  0  0  0  0  0  0
   21.9770  -20.9431  -10.9039 C   0  0  0  0  0  0  0  0  0  0  0  0
   23.2945  -20.6616  -11.2171 C   0  0  0  0  0  0  0  0  0  0  0  0
   24.0619  -21.5350  -11.9565 C   0  0  0  0  0  0  0  0  0  0  0  0
   23.5449  -22.7279  -12.4149 C   0  0  0  0  0  0  0  0  0  0  0  0
   24.4208  -23.6118  -13.2050 C   0  0  0  0  0  0  0  0  0  0  0  0
   24.3724  -23.3308  -14.6987 C   0  0  2  0  0  0  0  0  0  0  0  0
   25.0125  -22.0430  -14.8693 N   0  0  0  0  0  0  0  0  0  0  0  0
   22.9768  -23.2040  -15.1905 C   0  0  0  0  0  0  0  0  0  0  0  0
   22.1717  -24.1970  -15.1997 O   0  0  0  0  0  0  0  0  0  0  0  0
   22.2380  -23.0306  -12.1170 C   0  0  0  0  0  0  0  0  0  0  0  0
   21.4977  -22.1487  -11.3824 C   0  0  0  0  0  0  0  0  0  0  0  0
   22.4347  -22.0172  -15.6737 O   0  0  0  0  0  0  0  0  0  0  0  0
  2  1  1  1
  2 13  1  0
  2  3  1  0
  4  3  1  0
  4  5  2  0
  6  5  1  0
  7  6  1  0
  8  7  2  0
  9  8  1  0
 10  9  2  0
 10 11  1  0
 11 12  2  0
 12  7  1  0
 12  4  1  0
 13 14  2  0
 15 13  1  0
 15 16  1  0
 17 16  1  0
 18 19  1  0
 18 17  1  0
 19 15  1  0
 19 20  1  6
 21 20  2  0
 22 23  1  0
 23 24  2  0
 24 25  1  0
 26 27  1  0
 26 25  2  0
 28 27  1  1
 28 29  1  0
 29 20  1  0
 30 28  1  0
 31 30  2  0
 32 26  1  0
 33 32  2  0
 33 23  1  0
 34 30  1  0
M  END
$$$$
