WPY.pdb
     RDKit          3D

 34 37  0  0  1  0  0  0  0  0999 V2000
   23.8836  -20.2955  -11.7766 N   0  0  0  0  0  0  0  0  0  0  0  0
   25.2684  -20.2174  -12.0809 C   0  0  1  0  0  0  0  0  0  0  0  0
   25.9782  -21.2971  -11.2914 C   0  0  0  0  0  0  0  0  0  0  0  0
   26.1611  -20.9075   -9.8733 C   0  0  0  0  0  0  0  0  0  0  0  0
   25.1761  -20.4210   -9.0404 C   0  0  0  0  0  0  0  0  0  0  0  0
   25.6635  -20.1647   -7.8283 N   0  0  0  0  0  0  0  0  0  0  0  0
   26.9679  -20.4809   -7.8595 C   0  0  0  0  0  0  0  0  0  0  0  0
   27.9315  -20.4121   -6.8955 C   0  0  0  0  0  0  0  0  0  0  0  0
   29.2201  -20.8016   -7.1792 C   0  0  0  0  0  0  0  0  0  0  0  0
   29.5409  -21.2602   -8.4312 C   0  0  0  0  0  0  0  0  0  0  0  0
   28.5943  -21.3456   -9.4366 C   0  0  0  0  0  0  0  0  0  0  0  0
   27.3155  -20.9456   -9.1108 C   0  0  0  0  0  0  0  0  0  0  0  0
   25.6384  -20.2011  -13.4925 C   0  0  0  0  0  0  0  0  0  0  0  0
   24.6638  -20.0596  -14.3139 O   0  0  0  0  0  0  0  0  0  0  0  0
   26.9332  -20.3225  -14.0478 N   0  0  0  0  0  0  0  0  0  0  0  0
   28.1934  -20.6136  -13.4157 C   0  0  0  0  0  0  0  0  0  0  0  0
   29.1968  -19.8733  -14.2699 C   0  0  0  0  0  0  0  0  0  0  0  0
   28.4426  -19.2744  -15.4081 C   0  0  0  0  0  0  0  0  0  0  0  0
   27.2213  -20.1703  -15.4544 C   0  0  1  0  0  0  0  0  0  0  0  0
   27.4896  -21.5009  -16.0329 C   0  0  0  0  0  0  0  0  0  0  0  0
   28.5614  -22.0741  -15.7860 O   0  0  0  0  0  0  0  0  0  0  0  0
   21.4956  -23.3828  -13.2471 O   0  0  0  0  0  0  0  0  0  0  0  0
   22.7143  -23.6069  -13.8718 C   0  0  0  0  0  0  0  0  0  0  0  0
   23.9166  -23.6497  -13.1893 C   0  0  0  0  0  0  0  0  0  0  0  0
   25.1085  -23.8748  -13.8429 C   0  0  0  0  0  0  0  0  0  0  0  0
   25.1499  -24.0666  -15.2073 C   0  0  0  0  0  0  0  0  0  0  0  0
   26.4604  -24.2967  -15.8416 C   0  0  0  0  0  0  0  0  0  0  0  0
   26.6150  -23.5916  -17.1801 C   0  0  2  0  0  0  0  0  0  0  0  0
   26.5630  -22.1762  -16.8782 N   0  0  0  0  0  0  0  0  0  0  0  0
   25.4855  -23.8943  -18.0959 C   0  0  0  0  0  0  0  0  0  0  0  0
   25.2985  -25.0655  -18.5726 O   0  0  0  0  0  0  0  0  0  0  0  0
   23.9685  -24.0286  -15.9082 C   0  0  0  0  0  0  0  0  0  0  0  0
   22.7998  -23.8040  -15.2379 C   0  0  0  0  0  0  0  0  0  0  0  0
   24.5511  -22.9485  -18.5058 O   0  0  0  0  0  0  0  0  0  0  0  0
  2  1  1  6
  2 13  1  0
  2  3  1  0
  4  3  1  0
  4  5  2  0
  6  5  1  0
  7  6  1  0
  8  7  2  0
  9  8  1  0
 10  9  2  0
 10 11  1  0
 11 12  2  0
 12  7  1  0
 12  4  1  0
 13 14  2  0
 15 13  1  0
 15 16  1  0
 17 16  1  0
 18 19  1  0
 18 17  1  0
 19 15  1  0
 19 20  1  1
 21 20  2  0
 22 23  1  0
 23 24  2  0
 24 25  1  0
 26 27  1  0
 26 25  2  0
 28 27  1  1
 28 29  1  0
 29 20  1  0
 30 28  1  0
 31 30  2  0
 32 26  1  0
 33 32  2  0
 33 23  1  0
 34 30  1  0
M  END
$$$$
