WPY.pdb
     RDKit          3D

 34 37  0  0  1  0  0  0  0  0999 V2000
   24.2662  -20.4345  -18.8374 N   0  0  0  0  0  0  0  0  0  0  0  0
   25.1083  -19.5012  -18.1769 C   0  0  1  0  0  0  0  0  0  0  0  0
   24.3041  -18.2412  -17.9353 C   0  0  0  0  0  0  0  0  0  0  0  0
   23.2039  -18.4709  -16.9694 C   0  0  0  0  0  0  0  0  0  0  0  0
   22.8360  -19.6922  -16.4464 C   0  0  0  0  0  0  0  0  0  0  0  0
   21.8103  -19.5599  -15.6081 N   0  0  0  0  0  0  0  0  0  0  0  0
   21.5004  -18.2539  -15.5767 C   0  0  0  0  0  0  0  0  0  0  0  0
   20.5374  -17.5762  -14.8870 C   0  0  0  0  0  0  0  0  0  0  0  0
   20.4193  -16.2127  -15.0270 C   0  0  0  0  0  0  0  0  0  0  0  0
   21.2684  -15.5299  -15.8597 C   0  0  0  0  0  0  0  0  0  0  0  0
   22.2578  -16.1788  -16.5767 C   0  0  0  0  0  0  0  0  0  0  0  0
   22.3422  -17.5447  -16.4080 C   0  0  0  0  0  0  0  0  0  0  0  0
   25.8141  -19.9688  -16.9883 C   0  0  0  0  0  0  0  0  0  0  0  0
   25.4656  -21.1272  -16.5629 O   0  0  0  0  0  0  0  0  0  0  0  0
   26.8251  -19.2963  -16.2633 N   0  0  0  0  0  0  0  0  0  0  0  0
   27.3356  -17.9574  -16.4017 C   0  0  0  0  0  0  0  0  0  0  0  0
   28.7804  -18.0841  -15.9764 C   0  0  0  0  0  0  0  0  0  0  0  0
   28.9803  -19.4911  -15.5255 C   0  0  0  0  0  0  0  0  0  0  0  0
   27.5617  -19.8904  -15.1729 C   0  0  1  0  0  0  0  0  0  0  0  0
   27.0855  -19.3090  -13.9031 C   0  0  0  0  0  0  0  0  0  0  0  0
   26.6717  -18.1401  -13.8789 O   0  0  0  0  0  0  0  0  0  0  0  0
   20.1195  -21.2388   -9.4057 O   0  0  0  0  0  0  0  0  0  0  0  0
   21.2625  -21.0696  -10.1743 C   0  0  0  0  0  0  0  0  0  0  0  0
   22.2499  -20.1508   -9.8678 C   0  0  0  0  0  0  0  0  0  0  0  0
   23.3724  -20.0100  -10.6544 C   0  0  0  0  0  0  0  0  0  0  0  0
   23.5561  -20.7819  -11.7817 C   0  0  0  0  0  0  0  0  0  0  0  0
   24.7778  -20.5743  -12.5798 C   0  0  0  0  0  0  0  0  0  0  0  0
   25.9562  -20.0725  -11.7597 C   0  0  2  0  0  0  0  0  0  0  0  0
   27.0758  -20.0348  -12.6774 N   0  0  0  0  0  0  0  0  0  0  0  0
   26.3071  -21.0141  -10.6661 C   0  0  0  0  0  0  0  0  0  0  0  0
   26.3739  -20.6371   -9.4464 O   0  0  0  0  0  0  0  0  0  0  0  0
   22.5891  -21.7022  -12.1076 C   0  0  0  0  0  0  0  0  0  0  0  0
   21.4854  -21.8232  -11.3122 C   0  0  0  0  0  0  0  0  0  0  0  0
   26.5873  -22.3616  -10.8697 O   0  0  0  0  0  0  0  0  0  0  0  0
  2  1  1  1
  2 13  1  0
  2  3  1  0
  4  3  1  0
  4  5  2  0
  6  5  1  0
  7  6  1  0
  8  7  2  0
  9  8  1  0
 10  9  2  0
 10 11  1  0
 11 12  2  0
 12  7  1  0
 12  4  1  0
 13 14  2  0
 15 13  1  0
 15 16  1  0
 17 16  1  0
 18 19  1  0
 18 17  1  0
 19 15  1  0
 19 20  1  1
 21 20  2  0
 22 23  1  0
 23 24  2  0
 24 25  1  0
 26 27  1  0
 26 25  2  0
 28 27  1  6
 28 29  1  0
 29 20  1  0
 30 28  1  0
 31 30  2  0
 32 26  1  0
 33 32  2  0
 33 23  1  0
 34 30  1  0
M  END
$$$$
