WPY.pdb
     RDKit          3D

 34 37  0  0  1  0  0  0  0  0999 V2000
   26.2764  -20.0072  -17.4184 N   0  0  0  0  0  0  0  0  0  0  0  0
   25.9114  -19.5563  -16.1223 C   0  0  1  0  0  0  0  0  0  0  0  0
   24.9181  -18.4255  -16.2875 C   0  0  0  0  0  0  0  0  0  0  0  0
   25.5215  -17.2641  -16.9827 C   0  0  0  0  0  0  0  0  0  0  0  0
   25.2984  -16.9091  -18.2959 C   0  0  0  0  0  0  0  0  0  0  0  0
   25.9902  -15.8178  -18.6166 N   0  0  0  0  0  0  0  0  0  0  0  0
   26.6695  -15.4519  -17.5178 C   0  0  0  0  0  0  0  0  0  0  0  0
   27.5247  -14.4117  -17.2962 C   0  0  0  0  0  0  0  0  0  0  0  0
   28.1052  -14.2476  -16.0598 C   0  0  0  0  0  0  0  0  0  0  0  0
   27.8268  -15.1282  -15.0460 C   0  0  0  0  0  0  0  0  0  0  0  0
   26.9658  -16.1955  -15.2290 C   0  0  0  0  0  0  0  0  0  0  0  0
   26.4054  -16.3239  -16.4823 C   0  0  0  0  0  0  0  0  0  0  0  0
   25.4756  -20.5682  -15.1653 C   0  0  0  0  0  0  0  0  0  0  0  0
   24.9693  -21.6283  -15.6795 O   0  0  0  0  0  0  0  0  0  0  0  0
   25.5481  -20.5109  -13.7542 N   0  0  0  0  0  0  0  0  0  0  0  0
   26.2971  -19.6310  -12.8957 C   0  0  0  0  0  0  0  0  0  0  0  0
   26.5891  -20.4844  -11.6829 C   0  0  0  0  0  0  0  0  0  0  0  0
   25.8960  -21.7880  -11.8900 C   0  0  0  0  0  0  0  0  0  0  0  0
   24.8155  -21.3923  -12.8761 C   0  0  1  0  0  0  0  0  0  0  0  0
   23.7058  -20.6388  -12.2614 C   0  0  0  0  0  0  0  0  0  0  0  0
   23.7850  -19.4057  -12.1540 O   0  0  0  0  0  0  0  0  0  0  0  0
   20.8330  -16.1562  -16.5462 O   0  0  0  0  0  0  0  0  0  0  0  0
   20.9081  -17.3508  -15.8442 C   0  0  0  0  0  0  0  0  0  0  0  0
   21.7333  -18.3961  -16.2177 C   0  0  0  0  0  0  0  0  0  0  0  0
   21.7822  -19.5689  -15.4962 C   0  0  0  0  0  0  0  0  0  0  0  0
   21.0077  -19.7474  -14.3699 C   0  0  0  0  0  0  0  0  0  0  0  0
   21.1061  -21.0297  -13.6497 C   0  0  0  0  0  0  0  0  0  0  0  0
   21.1792  -20.8693  -12.1392 C   0  0  2  0  0  0  0  0  0  0  0  0
   22.5233  -21.2660  -11.7743 N   0  0  0  0  0  0  0  0  0  0  0  0
   20.2392  -21.7838  -11.4420 C   0  0  0  0  0  0  0  0  0  0  0  0
   20.5137  -23.0179  -11.2532 O   0  0  0  0  0  0  0  0  0  0  0  0
   20.1792  -18.7234  -13.9781 C   0  0  0  0  0  0  0  0  0  0  0  0
   20.1485  -17.5705  -14.7097 C   0  0  0  0  0  0  0  0  0  0  0  0
   19.0033  -21.3846  -10.9430 O   0  0  0  0  0  0  0  0  0  0  0  0
  2  1  1  6
  2 13  1  0
  2  3  1  0
  4  3  1  0
  4  5  2  0
  6  5  1  0
  7  6  1  0
  8  7  2  0
  9  8  1  0
 10  9  2  0
 10 11  1  0
 11 12  2  0
 12  7  1  0
 12  4  1  0
 13 14  2  0
 15 13  1  0
 15 16  1  0
 17 16  1  0
 18 19  1  0
 18 17  1  0
 19 15  1  0
 19 20  1  1
 21 20  2  0
 22 23  1  0
 23 24  2  0
 24 25  1  0
 26 27  1  0
 26 25  2  0
 28 27  1  6
 28 29  1  0
 29 20  1  0
 30 28  1  0
 31 30  2  0
 32 26  1  0
 33 32  2  0
 33 23  1  0
 34 30  1  0
M  END
$$$$
