TWF.pdb
     RDKit          3D

 33 35  0  0  1  0  0  0  0  0999 V2000
   28.8746  -19.6861  -16.3382 C   0  0  0  0  0  0  0  0  0  0  0  0
   28.1875  -19.8175  -15.0218 C   0  0  1  0  0  0  0  0  0  0  0  0
   29.0225  -19.3725  -13.9789 O   0  0  0  0  0  0  0  0  0  0  0  0
   26.8372  -19.1554  -14.9625 C   0  0  2  0  0  0  0  0  0  0  0  0
   27.0062  -17.7877  -15.4126 N   0  0  0  0  0  0  0  0  0  0  0  0
   26.2270  -19.1604  -13.6305 C   0  0  0  0  0  0  0  0  0  0  0  0
   26.1858  -18.0964  -12.9406 O   0  0  0  0  0  0  0  0  0  0  0  0
   25.6530  -20.3084  -13.0219 N   0  0  0  0  0  0  0  0  0  0  0  0
   25.1039  -20.3022  -11.6706 C   0  0  1  0  0  0  0  0  0  0  0  0
   23.8530  -21.1482  -11.6222 C   0  0  0  0  0  0  0  0  0  0  0  0
   22.6724  -20.5606  -12.2542 C   0  0  0  0  0  0  0  0  0  0  0  0
   22.7137  -20.1275  -13.5898 C   0  0  0  0  0  0  0  0  0  0  0  0
   21.4901  -19.6714  -13.8904 N   0  0  0  0  0  0  0  0  0  0  0  0
   20.6582  -19.7803  -12.8354 C   0  0  0  0  0  0  0  0  0  0  0  0
   19.3290  -19.4437  -12.6647 C   0  0  0  0  0  0  0  0  0  0  0  0
   18.7509  -19.6746  -11.4416 C   0  0  0  0  0  0  0  0  0  0  0  0
   19.4577  -20.2267  -10.3954 C   0  0  0  0  0  0  0  0  0  0  0  0
   20.7777  -20.5533  -10.5890 C   0  0  0  0  0  0  0  0  0  0  0  0
   21.4072  -20.3443  -11.7950 C   0  0  0  0  0  0  0  0  0  0  0  0
   26.0592  -20.6600  -10.6267 C   0  0  0  0  0  0  0  0  0  0  0  0
   26.9255  -21.5841  -10.7541 O   0  0  0  0  0  0  0  0  0  0  0  0
   26.1076  -19.9841   -9.3528 N   0  0  0  0  0  0  0  0  0  0  0  0
   26.9509  -20.4750   -8.2645 C   0  0  1  0  0  0  0  0  0  0  0  0
   27.5584  -19.1809   -7.6829 C   0  0  0  0  0  0  0  0  0  0  0  0
   28.3377  -19.3917   -6.4757 C   0  0  0  0  0  0  0  0  0  0  0  0
   29.5802  -19.9707   -6.5492 C   0  0  0  0  0  0  0  0  0  0  0  0
   30.3750  -20.1903   -5.4519 C   0  0  0  0  0  0  0  0  0  0  0  0
   29.8950  -19.8078   -4.2183 C   0  0  0  0  0  0  0  0  0  0  0  0
   28.6486  -19.2256   -4.1346 C   0  0  0  0  0  0  0  0  0  0  0  0
   27.8558  -19.0093   -5.2507 C   0  0  0  0  0  0  0  0  0  0  0  0
   26.1600  -21.0791   -7.1697 C   0  0  0  0  0  0  0  0  0  0  0  0
   26.8723  -21.8492   -6.2290 O   0  0  0  0  0  0  0  0  0  0  0  0
   24.9203  -20.9322   -7.0594 O   0  0  0  0  0  0  0  0  0  0  0  0
  2  3  1  0
  2  1  1  6
  4  2  1  0
  4  5  1  1
  6  4  1  0
  6  7  2  0
  8  6  1  0
  9  8  1  0
  9 10  1  6
 11 10  1  0
 12 11  2  0
 13 14  1  0
 13 12  1  0
 14 19  2  0
 15 14  1  0
 15 16  2  0
 16 17  1  0
 17 18  2  0
 19 11  1  0
 19 18  1  0
 20  9  1  0
 21 20  2  0
 22 20  1  0
 23 31  1  0
 23 22  1  0
 24 25  1  0
 23 24  1  1
 25 26  2  0
 26 27  1  0
 28 27  2  0
 29 28  1  0
 30 25  1  0
 30 29  2  0
 31 32  1  0
 33 31  2  0
M  END
$$$$
