TWF.pdb
     RDKit          3D

 33 35  0  0  1  0  0  0  0  0999 V2000
   25.3770  -19.7418  -15.2502 C   0  0  0  0  0  0  0  0  0  0  0  0
   25.2652  -20.0942  -13.8061 C   0  0  1  0  0  0  0  0  0  0  0  0
   23.9773  -20.5814  -13.5117 O   0  0  0  0  0  0  0  0  0  0  0  0
   26.3320  -21.0365  -13.3172 C   0  0  2  0  0  0  0  0  0  0  0  0
   26.1565  -22.2913  -14.0217 N   0  0  0  0  0  0  0  0  0  0  0  0
   26.3002  -21.2778  -11.8724 C   0  0  0  0  0  0  0  0  0  0  0  0
   25.6298  -22.2454  -11.3991 O   0  0  0  0  0  0  0  0  0  0  0  0
   26.9880  -20.4828  -10.9170 N   0  0  0  0  0  0  0  0  0  0  0  0
   26.7341  -20.5646   -9.4831 C   0  0  1  0  0  0  0  0  0  0  0  0
   27.7730  -19.7644   -8.7324 C   0  0  0  0  0  0  0  0  0  0  0  0
   27.6247  -19.7507   -7.2776 C   0  0  0  0  0  0  0  0  0  0  0  0
   26.5548  -19.0721   -6.6713 C   0  0  0  0  0  0  0  0  0  0  0  0
   26.6693  -19.2637   -5.3500 N   0  0  0  0  0  0  0  0  0  0  0  0
   27.7452  -20.0225   -5.0605 C   0  0  0  0  0  0  0  0  0  0  0  0
   28.2660  -20.4735   -3.8628 C   0  0  0  0  0  0  0  0  0  0  0  0
   29.4047  -21.2389   -3.8952 C   0  0  0  0  0  0  0  0  0  0  0  0
   30.0305  -21.5622   -5.0795 C   0  0  0  0  0  0  0  0  0  0  0  0
   29.4941  -21.1027   -6.2575 C   0  0  0  0  0  0  0  0  0  0  0  0
   28.3537  -20.3325   -6.2834 C   0  0  0  0  0  0  0  0  0  0  0  0
   25.3721  -20.2188   -9.0881 C   0  0  0  0  0  0  0  0  0  0  0  0
   24.8076  -19.1213   -9.4003 O   0  0  0  0  0  0  0  0  0  0  0  0
   24.5403  -21.1042   -8.3096 N   0  0  0  0  0  0  0  0  0  0  0  0
   23.1747  -20.7349   -7.9419 C   0  0  1  0  0  0  0  0  0  0  0  0
   22.4461  -20.6941   -9.3019 C   0  0  0  0  0  0  0  0  0  0  0  0
   21.5311  -21.8027   -9.5088 C   0  0  0  0  0  0  0  0  0  0  0  0
   20.9391  -21.9892  -10.7332 C   0  0  0  0  0  0  0  0  0  0  0  0
   20.0737  -23.0201  -11.0023 C   0  0  0  0  0  0  0  0  0  0  0  0
   19.7899  -23.9081   -9.9878 C   0  0  0  0  0  0  0  0  0  0  0  0
   20.3795  -23.7291   -8.7550 C   0  0  0  0  0  0  0  0  0  0  0  0
   21.2520  -22.6837   -8.4963 C   0  0  0  0  0  0  0  0  0  0  0  0
   22.5008  -21.7895   -7.1527 C   0  0  0  0  0  0  0  0  0  0  0  0
   21.2793  -21.4375   -6.5447 O   0  0  0  0  0  0  0  0  0  0  0  0
   22.9681  -22.9439   -7.0133 O   0  0  0  0  0  0  0  0  0  0  0  0
  2  3  1  0
  2  1  1  6
  4  2  1  0
  4  5  1  6
  6  4  1  0
  6  7  2  0
  8  6  1  0
  9  8  1  0
  9 10  1  1
 11 10  1  0
 12 11  2  0
 13 14  1  0
 13 12  1  0
 14 19  2  0
 15 14  1  0
 15 16  2  0
 16 17  1  0
 17 18  2  0
 19 11  1  0
 19 18  1  0
 20  9  1  0
 21 20  2  0
 22 20  1  0
 23 31  1  0
 23 22  1  0
 24 25  1  0
 23 24  1  6
 25 26  2  0
 26 27  1  0
 28 27  2  0
 29 28  1  0
 30 25  1  0
 30 29  2  0
 31 32  1  0
 33 31  2  0
M  END
$$$$
