TWF.pdb
     RDKit          3D

 33 35  0  0  1  0  0  0  0  0999 V2000
   29.1098  -19.6172  -17.4035 C   0  0  0  0  0  0  0  0  0  0  0  0
   28.2256  -19.8913  -16.2350 C   0  0  1  0  0  0  0  0  0  0  0  0
   26.8726  -19.7169  -16.5840 O   0  0  0  0  0  0  0  0  0  0  0  0
   28.4560  -21.2307  -15.5885 C   0  0  2  0  0  0  0  0  0  0  0  0
   28.1476  -22.2463  -16.5760 N   0  0  0  0  0  0  0  0  0  0  0  0
   27.6534  -21.4592  -14.3843 C   0  0  0  0  0  0  0  0  0  0  0  0
   26.4999  -21.9802  -14.4725 O   0  0  0  0  0  0  0  0  0  0  0  0
   28.0791  -21.1310  -13.0694 N   0  0  0  0  0  0  0  0  0  0  0  0
   27.2189  -21.2609  -11.8987 C   0  0  1  0  0  0  0  0  0  0  0  0
   28.0490  -21.1654  -10.6399 C   0  0  0  0  0  0  0  0  0  0  0  0
   27.3165  -20.7882   -9.4316 C   0  0  0  0  0  0  0  0  0  0  0  0
   25.9121  -20.7708   -9.4195 C   0  0  0  0  0  0  0  0  0  0  0  0
   25.5365  -20.4209   -8.1817 N   0  0  0  0  0  0  0  0  0  0  0  0
   26.6073  -20.2096   -7.3905 C   0  0  0  0  0  0  0  0  0  0  0  0
   26.7210  -19.8337   -6.0658 C   0  0  0  0  0  0  0  0  0  0  0  0
   27.9787  -19.6897   -5.5356 C   0  0  0  0  0  0  0  0  0  0  0  0
   29.1138  -19.9087   -6.2856 C   0  0  0  0  0  0  0  0  0  0  0  0
   28.9757  -20.2819   -7.6002 C   0  0  0  0  0  0  0  0  0  0  0  0
   27.7389  -20.4418   -8.1826 C   0  0  0  0  0  0  0  0  0  0  0  0
   26.0761  -20.3530  -11.8827 C   0  0  0  0  0  0  0  0  0  0  0  0
   26.1863  -19.0849  -11.8993 O   0  0  0  0  0  0  0  0  0  0  0  0
   24.7117  -20.8216  -11.8544 N   0  0  0  0  0  0  0  0  0  0  0  0
   23.5880  -19.8946  -11.9758 C   0  0  1  0  0  0  0  0  0  0  0  0
   23.7048  -19.3935  -13.4309 C   0  0  0  0  0  0  0  0  0  0  0  0
   23.2809  -20.3679  -14.4208 C   0  0  0  0  0  0  0  0  0  0  0  0
   24.1909  -20.8965  -15.3021 C   0  0  0  0  0  0  0  0  0  0  0  0
   23.8629  -21.8280  -16.2554 C   0  0  0  0  0  0  0  0  0  0  0  0
   22.5528  -22.2487  -16.3252 C   0  0  0  0  0  0  0  0  0  0  0  0
   21.6318  -21.7237  -15.4445 C   0  0  0  0  0  0  0  0  0  0  0  0
   21.9761  -20.7834  -14.4861 C   0  0  0  0  0  0  0  0  0  0  0  0
   22.2808  -20.5819  -11.8875 C   0  0  0  0  0  0  0  0  0  0  0  0
   22.3147  -21.9817  -11.7290 O   0  0  0  0  0  0  0  0  0  0  0  0
   21.1845  -19.9779  -11.9484 O   0  0  0  0  0  0  0  0  0  0  0  0
  2  3  1  0
  2  1  1  6
  4  2  1  0
  4  5  1  6
  6  4  1  0
  6  7  2  0
  8  6  1  0
  9  8  1  0
  9 10  1  1
 11 10  1  0
 12 11  2  0
 13 14  1  0
 13 12  1  0
 14 19  2  0
 15 14  1  0
 15 16  2  0
 16 17  1  0
 17 18  2  0
 19 11  1  0
 19 18  1  0
 20  9  1  0
 21 20  2  0
 22 20  1  0
 23 31  1  0
 23 22  1  0
 24 25  1  0
 23 24  1  6
 25 26  2  0
 26 27  1  0
 28 27  2  0
 29 28  1  0
 30 25  1  0
 30 29  2  0
 31 32  1  0
 33 31  2  0
M  END
$$$$
