TWF.pdb
     RDKit          3D

 33 35  0  0  1  0  0  0  0  0999 V2000
   31.9993  -21.2459  -11.7258 C   0  0  0  0  0  0  0  0  0  0  0  0
   31.4051  -22.3735  -12.4990 C   0  0  1  0  0  0  0  0  0  0  0  0
   30.7407  -23.2696  -11.6397 O   0  0  0  0  0  0  0  0  0  0  0  0
   30.5157  -21.9417  -13.6337 C   0  0  2  0  0  0  0  0  0  0  0  0
   31.3522  -21.2647  -14.6052 N   0  0  0  0  0  0  0  0  0  0  0  0
   29.4195  -21.0571  -13.2307 C   0  0  0  0  0  0  0  0  0  0  0  0
   29.6572  -19.8612  -12.8801 O   0  0  0  0  0  0  0  0  0  0  0  0
   28.0535  -21.4455  -13.1990 N   0  0  0  0  0  0  0  0  0  0  0  0
   26.9856  -20.5628  -12.7432 C   0  0  1  0  0  0  0  0  0  0  0  0
   26.0778  -20.2170  -13.9004 C   0  0  0  0  0  0  0  0  0  0  0  0
   26.6956  -19.4370  -14.9721 C   0  0  0  0  0  0  0  0  0  0  0  0
   27.1232  -20.0578  -16.1572 C   0  0  0  0  0  0  0  0  0  0  0  0
   27.6118  -19.0935  -16.9490 N   0  0  0  0  0  0  0  0  0  0  0  0
   27.5290  -17.8872  -16.3532 C   0  0  0  0  0  0  0  0  0  0  0  0
   27.9024  -16.6224  -16.7654 C   0  0  0  0  0  0  0  0  0  0  0  0
   27.6913  -15.5701  -15.9100 C   0  0  0  0  0  0  0  0  0  0  0  0
   27.1233  -15.7458  -14.6669 C   0  0  0  0  0  0  0  0  0  0  0  0
   26.7600  -17.0123  -14.2792 C   0  0  0  0  0  0  0  0  0  0  0  0
   26.9479  -18.1031  -15.0972 C   0  0  0  0  0  0  0  0  0  0  0  0
   26.2476  -21.0532  -11.5833 C   0  0  0  0  0  0  0  0  0  0  0  0
   25.9854  -22.2834  -11.3866 O   0  0  0  0  0  0  0  0  0  0  0  0
   25.7551  -20.1770  -10.5482 N   0  0  0  0  0  0  0  0  0  0  0  0
   24.9768  -20.6929   -9.4236 C   0  0  1  0  0  0  0  0  0  0  0  0
   25.0551  -19.5485   -8.3910 C   0  0  0  0  0  0  0  0  0  0  0  0
   26.3142  -19.4971   -7.6692 C   0  0  0  0  0  0  0  0  0  0  0  0
   26.9303  -18.2916   -7.4420 C   0  0  0  0  0  0  0  0  0  0  0  0
   28.1144  -18.1677   -6.7590 C   0  0  0  0  0  0  0  0  0  0  0  0
   28.7085  -19.3151   -6.2805 C   0  0  0  0  0  0  0  0  0  0  0  0
   28.0973  -20.5301   -6.5036 C   0  0  0  0  0  0  0  0  0  0  0  0
   26.9012  -20.6415   -7.1949 C   0  0  0  0  0  0  0  0  0  0  0  0
   23.5426  -20.8425   -9.7548 C   0  0  0  0  0  0  0  0  0  0  0  0
   22.7421  -21.5040   -8.8024 O   0  0  0  0  0  0  0  0  0  0  0  0
   23.0377  -20.4149  -10.8191 O   0  0  0  0  0  0  0  0  0  0  0  0
  2  3  1  0
  2  1  1  1
  4  2  1  0
  4  5  1  6
  6  4  1  0
  6  7  2  0
  8  6  1  0
  9  8  1  0
  9 10  1  6
 11 10  1  0
 12 11  2  0
 13 14  1  0
 13 12  1  0
 14 19  2  0
 15 14  1  0
 15 16  2  0
 16 17  1  0
 17 18  2  0
 19 11  1  0
 19 18  1  0
 20  9  1  0
 21 20  2  0
 22 20  1  0
 23 31  1  0
 23 22  1  0
 24 25  1  0
 23 24  1  1
 25 26  2  0
 26 27  1  0
 28 27  2  0
 29 28  1  0
 30 25  1  0
 30 29  2  0
 31 32  1  0
 33 31  2  0
M  END
$$$$
