TWF.pdb
     RDKit          3D

 33 35  0  0  1  0  0  0  0  0999 V2000
   26.8574  -24.4518  -16.6059 C   0  0  0  0  0  0  0  0  0  0  0  0
   27.9035  -23.3902  -16.5743 C   0  0  1  0  0  0  0  0  0  0  0  0
   28.5647  -23.3071  -17.8149 O   0  0  0  0  0  0  0  0  0  0  0  0
   27.4013  -22.0428  -16.1302 C   0  0  2  0  0  0  0  0  0  0  0  0
   28.5283  -21.1312  -16.1565 N   0  0  0  0  0  0  0  0  0  0  0  0
   26.8002  -22.0395  -14.7941 C   0  0  0  0  0  0  0  0  0  0  0  0
   25.7208  -22.6695  -14.5756 O   0  0  0  0  0  0  0  0  0  0  0  0
   27.3506  -21.3593  -13.6751 N   0  0  0  0  0  0  0  0  0  0  0  0
   26.6655  -21.2546  -12.3916 C   0  0  1  0  0  0  0  0  0  0  0  0
   27.5971  -20.6613  -11.3606 C   0  0  0  0  0  0  0  0  0  0  0  0
   27.0044  -20.4145  -10.0467 C   0  0  0  0  0  0  0  0  0  0  0  0
   25.6225  -20.2031   -9.9106 C   0  0  0  0  0  0  0  0  0  0  0  0
   25.3795  -20.0382   -8.6032 N   0  0  0  0  0  0  0  0  0  0  0  0
   26.5151  -20.1287   -7.8827 C   0  0  0  0  0  0  0  0  0  0  0  0
   26.7638  -20.0233   -6.5277 C   0  0  0  0  0  0  0  0  0  0  0  0
   28.0580  -20.1573   -6.0910 C   0  0  0  0  0  0  0  0  0  0  0  0
   29.0994  -20.3911   -6.9626 C   0  0  0  0  0  0  0  0  0  0  0  0
   28.8276  -20.4923   -8.3051 C   0  0  0  0  0  0  0  0  0  0  0  0
   27.5485  -20.3671   -8.7976 C   0  0  0  0  0  0  0  0  0  0  0  0
   25.3809  -20.5636  -12.4450 C   0  0  0  0  0  0  0  0  0  0  0  0
   25.2654  -19.3091  -12.6278 O   0  0  0  0  0  0  0  0  0  0  0  0
   24.1213  -21.2526  -12.3015 N   0  0  0  0  0  0  0  0  0  0  0  0
   22.8494  -20.5485  -12.4526 C   0  0  1  0  0  0  0  0  0  0  0  0
   22.3377  -21.0426  -13.8223 C   0  0  0  0  0  0  0  0  0  0  0  0
   22.2941  -22.4891  -13.9433 C   0  0  0  0  0  0  0  0  0  0  0  0
   21.1723  -23.1801  -13.5578 C   0  0  0  0  0  0  0  0  0  0  0  0
   21.0579  -24.5445  -13.6539 C   0  0  0  0  0  0  0  0  0  0  0  0
   22.1265  -25.2491  -14.1637 C   0  0  0  0  0  0  0  0  0  0  0  0
   23.2571  -24.5641  -14.5536 C   0  0  0  0  0  0  0  0  0  0  0  0
   23.3599  -23.1856  -14.4514 C   0  0  0  0  0  0  0  0  0  0  0  0
   21.8428  -20.9881  -11.4614 C   0  0  0  0  0  0  0  0  0  0  0  0
   20.6214  -20.2855  -11.4501 O   0  0  0  0  0  0  0  0  0  0  0  0
   22.0380  -21.9317  -10.6601 O   0  0  0  0  0  0  0  0  0  0  0  0
  2  3  1  0
  2  1  1  6
  4  2  1  0
  4  5  1  1
  6  4  1  0
  6  7  2  0
  8  6  1  0
  9  8  1  0
  9 10  1  1
 11 10  1  0
 12 11  2  0
 13 14  1  0
 13 12  1  0
 14 19  2  0
 15 14  1  0
 15 16  2  0
 16 17  1  0
 17 18  2  0
 19 11  1  0
 19 18  1  0
 20  9  1  0
 21 20  2  0
 22 20  1  0
 23 31  1  0
 23 22  1  0
 24 25  1  0
 23 24  1  6
 25 26  2  0
 26 27  1  0
 28 27  2  0
 29 28  1  0
 30 25  1  0
 30 29  2  0
 31 32  1  0
 33 31  2  0
M  END
$$$$
