TWF.pdb
     RDKit          3D

 33 35  0  0  1  0  0  0  0  0999 V2000
   26.5913  -22.3301  -19.5941 C   0  0  0  0  0  0  0  0  0  0  0  0
   27.5659  -23.4540  -19.4987 C   0  0  1  0  0  0  0  0  0  0  0  0
   28.0997  -23.7578  -20.7659 O   0  0  0  0  0  0  0  0  0  0  0  0
   28.6554  -23.2407  -18.4826 C   0  0  2  0  0  0  0  0  0  0  0  0
   29.4072  -24.4768  -18.3888 N   0  0  0  0  0  0  0  0  0  0  0  0
   28.1678  -22.8624  -17.1538 C   0  0  0  0  0  0  0  0  0  0  0  0
   27.5662  -23.7105  -16.4267 O   0  0  0  0  0  0  0  0  0  0  0  0
   28.3199  -21.5682  -16.5885 N   0  0  0  0  0  0  0  0  0  0  0  0
   27.8566  -21.2257  -15.2485 C   0  0  1  0  0  0  0  0  0  0  0  0
   28.5839  -19.9973  -14.7535 C   0  0  0  0  0  0  0  0  0  0  0  0
   28.3427  -19.6457  -13.3546 C   0  0  0  0  0  0  0  0  0  0  0  0
   27.4231  -18.6397  -13.0154 C   0  0  0  0  0  0  0  0  0  0  0  0
   27.3976  -18.5687  -11.6776 N   0  0  0  0  0  0  0  0  0  0  0  0
   28.2421  -19.4638  -11.1273 C   0  0  0  0  0  0  0  0  0  0  0  0
   28.5581  -19.7540   -9.8139 C   0  0  0  0  0  0  0  0  0  0  0  0
   29.4842  -20.7368   -9.5690 C   0  0  0  0  0  0  0  0  0  0  0  0
   30.0969  -21.4298  -10.5904 C   0  0  0  0  0  0  0  0  0  0  0  0
   29.7664  -21.1240  -11.8880 C   0  0  0  0  0  0  0  0  0  0  0  0
   28.8438  -20.1486  -12.1908 C   0  0  0  0  0  0  0  0  0  0  0  0
   26.4076  -21.1045  -15.1208 C   0  0  0  0  0  0  0  0  0  0  0  0
   25.6691  -20.5515  -15.9981 O   0  0  0  0  0  0  0  0  0  0  0  0
   25.6826  -21.6134  -13.9819 N   0  0  0  0  0  0  0  0  0  0  0  0
   24.2216  -21.5950  -13.9420 C   0  0  1  0  0  0  0  0  0  0  0  0
   23.8960  -22.4404  -12.6925 C   0  0  0  0  0  0  0  0  0  0  0  0
   24.4498  -21.9031  -11.4622 C   0  0  0  0  0  0  0  0  0  0  0  0
   25.7014  -22.2829  -11.0455 C   0  0  0  0  0  0  0  0  0  0  0  0
   26.2905  -21.8077   -9.9004 C   0  0  0  0  0  0  0  0  0  0  0  0
   25.5843  -20.9048   -9.1361 C   0  0  0  0  0  0  0  0  0  0  0  0
   24.3269  -20.5174   -9.5465 C   0  0  0  0  0  0  0  0  0  0  0  0
   23.7432  -21.0047  -10.7053 C   0  0  0  0  0  0  0  0  0  0  0  0
   23.6840  -20.2440  -13.6686 C   0  0  0  0  0  0  0  0  0  0  0  0
   22.2960  -20.0720  -13.8397 O   0  0  0  0  0  0  0  0  0  0  0  0
   24.4010  -19.2831  -13.3037 O   0  0  0  0  0  0  0  0  0  0  0  0
  2  3  1  0
  2  1  1  6
  4  2  1  0
  4  5  1  1
  6  4  1  0
  6  7  2  0
  8  6  1  0
  9  8  1  0
  9 10  1  6
 11 10  1  0
 12 11  2  0
 13 14  1  0
 13 12  1  0
 14 19  2  0
 15 14  1  0
 15 16  2  0
 16 17  1  0
 17 18  2  0
 19 11  1  0
 19 18  1  0
 20  9  1  0
 21 20  2  0
 22 20  1  0
 23 31  1  0
 23 22  1  0
 24 25  1  0
 23 24  1  1
 25 26  2  0
 26 27  1  0
 28 27  2  0
 29 28  1  0
 30 25  1  0
 30 29  2  0
 31 32  1  0
 33 31  2  0
M  END
$$$$
