TWF.pdb
     RDKit          3D

 33 35  0  0  1  0  0  0  0  0999 V2000
   28.5685  -20.7438  -17.9097 C   0  0  0  0  0  0  0  0  0  0  0  0
   27.5488  -20.9283  -16.8381 C   0  0  1  0  0  0  0  0  0  0  0  0
   26.3775  -21.5089  -17.3614 O   0  0  0  0  0  0  0  0  0  0  0  0
   28.0466  -21.6869  -15.6374 C   0  0  2  0  0  0  0  0  0  0  0  0
   28.3775  -23.0274  -16.0796 N   0  0  0  0  0  0  0  0  0  0  0  0
   27.0846  -21.7589  -14.5347 C   0  0  0  0  0  0  0  0  0  0  0  0
   26.3337  -22.7733  -14.4047 O   0  0  0  0  0  0  0  0  0  0  0  0
   26.9165  -20.7421  -13.5570 N   0  0  0  0  0  0  0  0  0  0  0  0
   25.8388  -20.7536  -12.5742 C   0  0  1  0  0  0  0  0  0  0  0  0
   26.2587  -19.9823  -11.3447 C   0  0  0  0  0  0  0  0  0  0  0  0
   27.3301  -20.5908  -10.5570 C   0  0  0  0  0  0  0  0  0  0  0  0
   28.3931  -21.2592  -11.1863 C   0  0  0  0  0  0  0  0  0  0  0  0
   29.2204  -21.6759  -10.2181 N   0  0  0  0  0  0  0  0  0  0  0  0
   28.7618  -21.3211   -9.0011 C   0  0  0  0  0  0  0  0  0  0  0  0
   29.2565  -21.5282   -7.7278 C   0  0  0  0  0  0  0  0  0  0  0  0
   28.5396  -21.0411   -6.6636 C   0  0  0  0  0  0  0  0  0  0  0  0
   27.3541  -20.3601   -6.8358 C   0  0  0  0  0  0  0  0  0  0  0  0
   26.8824  -20.1662   -8.1111 C   0  0  0  0  0  0  0  0  0  0  0  0
   27.5610  -20.6323   -9.2141 C   0  0  0  0  0  0  0  0  0  0  0  0
   24.5442  -20.3190  -13.0894 C   0  0  0  0  0  0  0  0  0  0  0  0
   24.3947  -19.3124  -13.8542 O   0  0  0  0  0  0  0  0  0  0  0  0
   23.3138  -21.0055  -12.7783 N   0  0  0  0  0  0  0  0  0  0  0  0
   22.0504  -20.6206  -13.4045 C   0  0  1  0  0  0  0  0  0  0  0  0
   22.2360  -21.0695  -14.8694 C   0  0  0  0  0  0  0  0  0  0  0  0
   21.0722  -20.8337  -15.7053 C   0  0  0  0  0  0  0  0  0  0  0  0
   20.2299  -21.8699  -16.0234 C   0  0  0  0  0  0  0  0  0  0  0  0
   19.1075  -21.7176  -16.7987 C   0  0  0  0  0  0  0  0  0  0  0  0
   18.8182  -20.4587  -17.2781 C   0  0  0  0  0  0  0  0  0  0  0  0
   19.6580  -19.4120  -16.9640 C   0  0  0  0  0  0  0  0  0  0  0  0
   20.7885  -19.5792  -16.1798 C   0  0  0  0  0  0  0  0  0  0  0  0
   20.9052  -21.3994  -12.8839 C   0  0  0  0  0  0  0  0  0  0  0  0
   19.6825  -20.7112  -12.7544 O   0  0  0  0  0  0  0  0  0  0  0  0
   20.9882  -22.6086  -12.5655 O   0  0  0  0  0  0  0  0  0  0  0  0
  2  3  1  0
  2  1  1  6
  4  2  1  0
  4  5  1  6
  6  4  1  0
  6  7  2  0
  8  6  1  0
  9  8  1  0
  9 10  1  1
 11 10  1  0
 12 11  2  0
 13 14  1  0
 13 12  1  0
 14 19  2  0
 15 14  1  0
 15 16  2  0
 16 17  1  0
 17 18  2  0
 19 11  1  0
 19 18  1  0
 20  9  1  0
 21 20  2  0
 22 20  1  0
 23 31  1  0
 23 22  1  0
 24 25  1  0
 23 24  1  6
 25 26  2  0
 26 27  1  0
 28 27  2  0
 29 28  1  0
 30 25  1  0
 30 29  2  0
 31 32  1  0
 33 31  2  0
M  END
$$$$
