TWF.pdb
     RDKit          3D

 33 35  0  0  1  0  0  0  0  0999 V2000
   25.4171  -35.6483   -4.3244 C   0  0  0  0  0  0  0  0  0  0  0  0
   25.3614  -34.8472   -3.0684 C   0  0  1  0  0  0  0  0  0  0  0  0
   26.4505  -35.1585   -2.2318 O   0  0  0  0  0  0  0  0  0  0  0  0
   25.2469  -33.3628   -3.2886 C   0  0  2  0  0  0  0  0  0  0  0  0
   26.4573  -32.9306   -3.9594 N   0  0  0  0  0  0  0  0  0  0  0  0
   25.0660  -32.5882   -2.0582 C   0  0  0  0  0  0  0  0  0  0  0  0
   26.0109  -31.8712   -1.6078 O   0  0  0  0  0  0  0  0  0  0  0  0
   23.8678  -32.5736   -1.2954 N   0  0  0  0  0  0  0  0  0  0  0  0
   23.7189  -31.8091   -0.0621 C   0  0  1  0  0  0  0  0  0  0  0  0
   22.2550  -31.5464    0.2041 C   0  0  0  0  0  0  0  0  0  0  0  0
   21.7435  -30.2728   -0.3010 C   0  0  0  0  0  0  0  0  0  0  0  0
   21.4702  -30.1003   -1.6679 C   0  0  0  0  0  0  0  0  0  0  0  0
   20.9916  -28.8575   -1.8167 N   0  0  0  0  0  0  0  0  0  0  0  0
   20.9376  -28.2129   -0.6340 C   0  0  0  0  0  0  0  0  0  0  0  0
   20.5295  -26.9381   -0.2912 C   0  0  0  0  0  0  0  0  0  0  0  0
   20.6030  -26.5634    1.0270 C   0  0  0  0  0  0  0  0  0  0  0  0
   21.0687  -27.4191    2.0016 C   0  0  0  0  0  0  0  0  0  0  0  0
   21.4685  -28.6815    1.6368 C   0  0  0  0  0  0  0  0  0  0  0  0
   21.4152  -29.1098    0.3299 C   0  0  0  0  0  0  0  0  0  0  0  0
   24.4008  -32.3840    1.0933 C   0  0  0  0  0  0  0  0  0  0  0  0
   24.2425  -33.5881    1.4748 O   0  0  0  0  0  0  0  0  0  0  0  0
   25.3269  -31.6303    1.9033 N   0  0  0  0  0  0  0  0  0  0  0  0
   25.9655  -32.2231    3.0769 C   0  0  1  0  0  0  0  0  0  0  0  0
   27.3462  -31.5340    3.1083 C   0  0  0  0  0  0  0  0  0  0  0  0
   28.2060  -31.9959    4.1837 C   0  0  0  0  0  0  0  0  0  0  0  0
   28.8237  -33.2187    4.0962 C   0  0  0  0  0  0  0  0  0  0  0  0
   29.6567  -33.7131    5.0686 C   0  0  0  0  0  0  0  0  0  0  0  0
   29.8793  -32.9377    6.1856 C   0  0  0  0  0  0  0  0  0  0  0  0
   29.2636  -31.7085    6.2823 C   0  0  0  0  0  0  0  0  0  0  0  0
   28.4245  -31.2205    5.2929 C   0  0  0  0  0  0  0  0  0  0  0  0
   25.2921  -31.8389    4.3370 C   0  0  0  0  0  0  0  0  0  0  0  0
   25.2137  -32.8290    5.3365 O   0  0  0  0  0  0  0  0  0  0  0  0
   24.8061  -30.7006    4.5338 O   0  0  0  0  0  0  0  0  0  0  0  0
  2  3  1  0
  2  1  1  6
  4  2  1  0
  4  5  1  1
  6  4  1  0
  6  7  2  0
  8  6  1  0
  9  8  1  0
  9 10  1  1
 11 10  1  0
 12 11  2  0
 13 14  1  0
 13 12  1  0
 14 19  2  0
 15 14  1  0
 15 16  2  0
 16 17  1  0
 17 18  2  0
 19 11  1  0
 19 18  1  0
 20  9  1  0
 21 20  2  0
 22 20  1  0
 23 31  1  0
 23 22  1  0
 24 25  1  0
 23 24  1  1
 25 26  2  0
 26 27  1  0
 28 27  2  0
 29 28  1  0
 30 25  1  0
 30 29  2  0
 31 32  1  0
 33 31  2  0
M  END
$$$$
