TWF.pdb
     RDKit          3D

 33 35  0  0  1  0  0  0  0  0999 V2000
   28.4306  -19.2089  -17.1726 C   0  0  0  0  0  0  0  0  0  0  0  0
   27.6475  -19.6705  -15.9911 C   0  0  1  0  0  0  0  0  0  0  0  0
   26.2975  -19.8717  -16.3376 O   0  0  0  0  0  0  0  0  0  0  0  0
   28.2226  -20.8800  -15.3047 C   0  0  2  0  0  0  0  0  0  0  0  0
   28.1811  -21.9759  -16.2529 N   0  0  0  0  0  0  0  0  0  0  0  0
   27.5159  -21.2651  -14.0804 C   0  0  0  0  0  0  0  0  0  0  0  0
   26.6002  -22.1425  -14.1182 O   0  0  0  0  0  0  0  0  0  0  0  0
   27.7835  -20.7128  -12.7993 N   0  0  0  0  0  0  0  0  0  0  0  0
   27.0155  -21.0572  -11.6081 C   0  0  1  0  0  0  0  0  0  0  0  0
   27.8426  -20.7937  -10.3714 C   0  0  0  0  0  0  0  0  0  0  0  0
   27.0868  -20.6643   -9.1261 C   0  0  0  0  0  0  0  0  0  0  0  0
   25.8508  -21.3120   -8.9659 C   0  0  0  0  0  0  0  0  0  0  0  0
   25.4220  -21.0340   -7.7272 N   0  0  0  0  0  0  0  0  0  0  0  0
   26.3003  -20.2472   -7.0740 C   0  0  0  0  0  0  0  0  0  0  0  0
   26.2917  -19.7046   -5.8033 C   0  0  0  0  0  0  0  0  0  0  0  0
   27.3516  -18.9199   -5.4233 C   0  0  0  0  0  0  0  0  0  0  0  0
   28.4085  -18.6651   -6.2700 C   0  0  0  0  0  0  0  0  0  0  0  0
   28.3950  -19.2156   -7.5283 C   0  0  0  0  0  0  0  0  0  0  0  0
   27.3582  -20.0108   -7.9610 C   0  0  0  0  0  0  0  0  0  0  0  0
   25.6956  -20.4379  -11.5379 C   0  0  0  0  0  0  0  0  0  0  0  0
   25.5105  -19.1784  -11.5273 O   0  0  0  0  0  0  0  0  0  0  0  0
   24.4774  -21.2090  -11.4821 N   0  0  0  0  0  0  0  0  0  0  0  0
   23.1693  -20.5590  -11.4273 C   0  0  1  0  0  0  0  0  0  0  0  0
   22.5735  -20.8559  -12.8198 C   0  0  0  0  0  0  0  0  0  0  0  0
   22.8637  -19.8340  -13.8100 C   0  0  0  0  0  0  0  0  0  0  0  0
   23.8662  -20.0275  -14.7276 C   0  0  0  0  0  0  0  0  0  0  0  0
   24.1875  -19.1103  -15.6969 C   0  0  0  0  0  0  0  0  0  0  0  0
   23.4632  -17.9393  -15.7452 C   0  0  0  0  0  0  0  0  0  0  0  0
   22.4546  -17.7361  -14.8281 C   0  0  0  0  0  0  0  0  0  0  0  0
   22.1400  -18.6706  -13.8541 C   0  0  0  0  0  0  0  0  0  0  0  0
   22.2621  -21.2038  -10.4525 C   0  0  0  0  0  0  0  0  0  0  0  0
   21.0822  -20.5036  -10.1317 O   0  0  0  0  0  0  0  0  0  0  0  0
   22.5040  -22.3133   -9.9225 O   0  0  0  0  0  0  0  0  0  0  0  0
  2  3  1  0
  2  1  1  6
  4  2  1  0
  4  5  1  6
  6  4  1  0
  6  7  2  0
  8  6  1  0
  9  8  1  0
  9 10  1  1
 11 10  1  0
 12 11  2  0
 13 14  1  0
 13 12  1  0
 14 19  2  0
 15 14  1  0
 15 16  2  0
 16 17  1  0
 17 18  2  0
 19 11  1  0
 19 18  1  0
 20  9  1  0
 21 20  2  0
 22 20  1  0
 23 31  1  0
 23 22  1  0
 24 25  1  0
 23 24  1  6
 25 26  2  0
 26 27  1  0
 28 27  2  0
 29 28  1  0
 30 25  1  0
 30 29  2  0
 31 32  1  0
 33 31  2  0
M  END
$$$$
