TWF.pdb
     RDKit          3D

 33 35  0  0  1  0  0  0  0  0999 V2000
   28.8876  -18.4041  -15.3543 C   0  0  0  0  0  0  0  0  0  0  0  0
   27.8427  -19.0783  -14.5322 C   0  0  1  0  0  0  0  0  0  0  0  0
   26.7019  -19.3568  -15.3094 O   0  0  0  0  0  0  0  0  0  0  0  0
   28.3251  -20.3063  -13.8083 C   0  0  2  0  0  0  0  0  0  0  0  0
   28.7320  -21.2688  -14.8133 N   0  0  0  0  0  0  0  0  0  0  0  0
   27.3241  -20.9127  -12.9268 C   0  0  0  0  0  0  0  0  0  0  0  0
   26.6684  -21.9302  -13.3066 O   0  0  0  0  0  0  0  0  0  0  0  0
   27.0143  -20.4339  -11.6258 N   0  0  0  0  0  0  0  0  0  0  0  0
   25.7844  -20.7805  -10.9224 C   0  0  1  0  0  0  0  0  0  0  0  0
   25.8714  -20.3257   -9.4842 C   0  0  0  0  0  0  0  0  0  0  0  0
   27.1063  -20.6819   -8.7864 C   0  0  0  0  0  0  0  0  0  0  0  0
   28.0133  -21.5931   -9.3520 C   0  0  0  0  0  0  0  0  0  0  0  0
   29.0472  -21.6917   -8.5053 N   0  0  0  0  0  0  0  0  0  0  0  0
   28.8686  -20.9033   -7.4266 C   0  0  0  0  0  0  0  0  0  0  0  0
   29.6432  -20.6782   -6.3048 C   0  0  0  0  0  0  0  0  0  0  0  0
   29.1757  -19.8042   -5.3555 C   0  0  0  0  0  0  0  0  0  0  0  0
   27.9676  -19.1563   -5.4953 C   0  0  0  0  0  0  0  0  0  0  0  0
   27.2152  -19.3958   -6.6191 C   0  0  0  0  0  0  0  0  0  0  0  0
   27.6362  -20.2615   -7.6028 C   0  0  0  0  0  0  0  0  0  0  0  0
   24.5625  -20.3248  -11.5778 C   0  0  0  0  0  0  0  0  0  0  0  0
   24.4325  -19.1693  -12.0962 O   0  0  0  0  0  0  0  0  0  0  0  0
   23.3902  -21.1569  -11.7013 N   0  0  0  0  0  0  0  0  0  0  0  0
   22.2226  -20.7154  -12.4617 C   0  0  1  0  0  0  0  0  0  0  0  0
   22.5552  -21.1604  -13.9017 C   0  0  0  0  0  0  0  0  0  0  0  0
   22.8267  -22.5815  -14.0267 C   0  0  0  0  0  0  0  0  0  0  0  0
   24.1201  -23.0306  -14.1262 C   0  0  0  0  0  0  0  0  0  0  0  0
   24.4502  -24.3583  -14.2362 C   0  0  0  0  0  0  0  0  0  0  0  0
   23.4268  -25.2808  -14.2466 C   0  0  0  0  0  0  0  0  0  0  0  0
   22.1249  -24.8395  -14.1471 C   0  0  0  0  0  0  0  0  0  0  0  0
   21.8050  -23.4954  -14.0363 C   0  0  0  0  0  0  0  0  0  0  0  0
   20.9954  -21.4504  -12.0838 C   0  0  0  0  0  0  0  0  0  0  0  0
   21.1352  -22.4417  -11.0922 O   0  0  0  0  0  0  0  0  0  0  0  0
   19.8765  -21.2260  -12.6016 O   0  0  0  0  0  0  0  0  0  0  0  0
  2  3  1  0
  2  1  1  6
  4  2  1  0
  4  5  1  6
  6  4  1  0
  6  7  2  0
  8  6  1  0
  9  8  1  0
  9 10  1  1
 11 10  1  0
 12 11  2  0
 13 14  1  0
 13 12  1  0
 14 19  2  0
 15 14  1  0
 15 16  2  0
 16 17  1  0
 17 18  2  0
 19 11  1  0
 19 18  1  0
 20  9  1  0
 21 20  2  0
 22 20  1  0
 23 31  1  0
 23 22  1  0
 24 25  1  0
 23 24  1  6
 25 26  2  0
 26 27  1  0
 28 27  2  0
 29 28  1  0
 30 25  1  0
 30 29  2  0
 31 32  1  0
 33 31  2  0
M  END
$$$$
