TWF.pdb
     RDKit          3D

 33 35  0  0  1  0  0  0  0  0999 V2000
   29.2824  -34.7928  -16.5961 C   0  0  0  0  0  0  0  0  0  0  0  0
   30.2177  -33.6378  -16.7120 C   0  0  1  0  0  0  0  0  0  0  0  0
   31.4999  -34.0735  -17.0979 O   0  0  0  0  0  0  0  0  0  0  0  0
   29.7236  -32.5316  -17.6048 C   0  0  2  0  0  0  0  0  0  0  0  0
   30.6855  -31.4498  -17.5257 N   0  0  0  0  0  0  0  0  0  0  0  0
   28.3926  -32.0297  -17.2541 C   0  0  0  0  0  0  0  0  0  0  0  0
   28.2206  -31.3583  -16.1913 O   0  0  0  0  0  0  0  0  0  0  0  0
   27.2287  -32.2423  -18.0403 N   0  0  0  0  0  0  0  0  0  0  0  0
   25.8929  -31.8479  -17.6072 C   0  0  1  0  0  0  0  0  0  0  0  0
   24.9196  -31.9910  -18.7539 C   0  0  0  0  0  0  0  0  0  0  0  0
   23.5731  -31.4785  -18.5025 C   0  0  0  0  0  0  0  0  0  0  0  0
   23.2889  -30.7480  -17.3370 C   0  0  0  0  0  0  0  0  0  0  0  0
   21.9988  -30.3922  -17.4039 N   0  0  0  0  0  0  0  0  0  0  0  0
   21.4279  -30.8456  -18.5378 C   0  0  0  0  0  0  0  0  0  0  0  0
   20.1438  -30.7374  -19.0363 C   0  0  0  0  0  0  0  0  0  0  0  0
   19.8620  -31.3275  -20.2429 C   0  0  0  0  0  0  0  0  0  0  0  0
   20.8186  -32.0157  -20.9572 C   0  0  0  0  0  0  0  0  0  0  0  0
   22.0882  -32.1096  -20.4416 C   0  0  0  0  0  0  0  0  0  0  0  0
   22.4260  -31.5363  -19.2368 C   0  0  0  0  0  0  0  0  0  0  0  0
   25.4275  -32.5143  -16.3949 C   0  0  0  0  0  0  0  0  0  0  0  0
   25.4052  -33.7793  -16.2533 O   0  0  0  0  0  0  0  0  0  0  0  0
   24.9562  -31.7878  -15.2408 N   0  0  0  0  0  0  0  0  0  0  0  0
   24.5053  -32.4843  -14.0374 C   0  0  1  0  0  0  0  0  0  0  0  0
   24.5092  -31.3714  -12.9680 C   0  0  0  0  0  0  0  0  0  0  0  0
   24.1014  -31.8252  -11.6502 C   0  0  0  0  0  0  0  0  0  0  0  0
   24.9795  -32.5225  -10.8583 C   0  0  0  0  0  0  0  0  0  0  0  0
   24.6655  -32.9720   -9.6000 C   0  0  0  0  0  0  0  0  0  0  0  0
   23.4039  -32.7062   -9.1140 C   0  0  0  0  0  0  0  0  0  0  0  0
   22.5153  -32.0065   -9.9017 C   0  0  0  0  0  0  0  0  0  0  0  0
   22.8450  -31.5580  -11.1711 C   0  0  0  0  0  0  0  0  0  0  0  0
   23.1013  -32.9387  -14.1442 C   0  0  0  0  0  0  0  0  0  0  0  0
   22.8272  -34.2469  -13.6980 O   0  0  0  0  0  0  0  0  0  0  0  0
   22.1828  -32.2209  -14.6040 O   0  0  0  0  0  0  0  0  0  0  0  0
  2  3  1  0
  2  1  1  6
  4  2  1  0
  4  5  1  1
  6  4  1  0
  6  7  2  0
  8  6  1  0
  9  8  1  0
  9 10  1  6
 11 10  1  0
 12 11  2  0
 13 14  1  0
 13 12  1  0
 14 19  2  0
 15 14  1  0
 15 16  2  0
 16 17  1  0
 17 18  2  0
 19 11  1  0
 19 18  1  0
 20  9  1  0
 21 20  2  0
 22 20  1  0
 23 31  1  0
 23 22  1  0
 24 25  1  0
 23 24  1  1
 25 26  2  0
 26 27  1  0
 28 27  2  0
 29 28  1  0
 30 25  1  0
 30 29  2  0
 31 32  1  0
 33 31  2  0
M  END
$$$$
