TWF.pdb
     RDKit          3D

 33 35  0  0  1  0  0  0  0  0999 V2000
   28.6033  -18.8087  -15.9674 C   0  0  0  0  0  0  0  0  0  0  0  0
   27.8139  -19.3165  -14.8093 C   0  0  1  0  0  0  0  0  0  0  0  0
   26.4357  -19.1245  -15.0248 O   0  0  0  0  0  0  0  0  0  0  0  0
   28.1161  -20.7426  -14.4351 C   0  0  2  0  0  0  0  0  0  0  0  0
   27.6684  -21.5809  -15.5299 N   0  0  0  0  0  0  0  0  0  0  0  0
   27.4799  -21.1818  -13.1905 C   0  0  0  0  0  0  0  0  0  0  0  0
   26.3763  -21.8069  -13.2210 O   0  0  0  0  0  0  0  0  0  0  0  0
   28.0208  -20.9551  -11.8967 N   0  0  0  0  0  0  0  0  0  0  0  0
   27.2290  -21.0497  -10.6755 C   0  0  1  0  0  0  0  0  0  0  0  0
   28.0883  -20.7094   -9.4802 C   0  0  0  0  0  0  0  0  0  0  0  0
   27.3790  -20.6071   -8.2054 C   0  0  0  0  0  0  0  0  0  0  0  0
   26.0579  -21.0672   -8.0800 C   0  0  0  0  0  0  0  0  0  0  0  0
   25.6948  -20.8695   -6.8054 N   0  0  0  0  0  0  0  0  0  0  0  0
   26.6955  -20.3101   -6.0963 C   0  0  0  0  0  0  0  0  0  0  0  0
   26.7898  -19.9223   -4.7735 C   0  0  0  0  0  0  0  0  0  0  0  0
   27.9658  -19.3620   -4.3416 C   0  0  0  0  0  0  0  0  0  0  0  0
   29.0387  -19.1804   -5.1870 C   0  0  0  0  0  0  0  0  0  0  0  0
   28.9215  -19.5740   -6.4976 C   0  0  0  0  0  0  0  0  0  0  0  0
   27.7660  -20.1421   -6.9838 C   0  0  0  0  0  0  0  0  0  0  0  0
   25.9833  -20.2895  -10.7005 C   0  0  0  0  0  0  0  0  0  0  0  0
   25.9345  -19.0257  -10.8462 O   0  0  0  0  0  0  0  0  0  0  0  0
   24.6891  -20.9138  -10.5688 N   0  0  0  0  0  0  0  0  0  0  0  0
   23.4811  -20.2730  -11.0852 C   0  0  1  0  0  0  0  0  0  0  0  0
   23.7192  -20.2572  -12.6100 C   0  0  0  0  0  0  0  0  0  0  0  0
   22.6270  -19.6707  -13.3665 C   0  0  0  0  0  0  0  0  0  0  0  0
   21.6778  -20.4763  -13.9448 C   0  0  0  0  0  0  0  0  0  0  0  0
   20.6141  -19.9905  -14.6637 C   0  0  0  0  0  0  0  0  0  0  0  0
   20.5000  -18.6251  -14.8077 C   0  0  0  0  0  0  0  0  0  0  0  0
   21.4482  -17.8081  -14.2304 C   0  0  0  0  0  0  0  0  0  0  0  0
   22.5177  -18.3114  -13.5067 C   0  0  0  0  0  0  0  0  0  0  0  0
   22.2723  -21.0992  -10.8724 C   0  0  0  0  0  0  0  0  0  0  0  0
   21.0899  -20.4103  -10.5365 O   0  0  0  0  0  0  0  0  0  0  0  0
   22.2697  -22.3480  -10.9772 O   0  0  0  0  0  0  0  0  0  0  0  0
  2  3  1  0
  2  1  1  6
  4  2  1  0
  4  5  1  6
  6  4  1  0
  6  7  2  0
  8  6  1  0
  9  8  1  0
  9 10  1  1
 11 10  1  0
 12 11  2  0
 13 14  1  0
 13 12  1  0
 14 19  2  0
 15 14  1  0
 15 16  2  0
 16 17  1  0
 17 18  2  0
 19 11  1  0
 19 18  1  0
 20  9  1  0
 21 20  2  0
 22 20  1  0
 23 31  1  0
 23 22  1  0
 24 25  1  0
 23 24  1  6
 25 26  2  0
 26 27  1  0
 28 27  2  0
 29 28  1  0
 30 25  1  0
 30 29  2  0
 31 32  1  0
 33 31  2  0
M  END
$$$$
