LCM.pdb
     RDKit          3D

 23 22  0  0  1  0  0  0  0  0999 V2000
    9.1902  -12.4788   19.0231 C   0  0  0  0  0  0  0  0  0  0  0  0
    8.0681  -13.4774   18.8093 C   0  0  2  0  0  0  0  0  0  0  0  0
    6.9600  -12.7716   18.0407 C   0  0  0  0  0  0  0  0  0  0  0  0
    7.5334  -14.0139   20.1070 C   0  0  0  0  0  0  0  0  0  0  0  0
    8.4151  -15.1132   20.6145 C   0  0  2  0  0  0  0  0  0  0  0  0
    8.3943  -16.1996   19.6546 N   0  0  0  0  0  0  0  0  0  0  0  0
    8.0289  -15.5667   21.9704 C   0  0  0  0  0  0  0  0  0  0  0  0
    7.5594  -14.7327   22.7973 O   0  0  0  0  0  0  0  0  0  0  0  0
    8.1465  -16.9057   22.4339 N   0  0  0  0  0  0  0  0  0  0  0  0
    7.8761  -17.3143   23.7929 C   0  0  1  0  0  0  0  0  0  0  0  0
    7.0152  -18.5353   23.8147 C   0  0  0  0  0  0  0  0  0  0  0  0
    6.8727  -19.2383   25.4803 S   0  0  0  0  0  0  0  0  0  0  0  0
    9.0703  -17.3899   24.6280 C   0  0  0  0  0  0  0  0  0  0  0  0
   10.0146  -18.1642   24.2591 O   0  0  0  0  0  0  0  0  0  0  0  0
   10.4752  -12.7490   28.2674 C   0  0  0  0  0  0  0  0  0  0  0  0
    9.8746  -13.9566   29.4922 S   0  0  0  0  0  0  0  0  0  0  0  0
   10.0627  -15.6057   28.7046 C   0  0  0  0  0  0  0  0  0  0  0  0
   10.7444  -15.4486   27.3772 C   0  0  0  0  0  0  0  0  0  0  0  0
   10.5728  -16.6260   26.5222 C   0  0  2  0  0  0  0  0  0  0  0  0
    9.2891  -16.6764   25.8285 N   0  0  0  0  0  0  0  0  0  0  0  0
   10.8966  -17.8987   27.1644 C   0  0  0  0  0  0  0  0  0  0  0  0
   12.0275  -18.2030   27.5480 O   0  0  0  0  0  0  0  0  0  0  0  0
    9.8929  -18.8666   27.3795 O   0  0  0  0  0  0  0  0  0  0  0  0
  2  1  1  1
  2  3  1  0
  4  2  1  0
  5  6  1  6
  5  4  1  0
  7  5  1  0
  8  7  2  0
  9  7  1  0
 10 13  1  0
 10  9  1  0
 10 11  1  6
 12 11  1  0
 13 20  1  0
 14 13  2  0
 15 16  1  0
 16 17  1  0
 19 18  1  1
 18 17  1  0
 19 21  1  0
 20 19  1  0
 21 22  2  0
 21 23  1  0
M  END
$$$$
