LCM.pdb
     RDKit          3D

 23 22  0  0  1  0  0  0  0  0999 V2000
    2.4477  -18.6529   20.3657 C   0  0  0  0  0  0  0  0  0  0  0  0
    2.8179  -19.2962   21.6890 C   0  0  2  0  0  0  0  0  0  0  0  0
    1.6623  -19.0698   22.6535 C   0  0  0  0  0  0  0  0  0  0  0  0
    4.0849  -18.7253   22.2606 C   0  0  0  0  0  0  0  0  0  0  0  0
    5.1420  -18.6510   21.2021 C   0  0  2  0  0  0  0  0  0  0  0  0
    5.5045  -20.0014   20.8185 N   0  0  0  0  0  0  0  0  0  0  0  0
    6.3201  -17.8645   21.6344 C   0  0  0  0  0  0  0  0  0  0  0  0
    7.1207  -18.3547   22.4821 O   0  0  0  0  0  0  0  0  0  0  0  0
    6.6352  -16.5619   21.1598 N   0  0  0  0  0  0  0  0  0  0  0  0
    7.8228  -15.8319   21.5386 C   0  0  1  0  0  0  0  0  0  0  0  0
    8.0648  -14.6954   20.5994 C   0  0  0  0  0  0  0  0  0  0  0  0
    8.3638  -15.2650   18.9039 S   0  0  0  0  0  0  0  0  0  0  0  0
    7.8640  -15.4787   22.9538 C   0  0  0  0  0  0  0  0  0  0  0  0
    6.8711  -14.8465   23.4454 O   0  0  0  0  0  0  0  0  0  0  0  0
    6.6560  -10.9095   26.8997 C   0  0  0  0  0  0  0  0  0  0  0  0
    6.3821  -12.7096   26.8377 S   0  0  0  0  0  0  0  0  0  0  0  0
    7.7843  -13.3973   25.8704 C   0  0  0  0  0  0  0  0  0  0  0  0
    7.6124  -14.8813   25.7307 C   0  0  0  0  0  0  0  0  0  0  0  0
    8.8432  -15.5439   25.2917 C   0  0  2  0  0  0  0  0  0  0  0  0
    8.9152  -15.7733   23.8517 N   0  0  0  0  0  0  0  0  0  0  0  0
    9.1969  -16.7405   26.0534 C   0  0  0  0  0  0  0  0  0  0  0  0
    9.9633  -16.7352   27.0185 O   0  0  0  0  0  0  0  0  0  0  0  0
    8.6571  -17.9961   25.7035 O   0  0  0  0  0  0  0  0  0  0  0  0
  2  1  1  6
  2  3  1  0
  4  2  1  0
  5  6  1  1
  5  4  1  0
  7  5  1  0
  8  7  2  0
  9  7  1  0
 10 13  1  0
 10  9  1  0
 10 11  1  6
 12 11  1  0
 13 20  1  0
 14 13  2  0
 15 16  1  0
 16 17  1  0
 19 18  1  6
 18 17  1  0
 19 21  1  0
 20 19  1  0
 21 22  2  0
 21 23  1  0
M  END
$$$$
