LCM.pdb
     RDKit          3D

 23 22  0  0  1  0  0  0  0  0999 V2000
    9.4512  -13.4439   18.7059 C   0  0  0  0  0  0  0  0  0  0  0  0
    7.9360  -13.4426   18.7835 C   0  0  2  0  0  0  0  0  0  0  0  0
    7.4857  -12.0085   19.0236 C   0  0  0  0  0  0  0  0  0  0  0  0
    7.4250  -14.3330   19.8807 C   0  0  0  0  0  0  0  0  0  0  0  0
    7.9647  -15.7202   19.7141 C   0  0  2  0  0  0  0  0  0  0  0  0
    6.9968  -16.5044   18.9723 N   0  0  0  0  0  0  0  0  0  0  0  0
    8.3108  -16.3510   21.0087 C   0  0  0  0  0  0  0  0  0  0  0  0
    7.3943  -16.6131   21.8399 O   0  0  0  0  0  0  0  0  0  0  0  0
    9.6312  -16.6969   21.4067 N   0  0  0  0  0  0  0  0  0  0  0  0
    9.9538  -17.3274   22.6657 C   0  0  1  0  0  0  0  0  0  0  0  0
   11.2430  -18.0758   22.5653 C   0  0  0  0  0  0  0  0  0  0  0  0
   11.7172  -18.8302   24.1448 S   0  0  0  0  0  0  0  0  0  0  0  0
    9.8530  -16.4287   23.8110 C   0  0  0  0  0  0  0  0  0  0  0  0
   10.2991  -15.2404   23.6845 O   0  0  0  0  0  0  0  0  0  0  0  0
    6.6719  -11.1464   27.0003 C   0  0  0  0  0  0  0  0  0  0  0  0
    6.3929  -12.9267   26.7321 S   0  0  0  0  0  0  0  0  0  0  0  0
    8.0624  -13.6812   26.5966 C   0  0  0  0  0  0  0  0  0  0  0  0
    7.9242  -15.1505   26.3257 C   0  0  0  0  0  0  0  0  0  0  0  0
    9.2232  -15.8144   26.1890 C   0  0  2  0  0  0  0  0  0  0  0  0
    9.2991  -16.7504   25.0711 N   0  0  0  0  0  0  0  0  0  0  0  0
    9.7437  -16.3967   27.4247 C   0  0  0  0  0  0  0  0  0  0  0  0
    9.0295  -16.8460   28.3230 O   0  0  0  0  0  0  0  0  0  0  0  0
   11.1346  -16.4715   27.6493 O   0  0  0  0  0  0  0  0  0  0  0  0
  2  1  1  1
  2  3  1  0
  4  2  1  0
  5  6  1  1
  5  4  1  0
  7  5  1  0
  8  7  2  0
  9  7  1  0
 10 13  1  0
 10  9  1  0
 10 11  1  6
 12 11  1  0
 13 20  1  0
 14 13  2  0
 15 16  1  0
 16 17  1  0
 19 18  1  1
 18 17  1  0
 19 21  1  0
 20 19  1  0
 21 22  2  0
 21 23  1  0
M  END
$$$$
