LCM.pdb
     RDKit          3D

 23 22  0  0  1  0  0  0  0  0999 V2000
    9.3471  -13.1201   19.5751 C   0  0  0  0  0  0  0  0  0  0  0  0
    7.9057  -13.2176   19.1117 C   0  0  2  0  0  0  0  0  0  0  0  0
    7.2541  -11.8604   19.3359 C   0  0  0  0  0  0  0  0  0  0  0  0
    7.1448  -14.2822   19.8503 C   0  0  0  0  0  0  0  0  0  0  0  0
    8.0810  -15.3490   20.3288 C   0  0  2  0  0  0  0  0  0  0  0  0
    7.9950  -16.4770   19.4219 N   0  0  0  0  0  0  0  0  0  0  0  0
    7.8159  -15.7460   21.7307 C   0  0  0  0  0  0  0  0  0  0  0  0
    7.7204  -14.8558   22.6240 O   0  0  0  0  0  0  0  0  0  0  0  0
    7.6551  -17.0890   22.1691 N   0  0  0  0  0  0  0  0  0  0  0  0
    7.3903  -17.4628   23.5391 C   0  0  1  0  0  0  0  0  0  0  0  0
    6.7222  -18.7978   23.6013 C   0  0  0  0  0  0  0  0  0  0  0  0
    6.5177  -19.3780   25.3073 S   0  0  0  0  0  0  0  0  0  0  0  0
    8.5449  -17.3123   24.4186 C   0  0  0  0  0  0  0  0  0  0  0  0
    9.6944  -17.6228   23.9610 O   0  0  0  0  0  0  0  0  0  0  0  0
    9.1998  -13.3334   29.6321 C   0  0  0  0  0  0  0  0  0  0  0  0
   10.8110  -13.3261   28.7817 S   0  0  0  0  0  0  0  0  0  0  0  0
   10.9482  -14.9599   27.9530 C   0  0  0  0  0  0  0  0  0  0  0  0
    9.6889  -15.2362   27.1855 C   0  0  0  0  0  0  0  0  0  0  0  0
    9.7107  -16.5499   26.5372 C   0  0  2  0  0  0  0  0  0  0  0  0
    8.5156  -16.8472   25.7531 N   0  0  0  0  0  0  0  0  0  0  0  0
   10.0758  -17.6586   27.4174 C   0  0  0  0  0  0  0  0  0  0  0  0
    9.2841  -18.5277   27.7870 O   0  0  0  0  0  0  0  0  0  0  0  0
   11.3963  -17.7847   27.8981 O   0  0  0  0  0  0  0  0  0  0  0  0
  2  1  1  1
  2  3  1  0
  4  2  1  0
  5  6  1  6
  5  4  1  0
  7  5  1  0
  8  7  2  0
  9  7  1  0
 10 13  1  0
 10  9  1  0
 10 11  1  6
 12 11  1  0
 13 20  1  0
 14 13  2  0
 15 16  1  0
 16 17  1  0
 19 18  1  1
 18 17  1  0
 19 21  1  0
 20 19  1  0
 21 22  2  0
 21 23  1  0
M  END
$$$$
