LCM.pdb
     RDKit          3D

 23 22  0  0  1  0  0  0  0  0999 V2000
    9.1627  -12.2162   18.8434 C   0  0  0  0  0  0  0  0  0  0  0  0
    8.1491  -13.2255   18.3376 C   0  0  2  0  0  0  0  0  0  0  0  0
    6.9521  -12.4520   17.8030 C   0  0  0  0  0  0  0  0  0  0  0  0
    7.7087  -14.1743   19.4164 C   0  0  0  0  0  0  0  0  0  0  0  0
    8.9012  -14.7769   20.0933 C   0  0  2  0  0  0  0  0  0  0  0  0
    9.6036  -15.6071   19.1343 N   0  0  0  0  0  0  0  0  0  0  0  0
    8.5364  -15.5313   21.3144 C   0  0  0  0  0  0  0  0  0  0  0  0
    7.4379  -15.2893   21.8926 O   0  0  0  0  0  0  0  0  0  0  0  0
    9.3458  -16.5375   21.9093 N   0  0  0  0  0  0  0  0  0  0  0  0
    8.9427  -17.3246   23.0516 C   0  0  1  0  0  0  0  0  0  0  0  0
    9.5748  -18.6777   23.0089 C   0  0  0  0  0  0  0  0  0  0  0  0
    9.2672  -19.6211   24.5269 S   0  0  0  0  0  0  0  0  0  0  0  0
    9.0816  -16.6216   24.3228 C   0  0  0  0  0  0  0  0  0  0  0  0
   10.2582  -16.4087   24.7672 O   0  0  0  0  0  0  0  0  0  0  0  0
    6.5900  -11.2887   26.1491 C   0  0  0  0  0  0  0  0  0  0  0  0
    7.3146  -12.7018   27.0421 S   0  0  0  0  0  0  0  0  0  0  0  0
    6.4091  -14.1867   26.4504 C   0  0  0  0  0  0  0  0  0  0  0  0
    6.9074  -15.3981   27.1822 C   0  0  0  0  0  0  0  0  0  0  0  0
    8.1158  -15.9579   26.5712 C   0  0  2  0  0  0  0  0  0  0  0  0
    8.0213  -16.1437   25.1263 N   0  0  0  0  0  0  0  0  0  0  0  0
    8.6441  -17.1451   27.2409 C   0  0  0  0  0  0  0  0  0  0  0  0
    8.2007  -18.2819   27.0682 O   0  0  0  0  0  0  0  0  0  0  0  0
    9.7216  -17.0358   28.1450 O   0  0  0  0  0  0  0  0  0  0  0  0
  2  1  1  1
  2  3  1  0
  4  2  1  0
  5  6  1  6
  5  4  1  0
  7  5  1  0
  8  7  2  0
  9  7  1  0
 10 13  1  0
 10  9  1  0
 10 11  1  1
 12 11  1  0
 13 20  1  0
 14 13  2  0
 15 16  1  0
 16 17  1  0
 19 18  1  1
 18 17  1  0
 19 21  1  0
 20 19  1  0
 21 22  2  0
 21 23  1  0
M  END
$$$$
