LCM.pdb
     RDKit          3D

 23 22  0  0  1  0  0  0  0  0999 V2000
    9.5486  -13.6281   18.9780 C   0  0  0  0  0  0  0  0  0  0  0  0
    8.0722  -13.6465   19.3267 C   0  0  2  0  0  0  0  0  0  0  0  0
    7.5869  -12.2042   19.3637 C   0  0  0  0  0  0  0  0  0  0  0  0
    7.8114  -14.3114   20.6487 C   0  0  0  0  0  0  0  0  0  0  0  0
    8.3165  -15.7213   20.6268 C   0  0  2  0  0  0  0  0  0  0  0  0
    7.2998  -16.5648   20.0292 N   0  0  0  0  0  0  0  0  0  0  0  0
    8.7116  -16.2008   21.9712 C   0  0  0  0  0  0  0  0  0  0  0  0
    7.8368  -16.3050   22.8786 O   0  0  0  0  0  0  0  0  0  0  0  0
   10.0363  -16.5651   22.3373 N   0  0  0  0  0  0  0  0  0  0  0  0
   10.4078  -17.0373   23.6510 C   0  0  1  0  0  0  0  0  0  0  0  0
   11.6576  -17.8534   23.5838 C   0  0  0  0  0  0  0  0  0  0  0  0
   11.3554  -19.5065   22.9021 S   0  0  0  0  0  0  0  0  0  0  0  0
   10.4118  -15.9905   24.6677 C   0  0  0  0  0  0  0  0  0  0  0  0
   10.8763  -14.8455   24.3507 O   0  0  0  0  0  0  0  0  0  0  0  0
    6.0259  -13.2045   26.7673 C   0  0  0  0  0  0  0  0  0  0  0  0
    7.0549  -12.3053   27.9723 S   0  0  0  0  0  0  0  0  0  0  0  0
    8.6675  -13.1844   28.0096 C   0  0  0  0  0  0  0  0  0  0  0  0
    8.6815  -14.2442   26.9474 C   0  0  0  0  0  0  0  0  0  0  0  0
    9.9196  -15.0275   26.9610 C   0  0  2  0  0  0  0  0  0  0  0  0
    9.9429  -16.1217   25.9947 N   0  0  0  0  0  0  0  0  0  0  0  0
   10.3521  -15.4621   28.2882 C   0  0  0  0  0  0  0  0  0  0  0  0
   10.3923  -16.6418   28.6422 O   0  0  0  0  0  0  0  0  0  0  0  0
   10.7557  -14.5160   29.2538 O   0  0  0  0  0  0  0  0  0  0  0  0
  2  1  1  1
  2  3  1  0
  4  2  1  0
  5  6  1  1
  5  4  1  0
  7  5  1  0
  8  7  2  0
  9  7  1  0
 10 13  1  0
 10  9  1  0
 10 11  1  6
 12 11  1  0
 13 20  1  0
 14 13  2  0
 15 16  1  0
 16 17  1  0
 19 18  1  1
 18 17  1  0
 19 21  1  0
 20 19  1  0
 21 22  2  0
 21 23  1  0
M  END
$$$$
