LCM.pdb
     RDKit          3D

 23 22  0  0  1  0  0  0  0  0999 V2000
    2.7050  -18.9721   20.0830 C   0  0  0  0  0  0  0  0  0  0  0  0
    3.0245  -19.3372   21.5206 C   0  0  2  0  0  0  0  0  0  0  0  0
    1.7949  -19.0257   22.3619 C   0  0  0  0  0  0  0  0  0  0  0  0
    4.2124  -18.5815   22.0456 C   0  0  0  0  0  0  0  0  0  0  0  0
    5.3926  -18.7837   21.1458 C   0  0  2  0  0  0  0  0  0  0  0  0
    5.7214  -20.1957   21.1289 N   0  0  0  0  0  0  0  0  0  0  0  0
    6.5525  -17.9513   21.5397 C   0  0  0  0  0  0  0  0  0  0  0  0
    7.3415  -18.3652   22.4374 O   0  0  0  0  0  0  0  0  0  0  0  0
    6.8618  -16.6843   20.9736 N   0  0  0  0  0  0  0  0  0  0  0  0
    8.0129  -15.8949   21.3461 C   0  0  1  0  0  0  0  0  0  0  0  0
    8.3787  -14.9470   20.2507 C   0  0  0  0  0  0  0  0  0  0  0  0
    8.7091  -15.8068   18.6885 S   0  0  0  0  0  0  0  0  0  0  0  0
    7.9024  -15.2907   22.6698 C   0  0  0  0  0  0  0  0  0  0  0  0
    6.8577  -14.6081   22.9344 O   0  0  0  0  0  0  0  0  0  0  0  0
    6.1500  -11.6570   26.4427 C   0  0  0  0  0  0  0  0  0  0  0  0
    7.5781  -12.6629   26.9606 S   0  0  0  0  0  0  0  0  0  0  0  0
    7.0200  -14.4108   26.8690 C   0  0  0  0  0  0  0  0  0  0  0  0
    7.2147  -14.9231   25.4722 C   0  0  0  0  0  0  0  0  0  0  0  0
    8.6243  -14.9234   25.0724 C   0  0  2  0  0  0  0  0  0  0  0  0
    8.8565  -15.3885   23.7081 N   0  0  0  0  0  0  0  0  0  0  0  0
    9.5292  -15.5604   26.0277 C   0  0  0  0  0  0  0  0  0  0  0  0
   10.0736  -14.9623   26.9575 O   0  0  0  0  0  0  0  0  0  0  0  0
    9.8281  -16.9352   25.9217 O   0  0  0  0  0  0  0  0  0  0  0  0
  2  1  1  6
  2  3  1  0
  4  2  1  0
  5  6  1  1
  5  4  1  0
  7  5  1  0
  8  7  2  0
  9  7  1  0
 10 13  1  0
 10  9  1  0
 10 11  1  6
 12 11  1  0
 13 20  1  0
 14 13  2  0
 15 16  1  0
 16 17  1  0
 19 18  1  1
 18 17  1  0
 19 21  1  0
 20 19  1  0
 21 22  2  0
 21 23  1  0
M  END
$$$$
