LCM.pdb
     RDKit          3D

 23 22  0  0  1  0  0  0  0  0999 V2000
    9.9465  -13.0380   18.8894 C   0  0  0  0  0  0  0  0  0  0  0  0
    8.5801  -13.3536   18.3102 C   0  0  2  0  0  0  0  0  0  0  0  0
    7.7675  -12.0665   18.3123 C   0  0  0  0  0  0  0  0  0  0  0  0
    7.8642  -14.4156   19.0959 C   0  0  0  0  0  0  0  0  0  0  0  0
    8.7058  -15.6518   19.1804 C   0  0  2  0  0  0  0  0  0  0  0  0
    8.3442  -16.5301   18.0849 N   0  0  0  0  0  0  0  0  0  0  0  0
    8.5865  -16.3278   20.4928 C   0  0  0  0  0  0  0  0  0  0  0  0
    7.4702  -16.8026   20.8510 O   0  0  0  0  0  0  0  0  0  0  0  0
    9.6581  -16.4921   21.4126 N   0  0  0  0  0  0  0  0  0  0  0  0
    9.5184  -17.1133   22.7093 C   0  0  1  0  0  0  0  0  0  0  0  0
   10.6599  -18.0400   22.9754 C   0  0  0  0  0  0  0  0  0  0  0  0
   12.2590  -17.2815   22.5799 S   0  0  0  0  0  0  0  0  0  0  0  0
    9.2331  -16.1664   23.7823 C   0  0  0  0  0  0  0  0  0  0  0  0
    9.9020  -15.0808   23.8204 O   0  0  0  0  0  0  0  0  0  0  0  0
    6.9699  -11.2512   28.1544 C   0  0  0  0  0  0  0  0  0  0  0  0
    7.2749  -12.3297   26.7180 S   0  0  0  0  0  0  0  0  0  0  0  0
    6.4823  -13.9373   27.1205 C   0  0  0  0  0  0  0  0  0  0  0  0
    6.6724  -14.8869   25.9744 C   0  0  0  0  0  0  0  0  0  0  0  0
    8.0505  -15.3757   25.8811 C   0  0  2  0  0  0  0  0  0  0  0  0
    8.2704  -16.3357   24.8033 N   0  0  0  0  0  0  0  0  0  0  0  0
    8.6219  -15.8348   27.1460 C   0  0  0  0  0  0  0  0  0  0  0  0
    9.1232  -15.0820   27.9832 O   0  0  0  0  0  0  0  0  0  0  0  0
    8.6239  -17.2071   27.4732 O   0  0  0  0  0  0  0  0  0  0  0  0
  2  1  1  1
  2  3  1  0
  4  2  1  0
  5  6  1  6
  5  4  1  0
  7  5  1  0
  8  7  2  0
  9  7  1  0
 10 13  1  0
 10  9  1  0
 10 11  1  1
 12 11  1  0
 13 20  1  0
 14 13  2  0
 15 16  1  0
 16 17  1  0
 19 18  1  1
 18 17  1  0
 19 21  1  0
 20 19  1  0
 21 22  2  0
 21 23  1  0
M  END
$$$$
