LCM.pdb
     RDKit          3D

 23 22  0  0  1  0  0  0  0  0999 V2000
    5.7925  -12.6548   24.6172 C   0  0  0  0  0  0  0  0  0  0  0  0
    5.9010  -13.4360   25.9134 C   0  0  2  0  0  0  0  0  0  0  0  0
    6.3633  -12.4727   26.9975 C   0  0  0  0  0  0  0  0  0  0  0  0
    6.8623  -14.5855   25.8022 C   0  0  0  0  0  0  0  0  0  0  0  0
    6.3482  -15.5966   24.8240 C   0  0  2  0  0  0  0  0  0  0  0  0
    5.4972  -16.5317   25.5335 N   0  0  0  0  0  0  0  0  0  0  0  0
    7.4395  -16.2850   24.0969 C   0  0  0  0  0  0  0  0  0  0  0  0
    8.0412  -17.2529   24.6454 O   0  0  0  0  0  0  0  0  0  0  0  0
    7.8807  -15.9358   22.7912 N   0  0  0  0  0  0  0  0  0  0  0  0
    9.1246  -16.3891   22.2132 C   0  0  1  0  0  0  0  0  0  0  0  0
    9.1226  -16.1865   20.7329 C   0  0  0  0  0  0  0  0  0  0  0  0
   10.6660  -16.7513   19.9664 S   0  0  0  0  0  0  0  0  0  0  0  0
   10.3069  -15.8809   22.9011 C   0  0  0  0  0  0  0  0  0  0  0  0
   10.4908  -14.6189   22.9294 O   0  0  0  0  0  0  0  0  0  0  0  0
   11.9616  -13.6563   29.4206 C   0  0  0  0  0  0  0  0  0  0  0  0
   10.8731  -14.2996   28.1089 S   0  0  0  0  0  0  0  0  0  0  0  0
   11.9410  -15.3420   27.0374 C   0  0  0  0  0  0  0  0  0  0  0  0
   11.1528  -15.8031   25.8468 C   0  0  0  0  0  0  0  0  0  0  0  0
   12.0149  -16.2311   24.7421 C   0  0  2  0  0  0  0  0  0  0  0  0
   11.2878  -16.6633   23.5521 N   0  0  0  0  0  0  0  0  0  0  0  0
   13.0612  -17.1806   25.1174 C   0  0  0  0  0  0  0  0  0  0  0  0
   13.0053  -18.3887   24.8806 O   0  0  0  0  0  0  0  0  0  0  0  0
   14.2198  -16.7385   25.7902 O   0  0  0  0  0  0  0  0  0  0  0  0
  2  1  1  6
  2  3  1  0
  4  2  1  0
  5  6  1  1
  5  4  1  0
  7  5  1  0
  8  7  2  0
  9  7  1  0
 10 13  1  0
 10  9  1  0
 10 11  1  6
 12 11  1  0
 13 20  1  0
 14 13  2  0
 15 16  1  0
 16 17  1  0
 19 18  1  1
 18 17  1  0
 19 21  1  0
 20 19  1  0
 21 22  2  0
 21 23  1  0
M  END
$$$$
