LCM.pdb
     RDKit          3D

 23 22  0  0  1  0  0  0  0  0999 V2000
    9.8529  -13.2940   19.7933 C   0  0  0  0  0  0  0  0  0  0  0  0
    8.4150  -13.3480   19.3124 C   0  0  2  0  0  0  0  0  0  0  0  0
    7.7886  -11.9850   19.5707 C   0  0  0  0  0  0  0  0  0  0  0  0
    7.6247  -14.4184   20.0108 C   0  0  0  0  0  0  0  0  0  0  0  0
    8.4877  -15.6163   20.2634 C   0  0  2  0  0  0  0  0  0  0  0  0
    8.1274  -16.6511   19.3139 N   0  0  0  0  0  0  0  0  0  0  0  0
    8.3956  -16.0940   21.6623 C   0  0  0  0  0  0  0  0  0  0  0  0
    7.2589  -16.2625   22.1906 O   0  0  0  0  0  0  0  0  0  0  0  0
    9.5161  -16.3878   22.4866 N   0  0  0  0  0  0  0  0  0  0  0  0
    9.4134  -16.9188   23.8261 C   0  0  1  0  0  0  0  0  0  0  0  0
    9.9495  -18.3123   23.8831 C   0  0  0  0  0  0  0  0  0  0  0  0
   10.0085  -18.9502   25.5797 S   0  0  0  0  0  0  0  0  0  0  0  0
    9.9312  -16.0192   24.8517 C   0  0  0  0  0  0  0  0  0  0  0  0
   11.1336  -15.6080   24.7401 O   0  0  0  0  0  0  0  0  0  0  0  0
    6.0601  -11.3569   25.9743 C   0  0  0  0  0  0  0  0  0  0  0  0
    6.5498  -12.8715   26.8606 S   0  0  0  0  0  0  0  0  0  0  0  0
    8.3729  -12.7679   27.0615 C   0  0  0  0  0  0  0  0  0  0  0  0
    8.8591  -13.9673   27.8206 C   0  0  0  0  0  0  0  0  0  0  0  0
    9.8204  -14.7600   27.0497 C   0  0  2  0  0  0  0  0  0  0  0  0
    9.2190  -15.5488   25.9784 N   0  0  0  0  0  0  0  0  0  0  0  0
   10.7449  -15.5529   27.8584 C   0  0  0  0  0  0  0  0  0  0  0  0
   10.7126  -16.7831   27.9255 O   0  0  0  0  0  0  0  0  0  0  0  0
   11.7481  -14.9212   28.6232 O   0  0  0  0  0  0  0  0  0  0  0  0
  2  1  1  1
  2  3  1  0
  4  2  1  0
  5  6  1  6
  5  4  1  0
  7  5  1  0
  8  7  2  0
  9  7  1  0
 10 13  1  0
 10  9  1  0
 10 11  1  6
 12 11  1  0
 13 20  1  0
 14 13  2  0
 15 16  1  0
 16 17  1  0
 19 18  1  1
 18 17  1  0
 19 21  1  0
 20 19  1  0
 21 22  2  0
 21 23  1  0
M  END
$$$$
