LCM.pdb
     RDKit          3D

 23 22  0  0  1  0  0  0  0  0999 V2000
    5.4275  -21.6162   24.8720 C   0  0  0  0  0  0  0  0  0  0  0  0
    6.8940  -21.2345   24.9478 C   0  0  2  0  0  0  0  0  0  0  0  0
    7.4086  -21.6426   26.3209 C   0  0  0  0  0  0  0  0  0  0  0  0
    7.1071  -19.7624   24.7348 C   0  0  0  0  0  0  0  0  0  0  0  0
    6.7486  -19.3861   23.3301 C   0  0  2  0  0  0  0  0  0  0  0  0
    6.8129  -20.5762   22.5045 N   0  0  0  0  0  0  0  0  0  0  0  0
    7.6043  -18.2995   22.8004 C   0  0  0  0  0  0  0  0  0  0  0  0
    8.8347  -18.5147   22.6019 O   0  0  0  0  0  0  0  0  0  0  0  0
    7.1414  -16.9922   22.4869 N   0  0  0  0  0  0  0  0  0  0  0  0
    7.9945  -15.9286   22.0097 C   0  0  1  0  0  0  0  0  0  0  0  0
    7.2072  -14.9379   21.2152 C   0  0  0  0  0  0  0  0  0  0  0  0
    5.5049  -15.4936   20.9287 S   0  0  0  0  0  0  0  0  0  0  0  0
    8.8413  -15.3497   23.0475 C   0  0  0  0  0  0  0  0  0  0  0  0
    9.3452  -14.1964   22.8390 O   0  0  0  0  0  0  0  0  0  0  0  0
    6.7455  -11.3165   26.1311 C   0  0  0  0  0  0  0  0  0  0  0  0
    8.0813  -12.1874   27.0123 S   0  0  0  0  0  0  0  0  0  0  0  0
    7.5734  -13.9518   27.0753 C   0  0  0  0  0  0  0  0  0  0  0  0
    7.7312  -14.5642   25.7147 C   0  0  0  0  0  0  0  0  0  0  0  0
    8.9936  -15.2952   25.5778 C   0  0  2  0  0  0  0  0  0  0  0  0
    9.1649  -15.9513   24.2849 N   0  0  0  0  0  0  0  0  0  0  0  0
    9.3031  -16.1918   26.6902 C   0  0  0  0  0  0  0  0  0  0  0  0
    9.4470  -15.8132   27.8542 O   0  0  0  0  0  0  0  0  0  0  0  0
    9.4557  -17.5770   26.4706 O   0  0  0  0  0  0  0  0  0  0  0  0
  2  1  1  1
  2  3  1  0
  4  2  1  0
  5  6  1  6
  5  4  1  0
  7  5  1  0
  8  7  2  0
  9  7  1  0
 10 13  1  0
 10  9  1  0
 10 11  1  1
 12 11  1  0
 13 20  1  0
 14 13  2  0
 15 16  1  0
 16 17  1  0
 19 18  1  1
 18 17  1  0
 19 21  1  0
 20 19  1  0
 21 22  2  0
 21 23  1  0
M  END
$$$$
