LCM.pdb
     RDKit          3D

 23 22  0  0  1  0  0  0  0  0999 V2000
    9.6284  -13.4933   19.6449 C   0  0  0  0  0  0  0  0  0  0  0  0
    8.4092  -13.4706   18.7421 C   0  0  2  0  0  0  0  0  0  0  0  0
    7.9141  -12.0331   18.6683 C   0  0  0  0  0  0  0  0  0  0  0  0
    7.3142  -14.3669   19.2475 C   0  0  0  0  0  0  0  0  0  0  0  0
    7.8756  -15.6999   19.6366 C   0  0  2  0  0  0  0  0  0  0  0  0
    7.4672  -16.6775   18.6468 N   0  0  0  0  0  0  0  0  0  0  0  0
    7.4795  -16.1018   21.0059 C   0  0  0  0  0  0  0  0  0  0  0  0
    6.2546  -16.1242   21.3200 O   0  0  0  0  0  0  0  0  0  0  0  0
    8.3926  -16.4764   22.0294 N   0  0  0  0  0  0  0  0  0  0  0  0
    7.9936  -16.8629   23.3628 C   0  0  1  0  0  0  0  0  0  0  0  0
    7.9725  -18.3509   23.4961 C   0  0  0  0  0  0  0  0  0  0  0  0
    7.8311  -18.8777   25.2256 S   0  0  0  0  0  0  0  0  0  0  0  0
    8.7214  -16.1623   24.4158 C   0  0  0  0  0  0  0  0  0  0  0  0
    9.9938  -16.2522   24.4301 O   0  0  0  0  0  0  0  0  0  0  0  0
    6.3279  -10.9542   26.3470 C   0  0  0  0  0  0  0  0  0  0  0  0
    6.2002  -11.9466   27.8695 S   0  0  0  0  0  0  0  0  0  0  0  0
    6.9568  -13.5730   27.4730 C   0  0  0  0  0  0  0  0  0  0  0  0
    8.2922  -13.3561   26.8243 C   0  0  0  0  0  0  0  0  0  0  0  0
    8.9211  -14.6142   26.4139 C   0  0  2  0  0  0  0  0  0  0  0  0
    8.1454  -15.3785   25.4415 N   0  0  0  0  0  0  0  0  0  0  0  0
    9.3890  -15.4508   27.5177 C   0  0  0  0  0  0  0  0  0  0  0  0
    8.9401  -16.5716   27.7643 O   0  0  0  0  0  0  0  0  0  0  0  0
   10.4102  -14.9942   28.3775 O   0  0  0  0  0  0  0  0  0  0  0  0
  2  1  1  1
  2  3  1  0
  4  2  1  0
  5  6  1  6
  5  4  1  0
  7  5  1  0
  8  7  2  0
  9  7  1  0
 10 13  1  0
 10  9  1  0
 10 11  1  6
 12 11  1  0
 13 20  1  0
 14 13  2  0
 15 16  1  0
 16 17  1  0
 19 18  1  1
 18 17  1  0
 19 21  1  0
 20 19  1  0
 21 22  2  0
 21 23  1  0
M  END
$$$$
