LCM.pdb
     RDKit          3D

 23 22  0  0  1  0  0  0  0  0999 V2000
    8.4562  -12.3058   17.5337 C   0  0  0  0  0  0  0  0  0  0  0  0
    8.3426  -13.6207   18.2821 C   0  0  2  0  0  0  0  0  0  0  0  0
    6.8961  -13.7753   18.7300 C   0  0  0  0  0  0  0  0  0  0  0  0
    9.2586  -13.6755   19.4719 C   0  0  0  0  0  0  0  0  0  0  0  0
    9.1728  -15.0187   20.1290 C   0  0  2  0  0  0  0  0  0  0  0  0
    8.0604  -15.7448   19.5479 N   0  0  0  0  0  0  0  0  0  0  0  0
    9.0590  -14.9207   21.6024 C   0  0  0  0  0  0  0  0  0  0  0  0
    9.8943  -14.2240   22.2478 O   0  0  0  0  0  0  0  0  0  0  0  0
    8.0558  -15.5663   22.3757 N   0  0  0  0  0  0  0  0  0  0  0  0
    7.9003  -15.3910   23.8012 C   0  0  1  0  0  0  0  0  0  0  0  0
    6.4548  -15.2880   24.1650 C   0  0  0  0  0  0  0  0  0  0  0  0
    6.2162  -15.0578   25.9479 S   0  0  0  0  0  0  0  0  0  0  0  0
    8.6664  -16.3472   24.5937 C   0  0  0  0  0  0  0  0  0  0  0  0
    9.3230  -17.2505   23.9770 O   0  0  0  0  0  0  0  0  0  0  0  0
   10.2473  -13.0498   29.4558 C   0  0  0  0  0  0  0  0  0  0  0  0
   11.4338  -14.3424   29.9466 S   0  0  0  0  0  0  0  0  0  0  0  0
   11.3919  -15.5971   28.6054 C   0  0  0  0  0  0  0  0  0  0  0  0
   10.0925  -15.4890   27.8630 C   0  0  0  0  0  0  0  0  0  0  0  0
   10.0157  -16.4258   26.7390 C   0  0  2  0  0  0  0  0  0  0  0  0
    8.7552  -16.3725   26.0042 N   0  0  0  0  0  0  0  0  0  0  0  0
   10.4020  -17.7984   27.0613 C   0  0  0  0  0  0  0  0  0  0  0  0
   11.5168  -18.1145   27.4807 O   0  0  0  0  0  0  0  0  0  0  0  0
    9.4826  -18.8563   26.9000 O   0  0  0  0  0  0  0  0  0  0  0  0
  2  1  1  1
  2  3  1  0
  4  2  1  0
  5  6  1  6
  5  4  1  0
  7  5  1  0
  8  7  2  0
  9  7  1  0
 10 13  1  0
 10  9  1  0
 10 11  1  6
 12 11  1  0
 13 20  1  0
 14 13  2  0
 15 16  1  0
 16 17  1  0
 19 18  1  1
 18 17  1  0
 19 21  1  0
 20 19  1  0
 21 22  2  0
 21 23  1  0
M  END
$$$$
