LCM.pdb
     RDKit          3D

 23 22  0  0  1  0  0  0  0  0999 V2000
    9.7009  -13.4570   19.3080 C   0  0  0  0  0  0  0  0  0  0  0  0
    8.2837  -13.5711   18.7785 C   0  0  2  0  0  0  0  0  0  0  0  0
    7.6284  -12.2036   18.9105 C   0  0  0  0  0  0  0  0  0  0  0  0
    7.4822  -14.6001   19.5245 C   0  0  0  0  0  0  0  0  0  0  0  0
    8.2171  -15.9049   19.5553 C   0  0  2  0  0  0  0  0  0  0  0  0
    7.5326  -16.8390   18.6829 N   0  0  0  0  0  0  0  0  0  0  0  0
    8.3638  -16.4383   20.9292 C   0  0  0  0  0  0  0  0  0  0  0  0
    7.3399  -16.5708   21.6598 O   0  0  0  0  0  0  0  0  0  0  0  0
    9.6008  -16.8259   21.5131 N   0  0  0  0  0  0  0  0  0  0  0  0
    9.7431  -17.2637   22.8823 C   0  0  1  0  0  0  0  0  0  0  0  0
   10.9210  -18.1716   23.0257 C   0  0  0  0  0  0  0  0  0  0  0  0
   11.1364  -18.7430   24.7333 S   0  0  0  0  0  0  0  0  0  0  0  0
    9.6854  -16.1748   23.8520 C   0  0  0  0  0  0  0  0  0  0  0  0
   10.1141  -15.0276   23.4949 O   0  0  0  0  0  0  0  0  0  0  0  0
    6.1881  -10.9645   27.8740 C   0  0  0  0  0  0  0  0  0  0  0  0
    6.2459  -12.2443   26.5786 S   0  0  0  0  0  0  0  0  0  0  0  0
    7.7783  -13.2075   26.8932 C   0  0  0  0  0  0  0  0  0  0  0  0
    7.8871  -14.3133   25.8848 C   0  0  0  0  0  0  0  0  0  0  0  0
    9.0875  -15.1296   26.0834 C   0  0  2  0  0  0  0  0  0  0  0  0
    9.1920  -16.2665   25.1735 N   0  0  0  0  0  0  0  0  0  0  0  0
    9.3401  -15.5157   27.4706 C   0  0  0  0  0  0  0  0  0  0  0  0
    9.3548  -14.7187   28.4105 O   0  0  0  0  0  0  0  0  0  0  0  0
    9.5866  -16.8643   27.8037 O   0  0  0  0  0  0  0  0  0  0  0  0
  2  1  1  1
  2  3  1  0
  4  2  1  0
  5  6  1  6
  5  4  1  0
  7  5  1  0
  8  7  2  0
  9  7  1  0
 10 13  1  0
 10  9  1  0
 10 11  1  6
 12 11  1  0
 13 20  1  0
 14 13  2  0
 15 16  1  0
 16 17  1  0
 19 18  1  1
 18 17  1  0
 19 21  1  0
 20 19  1  0
 21 22  2  0
 21 23  1  0
M  END
$$$$
