MEI.pdb
     RDKit          3D

 26 25  0  0  1  0  0  0  0  0999 V2000
    8.1256  -11.3295   19.9949 C   0  0  0  0  0  0  0  0  0  0  0  0
    8.0153  -12.0821   18.3427 S   0  0  0  0  0  0  0  0  0  0  0  0
    7.7687  -13.8526   18.5736 C   0  0  0  0  0  0  0  0  0  0  0  0
    7.9425  -14.2655   20.0236 C   0  0  0  0  0  0  0  0  0  0  0  0
    7.8791  -15.7735   20.0539 C   0  0  2  0  0  0  0  0  0  0  0  0
    6.5777  -16.1801   19.5774 N   0  0  0  0  0  0  0  0  0  0  0  0
    8.1220  -16.3495   21.3699 C   0  0  0  0  0  0  0  0  0  0  0  0
    7.2049  -16.5483   22.1753 O   0  0  0  0  0  0  0  0  0  0  0  0
    9.4405  -16.6928   21.7438 N   0  0  0  0  0  0  0  0  0  0  0  0
    9.8129  -17.2086   23.0615 C   0  0  1  0  0  0  0  0  0  0  0  0
   11.1058  -17.9346   23.0123 C   0  0  0  0  0  0  0  0  0  0  0  0
   11.5309  -18.3757   24.3796 C   0  0  0  0  0  0  0  0  0  0  0  0
   12.7995  -19.1579   24.2758 C   0  0  0  0  0  0  0  0  0  0  0  0
   13.8863  -18.5596   24.3335 O   0  0  0  0  0  0  0  0  0  0  0  0
    9.7667  -16.0483   23.9678 C   0  0  0  0  0  0  0  0  0  0  0  0
   10.4661  -15.0330   23.7638 O   0  0  0  0  0  0  0  0  0  0  0  0
   12.7384  -20.5197   24.1188 O   0  0  0  0  0  0  0  0  0  0  0  0
    6.4741  -11.9539   26.4647 C   0  0  0  0  0  0  0  0  0  0  0  0
    7.7615  -12.7513   26.7147 C   0  0  0  0  0  0  0  0  0  0  0  0
    7.8414  -13.9301   25.8179 C   0  0  2  0  0  0  0  0  0  0  0  0
    6.5389  -14.7303   25.9614 C   0  0  0  0  0  0  0  0  0  0  0  0
    8.9762  -14.8815   26.0844 C   0  0  2  0  0  0  0  0  0  0  0  0
    8.9275  -16.0067   25.1312 N   0  0  0  0  0  0  0  0  0  0  0  0
    9.0304  -15.3693   27.4634 C   0  0  0  0  0  0  0  0  0  0  0  0
    8.8210  -16.5608   27.7488 O   0  0  0  0  0  0  0  0  0  0  0  0
    9.3220  -14.4876   28.4855 O   0  0  0  0  0  0  0  0  0  0  0  0
  2  1  1  0
  3  4  1  0
  3  2  1  0
  4  5  1  0
  5  6  1  1
  7  5  1  0
  7  8  2  0
  9  7  1  0
 10  9  1  0
 11 12  1  0
 10 11  1  6
 12 13  1  0
 13 14  2  0
 15 10  1  0
 16 15  2  0
 17 13  1  0
 19 18  1  0
 20 19  1  0
 20 21  1  1
 22 20  1  0
 22 23  1  6
 23 15  1  0
 24 22  1  0
 25 24  2  0
 26 24  1  0
M  END
$$$$
