MEI.pdb
     RDKit          3D

 26 25  0  0  1  0  0  0  0  0999 V2000
    8.3772  -11.4056   19.7813 C   0  0  0  0  0  0  0  0  0  0  0  0
    7.6654  -12.1941   18.3048 S   0  0  0  0  0  0  0  0  0  0  0  0
    7.6040  -13.9679   18.6193 C   0  0  0  0  0  0  0  0  0  0  0  0
    7.7796  -14.2897   20.0919 C   0  0  0  0  0  0  0  0  0  0  0  0
    7.6888  -15.7911   20.2198 C   0  0  2  0  0  0  0  0  0  0  0  0
    6.3622  -16.1986   19.8197 N   0  0  0  0  0  0  0  0  0  0  0  0
    7.9721  -16.2889   21.5594 C   0  0  0  0  0  0  0  0  0  0  0  0
    7.1043  -16.3258   22.4396 O   0  0  0  0  0  0  0  0  0  0  0  0
    9.2733  -16.7438   21.8691 N   0  0  0  0  0  0  0  0  0  0  0  0
    9.6847  -17.2193   23.1904 C   0  0  1  0  0  0  0  0  0  0  0  0
   10.9537  -17.9845   23.1187 C   0  0  0  0  0  0  0  0  0  0  0  0
   11.4008  -18.4195   24.4809 C   0  0  0  0  0  0  0  0  0  0  0  0
   12.6790  -19.1838   24.3623 C   0  0  0  0  0  0  0  0  0  0  0  0
   13.7584  -18.5774   24.4590 O   0  0  0  0  0  0  0  0  0  0  0  0
    9.7080  -16.0241   24.0511 C   0  0  0  0  0  0  0  0  0  0  0  0
   10.3879  -15.0188   23.7532 O   0  0  0  0  0  0  0  0  0  0  0  0
   12.6345  -20.5386   24.1489 O   0  0  0  0  0  0  0  0  0  0  0  0
    6.4454  -11.9144   26.5982 C   0  0  0  0  0  0  0  0  0  0  0  0
    7.7133  -12.7281   26.8906 C   0  0  0  0  0  0  0  0  0  0  0  0
    7.8012  -13.9152   26.0055 C   0  0  2  0  0  0  0  0  0  0  0  0
    6.6059  -14.8293   26.3100 C   0  0  0  0  0  0  0  0  0  0  0  0
    9.0444  -14.7505   26.1496 C   0  0  2  0  0  0  0  0  0  0  0  0
    8.9622  -15.9352   25.2740 N   0  0  0  0  0  0  0  0  0  0  0  0
    9.3398  -15.1419   27.5288 C   0  0  0  0  0  0  0  0  0  0  0  0
    9.5263  -14.3021   28.4258 O   0  0  0  0  0  0  0  0  0  0  0  0
    9.4160  -16.4820   27.8537 O   0  0  0  0  0  0  0  0  0  0  0  0
  2  1  1  0
  3  4  1  0
  3  2  1  0
  4  5  1  0
  5  6  1  1
  7  5  1  0
  7  8  2  0
  9  7  1  0
 10  9  1  0
 11 12  1  0
 10 11  1  6
 12 13  1  0
 13 14  2  0
 15 10  1  0
 16 15  2  0
 17 13  1  0
 19 18  1  0
 20 19  1  0
 20 21  1  1
 22 20  1  0
 22 23  1  6
 23 15  1  0
 24 22  1  0
 25 24  2  0
 26 24  1  0
M  END
$$$$
