MEI.pdb
     RDKit          3D

 26 25  0  0  1  0  0  0  0  0999 V2000
    8.9930  -11.4942   20.1722 C   0  0  0  0  0  0  0  0  0  0  0  0
    7.9900  -12.2451   18.8537 S   0  0  0  0  0  0  0  0  0  0  0  0
    8.0635  -14.0325   19.0738 C   0  0  0  0  0  0  0  0  0  0  0  0
    7.9097  -14.4318   20.5298 C   0  0  0  0  0  0  0  0  0  0  0  0
    8.2090  -15.9095   20.6064 C   0  0  2  0  0  0  0  0  0  0  0  0
    7.2077  -16.6131   19.8393 N   0  0  0  0  0  0  0  0  0  0  0  0
    8.2464  -16.4359   21.9644 C   0  0  0  0  0  0  0  0  0  0  0  0
    7.2156  -16.6195   22.6225 O   0  0  0  0  0  0  0  0  0  0  0  0
    9.4925  -16.7473   22.5531 N   0  0  0  0  0  0  0  0  0  0  0  0
    9.6527  -17.2627   23.9132 C   0  0  1  0  0  0  0  0  0  0  0  0
   10.6558  -18.3547   23.9629 C   0  0  0  0  0  0  0  0  0  0  0  0
   10.1292  -19.6025   23.3222 C   0  0  0  0  0  0  0  0  0  0  0  0
   11.1853  -20.6587   23.3526 C   0  0  0  0  0  0  0  0  0  0  0  0
   11.0277  -21.6920   22.6818 O   0  0  0  0  0  0  0  0  0  0  0  0
    9.9479  -16.0865   24.7495 C   0  0  0  0  0  0  0  0  0  0  0  0
   10.8708  -15.2953   24.4599 O   0  0  0  0  0  0  0  0  0  0  0  0
   12.3063  -20.4664   24.1201 O   0  0  0  0  0  0  0  0  0  0  0  0
    6.2887  -12.7969   26.6243 C   0  0  0  0  0  0  0  0  0  0  0  0
    7.6636  -13.2789   26.1418 C   0  0  0  0  0  0  0  0  0  0  0  0
    8.4446  -13.8665   27.2576 C   0  0  2  0  0  0  0  0  0  0  0  0
    8.9752  -12.7182   28.1277 C   0  0  0  0  0  0  0  0  0  0  0  0
    9.6299  -14.7034   26.8595 C   0  0  2  0  0  0  0  0  0  0  0  0
    9.2060  -15.7747   25.9377 N   0  0  0  0  0  0  0  0  0  0  0  0
   10.3740  -15.2557   27.9925 C   0  0  0  0  0  0  0  0  0  0  0  0
   10.2764  -16.4492   28.3252 O   0  0  0  0  0  0  0  0  0  0  0  0
   11.2124  -14.4344   28.7205 O   0  0  0  0  0  0  0  0  0  0  0  0
  2  1  1  0
  3  4  1  0
  3  2  1  0
  4  5  1  0
  5  6  1  6
  7  5  1  0
  7  8  2  0
  9  7  1  0
 10  9  1  0
 11 12  1  0
 10 11  1  6
 12 13  1  0
 13 14  2  0
 15 10  1  0
 16 15  2  0
 17 13  1  0
 19 18  1  0
 20 19  1  0
 20 21  1  1
 22 20  1  0
 22 23  1  6
 23 15  1  0
 24 22  1  0
 25 24  2  0
 26 24  1  0
M  END
$$$$
