MEI.pdb
     RDKit          3D

 26 25  0  0  1  0  0  0  0  0999 V2000
    9.2403  -12.1147   18.3403 C   0  0  0  0  0  0  0  0  0  0  0  0
    7.6388  -12.2340   19.1945 S   0  0  0  0  0  0  0  0  0  0  0  0
    7.4327  -13.9477   19.7136 C   0  0  0  0  0  0  0  0  0  0  0  0
    8.6993  -14.7586   19.5105 C   0  0  0  0  0  0  0  0  0  0  0  0
    8.3822  -16.1702   19.9413 C   0  0  2  0  0  0  0  0  0  0  0  0
    7.1829  -16.5925   19.2560 N   0  0  0  0  0  0  0  0  0  0  0  0
    8.2060  -16.3245   21.3793 C   0  0  0  0  0  0  0  0  0  0  0  0
    7.1146  -16.1319   21.9280 O   0  0  0  0  0  0  0  0  0  0  0  0
    9.3091  -16.7043   22.1761 N   0  0  0  0  0  0  0  0  0  0  0  0
    9.2261  -17.0003   23.6066 C   0  0  1  0  0  0  0  0  0  0  0  0
   10.2236  -18.0235   24.0057 C   0  0  0  0  0  0  0  0  0  0  0  0
    9.9525  -19.3346   23.3331 C   0  0  0  0  0  0  0  0  0  0  0  0
   11.0467  -20.2966   23.6634 C   0  0  0  0  0  0  0  0  0  0  0  0
   11.7578  -20.7424   22.7480 O   0  0  0  0  0  0  0  0  0  0  0  0
    9.3399  -15.6988   24.2870 C   0  0  0  0  0  0  0  0  0  0  0  0
   10.1702  -14.8406   23.9188 O   0  0  0  0  0  0  0  0  0  0  0  0
   11.2434  -20.6680   24.9696 O   0  0  0  0  0  0  0  0  0  0  0  0
    5.5289  -12.6934   27.4167 C   0  0  0  0  0  0  0  0  0  0  0  0
    6.3699  -13.7635   26.7075 C   0  0  0  0  0  0  0  0  0  0  0  0
    7.6676  -13.2072   26.2525 C   0  0  2  0  0  0  0  0  0  0  0  0
    7.4946  -12.7045   24.8122 C   0  0  0  0  0  0  0  0  0  0  0  0
    8.8275  -14.1655   26.2499 C   0  0  2  0  0  0  0  0  0  0  0  0
    8.5164  -15.3340   25.4043 N   0  0  0  0  0  0  0  0  0  0  0  0
    9.2517  -14.5877   27.5857 C   0  0  0  0  0  0  0  0  0  0  0  0
    9.1866  -15.7733   27.9530 O   0  0  0  0  0  0  0  0  0  0  0  0
    9.7405  -13.6484   28.4723 O   0  0  0  0  0  0  0  0  0  0  0  0
  2  1  1  0
  3  4  1  0
  3  2  1  0
  4  5  1  0
  5  6  1  6
  7  5  1  0
  7  8  2  0
  9  7  1  0
 10  9  1  0
 11 12  1  0
 10 11  1  1
 12 13  1  0
 13 14  2  0
 15 10  1  0
 16 15  2  0
 17 13  1  0
 19 18  1  0
 20 19  1  0
 20 21  1  6
 22 20  1  0
 22 23  1  6
 23 15  1  0
 24 22  1  0
 25 24  2  0
 26 24  1  0
M  END
$$$$
