MEI.pdb
     RDKit          3D

 26 25  0  0  1  0  0  0  0  0999 V2000
    8.0040  -11.3881   19.9458 C   0  0  0  0  0  0  0  0  0  0  0  0
    7.1464  -12.2534   18.5951 S   0  0  0  0  0  0  0  0  0  0  0  0
    7.6366  -13.9863   18.6699 C   0  0  0  0  0  0  0  0  0  0  0  0
    7.9001  -14.4407   20.0937 C   0  0  0  0  0  0  0  0  0  0  0  0
    8.2733  -15.9015   20.0188 C   0  0  2  0  0  0  0  0  0  0  0  0
    7.1719  -16.6186   19.4199 N   0  0  0  0  0  0  0  0  0  0  0  0
    8.6023  -16.4949   21.3081 C   0  0  0  0  0  0  0  0  0  0  0  0
    7.7794  -17.1567   21.9516 O   0  0  0  0  0  0  0  0  0  0  0  0
    9.8963  -16.3127   21.8452 N   0  0  0  0  0  0  0  0  0  0  0  0
   10.3577  -16.9116   23.0980 C   0  0  1  0  0  0  0  0  0  0  0  0
   11.7482  -17.4147   22.9768 C   0  0  0  0  0  0  0  0  0  0  0  0
   11.8498  -18.4754   21.9236 C   0  0  0  0  0  0  0  0  0  0  0  0
   13.2697  -18.9254   21.8089 C   0  0  0  0  0  0  0  0  0  0  0  0
   13.7509  -19.1304   20.6825 O   0  0  0  0  0  0  0  0  0  0  0  0
   10.1383  -15.8850   24.1313 C   0  0  0  0  0  0  0  0  0  0  0  0
   10.2818  -14.6686   23.8832 O   0  0  0  0  0  0  0  0  0  0  0  0
   14.0125  -19.1033   22.9488 O   0  0  0  0  0  0  0  0  0  0  0  0
    6.7614  -12.4569   26.5776 C   0  0  0  0  0  0  0  0  0  0  0  0
    8.0518  -13.1694   27.0051 C   0  0  0  0  0  0  0  0  0  0  0  0
    8.3816  -14.2782   26.0766 C   0  0  2  0  0  0  0  0  0  0  0  0
    7.1431  -15.1758   25.9434 C   0  0  0  0  0  0  0  0  0  0  0  0
    9.5260  -15.1628   26.4913 C   0  0  2  0  0  0  0  0  0  0  0  0
    9.7512  -16.2083   25.4749 N   0  0  0  0  0  0  0  0  0  0  0  0
    9.3672  -15.7546   27.8207 C   0  0  0  0  0  0  0  0  0  0  0  0
    9.4519  -15.0751   28.8580 O   0  0  0  0  0  0  0  0  0  0  0  0
    9.1158  -17.1075   27.9369 O   0  0  0  0  0  0  0  0  0  0  0  0
  2  1  1  0
  3  4  1  0
  3  2  1  0
  4  5  1  0
  5  6  1  1
  7  5  1  0
  7  8  2  0
  9  7  1  0
 10  9  1  0
 11 12  1  0
 10 11  1  6
 12 13  1  0
 13 14  2  0
 15 10  1  0
 16 15  2  0
 17 13  1  0
 19 18  1  0
 20 19  1  0
 20 21  1  1
 22 20  1  0
 22 23  1  6
 23 15  1  0
 24 22  1  0
 25 24  2  0
 26 24  1  0
M  END
$$$$
