MEI.pdb
     RDKit          3D

 26 25  0  0  1  0  0  0  0  0999 V2000
    8.4960  -11.4590   19.2656 C   0  0  0  0  0  0  0  0  0  0  0  0
    7.2344  -12.7252   18.9288 S   0  0  0  0  0  0  0  0  0  0  0  0
    7.8391  -14.2811   19.6086 C   0  0  0  0  0  0  0  0  0  0  0  0
    9.3140  -14.2122   19.9593 C   0  0  0  0  0  0  0  0  0  0  0  0
    9.7095  -15.5887   20.4363 C   0  0  2  0  0  0  0  0  0  0  0  0
    9.2197  -16.5552   19.4813 N   0  0  0  0  0  0  0  0  0  0  0  0
    9.2146  -15.9187   21.7663 C   0  0  0  0  0  0  0  0  0  0  0  0
    8.1410  -15.4768   22.1921 O   0  0  0  0  0  0  0  0  0  0  0  0
    9.9781  -16.7669   22.5993 N   0  0  0  0  0  0  0  0  0  0  0  0
    9.5231  -17.2729   23.8947 C   0  0  1  0  0  0  0  0  0  0  0  0
   10.1086  -18.6034   24.1913 C   0  0  0  0  0  0  0  0  0  0  0  0
    9.7767  -19.5924   23.1159 C   0  0  0  0  0  0  0  0  0  0  0  0
   10.8656  -20.6113   23.0265 C   0  0  0  0  0  0  0  0  0  0  0  0
   11.2654  -21.1631   24.0649 O   0  0  0  0  0  0  0  0  0  0  0  0
    9.8321  -16.2089   24.8654 C   0  0  0  0  0  0  0  0  0  0  0  0
   10.8923  -15.5508   24.7965 O   0  0  0  0  0  0  0  0  0  0  0  0
   11.4016  -20.9164   21.8007 O   0  0  0  0  0  0  0  0  0  0  0  0
    6.0975  -12.7145   26.6436 C   0  0  0  0  0  0  0  0  0  0  0  0
    7.4236  -13.3387   26.1882 C   0  0  0  0  0  0  0  0  0  0  0  0
    8.1034  -14.0264   27.3130 C   0  0  2  0  0  0  0  0  0  0  0  0
    8.5673  -12.9605   28.3160 C   0  0  0  0  0  0  0  0  0  0  0  0
    9.3119  -14.8449   26.9475 C   0  0  2  0  0  0  0  0  0  0  0  0
    8.9489  -15.8617   25.9419 N   0  0  0  0  0  0  0  0  0  0  0  0
    9.9799  -15.4621   28.0944 C   0  0  0  0  0  0  0  0  0  0  0  0
    9.8536  -16.6701   28.3579 O   0  0  0  0  0  0  0  0  0  0  0  0
   10.7765  -14.6878   28.9148 O   0  0  0  0  0  0  0  0  0  0  0  0
  2  1  1  0
  3  4  1  0
  3  2  1  0
  4  5  1  0
  5  6  1  6
  7  5  1  0
  7  8  2  0
  9  7  1  0
 10  9  1  0
 11 12  1  0
 10 11  1  1
 12 13  1  0
 13 14  2  0
 15 10  1  0
 16 15  2  0
 17 13  1  0
 19 18  1  0
 20 19  1  0
 20 21  1  1
 22 20  1  0
 22 23  1  6
 23 15  1  0
 24 22  1  0
 25 24  2  0
 26 24  1  0
M  END
$$$$
