MEI.pdb
     RDKit          3D

 26 25  0  0  1  0  0  0  0  0999 V2000
    6.5908  -11.5252   24.7966 C   0  0  0  0  0  0  0  0  0  0  0  0
    6.1044  -12.8895   25.8968 S   0  0  0  0  0  0  0  0  0  0  0  0
    6.3437  -14.4263   24.9859 C   0  0  0  0  0  0  0  0  0  0  0  0
    7.0598  -14.1989   23.6674 C   0  0  0  0  0  0  0  0  0  0  0  0
    7.2587  -15.5591   23.0437 C   0  0  2  0  0  0  0  0  0  0  0  0
    6.0132  -16.2845   23.1364 N   0  0  0  0  0  0  0  0  0  0  0  0
    8.3275  -16.3391   23.6536 C   0  0  0  0  0  0  0  0  0  0  0  0
    8.0970  -17.2249   24.4851 O   0  0  0  0  0  0  0  0  0  0  0  0
    9.6682  -16.0812   23.2899 N   0  0  0  0  0  0  0  0  0  0  0  0
   10.8129  -16.8572   23.7679 C   0  0  1  0  0  0  0  0  0  0  0  0
   11.9159  -16.8608   22.7756 C   0  0  0  0  0  0  0  0  0  0  0  0
   11.7271  -17.9471   21.7611 C   0  0  0  0  0  0  0  0  0  0  0  0
   12.6935  -17.7503   20.6389 C   0  0  0  0  0  0  0  0  0  0  0  0
   13.7328  -17.1012   20.8414 O   0  0  0  0  0  0  0  0  0  0  0  0
   11.1455  -16.2981   25.0895 C   0  0  0  0  0  0  0  0  0  0  0  0
   11.8345  -15.2620   25.2049 O   0  0  0  0  0  0  0  0  0  0  0  0
   12.4135  -18.2897   19.4086 O   0  0  0  0  0  0  0  0  0  0  0  0
    9.2397  -13.0625   27.8332 C   0  0  0  0  0  0  0  0  0  0  0  0
   10.3371  -14.0319   27.3735 C   0  0  0  0  0  0  0  0  0  0  0  0
   10.2655  -15.3115   28.1203 C   0  0  2  0  0  0  0  0  0  0  0  0
   10.6437  -15.0346   29.5823 C   0  0  0  0  0  0  0  0  0  0  0  0
   11.1706  -16.4089   27.6299 C   0  0  2  0  0  0  0  0  0  0  0  0
   10.7072  -16.8982   26.3173 N   0  0  0  0  0  0  0  0  0  0  0  0
   11.3251  -17.5171   28.5736 C   0  0  0  0  0  0  0  0  0  0  0  0
   12.0757  -17.4407   29.5614 O   0  0  0  0  0  0  0  0  0  0  0  0
   10.6205  -18.6871   28.3696 O   0  0  0  0  0  0  0  0  0  0  0  0
  2  1  1  0
  3  4  1  0
  3  2  1  0
  4  5  1  0
  5  6  1  1
  7  5  1  0
  7  8  2  0
  9  7  1  0
 10  9  1  0
 11 12  1  0
 10 11  1  6
 12 13  1  0
 13 14  2  0
 15 10  1  0
 16 15  2  0
 17 13  1  0
 19 18  1  0
 20 19  1  0
 20 21  1  1
 22 20  1  0
 22 23  1  6
 23 15  1  0
 24 22  1  0
 25 24  2  0
 26 24  1  0
M  END
$$$$
