MEI.pdb
     RDKit          3D

 26 25  0  0  1  0  0  0  0  0999 V2000
    7.8817  -11.8284   20.7762 C   0  0  0  0  0  0  0  0  0  0  0  0
    7.5758  -12.6049   19.1601 S   0  0  0  0  0  0  0  0  0  0  0  0
    8.0441  -14.3398   19.2998 C   0  0  0  0  0  0  0  0  0  0  0  0
    8.1645  -14.7804   20.7470 C   0  0  0  0  0  0  0  0  0  0  0  0
    8.5073  -16.2504   20.7239 C   0  0  2  0  0  0  0  0  0  0  0  0
    7.4520  -16.9489   20.0278 N   0  0  0  0  0  0  0  0  0  0  0  0
    8.6945  -16.8350   22.0452 C   0  0  0  0  0  0  0  0  0  0  0  0
    7.8318  -17.5469   22.5727 O   0  0  0  0  0  0  0  0  0  0  0  0
    9.8932  -16.5855   22.7502 N   0  0  0  0  0  0  0  0  0  0  0  0
   10.1658  -17.0686   24.1042 C   0  0  1  0  0  0  0  0  0  0  0  0
   11.3069  -18.0166   24.1205 C   0  0  0  0  0  0  0  0  0  0  0  0
   11.6816  -18.4361   22.7318 C   0  0  0  0  0  0  0  0  0  0  0  0
   13.1598  -18.6389   22.6573 C   0  0  0  0  0  0  0  0  0  0  0  0
   13.6024  -19.7463   22.3106 O   0  0  0  0  0  0  0  0  0  0  0  0
   10.3286  -15.8597   24.9300 C   0  0  0  0  0  0  0  0  0  0  0  0
   11.3152  -15.1048   24.7940 O   0  0  0  0  0  0  0  0  0  0  0  0
   13.9976  -17.5992   22.9733 O   0  0  0  0  0  0  0  0  0  0  0  0
    6.4506  -12.3949   27.2192 C   0  0  0  0  0  0  0  0  0  0  0  0
    7.3111  -13.6621   27.1228 C   0  0  0  0  0  0  0  0  0  0  0  0
    8.7372  -13.3226   26.8967 C   0  0  2  0  0  0  0  0  0  0  0  0
    8.8673  -12.7100   25.4949 C   0  0  0  0  0  0  0  0  0  0  0  0
    9.7047  -14.4727   26.9679 C   0  0  2  0  0  0  0  0  0  0  0  0
    9.3785  -15.4731   25.9336 N   0  0  0  0  0  0  0  0  0  0  0  0
    9.7875  -15.0977   28.2889 C   0  0  0  0  0  0  0  0  0  0  0  0
    9.4532  -16.2795   28.4801 O   0  0  0  0  0  0  0  0  0  0  0  0
   10.2495  -14.3611   29.3618 O   0  0  0  0  0  0  0  0  0  0  0  0
  2  1  1  0
  3  4  1  0
  3  2  1  0
  4  5  1  0
  5  6  1  1
  7  5  1  0
  7  8  2  0
  9  7  1  0
 10  9  1  0
 11 12  1  0
 10 11  1  6
 12 13  1  0
 13 14  2  0
 15 10  1  0
 16 15  2  0
 17 13  1  0
 19 18  1  0
 20 19  1  0
 20 21  1  6
 22 20  1  0
 22 23  1  6
 23 15  1  0
 24 22  1  0
 25 24  2  0
 26 24  1  0
M  END
$$$$
