MEI.pdb
     RDKit          3D

 26 25  0  0  1  0  0  0  0  0999 V2000
   15.3219  -15.5770   24.4162 C   0  0  0  0  0  0  0  0  0  0  0  0
   15.7600  -17.0509   23.4445 S   0  0  0  0  0  0  0  0  0  0  0  0
   15.1891  -16.7722   21.7578 C   0  0  0  0  0  0  0  0  0  0  0  0
   13.9173  -15.9451   21.7184 C   0  0  0  0  0  0  0  0  0  0  0  0
   12.8333  -16.7897   22.3432 C   0  0  2  0  0  0  0  0  0  0  0  0
   12.6186  -17.9436   21.5015 N   0  0  0  0  0  0  0  0  0  0  0  0
   11.5735  -16.0846   22.5400 C   0  0  0  0  0  0  0  0  0  0  0  0
   11.5318  -14.9387   23.0029 O   0  0  0  0  0  0  0  0  0  0  0  0
   10.3610  -16.7223   22.1949 N   0  0  0  0  0  0  0  0  0  0  0  0
    9.0556  -16.0612   22.1961 C   0  0  1  0  0  0  0  0  0  0  0  0
    8.0481  -16.8524   21.4477 C   0  0  0  0  0  0  0  0  0  0  0  0
    8.3732  -16.8978   19.9858 C   0  0  0  0  0  0  0  0  0  0  0  0
    7.3466  -17.7183   19.2753 C   0  0  0  0  0  0  0  0  0  0  0  0
    7.1977  -18.9097   19.5929 O   0  0  0  0  0  0  0  0  0  0  0  0
    8.7428  -15.8062   23.6128 C   0  0  0  0  0  0  0  0  0  0  0  0
    9.2494  -16.4921   24.5263 O   0  0  0  0  0  0  0  0  0  0  0  0
    6.5903  -17.1400   18.2872 O   0  0  0  0  0  0  0  0  0  0  0  0
    6.0448  -11.0264   25.1773 C   0  0  0  0  0  0  0  0  0  0  0  0
    7.0913  -12.1473   25.1148 C   0  0  0  0  0  0  0  0  0  0  0  0
    6.5260  -13.4321   25.5945 C   0  0  2  0  0  0  0  0  0  0  0  0
    6.2179  -13.2904   27.0919 C   0  0  0  0  0  0  0  0  0  0  0  0
    7.4121  -14.6380   25.4378 C   0  0  2  0  0  0  0  0  0  0  0  0
    7.8463  -14.7676   24.0336 N   0  0  0  0  0  0  0  0  0  0  0  0
    6.8086  -15.8839   25.9133 C   0  0  0  0  0  0  0  0  0  0  0  0
    5.9697  -16.5075   25.2408 O   0  0  0  0  0  0  0  0  0  0  0  0
    7.1751  -16.3902   27.1447 O   0  0  0  0  0  0  0  0  0  0  0  0
  2  1  1  0
  3  4  1  0
  3  2  1  0
  4  5  1  0
  5  6  1  6
  7  5  1  0
  7  8  2  0
  9  7  1  0
 10  9  1  0
 11 12  1  0
 10 11  1  1
 12 13  1  0
 13 14  2  0
 15 10  1  0
 16 15  2  0
 17 13  1  0
 19 18  1  0
 20 19  1  0
 20 21  1  1
 22 20  1  0
 22 23  1  6
 23 15  1  0
 24 22  1  0
 25 24  2  0
 26 24  1  0
M  END
$$$$
