MEI.pdb
     RDKit          3D

 26 25  0  0  1  0  0  0  0  0999 V2000
    7.8953  -11.3389   20.2305 C   0  0  0  0  0  0  0  0  0  0  0  0
    7.3165  -12.1201   18.6933 S   0  0  0  0  0  0  0  0  0  0  0  0
    7.2265  -13.8951   18.9930 C   0  0  0  0  0  0  0  0  0  0  0  0
    7.4136  -14.2332   20.4606 C   0  0  0  0  0  0  0  0  0  0  0  0
    7.2441  -15.7281   20.5846 C   0  0  2  0  0  0  0  0  0  0  0  0
    5.8377  -16.0342   20.4650 N   0  0  0  0  0  0  0  0  0  0  0  0
    7.7627  -16.2811   21.8287 C   0  0  0  0  0  0  0  0  0  0  0  0
    7.0377  -16.4675   22.8130 O   0  0  0  0  0  0  0  0  0  0  0  0
    9.1323  -16.6159   21.9208 N   0  0  0  0  0  0  0  0  0  0  0  0
    9.7876  -17.0641   23.1499 C   0  0  1  0  0  0  0  0  0  0  0  0
   11.1195  -17.6539   22.8683 C   0  0  0  0  0  0  0  0  0  0  0  0
   11.7819  -18.1206   24.1285 C   0  0  0  0  0  0  0  0  0  0  0  0
   13.1000  -18.7399   23.7954 C   0  0  0  0  0  0  0  0  0  0  0  0
   13.8623  -19.0740   24.7172 O   0  0  0  0  0  0  0  0  0  0  0  0
    9.7836  -15.8969   24.0485 C   0  0  0  0  0  0  0  0  0  0  0  0
   10.1984  -14.7807   23.6697 O   0  0  0  0  0  0  0  0  0  0  0  0
   13.4416  -18.9265   22.4796 O   0  0  0  0  0  0  0  0  0  0  0  0
    6.6697  -12.0201   26.5859 C   0  0  0  0  0  0  0  0  0  0  0  0
    8.0778  -12.6156   26.7208 C   0  0  0  0  0  0  0  0  0  0  0  0
    8.2288  -13.8248   25.8751 C   0  0  2  0  0  0  0  0  0  0  0  0
    6.9062  -14.6038   25.9125 C   0  0  0  0  0  0  0  0  0  0  0  0
    9.3163  -14.7805   26.2848 C   0  0  2  0  0  0  0  0  0  0  0  0
    9.3104  -15.9624   25.4017 N   0  0  0  0  0  0  0  0  0  0  0  0
    9.2555  -15.1812   27.6914 C   0  0  0  0  0  0  0  0  0  0  0  0
    9.2852  -14.3495   28.6146 O   0  0  0  0  0  0  0  0  0  0  0  0
    9.1623  -16.5209   28.0132 O   0  0  0  0  0  0  0  0  0  0  0  0
  2  1  1  0
  3  4  1  0
  3  2  1  0
  4  5  1  0
  5  6  1  1
  7  5  1  0
  7  8  2  0
  9  7  1  0
 10  9  1  0
 11 12  1  0
 10 11  1  6
 12 13  1  0
 13 14  2  0
 15 10  1  0
 16 15  2  0
 17 13  1  0
 19 18  1  0
 20 19  1  0
 20 21  1  1
 22 20  1  0
 22 23  1  6
 23 15  1  0
 24 22  1  0
 25 24  2  0
 26 24  1  0
M  END
$$$$
