MEI.pdb
     RDKit          3D

 26 25  0  0  1  0  0  0  0  0999 V2000
    6.8617  -11.7116   26.2287 C   0  0  0  0  0  0  0  0  0  0  0  0
    5.2432  -12.5402   26.1790 S   0  0  0  0  0  0  0  0  0  0  0  0
    5.4283  -14.0215   25.1690 C   0  0  0  0  0  0  0  0  0  0  0  0
    6.8034  -14.6450   25.3226 C   0  0  0  0  0  0  0  0  0  0  0  0
    6.8291  -15.8603   24.4275 C   0  0  2  0  0  0  0  0  0  0  0  0
    5.8130  -16.7792   24.8849 N   0  0  0  0  0  0  0  0  0  0  0  0
    8.1190  -16.5363   24.3847 C   0  0  0  0  0  0  0  0  0  0  0  0
    8.3078  -17.6196   24.9504 O   0  0  0  0  0  0  0  0  0  0  0  0
    9.1895  -15.9431   23.6788 N   0  0  0  0  0  0  0  0  0  0  0  0
   10.5352  -16.5119   23.5971 C   0  0  1  0  0  0  0  0  0  0  0  0
   11.2943  -15.9429   22.4565 C   0  0  0  0  0  0  0  0  0  0  0  0
   10.7481  -16.4267   21.1480 C   0  0  0  0  0  0  0  0  0  0  0  0
   11.4606  -17.6766   20.7454 C   0  0  0  0  0  0  0  0  0  0  0  0
   11.1552  -18.2302   19.6764 O   0  0  0  0  0  0  0  0  0  0  0  0
   11.1329  -16.3061   24.9276 C   0  0  0  0  0  0  0  0  0  0  0  0
   11.8507  -15.3132   25.1737 O   0  0  0  0  0  0  0  0  0  0  0  0
   12.4364  -18.1873   21.5638 O   0  0  0  0  0  0  0  0  0  0  0  0
    9.7856  -13.2936   27.7378 C   0  0  0  0  0  0  0  0  0  0  0  0
   10.7608  -14.3799   27.2641 C   0  0  0  0  0  0  0  0  0  0  0  0
   10.4193  -15.6973   27.8541 C   0  0  2  0  0  0  0  0  0  0  0  0
   10.5673  -15.5923   29.3786 C   0  0  0  0  0  0  0  0  0  0  0  0
   11.2679  -16.8565   27.4065 C   0  0  2  0  0  0  0  0  0  0  0  0
   10.9346  -17.2202   26.0160 N   0  0  0  0  0  0  0  0  0  0  0  0
   11.1868  -18.0252   28.2841 C   0  0  0  0  0  0  0  0  0  0  0  0
   10.4160  -18.9718   28.0502 O   0  0  0  0  0  0  0  0  0  0  0  0
   11.9862  -18.0879   29.4084 O   0  0  0  0  0  0  0  0  0  0  0  0
  2  1  1  0
  3  4  1  0
  3  2  1  0
  4  5  1  0
  5  6  1  1
  7  5  1  0
  7  8  2  0
  9  7  1  0
 10  9  1  0
 11 12  1  0
 10 11  1  6
 12 13  1  0
 13 14  2  0
 15 10  1  0
 16 15  2  0
 17 13  1  0
 19 18  1  0
 20 19  1  0
 20 21  1  1
 22 20  1  0
 22 23  1  6
 23 15  1  0
 24 22  1  0
 25 24  2  0
 26 24  1  0
M  END
$$$$
