ARA.pdb
     RDKit          3D

 22 21  0  0  1  0  0  0  0  0999 V2000
   11.2081  -21.3782   17.1176 C   0  0  0  0  0  0  0  0  0  0  0  0
   10.7142  -20.1598   16.3992 C   0  0  2  0  0  0  0  0  0  0  0  0
   11.4319  -19.9128   15.1928 N   0  0  0  0  0  0  0  0  0  0  0  0
   10.5846  -18.9640   17.2635 C   0  0  0  0  0  0  0  0  0  0  0  0
   11.6200  -18.2515   17.4847 O   0  0  0  0  0  0  0  0  0  0  0  0
   10.3232  -12.9182   19.9597 N   0  0  0  0  0  0  0  0  0  0  0  0
    9.0422  -12.3668   19.6325 C   0  0  0  0  0  0  0  0  0  0  0  0
    8.9377  -11.1355   19.3224 N   0  0  0  0  0  0  0  0  0  0  0  0
    7.9054  -13.2237   19.6617 N   0  0  0  0  0  0  0  0  0  0  0  0
    7.9147  -14.4652   18.8968 C   0  0  0  0  0  0  0  0  0  0  0  0
    7.8218  -15.6647   19.8056 C   0  0  0  0  0  0  0  0  0  0  0  0
    7.8905  -16.9253   18.9715 C   0  0  0  0  0  0  0  0  0  0  0  0
    9.3198  -17.3434   18.7092 C   0  0  2  0  0  0  0  0  0  0  0  0
    9.3839  -18.5338   17.8799 N   0  0  0  0  0  0  0  0  0  0  0  0
   10.0327  -17.5642   19.9686 C   0  0  0  0  0  0  0  0  0  0  0  0
    9.8201  -18.5932   20.6401 O   0  0  0  0  0  0  0  0  0  0  0  0
    8.0264  -10.7440   19.0598 C   0  0  0  0  0  0  0  0  0  0  0  0
   12.8717  -15.8607   21.7193 C   0  0  1  0  0  0  0  0  0  0  0  0
   11.6934  -16.8366   21.6727 N   0  0  0  0  0  0  0  0  0  0  0  0
   10.9684  -16.6129   20.4318 C   0  0  0  0  0  0  0  0  0  0  0  0
   10.7651  -16.5890   22.7994 O   0  0  0  0  0  0  0  0  0  0  0  0
    9.6666  -16.0163   22.5818 O   0  0  0  0  0  0  0  0  0  0  0  0
  2  1  1  1
  2  3  1  0
  4  2  1  0
  4  5  2  0
  7  6  1  0
  7  8  2  0
  9 10  1  0
  9  7  1  0
 11 12  1  0
 11 10  1  0
 13 14  1  0
 13 12  1  1
 14  4  1  0
 15 13  1  0
 16 15  2  0
 18 17  1  6
 18 19  1  0
 19 15  1  0
 20 18  1  0
 20 22  1  0
 21 20  2  0
M  END
$$$$
