ARA.pdb
     RDKit          3D

 22 21  0  0  1  0  0  0  0  0999 V2000
    9.1976  -21.1086   21.3317 C   0  0  0  0  0  0  0  0  0  0  0  0
    9.4283  -19.9673   20.3888 C   0  0  2  0  0  0  0  0  0  0  0  0
   10.1762  -20.3556   19.2393 N   0  0  0  0  0  0  0  0  0  0  0  0
    9.9454  -18.7431   21.0427 C   0  0  0  0  0  0  0  0  0  0  0  0
   11.2004  -18.6420   21.2511 O   0  0  0  0  0  0  0  0  0  0  0  0
    9.4199  -12.8624   18.6484 N   0  0  0  0  0  0  0  0  0  0  0  0
    8.0110  -13.0985   18.7551 C   0  0  0  0  0  0  0  0  0  0  0  0
    7.3782  -13.6319   17.7865 N   0  0  0  0  0  0  0  0  0  0  0  0
    7.3485  -12.7264   19.9592 N   0  0  0  0  0  0  0  0  0  0  0  0
    7.4502  -13.5819   21.1357 C   0  0  0  0  0  0  0  0  0  0  0  0
    8.6624  -14.4748   21.0558 C   0  0  0  0  0  0  0  0  0  0  0  0
    8.6928  -15.3796   22.2683 C   0  0  0  0  0  0  0  0  0  0  0  0
    9.7164  -16.4821   22.1160 C   0  0  2  0  0  0  0  0  0  0  0  0
    9.1492  -17.6508   21.4666 N   0  0  0  0  0  0  0  0  0  0  0  0
   10.2786  -16.8482   23.4171 C   0  0  0  0  0  0  0  0  0  0  0  0
    9.5651  -17.4002   24.2782 O   0  0  0  0  0  0  0  0  0  0  0  0
    6.3672  -13.7928   17.8557 C   0  0  0  0  0  0  0  0  0  0  0  0
   12.1168  -18.4658   25.1403 C   0  0  2  0  0  0  0  0  0  0  0  0
   12.1990  -16.9441   24.9964 N   0  0  0  0  0  0  0  0  0  0  0  0
   11.6348  -16.5797   23.7062 C   0  0  0  0  0  0  0  0  0  0  0  0
   13.6085  -16.4917   25.0268 O   0  0  0  0  0  0  0  0  0  0  0  0
   14.1183  -15.9850   23.9946 O   0  0  0  0  0  0  0  0  0  0  0  0
  2  1  1  1
  2  3  1  0
  4  2  1  0
  4  5  2  0
  7  6  1  0
  7  8  2  0
  9 10  1  0
  9  7  1  0
 11 12  1  0
 11 10  1  0
 13 14  1  0
 13 12  1  1
 14  4  1  0
 15 13  1  0
 16 15  2  0
 18 17  1  1
 18 19  1  0
 19 15  1  0
 20 18  1  0
 20 22  1  0
 21 20  2  0
M  END
$$$$
