ARA.pdb
     RDKit          3D

 22 21  0  0  1  0  0  0  0  0999 V2000
    7.8098  -18.9956   27.1756 C   0  0  0  0  0  0  0  0  0  0  0  0
    7.3475  -18.2670   25.9508 C   0  0  2  0  0  0  0  0  0  0  0  0
    6.9280  -19.1545   24.9173 N   0  0  0  0  0  0  0  0  0  0  0  0
    8.2861  -17.2206   25.4842 C   0  0  0  0  0  0  0  0  0  0  0  0
    9.2666  -16.8969   26.2342 O   0  0  0  0  0  0  0  0  0  0  0  0
    7.9475  -14.9395   18.6256 N   0  0  0  0  0  0  0  0  0  0  0  0
    8.1265  -13.5490   18.9200 C   0  0  0  0  0  0  0  0  0  0  0  0
    8.3246  -12.7171   17.9756 N   0  0  0  0  0  0  0  0  0  0  0  0
    8.0753  -13.1297   20.2797 N   0  0  0  0  0  0  0  0  0  0  0  0
    8.4605  -14.0560   21.3381 C   0  0  0  0  0  0  0  0  0  0  0  0
    7.2544  -14.7472   21.9216 C   0  0  0  0  0  0  0  0  0  0  0  0
    7.1873  -14.4593   23.4056 C   0  0  0  0  0  0  0  0  0  0  0  0
    8.3420  -15.0919   24.1492 C   0  0  2  0  0  0  0  0  0  0  0  0
    8.1867  -16.5323   24.2500 N   0  0  0  0  0  0  0  0  0  0  0  0
    8.4827  -14.5029   25.4820 C   0  0  0  0  0  0  0  0  0  0  0  0
    7.9023  -13.4355   25.7628 O   0  0  0  0  0  0  0  0  0  0  0  0
    8.3847  -11.7126   18.1757 C   0  0  0  0  0  0  0  0  0  0  0  0
    8.2467  -14.2304   28.4499 C   0  0  2  0  0  0  0  0  0  0  0  0
    9.5698  -14.4747   27.7200 N   0  0  0  0  0  0  0  0  0  0  0  0
    9.2764  -15.1409   26.4607 C   0  0  0  0  0  0  0  0  0  0  0  0
   10.4495  -15.3610   28.5157 O   0  0  0  0  0  0  0  0  0  0  0  0
   10.8983  -14.9583   29.6196 O   0  0  0  0  0  0  0  0  0  0  0  0
  2  1  1  1
  2  3  1  0
  4  2  1  0
  4  5  2  0
  7  6  1  0
  7  8  2  0
  9 10  1  0
  9  7  1  0
 11 12  1  0
 11 10  1  0
 13 14  1  0
 13 12  1  1
 14  4  1  0
 15 13  1  0
 16 15  2  0
 18 17  1  6
 18 19  1  0
 19 15  1  0
 20 18  1  0
 20 22  1  0
 21 20  2  0
M  END
$$$$
