ARA.pdb
     RDKit          3D

 22 21  0  0  1  0  0  0  0  0999 V2000
   10.3570  -22.3967   18.5465 C   0  0  0  0  0  0  0  0  0  0  0  0
    9.7330  -21.2226   17.8561 C   0  0  2  0  0  0  0  0  0  0  0  0
   10.1284  -21.1229   16.4903 N   0  0  0  0  0  0  0  0  0  0  0  0
    9.8618  -19.9493   18.6016 C   0  0  0  0  0  0  0  0  0  0  0  0
   10.9327  -19.2675   18.4713 O   0  0  0  0  0  0  0  0  0  0  0  0
    8.4248  -13.2973   22.1903 N   0  0  0  0  0  0  0  0  0  0  0  0
    7.7892  -13.0078   20.9396 C   0  0  0  0  0  0  0  0  0  0  0  0
    7.9861  -11.8862   20.3682 N   0  0  0  0  0  0  0  0  0  0  0  0
    6.9443  -13.9972   20.3611 N   0  0  0  0  0  0  0  0  0  0  0  0
    6.7662  -15.2795   21.0321 C   0  0  0  0  0  0  0  0  0  0  0  0
    8.0503  -16.0694   21.0453 C   0  0  0  0  0  0  0  0  0  0  0  0
    7.8031  -17.4282   20.4270 C   0  0  0  0  0  0  0  0  0  0  0  0
    9.0924  -18.1922   20.2255 C   0  0  2  0  0  0  0  0  0  0  0  0
    8.8771  -19.4114   19.4664 N   0  0  0  0  0  0  0  0  0  0  0  0
    9.7166  -18.5007   21.5132 C   0  0  0  0  0  0  0  0  0  0  0  0
    9.2492  -19.3999   22.2399 O   0  0  0  0  0  0  0  0  0  0  0  0
    7.5016  -11.6600   19.4925 C   0  0  0  0  0  0  0  0  0  0  0  0
   12.7576  -17.2693   23.3422 C   0  0  1  0  0  0  0  0  0  0  0  0
   11.4348  -18.0340   23.2514 N   0  0  0  0  0  0  0  0  0  0  0  0
   10.8546  -17.7822   21.9416 C   0  0  0  0  0  0  0  0  0  0  0  0
   10.4817  -17.5529   24.2774 O   0  0  0  0  0  0  0  0  0  0  0  0
    9.5836  -16.7344   23.9525 O   0  0  0  0  0  0  0  0  0  0  0  0
  2  1  1  1
  2  3  1  0
  4  2  1  0
  4  5  2  0
  7  6  1  0
  7  8  2  0
  9 10  1  0
  9  7  1  0
 11 12  1  0
 11 10  1  0
 13 14  1  0
 13 12  1  1
 14  4  1  0
 15 13  1  0
 16 15  2  0
 18 17  1  6
 18 19  1  0
 19 15  1  0
 20 18  1  0
 20 22  1  0
 21 20  2  0
M  END
$$$$
