ARA.pdb
     RDKit          3D

 22 21  0  0  1  0  0  0  0  0999 V2000
   14.2247  -18.0492   17.1398 C   0  0  0  0  0  0  0  0  0  0  0  0
   13.2745  -18.9762   17.8343 C   0  0  2  0  0  0  0  0  0  0  0  0
   12.1348  -19.2838   17.0355 N   0  0  0  0  0  0  0  0  0  0  0  0
   12.9325  -18.5624   19.2147 C   0  0  0  0  0  0  0  0  0  0  0  0
   13.8786  -18.2742   20.0212 O   0  0  0  0  0  0  0  0  0  0  0  0
    7.7591  -12.2739   18.1964 N   0  0  0  0  0  0  0  0  0  0  0  0
    7.6699  -13.5674   18.8056 C   0  0  0  0  0  0  0  0  0  0  0  0
    6.5529  -14.1790   18.8444 N   0  0  0  0  0  0  0  0  0  0  0  0
    8.8503  -14.1422   19.3569 N   0  0  0  0  0  0  0  0  0  0  0  0
    8.7905  -15.4575   19.9836 C   0  0  0  0  0  0  0  0  0  0  0  0
   10.1352  -15.8591   20.5347 C   0  0  0  0  0  0  0  0  0  0  0  0
   10.0289  -17.2396   21.1449 C   0  0  0  0  0  0  0  0  0  0  0  0
   11.3435  -17.9835   21.0739 C   0  0  2  0  0  0  0  0  0  0  0  0
   11.6165  -18.4572   19.7285 N   0  0  0  0  0  0  0  0  0  0  0  0
   11.3551  -19.1028   22.0173 C   0  0  0  0  0  0  0  0  0  0  0  0
   10.6951  -20.1337   21.7789 O   0  0  0  0  0  0  0  0  0  0  0  0
    6.5102  -15.1587   19.1460 C   0  0  0  0  0  0  0  0  0  0  0  0
   13.5807  -20.6651   24.2076 C   0  0  2  0  0  0  0  0  0  0  0  0
   12.1448  -20.1398   24.1368 N   0  0  0  0  0  0  0  0  0  0  0  0
   12.1159  -19.0237   23.2046 C   0  0  0  0  0  0  0  0  0  0  0  0
   11.7034  -19.6455   25.4609 O   0  0  0  0  0  0  0  0  0  0  0  0
   11.5181  -18.4131   25.6310 O   0  0  0  0  0  0  0  0  0  0  0  0
  2  1  1  6
  2  3  1  0
  4  2  1  0
  4  5  2  0
  7  6  1  0
  7  8  2  0
  9 10  1  0
  9  7  1  0
 11 12  1  0
 11 10  1  0
 13 14  1  0
 13 12  1  6
 14  4  1  0
 15 13  1  0
 16 15  2  0
 18 17  1  6
 18 19  1  0
 19 15  1  0
 20 18  1  0
 20 22  1  0
 21 20  2  0
M  END
$$$$
