ARA.pdb
     RDKit          3D

 22 21  0  0  1  0  0  0  0  0999 V2000
    6.9809  -12.7109   19.4834 C   0  0  0  0  0  0  0  0  0  0  0  0
    7.7840  -13.4325   18.4447 C   0  0  2  0  0  0  0  0  0  0  0  0
    6.9642  -14.1594   17.5330 N   0  0  0  0  0  0  0  0  0  0  0  0
    8.9023  -14.2309   18.9975 C   0  0  0  0  0  0  0  0  0  0  0  0
    8.7295  -15.4813   19.1854 O   0  0  0  0  0  0  0  0  0  0  0  0
   16.5136  -14.5066   21.6382 N   0  0  0  0  0  0  0  0  0  0  0  0
   16.8377  -15.4463   20.6067 C   0  0  0  0  0  0  0  0  0  0  0  0
   17.7588  -16.3065   20.7934 N   0  0  0  0  0  0  0  0  0  0  0  0
   16.1090  -15.3928   19.3845 N   0  0  0  0  0  0  0  0  0  0  0  0
   15.0295  -14.4251   19.2270 C   0  0  0  0  0  0  0  0  0  0  0  0
   13.7266  -14.9736   19.7513 C   0  0  0  0  0  0  0  0  0  0  0  0
   12.6067  -14.0225   19.3896 C   0  0  0  0  0  0  0  0  0  0  0  0
   11.2581  -14.5642   19.8071 C   0  0  2  0  0  0  0  0  0  0  0  0
   10.1752  -13.7147   19.3439 N   0  0  0  0  0  0  0  0  0  0  0  0
   11.1924  -14.7216   21.2610 C   0  0  0  0  0  0  0  0  0  0  0  0
   11.0305  -13.7266   21.9951 O   0  0  0  0  0  0  0  0  0  0  0  0
   17.9898  -16.9844   20.0587 C   0  0  0  0  0  0  0  0  0  0  0  0
    9.7238  -16.7159   23.5225 C   0  0  1  0  0  0  0  0  0  0  0  0
   11.1362  -16.1799   23.2763 N   0  0  0  0  0  0  0  0  0  0  0  0
   11.3105  -16.0030   21.8431 C   0  0  0  0  0  0  0  0  0  0  0  0
   12.1522  -17.1485   23.7476 O   0  0  0  0  0  0  0  0  0  0  0  0
   12.7544  -17.8699   22.9115 O   0  0  0  0  0  0  0  0  0  0  0  0
  2  1  1  1
  2  3  1  0
  4  2  1  0
  4  5  2  0
  7  6  1  0
  7  8  2  0
  9 10  1  0
  9  7  1  0
 11 12  1  0
 11 10  1  0
 13 14  1  0
 13 12  1  1
 14  4  1  0
 15 13  1  0
 16 15  2  0
 18 17  1  1
 18 19  1  0
 19 15  1  0
 20 18  1  0
 20 22  1  0
 21 20  2  0
M  END
$$$$
