ARA.pdb
     RDKit          3D

 22 21  0  0  1  0  0  0  0  0999 V2000
    7.3762  -11.3066   26.9534 C   0  0  0  0  0  0  0  0  0  0  0  0
    6.3217  -12.1115   26.2571 C   0  0  2  0  0  0  0  0  0  0  0  0
    5.2081  -12.3930   27.1011 N   0  0  0  0  0  0  0  0  0  0  0  0
    6.8443  -13.3051   25.5529 C   0  0  0  0  0  0  0  0  0  0  0  0
    6.9693  -14.3958   26.2035 O   0  0  0  0  0  0  0  0  0  0  0  0
    9.4664  -18.1337   18.9478 N   0  0  0  0  0  0  0  0  0  0  0  0
    8.1024  -17.7128   19.0675 C   0  0  0  0  0  0  0  0  0  0  0  0
    7.4561  -17.3412   18.0342 N   0  0  0  0  0  0  0  0  0  0  0  0
    7.4980  -17.7235   20.3567 N   0  0  0  0  0  0  0  0  0  0  0  0
    7.0981  -16.4670   20.9793 C   0  0  0  0  0  0  0  0  0  0  0  0
    8.3011  -15.6521   21.3815 C   0  0  0  0  0  0  0  0  0  0  0  0
    7.8355  -14.3788   22.0536 C   0  0  0  0  0  0  0  0  0  0  0  0
    7.7152  -14.5505   23.5511 C   0  0  2  0  0  0  0  0  0  0  0  0
    7.2263  -13.3410   24.1892 N   0  0  0  0  0  0  0  0  0  0  0  0
    9.0003  -14.9452   24.1306 C   0  0  0  0  0  0  0  0  0  0  0  0
    9.7809  -14.0815   24.5776 O   0  0  0  0  0  0  0  0  0  0  0  0
    7.8751  -17.4319   17.1020 C   0  0  0  0  0  0  0  0  0  0  0  0
   10.4046  -17.0134   26.2547 C   0  0  1  0  0  0  0  0  0  0  0  0
   10.6359  -16.7068   24.7730 N   0  0  0  0  0  0  0  0  0  0  0  0
    9.3648  -16.3085   24.1889 C   0  0  0  0  0  0  0  0  0  0  0  0
   11.1135  -17.9124   24.0583 O   0  0  0  0  0  0  0  0  0  0  0  0
   10.3137  -18.5611   23.3360 O   0  0  0  0  0  0  0  0  0  0  0  0
  2  1  1  1
  2  3  1  0
  4  2  1  0
  4  5  2  0
  7  6  1  0
  7  8  2  0
  9 10  1  0
  9  7  1  0
 11 12  1  0
 11 10  1  0
 13 14  1  0
 13 12  1  6
 14  4  1  0
 15 13  1  0
 16 15  2  0
 18 17  1  1
 18 19  1  0
 19 15  1  0
 20 18  1  0
 20 22  1  0
 21 20  2  0
M  END
$$$$
