ARA.pdb
     RDKit          3D

 22 21  0  0  1  0  0  0  0  0999 V2000
   10.5278  -20.8957   22.8791 C   0  0  0  0  0  0  0  0  0  0  0  0
   10.4430  -19.8679   21.7924 C   0  0  2  0  0  0  0  0  0  0  0  0
   11.2459  -20.2038   20.6636 N   0  0  0  0  0  0  0  0  0  0  0  0
   10.6407  -18.4777   22.2636 C   0  0  0  0  0  0  0  0  0  0  0  0
   11.8306  -18.0569   22.4521 O   0  0  0  0  0  0  0  0  0  0  0  0
    8.5154  -12.2272   19.5079 N   0  0  0  0  0  0  0  0  0  0  0  0
    7.9207  -13.2707   18.7272 C   0  0  0  0  0  0  0  0  0  0  0  0
    8.1284  -13.3257   17.4713 N   0  0  0  0  0  0  0  0  0  0  0  0
    7.1035  -14.2321   19.3869 N   0  0  0  0  0  0  0  0  0  0  0  0
    7.2508  -14.4449   20.8220 C   0  0  0  0  0  0  0  0  0  0  0  0
    8.6351  -14.9379   21.1595 C   0  0  0  0  0  0  0  0  0  0  0  0
    8.6948  -15.2787   22.6326 C   0  0  0  0  0  0  0  0  0  0  0  0
    9.8606  -16.1886   22.9478 C   0  0  2  0  0  0  0  0  0  0  0  0
    9.5995  -17.5546   22.5297 N   0  0  0  0  0  0  0  0  0  0  0  0
   10.1762  -16.1476   24.3766 C   0  0  0  0  0  0  0  0  0  0  0  0
   10.4423  -15.0629   24.9315 O   0  0  0  0  0  0  0  0  0  0  0  0
    7.6989  -14.0681   16.9083 C   0  0  0  0  0  0  0  0  0  0  0  0
    9.4252  -16.6874   27.3410 C   0  0  2  0  0  0  0  0  0  0  0  0
   10.5689  -17.3135   26.5394 N   0  0  0  0  0  0  0  0  0  0  0  0
   10.1803  -17.3372   25.1380 C   0  0  0  0  0  0  0  0  0  0  0  0
   10.8093  -18.7084   26.9742 O   0  0  0  0  0  0  0  0  0  0  0  0
   10.4620  -19.6583   26.2264 O   0  0  0  0  0  0  0  0  0  0  0  0
  2  1  1  1
  2  3  1  0
  4  2  1  0
  4  5  2  0
  7  6  1  0
  7  8  2  0
  9 10  1  0
  9  7  1  0
 11 12  1  0
 11 10  1  0
 13 14  1  0
 13 12  1  1
 14  4  1  0
 15 13  1  0
 16 15  2  0
 18 17  1  6
 18 19  1  0
 19 15  1  0
 20 18  1  0
 20 22  1  0
 21 20  2  0
M  END
$$$$
