ARA.pdb
     RDKit          3D

 22 21  0  0  1  0  0  0  0  0999 V2000
    9.6355  -16.8389   20.4548 C   0  0  0  0  0  0  0  0  0  0  0  0
   10.6973  -16.6569   21.4960 C   0  0  2  0  0  0  0  0  0  0  0  0
   11.8252  -17.4996   21.2742 N   0  0  0  0  0  0  0  0  0  0  0  0
   10.1896  -16.7053   22.8866 C   0  0  0  0  0  0  0  0  0  0  0  0
    9.1830  -15.9852   23.1979 O   0  0  0  0  0  0  0  0  0  0  0  0
   12.6007  -21.1073   30.2151 N   0  0  0  0  0  0  0  0  0  0  0  0
   11.6853  -20.1358   30.7351 C   0  0  0  0  0  0  0  0  0  0  0  0
   11.4732  -20.0659   31.9894 N   0  0  0  0  0  0  0  0  0  0  0  0
   11.0302  -19.2616   29.8218 N   0  0  0  0  0  0  0  0  0  0  0  0
   11.1813  -19.4688   28.3862 C   0  0  0  0  0  0  0  0  0  0  0  0
   10.6668  -18.2840   27.6086 C   0  0  0  0  0  0  0  0  0  0  0  0
   10.7906  -18.5708   26.1281 C   0  0  0  0  0  0  0  0  0  0  0  0
   10.2558  -17.4298   25.2922 C   0  0  2  0  0  0  0  0  0  0  0  0
   10.7377  -17.4991   23.9240 N   0  0  0  0  0  0  0  0  0  0  0  0
   10.6106  -16.1414   25.8898 C   0  0  0  0  0  0  0  0  0  0  0  0
   11.8036  -15.7834   25.9514 O   0  0  0  0  0  0  0  0  0  0  0  0
   10.8192  -19.3703   32.3651 C   0  0  0  0  0  0  0  0  0  0  0  0
    8.7793  -13.0884   26.9535 C   0  0  1  0  0  0  0  0  0  0  0  0
    9.9560  -14.0586   27.0833 N   0  0  0  0  0  0  0  0  0  0  0  0
    9.6031  -15.2931   26.4000 C   0  0  0  0  0  0  0  0  0  0  0  0
   10.2155  -14.3777   28.5058 O   0  0  0  0  0  0  0  0  0  0  0  0
   10.6057  -13.4687   29.2827 O   0  0  0  0  0  0  0  0  0  0  0  0
  2  1  1  6
  2  3  1  0
  4  2  1  0
  4  5  2  0
  7  6  1  0
  7  8  2  0
  9 10  1  0
  9  7  1  0
 11 12  1  0
 11 10  1  0
 13 14  1  0
 13 12  1  1
 14  4  1  0
 15 13  1  0
 16 15  2  0
 18 17  1  6
 18 19  1  0
 19 15  1  0
 20 18  1  0
 20 22  1  0
 21 20  2  0
M  END
$$$$
