ARA.pdb
     RDKit          3D

 22 21  0  0  1  0  0  0  0  0999 V2000
    7.3342  -12.5692   19.3264 C   0  0  0  0  0  0  0  0  0  0  0  0
    8.3461  -13.3540   20.1042 C   0  0  2  0  0  0  0  0  0  0  0  0
    8.9618  -14.3730   19.3206 N   0  0  0  0  0  0  0  0  0  0  0  0
    7.8542  -13.8352   21.4157 C   0  0  0  0  0  0  0  0  0  0  0  0
    7.3245  -12.9960   22.2181 O   0  0  0  0  0  0  0  0  0  0  0  0
    8.8868  -18.7504   26.9793 N   0  0  0  0  0  0  0  0  0  0  0  0
    7.5955  -19.3191   27.2268 C   0  0  0  0  0  0  0  0  0  0  0  0
    7.2667  -19.6664   28.4077 N   0  0  0  0  0  0  0  0  0  0  0  0
    6.7020  -19.4807   26.1299 N   0  0  0  0  0  0  0  0  0  0  0  0
    7.0947  -19.0220   24.8026 C   0  0  0  0  0  0  0  0  0  0  0  0
    7.0946  -17.5163   24.7253 C   0  0  0  0  0  0  0  0  0  0  0  0
    7.4128  -17.0924   23.3081 C   0  0  0  0  0  0  0  0  0  0  0  0
    7.4140  -15.5872   23.1631 C   0  0  2  0  0  0  0  0  0  0  0  0
    7.9230  -15.1765   21.8665 N   0  0  0  0  0  0  0  0  0  0  0  0
    8.1950  -14.9658   24.2340 C   0  0  0  0  0  0  0  0  0  0  0  0
    9.4409  -15.0173   24.2157 O   0  0  0  0  0  0  0  0  0  0  0  0
    6.3330  -20.0493   28.5929 C   0  0  0  0  0  0  0  0  0  0  0  0
    7.3726  -12.6139   27.0190 C   0  0  1  0  0  0  0  0  0  0  0  0
    8.3124  -13.5857   26.3011 N   0  0  0  0  0  0  0  0  0  0  0  0
    7.5424  -14.3018   25.2961 C   0  0  0  0  0  0  0  0  0  0  0  0
    8.8638  -14.5778   27.2519 O   0  0  0  0  0  0  0  0  0  0  0  0
    8.4595  -15.7681   27.2082 O   0  0  0  0  0  0  0  0  0  0  0  0
  2  1  1  6
  2  3  1  0
  4  2  1  0
  4  5  2  0
  7  6  1  0
  7  8  2  0
  9 10  1  0
  9  7  1  0
 11 12  1  0
 11 10  1  0
 13 14  1  0
 13 12  1  6
 14  4  1  0
 15 13  1  0
 16 15  2  0
 18 17  1  6
 18 19  1  0
 19 15  1  0
 20 18  1  0
 20 22  1  0
 21 20  2  0
M  END
$$$$
