ARA.pdb
     RDKit          3D

 22 21  0  0  1  0  0  0  0  0999 V2000
    8.0090  -12.0581   19.6744 C   0  0  0  0  0  0  0  0  0  0  0  0
    8.0552  -13.3836   18.9777 C   0  0  2  0  0  0  0  0  0  0  0  0
    6.9423  -13.5793   18.1089 N   0  0  0  0  0  0  0  0  0  0  0  0
    8.3056  -14.5294   19.8822 C   0  0  0  0  0  0  0  0  0  0  0  0
    7.3088  -15.1973   20.3170 O   0  0  0  0  0  0  0  0  0  0  0  0
   13.5725  -20.8207   21.3012 N   0  0  0  0  0  0  0  0  0  0  0  0
   12.3730  -21.1994   21.9869 C   0  0  0  0  0  0  0  0  0  0  0  0
   12.4224  -22.0418   22.9414 N   0  0  0  0  0  0  0  0  0  0  0  0
   11.1417  -20.6134   21.5772 N   0  0  0  0  0  0  0  0  0  0  0  0
   11.1511  -19.4147   20.7469 C   0  0  0  0  0  0  0  0  0  0  0  0
   11.1489  -18.1668   21.5930 C   0  0  0  0  0  0  0  0  0  0  0  0
   10.9400  -16.9628   20.7007 C   0  0  0  0  0  0  0  0  0  0  0  0
    9.7681  -16.1248   21.1598 C   0  0  2  0  0  0  0  0  0  0  0  0
    9.5844  -14.9568   20.3166 N   0  0  0  0  0  0  0  0  0  0  0  0
    9.9383  -15.7200   22.5563 C   0  0  0  0  0  0  0  0  0  0  0  0
   10.9023  -15.0031   22.8907 O   0  0  0  0  0  0  0  0  0  0  0  0
   11.5599  -22.3509   23.4032 C   0  0  0  0  0  0  0  0  0  0  0  0
    7.8355  -15.2966   25.4743 C   0  0  1  0  0  0  0  0  0  0  0  0
    9.1886  -15.7594   24.9285 N   0  0  0  0  0  0  0  0  0  0  0  0
    9.0101  -16.1378   23.5355 C   0  0  0  0  0  0  0  0  0  0  0  0
    9.6726  -16.9464   25.6697 O   0  0  0  0  0  0  0  0  0  0  0  0
    9.6513  -18.0744   25.1135 O   0  0  0  0  0  0  0  0  0  0  0  0
  2  1  1  1
  2  3  1  0
  4  2  1  0
  4  5  2  0
  7  6  1  0
  7  8  2  0
  9 10  1  0
  9  7  1  0
 11 12  1  0
 11 10  1  0
 13 14  1  0
 13 12  1  6
 14  4  1  0
 15 13  1  0
 16 15  2  0
 18 17  1  6
 18 19  1  0
 19 15  1  0
 20 18  1  0
 20 22  1  0
 21 20  2  0
M  END
$$$$
