ARA.pdb
     RDKit          3D

 22 21  0  0  1  0  0  0  0  0999 V2000
    7.7794  -12.6841   20.0646 C   0  0  0  0  0  0  0  0  0  0  0  0
    8.7331  -13.5598   20.8185 C   0  0  2  0  0  0  0  0  0  0  0  0
    9.2197  -14.6404   20.0265 N   0  0  0  0  0  0  0  0  0  0  0  0
    8.2383  -13.9805   22.1496 C   0  0  0  0  0  0  0  0  0  0  0  0
    7.7642  -13.0946   22.9363 O   0  0  0  0  0  0  0  0  0  0  0  0
    4.3445  -20.7956   22.7655 N   0  0  0  0  0  0  0  0  0  0  0  0
    3.7366  -19.7298   22.0262 C   0  0  0  0  0  0  0  0  0  0  0  0
    2.6214  -19.9154   21.4388 N   0  0  0  0  0  0  0  0  0  0  0  0
    4.4051  -18.4738   21.9696 N   0  0  0  0  0  0  0  0  0  0  0  0
    5.7573  -18.3487   22.5009 C   0  0  0  0  0  0  0  0  0  0  0  0
    5.8359  -17.2557   23.5365 C   0  0  0  0  0  0  0  0  0  0  0  0
    7.2713  -17.1056   23.9912 C   0  0  0  0  0  0  0  0  0  0  0  0
    7.7234  -15.6635   23.9438 C   0  0  2  0  0  0  0  0  0  0  0  0
    8.2467  -15.3111   22.6357 N   0  0  0  0  0  0  0  0  0  0  0  0
    8.7263  -15.4024   24.9778 C   0  0  0  0  0  0  0  0  0  0  0  0
    9.9216  -15.7011   24.7850 O   0  0  0  0  0  0  0  0  0  0  0  0
    2.1759  -19.1497   20.9212 C   0  0  0  0  0  0  0  0  0  0  0  0
    8.7795  -13.4271   28.1385 C   0  0  1  0  0  0  0  0  0  0  0  0
    9.3457  -14.5094   27.2161 N   0  0  0  0  0  0  0  0  0  0  0  0
    8.3470  -14.8084   26.2018 C   0  0  0  0  0  0  0  0  0  0  0  0
    9.6182  -15.7518   27.9742 O   0  0  0  0  0  0  0  0  0  0  0  0
   10.5199  -15.7564   28.8513 O   0  0  0  0  0  0  0  0  0  0  0  0
  2  1  1  6
  2  3  1  0
  4  2  1  0
  4  5  2  0
  7  6  1  0
  7  8  2  0
  9 10  1  0
  9  7  1  0
 11 12  1  0
 11 10  1  0
 13 14  1  0
 13 12  1  6
 14  4  1  0
 15 13  1  0
 16 15  2  0
 18 17  1  6
 18 19  1  0
 19 15  1  0
 20 18  1  0
 20 22  1  0
 21 20  2  0
M  END
$$$$
