ARA.pdb
     RDKit          3D

 22 21  0  0  1  0  0  0  0  0999 V2000
   13.0508  -17.3396   21.0039 C   0  0  0  0  0  0  0  0  0  0  0  0
   12.3019  -17.8444   22.1992 C   0  0  2  0  0  0  0  0  0  0  0  0
   11.3787  -18.8776   21.8648 N   0  0  0  0  0  0  0  0  0  0  0  0
   11.7108  -16.7733   23.0342 C   0  0  0  0  0  0  0  0  0  0  0  0
   12.4770  -15.8658   23.5012 O   0  0  0  0  0  0  0  0  0  0  0  0
    7.4274  -14.8871   19.8048 N   0  0  0  0  0  0  0  0  0  0  0  0
    7.6686  -13.4990   20.0639 C   0  0  0  0  0  0  0  0  0  0  0  0
    8.0516  -12.7311   19.1221 N   0  0  0  0  0  0  0  0  0  0  0  0
    7.4689  -13.0093   21.3859 N   0  0  0  0  0  0  0  0  0  0  0  0
    7.0681  -13.9276   22.4454 C   0  0  0  0  0  0  0  0  0  0  0  0
    7.9958  -15.1140   22.5165 C   0  0  0  0  0  0  0  0  0  0  0  0
    8.3283  -15.3974   23.9653 C   0  0  0  0  0  0  0  0  0  0  0  0
    9.8155  -15.5769   24.1713 C   0  0  2  0  0  0  0  0  0  0  0  0
   10.3379  -16.6674   23.3669 N   0  0  0  0  0  0  0  0  0  0  0  0
   10.1176  -15.8010   25.5861 C   0  0  0  0  0  0  0  0  0  0  0  0
   10.4234  -16.9400   25.9916 O   0  0  0  0  0  0  0  0  0  0  0  0
    8.2658  -11.7460   19.3130 C   0  0  0  0  0  0  0  0  0  0  0  0
   10.3640  -13.5710   28.6048 C   0  0  2  0  0  0  0  0  0  0  0  0
   10.5745  -14.8891   27.8556 N   0  0  0  0  0  0  0  0  0  0  0  0
   10.0660  -14.7275   26.5025 C   0  0  0  0  0  0  0  0  0  0  0  0
    9.8187  -15.9850   28.5038 O   0  0  0  0  0  0  0  0  0  0  0  0
    8.7120  -16.3417   28.0240 O   0  0  0  0  0  0  0  0  0  0  0  0
  2  1  1  6
  2  3  1  0
  4  2  1  0
  4  5  2  0
  7  6  1  0
  7  8  2  0
  9 10  1  0
  9  7  1  0
 11 12  1  0
 11 10  1  0
 13 14  1  0
 13 12  1  1
 14  4  1  0
 15 13  1  0
 16 15  2  0
 18 17  1  6
 18 19  1  0
 19 15  1  0
 20 18  1  0
 20 22  1  0
 21 20  2  0
M  END
$$$$
