HRN.pdb
     RDKit          3D

 30 30  0  0  1  0  0  0  0  0999 V2000
   25.1294  -17.9447  -17.3248 N   0  0  0  0  0  0  0  0  0  0  0  0
   26.0123  -18.3412  -16.2627 C   0  0  1  0  0  0  0  0  0  0  0  0
   26.9882  -17.2382  -15.9187 C   0  0  0  0  0  0  0  0  0  0  0  0
   27.8903  -17.0392  -17.0607 C   0  0  0  0  0  0  0  0  0  0  0  0
   27.8114  -16.0975  -18.0602 C   0  0  0  0  0  0  0  0  0  0  0  0
   28.8315  -16.2458  -18.9241 N   0  0  0  0  0  0  0  0  0  0  0  0
   29.5456  -17.2775  -18.4649 C   0  0  0  0  0  0  0  0  0  0  0  0
   28.9951  -17.7706  -17.3418 N   0  0  0  0  0  0  0  0  0  0  0  0
   25.2558  -18.6414  -15.0007 C   0  0  0  0  0  0  0  0  0  0  0  0
   24.4378  -17.8049  -14.5658 O   0  0  0  0  0  0  0  0  0  0  0  0
   18.5439  -21.4365  -13.4240 N   0  0  0  0  0  0  0  0  0  0  0  0
   19.5838  -21.7917  -14.3174 C   0  0  0  0  0  0  0  0  0  0  0  0
   19.3546  -22.3405  -15.4512 N   0  0  0  0  0  0  0  0  0  0  0  0
   20.9364  -21.5324  -13.9484 N   0  0  0  0  0  0  0  0  0  0  0  0
   21.4989  -22.2011  -12.7962 C   0  0  0  0  0  0  0  0  0  0  0  0
   22.6167  -21.2938  -12.2630 C   0  0  0  0  0  0  0  0  0  0  0  0
   23.4096  -20.7421  -13.4061 C   0  0  0  0  0  0  0  0  0  0  0  0
   24.7180  -20.1127  -13.0616 C   0  0  2  0  0  0  0  0  0  0  0  0
   25.4543  -19.8380  -14.3112 N   0  0  0  0  0  0  0  0  0  0  0  0
   25.5422  -20.9821  -12.2337 C   0  0  0  0  0  0  0  0  0  0  0  0
   25.3128  -22.2190  -12.2155 O   0  0  0  0  0  0  0  0  0  0  0  0
   20.1218  -22.4627  -16.1338 N   0  0  0  0  0  0  0  0  0  0  0  0
   27.6126  -20.1091   -7.2264 C   0  0  0  0  0  0  0  0  0  0  0  0
   26.8203  -19.1578   -7.9317 O   0  0  0  0  0  0  0  0  0  0  0  0
   26.2266  -18.2988   -7.2322 C   0  0  0  0  0  0  0  0  0  0  0  0
   26.6867  -19.1577   -9.4016 C   0  0  1  0  0  0  0  0  0  0  0  0
   26.5487  -20.5625   -9.9808 N   0  0  0  0  0  0  0  0  0  0  0  0
   26.6135  -20.4930  -11.4436 C   0  0  0  0  0  0  0  0  0  0  0  0
   25.2802  -21.1682   -9.5793 O   0  0  0  0  0  0  0  0  0  0  0  0
   24.8798  -21.1843   -8.3755 O   0  0  0  0  0  0  0  0  0  0  0  0
  2  1  1  6
  2  3  1  0
  3  4  1  0
  4  8  1  0
  5  6  1  0
  5  4  2  0
  6  7  1  0
  7  8  2  0
  9  2  1  0
  9 10  2  0
 12 11  1  0
 13 12  2  0
 14 12  1  0
 15 14  1  0
 15 16  1  0
 17 16  1  0
 18 17  1  6
 18 19  1  0
 19  9  1  0
 20 18  1  0
 21 20  2  0
 23 24  2  0
 23 22  1  0
 26 25  1  1
 25 23  1  0
 26 27  1  0
 27 20  1  0
 28 26  1  0
 29 28  2  0
 30 28  1  0
M  END
$$$$
