HRN.pdb
     RDKit          3D

 30 30  0  0  1  0  0  0  0  0999 V2000
   25.1950  -12.4053  -17.9262 N   0  0  0  0  0  0  0  0  0  0  0  0
   25.1481  -11.4986  -16.8125 C   0  0  1  0  0  0  0  0  0  0  0  0
   26.4535  -10.7506  -16.6575 C   0  0  0  0  0  0  0  0  0  0  0  0
   27.5315  -11.7281  -16.4581 C   0  0  0  0  0  0  0  0  0  0  0  0
   28.6893  -11.8858  -17.1839 C   0  0  0  0  0  0  0  0  0  0  0  0
   29.4213  -12.8968  -16.6829 N   0  0  0  0  0  0  0  0  0  0  0  0
   28.7221  -13.3691  -15.6469 C   0  0  0  0  0  0  0  0  0  0  0  0
   27.5790  -12.6782  -15.4940 N   0  0  0  0  0  0  0  0  0  0  0  0
   24.0849  -10.4543  -16.9967 C   0  0  0  0  0  0  0  0  0  0  0  0
   23.8916   -9.9738  -18.1324 O   0  0  0  0  0  0  0  0  0  0  0  0
   16.8586  -12.9523  -15.2603 N   0  0  0  0  0  0  0  0  0  0  0  0
   17.6105  -13.2935  -16.4109 C   0  0  0  0  0  0  0  0  0  0  0  0
   17.2240  -14.1887  -17.2406 N   0  0  0  0  0  0  0  0  0  0  0  0
   18.8425  -12.6209  -16.6611 N   0  0  0  0  0  0  0  0  0  0  0  0
   19.1520  -11.4111  -15.9319 C   0  0  0  0  0  0  0  0  0  0  0  0
   20.4911  -10.8975  -16.4795 C   0  0  0  0  0  0  0  0  0  0  0  0
   20.9328   -9.7007  -15.6968 C   0  0  0  0  0  0  0  0  0  0  0  0
   22.2087   -9.0600  -16.1304 C   0  0  2  0  0  0  0  0  0  0  0  0
   23.3136  -10.0162  -15.9198 N   0  0  0  0  0  0  0  0  0  0  0  0
   22.5028   -7.8551  -15.3675 C   0  0  0  0  0  0  0  0  0  0  0  0
   23.0277   -7.9563  -14.2286 O   0  0  0  0  0  0  0  0  0  0  0  0
   17.8313  -14.4599  -18.0327 N   0  0  0  0  0  0  0  0  0  0  0  0
   25.1850   -5.6560  -16.1408 C   0  0  0  0  0  0  0  0  0  0  0  0
   24.4000   -4.5332  -16.5327 O   0  0  0  0  0  0  0  0  0  0  0  0
   24.9108   -3.7674  -17.3884 C   0  0  0  0  0  0  0  0  0  0  0  0
   23.0586   -4.2607  -15.9807 C   0  0  2  0  0  0  0  0  0  0  0  0
   22.5635   -5.3719  -15.0597 N   0  0  0  0  0  0  0  0  0  0  0  0
   22.2302   -6.5536  -15.8604 C   0  0  0  0  0  0  0  0  0  0  0  0
   21.3818   -4.9415  -14.3143 O   0  0  0  0  0  0  0  0  0  0  0  0
   21.4137   -3.9999  -13.4646 O   0  0  0  0  0  0  0  0  0  0  0  0
  2  1  1  6
  2  3  1  0
  3  4  1  0
  4  8  1  0
  5  6  1  0
  5  4  2  0
  6  7  1  0
  7  8  2  0
  9  2  1  0
  9 10  2  0
 12 11  1  0
 13 12  2  0
 14 12  1  0
 15 14  1  0
 15 16  1  0
 17 16  1  0
 18 17  1  1
 18 19  1  0
 19  9  1  0
 20 18  1  0
 21 20  2  0
 23 24  2  0
 23 22  1  0
 26 25  1  1
 25 23  1  0
 26 27  1  0
 27 20  1  0
 28 26  1  0
 29 28  2  0
 30 28  1  0
M  END
$$$$
