HRN.pdb
     RDKit          3D

 30 30  0  0  1  0  0  0  0  0999 V2000
   25.5449  -20.0518  -18.8854 N   0  0  0  0  0  0  0  0  0  0  0  0
   25.3831  -19.3901  -17.6202 C   0  0  1  0  0  0  0  0  0  0  0  0
   25.5185  -17.8905  -17.7631 C   0  0  0  0  0  0  0  0  0  0  0  0
   26.8939  -17.5827  -18.1766 C   0  0  0  0  0  0  0  0  0  0  0  0
   27.3442  -17.1599  -19.4056 C   0  0  0  0  0  0  0  0  0  0  0  0
   28.6778  -16.9869  -19.3810 N   0  0  0  0  0  0  0  0  0  0  0  0
   29.0591  -17.3009  -18.1396 C   0  0  0  0  0  0  0  0  0  0  0  0
   27.9985  -17.6629  -17.3969 N   0  0  0  0  0  0  0  0  0  0  0  0
   24.0197  -19.6354  -17.0406 C   0  0  0  0  0  0  0  0  0  0  0  0
   23.0296  -19.6632  -17.8003 O   0  0  0  0  0  0  0  0  0  0  0  0
   20.6437  -22.5586  -10.6607 N   0  0  0  0  0  0  0  0  0  0  0  0
   19.5124  -22.6544  -11.5073 C   0  0  0  0  0  0  0  0  0  0  0  0
   18.3149  -22.5797  -11.0607 N   0  0  0  0  0  0  0  0  0  0  0  0
   19.7056  -22.8409  -12.9075 N   0  0  0  0  0  0  0  0  0  0  0  0
   21.0120  -22.6063  -13.4816 C   0  0  0  0  0  0  0  0  0  0  0  0
   21.4198  -21.1817  -13.0799 C   0  0  0  0  0  0  0  0  0  0  0  0
   22.6776  -20.7950  -13.7929 C   0  0  0  0  0  0  0  0  0  0  0  0
   22.5099  -20.1365  -15.1214 C   0  0  2  0  0  0  0  0  0  0  0  0
   23.8460  -19.8320  -15.6704 N   0  0  0  0  0  0  0  0  0  0  0  0
   21.7669  -18.8880  -15.0233 C   0  0  0  0  0  0  0  0  0  0  0  0
   22.3854  -17.8156  -14.7989 O   0  0  0  0  0  0  0  0  0  0  0  0
   17.5130  -22.6435  -11.7107 N   0  0  0  0  0  0  0  0  0  0  0  0
   18.2967  -15.1342  -15.9452 C   0  0  0  0  0  0  0  0  0  0  0  0
   19.3985  -15.5421  -16.7513 O   0  0  0  0  0  0  0  0  0  0  0  0
   19.6837  -14.7982  -17.7234 C   0  0  0  0  0  0  0  0  0  0  0  0
   20.1792  -16.7657  -16.4827 C   0  0  1  0  0  0  0  0  0  0  0  0
   19.6801  -17.5259  -15.2576 N   0  0  0  0  0  0  0  0  0  0  0  0
   20.3591  -18.8228  -15.1812 C   0  0  0  0  0  0  0  0  0  0  0  0
   18.2354  -17.7379  -15.3301 O   0  0  0  0  0  0  0  0  0  0  0  0
   17.7079  -18.6042  -16.0922 O   0  0  0  0  0  0  0  0  0  0  0  0
  2  1  1  6
  2  3  1  0
  3  4  1  0
  4  8  1  0
  5  6  1  0
  5  4  2  0
  6  7  1  0
  7  8  2  0
  9  2  1  0
  9 10  2  0
 12 11  1  0
 13 12  2  0
 14 12  1  0
 15 14  1  0
 15 16  1  0
 17 16  1  0
 18 17  1  1
 18 19  1  0
 19  9  1  0
 20 18  1  0
 21 20  2  0
 23 24  2  0
 23 22  1  0
 26 25  1  1
 25 23  1  0
 26 27  1  0
 27 20  1  0
 28 26  1  0
 29 28  2  0
 30 28  1  0
M  END
$$$$
