HRN.pdb
     RDKit          3D

 30 30  0  0  1  0  0  0  0  0999 V2000
   27.6532  -19.5302  -17.6130 N   0  0  0  0  0  0  0  0  0  0  0  0
   26.4528  -18.7681  -17.4061 C   0  0  1  0  0  0  0  0  0  0  0  0
   25.8612  -18.3071  -18.7195 C   0  0  0  0  0  0  0  0  0  0  0  0
   26.8343  -17.4347  -19.3899 C   0  0  0  0  0  0  0  0  0  0  0  0
   27.5541  -17.6773  -20.5366 C   0  0  0  0  0  0  0  0  0  0  0  0
   28.3416  -16.6260  -20.8258 N   0  0  0  0  0  0  0  0  0  0  0  0
   28.1139  -15.7293  -19.8618 C   0  0  0  0  0  0  0  0  0  0  0  0
   27.2080  -16.1972  -18.9856 N   0  0  0  0  0  0  0  0  0  0  0  0
   25.3901  -19.5865  -16.7309 C   0  0  0  0  0  0  0  0  0  0  0  0
   25.4792  -20.8315  -16.7427 O   0  0  0  0  0  0  0  0  0  0  0  0
   25.4478  -20.6004   -9.2945 N   0  0  0  0  0  0  0  0  0  0  0  0
   25.8820  -21.1631  -10.5195 C   0  0  0  0  0  0  0  0  0  0  0  0
   27.0417  -21.6872  -10.6591 N   0  0  0  0  0  0  0  0  0  0  0  0
   25.0025  -21.1491  -11.6416 N   0  0  0  0  0  0  0  0  0  0  0  0
   23.6949  -20.5454  -11.5115 C   0  0  0  0  0  0  0  0  0  0  0  0
   23.0453  -20.5985  -12.9015 C   0  0  0  0  0  0  0  0  0  0  0  0
   23.8774  -19.8294  -13.8791 C   0  0  0  0  0  0  0  0  0  0  0  0
   23.3707  -19.7756  -15.2816 C   0  0  2  0  0  0  0  0  0  0  0  0
   24.3096  -18.9763  -16.0934 N   0  0  0  0  0  0  0  0  0  0  0  0
   22.0575  -19.1520  -15.3654 C   0  0  0  0  0  0  0  0  0  0  0  0
   21.9685  -17.9357  -15.6746 O   0  0  0  0  0  0  0  0  0  0  0  0
   27.3503  -22.0266  -11.5860 N   0  0  0  0  0  0  0  0  0  0  0  0
   20.6933  -17.9421  -19.0931 C   0  0  0  0  0  0  0  0  0  0  0  0
   20.0168  -18.1480  -17.8561 O   0  0  0  0  0  0  0  0  0  0  0  0
   19.6158  -17.1158  -17.2615 C   0  0  0  0  0  0  0  0  0  0  0  0
   19.7859  -19.4879  -17.2817 C   0  0  2  0  0  0  0  0  0  0  0  0
   19.6058  -19.4565  -15.7669 N   0  0  0  0  0  0  0  0  0  0  0  0
   20.8565  -19.8654  -15.1208 C   0  0  0  0  0  0  0  0  0  0  0  0
   18.5292  -20.3546  -15.3526 O   0  0  0  0  0  0  0  0  0  0  0  0
   17.3248  -19.9725  -15.2382 O   0  0  0  0  0  0  0  0  0  0  0  0
  2  1  1  6
  2  3  1  0
  3  4  1  0
  4  8  1  0
  5  6  1  0
  5  4  2  0
  6  7  1  0
  7  8  2  0
  9  2  1  0
  9 10  2  0
 12 11  1  0
 13 12  2  0
 14 12  1  0
 15 14  1  0
 15 16  1  0
 17 16  1  0
 18 17  1  1
 18 19  1  0
 19  9  1  0
 20 18  1  0
 21 20  2  0
 23 24  2  0
 23 22  1  0
 26 25  1  1
 25 23  1  0
 26 27  1  0
 27 20  1  0
 28 26  1  0
 29 28  2  0
 30 28  1  0
M  END
$$$$
