HRN.pdb
     RDKit          3D

 30 30  0  0  1  0  0  0  0  0999 V2000
   30.6531  -32.5938  -18.7580 N   0  0  0  0  0  0  0  0  0  0  0  0
   29.9230  -31.4242  -19.1626 C   0  0  1  0  0  0  0  0  0  0  0  0
   28.4426  -31.7121  -19.2754 C   0  0  0  0  0  0  0  0  0  0  0  0
   28.2153  -32.5298  -20.4743 C   0  0  0  0  0  0  0  0  0  0  0  0
   28.6296  -32.2917  -21.7641 C   0  0  0  0  0  0  0  0  0  0  0  0
   28.2190  -33.2812  -22.5774 N   0  0  0  0  0  0  0  0  0  0  0  0
   27.5501  -34.1349  -21.7970 C   0  0  0  0  0  0  0  0  0  0  0  0
   27.5360  -33.7004  -20.5248 N   0  0  0  0  0  0  0  0  0  0  0  0
   30.0601  -30.3149  -18.1598 C   0  0  0  0  0  0  0  0  0  0  0  0
   30.0953  -30.5928  -16.9434 O   0  0  0  0  0  0  0  0  0  0  0  0
   34.6066  -25.5222  -14.0397 N   0  0  0  0  0  0  0  0  0  0  0  0
   34.7597  -25.2599  -15.4230 C   0  0  0  0  0  0  0  0  0  0  0  0
   35.5295  -24.3367  -15.8636 N   0  0  0  0  0  0  0  0  0  0  0  0
   34.0341  -26.0473  -16.3645 N   0  0  0  0  0  0  0  0  0  0  0  0
   33.2420  -27.1629  -15.8964 C   0  0  0  0  0  0  0  0  0  0  0  0
   32.7802  -27.9291  -17.1442 C   0  0  0  0  0  0  0  0  0  0  0  0
   31.6012  -27.2386  -17.7549 C   0  0  0  0  0  0  0  0  0  0  0  0
   30.2773  -27.9022  -17.5717 C   0  0  2  0  0  0  0  0  0  0  0  0
   30.1485  -28.9838  -18.5682 N   0  0  0  0  0  0  0  0  0  0  0  0
   29.1699  -26.9765  -17.7645 C   0  0  0  0  0  0  0  0  0  0  0  0
   28.6418  -26.8715  -18.9017 O   0  0  0  0  0  0  0  0  0  0  0  0
   35.6475  -24.2006  -16.8820 N   0  0  0  0  0  0  0  0  0  0  0  0
   25.3792  -23.4030  -17.0732 C   0  0  0  0  0  0  0  0  0  0  0  0
   25.9813  -23.6764  -15.8111 O   0  0  0  0  0  0  0  0  0  0  0  0
   25.5157  -23.0523  -14.8245 C   0  0  0  0  0  0  0  0  0  0  0  0
   27.0915  -24.6344  -15.6430 C   0  0  1  0  0  0  0  0  0  0  0  0
   27.5375  -25.2569  -16.9626 N   0  0  0  0  0  0  0  0  0  0  0  0
   28.6451  -26.1840  -16.7122 C   0  0  0  0  0  0  0  0  0  0  0  0
   27.9710  -24.2257  -17.9038 O   0  0  0  0  0  0  0  0  0  0  0  0
   27.2704  -23.8696  -18.8998 O   0  0  0  0  0  0  0  0  0  0  0  0
  2  1  1  1
  2  3  1  0
  3  4  1  0
  4  8  1  0
  5  6  1  0
  5  4  2  0
  6  7  1  0
  7  8  2  0
  9  2  1  0
  9 10  2  0
 12 11  1  0
 13 12  2  0
 14 12  1  0
 15 14  1  0
 15 16  1  0
 17 16  1  0
 18 17  1  6
 18 19  1  0
 19  9  1  0
 20 18  1  0
 21 20  2  0
 23 24  2  0
 23 22  1  0
 26 25  1  1
 25 23  1  0
 26 27  1  0
 27 20  1  0
 28 26  1  0
 29 28  2  0
 30 28  1  0
M  END
$$$$
