HRN.pdb
     RDKit          3D

 30 30  0  0  1  0  0  0  0  0999 V2000
   27.0432  -16.6094  -17.4670 N   0  0  0  0  0  0  0  0  0  0  0  0
   26.0697  -16.5067  -16.4151 C   0  0  1  0  0  0  0  0  0  0  0  0
   25.1959  -15.2850  -16.5922 C   0  0  0  0  0  0  0  0  0  0  0  0
   26.0183  -14.0870  -16.3779 C   0  0  0  0  0  0  0  0  0  0  0  0
   26.4566  -13.1720  -17.3067 C   0  0  0  0  0  0  0  0  0  0  0  0
   27.1884  -12.2140  -16.7103 N   0  0  0  0  0  0  0  0  0  0  0  0
   27.2068  -12.5302  -15.4123 C   0  0  0  0  0  0  0  0  0  0  0  0
   26.5071  -13.6566  -15.1904 N   0  0  0  0  0  0  0  0  0  0  0  0
   25.1428  -17.6882  -16.4050 C   0  0  0  0  0  0  0  0  0  0  0  0
   24.8844  -18.2702  -17.4785 O   0  0  0  0  0  0  0  0  0  0  0  0
   25.0682  -24.4764  -14.8839 N   0  0  0  0  0  0  0  0  0  0  0  0
   24.1037  -24.6825  -13.8674 C   0  0  0  0  0  0  0  0  0  0  0  0
   23.3153  -25.6912  -13.8662 N   0  0  0  0  0  0  0  0  0  0  0  0
   24.0010  -23.7377  -12.8046 N   0  0  0  0  0  0  0  0  0  0  0  0
   24.6540  -22.4535  -12.9304 C   0  0  0  0  0  0  0  0  0  0  0  0
   23.9288  -21.6993  -14.0540 C   0  0  0  0  0  0  0  0  0  0  0  0
   24.5205  -20.3336  -14.2110 C   0  0  0  0  0  0  0  0  0  0  0  0
   23.8403  -19.4247  -15.1795 C   0  0  2  0  0  0  0  0  0  0  0  0
   24.5697  -18.1419  -15.2166 N   0  0  0  0  0  0  0  0  0  0  0  0
   22.4625  -19.1498  -14.7967 C   0  0  0  0  0  0  0  0  0  0  0  0
   22.2296  -18.5179  -13.7339 O   0  0  0  0  0  0  0  0  0  0  0  0
   22.6343  -25.8174  -13.0981 N   0  0  0  0  0  0  0  0  0  0  0  0
   19.8238  -18.2021  -18.7298 C   0  0  0  0  0  0  0  0  0  0  0  0
   19.5668  -17.9940  -17.3438 O   0  0  0  0  0  0  0  0  0  0  0  0
   19.7390  -16.8256  -16.9142 C   0  0  0  0  0  0  0  0  0  0  0  0
   19.1220  -19.0728  -16.4399 C   0  0  2  0  0  0  0  0  0  0  0  0
   19.9912  -19.1916  -15.1917 N   0  0  0  0  0  0  0  0  0  0  0  0
   21.3554  -19.5584  -15.5831 C   0  0  0  0  0  0  0  0  0  0  0  0
   19.4585  -20.2040  -14.2814 O   0  0  0  0  0  0  0  0  0  0  0  0
   19.7891  -21.4271  -14.3487 O   0  0  0  0  0  0  0  0  0  0  0  0
  2  1  1  6
  2  3  1  0
  3  4  1  0
  4  8  1  0
  5  6  1  0
  5  4  2  0
  6  7  1  0
  7  8  2  0
  9  2  1  0
  9 10  2  0
 12 11  1  0
 13 12  2  0
 14 12  1  0
 15 14  1  0
 15 16  1  0
 17 16  1  0
 18 17  1  1
 18 19  1  0
 19  9  1  0
 20 18  1  0
 21 20  2  0
 23 24  2  0
 23 22  1  0
 26 25  1  6
 25 23  1  0
 26 27  1  0
 27 20  1  0
 28 26  1  0
 29 28  2  0
 30 28  1  0
M  END
$$$$
