HRN.pdb
     RDKit          3D

 30 30  0  0  1  0  0  0  0  0999 V2000
   25.5792  -21.1863  -19.3711 N   0  0  0  0  0  0  0  0  0  0  0  0
   25.1817  -19.9412  -18.7740 C   0  0  1  0  0  0  0  0  0  0  0  0
   24.6049  -18.9967  -19.8048 C   0  0  0  0  0  0  0  0  0  0  0  0
   25.6629  -18.6464  -20.7617 C   0  0  0  0  0  0  0  0  0  0  0  0
   25.7414  -18.9512  -22.1007 C   0  0  0  0  0  0  0  0  0  0  0  0
   26.8714  -18.4485  -22.6293 N   0  0  0  0  0  0  0  0  0  0  0  0
   27.4967  -17.8314  -21.6227 C   0  0  0  0  0  0  0  0  0  0  0  0
   26.7847  -17.9389  -20.4874 N   0  0  0  0  0  0  0  0  0  0  0  0
   24.1095  -20.1425  -17.7421 C   0  0  0  0  0  0  0  0  0  0  0  0
   23.1961  -20.9639  -17.9634 O   0  0  0  0  0  0  0  0  0  0  0  0
   24.5918  -21.4625   -9.3124 N   0  0  0  0  0  0  0  0  0  0  0  0
   23.2082  -21.2046   -9.4711 C   0  0  0  0  0  0  0  0  0  0  0  0
   22.3673  -21.3717   -8.5204 N   0  0  0  0  0  0  0  0  0  0  0  0
   22.7272  -20.7423  -10.7312 N   0  0  0  0  0  0  0  0  0  0  0  0
   23.6653  -20.5054  -11.8060 C   0  0  0  0  0  0  0  0  0  0  0  0
   22.8326  -20.1615  -13.0491 C   0  0  0  0  0  0  0  0  0  0  0  0
   23.7399  -19.9090  -14.2123 C   0  0  0  0  0  0  0  0  0  0  0  0
   23.0779  -19.6560  -15.5255 C   0  0  2  0  0  0  0  0  0  0  0  0
   24.1211  -19.4267  -16.5446 N   0  0  0  0  0  0  0  0  0  0  0  0
   22.2180  -18.4814  -15.4874 C   0  0  0  0  0  0  0  0  0  0  0  0
   22.7093  -17.3468  -15.7207 O   0  0  0  0  0  0  0  0  0  0  0  0
   21.3625  -21.1826   -8.6763 N   0  0  0  0  0  0  0  0  0  0  0  0
   19.6106  -14.2531  -16.4774 C   0  0  0  0  0  0  0  0  0  0  0  0
   19.1890  -15.5729  -16.8104 O   0  0  0  0  0  0  0  0  0  0  0  0
   18.0176  -15.6894  -17.2505 C   0  0  0  0  0  0  0  0  0  0  0  0
   20.0590  -16.7553  -16.6570 C   0  0  1  0  0  0  0  0  0  0  0  0
   19.9937  -17.3572  -15.2566 N   0  0  0  0  0  0  0  0  0  0  0  0
   20.8304  -18.5597  -15.2055 C   0  0  0  0  0  0  0  0  0  0  0  0
   18.6186  -17.7073  -14.9046 O   0  0  0  0  0  0  0  0  0  0  0  0
   18.0625  -18.7776  -15.2983 O   0  0  0  0  0  0  0  0  0  0  0  0
  2  1  1  6
  2  3  1  0
  3  4  1  0
  4  8  1  0
  5  6  1  0
  5  4  2  0
  6  7  1  0
  7  8  2  0
  9  2  1  0
  9 10  2  0
 12 11  1  0
 13 12  2  0
 14 12  1  0
 15 14  1  0
 15 16  1  0
 17 16  1  0
 18 17  1  1
 18 19  1  0
 19  9  1  0
 20 18  1  0
 21 20  2  0
 23 24  2  0
 23 22  1  0
 26 25  1  1
 25 23  1  0
 26 27  1  0
 27 20  1  0
 28 26  1  0
 29 28  2  0
 30 28  1  0
M  END
$$$$
