HRN.pdb
     RDKit          3D

 30 30  0  0  1  0  0  0  0  0999 V2000
   27.7544  -21.6663  -18.7520 N   0  0  0  0  0  0  0  0  0  0  0  0
   27.6661  -22.3359  -17.4837 C   0  0  1  0  0  0  0  0  0  0  0  0
   27.0339  -21.4472  -16.4358 C   0  0  0  0  0  0  0  0  0  0  0  0
   27.8006  -20.1967  -16.3592 C   0  0  0  0  0  0  0  0  0  0  0  0
   28.8246  -19.7690  -17.1720 C   0  0  0  0  0  0  0  0  0  0  0  0
   29.2673  -18.5637  -16.7715 N   0  0  0  0  0  0  0  0  0  0  0  0
   28.5214  -18.2398  -15.7113 C   0  0  0  0  0  0  0  0  0  0  0  0
   27.6307  -19.2111  -15.4458 N   0  0  0  0  0  0  0  0  0  0  0  0
   26.8058  -23.5638  -17.5676 C   0  0  0  0  0  0  0  0  0  0  0  0
   25.6367  -23.4619  -17.9930 O   0  0  0  0  0  0  0  0  0  0  0  0
   30.4598  -30.7169  -16.7454 N   0  0  0  0  0  0  0  0  0  0  0  0
   29.2761  -30.7712  -15.9697 C   0  0  0  0  0  0  0  0  0  0  0  0
   29.1056  -31.6353  -15.0405 N   0  0  0  0  0  0  0  0  0  0  0  0
   28.2328  -29.8340  -16.2266 N   0  0  0  0  0  0  0  0  0  0  0  0
   27.7568  -29.6546  -17.5803 C   0  0  0  0  0  0  0  0  0  0  0  0
   26.6971  -28.5448  -17.5308 C   0  0  0  0  0  0  0  0  0  0  0  0
   27.3638  -27.2151  -17.3661 C   0  0  0  0  0  0  0  0  0  0  0  0
   26.4665  -26.0231  -17.3414 C   0  0  2  0  0  0  0  0  0  0  0  0
   27.2940  -24.8115  -17.1784 N   0  0  0  0  0  0  0  0  0  0  0  0
   25.5188  -26.0744  -16.2370 C   0  0  0  0  0  0  0  0  0  0  0  0
   25.8961  -25.7480  -15.0820 O   0  0  0  0  0  0  0  0  0  0  0  0
   28.2067  -31.6798  -14.5310 N   0  0  0  0  0  0  0  0  0  0  0  0
   21.3633  -25.7892  -13.2168 C   0  0  0  0  0  0  0  0  0  0  0  0
   22.2341  -24.7556  -13.6683 O   0  0  0  0  0  0  0  0  0  0  0  0
   22.1211  -23.6422  -13.0963 C   0  0  0  0  0  0  0  0  0  0  0  0
   23.2231  -24.9539  -14.7458 C   0  0  1  0  0  0  0  0  0  0  0  0
   23.2207  -26.3781  -15.2931 N   0  0  0  0  0  0  0  0  0  0  0  0
   24.1682  -26.4715  -16.4077 C   0  0  0  0  0  0  0  0  0  0  0  0
   21.8864  -26.7545  -15.7573 O   0  0  0  0  0  0  0  0  0  0  0  0
   21.5719  -26.7831  -16.9861 O   0  0  0  0  0  0  0  0  0  0  0  0
  2  1  1  6
  2  3  1  0
  3  4  1  0
  4  8  1  0
  5  6  1  0
  5  4  2  0
  6  7  1  0
  7  8  2  0
  9  2  1  0
  9 10  2  0
 12 11  1  0
 13 12  2  0
 14 12  1  0
 15 14  1  0
 15 16  1  0
 17 16  1  0
 18 17  1  1
 18 19  1  0
 19  9  1  0
 20 18  1  0
 21 20  2  0
 23 24  2  0
 23 22  1  0
 26 25  1  1
 25 23  1  0
 26 27  1  0
 27 20  1  0
 28 26  1  0
 29 28  2  0
 30 28  1  0
M  END
$$$$
