HRN.pdb
     RDKit          3D

 30 30  0  0  1  0  0  0  0  0999 V2000
   26.3572  -22.4607  -15.6588 N   0  0  0  0  0  0  0  0  0  0  0  0
   25.0060  -22.9486  -15.6912 C   0  0  1  0  0  0  0  0  0  0  0  0
   24.9184  -24.3604  -15.1559 C   0  0  0  0  0  0  0  0  0  0  0  0
   25.6708  -25.2478  -16.0525 C   0  0  0  0  0  0  0  0  0  0  0  0
   25.3031  -25.7288  -17.2876 C   0  0  0  0  0  0  0  0  0  0  0  0
   26.2715  -26.5153  -17.7904 N   0  0  0  0  0  0  0  0  0  0  0  0
   27.2413  -26.5251  -16.8715 C   0  0  0  0  0  0  0  0  0  0  0  0
   26.8991  -25.7669  -15.8152 N   0  0  0  0  0  0  0  0  0  0  0  0
   24.0990  -22.1162  -14.8313 C   0  0  0  0  0  0  0  0  0  0  0  0
   24.4758  -21.7857  -13.6881 O   0  0  0  0  0  0  0  0  0  0  0  0
   19.5611  -17.2911  -16.4394 N   0  0  0  0  0  0  0  0  0  0  0  0
   20.1437  -16.5407  -15.3889 C   0  0  0  0  0  0  0  0  0  0  0  0
   19.4579  -15.7530  -14.6484 N   0  0  0  0  0  0  0  0  0  0  0  0
   21.5425  -16.6613  -15.1410 N   0  0  0  0  0  0  0  0  0  0  0  0
   22.3678  -17.3984  -16.0721 C   0  0  0  0  0  0  0  0  0  0  0  0
   22.8356  -18.6638  -15.3393 C   0  0  0  0  0  0  0  0  0  0  0  0
   21.6824  -19.6007  -15.1601 C   0  0  0  0  0  0  0  0  0  0  0  0
   21.9714  -20.8767  -14.4425 C   0  0  2  0  0  0  0  0  0  0  0  0
   22.8464  -21.7091  -15.2915 N   0  0  0  0  0  0  0  0  0  0  0  0
   20.7594  -21.6343  -14.1638 C   0  0  0  0  0  0  0  0  0  0  0  0
   20.5997  -22.7638  -14.6947 O   0  0  0  0  0  0  0  0  0  0  0  0
   19.8835  -15.3300  -13.8061 N   0  0  0  0  0  0  0  0  0  0  0  0
   16.5076  -23.7227  -12.0828 C   0  0  0  0  0  0  0  0  0  0  0  0
   17.8429  -23.9561  -11.6436 O   0  0  0  0  0  0  0  0  0  0  0  0
   18.0194  -24.9563  -10.9033 C   0  0  0  0  0  0  0  0  0  0  0  0
   18.9748  -23.0877  -12.0218 C   0  0  2  0  0  0  0  0  0  0  0  0
   18.5724  -21.9872  -12.9990 N   0  0  0  0  0  0  0  0  0  0  0  0
   19.7408  -21.1552  -13.3013 C   0  0  0  0  0  0  0  0  0  0  0  0
   17.5145  -21.1512  -12.4337 O   0  0  0  0  0  0  0  0  0  0  0  0
   17.7558  -20.0972  -11.7702 O   0  0  0  0  0  0  0  0  0  0  0  0
  2  1  1  1
  2  3  1  0
  3  4  1  0
  4  8  1  0
  5  6  1  0
  5  4  2  0
  6  7  1  0
  7  8  2  0
  9  2  1  0
  9 10  2  0
 12 11  1  0
 13 12  2  0
 14 12  1  0
 15 14  1  0
 15 16  1  0
 17 16  1  0
 18 17  1  6
 18 19  1  0
 19  9  1  0
 20 18  1  0
 21 20  2  0
 23 24  2  0
 23 22  1  0
 26 25  1  6
 25 23  1  0
 26 27  1  0
 27 20  1  0
 28 26  1  0
 29 28  2  0
 30 28  1  0
M  END
$$$$
