HRN.pdb
     RDKit          3D

 30 30  0  0  1  0  0  0  0  0999 V2000
   22.5638  -26.2293  -17.0103 N   0  0  0  0  0  0  0  0  0  0  0  0
   22.0378  -24.9753  -17.4744 C   0  0  1  0  0  0  0  0  0  0  0  0
   20.6177  -25.1258  -17.9728 C   0  0  0  0  0  0  0  0  0  0  0  0
   20.6472  -25.8252  -19.2642 C   0  0  0  0  0  0  0  0  0  0  0  0
   21.3035  -25.4650  -20.4181 C   0  0  0  0  0  0  0  0  0  0  0  0
   21.0803  -26.3723  -21.3857 N   0  0  0  0  0  0  0  0  0  0  0  0
   20.2865  -27.2965  -20.8370 C   0  0  0  0  0  0  0  0  0  0  0  0
   20.0133  -26.9855  -19.5579 N   0  0  0  0  0  0  0  0  0  0  0  0
   21.9905  -23.9561  -16.3727 C   0  0  0  0  0  0  0  0  0  0  0  0
   21.3840  -24.2273  -15.3160 O   0  0  0  0  0  0  0  0  0  0  0  0
   27.4162  -20.2999  -13.5955 N   0  0  0  0  0  0  0  0  0  0  0  0
   27.8655  -20.7651  -14.8556 C   0  0  0  0  0  0  0  0  0  0  0  0
   28.8659  -21.5549  -14.9767 N   0  0  0  0  0  0  0  0  0  0  0  0
   27.1851  -20.3434  -16.0354 N   0  0  0  0  0  0  0  0  0  0  0  0
   25.8371  -19.8300  -15.9327 C   0  0  0  0  0  0  0  0  0  0  0  0
   24.9334  -21.0280  -15.6082 C   0  0  0  0  0  0  0  0  0  0  0  0
   23.4968  -20.6207  -15.7091 C   0  0  0  0  0  0  0  0  0  0  0  0
   22.4864  -21.6900  -15.4598 C   0  0  2  0  0  0  0  0  0  0  0  0
   22.6131  -22.7155  -16.5141 N   0  0  0  0  0  0  0  0  0  0  0  0
   21.1249  -21.1747  -15.4925 C   0  0  0  0  0  0  0  0  0  0  0  0
   20.6328  -20.7953  -16.5865 O   0  0  0  0  0  0  0  0  0  0  0  0
   29.1258  -21.9252  -15.9068 N   0  0  0  0  0  0  0  0  0  0  0  0
   15.7912  -20.6756  -12.4170 C   0  0  0  0  0  0  0  0  0  0  0  0
   16.6499  -20.6745  -13.5541 O   0  0  0  0  0  0  0  0  0  0  0  0
   16.1863  -20.1586  -14.6022 C   0  0  0  0  0  0  0  0  0  0  0  0
   18.0127  -21.2409  -13.5305 C   0  0  2  0  0  0  0  0  0  0  0  0
   18.9924  -20.4554  -14.3970 N   0  0  0  0  0  0  0  0  0  0  0  0
   20.3129  -21.0888  -14.3330 C   0  0  0  0  0  0  0  0  0  0  0  0
   19.0957  -19.0704  -13.9404 O   0  0  0  0  0  0  0  0  0  0  0  0
   19.8411  -18.7218  -12.9747 O   0  0  0  0  0  0  0  0  0  0  0  0
  2  1  1  1
  2  3  1  0
  3  4  1  0
  4  8  1  0
  5  6  1  0
  5  4  2  0
  6  7  1  0
  7  8  2  0
  9  2  1  0
  9 10  2  0
 12 11  1  0
 13 12  2  0
 14 12  1  0
 15 14  1  0
 15 16  1  0
 17 16  1  0
 18 17  1  6
 18 19  1  0
 19  9  1  0
 20 18  1  0
 21 20  2  0
 23 24  2  0
 23 22  1  0
 26 25  1  6
 25 23  1  0
 26 27  1  0
 27 20  1  0
 28 26  1  0
 29 28  2  0
 30 28  1  0
M  END
$$$$
