HRN.pdb
     RDKit          3D

 30 30  0  0  1  0  0  0  0  0999 V2000
   25.3521  -30.7968  -18.0486 N   0  0  0  0  0  0  0  0  0  0  0  0
   24.2643  -30.8485  -17.1113 C   0  0  1  0  0  0  0  0  0  0  0  0
   24.5570  -31.8113  -15.9822 C   0  0  0  0  0  0  0  0  0  0  0  0
   23.3762  -31.8836  -15.1115 C   0  0  0  0  0  0  0  0  0  0  0  0
   22.2167  -32.5992  -15.2993 C   0  0  0  0  0  0  0  0  0  0  0  0
   21.3725  -32.4000  -14.2713 N   0  0  0  0  0  0  0  0  0  0  0  0
   22.0037  -31.5622  -13.4438 C   0  0  0  0  0  0  0  0  0  0  0  0
   23.2138  -31.2383  -13.9319 N   0  0  0  0  0  0  0  0  0  0  0  0
   24.0242  -29.5113  -16.4715 C   0  0  0  0  0  0  0  0  0  0  0  0
   24.9416  -28.6650  -16.4640 O   0  0  0  0  0  0  0  0  0  0  0  0
   22.4005  -22.4754  -19.2683 N   0  0  0  0  0  0  0  0  0  0  0  0
   22.1071  -22.1684  -17.9171 C   0  0  0  0  0  0  0  0  0  0  0  0
   21.8760  -20.9729  -17.5214 N   0  0  0  0  0  0  0  0  0  0  0  0
   22.0658  -23.2223  -16.9578 N   0  0  0  0  0  0  0  0  0  0  0  0
   22.4095  -24.5668  -17.3646 C   0  0  0  0  0  0  0  0  0  0  0  0
   22.2235  -25.4611  -16.1307 C   0  0  0  0  0  0  0  0  0  0  0  0
   22.6052  -26.8694  -16.4637 C   0  0  0  0  0  0  0  0  0  0  0  0
   22.5401  -27.8551  -15.3453 C   0  0  2  0  0  0  0  0  0  0  0  0
   22.7946  -29.2040  -15.8883 N   0  0  0  0  0  0  0  0  0  0  0  0
   21.2340  -27.8666  -14.7015 C   0  0  0  0  0  0  0  0  0  0  0  0
   20.2429  -28.3328  -15.3206 O   0  0  0  0  0  0  0  0  0  0  0  0
   21.7182  -20.7793  -16.5178 N   0  0  0  0  0  0  0  0  0  0  0  0
   22.0522  -27.8999  -10.2901 C   0  0  0  0  0  0  0  0  0  0  0  0
   20.7306  -27.4151  -10.5107 O   0  0  0  0  0  0  0  0  0  0  0  0
   20.4088  -26.3713   -9.8890 C   0  0  0  0  0  0  0  0  0  0  0  0
   19.7722  -28.0817  -11.4138 C   0  0  1  0  0  0  0  0  0  0  0  0
   19.6910  -27.4143  -12.7834 N   0  0  0  0  0  0  0  0  0  0  0  0
   21.0267  -27.3788  -13.3861 C   0  0  0  0  0  0  0  0  0  0  0  0
   19.1742  -26.0515  -12.6679 O   0  0  0  0  0  0  0  0  0  0  0  0
   18.0164  -25.7943  -12.2177 O   0  0  0  0  0  0  0  0  0  0  0  0
  2  1  1  6
  2  3  1  0
  3  4  1  0
  4  8  1  0
  5  6  1  0
  5  4  2  0
  6  7  1  0
  7  8  2  0
  9  2  1  0
  9 10  2  0
 12 11  1  0
 13 12  2  0
 14 12  1  0
 15 14  1  0
 15 16  1  0
 17 16  1  0
 18 17  1  6
 18 19  1  0
 19  9  1  0
 20 18  1  0
 21 20  2  0
 23 24  2  0
 23 22  1  0
 26 25  1  6
 25 23  1  0
 26 27  1  0
 27 20  1  0
 28 26  1  0
 29 28  2  0
 30 28  1  0
M  END
$$$$
