RDA.pdb
     RDKit          3D

 25 24  0  0  1  0  0  0  0  0999 V2000
    7.8477  -12.2482   18.0734 N   0  0  0  0  0  0  0  0  0  0  0  0
    8.3978  -13.4143   17.4807 C   0  0  0  0  0  0  0  0  0  0  0  0
    8.0455  -13.7011   16.2514 N   0  0  0  0  0  0  0  0  0  0  0  0
    9.3000  -14.2487   18.1946 N   0  0  0  0  0  0  0  0  0  0  0  0
    9.2094  -14.3901   19.6331 C   0  0  0  0  0  0  0  0  0  0  0  0
    7.7961  -14.5503   20.1042 C   0  0  0  0  0  0  0  0  0  0  0  0
    7.7458  -14.6902   21.5886 C   0  0  0  0  0  0  0  0  0  0  0  0
    6.9743  -15.8907   22.0135 C   0  0  2  0  0  0  0  0  0  0  0  0
    5.5926  -15.7114   21.6196 N   0  0  0  0  0  0  0  0  0  0  0  0
    6.9920  -16.0490   23.5061 C   0  0  0  0  0  0  0  0  0  0  0  0
    6.4038  -15.2123   24.2301 O   0  0  0  0  0  0  0  0  0  0  0  0
    8.3968  -14.5609   15.7775 N   0  0  0  0  0  0  0  0  0  0  0  0
    7.6600  -17.1251   24.1373 C   0  0  2  0  0  0  0  0  0  0  0  0
    7.7434  -17.2999   25.5653 C   0  0  0  0  0  0  0  0  0  0  0  0
    8.0390  -18.7773   25.8325 C   0  0  0  0  0  0  0  0  0  0  0  0
    8.0537  -19.0141   27.2962 O   0  0  0  0  0  0  0  0  0  0  0  0
    7.6615  -18.0864   28.0546 C   0  0  0  0  0  0  0  0  0  0  0  0
    8.8096  -16.4440   26.1209 O   0  0  0  0  0  0  0  0  0  0  0  0
    9.9612  -16.3657   25.5705 O   0  0  0  0  0  0  0  0  0  0  0  0
    8.4761  -20.2013   27.8908 C   0  0  0  0  0  0  0  0  0  0  0  0
    9.1349  -13.5073   28.2869 C   0  0  1  0  0  0  0  0  0  0  0  0
    9.7161  -14.8326   27.7952 N   0  0  0  0  0  0  0  0  0  0  0  0
    8.6246  -15.6610   27.2902 C   0  0  0  0  0  0  0  0  0  0  0  0
   10.3197  -15.5102   28.9639 O   0  0  0  0  0  0  0  0  0  0  0  0
   11.4305  -14.9917   29.6272 O   0  0  0  0  0  0  0  0  0  0  0  0
  2  3  2  0
  2  1  1  0
  4  2  1  0
  5  4  1  0
  6  5  1  0
  7  6  1  0
  8  7  1  0
  8 10  1  0
  8  9  1  1
 10 12  1  0
 11 10  2  0
 12 13  1  0
 13 14  1  6
 14 15  1  0
 15 19  1  0
 16 15  2  0
 17 13  1  0
 17 18  2  0
 21 20  1  6
 21 22  1  0
 21 23  1  0
 22 17  1  0
 23 25  2  0
 23 24  1  0
M  END
$$$$
