RDA.pdb
     RDKit          3D

 25 24  0  0  1  0  0  0  0  0999 V2000
    9.4240  -13.2837   20.1998 N   0  0  0  0  0  0  0  0  0  0  0  0
    8.6222  -12.9399   19.0805 C   0  0  0  0  0  0  0  0  0  0  0  0
    8.5873  -11.6817   18.7155 N   0  0  0  0  0  0  0  0  0  0  0  0
    7.8773  -13.9247   18.3770 N   0  0  0  0  0  0  0  0  0  0  0  0
    7.8309  -15.2974   18.8363 C   0  0  0  0  0  0  0  0  0  0  0  0
    8.1076  -16.2779   17.7377 C   0  0  0  0  0  0  0  0  0  0  0  0
    9.3849  -17.0067   17.9881 C   0  0  0  0  0  0  0  0  0  0  0  0
   10.5641  -16.2741   17.4498 C   0  0  2  0  0  0  0  0  0  0  0  0
   11.2414  -17.1302   16.4988 N   0  0  0  0  0  0  0  0  0  0  0  0
   11.5488  -15.9540   18.5366 C   0  0  0  0  0  0  0  0  0  0  0  0
   12.3078  -14.9638   18.4203 O   0  0  0  0  0  0  0  0  0  0  0  0
    8.0203  -11.3746   17.8960 N   0  0  0  0  0  0  0  0  0  0  0  0
   11.6547  -16.7423   19.7072 C   0  0  1  0  0  0  0  0  0  0  0  0
   12.6200  -16.5132   20.7523 C   0  0  0  0  0  0  0  0  0  0  0  0
   12.5037  -17.6686   21.7488 C   0  0  0  0  0  0  0  0  0  0  0  0
   13.4182  -17.4219   22.8896 O   0  0  0  0  0  0  0  0  0  0  0  0
   14.1635  -16.4058   22.8479 C   0  0  0  0  0  0  0  0  0  0  0  0
   13.9801  -16.4482   20.1830 O   0  0  0  0  0  0  0  0  0  0  0  0
   14.4954  -17.4411   19.5633 O   0  0  0  0  0  0  0  0  0  0  0  0
   13.5084  -18.2452   24.0101 C   0  0  0  0  0  0  0  0  0  0  0  0
   16.1648  -14.1070   18.6700 C   0  0  1  0  0  0  0  0  0  0  0  0
   16.1146  -15.2665   19.6645 N   0  0  0  0  0  0  0  0  0  0  0  0
   14.7935  -15.2897   20.2865 C   0  0  0  0  0  0  0  0  0  0  0  0
   17.1234  -14.9931   20.7119 O   0  0  0  0  0  0  0  0  0  0  0  0
   18.4834  -14.8982   20.4221 O   0  0  0  0  0  0  0  0  0  0  0  0
  2  3  2  0
  2  1  1  0
  4  2  1  0
  5  4  1  0
  6  5  1  0
  7  6  1  0
  8  7  1  0
  8 10  1  0
  8  9  1  6
 10 12  1  0
 11 10  2  0
 12 13  1  0
 13 14  1  6
 14 15  1  0
 15 19  1  0
 16 15  2  0
 17 13  1  0
 17 18  2  0
 21 20  1  6
 21 22  1  0
 21 23  1  0
 22 17  1  0
 23 25  2  0
 23 24  1  0
M  END
$$$$
