RDA.pdb
     RDKit          3D

 25 24  0  0  1  0  0  0  0  0999 V2000
    7.9798  -12.4289   21.0241 N   0  0  0  0  0  0  0  0  0  0  0  0
    7.7310  -12.9536   19.7293 C   0  0  0  0  0  0  0  0  0  0  0  0
    7.3503  -12.1193   18.7931 N   0  0  0  0  0  0  0  0  0  0  0  0
    7.8857  -14.3391   19.4531 N   0  0  0  0  0  0  0  0  0  0  0  0
    7.1042  -15.3341   20.1577 C   0  0  0  0  0  0  0  0  0  0  0  0
    7.8262  -15.8922   21.3461 C   0  0  0  0  0  0  0  0  0  0  0  0
    9.2694  -16.1070   21.0356 C   0  0  0  0  0  0  0  0  0  0  0  0
    9.6384  -17.5494   21.0516 C   0  0  2  0  0  0  0  0  0  0  0  0
    8.4234  -18.3332   21.1272 N   0  0  0  0  0  0  0  0  0  0  0  0
   10.4593  -17.8879   22.2619 C   0  0  0  0  0  0  0  0  0  0  0  0
   10.0500  -18.7508   23.0732 O   0  0  0  0  0  0  0  0  0  0  0  0
    7.0835  -12.4602   17.8444 N   0  0  0  0  0  0  0  0  0  0  0  0
   11.6987  -17.2579   22.5263 C   0  0  2  0  0  0  0  0  0  0  0  0
   12.5697  -17.6121   23.6183 C   0  0  0  0  0  0  0  0  0  0  0  0
   13.7120  -16.5943   23.6458 C   0  0  0  0  0  0  0  0  0  0  0  0
   14.5657  -16.7877   22.4491 O   0  0  0  0  0  0  0  0  0  0  0  0
   14.6729  -17.9508   21.9743 C   0  0  0  0  0  0  0  0  0  0  0  0
   11.8226  -17.5949   24.8909 O   0  0  0  0  0  0  0  0  0  0  0  0
   11.2612  -16.5305   25.3240 O   0  0  0  0  0  0  0  0  0  0  0  0
   15.2617  -15.7620   21.8125 C   0  0  0  0  0  0  0  0  0  0  0  0
    9.7478  -19.5630   26.9264 C   0  0  2  0  0  0  0  0  0  0  0  0
   10.9790  -18.6591   26.9831 N   0  0  0  0  0  0  0  0  0  0  0  0
   11.6814  -18.7483   25.7059 C   0  0  0  0  0  0  0  0  0  0  0  0
   11.8644  -19.1858   28.0452 O   0  0  0  0  0  0  0  0  0  0  0  0
   11.5162  -19.1296   29.3936 O   0  0  0  0  0  0  0  0  0  0  0  0
  2  3  2  0
  2  1  1  0
  4  2  1  0
  5  4  1  0
  6  5  1  0
  7  6  1  0
  8  7  1  0
  8 10  1  0
  8  9  1  1
 10 12  1  0
 11 10  2  0
 12 13  1  0
 13 14  1  6
 14 15  1  0
 15 19  1  0
 16 15  2  0
 17 13  1  0
 17 18  2  0
 21 20  1  6
 21 22  1  0
 21 23  1  0
 22 17  1  0
 23 25  2  0
 23 24  1  0
M  END
$$$$
