RDA.pdb
     RDKit          3D

 25 24  0  0  1  0  0  0  0  0999 V2000
    8.5339  -12.6999   19.6353 N   0  0  0  0  0  0  0  0  0  0  0  0
    7.9962  -13.4026   18.5258 C   0  0  0  0  0  0  0  0  0  0  0  0
    8.1607  -12.8835   17.3338 N   0  0  0  0  0  0  0  0  0  0  0  0
    7.2985  -14.6289   18.6977 N   0  0  0  0  0  0  0  0  0  0  0  0
    7.6477  -15.5451   19.7635 C   0  0  0  0  0  0  0  0  0  0  0  0
    7.6185  -14.8921   21.1118 C   0  0  0  0  0  0  0  0  0  0  0  0
    8.0268  -15.8553   22.1752 C   0  0  0  0  0  0  0  0  0  0  0  0
    9.0402  -16.8318   21.6890 C   0  0  2  0  0  0  0  0  0  0  0  0
    8.3573  -18.0494   21.3053 N   0  0  0  0  0  0  0  0  0  0  0  0
   10.0125  -17.1929   22.7742 C   0  0  0  0  0  0  0  0  0  0  0  0
    9.7014  -18.0525   23.6312 O   0  0  0  0  0  0  0  0  0  0  0  0
    7.7682  -13.3469   16.4861 N   0  0  0  0  0  0  0  0  0  0  0  0
   11.2886  -16.5883   22.8681 C   0  0  2  0  0  0  0  0  0  0  0  0
   12.2382  -16.8613   23.9170 C   0  0  0  0  0  0  0  0  0  0  0  0
   13.4802  -16.0089   23.6481 C   0  0  0  0  0  0  0  0  0  0  0  0
   14.1834  -16.5357   22.4538 O   0  0  0  0  0  0  0  0  0  0  0  0
   14.2860  -17.7858   22.3249 C   0  0  0  0  0  0  0  0  0  0  0  0
   11.6525  -16.5329   25.2312 O   0  0  0  0  0  0  0  0  0  0  0  0
   11.0965  -15.4030   25.4536 O   0  0  0  0  0  0  0  0  0  0  0  0
   14.7421  -15.7346   21.4600 C   0  0  0  0  0  0  0  0  0  0  0  0
    9.4972  -16.9497   27.2847 C   0  0  2  0  0  0  0  0  0  0  0  0
   10.9914  -17.1019   27.5680 N   0  0  0  0  0  0  0  0  0  0  0  0
   11.6696  -17.4428   26.3205 C   0  0  0  0  0  0  0  0  0  0  0  0
   11.1485  -18.2298   28.5128 O   0  0  0  0  0  0  0  0  0  0  0  0
   10.7969  -18.1228   29.8573 O   0  0  0  0  0  0  0  0  0  0  0  0
  2  3  2  0
  2  1  1  0
  4  2  1  0
  5  4  1  0
  6  5  1  0
  7  6  1  0
  8  7  1  0
  8 10  1  0
  8  9  1  1
 10 12  1  0
 11 10  2  0
 12 13  1  0
 13 14  1  6
 14 15  1  0
 15 19  1  0
 16 15  2  0
 17 13  1  0
 17 18  2  0
 21 20  1  6
 21 22  1  0
 21 23  1  0
 22 17  1  0
 23 25  2  0
 23 24  1  0
M  END
$$$$
