RDA.pdb
     RDKit          3D

 25 24  0  0  1  0  0  0  0  0999 V2000
    7.9101  -11.9118   18.3327 N   0  0  0  0  0  0  0  0  0  0  0  0
    8.4425  -13.1967   18.0510 C   0  0  0  0  0  0  0  0  0  0  0  0
    8.3422  -13.6457   16.8239 N   0  0  0  0  0  0  0  0  0  0  0  0
    9.0629  -13.9760   19.0646 N   0  0  0  0  0  0  0  0  0  0  0  0
    8.2962  -14.9057   19.8679 C   0  0  0  0  0  0  0  0  0  0  0  0
    7.2213  -14.2259   20.6601 C   0  0  0  0  0  0  0  0  0  0  0  0
    7.2001  -14.7295   22.0641 C   0  0  0  0  0  0  0  0  0  0  0  0
    7.3003  -16.2136   22.1298 C   0  0  2  0  0  0  0  0  0  0  0  0
    5.9844  -16.7730   21.9019 N   0  0  0  0  0  0  0  0  0  0  0  0
    7.7456  -16.6695   23.4889 C   0  0  0  0  0  0  0  0  0  0  0  0
    6.9101  -16.7777   24.4165 O   0  0  0  0  0  0  0  0  0  0  0  0
    8.8033  -14.5359   16.5371 N   0  0  0  0  0  0  0  0  0  0  0  0
    9.0966  -16.9863   23.7671 C   0  0  2  0  0  0  0  0  0  0  0  0
    9.5778  -17.4179   25.0551 C   0  0  0  0  0  0  0  0  0  0  0  0
   10.7067  -18.4220   24.8128 C   0  0  0  0  0  0  0  0  0  0  0  0
   11.1988  -18.9259   26.1175 O   0  0  0  0  0  0  0  0  0  0  0  0
   12.4393  -18.8918   26.3408 C   0  0  0  0  0  0  0  0  0  0  0  0
   10.0645  -16.2601   25.8301 O   0  0  0  0  0  0  0  0  0  0  0  0
   11.1102  -15.6119   25.4811 O   0  0  0  0  0  0  0  0  0  0  0  0
   10.3750  -19.4382   27.1177 C   0  0  0  0  0  0  0  0  0  0  0  0
    8.8739  -13.7278   28.1502 C   0  0  1  0  0  0  0  0  0  0  0  0
    9.9871  -14.7080   27.7811 N   0  0  0  0  0  0  0  0  0  0  0  0
    9.4080  -15.7979   27.0006 C   0  0  0  0  0  0  0  0  0  0  0  0
   10.5209  -15.2649   29.0437 O   0  0  0  0  0  0  0  0  0  0  0  0
   11.2435  -14.4881   29.9477 O   0  0  0  0  0  0  0  0  0  0  0  0
  2  3  2  0
  2  1  1  0
  4  2  1  0
  5  4  1  0
  6  5  1  0
  7  6  1  0
  8  7  1  0
  8 10  1  0
  8  9  1  1
 10 12  1  0
 11 10  2  0
 12 13  1  0
 13 14  1  6
 14 15  1  0
 15 19  1  0
 16 15  2  0
 17 13  1  0
 17 18  2  0
 21 20  1  6
 21 22  1  0
 21 23  1  0
 22 17  1  0
 23 25  2  0
 23 24  1  0
M  END
$$$$
