RDA.pdb
     RDKit          3D

 25 24  0  0  1  0  0  0  0  0999 V2000
    9.4080  -15.8572   14.4315 N   0  0  0  0  0  0  0  0  0  0  0  0
    8.0340  -16.0752   14.7115 C   0  0  0  0  0  0  0  0  0  0  0  0
    7.2929  -16.6030   13.7682 N   0  0  0  0  0  0  0  0  0  0  0  0
    7.4748  -15.7310   15.9719 N   0  0  0  0  0  0  0  0  0  0  0  0
    8.3167  -15.3234   17.0775 C   0  0  0  0  0  0  0  0  0  0  0  0
    8.2693  -13.8452   17.3180 C   0  0  0  0  0  0  0  0  0  0  0  0
    7.3723  -13.5244   18.4660 C   0  0  0  0  0  0  0  0  0  0  0  0
    8.1366  -13.1613   19.6911 C   0  0  2  0  0  0  0  0  0  0  0  0
    9.3441  -12.4699   19.2908 N   0  0  0  0  0  0  0  0  0  0  0  0
    8.5587  -14.3846   20.4518 C   0  0  0  0  0  0  0  0  0  0  0  0
    7.7043  -15.2377   20.7870 O   0  0  0  0  0  0  0  0  0  0  0  0
    6.2736  -16.7679   13.9134 N   0  0  0  0  0  0  0  0  0  0  0  0
    9.9080  -14.6142   20.8118 C   0  0  1  0  0  0  0  0  0  0  0  0
   10.3651  -15.7685   21.5434 C   0  0  0  0  0  0  0  0  0  0  0  0
   11.8424  -15.9753   21.2024 C   0  0  0  0  0  0  0  0  0  0  0  0
   11.9518  -16.5551   19.8421 O   0  0  0  0  0  0  0  0  0  0  0  0
   11.4522  -17.6944   19.6372 C   0  0  0  0  0  0  0  0  0  0  0  0
   10.1875  -15.5549   22.9929 O   0  0  0  0  0  0  0  0  0  0  0  0
   10.0914  -14.3807   23.4904 O   0  0  0  0  0  0  0  0  0  0  0  0
   12.5753  -15.9194   18.7703 C   0  0  0  0  0  0  0  0  0  0  0  0
    8.5773  -15.5799   25.4764 C   0  0  2  0  0  0  0  0  0  0  0  0
    9.8833  -16.3610   25.3336 N   0  0  0  0  0  0  0  0  0  0  0  0
   10.1126  -16.6298   23.9167 C   0  0  0  0  0  0  0  0  0  0  0  0
    9.7043  -17.6516   26.0348 O   0  0  0  0  0  0  0  0  0  0  0  0
    9.6884  -17.7417   27.4256 O   0  0  0  0  0  0  0  0  0  0  0  0
  2  3  2  0
  2  1  1  0
  4  2  1  0
  5  4  1  0
  6  5  1  0
  7  6  1  0
  8  7  1  0
  8 10  1  0
  8  9  1  6
 10 12  1  0
 11 10  2  0
 12 13  1  0
 13 14  1  1
 14 15  1  0
 15 19  1  0
 16 15  2  0
 17 13  1  0
 17 18  2  0
 21 20  1  6
 21 22  1  0
 21 23  1  0
 22 17  1  0
 23 25  2  0
 23 24  1  0
M  END
$$$$
