RDA.pdb
     RDKit          3D

 25 24  0  0  1  0  0  0  0  0999 V2000
    7.5274  -11.8630   19.1283 N   0  0  0  0  0  0  0  0  0  0  0  0
    8.2073  -12.9750   18.5670 C   0  0  0  0  0  0  0  0  0  0  0  0
    7.8028  -13.4154   17.4009 N   0  0  0  0  0  0  0  0  0  0  0  0
    9.2908  -13.5959   19.2456 N   0  0  0  0  0  0  0  0  0  0  0  0
    9.0873  -14.2946   20.4978 C   0  0  0  0  0  0  0  0  0  0  0  0
    7.6421  -14.5920   20.7586 C   0  0  0  0  0  0  0  0  0  0  0  0
    7.4781  -15.3352   22.0416 C   0  0  0  0  0  0  0  0  0  0  0  0
    8.1613  -16.6579   22.0154 C   0  0  2  0  0  0  0  0  0  0  0  0
    7.1982  -17.6642   21.6204 N   0  0  0  0  0  0  0  0  0  0  0  0
    8.6646  -17.0377   23.3777 C   0  0  0  0  0  0  0  0  0  0  0  0
    7.8509  -17.3083   24.2914 O   0  0  0  0  0  0  0  0  0  0  0  0
    8.3226  -14.1678   16.8998 N   0  0  0  0  0  0  0  0  0  0  0  0
   10.0469  -17.1018   23.6744 C   0  0  2  0  0  0  0  0  0  0  0  0
   10.5819  -17.4495   24.9665 C   0  0  0  0  0  0  0  0  0  0  0  0
   11.9421  -18.1124   24.7392 C   0  0  0  0  0  0  0  0  0  0  0  0
   12.5096  -18.5207   26.0468 O   0  0  0  0  0  0  0  0  0  0  0  0
   13.7212  -18.2604   26.2788 C   0  0  0  0  0  0  0  0  0  0  0  0
   10.7218  -16.2403   25.8010 O   0  0  0  0  0  0  0  0  0  0  0  0
   11.6131  -15.3565   25.5561 O   0  0  0  0  0  0  0  0  0  0  0  0
   11.7869  -19.1779   27.0406 C   0  0  0  0  0  0  0  0  0  0  0  0
    8.8463  -13.9916   27.8357 C   0  0  1  0  0  0  0  0  0  0  0  0
   10.1281  -14.8210   27.7643 N   0  0  0  0  0  0  0  0  0  0  0  0
    9.8831  -15.9850   26.9172 C   0  0  0  0  0  0  0  0  0  0  0  0
   10.4264  -15.2907   29.1353 O   0  0  0  0  0  0  0  0  0  0  0  0
   10.8279  -14.4180   30.1452 O   0  0  0  0  0  0  0  0  0  0  0  0
  2  3  2  0
  2  1  1  0
  4  2  1  0
  5  4  1  0
  6  5  1  0
  7  6  1  0
  8  7  1  0
  8 10  1  0
  8  9  1  1
 10 12  1  0
 11 10  2  0
 12 13  1  0
 13 14  1  6
 14 15  1  0
 15 19  1  0
 16 15  2  0
 17 13  1  0
 17 18  2  0
 21 20  1  6
 21 22  1  0
 21 23  1  0
 22 17  1  0
 23 25  2  0
 23 24  1  0
M  END
$$$$
