RDA.pdb
     RDKit          3D

 25 24  0  0  1  0  0  0  0  0999 V2000
    8.0421  -12.8668   16.8161 N   0  0  0  0  0  0  0  0  0  0  0  0
    8.5441  -14.1822   16.9936 C   0  0  0  0  0  0  0  0  0  0  0  0
    9.5164  -14.5779   16.2090 N   0  0  0  0  0  0  0  0  0  0  0  0
    8.0106  -15.0471   17.9872 N   0  0  0  0  0  0  0  0  0  0  0  0
    6.9889  -14.5901   18.9063 C   0  0  0  0  0  0  0  0  0  0  0  0
    7.5288  -13.6493   19.9401 C   0  0  0  0  0  0  0  0  0  0  0  0
    7.5547  -14.2975   21.2834 C   0  0  0  0  0  0  0  0  0  0  0  0
    8.8192  -15.0470   21.5207 C   0  0  2  0  0  0  0  0  0  0  0  0
    8.8462  -16.1933   20.6366 N   0  0  0  0  0  0  0  0  0  0  0  0
    8.8861  -15.5705   22.9261 C   0  0  0  0  0  0  0  0  0  0  0  0
    7.9509  -15.3344   23.7259 O   0  0  0  0  0  0  0  0  0  0  0  0
    9.9514  -15.5186   16.3234 N   0  0  0  0  0  0  0  0  0  0  0  0
    9.9846  -16.3327   23.3898 C   0  0  2  0  0  0  0  0  0  0  0  0
   10.0546  -16.9404   24.6946 C   0  0  0  0  0  0  0  0  0  0  0  0
   11.0478  -18.1013   24.6100 C   0  0  0  0  0  0  0  0  0  0  0  0
   11.1701  -18.7359   25.9444 O   0  0  0  0  0  0  0  0  0  0  0  0
   10.1241  -18.8847   26.6325 C   0  0  0  0  0  0  0  0  0  0  0  0
   10.4935  -15.9479   25.6948 O   0  0  0  0  0  0  0  0  0  0  0  0
   11.6457  -15.3968   25.6311 O   0  0  0  0  0  0  0  0  0  0  0  0
   12.3727  -19.1800   26.4906 C   0  0  0  0  0  0  0  0  0  0  0  0
    9.1463  -13.4492   27.8832 C   0  0  1  0  0  0  0  0  0  0  0  0
   10.1679  -14.5786   27.7540 N   0  0  0  0  0  0  0  0  0  0  0  0
    9.6713  -15.5466   26.7800 C   0  0  0  0  0  0  0  0  0  0  0  0
   10.2602  -15.2428   29.0730 O   0  0  0  0  0  0  0  0  0  0  0  0
   10.7703  -14.5917   30.1949 O   0  0  0  0  0  0  0  0  0  0  0  0
  2  3  2  0
  2  1  1  0
  4  2  1  0
  5  4  1  0
  6  5  1  0
  7  6  1  0
  8  7  1  0
  8 10  1  0
  8  9  1  6
 10 12  1  0
 11 10  2  0
 12 13  1  0
 13 14  1  6
 14 15  1  0
 15 19  1  0
 16 15  2  0
 17 13  1  0
 17 18  2  0
 21 20  1  6
 21 22  1  0
 21 23  1  0
 22 17  1  0
 23 25  2  0
 23 24  1  0
M  END
$$$$
