RDA.pdb
     RDKit          3D

 25 24  0  0  1  0  0  0  0  0999 V2000
   10.1506  -13.4442   18.5422 N   0  0  0  0  0  0  0  0  0  0  0  0
    8.8850  -13.2991   17.9168 C   0  0  0  0  0  0  0  0  0  0  0  0
    8.8070  -12.5204   16.8656 N   0  0  0  0  0  0  0  0  0  0  0  0
    7.7360  -13.9725   18.4128 N   0  0  0  0  0  0  0  0  0  0  0  0
    7.2124  -13.6859   19.7323 C   0  0  0  0  0  0  0  0  0  0  0  0
    7.6364  -14.7015   20.7491 C   0  0  0  0  0  0  0  0  0  0  0  0
    7.3530  -16.0841   20.2659 C   0  0  0  0  0  0  0  0  0  0  0  0
    7.7607  -17.1192   21.2556 C   0  0  2  0  0  0  0  0  0  0  0  0
    7.3154  -16.7002   22.5679 N   0  0  0  0  0  0  0  0  0  0  0  0
    9.2545  -17.2545   21.3175 C   0  0  0  0  0  0  0  0  0  0  0  0
    9.7742  -18.3863   21.4554 O   0  0  0  0  0  0  0  0  0  0  0  0
    7.8998  -12.3686   16.3743 N   0  0  0  0  0  0  0  0  0  0  0  0
   10.1125  -16.1328   21.2254 C   0  0  1  0  0  0  0  0  0  0  0  0
   11.5486  -16.2024   21.3229 C   0  0  0  0  0  0  0  0  0  0  0  0
   12.1195  -14.9785   20.6036 C   0  0  0  0  0  0  0  0  0  0  0  0
   13.5979  -15.0841   20.5611 O   0  0  0  0  0  0  0  0  0  0  0  0
   14.2715  -14.3370   21.3214 C   0  0  0  0  0  0  0  0  0  0  0  0
   11.9619  -16.2170   22.7396 O   0  0  0  0  0  0  0  0  0  0  0  0
   13.1907  -16.3218   23.0781 O   0  0  0  0  0  0  0  0  0  0  0  0
   14.2946  -15.9592   19.7302 C   0  0  0  0  0  0  0  0  0  0  0  0
   10.4424  -15.6136   26.1061 C   0  0  2  0  0  0  0  0  0  0  0  0
   11.4815  -16.2550   25.1869 N   0  0  0  0  0  0  0  0  0  0  0  0
   11.0297  -16.1163   23.8051 C   0  0  0  0  0  0  0  0  0  0  0  0
   11.5373  -17.6952   25.5216 O   0  0  0  0  0  0  0  0  0  0  0  0
   11.1694  -18.6817   24.6082 O   0  0  0  0  0  0  0  0  0  0  0  0
  2  3  2  0
  2  1  1  0
  4  2  1  0
  5  4  1  0
  6  5  1  0
  7  6  1  0
  8  7  1  0
  8 10  1  0
  8  9  1  1
 10 12  1  0
 11 10  2  0
 12 13  1  0
 13 14  1  6
 14 15  1  0
 15 19  1  0
 16 15  2  0
 17 13  1  0
 17 18  2  0
 21 20  1  6
 21 22  1  0
 21 23  1  0
 22 17  1  0
 23 25  2  0
 23 24  1  0
M  END
$$$$
