RDA.pdb
     RDKit          3D

 25 24  0  0  1  0  0  0  0  0999 V2000
    7.8528  -12.9393   20.8217 N   0  0  0  0  0  0  0  0  0  0  0  0
    8.3406  -12.5654   19.5426 C   0  0  0  0  0  0  0  0  0  0  0  0
    8.8179  -11.3533   19.3993 N   0  0  0  0  0  0  0  0  0  0  0  0
    8.3118  -13.4723   18.4487 N   0  0  0  0  0  0  0  0  0  0  0  0
    7.9051  -14.8504   18.6300 C   0  0  0  0  0  0  0  0  0  0  0  0
    9.0321  -15.8130   18.4101 C   0  0  0  0  0  0  0  0  0  0  0  0
    8.5434  -17.2214   18.4652 C   0  0  0  0  0  0  0  0  0  0  0  0
    9.6297  -18.2035   18.1964 C   0  0  2  0  0  0  0  0  0  0  0  0
    9.0523  -19.5309   18.1698 N   0  0  0  0  0  0  0  0  0  0  0  0
   10.6583  -18.1902   19.2896 C   0  0  0  0  0  0  0  0  0  0  0  0
   10.3855  -18.6802   20.4102 O   0  0  0  0  0  0  0  0  0  0  0  0
    9.1112  -10.9975   18.4641 N   0  0  0  0  0  0  0  0  0  0  0  0
   11.9461  -17.6349   19.0996 C   0  0  2  0  0  0  0  0  0  0  0  0
   12.9795  -17.6255   20.1040 C   0  0  0  0  0  0  0  0  0  0  0  0
   14.1977  -16.9189   19.5056 C   0  0  0  0  0  0  0  0  0  0  0  0
   15.3828  -17.1878   20.3552 O   0  0  0  0  0  0  0  0  0  0  0  0
   15.2362  -17.9245   21.3678 C   0  0  0  0  0  0  0  0  0  0  0  0
   12.5076  -16.9221   21.3125 O   0  0  0  0  0  0  0  0  0  0  0  0
   12.5842  -15.6501   21.4204 O   0  0  0  0  0  0  0  0  0  0  0  0
   16.6544  -16.6754   20.1061 C   0  0  0  0  0  0  0  0  0  0  0  0
   10.0652  -17.2342   23.9113 C   0  0  2  0  0  0  0  0  0  0  0  0
   11.5141  -16.8609   23.5996 N   0  0  0  0  0  0  0  0  0  0  0  0
   11.9440  -17.6073   22.4204 C   0  0  0  0  0  0  0  0  0  0  0  0
   12.3374  -17.2874   24.7528 O   0  0  0  0  0  0  0  0  0  0  0  0
   13.2494  -18.3375   24.6623 O   0  0  0  0  0  0  0  0  0  0  0  0
  2  3  2  0
  2  1  1  0
  4  2  1  0
  5  4  1  0
  6  5  1  0
  7  6  1  0
  8  7  1  0
  8 10  1  0
  8  9  1  1
 10 12  1  0
 11 10  2  0
 12 13  1  0
 13 14  1  6
 14 15  1  0
 15 19  1  0
 16 15  2  0
 17 13  1  0
 17 18  2  0
 21 20  1  6
 21 22  1  0
 21 23  1  0
 22 17  1  0
 23 25  2  0
 23 24  1  0
M  END
$$$$
