NRT.pdb
     RDKit          3D

 27 26  0  0  1  0  0  0  0  0999 V2000
   16.2797  -15.3435   18.4935 N   0  0  0  0  0  0  0  0  0  0  0  0
   15.2821  -14.3745   18.1314 C   0  0  0  0  0  0  0  0  0  0  0  0
   15.5265  -13.6814   17.1309 O   0  0  0  0  0  0  0  0  0  0  0  0
   14.0851  -14.3086   18.9805 C   0  0  0  0  0  0  0  0  0  0  0  0
   13.5984  -15.6147   19.5118 C   0  0  2  0  0  0  0  0  0  0  0  0
   12.9874  -16.3750   18.4598 N   0  0  0  0  0  0  0  0  0  0  0  0
   12.6728  -15.3492   20.6315 C   0  0  0  0  0  0  0  0  0  0  0  0
   13.0840  -14.7061   21.6506 O   0  0  0  0  0  0  0  0  0  0  0  0
    8.2366  -15.1872   17.1332 N   0  0  0  0  0  0  0  0  0  0  0  0
    7.5674  -13.9526   17.3926 C   0  0  0  0  0  0  0  0  0  0  0  0
    7.4250  -13.0722   16.4815 N   0  0  0  0  0  0  0  0  0  0  0  0
    7.0264  -13.6477   18.6899 N   0  0  0  0  0  0  0  0  0  0  0  0
    7.3767  -14.4541   19.8209 C   0  0  0  0  0  0  0  0  0  0  0  0
    8.8059  -14.3084   20.2734 C   0  0  0  0  0  0  0  0  0  0  0  0
    9.0250  -15.2691   21.4209 C   0  0  0  0  0  0  0  0  0  0  0  0
   10.4603  -15.4341   21.7972 C   0  0  2  0  0  0  0  0  0  0  0  0
   11.3123  -15.7616   20.6773 N   0  0  0  0  0  0  0  0  0  0  0  0
   10.5473  -16.4137   22.8940 C   0  0  0  0  0  0  0  0  0  0  0  0
   10.8476  -17.5940   22.5977 O   0  0  0  0  0  0  0  0  0  0  0  0
    6.9534  -12.1532   16.6046 C   0  0  0  0  0  0  0  0  0  0  0  0
   11.6497  -15.9691   26.9219 C   0  0  2  0  0  0  0  0  0  0  0  0
   10.3762  -16.7211   26.6399 O   0  0  0  0  0  0  0  0  0  0  0  0
    9.3139  -15.8469   26.8741 C   0  0  2  0  0  0  0  0  0  0  0  0
   10.2829  -17.1855   25.2142 N   0  0  0  0  0  0  0  0  0  0  0  0
   10.3159  -16.1172   24.2568 C   0  0  0  0  0  0  0  0  0  0  0  0
    9.0320  -17.9652   25.0539 O   0  0  0  0  0  0  0  0  0  0  0  0
    8.1490  -17.5563   24.2890 O   0  0  0  0  0  0  0  0  0  0  0  0
  2  1  1  0
  3  2  2  0
  4  2  1  0
  5  4  1  0
  5  6  1  6
  7  5  1  0
  7  8  2  0
  9 10  1  0
 10 11  2  0
 12 10  1  0
 12 13  1  0
 13 14  1  0
 14 15  1  0
 16 15  1  6
 16 17  1  0
 17  7  1  0
 18 16  1  0
 19 18  2  0
 21 20  1  1
 22 21  1  0
 23 21  1  0
 23 24  1  1
 24 18  1  0
 25 27  1  0
 25 23  1  0
 26 25  2  0
M  END
$$$$
