NRT.pdb
     RDKit          3D

 27 26  0  0  1  0  0  0  0  0999 V2000
    9.2201  -13.8155   17.2424 N   0  0  0  0  0  0  0  0  0  0  0  0
    7.8427  -13.5370   17.5433 C   0  0  0  0  0  0  0  0  0  0  0  0
    7.1291  -13.1955   16.5867 O   0  0  0  0  0  0  0  0  0  0  0  0
    7.4288  -13.6859   18.9450 C   0  0  0  0  0  0  0  0  0  0  0  0
    8.5012  -14.1051   19.8933 C   0  0  2  0  0  0  0  0  0  0  0  0
    9.2160  -15.2285   19.3595 N   0  0  0  0  0  0  0  0  0  0  0  0
    7.8818  -14.3961   21.2019 C   0  0  0  0  0  0  0  0  0  0  0  0
    7.1342  -13.5254   21.7534 O   0  0  0  0  0  0  0  0  0  0  0  0
    7.1919  -21.8037   25.4452 N   0  0  0  0  0  0  0  0  0  0  0  0
    8.2250  -20.8699   25.7616 C   0  0  0  0  0  0  0  0  0  0  0  0
    9.3349  -21.2532   26.2584 N   0  0  0  0  0  0  0  0  0  0  0  0
    8.0597  -19.4592   25.5355 N   0  0  0  0  0  0  0  0  0  0  0  0
    6.7563  -18.9208   25.2838 C   0  0  0  0  0  0  0  0  0  0  0  0
    6.7360  -17.4429   24.9944 C   0  0  0  0  0  0  0  0  0  0  0  0
    7.4400  -17.2234   23.6738 C   0  0  0  0  0  0  0  0  0  0  0  0
    7.4433  -15.7987   23.2272 C   0  0  2  0  0  0  0  0  0  0  0  0
    8.0501  -15.6063   21.9302 N   0  0  0  0  0  0  0  0  0  0  0  0
    8.0640  -14.9787   24.2819 C   0  0  0  0  0  0  0  0  0  0  0  0
    9.2761  -14.6861   24.1539 O   0  0  0  0  0  0  0  0  0  0  0  0
   10.1325  -20.6291   26.4961 C   0  0  0  0  0  0  0  0  0  0  0  0
    6.6359  -11.5519   25.5576 C   0  0  2  0  0  0  0  0  0  0  0  0
    7.1013  -12.4143   26.7007 O   0  0  0  0  0  0  0  0  0  0  0  0
    5.9707  -13.0075   27.2641 C   0  0  2  0  0  0  0  0  0  0  0  0
    8.0239  -13.5138   26.2570 N   0  0  0  0  0  0  0  0  0  0  0  0
    7.3899  -14.4986   25.4280 C   0  0  0  0  0  0  0  0  0  0  0  0
    8.5955  -14.1634   27.4609 O   0  0  0  0  0  0  0  0  0  0  0  0
    8.3850  -15.3655   27.6668 O   0  0  0  0  0  0  0  0  0  0  0  0
  2  1  1  0
  3  2  2  0
  4  2  1  0
  5  4  1  0
  5  6  1  6
  7  5  1  0
  7  8  2  0
  9 10  1  0
 10 11  2  0
 12 10  1  0
 12 13  1  0
 13 14  1  0
 14 15  1  0
 16 15  1  1
 16 17  1  0
 17  7  1  0
 18 16  1  0
 19 18  2  0
 21 20  1  1
 22 21  1  0
 23 21  1  0
 23 24  1  1
 24 18  1  0
 25 27  1  0
 25 23  1  0
 26 25  2  0
M  END
$$$$
