NRT.pdb
     RDKit          3D

 27 26  0  0  1  0  0  0  0  0999 V2000
    9.0820  -13.7205   17.4855 N   0  0  0  0  0  0  0  0  0  0  0  0
    7.6860  -13.7851   17.8211 C   0  0  0  0  0  0  0  0  0  0  0  0
    6.8875  -13.5912   16.8907 O   0  0  0  0  0  0  0  0  0  0  0  0
    7.3555  -14.0727   19.2233 C   0  0  0  0  0  0  0  0  0  0  0  0
    8.5208  -14.2440   20.1387 C   0  0  2  0  0  0  0  0  0  0  0  0
    9.3849  -15.2769   19.6443 N   0  0  0  0  0  0  0  0  0  0  0  0
    8.0124  -14.5302   21.4953 C   0  0  0  0  0  0  0  0  0  0  0  0
    7.1081  -13.7890   21.9993 O   0  0  0  0  0  0  0  0  0  0  0  0
    5.2926  -20.3886   24.1610 N   0  0  0  0  0  0  0  0  0  0  0  0
    6.2194  -21.1588   23.3946 C   0  0  0  0  0  0  0  0  0  0  0  0
    5.8503  -22.2036   22.7640 N   0  0  0  0  0  0  0  0  0  0  0  0
    7.6069  -20.7918   23.3010 N   0  0  0  0  0  0  0  0  0  0  0  0
    8.0840  -19.6149   23.9638 C   0  0  0  0  0  0  0  0  0  0  0  0
    7.6227  -18.3204   23.3474 C   0  0  0  0  0  0  0  0  0  0  0  0
    8.1929  -17.1890   24.1736 C   0  0  0  0  0  0  0  0  0  0  0  0
    7.8840  -15.8345   23.6270 C   0  0  2  0  0  0  0  0  0  0  0  0
    8.4575  -15.5988   22.3219 N   0  0  0  0  0  0  0  0  0  0  0  0
    8.2830  -14.8252   24.6231 C   0  0  0  0  0  0  0  0  0  0  0  0
    9.5016  -14.5459   24.7126 O   0  0  0  0  0  0  0  0  0  0  0  0
    6.4840  -22.8480   22.2489 C   0  0  0  0  0  0  0  0  0  0  0  0
    6.6965  -11.1704   25.7074 C   0  0  2  0  0  0  0  0  0  0  0  0
    6.9420  -12.1411   26.8318 O   0  0  0  0  0  0  0  0  0  0  0  0
    5.7208  -12.7425   27.1391 C   0  0  2  0  0  0  0  0  0  0  0  0
    7.9078  -13.2288   26.4559 N   0  0  0  0  0  0  0  0  0  0  0  0
    7.3892  -14.1497   25.4854 C   0  0  0  0  0  0  0  0  0  0  0  0
    8.2949  -13.9605   27.6860 O   0  0  0  0  0  0  0  0  0  0  0  0
    8.0650  -15.1733   27.7754 O   0  0  0  0  0  0  0  0  0  0  0  0
  2  1  1  0
  3  2  2  0
  4  2  1  0
  5  4  1  0
  5  6  1  6
  7  5  1  0
  7  8  2  0
  9 10  1  0
 10 11  2  0
 12 10  1  0
 12 13  1  0
 13 14  1  0
 14 15  1  0
 16 15  1  1
 16 17  1  0
 17  7  1  0
 18 16  1  0
 19 18  2  0
 21 20  1  1
 22 21  1  0
 23 21  1  0
 23 24  1  1
 24 18  1  0
 25 27  1  0
 25 23  1  0
 26 25  2  0
M  END
$$$$
