NRT.pdb
     RDKit          3D

 27 26  0  0  1  0  0  0  0  0999 V2000
   12.1663  -19.7526   16.6731 N   0  0  0  0  0  0  0  0  0  0  0  0
   11.6239  -20.4654   17.7970 C   0  0  0  0  0  0  0  0  0  0  0  0
   11.3371  -21.6578   17.6054 O   0  0  0  0  0  0  0  0  0  0  0  0
   11.4679  -19.7093   19.0469 C   0  0  0  0  0  0  0  0  0  0  0  0
   11.6692  -18.2352   18.9385 C   0  0  2  0  0  0  0  0  0  0  0  0
   12.9674  -17.9564   18.3953 N   0  0  0  0  0  0  0  0  0  0  0  0
   11.4721  -17.6362   20.2739 C   0  0  0  0  0  0  0  0  0  0  0  0
   12.4774  -17.4324   21.0283 O   0  0  0  0  0  0  0  0  0  0  0  0
    8.7781  -13.0647   18.5364 N   0  0  0  0  0  0  0  0  0  0  0  0
    8.1528  -12.4249   19.6495 C   0  0  0  0  0  0  0  0  0  0  0  0
    8.5084  -11.2612   20.0302 N   0  0  0  0  0  0  0  0  0  0  0  0
    7.0978  -13.0634   20.3896 N   0  0  0  0  0  0  0  0  0  0  0  0
    7.4108  -14.0570   21.3730 C   0  0  0  0  0  0  0  0  0  0  0  0
    8.6905  -14.8085   21.1163 C   0  0  0  0  0  0  0  0  0  0  0  0
    8.8962  -15.7716   22.2643 C   0  0  0  0  0  0  0  0  0  0  0  0
   10.1086  -16.6300   22.1151 C   0  0  2  0  0  0  0  0  0  0  0  0
   10.2142  -17.2515   20.8150 N   0  0  0  0  0  0  0  0  0  0  0  0
   10.1339  -17.6013   23.2224 C   0  0  0  0  0  0  0  0  0  0  0  0
    9.3725  -18.5938   23.1435 O   0  0  0  0  0  0  0  0  0  0  0  0
    8.1109  -10.7492   20.8438 C   0  0  0  0  0  0  0  0  0  0  0  0
   11.9792  -20.2907   23.8842 C   0  0  2  0  0  0  0  0  0  0  0  0
   12.0604  -19.5335   25.1830 O   0  0  0  0  0  0  0  0  0  0  0  0
   13.2617  -18.8235   25.1786 C   0  0  2  0  0  0  0  0  0  0  0  0
   10.9423  -18.5433   25.3455 N   0  0  0  0  0  0  0  0  0  0  0  0
   10.9558  -17.4933   24.3676 C   0  0  0  0  0  0  0  0  0  0  0  0
   11.0221  -17.9624   26.7073 O   0  0  0  0  0  0  0  0  0  0  0  0
   11.2306  -16.7502   26.8451 O   0  0  0  0  0  0  0  0  0  0  0  0
  2  1  1  0
  3  2  2  0
  4  2  1  0
  5  4  1  0
  5  6  1  1
  7  5  1  0
  7  8  2  0
  9 10  1  0
 10 11  2  0
 12 10  1  0
 12 13  1  0
 13 14  1  0
 14 15  1  0
 16 15  1  6
 16 17  1  0
 17  7  1  0
 18 16  1  0
 19 18  2  0
 21 20  1  1
 22 21  1  0
 23 21  1  0
 23 24  1  1
 24 18  1  0
 25 27  1  0
 25 23  1  0
 26 25  2  0
M  END
$$$$
