NRT.pdb
     RDKit          3D

 27 26  0  0  1  0  0  0  0  0999 V2000
   18.4060  -11.5364   16.0116 N   0  0  0  0  0  0  0  0  0  0  0  0
   18.0832  -12.8986   16.3366 C   0  0  0  0  0  0  0  0  0  0  0  0
   18.8092  -13.7707   15.8332 O   0  0  0  0  0  0  0  0  0  0  0  0
   16.9334  -13.1117   17.2259 C   0  0  0  0  0  0  0  0  0  0  0  0
   15.8568  -13.9932   16.6883 C   0  0  2  0  0  0  0  0  0  0  0  0
   15.3024  -13.4188   15.4963 N   0  0  0  0  0  0  0  0  0  0  0  0
   14.8451  -14.1943   17.7451 C   0  0  0  0  0  0  0  0  0  0  0  0
   14.3717  -13.1878   18.3648 O   0  0  0  0  0  0  0  0  0  0  0  0
   10.0386  -17.2841   14.3889 N   0  0  0  0  0  0  0  0  0  0  0  0
   10.5566  -18.5394   14.8307 C   0  0  0  0  0  0  0  0  0  0  0  0
   10.7477  -19.5010   14.0155 N   0  0  0  0  0  0  0  0  0  0  0  0
   10.8839  -18.7749   16.2113 N   0  0  0  0  0  0  0  0  0  0  0  0
   10.8637  -17.6914   17.1482 C   0  0  0  0  0  0  0  0  0  0  0  0
   12.2240  -17.2407   17.6116 C   0  0  0  0  0  0  0  0  0  0  0  0
   12.0218  -16.1390   18.6280 C   0  0  0  0  0  0  0  0  0  0  0  0
   13.2974  -15.5674   19.1525 C   0  0  2  0  0  0  0  0  0  0  0  0
   14.3313  -15.4576   18.1492 N   0  0  0  0  0  0  0  0  0  0  0  0
   13.7145  -16.3527   20.3270 C   0  0  0  0  0  0  0  0  0  0  0  0
   14.3314  -17.4243   20.1215 O   0  0  0  0  0  0  0  0  0  0  0  0
   11.1698  -20.4197   14.2607 C   0  0  0  0  0  0  0  0  0  0  0  0
   16.1638  -15.5465   22.9648 C   0  0  2  0  0  0  0  0  0  0  0  0
   14.9183  -16.0361   23.6546 O   0  0  0  0  0  0  0  0  0  0  0  0
   14.2289  -14.9149   24.1182 C   0  0  2  0  0  0  0  0  0  0  0  0
   14.0033  -16.7880   22.7303 N   0  0  0  0  0  0  0  0  0  0  0  0
   13.4681  -15.9837   21.6693 C   0  0  0  0  0  0  0  0  0  0  0  0
   12.8965  -17.3653   23.5303 O   0  0  0  0  0  0  0  0  0  0  0  0
   11.7340  -16.9927   23.3263 O   0  0  0  0  0  0  0  0  0  0  0  0
  2  1  1  0
  3  2  2  0
  4  2  1  0
  5  4  1  0
  5  6  1  6
  7  5  1  0
  7  8  2  0
  9 10  1  0
 10 11  2  0
 12 10  1  0
 12 13  1  0
 13 14  1  0
 14 15  1  0
 16 15  1  6
 16 17  1  0
 17  7  1  0
 18 16  1  0
 19 18  2  0
 21 20  1  1
 22 21  1  0
 23 21  1  0
 23 24  1  1
 24 18  1  0
 25 27  1  0
 25 23  1  0
 26 25  2  0
M  END
$$$$
