NRT.pdb
     RDKit          3D

 27 26  0  0  1  0  0  0  0  0999 V2000
   17.8887  -15.2740   16.8352 N   0  0  0  0  0  0  0  0  0  0  0  0
   17.5353  -13.9243   17.1800 C   0  0  0  0  0  0  0  0  0  0  0  0
   18.4129  -13.0642   17.0042 O   0  0  0  0  0  0  0  0  0  0  0  0
   16.1788  -13.7085   17.7013 C   0  0  0  0  0  0  0  0  0  0  0  0
   15.3325  -14.9308   17.8230 C   0  0  2  0  0  0  0  0  0  0  0  0
   14.8220  -15.3039   16.5352 N   0  0  0  0  0  0  0  0  0  0  0  0
   14.2603  -14.6623   18.8025 C   0  0  0  0  0  0  0  0  0  0  0  0
   14.5497  -14.5396   20.0363 O   0  0  0  0  0  0  0  0  0  0  0  0
    5.7156  -14.3659   21.6479 N   0  0  0  0  0  0  0  0  0  0  0  0
    6.2727  -14.0747   20.3656 C   0  0  0  0  0  0  0  0  0  0  0  0
    6.0226  -14.8078   19.3528 N   0  0  0  0  0  0  0  0  0  0  0  0
    7.1391  -12.9453   20.1601 N   0  0  0  0  0  0  0  0  0  0  0  0
    8.2879  -13.0672   19.3129 C   0  0  0  0  0  0  0  0  0  0  0  0
    9.4809  -13.7130   19.9672 C   0  0  0  0  0  0  0  0  0  0  0  0
   10.6015  -13.7439   18.9518 C   0  0  0  0  0  0  0  0  0  0  0  0
   11.8912  -14.2592   19.4997 C   0  0  2  0  0  0  0  0  0  0  0  0
   12.8817  -14.5228   18.4813 N   0  0  0  0  0  0  0  0  0  0  0  0
   11.6060  -15.4319   20.3443 C   0  0  0  0  0  0  0  0  0  0  0  0
   11.1201  -16.4450   19.7887 O   0  0  0  0  0  0  0  0  0  0  0  0
    6.4377  -14.6850   18.4069 C   0  0  0  0  0  0  0  0  0  0  0  0
   13.7632  -16.6469   23.6548 C   0  0  2  0  0  0  0  0  0  0  0  0
   12.8156  -17.4733   22.8266 O   0  0  0  0  0  0  0  0  0  0  0  0
   12.4254  -18.5654   23.6028 C   0  0  1  0  0  0  0  0  0  0  0  0
   11.5758  -16.7179   22.4405 N   0  0  0  0  0  0  0  0  0  0  0  0
   11.8413  -15.4958   21.7369 C   0  0  0  0  0  0  0  0  0  0  0  0
   10.7974  -16.4310   23.6694 O   0  0  0  0  0  0  0  0  0  0  0  0
   10.6389  -15.2591   24.0346 O   0  0  0  0  0  0  0  0  0  0  0  0
  2  1  1  0
  3  2  2  0
  4  2  1  0
  5  4  1  0
  5  6  1  6
  7  5  1  0
  7  8  2  0
  9 10  1  0
 10 11  2  0
 12 10  1  0
 12 13  1  0
 13 14  1  0
 14 15  1  0
 16 15  1  6
 16 17  1  0
 17  7  1  0
 18 16  1  0
 19 18  2  0
 21 20  1  6
 22 21  1  0
 23 21  1  0
 23 24  1  6
 24 18  1  0
 25 27  1  0
 25 23  1  0
 26 25  2  0
M  END
$$$$
