NRT.pdb
     RDKit          3D

 27 26  0  0  1  0  0  0  0  0999 V2000
   14.6794  -19.5211   16.6719 N   0  0  0  0  0  0  0  0  0  0  0  0
   15.1082  -18.2315   17.1394 C   0  0  0  0  0  0  0  0  0  0  0  0
   16.1251  -17.7627   16.6035 O   0  0  0  0  0  0  0  0  0  0  0  0
   14.3004  -17.6092   18.1969 C   0  0  0  0  0  0  0  0  0  0  0  0
   13.2129  -18.4592   18.7625 C   0  0  2  0  0  0  0  0  0  0  0  0
   12.2507  -18.7664   17.7438 N   0  0  0  0  0  0  0  0  0  0  0  0
   12.6155  -17.7513   19.9127 C   0  0  0  0  0  0  0  0  0  0  0  0
   13.3523  -17.4038   20.8912 O   0  0  0  0  0  0  0  0  0  0  0  0
    7.9753  -13.8426   19.1568 N   0  0  0  0  0  0  0  0  0  0  0  0
    7.8424  -12.9683   20.2782 C   0  0  0  0  0  0  0  0  0  0  0  0
    8.0603  -11.7166   20.1716 N   0  0  0  0  0  0  0  0  0  0  0  0
    7.4591  -13.4595   21.5744 N   0  0  0  0  0  0  0  0  0  0  0  0
    7.4733  -14.8669   21.8414 C   0  0  0  0  0  0  0  0  0  0  0  0
    8.8263  -15.4205   22.2032 C   0  0  0  0  0  0  0  0  0  0  0  0
    9.3722  -16.1328   20.9857 C   0  0  0  0  0  0  0  0  0  0  0  0
   10.7315  -16.7148   21.1923 C   0  0  2  0  0  0  0  0  0  0  0  0
   11.2401  -17.4090   20.0317 N   0  0  0  0  0  0  0  0  0  0  0  0
   10.7017  -17.5566   22.4009 C   0  0  0  0  0  0  0  0  0  0  0  0
   10.0865  -18.6467   22.3358 O   0  0  0  0  0  0  0  0  0  0  0  0
    7.9354  -11.0195   20.9335 C   0  0  0  0  0  0  0  0  0  0  0  0
   12.4631  -19.4380   26.4839 C   0  0  2  0  0  0  0  0  0  0  0  0
   12.5755  -18.4986   25.3127 O   0  0  0  0  0  0  0  0  0  0  0  0
   13.3119  -19.1507   24.3228 C   0  0  1  0  0  0  0  0  0  0  0  0
   11.2385  -18.1398   24.7290 N   0  0  0  0  0  0  0  0  0  0  0  0
   11.3176  -17.2222   23.6287 C   0  0  0  0  0  0  0  0  0  0  0  0
   10.3949  -17.5639   25.8037 O   0  0  0  0  0  0  0  0  0  0  0  0
   10.0785  -16.3681   25.7598 O   0  0  0  0  0  0  0  0  0  0  0  0
  2  1  1  0
  3  2  2  0
  4  2  1  0
  5  4  1  0
  5  6  1  6
  7  5  1  0
  7  8  2  0
  9 10  1  0
 10 11  2  0
 12 10  1  0
 12 13  1  0
 13 14  1  0
 14 15  1  0
 16 15  1  6
 16 17  1  0
 17  7  1  0
 18 16  1  0
 19 18  2  0
 21 20  1  1
 22 21  1  0
 23 21  1  0
 23 24  1  1
 24 18  1  0
 25 27  1  0
 25 23  1  0
 26 25  2  0
M  END
$$$$
