NRT.pdb
     RDKit          3D

 27 26  0  0  1  0  0  0  0  0999 V2000
    9.0744  -13.6495   18.4075 N   0  0  0  0  0  0  0  0  0  0  0  0
    7.8092  -13.3262   19.0078 C   0  0  0  0  0  0  0  0  0  0  0  0
    7.0248  -12.6612   18.3125 O   0  0  0  0  0  0  0  0  0  0  0  0
    7.5812  -13.8155   20.3741 C   0  0  0  0  0  0  0  0  0  0  0  0
    8.6802  -14.6393   20.9561 C   0  0  2  0  0  0  0  0  0  0  0  0
    8.8759  -15.8223   20.1686 N   0  0  0  0  0  0  0  0  0  0  0  0
    8.3441  -14.9424   22.3618 C   0  0  0  0  0  0  0  0  0  0  0  0
    8.1517  -13.9892   23.1838 O   0  0  0  0  0  0  0  0  0  0  0  0
    8.5078  -20.8914   21.6159 N   0  0  0  0  0  0  0  0  0  0  0  0
    7.1323  -21.0542   21.9637 C   0  0  0  0  0  0  0  0  0  0  0  0
    6.2761  -21.4566   21.1090 N   0  0  0  0  0  0  0  0  0  0  0  0
    6.6525  -20.7712   23.2897 N   0  0  0  0  0  0  0  0  0  0  0  0
    7.5472  -20.2523   24.2809 C   0  0  0  0  0  0  0  0  0  0  0  0
    8.1823  -18.9350   23.9208 C   0  0  0  0  0  0  0  0  0  0  0  0
    7.3712  -17.8392   24.5759 C   0  0  0  0  0  0  0  0  0  0  0  0
    7.8829  -16.4655   24.2928 C   0  0  2  0  0  0  0  0  0  0  0  0
    8.2105  -16.2514   22.9020 N   0  0  0  0  0  0  0  0  0  0  0  0
    9.0101  -16.1894   25.2001 C   0  0  0  0  0  0  0  0  0  0  0  0
   10.1465  -16.0482   24.6903 O   0  0  0  0  0  0  0  0  0  0  0  0
    5.2674  -21.6209   21.3027 C   0  0  0  0  0  0  0  0  0  0  0  0
    8.8216  -13.7799   28.5140 C   0  0  2  0  0  0  0  0  0  0  0  0
   10.0226  -14.1759   27.6968 O   0  0  0  0  0  0  0  0  0  0  0  0
   11.1575  -13.8984   28.4599 C   0  0  1  0  0  0  0  0  0  0  0  0
   10.0388  -15.6412   27.3657 N   0  0  0  0  0  0  0  0  0  0  0  0
    8.9014  -16.0726   26.6048 C   0  0  0  0  0  0  0  0  0  0  0  0
   10.1169  -16.4091   28.6317 O   0  0  0  0  0  0  0  0  0  0  0  0
   11.0784  -16.2400   29.3924 O   0  0  0  0  0  0  0  0  0  0  0  0
  2  1  1  0
  3  2  2  0
  4  2  1  0
  5  4  1  0
  5  6  1  6
  7  5  1  0
  7  8  2  0
  9 10  1  0
 10 11  2  0
 12 10  1  0
 12 13  1  0
 13 14  1  0
 14 15  1  0
 16 15  1  6
 16 17  1  0
 17  7  1  0
 18 16  1  0
 19 18  2  0
 21 20  1  6
 22 21  1  0
 23 21  1  0
 23 24  1  6
 24 18  1  0
 25 27  1  0
 25 23  1  0
 26 25  2  0
M  END
$$$$
