NRT.pdb
     RDKit          3D

 27 26  0  0  1  0  0  0  0  0999 V2000
    9.8780  -13.4349   18.3942 N   0  0  0  0  0  0  0  0  0  0  0  0
    8.4663  -13.5944   18.6115 C   0  0  0  0  0  0  0  0  0  0  0  0
    7.7311  -13.3668   17.6375 O   0  0  0  0  0  0  0  0  0  0  0  0
    8.0469  -14.0079   19.9573 C   0  0  0  0  0  0  0  0  0  0  0  0
    8.2382  -15.4523   20.2772 C   0  0  2  0  0  0  0  0  0  0  0  0
    7.3747  -16.2542   19.4592 N   0  0  0  0  0  0  0  0  0  0  0  0
    7.9958  -15.6482   21.7207 C   0  0  0  0  0  0  0  0  0  0  0  0
    6.8077  -15.5876   22.1746 O   0  0  0  0  0  0  0  0  0  0  0  0
   10.6188  -19.8230   30.2527 N   0  0  0  0  0  0  0  0  0  0  0  0
   10.8330  -19.4639   28.8872 C   0  0  0  0  0  0  0  0  0  0  0  0
   11.7694  -19.9929   28.2023 N   0  0  0  0  0  0  0  0  0  0  0  0
   10.0051  -18.4916   28.2257 N   0  0  0  0  0  0  0  0  0  0  0  0
   10.1987  -18.2123   26.8340 C   0  0  0  0  0  0  0  0  0  0  0  0
    9.2363  -17.2067   26.2589 C   0  0  0  0  0  0  0  0  0  0  0  0
    9.5756  -17.0305   24.7955 C   0  0  0  0  0  0  0  0  0  0  0  0
    8.6914  -16.0564   24.0895 C   0  0  2  0  0  0  0  0  0  0  0  0
    9.0064  -15.9086   22.6871 N   0  0  0  0  0  0  0  0  0  0  0  0
    8.7196  -14.7801   24.8246 C   0  0  0  0  0  0  0  0  0  0  0  0
    9.7730  -14.1027   24.7743 O   0  0  0  0  0  0  0  0  0  0  0  0
   11.9611  -19.7985   27.1985 C   0  0  0  0  0  0  0  0  0  0  0  0
    5.9694  -11.7094   25.0619 C   0  0  2  0  0  0  0  0  0  0  0  0
    6.4827  -12.2458   26.3717 O   0  0  0  0  0  0  0  0  0  0  0  0
    5.5307  -13.1429   26.8579 C   0  0  2  0  0  0  0  0  0  0  0  0
    7.7801  -12.9887   26.2234 N   0  0  0  0  0  0  0  0  0  0  0  0
    7.6431  -14.2653   25.5828 C   0  0  0  0  0  0  0  0  0  0  0  0
    8.3791  -13.1633   27.5684 O   0  0  0  0  0  0  0  0  0  0  0  0
    8.5998  -14.3030   27.9975 O   0  0  0  0  0  0  0  0  0  0  0  0
  2  1  1  0
  3  2  2  0
  4  2  1  0
  5  4  1  0
  5  6  1  6
  7  5  1  0
  7  8  2  0
  9 10  1  0
 10 11  2  0
 12 10  1  0
 12 13  1  0
 13 14  1  0
 14 15  1  0
 16 15  1  1
 16 17  1  0
 17  7  1  0
 18 16  1  0
 19 18  2  0
 21 20  1  1
 22 21  1  0
 23 21  1  0
 23 24  1  1
 24 18  1  0
 25 27  1  0
 25 23  1  0
 26 25  2  0
M  END
$$$$
