NRT.pdb
     RDKit          3D

 27 26  0  0  1  0  0  0  0  0999 V2000
    7.9971  -12.5249   12.8220 N   0  0  0  0  0  0  0  0  0  0  0  0
    7.2941  -13.4874   13.6250 C   0  0  0  0  0  0  0  0  0  0  0  0
    6.2835  -13.9961   13.1144 O   0  0  0  0  0  0  0  0  0  0  0  0
    7.8448  -13.7647   14.9585 C   0  0  0  0  0  0  0  0  0  0  0  0
    8.7114  -14.9745   15.0597 C   0  0  2  0  0  0  0  0  0  0  0  0
    7.9932  -16.1313   14.6080 N   0  0  0  0  0  0  0  0  0  0  0  0
    9.1745  -15.1034   16.4561 C   0  0  0  0  0  0  0  0  0  0  0  0
    9.9457  -14.2183   16.9490 O   0  0  0  0  0  0  0  0  0  0  0  0
   10.7144  -21.1253   19.1692 N   0  0  0  0  0  0  0  0  0  0  0  0
    9.4548  -21.7293   18.8723 C   0  0  0  0  0  0  0  0  0  0  0  0
    9.3838  -22.8844   18.3372 N   0  0  0  0  0  0  0  0  0  0  0  0
    8.2136  -21.0630   19.1618 N   0  0  0  0  0  0  0  0  0  0  0  0
    8.2202  -19.7293   19.6847 C   0  0  0  0  0  0  0  0  0  0  0  0
    8.8900  -18.7135   18.7971 C   0  0  0  0  0  0  0  0  0  0  0  0
    8.7797  -17.3662   19.4755 C   0  0  0  0  0  0  0  0  0  0  0  0
    9.3553  -16.2447   18.6756 C   0  0  2  0  0  0  0  0  0  0  0  0
    8.8243  -16.1662   17.3341 N   0  0  0  0  0  0  0  0  0  0  0  0
   10.8242  -16.3511   18.7092 C   0  0  0  0  0  0  0  0  0  0  0  0
   11.3720  -17.1094   17.8749 O   0  0  0  0  0  0  0  0  0  0  0  0
    8.5016  -23.3857   18.1083 C   0  0  0  0  0  0  0  0  0  0  0  0
   13.4687  -14.0535   17.8819 C   0  0  2  0  0  0  0  0  0  0  0  0
   13.8564  -14.6274   19.2187 O   0  0  0  0  0  0  0  0  0  0  0  0
   13.5730  -13.6624   20.1861 C   0  0  2  0  0  0  0  0  0  0  0  0
   13.0787  -15.8657   19.5636 N   0  0  0  0  0  0  0  0  0  0  0  0
   11.6597  -15.6590   19.6156 C   0  0  0  0  0  0  0  0  0  0  0  0
   13.5602  -16.3755   20.8700 O   0  0  0  0  0  0  0  0  0  0  0  0
   12.8037  -16.3621   21.8494 O   0  0  0  0  0  0  0  0  0  0  0  0
  2  1  1  0
  3  2  2  0
  4  2  1  0
  5  4  1  0
  5  6  1  1
  7  5  1  0
  7  8  2  0
  9 10  1  0
 10 11  2  0
 12 10  1  0
 12 13  1  0
 13 14  1  0
 14 15  1  0
 16 15  1  6
 16 17  1  0
 17  7  1  0
 18 16  1  0
 19 18  2  0
 21 20  1  6
 22 21  1  0
 23 21  1  0
 23 24  1  1
 24 18  1  0
 25 27  1  0
 25 23  1  0
 26 25  2  0
M  END
$$$$
