NRT.pdb
     RDKit          3D

 27 26  0  0  1  0  0  0  0  0999 V2000
   11.5367  -20.3009   17.0372 N   0  0  0  0  0  0  0  0  0  0  0  0
   10.8881  -20.9942   18.1162 C   0  0  0  0  0  0  0  0  0  0  0  0
   11.0611  -22.2226   18.1631 O   0  0  0  0  0  0  0  0  0  0  0  0
   10.0935  -20.1781   19.0439 C   0  0  0  0  0  0  0  0  0  0  0  0
   10.0242  -18.7224   18.7255 C   0  0  2  0  0  0  0  0  0  0  0  0
   11.0025  -18.3912   17.7299 N   0  0  0  0  0  0  0  0  0  0  0  0
   10.2073  -17.9601   19.9770 C   0  0  0  0  0  0  0  0  0  0  0  0
   11.3747  -17.8221   20.4662 O   0  0  0  0  0  0  0  0  0  0  0  0
    9.9115  -13.0300   19.1810 N   0  0  0  0  0  0  0  0  0  0  0  0
    8.5480  -12.8492   18.7970 C   0  0  0  0  0  0  0  0  0  0  0  0
    8.2237  -12.6467   17.5806 N   0  0  0  0  0  0  0  0  0  0  0  0
    7.4827  -12.8862   19.7625 N   0  0  0  0  0  0  0  0  0  0  0  0
    7.3825  -13.9831   20.6785 C   0  0  0  0  0  0  0  0  0  0  0  0
    8.6530  -14.2904   21.4265 C   0  0  0  0  0  0  0  0  0  0  0  0
    8.4220  -15.5537   22.2255 C   0  0  0  0  0  0  0  0  0  0  0  0
    9.4176  -16.6301   21.9439 C   0  0  2  0  0  0  0  0  0  0  0  0
    9.1591  -17.3423   20.7137 N   0  0  0  0  0  0  0  0  0  0  0  0
    9.4940  -17.5162   23.1183 C   0  0  0  0  0  0  0  0  0  0  0  0
    8.4918  -18.2215   23.3814 O   0  0  0  0  0  0  0  0  0  0  0  0
    7.2572  -12.4682   17.2397 C   0  0  0  0  0  0  0  0  0  0  0  0
   10.7370  -20.6287   23.4070 C   0  0  2  0  0  0  0  0  0  0  0  0
   11.4158  -19.8855   24.5267 O   0  0  0  0  0  0  0  0  0  0  0  0
   12.6596  -19.4638   24.0549 C   0  0  2  0  0  0  0  0  0  0  0  0
   10.6511  -18.6666   24.9585 N   0  0  0  0  0  0  0  0  0  0  0  0
   10.6172  -17.6274   23.9696 C   0  0  0  0  0  0  0  0  0  0  0  0
   11.2562  -18.1499   26.2096 O   0  0  0  0  0  0  0  0  0  0  0  0
   11.7692  -17.0237   26.2224 O   0  0  0  0  0  0  0  0  0  0  0  0
  2  1  1  0
  3  2  2  0
  4  2  1  0
  5  4  1  0
  5  6  1  6
  7  5  1  0
  7  8  2  0
  9 10  1  0
 10 11  2  0
 12 10  1  0
 12 13  1  0
 13 14  1  0
 14 15  1  0
 16 15  1  1
 16 17  1  0
 17  7  1  0
 18 16  1  0
 19 18  2  0
 21 20  1  1
 22 21  1  0
 23 21  1  0
 23 24  1  1
 24 18  1  0
 25 27  1  0
 25 23  1  0
 26 25  2  0
M  END
$$$$
