NRT.pdb
     RDKit          3D

 27 26  0  0  1  0  0  0  0  0999 V2000
    7.4654  -14.3057   16.5214 N   0  0  0  0  0  0  0  0  0  0  0  0
    8.1902  -13.5815   17.5291 C   0  0  0  0  0  0  0  0  0  0  0  0
    9.1774  -12.9372   17.1400 O   0  0  0  0  0  0  0  0  0  0  0  0
    7.6871  -13.6812   18.9058 C   0  0  0  0  0  0  0  0  0  0  0  0
    8.6804  -14.1285   19.9248 C   0  0  2  0  0  0  0  0  0  0  0  0
    9.3884  -15.2809   19.4464 N   0  0  0  0  0  0  0  0  0  0  0  0
    7.9674  -14.3860   21.1922 C   0  0  0  0  0  0  0  0  0  0  0  0
    7.2410  -13.4740   21.7036 O   0  0  0  0  0  0  0  0  0  0  0  0
    8.9251  -20.0260   21.4374 N   0  0  0  0  0  0  0  0  0  0  0  0
    7.6907  -20.3536   20.7983 C   0  0  0  0  0  0  0  0  0  0  0  0
    7.6660  -20.9513   19.6724 N   0  0  0  0  0  0  0  0  0  0  0  0
    6.4238  -20.0239   21.3940 N   0  0  0  0  0  0  0  0  0  0  0  0
    6.3595  -19.0717   22.4624 C   0  0  0  0  0  0  0  0  0  0  0  0
    7.5711  -18.1854   22.5831 C   0  0  0  0  0  0  0  0  0  0  0  0
    7.2915  -17.1698   23.6684 C   0  0  0  0  0  0  0  0  0  0  0  0
    7.3529  -15.7554   23.1943 C   0  0  2  0  0  0  0  0  0  0  0  0
    8.0199  -15.6061   21.9214 N   0  0  0  0  0  0  0  0  0  0  0  0
    7.9500  -14.9302   24.2586 C   0  0  0  0  0  0  0  0  0  0  0  0
    9.1981  -14.8158   24.2753 O   0  0  0  0  0  0  0  0  0  0  0  0
    6.8049  -21.1980   19.1435 C   0  0  0  0  0  0  0  0  0  0  0  0
    6.6672  -11.3098   25.7035 C   0  0  2  0  0  0  0  0  0  0  0  0
    7.0660  -12.3102   26.7556 O   0  0  0  0  0  0  0  0  0  0  0  0
    5.8941  -12.8721   27.2638 C   0  0  2  0  0  0  0  0  0  0  0  0
    7.9079  -13.4253   26.2034 N   0  0  0  0  0  0  0  0  0  0  0  0
    7.2154  -14.2585   25.2625 C   0  0  0  0  0  0  0  0  0  0  0  0
    8.4013  -14.2473   27.3343 O   0  0  0  0  0  0  0  0  0  0  0  0
    8.1260  -15.4531   27.3812 O   0  0  0  0  0  0  0  0  0  0  0  0
  2  1  1  0
  3  2  2  0
  4  2  1  0
  5  4  1  0
  5  6  1  6
  7  5  1  0
  7  8  2  0
  9 10  1  0
 10 11  2  0
 12 10  1  0
 12 13  1  0
 13 14  1  0
 14 15  1  0
 16 15  1  1
 16 17  1  0
 17  7  1  0
 18 16  1  0
 19 18  2  0
 21 20  1  1
 22 21  1  0
 23 21  1  0
 23 24  1  1
 24 18  1  0
 25 27  1  0
 25 23  1  0
 26 25  2  0
M  END
$$$$
