NRT.pdb
     RDKit          3D

 27 26  0  0  1  0  0  0  0  0999 V2000
    8.7095  -14.9636   16.8767 N   0  0  0  0  0  0  0  0  0  0  0  0
    8.2055  -13.9376   17.7476 C   0  0  0  0  0  0  0  0  0  0  0  0
    8.0151  -12.8242   17.2328 O   0  0  0  0  0  0  0  0  0  0  0  0
    7.9707  -14.3151   19.1478 C   0  0  0  0  0  0  0  0  0  0  0  0
    8.3255  -15.7191   19.5056 C   0  0  2  0  0  0  0  0  0  0  0  0
    7.4604  -16.6338   18.8180 N   0  0  0  0  0  0  0  0  0  0  0  0
    8.2506  -15.8615   20.9736 C   0  0  0  0  0  0  0  0  0  0  0  0
    7.1149  -15.9632   21.5401 O   0  0  0  0  0  0  0  0  0  0  0  0
   11.4231  -20.1870   27.7664 N   0  0  0  0  0  0  0  0  0  0  0  0
   11.2921  -20.6284   26.4146 C   0  0  0  0  0  0  0  0  0  0  0  0
   11.1845  -21.8665   26.1295 N   0  0  0  0  0  0  0  0  0  0  0  0
   11.2769  -19.6988   25.3172 N   0  0  0  0  0  0  0  0  0  0  0  0
   11.4579  -18.2987   25.5605 C   0  0  0  0  0  0  0  0  0  0  0  0
   10.2695  -17.4442   25.2056 C   0  0  0  0  0  0  0  0  0  0  0  0
   10.3517  -17.1334   23.7277 C   0  0  0  0  0  0  0  0  0  0  0  0
    9.2401  -16.2665   23.2360 C   0  0  2  0  0  0  0  0  0  0  0  0
    9.3738  -15.8969   21.8456 N   0  0  0  0  0  0  0  0  0  0  0  0
    9.1209  -15.1040   24.1329 C   0  0  0  0  0  0  0  0  0  0  0  0
    9.9974  -14.2119   24.0491 O   0  0  0  0  0  0  0  0  0  0  0  0
   11.0712  -22.2530   25.1704 C   0  0  0  0  0  0  0  0  0  0  0  0
    6.6285  -11.8894   26.8241 C   0  0  2  0  0  0  0  0  0  0  0  0
    6.6594  -13.1329   25.9758 O   0  0  0  0  0  0  0  0  0  0  0  0
    6.2248  -12.7781   24.6980 C   0  0  1  0  0  0  0  0  0  0  0  0
    8.0401  -13.7108   25.8474 N   0  0  0  0  0  0  0  0  0  0  0  0
    8.0883  -14.9232   25.0815 C   0  0  0  0  0  0  0  0  0  0  0  0
    8.5771  -13.9543   27.2078 O   0  0  0  0  0  0  0  0  0  0  0  0
    8.6867  -15.1146   27.6245 O   0  0  0  0  0  0  0  0  0  0  0  0
  2  1  1  0
  3  2  2  0
  4  2  1  0
  5  4  1  0
  5  6  1  6
  7  5  1  0
  7  8  2  0
  9 10  1  0
 10 11  2  0
 12 10  1  0
 12 13  1  0
 13 14  1  0
 14 15  1  0
 16 15  1  1
 16 17  1  0
 17  7  1  0
 18 16  1  0
 19 18  2  0
 21 20  1  1
 22 21  1  0
 23 21  1  0
 23 24  1  1
 24 18  1  0
 25 27  1  0
 25 23  1  0
 26 25  2  0
M  END
$$$$
