NRT.pdb
     RDKit          3D

 27 26  0  0  1  0  0  0  0  0999 V2000
    8.5418  -11.9338   18.2984 N   0  0  0  0  0  0  0  0  0  0  0  0
    8.3549  -13.3539   18.4153 C   0  0  0  0  0  0  0  0  0  0  0  0
    8.5971  -14.0257   17.3999 O   0  0  0  0  0  0  0  0  0  0  0  0
    7.8990  -13.8559   19.7185 C   0  0  0  0  0  0  0  0  0  0  0  0
    8.3304  -15.2417   20.0628 C   0  0  2  0  0  0  0  0  0  0  0  0
    7.7127  -16.1827   19.1734 N   0  0  0  0  0  0  0  0  0  0  0  0
    7.9987  -15.4972   21.4790 C   0  0  0  0  0  0  0  0  0  0  0  0
    6.7804  -15.5112   21.8487 O   0  0  0  0  0  0  0  0  0  0  0  0
   11.0594  -21.1777   22.1280 N   0  0  0  0  0  0  0  0  0  0  0  0
   11.8715  -20.2924   22.9001 C   0  0  0  0  0  0  0  0  0  0  0  0
   13.1228  -20.1818   22.6823 N   0  0  0  0  0  0  0  0  0  0  0  0
   11.3158  -19.4890   23.9557 N   0  0  0  0  0  0  0  0  0  0  0  0
    9.9197  -19.5761   24.2646 C   0  0  0  0  0  0  0  0  0  0  0  0
    9.0714  -18.5058   23.6298 C   0  0  0  0  0  0  0  0  0  0  0  0
    9.2609  -17.2352   24.4281 C   0  0  0  0  0  0  0  0  0  0  0  0
    8.5447  -16.0567   23.8560 C   0  0  2  0  0  0  0  0  0  0  0  0
    8.9519  -15.7384   22.5068 N   0  0  0  0  0  0  0  0  0  0  0  0
    8.6912  -14.9232   24.7854 C   0  0  0  0  0  0  0  0  0  0  0  0
    9.7683  -14.2828   24.7570 O   0  0  0  0  0  0  0  0  0  0  0  0
   13.7758  -19.5837   23.2283 C   0  0  0  0  0  0  0  0  0  0  0  0
    6.6584  -11.6124   25.4617 C   0  0  2  0  0  0  0  0  0  0  0  0
    6.8513  -12.4299   26.7112 O   0  0  0  0  0  0  0  0  0  0  0  0
    5.6778  -13.1552   26.9216 C   0  0  2  0  0  0  0  0  0  0  0  0
    7.9824  -13.4113   26.5910 N   0  0  0  0  0  0  0  0  0  0  0  0
    7.7034  -14.5066   25.7070 C   0  0  0  0  0  0  0  0  0  0  0  0
    8.3042  -13.9268   27.9435 O   0  0  0  0  0  0  0  0  0  0  0  0
    8.1563  -15.1303   28.1916 O   0  0  0  0  0  0  0  0  0  0  0  0
  2  1  1  0
  3  2  2  0
  4  2  1  0
  5  4  1  0
  5  6  1  6
  7  5  1  0
  7  8  2  0
  9 10  1  0
 10 11  2  0
 12 10  1  0
 12 13  1  0
 13 14  1  0
 14 15  1  0
 16 15  1  1
 16 17  1  0
 17  7  1  0
 18 16  1  0
 19 18  2  0
 21 20  1  1
 22 21  1  0
 23 21  1  0
 23 24  1  1
 24 18  1  0
 25 27  1  0
 25 23  1  0
 26 25  2  0
M  END
$$$$
