WAK.pdb
     RDKit          3D

 29 30  0  0  1  0  0  0  0  0999 V2000
    6.2684  -17.6807   24.4055 N   0  0  0  0  0  0  0  0  0  0  0  0
    6.7202  -16.3791   24.0074 C   0  0  1  0  0  0  0  0  0  0  0  0
    7.5266  -15.6888   25.0831 C   0  0  0  0  0  0  0  0  0  0  0  0
    6.7222  -14.8043   25.9418 C   0  0  0  0  0  0  0  0  0  0  0  0
    5.7162  -15.1163   26.8325 C   0  0  0  0  0  0  0  0  0  0  0  0
    5.2690  -13.9872   27.3945 N   0  0  0  0  0  0  0  0  0  0  0  0
    5.9335  -12.9217   26.9184 C   0  0  0  0  0  0  0  0  0  0  0  0
    5.8475  -11.5695   27.1750 C   0  0  0  0  0  0  0  0  0  0  0  0
    6.6956  -10.7173   26.5012 C   0  0  0  0  0  0  0  0  0  0  0  0
    7.6047  -11.1914   25.5974 C   0  0  0  0  0  0  0  0  0  0  0  0
    7.6721  -12.5517   25.3570 C   0  0  0  0  0  0  0  0  0  0  0  0
    6.8464  -13.4179   26.0082 C   0  0  0  0  0  0  0  0  0  0  0  0
    7.5837  -16.4568   22.8002 C   0  0  0  0  0  0  0  0  0  0  0  0
    8.4448  -17.3738   22.6561 O   0  0  0  0  0  0  0  0  0  0  0  0
    8.2088  -13.9254   20.0822 C   0  0  0  0  0  0  0  0  0  0  0  0
    8.4881  -15.2515   20.7694 C   0  0  2  0  0  0  0  0  0  0  0  0
    7.4759  -15.5087   21.7665 N   0  0  0  0  0  0  0  0  0  0  0  0
    9.8476  -15.2619   21.3159 C   0  0  0  0  0  0  0  0  0  0  0  0
   10.0430  -14.7952   22.4669 O   0  0  0  0  0  0  0  0  0  0  0  0
   10.9695  -15.7715   20.6191 N   0  0  0  0  0  0  0  0  0  0  0  0
   12.0424  -16.5391   21.2531 C   0  0  1  0  0  0  0  0  0  0  0  0
   11.4036  -17.7002   21.9468 C   0  0  0  0  0  0  0  0  0  0  0  0
   11.7817  -17.8989   23.3710 C   0  0  0  0  0  0  0  0  0  0  0  0
   11.1475  -19.1322   23.9661 C   0  0  0  0  0  0  0  0  0  0  0  0
   11.5108  -19.3110   25.4231 C   0  0  0  0  0  0  0  0  0  0  0  0
   10.8114  -20.3830   26.0605 N   0  0  0  0  0  0  0  0  0  0  0  0
   13.0887  -16.8865   20.2794 C   0  0  0  0  0  0  0  0  0  0  0  0
   14.4125  -16.6241   20.5664 O   0  0  0  0  0  0  0  0  0  0  0  0
   12.8143  -17.4302   19.1586 O   0  0  0  0  0  0  0  0  0  0  0  0
  2  1  1  1
  2 13  1  0
  3  2  1  0
  3  4  1  0
  4 12  1  0
  5  4  2  0
  5  6  1  0
  6  7  1  0
  7  8  1  0
  8  9  2  0
 10  9  1  0
 11 10  2  0
 12  7  2  0
 12 11  1  0
 13 17  1  0
 13 14  2  0
 16 15  1  1
 16 18  1  0
 17 16  1  0
 18 19  2  0
 20 21  1  0
 20 18  1  0
 22 23  1  0
 21 22  1  6
 24 23  1  0
 25 24  1  0
 26 25  1  0
 27 28  1  0
 27 21  1  0
 29 27  2  0
M  END
$$$$
