WAK.pdb
     RDKit          3D

 29 30  0  0  1  0  0  0  0  0999 V2000
    5.8526  -17.5981   23.9801 N   0  0  0  0  0  0  0  0  0  0  0  0
    6.6933  -16.4678   23.7108 C   0  0  1  0  0  0  0  0  0  0  0  0
    7.4989  -16.0415   24.9164 C   0  0  0  0  0  0  0  0  0  0  0  0
    6.8088  -15.0549   25.7633 C   0  0  0  0  0  0  0  0  0  0  0  0
    5.7117  -15.2116   26.5846 C   0  0  0  0  0  0  0  0  0  0  0  0
    5.4330  -14.0382   27.1645 N   0  0  0  0  0  0  0  0  0  0  0  0
    6.2994  -13.0921   26.7673 C   0  0  0  0  0  0  0  0  0  0  0  0
    6.4331  -11.7536   27.0709 C   0  0  0  0  0  0  0  0  0  0  0  0
    7.4550  -11.0439   26.4783 C   0  0  0  0  0  0  0  0  0  0  0  0
    8.3218  -11.6436   25.6080 C   0  0  0  0  0  0  0  0  0  0  0  0
    8.1675  -12.9873   25.3192 C   0  0  0  0  0  0  0  0  0  0  0  0
    7.1665  -13.7140   25.8901 C   0  0  0  0  0  0  0  0  0  0  0  0
    7.6628  -16.7669   22.6247 C   0  0  0  0  0  0  0  0  0  0  0  0
    8.2221  -17.8984   22.5250 O   0  0  0  0  0  0  0  0  0  0  0  0
    9.1175  -14.6809   19.8232 C   0  0  0  0  0  0  0  0  0  0  0  0
    9.0330  -15.9427   20.6656 C   0  0  2  0  0  0  0  0  0  0  0  0
    7.9972  -15.7980   21.6612 N   0  0  0  0  0  0  0  0  0  0  0  0
   10.3434  -16.2550   21.2421 C   0  0  0  0  0  0  0  0  0  0  0  0
   10.7045  -15.6582   22.2881 O   0  0  0  0  0  0  0  0  0  0  0  0
   11.2398  -17.1997   20.6871 N   0  0  0  0  0  0  0  0  0  0  0  0
   12.5016  -17.5925   21.3161 C   0  0  1  0  0  0  0  0  0  0  0  0
   12.5804  -19.0849   21.2528 C   0  0  0  0  0  0  0  0  0  0  0  0
   13.8465  -19.6935   21.7401 C   0  0  0  0  0  0  0  0  0  0  0  0
   13.8774  -21.1892   21.5419 C   0  0  0  0  0  0  0  0  0  0  0  0
   15.1029  -21.8195   22.1645 C   0  0  0  0  0  0  0  0  0  0  0  0
   14.8035  -22.7166   23.2370 N   0  0  0  0  0  0  0  0  0  0  0  0
   13.6366  -16.8769   20.7134 C   0  0  0  0  0  0  0  0  0  0  0  0
   14.7998  -16.6975   21.4334 O   0  0  0  0  0  0  0  0  0  0  0  0
   13.5856  -16.4060   19.5290 O   0  0  0  0  0  0  0  0  0  0  0  0
  2  1  1  1
  2 13  1  0
  3  2  1  0
  3  4  1  0
  4 12  1  0
  5  4  2  0
  5  6  1  0
  6  7  1  0
  7  8  1  0
  8  9  2  0
 10  9  1  0
 11 10  2  0
 12  7  2  0
 12 11  1  0
 13 17  1  0
 13 14  2  0
 16 15  1  1
 16 18  1  0
 17 16  1  0
 18 19  2  0
 20 21  1  0
 20 18  1  0
 22 23  1  0
 21 22  1  6
 24 23  1  0
 25 24  1  0
 26 25  1  0
 27 28  1  0
 27 21  1  0
 29 27  2  0
M  END
$$$$
