WAK.pdb
     RDKit          3D

 29 30  0  0  1  0  0  0  0  0999 V2000
    7.1194  -17.5152   24.8633 N   0  0  0  0  0  0  0  0  0  0  0  0
    7.0400  -16.5389   23.8157 C   0  0  1  0  0  0  0  0  0  0  0  0
    7.5878  -15.1932   24.2316 C   0  0  0  0  0  0  0  0  0  0  0  0
    6.8032  -14.5442   25.2945 C   0  0  0  0  0  0  0  0  0  0  0  0
    5.7748  -15.0473   26.0639 C   0  0  0  0  0  0  0  0  0  0  0  0
    5.3596  -14.0962   26.9086 N   0  0  0  0  0  0  0  0  0  0  0  0
    6.0675  -12.9673   26.7410 C   0  0  0  0  0  0  0  0  0  0  0  0
    6.0254  -11.7324   27.3534 C   0  0  0  0  0  0  0  0  0  0  0  0
    6.9118  -10.7623   26.9384 C   0  0  0  0  0  0  0  0  0  0  0  0
    7.8161  -11.0082   25.9434 C   0  0  0  0  0  0  0  0  0  0  0  0
    7.8392  -12.2545   25.3443 C   0  0  0  0  0  0  0  0  0  0  0  0
    6.9748  -13.2329   25.7339 C   0  0  0  0  0  0  0  0  0  0  0  0
    7.8106  -16.9705   22.6204 C   0  0  0  0  0  0  0  0  0  0  0  0
    8.5062  -18.0284   22.6236 O   0  0  0  0  0  0  0  0  0  0  0  0
    8.1883  -15.5445   19.1365 C   0  0  0  0  0  0  0  0  0  0  0  0
    8.4869  -16.5705   20.2167 C   0  0  2  0  0  0  0  0  0  0  0  0
    7.7958  -16.2152   21.4337 N   0  0  0  0  0  0  0  0  0  0  0  0
    9.9344  -16.7078   20.3981 C   0  0  0  0  0  0  0  0  0  0  0  0
   10.5813  -15.7405   20.8741 O   0  0  0  0  0  0  0  0  0  0  0  0
   10.6593  -17.8777   20.0664 N   0  0  0  0  0  0  0  0  0  0  0  0
   12.0897  -18.0501   20.3239 C   0  0  1  0  0  0  0  0  0  0  0  0
   12.2339  -19.2150   21.2509 C   0  0  0  0  0  0  0  0  0  0  0  0
   11.7355  -19.0125   22.6371 C   0  0  0  0  0  0  0  0  0  0  0  0
   11.8409  -20.2644   23.4731 C   0  0  0  0  0  0  0  0  0  0  0  0
   11.4699  -20.0156   24.9178 C   0  0  0  0  0  0  0  0  0  0  0  0
   11.4822  -21.1966   25.7239 N   0  0  0  0  0  0  0  0  0  0  0  0
   12.8438  -18.1512   19.0650 C   0  0  0  0  0  0  0  0  0  0  0  0
   14.1762  -17.7950   19.0286 O   0  0  0  0  0  0  0  0  0  0  0  0
   12.3030  -18.5622   17.9854 O   0  0  0  0  0  0  0  0  0  0  0  0
  2  1  1  1
  2 13  1  0
  3  2  1  0
  3  4  1  0
  4 12  1  0
  5  4  2  0
  5  6  1  0
  6  7  1  0
  7  8  1  0
  8  9  2  0
 10  9  1  0
 11 10  2  0
 12  7  2  0
 12 11  1  0
 13 17  1  0
 13 14  2  0
 16 15  1  6
 16 18  1  0
 17 16  1  0
 18 19  2  0
 20 21  1  0
 20 18  1  0
 22 23  1  0
 21 22  1  1
 24 23  1  0
 25 24  1  0
 26 25  1  0
 27 28  1  0
 27 21  1  0
 29 27  2  0
M  END
$$$$
