WAK.pdb
     RDKit          3D

 29 30  0  0  1  0  0  0  0  0999 V2000
    7.2965  -16.7458   21.2821 N   0  0  0  0  0  0  0  0  0  0  0  0
    8.0146  -16.1154   22.3514 C   0  0  1  0  0  0  0  0  0  0  0  0
    7.1024  -15.6006   23.4409 C   0  0  0  0  0  0  0  0  0  0  0  0
    7.1953  -14.1457   23.6442 C   0  0  0  0  0  0  0  0  0  0  0  0
    7.5801  -13.1552   22.7648 C   0  0  0  0  0  0  0  0  0  0  0  0
    7.5099  -11.9722   23.3863 N   0  0  0  0  0  0  0  0  0  0  0  0
    7.0922  -12.1232   24.6536 C   0  0  0  0  0  0  0  0  0  0  0  0
    6.8626  -11.2309   25.6797 C   0  0  0  0  0  0  0  0  0  0  0  0
    6.4261  -11.7209   26.8916 C   0  0  0  0  0  0  0  0  0  0  0  0
    6.2222  -13.0589   27.0826 C   0  0  0  0  0  0  0  0  0  0  0  0
    6.4593  -13.9342   26.0384 C   0  0  0  0  0  0  0  0  0  0  0  0
    6.8913  -13.4785   24.8293 C   0  0  0  0  0  0  0  0  0  0  0  0
    8.9640  -17.0626   22.9919 C   0  0  0  0  0  0  0  0  0  0  0  0
    8.5723  -18.1507   23.5073 O   0  0  0  0  0  0  0  0  0  0  0  0
   12.7222  -17.0892   23.3975 C   0  0  0  0  0  0  0  0  0  0  0  0
   11.3286  -17.6149   23.6981 C   0  0  2  0  0  0  0  0  0  0  0  0
   10.3417  -16.7839   23.0498 N   0  0  0  0  0  0  0  0  0  0  0  0
   11.1286  -17.7198   25.1459 C   0  0  0  0  0  0  0  0  0  0  0  0
   10.8267  -16.6854   25.7937 O   0  0  0  0  0  0  0  0  0  0  0  0
   11.2559  -18.9296   25.8700 N   0  0  0  0  0  0  0  0  0  0  0  0
   11.1637  -19.0198   27.3278 C   0  0  1  0  0  0  0  0  0  0  0  0
   10.7738  -20.4253   27.6591 C   0  0  0  0  0  0  0  0  0  0  0  0
   10.6555  -20.7467   29.1061 C   0  0  0  0  0  0  0  0  0  0  0  0
   10.2972  -22.1930   29.3449 C   0  0  0  0  0  0  0  0  0  0  0  0
   10.1474  -22.5055   30.8170 C   0  0  0  0  0  0  0  0  0  0  0  0
    9.7446  -23.8524   31.0785 N   0  0  0  0  0  0  0  0  0  0  0  0
   12.4011  -18.5438   27.9650 C   0  0  0  0  0  0  0  0  0  0  0  0
   12.3460  -17.9038   29.1861 O   0  0  0  0  0  0  0  0  0  0  0  0
   13.5442  -18.7019   27.4216 O   0  0  0  0  0  0  0  0  0  0  0  0
  2  1  1  6
  2 13  1  0
  3  2  1  0
  3  4  1  0
  4 12  1  0
  5  4  2  0
  5  6  1  0
  6  7  1  0
  7  8  1  0
  8  9  2  0
 10  9  1  0
 11 10  2  0
 12  7  2  0
 12 11  1  0
 13 17  1  0
 13 14  2  0
 16 15  1  1
 16 18  1  0
 17 16  1  0
 18 19  2  0
 20 21  1  0
 20 18  1  0
 22 23  1  0
 21 22  1  6
 24 23  1  0
 25 24  1  0
 26 25  1  0
 27 28  1  0
 27 21  1  0
 29 27  2  0
M  END
$$$$
