WAK.pdb
     RDKit          3D

 29 30  0  0  1  0  0  0  0  0999 V2000
    5.6784  -17.9279   24.4715 N   0  0  0  0  0  0  0  0  0  0  0  0
    6.3300  -16.6797   24.1991 C   0  0  1  0  0  0  0  0  0  0  0  0
    7.1200  -16.1656   25.3805 C   0  0  0  0  0  0  0  0  0  0  0  0
    6.5432  -14.9561   25.9895 C   0  0  0  0  0  0  0  0  0  0  0  0
    5.2954  -14.7564   26.5425 C   0  0  0  0  0  0  0  0  0  0  0  0
    5.2106  -13.4936   26.9770 N   0  0  0  0  0  0  0  0  0  0  0  0
    6.3535  -12.8297   26.7394 C   0  0  0  0  0  0  0  0  0  0  0  0
    6.7581  -11.5357   26.9918 C   0  0  0  0  0  0  0  0  0  0  0  0
    8.0284  -11.1585   26.6132 C   0  0  0  0  0  0  0  0  0  0  0  0
    8.8758  -12.0390   26.0010 C   0  0  0  0  0  0  0  0  0  0  0  0
    8.4473  -13.3315   25.7586 C   0  0  0  0  0  0  0  0  0  0  0  0
    7.1969  -13.7325   26.1217 C   0  0  0  0  0  0  0  0  0  0  0  0
    7.2806  -16.8073   23.0638 C   0  0  0  0  0  0  0  0  0  0  0  0
    8.0963  -17.7723   22.9842 O   0  0  0  0  0  0  0  0  0  0  0  0
    8.2777  -14.2185   20.5233 C   0  0  0  0  0  0  0  0  0  0  0  0
    8.4561  -15.5676   21.1992 C   0  0  2  0  0  0  0  0  0  0  0  0
    7.3098  -15.8546   22.0290 N   0  0  0  0  0  0  0  0  0  0  0  0
    9.7214  -15.6005   21.9374 C   0  0  0  0  0  0  0  0  0  0  0  0
    9.9104  -14.7633   22.8561 O   0  0  0  0  0  0  0  0  0  0  0  0
   10.7579  -16.5289   21.6768 N   0  0  0  0  0  0  0  0  0  0  0  0
   11.9981  -16.6033   22.4503 C   0  0  1  0  0  0  0  0  0  0  0  0
   12.0040  -17.9262   23.1484 C   0  0  0  0  0  0  0  0  0  0  0  0
   11.9467  -17.8815   24.6335 C   0  0  0  0  0  0  0  0  0  0  0  0
   12.0542  -19.2532   25.2532 C   0  0  0  0  0  0  0  0  0  0  0  0
   11.8940  -19.2116   26.7564 C   0  0  0  0  0  0  0  0  0  0  0  0
   11.9561  -20.4993   27.3749 N   0  0  0  0  0  0  0  0  0  0  0  0
   13.1676  -16.3365   21.5989 C   0  0  0  0  0  0  0  0  0  0  0  0
   14.2526  -15.6554   22.1111 O   0  0  0  0  0  0  0  0  0  0  0  0
   13.2177  -16.7167   20.3824 O   0  0  0  0  0  0  0  0  0  0  0  0
  2  1  1  1
  2 13  1  0
  3  2  1  0
  3  4  1  0
  4 12  1  0
  5  4  2  0
  5  6  1  0
  6  7  1  0
  7  8  1  0
  8  9  2  0
 10  9  1  0
 11 10  2  0
 12  7  2  0
 12 11  1  0
 13 17  1  0
 13 14  2  0
 16 15  1  1
 16 18  1  0
 17 16  1  0
 18 19  2  0
 20 21  1  0
 20 18  1  0
 22 23  1  0
 21 22  1  6
 24 23  1  0
 25 24  1  0
 26 25  1  0
 27 28  1  0
 27 21  1  0
 29 27  2  0
M  END
$$$$
