WAK.pdb
     RDKit          3D

 29 30  0  0  1  0  0  0  0  0999 V2000
    5.5528  -16.3371   23.4697 N   0  0  0  0  0  0  0  0  0  0  0  0
    6.9678  -16.1035   23.4669 C   0  0  1  0  0  0  0  0  0  0  0  0
    7.6125  -16.4199   24.7967 C   0  0  0  0  0  0  0  0  0  0  0  0
    7.2815  -15.4507   25.8538 C   0  0  0  0  0  0  0  0  0  0  0  0
    7.0116  -15.6610   27.1901 C   0  0  0  0  0  0  0  0  0  0  0  0
    6.7639  -14.4823   27.7733 N   0  0  0  0  0  0  0  0  0  0  0  0
    6.8556  -13.4810   26.8830 C   0  0  0  0  0  0  0  0  0  0  0  0
    6.6937  -12.1154   26.9853 C   0  0  0  0  0  0  0  0  0  0  0  0
    6.8618  -11.3469   25.8537 C   0  0  0  0  0  0  0  0  0  0  0  0
    7.1819  -11.9154   24.6526 C   0  0  0  0  0  0  0  0  0  0  0  0
    7.3391  -13.2873   24.5751 C   0  0  0  0  0  0  0  0  0  0  0  0
    7.1791  -14.0721   25.6772 C   0  0  0  0  0  0  0  0  0  0  0  0
    7.6479  -16.9411   22.4447 C   0  0  0  0  0  0  0  0  0  0  0  0
    7.2453  -18.1088   22.1663 O   0  0  0  0  0  0  0  0  0  0  0  0
    7.9378  -14.2713   21.1319 C   0  0  0  0  0  0  0  0  0  0  0  0
    8.7319  -15.4864   20.6830 C   0  0  2  0  0  0  0  0  0  0  0  0
    8.7710  -16.4649   21.7441 N   0  0  0  0  0  0  0  0  0  0  0  0
   10.0641  -15.0804   20.2275 C   0  0  0  0  0  0  0  0  0  0  0  0
   10.2928  -15.0246   18.9925 O   0  0  0  0  0  0  0  0  0  0  0  0
   11.1237  -14.7426   21.1035 N   0  0  0  0  0  0  0  0  0  0  0  0
   11.9437  -15.7290   21.8082 C   0  0  1  0  0  0  0  0  0  0  0  0
   11.1508  -16.2024   22.9848 C   0  0  0  0  0  0  0  0  0  0  0  0
   11.7005  -17.3761   23.7136 C   0  0  0  0  0  0  0  0  0  0  0  0
   10.8774  -17.7352   24.9263 C   0  0  0  0  0  0  0  0  0  0  0  0
   11.3964  -18.9759   25.6180 C   0  0  0  0  0  0  0  0  0  0  0  0
   10.6213  -19.3643   26.7552 N   0  0  0  0  0  0  0  0  0  0  0  0
   12.4015  -16.7852   20.8925 C   0  0  0  0  0  0  0  0  0  0  0  0
   13.6316  -16.6788   20.2767 O   0  0  0  0  0  0  0  0  0  0  0  0
   11.6914  -17.8143   20.6402 O   0  0  0  0  0  0  0  0  0  0  0  0
  2  1  1  1
  2 13  1  0
  3  2  1  0
  3  4  1  0
  4 12  1  0
  5  4  2  0
  5  6  1  0
  6  7  1  0
  7  8  1  0
  8  9  2  0
 10  9  1  0
 11 10  2  0
 12  7  2  0
 12 11  1  0
 13 17  1  0
 13 14  2  0
 16 15  1  1
 16 18  1  0
 17 16  1  0
 18 19  2  0
 20 21  1  0
 20 18  1  0
 22 23  1  0
 21 22  1  1
 24 23  1  0
 25 24  1  0
 26 25  1  0
 27 28  1  0
 27 21  1  0
 29 27  2  0
M  END
$$$$
