WAK.pdb
     RDKit          3D

 29 30  0  0  1  0  0  0  0  0999 V2000
    6.4258  -17.1255   24.9702 N   0  0  0  0  0  0  0  0  0  0  0  0
    6.9022  -15.9780   24.2539 C   0  0  1  0  0  0  0  0  0  0  0  0
    8.2590  -15.5152   24.7325 C   0  0  0  0  0  0  0  0  0  0  0  0
    8.2138  -14.7966   26.0164 C   0  0  0  0  0  0  0  0  0  0  0  0
    8.5011  -15.2453   27.2887 C   0  0  0  0  0  0  0  0  0  0  0  0
    8.3230  -14.2399   28.1537 N   0  0  0  0  0  0  0  0  0  0  0  0
    7.9257  -13.1268   27.5160 C   0  0  0  0  0  0  0  0  0  0  0  0
    7.6176  -11.8546   27.9501 C   0  0  0  0  0  0  0  0  0  0  0  0
    7.2332  -10.9165   27.0166 C   0  0  0  0  0  0  0  0  0  0  0  0
    7.1559  -11.2296   25.6884 C   0  0  0  0  0  0  0  0  0  0  0  0
    7.4700  -12.5122   25.2772 C   0  0  0  0  0  0  0  0  0  0  0  0
    7.8530  -13.4603   26.1775 C   0  0  0  0  0  0  0  0  0  0  0  0
    7.0298  -16.2669   22.8016 C   0  0  0  0  0  0  0  0  0  0  0  0
    7.0759  -17.4528   22.3606 O   0  0  0  0  0  0  0  0  0  0  0  0
    7.3828  -14.0545   19.7525 C   0  0  0  0  0  0  0  0  0  0  0  0
    7.3387  -15.4070   20.4435 C   0  0  2  0  0  0  0  0  0  0  0  0
    7.1045  -15.2271   21.8570 N   0  0  0  0  0  0  0  0  0  0  0  0
    8.5609  -16.1623   20.1560 C   0  0  0  0  0  0  0  0  0  0  0  0
    8.7664  -16.5609   18.9814 O   0  0  0  0  0  0  0  0  0  0  0  0
    9.5377  -16.4752   21.1318 N   0  0  0  0  0  0  0  0  0  0  0  0
   10.8205  -17.1099   20.8258 C   0  0  1  0  0  0  0  0  0  0  0  0
   11.4207  -16.3610   19.6785 C   0  0  0  0  0  0  0  0  0  0  0  0
   11.5267  -17.1059   18.3960 C   0  0  0  0  0  0  0  0  0  0  0  0
   12.6744  -16.6213   17.5444 C   0  0  0  0  0  0  0  0  0  0  0  0
   12.8399  -17.4492   16.2897 C   0  0  0  0  0  0  0  0  0  0  0  0
   13.7629  -16.8896   15.3518 N   0  0  0  0  0  0  0  0  0  0  0  0
   11.6640  -17.2007   22.0274 C   0  0  0  0  0  0  0  0  0  0  0  0
   12.8129  -17.9643   22.0076 O   0  0  0  0  0  0  0  0  0  0  0  0
   11.3680  -16.5903   23.1076 O   0  0  0  0  0  0  0  0  0  0  0  0
  2  1  1  1
  2 13  1  0
  3  2  1  0
  3  4  1  0
  4 12  1  0
  5  4  2  0
  5  6  1  0
  6  7  1  0
  7  8  1  0
  8  9  2  0
 10  9  1  0
 11 10  2  0
 12  7  2  0
 12 11  1  0
 13 17  1  0
 13 14  2  0
 16 15  1  6
 16 18  1  0
 17 16  1  0
 18 19  2  0
 20 21  1  0
 20 18  1  0
 22 23  1  0
 21 22  1  6
 24 23  1  0
 25 24  1  0
 26 25  1  0
 27 28  1  0
 27 21  1  0
 29 27  2  0
M  END
$$$$
