WAK.pdb
     RDKit          3D

 29 30  0  0  1  0  0  0  0  0999 V2000
    6.2482  -17.6998   24.4132 N   0  0  0  0  0  0  0  0  0  0  0  0
    7.0705  -16.6464   23.8928 C   0  0  1  0  0  0  0  0  0  0  0  0
    7.8766  -15.9529   24.9667 C   0  0  0  0  0  0  0  0  0  0  0  0
    7.0806  -15.0320   25.7943 C   0  0  0  0  0  0  0  0  0  0  0  0
    6.1083  -15.3067   26.7333 C   0  0  0  0  0  0  0  0  0  0  0  0
    5.6552  -14.1535   27.2387 N   0  0  0  0  0  0  0  0  0  0  0  0
    6.2834  -13.1074   26.6778 C   0  0  0  0  0  0  0  0  0  0  0  0
    6.1778  -11.7437   26.8536 C   0  0  0  0  0  0  0  0  0  0  0  0
    6.9877  -10.9194   26.1028 C   0  0  0  0  0  0  0  0  0  0  0  0
    7.8788  -11.4317   25.2018 C   0  0  0  0  0  0  0  0  0  0  0  0
    7.9666  -12.8028   25.0432 C   0  0  0  0  0  0  0  0  0  0  0  0
    7.1785  -13.6421   25.7717 C   0  0  0  0  0  0  0  0  0  0  0  0
    8.0380  -17.1658   22.8913 C   0  0  0  0  0  0  0  0  0  0  0  0
    8.6214  -18.2790   23.0448 O   0  0  0  0  0  0  0  0  0  0  0  0
    9.3963  -15.7689   19.6479 C   0  0  0  0  0  0  0  0  0  0  0  0
    9.3863  -16.7730   20.7882 C   0  0  2  0  0  0  0  0  0  0  0  0
    8.3435  -16.4356   21.7283 N   0  0  0  0  0  0  0  0  0  0  0  0
   10.7127  -16.8504   21.4060 C   0  0  0  0  0  0  0  0  0  0  0  0
   11.1034  -15.8974   22.1270 O   0  0  0  0  0  0  0  0  0  0  0  0
   11.5932  -17.9464   21.2393 N   0  0  0  0  0  0  0  0  0  0  0  0
   12.9155  -18.0307   21.8608 C   0  0  1  0  0  0  0  0  0  0  0  0
   13.0462  -19.4055   22.4354 C   0  0  0  0  0  0  0  0  0  0  0  0
   12.2661  -19.6734   23.6725 C   0  0  0  0  0  0  0  0  0  0  0  0
   12.3438  -21.1192   24.0978 C   0  0  0  0  0  0  0  0  0  0  0  0
   11.5393  -21.3871   25.3500 C   0  0  0  0  0  0  0  0  0  0  0  0
   11.5444  -22.7595   25.7514 N   0  0  0  0  0  0  0  0  0  0  0  0
   13.9702  -17.6432   20.9116 C   0  0  0  0  0  0  0  0  0  0  0  0
   15.1860  -17.1885   21.3792 O   0  0  0  0  0  0  0  0  0  0  0  0
   13.8006  -17.7115   19.6492 O   0  0  0  0  0  0  0  0  0  0  0  0
  2  1  1  1
  2 13  1  0
  3  2  1  0
  3  4  1  0
  4 12  1  0
  5  4  2  0
  5  6  1  0
  6  7  1  0
  7  8  1  0
  8  9  2  0
 10  9  1  0
 11 10  2  0
 12  7  2  0
 12 11  1  0
 13 17  1  0
 13 14  2  0
 16 15  1  6
 16 18  1  0
 17 16  1  0
 18 19  2  0
 20 21  1  0
 20 18  1  0
 22 23  1  0
 21 22  1  6
 24 23  1  0
 25 24  1  0
 26 25  1  0
 27 28  1  0
 27 21  1  0
 29 27  2  0
M  END
$$$$
