WAK.pdb
     RDKit          3D

 29 30  0  0  1  0  0  0  0  0999 V2000
    6.0679  -17.9657   24.5443 N   0  0  0  0  0  0  0  0  0  0  0  0
    6.5659  -16.6834   24.1389 C   0  0  1  0  0  0  0  0  0  0  0  0
    7.4580  -16.0495   25.1812 C   0  0  0  0  0  0  0  0  0  0  0  0
    6.8018  -14.9692   25.9356 C   0  0  0  0  0  0  0  0  0  0  0  0
    5.6151  -14.9792   26.6386 C   0  0  0  0  0  0  0  0  0  0  0  0
    5.4143  -13.7668   27.1681 N   0  0  0  0  0  0  0  0  0  0  0  0
    6.4199  -12.9352   26.8506 C   0  0  0  0  0  0  0  0  0  0  0  0
    6.6740  -11.6125   27.1465 C   0  0  0  0  0  0  0  0  0  0  0  0
    7.8263  -11.0384   26.6546 C   0  0  0  0  0  0  0  0  0  0  0  0
    8.7038  -11.7550   25.8899 C   0  0  0  0  0  0  0  0  0  0  0  0
    8.4272  -13.0801   25.6066 C   0  0  0  0  0  0  0  0  0  0  0  0
    7.2958  -13.6741   26.0793 C   0  0  0  0  0  0  0  0  0  0  0  0
    7.3647  -16.7883   22.8900 C   0  0  0  0  0  0  0  0  0  0  0  0
    8.1094  -17.7857   22.6583 O   0  0  0  0  0  0  0  0  0  0  0  0
    8.0517  -14.3327   20.1063 C   0  0  0  0  0  0  0  0  0  0  0  0
    8.2056  -15.6892   20.7734 C   0  0  2  0  0  0  0  0  0  0  0  0
    7.3228  -15.7773   21.9127 N   0  0  0  0  0  0  0  0  0  0  0  0
    9.6100  -15.9284   21.1159 C   0  0  0  0  0  0  0  0  0  0  0  0
   10.1283  -15.2665   22.0508 O   0  0  0  0  0  0  0  0  0  0  0  0
   10.4303  -16.8711   20.4507 N   0  0  0  0  0  0  0  0  0  0  0  0
   11.7210  -17.3329   20.9634 C   0  0  1  0  0  0  0  0  0  0  0  0
   11.6476  -18.8234   21.0654 C   0  0  0  0  0  0  0  0  0  0  0  0
   12.9173  -19.5183   21.4056 C   0  0  0  0  0  0  0  0  0  0  0  0
   12.7651  -21.0196   21.4139 C   0  0  0  0  0  0  0  0  0  0  0  0
   14.0612  -21.7201   21.7549 C   0  0  0  0  0  0  0  0  0  0  0  0
   13.9690  -23.1465   21.7153 N   0  0  0  0  0  0  0  0  0  0  0  0
   12.8292  -16.8123   20.1482 C   0  0  0  0  0  0  0  0  0  0  0  0
   12.6018  -16.4198   18.8452 O   0  0  0  0  0  0  0  0  0  0  0  0
   14.0146  -16.7090   20.6077 O   0  0  0  0  0  0  0  0  0  0  0  0
  2  1  1  1
  2 13  1  0
  3  2  1  0
  3  4  1  0
  4 12  1  0
  5  4  2  0
  5  6  1  0
  6  7  1  0
  7  8  1  0
  8  9  2  0
 10  9  1  0
 11 10  2  0
 12  7  2  0
 12 11  1  0
 13 17  1  0
 13 14  2  0
 16 15  1  1
 16 18  1  0
 17 16  1  0
 18 19  2  0
 20 21  1  0
 20 18  1  0
 22 23  1  0
 21 22  1  6
 24 23  1  0
 25 24  1  0
 26 25  1  0
 27 28  1  0
 27 21  1  0
 29 27  2  0
M  END
$$$$
