WAK.pdb
     RDKit          3D

 29 30  0  0  1  0  0  0  0  0999 V2000
    6.2123  -17.4942   24.4973 N   0  0  0  0  0  0  0  0  0  0  0  0
    6.6325  -16.2607   23.8984 C   0  0  1  0  0  0  0  0  0  0  0  0
    7.5042  -15.4354   24.8165 C   0  0  0  0  0  0  0  0  0  0  0  0
    6.7399  -14.5593   25.7193 C   0  0  0  0  0  0  0  0  0  0  0  0
    5.6908  -14.8615   26.5624 C   0  0  0  0  0  0  0  0  0  0  0  0
    5.3076  -13.7463   27.1950 N   0  0  0  0  0  0  0  0  0  0  0  0
    6.0570  -12.6996   26.8127 C   0  0  0  0  0  0  0  0  0  0  0  0
    6.0579  -11.3663   27.1650 C   0  0  0  0  0  0  0  0  0  0  0  0
    6.9810  -10.5308   26.5741 C   0  0  0  0  0  0  0  0  0  0  0  0
    7.8794  -11.0028   25.6585 C   0  0  0  0  0  0  0  0  0  0  0  0
    7.8590  -12.3440   25.3213 C   0  0  0  0  0  0  0  0  0  0  0  0
    6.9579  -13.1934   25.8892 C   0  0  0  0  0  0  0  0  0  0  0  0
    7.4164  -16.5052   22.6596 C   0  0  0  0  0  0  0  0  0  0  0  0
    8.1699  -17.5154   22.5376 O   0  0  0  0  0  0  0  0  0  0  0  0
    8.1057  -14.3356   19.6554 C   0  0  0  0  0  0  0  0  0  0  0  0
    8.2405  -15.6339   20.4333 C   0  0  2  0  0  0  0  0  0  0  0  0
    7.3500  -15.6181   21.5699 N   0  0  0  0  0  0  0  0  0  0  0  0
    9.6401  -15.8588   20.8041 C   0  0  0  0  0  0  0  0  0  0  0  0
   10.2266  -15.0003   21.5110 O   0  0  0  0  0  0  0  0  0  0  0  0
   10.3828  -16.9980   20.4105 N   0  0  0  0  0  0  0  0  0  0  0  0
   11.7642  -17.2517   20.8220 C   0  0  1  0  0  0  0  0  0  0  0  0
   11.7715  -18.5486   21.5671 C   0  0  0  0  0  0  0  0  0  0  0  0
   12.3776  -18.5188   22.9245 C   0  0  0  0  0  0  0  0  0  0  0  0
   12.3318  -19.8660   23.6029 C   0  0  0  0  0  0  0  0  0  0  0  0
   13.1045  -19.8740   24.9028 C   0  0  0  0  0  0  0  0  0  0  0  0
   12.8962  -21.0523   25.6857 N   0  0  0  0  0  0  0  0  0  0  0  0
   12.6783  -17.1824   19.6717 C   0  0  0  0  0  0  0  0  0  0  0  0
   14.0155  -16.9053   19.8689 O   0  0  0  0  0  0  0  0  0  0  0  0
   12.2748  -17.3709   18.4764 O   0  0  0  0  0  0  0  0  0  0  0  0
  2  1  1  1
  2 13  1  0
  3  2  1  0
  3  4  1  0
  4 12  1  0
  5  4  2  0
  5  6  1  0
  6  7  1  0
  7  8  1  0
  8  9  2  0
 10  9  1  0
 11 10  2  0
 12  7  2  0
 12 11  1  0
 13 17  1  0
 13 14  2  0
 16 15  1  1
 16 18  1  0
 17 16  1  0
 18 19  2  0
 20 21  1  0
 20 18  1  0
 22 23  1  0
 21 22  1  6
 24 23  1  0
 25 24  1  0
 26 25  1  0
 27 28  1  0
 27 21  1  0
 29 27  2  0
M  END
$$$$
