WAK.pdb
     RDKit          3D

 29 30  0  0  1  0  0  0  0  0999 V2000
    6.7140  -17.8405   24.6620 N   0  0  0  0  0  0  0  0  0  0  0  0
    7.5211  -16.7302   24.2463 C   0  0  1  0  0  0  0  0  0  0  0  0
    7.9800  -15.8776   25.4067 C   0  0  0  0  0  0  0  0  0  0  0  0
    6.9904  -14.8697   25.8208 C   0  0  0  0  0  0  0  0  0  0  0  0
    5.7774  -15.0340   26.4567 C   0  0  0  0  0  0  0  0  0  0  0  0
    5.2154  -13.8328   26.6358 N   0  0  0  0  0  0  0  0  0  0  0  0
    6.0013  -12.8606   26.1453 C   0  0  0  0  0  0  0  0  0  0  0  0
    5.8730  -11.4888   26.0868 C   0  0  0  0  0  0  0  0  0  0  0  0
    6.8850  -10.7582   25.5024 C   0  0  0  0  0  0  0  0  0  0  0  0
    7.9947  -11.3696   24.9895 C   0  0  0  0  0  0  0  0  0  0  0  0
    8.1006  -12.7467   25.0600 C   0  0  0  0  0  0  0  0  0  0  0  0
    7.1160  -13.4948   25.6319 C   0  0  0  0  0  0  0  0  0  0  0  0
    8.7429  -17.1910   23.5366 C   0  0  0  0  0  0  0  0  0  0  0  0
    9.4453  -18.1491   23.9744 O   0  0  0  0  0  0  0  0  0  0  0  0
   10.5608  -15.9279   20.4688 C   0  0  0  0  0  0  0  0  0  0  0  0
   10.4235  -16.8335   21.6811 C   0  0  2  0  0  0  0  0  0  0  0  0
    9.1671  -16.5761   22.3445 N   0  0  0  0  0  0  0  0  0  0  0  0
   11.5818  -16.6756   22.5646 C   0  0  0  0  0  0  0  0  0  0  0  0
   11.7313  -15.5906   23.1818 O   0  0  0  0  0  0  0  0  0  0  0  0
   12.5557  -17.6825   22.7690 N   0  0  0  0  0  0  0  0  0  0  0  0
   13.6517  -17.5719   23.7327 C   0  0  1  0  0  0  0  0  0  0  0  0
   13.6963  -18.8554   24.4994 C   0  0  0  0  0  0  0  0  0  0  0  0
   12.5873  -19.0790   25.4642 C   0  0  0  0  0  0  0  0  0  0  0  0
   12.5865  -20.4810   26.0223 C   0  0  0  0  0  0  0  0  0  0  0  0
   11.5310  -20.6671   27.0892 C   0  0  0  0  0  0  0  0  0  0  0  0
   11.3931  -22.0210   27.5285 N   0  0  0  0  0  0  0  0  0  0  0  0
   14.9063  -17.1953   23.0636 C   0  0  0  0  0  0  0  0  0  0  0  0
   15.9681  -16.7203   23.8055 O   0  0  0  0  0  0  0  0  0  0  0  0
   15.0529  -17.2916   21.8001 O   0  0  0  0  0  0  0  0  0  0  0  0
  2  1  1  1
  2 13  1  0
  3  2  1  0
  3  4  1  0
  4 12  1  0
  5  4  2  0
  5  6  1  0
  6  7  1  0
  7  8  1  0
  8  9  2  0
 10  9  1  0
 11 10  2  0
 12  7  2  0
 12 11  1  0
 13 17  1  0
 13 14  2  0
 16 15  1  6
 16 18  1  0
 17 16  1  0
 18 19  2  0
 20 21  1  0
 20 18  1  0
 22 23  1  0
 21 22  1  6
 24 23  1  0
 25 24  1  0
 26 25  1  0
 27 28  1  0
 27 21  1  0
 29 27  2  0
M  END
$$$$
