WAK.pdb
     RDKit          3D

 29 30  0  0  1  0  0  0  0  0999 V2000
    5.6752  -17.8331   24.3045 N   0  0  0  0  0  0  0  0  0  0  0  0
    6.3368  -16.5696   24.1543 C   0  0  1  0  0  0  0  0  0  0  0  0
    7.2134  -16.2275   25.3370 C   0  0  0  0  0  0  0  0  0  0  0  0
    6.7067  -15.0993   26.1351 C   0  0  0  0  0  0  0  0  0  0  0  0
    5.8717  -15.1004   27.2330 C   0  0  0  0  0  0  0  0  0  0  0  0
    5.6808  -13.8381   27.6340 N   0  0  0  0  0  0  0  0  0  0  0  0
    6.3546  -12.9813   26.8495 C   0  0  0  0  0  0  0  0  0  0  0  0
    6.4794  -11.6080   26.8485 C   0  0  0  0  0  0  0  0  0  0  0  0
    7.2671  -11.0202   25.8824 C   0  0  0  0  0  0  0  0  0  0  0  0
    7.9142  -11.7722   24.9422 C   0  0  0  0  0  0  0  0  0  0  0  0
    7.7736  -13.1479   24.9637 C   0  0  0  0  0  0  0  0  0  0  0  0
    7.0015  -13.7566   25.9068 C   0  0  0  0  0  0  0  0  0  0  0  0
    7.2088  -16.5601   22.9508 C   0  0  0  0  0  0  0  0  0  0  0  0
    7.8329  -17.5950   22.5732 O   0  0  0  0  0  0  0  0  0  0  0  0
    8.2218  -13.8504   20.5142 C   0  0  0  0  0  0  0  0  0  0  0  0
    8.2054  -15.2881   21.0056 C   0  0  2  0  0  0  0  0  0  0  0  0
    7.3742  -15.3939   22.1816 N   0  0  0  0  0  0  0  0  0  0  0  0
    9.5738  -15.7634   21.2255 C   0  0  0  0  0  0  0  0  0  0  0  0
   10.2368  -15.2850   22.1806 O   0  0  0  0  0  0  0  0  0  0  0  0
   10.2041  -16.7411   20.4185 N   0  0  0  0  0  0  0  0  0  0  0  0
   11.5151  -17.3202   20.7151 C   0  0  1  0  0  0  0  0  0  0  0  0
   11.6289  -18.5835   19.9225 C   0  0  0  0  0  0  0  0  0  0  0  0
   12.9014  -19.3376   20.0743 C   0  0  0  0  0  0  0  0  0  0  0  0
   12.9474  -20.5669   19.2003 C   0  0  0  0  0  0  0  0  0  0  0  0
   14.2767  -21.2817   19.2948 C   0  0  0  0  0  0  0  0  0  0  0  0
   14.3468  -22.4683   18.4999 N   0  0  0  0  0  0  0  0  0  0  0  0
   12.5879  -16.3390   20.4917 C   0  0  0  0  0  0  0  0  0  0  0  0
   13.6874  -16.3174   21.3248 O   0  0  0  0  0  0  0  0  0  0  0  0
   12.5394  -15.4907   19.5403 O   0  0  0  0  0  0  0  0  0  0  0  0
  2  1  1  1
  2 13  1  0
  3  2  1  0
  3  4  1  0
  4 12  1  0
  5  4  2  0
  5  6  1  0
  6  7  1  0
  7  8  1  0
  8  9  2  0
 10  9  1  0
 11 10  2  0
 12  7  2  0
 12 11  1  0
 13 17  1  0
 13 14  2  0
 16 15  1  1
 16 18  1  0
 17 16  1  0
 18 19  2  0
 20 21  1  0
 20 18  1  0
 22 23  1  0
 21 22  1  6
 24 23  1  0
 25 24  1  0
 26 25  1  0
 27 28  1  0
 27 21  1  0
 29 27  2  0
M  END
$$$$
