WAK.pdb
     RDKit          3D

 29 30  0  0  1  0  0  0  0  0999 V2000
    7.1818  -18.3916   26.0713 N   0  0  0  0  0  0  0  0  0  0  0  0
    7.1882  -17.6661   24.8341 C   0  0  1  0  0  0  0  0  0  0  0  0
    7.9109  -16.3430   24.9391 C   0  0  0  0  0  0  0  0  0  0  0  0
    7.1349  -15.3051   25.6371 C   0  0  0  0  0  0  0  0  0  0  0  0
    5.9889  -15.4215   26.3958 C   0  0  0  0  0  0  0  0  0  0  0  0
    5.6359  -14.2086   26.8373 N   0  0  0  0  0  0  0  0  0  0  0  0
    6.4992  -13.2744   26.4066 C   0  0  0  0  0  0  0  0  0  0  0  0
    6.5716  -11.9088   26.5846 C   0  0  0  0  0  0  0  0  0  0  0  0
    7.6105  -11.2230   25.9934 C   0  0  0  0  0  0  0  0  0  0  0  0
    8.5528  -11.8719   25.2456 C   0  0  0  0  0  0  0  0  0  0  0  0
    8.4590  -13.2419   25.0814 C   0  0  0  0  0  0  0  0  0  0  0  0
    7.4429  -13.9461   25.6541 C   0  0  0  0  0  0  0  0  0  0  0  0
    7.8595  -18.4433   23.7598 C   0  0  0  0  0  0  0  0  0  0  0  0
    8.9168  -19.1046   23.9785 O   0  0  0  0  0  0  0  0  0  0  0  0
    7.0421  -19.1935   20.1558 C   0  0  0  0  0  0  0  0  0  0  0  0
    8.0227  -19.0251   21.3042 C   0  0  2  0  0  0  0  0  0  0  0  0
    7.3422  -18.4733   22.4520 N   0  0  0  0  0  0  0  0  0  0  0  0
    9.1702  -18.2207   20.8761 C   0  0  0  0  0  0  0  0  0  0  0  0
    9.9191  -18.6654   19.9694 O   0  0  0  0  0  0  0  0  0  0  0  0
    9.4920  -16.9571   21.4274 N   0  0  0  0  0  0  0  0  0  0  0  0
   10.5887  -16.1148   20.9480 C   0  0  1  0  0  0  0  0  0  0  0  0
    9.9836  -14.8346   20.4660 C   0  0  0  0  0  0  0  0  0  0  0  0
    9.1146  -14.9347   19.2637 C   0  0  0  0  0  0  0  0  0  0  0  0
    8.5137  -13.6053   18.8781 C   0  0  0  0  0  0  0  0  0  0  0  0
    7.5732  -13.7273   17.7001 C   0  0  0  0  0  0  0  0  0  0  0  0
    7.0072  -12.4806   17.2876 N   0  0  0  0  0  0  0  0  0  0  0  0
   11.6306  -15.9698   21.9761 C   0  0  0  0  0  0  0  0  0  0  0  0
   11.4025  -16.4250   23.2584 O   0  0  0  0  0  0  0  0  0  0  0  0
   12.7576  -15.4283   21.7235 O   0  0  0  0  0  0  0  0  0  0  0  0
  2  1  1  1
  2 13  1  0
  3  2  1  0
  3  4  1  0
  4 12  1  0
  5  4  2  0
  5  6  1  0
  6  7  1  0
  7  8  1  0
  8  9  2  0
 10  9  1  0
 11 10  2  0
 12  7  2  0
 12 11  1  0
 13 17  1  0
 13 14  2  0
 16 15  1  6
 16 18  1  0
 17 16  1  0
 18 19  2  0
 20 21  1  0
 20 18  1  0
 22 23  1  0
 21 22  1  1
 24 23  1  0
 25 24  1  0
 26 25  1  0
 27 28  1  0
 27 21  1  0
 29 27  2  0
M  END
$$$$
