WAK.pdb
     RDKit          3D

 29 30  0  0  1  0  0  0  0  0999 V2000
    7.1899  -18.5290   26.1874 N   0  0  0  0  0  0  0  0  0  0  0  0
    7.2375  -17.6625   25.0456 C   0  0  1  0  0  0  0  0  0  0  0  0
    8.1651  -16.4863   25.2460 C   0  0  0  0  0  0  0  0  0  0  0  0
    7.6766  -15.5176   26.2408 C   0  0  0  0  0  0  0  0  0  0  0  0
    7.4392  -15.6824   27.5895 C   0  0  0  0  0  0  0  0  0  0  0  0
    7.0008  -14.5245   28.0974 N   0  0  0  0  0  0  0  0  0  0  0  0
    6.9318  -13.5812   27.1440 C   0  0  0  0  0  0  0  0  0  0  0  0
    6.5494  -12.2563   27.1593 C   0  0  0  0  0  0  0  0  0  0  0  0
    6.5948  -11.5454   25.9796 C   0  0  0  0  0  0  0  0  0  0  0  0
    7.0079  -12.1306   24.8155 C   0  0  0  0  0  0  0  0  0  0  0  0
    7.3865  -13.4607   24.8253 C   0  0  0  0  0  0  0  0  0  0  0  0
    7.3519  -14.1884   25.9766 C   0  0  0  0  0  0  0  0  0  0  0  0
    7.7130  -18.3896   23.8396 C   0  0  0  0  0  0  0  0  0  0  0  0
    8.6471  -19.2420   23.9018 O   0  0  0  0  0  0  0  0  0  0  0  0
    6.5327  -18.6466   20.2802 C   0  0  0  0  0  0  0  0  0  0  0  0
    7.6288  -18.6994   21.3313 C   0  0  2  0  0  0  0  0  0  0  0  0
    7.1394  -18.1563   22.5765 N   0  0  0  0  0  0  0  0  0  0  0  0
    8.8317  -18.0204   20.8426 C   0  0  0  0  0  0  0  0  0  0  0  0
    9.4130  -18.4729   19.8237 O   0  0  0  0  0  0  0  0  0  0  0  0
    9.3873  -16.8711   21.4546 N   0  0  0  0  0  0  0  0  0  0  0  0
   10.6401  -16.2462   21.0278 C   0  0  1  0  0  0  0  0  0  0  0  0
   10.2995  -14.8863   20.5061 C   0  0  0  0  0  0  0  0  0  0  0  0
    9.4872  -14.8487   19.2614 C   0  0  0  0  0  0  0  0  0  0  0  0
    9.1912  -13.4389   18.8120 C   0  0  0  0  0  0  0  0  0  0  0  0
    8.4191  -13.4072   17.5121 C   0  0  0  0  0  0  0  0  0  0  0  0
    8.0775  -12.0874   17.0807 N   0  0  0  0  0  0  0  0  0  0  0  0
   11.6379  -16.2733   22.1082 C   0  0  0  0  0  0  0  0  0  0  0  0
   11.2712  -16.6760   23.3759 O   0  0  0  0  0  0  0  0  0  0  0  0
   12.8515  -15.9315   21.9150 O   0  0  0  0  0  0  0  0  0  0  0  0
  2  1  1  1
  2 13  1  0
  3  2  1  0
  3  4  1  0
  4 12  1  0
  5  4  2  0
  5  6  1  0
  6  7  1  0
  7  8  1  0
  8  9  2  0
 10  9  1  0
 11 10  2  0
 12  7  2  0
 12 11  1  0
 13 17  1  0
 13 14  2  0
 16 15  1  6
 16 18  1  0
 17 16  1  0
 18 19  2  0
 20 21  1  0
 20 18  1  0
 22 23  1  0
 21 22  1  1
 24 23  1  0
 25 24  1  0
 26 25  1  0
 27 28  1  0
 27 21  1  0
 29 27  2  0
M  END
$$$$
