WAK.pdb
     RDKit          3D

 29 30  0  0  1  0  0  0  0  0999 V2000
    6.1590  -17.7162   24.6006 N   0  0  0  0  0  0  0  0  0  0  0  0
    6.6679  -16.4892   24.0599 C   0  0  1  0  0  0  0  0  0  0  0  0
    7.5310  -15.7334   25.0437 C   0  0  0  0  0  0  0  0  0  0  0  0
    6.7854  -14.7429   25.8371 C   0  0  0  0  0  0  0  0  0  0  0  0
    5.6401  -14.8977   26.5901 C   0  0  0  0  0  0  0  0  0  0  0  0
    5.3208  -13.7207   27.1409 N   0  0  0  0  0  0  0  0  0  0  0  0
    6.2061  -12.7738   26.7897 C   0  0  0  0  0  0  0  0  0  0  0  0
    6.3148  -11.4321   27.0889 C   0  0  0  0  0  0  0  0  0  0  0  0
    7.3685  -10.7226   26.5544 C   0  0  0  0  0  0  0  0  0  0  0  0
    8.2902  -11.3256   25.7451 C   0  0  0  0  0  0  0  0  0  0  0  0
    8.1600  -12.6726   25.4595 C   0  0  0  0  0  0  0  0  0  0  0  0
    7.1286  -13.3992   25.9737 C   0  0  0  0  0  0  0  0  0  0  0  0
    7.5007  -16.7387   22.8544 C   0  0  0  0  0  0  0  0  0  0  0  0
    8.2874  -17.7281   22.7823 O   0  0  0  0  0  0  0  0  0  0  0  0
    8.1727  -14.6802   19.7635 C   0  0  0  0  0  0  0  0  0  0  0  0
    8.3417  -15.9302   20.6107 C   0  0  2  0  0  0  0  0  0  0  0  0
    7.4455  -15.8796   21.7417 N   0  0  0  0  0  0  0  0  0  0  0  0
    9.7455  -16.0932   20.9979 C   0  0  0  0  0  0  0  0  0  0  0  0
   10.3099  -15.1702   21.6382 O   0  0  0  0  0  0  0  0  0  0  0  0
   10.5156  -17.2409   20.6917 N   0  0  0  0  0  0  0  0  0  0  0  0
   11.9179  -17.4073   21.0766 C   0  0  1  0  0  0  0  0  0  0  0  0
   12.0652  -18.7936   21.6186 C   0  0  0  0  0  0  0  0  0  0  0  0
   11.5251  -19.0216   22.9850 C   0  0  0  0  0  0  0  0  0  0  0  0
   11.7495  -20.4356   23.4619 C   0  0  0  0  0  0  0  0  0  0  0  0
   11.0395  -20.7141   24.7678 C   0  0  0  0  0  0  0  0  0  0  0  0
   11.0837  -22.0879   25.1621 N   0  0  0  0  0  0  0  0  0  0  0  0
   12.8147  -17.0700   19.9605 C   0  0  0  0  0  0  0  0  0  0  0  0
   14.1294  -16.7338   20.2094 O   0  0  0  0  0  0  0  0  0  0  0  0
   12.4160  -17.0754   18.7488 O   0  0  0  0  0  0  0  0  0  0  0  0
  2  1  1  1
  2 13  1  0
  3  2  1  0
  3  4  1  0
  4 12  1  0
  5  4  2  0
  5  6  1  0
  6  7  1  0
  7  8  1  0
  8  9  2  0
 10  9  1  0
 11 10  2  0
 12  7  2  0
 12 11  1  0
 13 17  1  0
 13 14  2  0
 16 15  1  1
 16 18  1  0
 17 16  1  0
 18 19  2  0
 20 21  1  0
 20 18  1  0
 22 23  1  0
 21 22  1  6
 24 23  1  0
 25 24  1  0
 26 25  1  0
 27 28  1  0
 27 21  1  0
 29 27  2  0
M  END
$$$$
