WAK.pdb
     RDKit          3D

 29 30  0  0  1  0  0  0  0  0999 V2000
    8.5312  -15.4181   22.9011 N   0  0  0  0  0  0  0  0  0  0  0  0
    9.4834  -15.8778   23.8701 C   0  0  1  0  0  0  0  0  0  0  0  0
    8.8558  -16.1544   25.2168 C   0  0  0  0  0  0  0  0  0  0  0  0
    7.6442  -15.3589   25.4732 C   0  0  0  0  0  0  0  0  0  0  0  0
    6.3337  -15.7672   25.6097 C   0  0  0  0  0  0  0  0  0  0  0  0
    5.5666  -14.6944   25.8367 N   0  0  0  0  0  0  0  0  0  0  0  0
    6.3074  -13.5745   25.8592 C   0  0  0  0  0  0  0  0  0  0  0  0
    5.9949  -12.2452   26.0517 C   0  0  0  0  0  0  0  0  0  0  0  0
    7.0140  -11.3182   26.0138 C   0  0  0  0  0  0  0  0  0  0  0  0
    8.3082  -11.6972   25.7913 C   0  0  0  0  0  0  0  0  0  0  0  0
    8.5968  -13.0363   25.6011 C   0  0  0  0  0  0  0  0  0  0  0  0
    7.6099  -13.9750   25.6331 C   0  0  0  0  0  0  0  0  0  0  0  0
   10.1336  -17.1388   23.4272 C   0  0  0  0  0  0  0  0  0  0  0  0
   10.8348  -17.8384   24.2157 O   0  0  0  0  0  0  0  0  0  0  0  0
   10.0352  -19.1582   20.2455 C   0  0  0  0  0  0  0  0  0  0  0  0
   10.6908  -18.7401   21.5509 C   0  0  2  0  0  0  0  0  0  0  0  0
    9.9933  -17.6048   22.1072 N   0  0  0  0  0  0  0  0  0  0  0  0
   12.1194  -18.4899   21.3424 C   0  0  0  0  0  0  0  0  0  0  0  0
   12.8247  -19.3925   20.8241 O   0  0  0  0  0  0  0  0  0  0  0  0
   12.7632  -17.2788   21.6929 N   0  0  0  0  0  0  0  0  0  0  0  0
   14.1926  -17.0306   21.4996 C   0  0  1  0  0  0  0  0  0  0  0  0
   14.3284  -15.6540   20.9307 C   0  0  0  0  0  0  0  0  0  0  0  0
   14.3707  -15.5613   19.4473 C   0  0  0  0  0  0  0  0  0  0  0  0
   14.6255  -14.1534   18.9676 C   0  0  0  0  0  0  0  0  0  0  0  0
   14.7297  -14.0768   17.4608 C   0  0  0  0  0  0  0  0  0  0  0  0
   15.0112  -12.7627   16.9723 N   0  0  0  0  0  0  0  0  0  0  0  0
   14.9429  -17.2748   22.7410 C   0  0  0  0  0  0  0  0  0  0  0  0
   14.2674  -17.4780   23.9267 O   0  0  0  0  0  0  0  0  0  0  0  0
   16.2179  -17.3052   22.7642 O   0  0  0  0  0  0  0  0  0  0  0  0
  2  1  1  6
  2 13  1  0
  3  2  1  0
  3  4  1  0
  4 12  1  0
  5  4  2  0
  5  6  1  0
  6  7  1  0
  7  8  1  0
  8  9  2  0
 10  9  1  0
 11 10  2  0
 12  7  2  0
 12 11  1  0
 13 17  1  0
 13 14  2  0
 16 15  1  6
 16 18  1  0
 17 16  1  0
 18 19  2  0
 20 21  1  0
 20 18  1  0
 22 23  1  0
 21 22  1  1
 24 23  1  0
 25 24  1  0
 26 25  1  0
 27 28  1  0
 27 21  1  0
 29 27  2  0
M  END
$$$$
