RMR.pdb
     RDKit          3D

 31 30  0  0  1  0  0  0  0  0999 V2000
   28.6580  -21.9151  -16.1337 N   0  0  0  0  0  0  0  0  0  0  0  0
   28.9799  -23.1418  -16.7532 C   0  0  0  0  0  0  0  0  0  0  0  0
   30.2143  -23.5720  -16.7358 N   0  0  0  0  0  0  0  0  0  0  0  0
   27.9545  -23.8903  -17.3867 N   0  0  0  0  0  0  0  0  0  0  0  0
   26.5813  -23.5272  -17.1311 C   0  0  0  0  0  0  0  0  0  0  0  0
   26.0631  -24.1171  -15.8441 C   0  0  0  0  0  0  0  0  0  0  0  0
   24.6591  -23.7123  -15.5341 C   0  0  0  0  0  0  0  0  0  0  0  0
   24.4404  -23.2687  -14.1073 C   0  0  2  0  0  0  0  0  0  0  0  0
   24.7429  -24.4487  -13.2790 N   0  0  0  0  0  0  0  0  0  0  0  0
   23.0254  -22.8758  -13.9518 C   0  0  0  0  0  0  0  0  0  0  0  0
   22.0727  -23.6915  -14.0220 O   0  0  0  0  0  0  0  0  0  0  0  0
   30.4254  -24.4588  -17.2232 C   0  0  0  0  0  0  0  0  0  0  0  0
   20.9956  -17.8719  -10.5926 S   0  0  0  0  0  0  0  0  0  0  0  0
   21.1825  -19.5062   -9.8362 C   0  0  0  0  0  0  0  0  0  0  0  0
   21.3607  -20.7290  -11.1489 C   0  0  0  0  0  0  0  0  0  0  0  0
   21.0858  -20.1278  -12.5038 C   0  0  2  0  0  0  0  0  0  0  0  0
   21.2362  -21.1468  -13.6018 N   0  0  0  0  0  0  0  0  0  0  0  0
   22.6322  -21.5077  -13.7050 C   0  0  0  0  0  0  0  0  0  0  0  0
   20.6810  -20.6652  -14.8908 O   0  0  0  0  0  0  0  0  0  0  0  0
   21.4486  -20.2152  -15.7783 N   0  0  0  0  0  0  0  0  0  0  0  0
   24.1296  -22.0359  -18.7288 C   0  0  0  0  0  0  0  0  0  0  0  0
   23.1379  -22.9624  -18.2952 N   0  0  0  0  0  0  0  0  0  0  0  0
   23.4743  -24.0590  -17.6995 N   0  0  0  0  0  0  0  0  0  0  0  0
   21.7512  -22.7191  -18.5035 C   0  0  0  0  0  0  0  0  0  0  0  0
   21.2215  -21.5336  -19.1220 C   0  0  0  0  0  0  0  0  0  0  0  0
   20.5928  -20.5679  -18.1652 C   0  0  0  0  0  0  0  0  0  0  0  0
   19.2572  -21.0158  -17.6757 C   0  0  2  0  0  0  0  0  0  0  0  0
   18.7099  -20.3954  -16.4670 N   0  0  0  0  0  0  0  0  0  0  0  0
   19.2725  -20.6846  -15.1920 C   0  0  0  0  0  0  0  0  0  0  0  0
   17.1967  -20.4904  -16.4257 O   0  0  0  0  0  0  0  0  0  0  0  0
   16.4910  -19.6556  -17.2487 O   0  0  0  0  0  0  0  0  0  0  0  0
  2  3  2  0
  2  1  1  0
  4  2  1  0
  5  6  1  0
  5  4  1  0
  7  8  1  0
  7  6  1  0
  8  9  1  1
 10  8  1  0
 10 17  1  0
 11 10  2  0
 13 12  1  0
 13 14  1  0
 14 15  1  0
 16 15  1  1
 16 17  1  0
 18 16  1  0
 19 18  2  0
 20 21  1  0
 21 23  1  0
 21 22  2  0
 23 24  1  0
 24 25  1  0
 25 26  1  0
 27 26  1  6
 27 28  1  0
 27 29  1  0
 28 18  1  0
 29 31  2  0
 29 30  1  0
M  END
$$$$
