RMR.pdb
     RDKit          3D

 31 30  0  0  1  0  0  0  0  0999 V2000
   26.8318  -18.1678  -19.8872 N   0  0  0  0  0  0  0  0  0  0  0  0
   28.1723  -17.7619  -19.7123 C   0  0  0  0  0  0  0  0  0  0  0  0
   29.0210  -17.8871  -20.6988 N   0  0  0  0  0  0  0  0  0  0  0  0
   28.5776  -17.2225  -18.4641 N   0  0  0  0  0  0  0  0  0  0  0  0
   27.6176  -17.1868  -17.3871 C   0  0  0  0  0  0  0  0  0  0  0  0
   27.4571  -18.5285  -16.7184 C   0  0  0  0  0  0  0  0  0  0  0  0
   28.4327  -18.7544  -15.6100 C   0  0  0  0  0  0  0  0  0  0  0  0
   28.9185  -20.1792  -15.4899 C   0  0  2  0  0  0  0  0  0  0  0  0
   28.5029  -20.8417  -16.7382 N   0  0  0  0  0  0  0  0  0  0  0  0
   28.2552  -20.8026  -14.3270 C   0  0  0  0  0  0  0  0  0  0  0  0
   27.1914  -21.4648  -14.4145 O   0  0  0  0  0  0  0  0  0  0  0  0
   30.0042  -17.6166  -20.5294 C   0  0  0  0  0  0  0  0  0  0  0  0
   33.1961  -22.0974  -10.5573 S   0  0  0  0  0  0  0  0  0  0  0  0
   31.5173  -22.0387   -9.8821 C   0  0  0  0  0  0  0  0  0  0  0  0
   30.3651  -21.7348  -11.2348 C   0  0  0  0  0  0  0  0  0  0  0  0
   28.9773  -21.4442  -10.7225 C   0  0  2  0  0  0  0  0  0  0  0  0
   28.0245  -21.1407  -11.8480 N   0  0  0  0  0  0  0  0  0  0  0  0
   28.7901  -20.6929  -12.9894 C   0  0  0  0  0  0  0  0  0  0  0  0
   26.9819  -20.1633  -11.4492 O   0  0  0  0  0  0  0  0  0  0  0  0
   26.8838  -19.0654  -12.0529 N   0  0  0  0  0  0  0  0  0  0  0  0
   20.4162  -22.4752  -15.2736 C   0  0  0  0  0  0  0  0  0  0  0  0
   20.0147  -21.2905  -14.5915 N   0  0  0  0  0  0  0  0  0  0  0  0
   19.0194  -20.5865  -15.0210 N   0  0  0  0  0  0  0  0  0  0  0  0
   20.6914  -20.8394  -13.4235 C   0  0  0  0  0  0  0  0  0  0  0  0
   21.8419  -21.4875  -12.8536 C   0  0  0  0  0  0  0  0  0  0  0  0
   22.4445  -20.7617  -11.6902 C   0  0  0  0  0  0  0  0  0  0  0  0
   23.9263  -20.9107  -11.6123 C   0  0  2  0  0  0  0  0  0  0  0  0
   24.6348  -20.2892  -10.4910 N   0  0  0  0  0  0  0  0  0  0  0  0
   26.0488  -20.4073  -10.3792 C   0  0  0  0  0  0  0  0  0  0  0  0
   23.9596  -20.5905   -9.1667 O   0  0  0  0  0  0  0  0  0  0  0  0
   23.0191  -19.7011   -8.7231 O   0  0  0  0  0  0  0  0  0  0  0  0
  2  3  2  0
  2  1  1  0
  4  2  1  0
  5  6  1  0
  5  4  1  0
  7  8  1  0
  7  6  1  0
  8  9  1  6
 10  8  1  0
 10 17  1  0
 11 10  2  0
 13 12  1  0
 13 14  1  0
 14 15  1  0
 16 15  1  6
 16 17  1  0
 18 16  1  0
 19 18  2  0
 20 21  1  0
 21 23  1  0
 21 22  2  0
 23 24  1  0
 24 25  1  0
 25 26  1  0
 27 26  1  6
 27 28  1  0
 27 29  1  0
 28 18  1  0
 29 31  2  0
 29 30  1  0
M  END
$$$$
