RMR.pdb
     RDKit          3D

 31 30  0  0  1  0  0  0  0  0999 V2000
   32.0391  -21.8562   -9.4165 N   0  0  0  0  0  0  0  0  0  0  0  0
   32.0984  -22.0387  -10.8148 C   0  0  0  0  0  0  0  0  0  0  0  0
   33.1875  -22.5132  -11.3606 N   0  0  0  0  0  0  0  0  0  0  0  0
   30.9707  -21.7029  -11.6078 N   0  0  0  0  0  0  0  0  0  0  0  0
   29.6818  -21.6120  -10.9649 C   0  0  0  0  0  0  0  0  0  0  0  0
   28.7198  -20.7402  -11.7316 C   0  0  0  0  0  0  0  0  0  0  0  0
   27.3708  -20.6519  -11.0963 C   0  0  0  0  0  0  0  0  0  0  0  0
   26.3768  -21.6694  -11.6033 C   0  0  2  0  0  0  0  0  0  0  0  0
   27.0053  -22.2737  -12.7906 N   0  0  0  0  0  0  0  0  0  0  0  0
   25.1350  -20.9632  -11.9776 C   0  0  0  0  0  0  0  0  0  0  0  0
   24.4442  -20.3051  -11.1604 O   0  0  0  0  0  0  0  0  0  0  0  0
   33.2112  -22.6107  -12.3894 C   0  0  0  0  0  0  0  0  0  0  0  0
   23.5988  -18.0455  -17.5096 S   0  0  0  0  0  0  0  0  0  0  0  0
   21.9861  -18.7832  -17.1456 C   0  0  0  0  0  0  0  0  0  0  0  0
   21.9872  -19.3491  -15.4339 C   0  0  0  0  0  0  0  0  0  0  0  0
   23.3224  -19.9322  -15.0466 C   0  0  1  0  0  0  0  0  0  0  0  0
   23.3151  -20.4365  -13.6280 N   0  0  0  0  0  0  0  0  0  0  0  0
   24.6204  -20.9802  -13.3275 C   0  0  0  0  0  0  0  0  0  0  0  0
   22.2270  -21.4165  -13.3890 O   0  0  0  0  0  0  0  0  0  0  0  0
   22.2235  -22.5150  -13.9993 N   0  0  0  0  0  0  0  0  0  0  0  0
   16.3886  -25.6301   -9.6902 C   0  0  0  0  0  0  0  0  0  0  0  0
   17.4020  -25.4491   -8.7052 N   0  0  0  0  0  0  0  0  0  0  0  0
   17.8106  -26.4436   -7.9879 N   0  0  0  0  0  0  0  0  0  0  0  0
   17.9946  -24.1761   -8.4734 C   0  0  0  0  0  0  0  0  0  0  0  0
   17.7581  -23.0132   -9.2860 C   0  0  0  0  0  0  0  0  0  0  0  0
   18.3373  -23.0968  -10.6647 C   0  0  0  0  0  0  0  0  0  0  0  0
   19.4467  -22.1267  -10.8925 C   0  0  2  0  0  0  0  0  0  0  0  0
   20.0781  -22.0821  -12.2134 N   0  0  0  0  0  0  0  0  0  0  0  0
   21.1434  -21.1741  -12.4714 C   0  0  0  0  0  0  0  0  0  0  0  0
   19.0472  -22.0377  -13.3250 O   0  0  0  0  0  0  0  0  0  0  0  0
   18.3782  -23.1969  -13.6096 O   0  0  0  0  0  0  0  0  0  0  0  0
  2  3  2  0
  2  1  1  0
  4  2  1  0
  5  6  1  0
  5  4  1  0
  7  8  1  0
  7  6  1  0
  8  9  1  6
 10  8  1  0
 10 17  1  0
 11 10  2  0
 13 12  1  0
 13 14  1  0
 14 15  1  0
 16 15  1  1
 16 17  1  0
 18 16  1  0
 19 18  2  0
 20 21  1  0
 21 23  1  0
 21 22  2  0
 23 24  1  0
 24 25  1  0
 25 26  1  0
 27 26  1  1
 27 28  1  0
 27 29  1  0
 28 18  1  0
 29 31  2  0
 29 30  1  0
M  END
$$$$
