RMR.pdb
     RDKit          3D

 31 30  0  0  1  0  0  0  0  0999 V2000
   31.2624  -25.0898  -15.6798 N   0  0  0  0  0  0  0  0  0  0  0  0
   31.3759  -24.6360  -17.0115 C   0  0  0  0  0  0  0  0  0  0  0  0
   31.4877  -25.5025  -17.9840 N   0  0  0  0  0  0  0  0  0  0  0  0
   31.3665  -23.2415  -17.2734 N   0  0  0  0  0  0  0  0  0  0  0  0
   30.6651  -22.3753  -16.3565 C   0  0  0  0  0  0  0  0  0  0  0  0
   29.2057  -22.7331  -16.2336 C   0  0  0  0  0  0  0  0  0  0  0  0
   28.6553  -22.4990  -14.8648 C   0  0  0  0  0  0  0  0  0  0  0  0
   27.7398  -21.3028  -14.7589 C   0  0  2  0  0  0  0  0  0  0  0  0
   28.6111  -20.1735  -14.3908 N   0  0  0  0  0  0  0  0  0  0  0  0
   26.7518  -21.5635  -13.6927 C   0  0  0  0  0  0  0  0  0  0  0  0
   25.8810  -22.4659  -13.7668 O   0  0  0  0  0  0  0  0  0  0  0  0
   31.7402  -25.1486  -18.9218 C   0  0  0  0  0  0  0  0  0  0  0  0
   29.3726  -20.5043   -7.7061 S   0  0  0  0  0  0  0  0  0  0  0  0
   27.7407  -19.9051   -8.2117 C   0  0  0  0  0  0  0  0  0  0  0  0
   27.2740  -20.7346   -9.7428 C   0  0  0  0  0  0  0  0  0  0  0  0
   25.9621  -20.2151  -10.2738 C   0  0  2  0  0  0  0  0  0  0  0  0
   25.5897  -20.8785  -11.5729 N   0  0  0  0  0  0  0  0  0  0  0  0
   26.7166  -20.7886  -12.4739 C   0  0  0  0  0  0  0  0  0  0  0  0
   24.3522  -20.3059  -12.1581 O   0  0  0  0  0  0  0  0  0  0  0  0
   24.4220  -19.5348  -13.1480 N   0  0  0  0  0  0  0  0  0  0  0  0
   21.1199  -24.6862  -17.9038 C   0  0  0  0  0  0  0  0  0  0  0  0
   20.6726  -23.3338  -17.9342 N   0  0  0  0  0  0  0  0  0  0  0  0
   20.3233  -22.7788  -19.0480 N   0  0  0  0  0  0  0  0  0  0  0  0
   20.5982  -22.5484  -16.7496 C   0  0  0  0  0  0  0  0  0  0  0  0
   20.8886  -23.0434  -15.4309 C   0  0  0  0  0  0  0  0  0  0  0  0
   20.6983  -22.0359  -14.3390 C   0  0  0  0  0  0  0  0  0  0  0  0
   21.9286  -21.8165  -13.5252 C   0  0  2  0  0  0  0  0  0  0  0  0
   21.8854  -20.8320  -12.4415 N   0  0  0  0  0  0  0  0  0  0  0  0
   23.0380  -20.5912  -11.6420 C   0  0  0  0  0  0  0  0  0  0  0  0
   20.6523  -21.0069  -11.5758 O   0  0  0  0  0  0  0  0  0  0  0  0
   19.4430  -21.0842  -12.2113 O   0  0  0  0  0  0  0  0  0  0  0  0
  2  3  2  0
  2  1  1  0
  4  2  1  0
  5  6  1  0
  5  4  1  0
  7  8  1  0
  7  6  1  0
  8  9  1  1
 10  8  1  0
 10 17  1  0
 11 10  2  0
 13 12  1  0
 13 14  1  0
 14 15  1  0
 16 15  1  1
 16 17  1  0
 18 16  1  0
 19 18  2  0
 20 21  1  0
 21 23  1  0
 21 22  2  0
 23 24  1  0
 24 25  1  0
 25 26  1  0
 27 26  1  6
 27 28  1  0
 27 29  1  0
 28 18  1  0
 29 31  2  0
 29 30  1  0
M  END
$$$$
