RMR.pdb
     RDKit          3D

 31 30  0  0  1  0  0  0  0  0999 V2000
   24.3833  -18.7397  -17.9680 N   0  0  0  0  0  0  0  0  0  0  0  0
   23.9276  -17.9485  -16.8916 C   0  0  0  0  0  0  0  0  0  0  0  0
   22.6529  -17.9205  -16.6023 N   0  0  0  0  0  0  0  0  0  0  0  0
   24.8641  -17.1941  -16.1386 N   0  0  0  0  0  0  0  0  0  0  0  0
   26.2689  -17.3634  -16.4223 C   0  0  0  0  0  0  0  0  0  0  0  0
   26.8333  -18.6128  -15.7950 C   0  0  0  0  0  0  0  0  0  0  0  0
   27.8869  -18.3346  -14.7734 C   0  0  0  0  0  0  0  0  0  0  0  0
   28.5461  -19.5698  -14.2076 C   0  0  2  0  0  0  0  0  0  0  0  0
   28.8740  -20.4083  -15.3736 N   0  0  0  0  0  0  0  0  0  0  0  0
   27.5763  -20.2573  -13.3315 C   0  0  0  0  0  0  0  0  0  0  0  0
   26.8534  -21.2091  -13.7182 O   0  0  0  0  0  0  0  0  0  0  0  0
   22.3402  -17.2821  -15.8519 C   0  0  0  0  0  0  0  0  0  0  0  0
   27.4526  -19.5163   -6.7357 S   0  0  0  0  0  0  0  0  0  0  0  0
   25.7687  -20.0820   -7.0850 C   0  0  0  0  0  0  0  0  0  0  0  0
   25.7442  -20.8343   -8.7231 C   0  0  0  0  0  0  0  0  0  0  0  0
   26.6235  -20.0815   -9.6890 C   0  0  1  0  0  0  0  0  0  0  0  0
   26.5571  -20.6715  -11.0725 N   0  0  0  0  0  0  0  0  0  0  0  0
   27.3882  -19.8784  -11.9500 C   0  0  0  0  0  0  0  0  0  0  0  0
   25.1623  -20.7841  -11.5656 O   0  0  0  0  0  0  0  0  0  0  0  0
   24.5161  -19.7498  -11.8690 N   0  0  0  0  0  0  0  0  0  0  0  0
   18.6129  -24.6708  -14.2279 C   0  0  0  0  0  0  0  0  0  0  0  0
   19.3513  -25.1102  -15.3644 N   0  0  0  0  0  0  0  0  0  0  0  0
   18.7628  -25.3074  -16.4981 N   0  0  0  0  0  0  0  0  0  0  0  0
   20.7523  -25.3504  -15.2934 C   0  0  0  0  0  0  0  0  0  0  0  0
   21.5486  -25.1522  -14.1123 C   0  0  0  0  0  0  0  0  0  0  0  0
   21.8653  -23.7186  -13.8161 C   0  0  0  0  0  0  0  0  0  0  0  0
   22.6633  -23.5418  -12.5688 C   0  0  2  0  0  0  0  0  0  0  0  0
   23.1741  -22.2072  -12.2471 N   0  0  0  0  0  0  0  0  0  0  0  0
   24.4869  -22.0469  -11.7211 C   0  0  0  0  0  0  0  0  0  0  0  0
   22.1681  -21.4008  -11.4483 O   0  0  0  0  0  0  0  0  0  0  0  0
   21.1781  -20.7625  -12.1446 O   0  0  0  0  0  0  0  0  0  0  0  0
  2  3  2  0
  2  1  1  0
  4  2  1  0
  5  6  1  0
  5  4  1  0
  7  8  1  0
  7  6  1  0
  8  9  1  6
 10  8  1  0
 10 17  1  0
 11 10  2  0
 13 12  1  0
 13 14  1  0
 14 15  1  0
 16 15  1  1
 16 17  1  0
 18 16  1  0
 19 18  2  0
 20 21  1  0
 21 23  1  0
 21 22  2  0
 23 24  1  0
 24 25  1  0
 25 26  1  0
 27 26  1  6
 27 28  1  0
 27 29  1  0
 28 18  1  0
 29 31  2  0
 29 30  1  0
M  END
$$$$
