RMR.pdb
     RDKit          3D

 31 30  0  0  1  0  0  0  0  0999 V2000
   18.9100  -24.3104   -7.0373 N   0  0  0  0  0  0  0  0  0  0  0  0
   17.7552  -24.4916   -7.8285 C   0  0  0  0  0  0  0  0  0  0  0  0
   16.5923  -24.6460   -7.2515 N   0  0  0  0  0  0  0  0  0  0  0  0
   17.8764  -24.5029   -9.2421 N   0  0  0  0  0  0  0  0  0  0  0  0
   18.7492  -23.5365   -9.8643 C   0  0  0  0  0  0  0  0  0  0  0  0
   18.8035  -22.2382   -9.0997 C   0  0  0  0  0  0  0  0  0  0  0  0
   19.7663  -21.2538   -9.6786 C   0  0  0  0  0  0  0  0  0  0  0  0
   20.8821  -21.8752  -10.4843 C   0  0  2  0  0  0  0  0  0  0  0  0
   21.1448  -23.1786   -9.8500 N   0  0  0  0  0  0  0  0  0  0  0  0
   22.0701  -21.0033  -10.3874 C   0  0  0  0  0  0  0  0  0  0  0  0
   22.0782  -19.8061  -10.7674 O   0  0  0  0  0  0  0  0  0  0  0  0
   15.7808  -24.8735   -7.8501 C   0  0  0  0  0  0  0  0  0  0  0  0
   27.4345  -19.3476   -6.2985 S   0  0  0  0  0  0  0  0  0  0  0  0
   27.8296  -20.5928   -7.5520 C   0  0  0  0  0  0  0  0  0  0  0  0
   26.7810  -20.3111   -8.9912 C   0  0  0  0  0  0  0  0  0  0  0  0
   25.4766  -21.0585   -8.8780 C   0  0  1  0  0  0  0  0  0  0  0  0
   24.5323  -20.6950   -9.9928 N   0  0  0  0  0  0  0  0  0  0  0  0
   23.3230  -21.4724   -9.8418 C   0  0  0  0  0  0  0  0  0  0  0  0
   25.1523  -20.8695  -11.3295 O   0  0  0  0  0  0  0  0  0  0  0  0
   25.3377  -22.0232  -11.7919 N   0  0  0  0  0  0  0  0  0  0  0  0
   30.4736  -24.1984  -15.7275 C   0  0  0  0  0  0  0  0  0  0  0  0
   30.3264  -23.1252  -16.6531 N   0  0  0  0  0  0  0  0  0  0  0  0
   30.6604  -23.2723  -17.8930 N   0  0  0  0  0  0  0  0  0  0  0  0
   29.8142  -21.8603  -16.2494 C   0  0  0  0  0  0  0  0  0  0  0  0
   29.2943  -21.5786  -14.9384 C   0  0  0  0  0  0  0  0  0  0  0  0
   27.9661  -20.8863  -14.9381 C   0  0  0  0  0  0  0  0  0  0  0  0
   27.4510  -20.6104  -13.5660 C   0  0  1  0  0  0  0  0  0  0  0  0
   26.1886  -19.8812  -13.4251 N   0  0  0  0  0  0  0  0  0  0  0  0
   25.5655  -19.7609  -12.1511 C   0  0  0  0  0  0  0  0  0  0  0  0
   25.1831  -20.2938  -14.4831 O   0  0  0  0  0  0  0  0  0  0  0  0
   25.5955  -20.2670  -15.7876 O   0  0  0  0  0  0  0  0  0  0  0  0
  2  3  2  0
  2  1  1  0
  4  2  1  0
  5  6  1  0
  5  4  1  0
  7  8  1  0
  7  6  1  0
  8  9  1  1
 10  8  1  0
 10 17  1  0
 11 10  2  0
 13 12  1  0
 13 14  1  0
 14 15  1  0
 16 15  1  1
 16 17  1  0
 18 16  1  0
 19 18  2  0
 20 21  1  0
 21 23  1  0
 21 22  2  0
 23 24  1  0
 24 25  1  0
 25 26  1  0
 27 26  1  1
 27 28  1  0
 27 29  1  0
 28 18  1  0
 29 31  2  0
 29 30  1  0
M  END
$$$$
