RMR.pdb
     RDKit          3D

 31 30  0  0  1  0  0  0  0  0999 V2000
   21.1040  -10.8586  -15.7930 N   0  0  0  0  0  0  0  0  0  0  0  0
   19.9502  -11.4706  -16.3282 C   0  0  0  0  0  0  0  0  0  0  0  0
   20.0731  -12.3969  -17.2426 N   0  0  0  0  0  0  0  0  0  0  0  0
   18.6714  -11.0690  -15.8628 N   0  0  0  0  0  0  0  0  0  0  0  0
   18.6024  -10.1132  -14.7837 C   0  0  0  0  0  0  0  0  0  0  0  0
   17.9065  -10.6711  -13.5682 C   0  0  0  0  0  0  0  0  0  0  0  0
   17.7025   -9.6581  -12.4895 C   0  0  0  0  0  0  0  0  0  0  0  0
   16.8990  -10.1565  -11.3122 C   0  0  2  0  0  0  0  0  0  0  0  0
   16.1528  -11.3239  -11.8127 N   0  0  0  0  0  0  0  0  0  0  0  0
   15.9693   -9.0877  -10.8949 C   0  0  0  0  0  0  0  0  0  0  0  0
   14.9126   -8.8130  -11.5161 O   0  0  0  0  0  0  0  0  0  0  0  0
   19.2134  -12.8588  -17.5831 C   0  0  0  0  0  0  0  0  0  0  0  0
   11.8137   -5.6612   -5.4931 S   0  0  0  0  0  0  0  0  0  0  0  0
   12.9143   -7.0040   -6.0063 C   0  0  0  0  0  0  0  0  0  0  0  0
   13.6526   -6.5666   -7.5917 C   0  0  0  0  0  0  0  0  0  0  0  0
   14.6794   -7.5834   -8.0213 C   0  0  2  0  0  0  0  0  0  0  0  0
   15.2894   -7.2260   -9.3505 N   0  0  0  0  0  0  0  0  0  0  0  0
   16.2132   -8.2719   -9.7277 C   0  0  0  0  0  0  0  0  0  0  0  0
   15.9298   -5.8878   -9.3297 O   0  0  0  0  0  0  0  0  0  0  0  0
   17.0246   -5.7227   -8.7352 N   0  0  0  0  0  0  0  0  0  0  0  0
   15.7815    1.1281  -14.8687 C   0  0  0  0  0  0  0  0  0  0  0  0
   17.0286    0.8779  -14.2267 N   0  0  0  0  0  0  0  0  0  0  0  0
   18.1231    1.3862  -14.6897 N   0  0  0  0  0  0  0  0  0  0  0  0
   17.1158    0.0624  -13.0636 C   0  0  0  0  0  0  0  0  0  0  0  0
   15.9851   -0.3420  -12.2721 C   0  0  0  0  0  0  0  0  0  0  0  0
   16.3351   -1.1791  -11.0805 C   0  0  0  0  0  0  0  0  0  0  0  0
   15.7031   -2.5296  -11.1088 C   0  0  2  0  0  0  0  0  0  0  0  0
   15.9325   -3.4342   -9.9799 N   0  0  0  0  0  0  0  0  0  0  0  0
   15.3523   -4.7339   -9.9700 C   0  0  0  0  0  0  0  0  0  0  0  0
   15.7191   -2.7355   -8.6507 O   0  0  0  0  0  0  0  0  0  0  0  0
   16.6621   -1.8240   -8.2603 O   0  0  0  0  0  0  0  0  0  0  0  0
  2  3  2  0
  2  1  1  0
  4  2  1  0
  5  6  1  0
  5  4  1  0
  7  8  1  0
  7  6  1  0
  8  9  1  6
 10  8  1  0
 10 17  1  0
 11 10  2  0
 13 12  1  0
 13 14  1  0
 14 15  1  0
 16 15  1  6
 16 17  1  0
 18 16  1  0
 19 18  2  0
 20 21  1  0
 21 23  1  0
 21 22  2  0
 23 24  1  0
 24 25  1  0
 25 26  1  0
 27 26  1  6
 27 28  1  0
 27 29  1  0
 28 18  1  0
 29 31  2  0
 29 30  1  0
M  END
$$$$
