RMR.pdb
     RDKit          3D

 31 30  0  0  1  0  0  0  0  0999 V2000
   30.4656  -18.8670  -18.5657 N   0  0  0  0  0  0  0  0  0  0  0  0
   29.7948  -17.6549  -18.2951 C   0  0  0  0  0  0  0  0  0  0  0  0
   29.8439  -16.6793  -19.1640 N   0  0  0  0  0  0  0  0  0  0  0  0
   29.0754  -17.5152  -17.0801 N   0  0  0  0  0  0  0  0  0  0  0  0
   28.4219  -18.6791  -16.5313 C   0  0  0  0  0  0  0  0  0  0  0  0
   27.1036  -18.9661  -17.2041 C   0  0  0  0  0  0  0  0  0  0  0  0
   26.4200  -20.1804  -16.6660 C   0  0  0  0  0  0  0  0  0  0  0  0
   27.2731  -21.0162  -15.7419 C   0  0  2  0  0  0  0  0  0  0  0  0
   27.6848  -22.1851  -16.5384 N   0  0  0  0  0  0  0  0  0  0  0  0
   26.4446  -21.4374  -14.5943 C   0  0  0  0  0  0  0  0  0  0  0  0
   25.7004  -22.4491  -14.6170 O   0  0  0  0  0  0  0  0  0  0  0  0
   29.2939  -15.8266  -18.9668 C   0  0  0  0  0  0  0  0  0  0  0  0
   25.0412  -20.8100   -6.8584 S   0  0  0  0  0  0  0  0  0  0  0  0
   26.0154  -20.2050   -8.2594 C   0  0  0  0  0  0  0  0  0  0  0  0
   25.3279  -20.8943   -9.7766 C   0  0  0  0  0  0  0  0  0  0  0  0
   26.1982  -20.5833  -10.9677 C   0  0  1  0  0  0  0  0  0  0  0  0
   25.6228  -21.1529  -12.2370 N   0  0  0  0  0  0  0  0  0  0  0  0
   26.4313  -20.7056  -13.3487 C   0  0  0  0  0  0  0  0  0  0  0  0
   24.1900  -20.8063  -12.4057 O   0  0  0  0  0  0  0  0  0  0  0  0
   23.8560  -19.6276  -12.6861 N   0  0  0  0  0  0  0  0  0  0  0  0
   17.1484  -26.1029  -12.6496 C   0  0  0  0  0  0  0  0  0  0  0  0
   18.2498  -25.7705  -13.4902 N   0  0  0  0  0  0  0  0  0  0  0  0
   18.7085  -26.6239  -14.3456 N   0  0  0  0  0  0  0  0  0  0  0  0
   18.8834  -24.4983  -13.4172 C   0  0  0  0  0  0  0  0  0  0  0  0
   18.4206  -23.4093  -12.5997 C   0  0  0  0  0  0  0  0  0  0  0  0
   19.3185  -22.2105  -12.6044 C   0  0  0  0  0  0  0  0  0  0  0  0
   20.7637  -22.5622  -12.4970 C   0  0  1  0  0  0  0  0  0  0  0  0
   21.7423  -21.4779  -12.3874 N   0  0  0  0  0  0  0  0  0  0  0  0
   23.1296  -21.7706  -12.2627 C   0  0  0  0  0  0  0  0  0  0  0  0
   21.3142  -20.4388  -11.3687 O   0  0  0  0  0  0  0  0  0  0  0  0
   20.4102  -19.4951  -11.7742 O   0  0  0  0  0  0  0  0  0  0  0  0
  2  3  2  0
  2  1  1  0
  4  2  1  0
  5  6  1  0
  5  4  1  0
  7  8  1  0
  7  6  1  0
  8  9  1  6
 10  8  1  0
 10 17  1  0
 11 10  2  0
 13 12  1  0
 13 14  1  0
 14 15  1  0
 16 15  1  1
 16 17  1  0
 18 16  1  0
 19 18  2  0
 20 21  1  0
 21 23  1  0
 21 22  2  0
 23 24  1  0
 24 25  1  0
 25 26  1  0
 27 26  1  6
 27 28  1  0
 27 29  1  0
 28 18  1  0
 29 31  2  0
 29 30  1  0
M  END
$$$$
