RMR.pdb
     RDKit          3D

 31 30  0  0  1  0  0  0  0  0999 V2000
   26.7876  -25.6592  -16.1401 N   0  0  0  0  0  0  0  0  0  0  0  0
   25.8464  -25.7194  -17.1902 C   0  0  0  0  0  0  0  0  0  0  0  0
   25.9415  -26.6609  -18.0923 N   0  0  0  0  0  0  0  0  0  0  0  0
   24.8088  -24.7534  -17.2494 N   0  0  0  0  0  0  0  0  0  0  0  0
   24.5251  -23.9770  -16.0664 C   0  0  0  0  0  0  0  0  0  0  0  0
   25.3380  -22.7088  -16.0053 C   0  0  0  0  0  0  0  0  0  0  0  0
   25.0035  -21.8510  -14.8290 C   0  0  0  0  0  0  0  0  0  0  0  0
   23.8166  -20.9416  -15.0400 C   0  0  2  0  0  0  0  0  0  0  0  0
   24.3833  -19.6480  -15.4591 N   0  0  0  0  0  0  0  0  0  0  0  0
   23.1010  -20.8018  -13.7558 C   0  0  0  0  0  0  0  0  0  0  0  0
   23.5587  -20.1579  -12.7791 O   0  0  0  0  0  0  0  0  0  0  0  0
   25.2662  -26.6523  -18.8748 C   0  0  0  0  0  0  0  0  0  0  0  0
   18.5840  -17.3682  -14.4926 S   0  0  0  0  0  0  0  0  0  0  0  0
   18.9841  -17.1973  -12.7351 C   0  0  0  0  0  0  0  0  0  0  0  0
   19.5187  -18.8014  -12.1097 C   0  0  0  0  0  0  0  0  0  0  0  0
   20.5361  -19.4380  -13.0221 C   0  0  1  0  0  0  0  0  0  0  0  0
   20.8829  -20.8333  -12.5757 N   0  0  0  0  0  0  0  0  0  0  0  0
   21.8073  -21.4039  -13.5294 C   0  0  0  0  0  0  0  0  0  0  0  0
   19.6761  -21.6755  -12.3861 O   0  0  0  0  0  0  0  0  0  0  0  0
   18.8490  -21.8107  -13.3226 N   0  0  0  0  0  0  0  0  0  0  0  0
   18.9643  -26.0419   -6.8610 C   0  0  0  0  0  0  0  0  0  0  0  0
   17.8107  -25.4843   -6.2379 N   0  0  0  0  0  0  0  0  0  0  0  0
   16.9653  -26.2399   -5.6173 N   0  0  0  0  0  0  0  0  0  0  0  0
   17.5460  -24.0866   -6.2786 C   0  0  0  0  0  0  0  0  0  0  0  0
   17.4319  -23.3193   -7.4897 C   0  0  0  0  0  0  0  0  0  0  0  0
   18.5854  -23.4799   -8.4316 C   0  0  0  0  0  0  0  0  0  0  0  0
   18.1889  -24.0571   -9.7483 C   0  0  1  0  0  0  0  0  0  0  0  0
   18.2599  -23.2043  -10.9370 N   0  0  0  0  0  0  0  0  0  0  0  0
   19.3899  -22.3668  -11.1552 C   0  0  0  0  0  0  0  0  0  0  0  0
   16.9685  -22.4391  -11.1544 O   0  0  0  0  0  0  0  0  0  0  0  0
   15.8273  -23.1707  -11.3412 O   0  0  0  0  0  0  0  0  0  0  0  0
  2  3  2  0
  2  1  1  0
  4  2  1  0
  5  6  1  0
  5  4  1  0
  7  8  1  0
  7  6  1  0
  8  9  1  1
 10  8  1  0
 10 17  1  0
 11 10  2  0
 13 12  1  0
 13 14  1  0
 14 15  1  0
 16 15  1  1
 16 17  1  0
 18 16  1  0
 19 18  2  0
 20 21  1  0
 21 23  1  0
 21 22  2  0
 23 24  1  0
 24 25  1  0
 25 26  1  0
 27 26  1  6
 27 28  1  0
 27 29  1  0
 28 18  1  0
 29 31  2  0
 29 30  1  0
M  END
$$$$
