RMR.pdb
     RDKit          3D

 31 30  0  0  1  0  0  0  0  0999 V2000
   21.1674  -31.6258  -10.0686 N   0  0  0  0  0  0  0  0  0  0  0  0
   22.4967  -31.1608  -10.1631 C   0  0  0  0  0  0  0  0  0  0  0  0
   23.4756  -31.9015   -9.7134 N   0  0  0  0  0  0  0  0  0  0  0  0
   22.7492  -29.8925  -10.7469 N   0  0  0  0  0  0  0  0  0  0  0  0
   21.6262  -29.1159  -11.2145 C   0  0  0  0  0  0  0  0  0  0  0  0
   20.7805  -28.5924  -10.0815 C   0  0  0  0  0  0  0  0  0  0  0  0
   19.6739  -27.6984  -10.5369 C   0  0  0  0  0  0  0  0  0  0  0  0
   18.8317  -27.1322   -9.4187 C   0  0  2  0  0  0  0  0  0  0  0  0
   17.6292  -27.9815   -9.3648 N   0  0  0  0  0  0  0  0  0  0  0  0
   18.4694  -25.7429   -9.7641 C   0  0  0  0  0  0  0  0  0  0  0  0
   17.4228  -25.4393  -10.3890 O   0  0  0  0  0  0  0  0  0  0  0  0
   24.4417  -31.5557   -9.8382 C   0  0  0  0  0  0  0  0  0  0  0  0
   20.5789  -18.1119   -9.7556 S   0  0  0  0  0  0  0  0  0  0  0  0
   20.8545  -19.7435   -9.0211 C   0  0  0  0  0  0  0  0  0  0  0  0
   19.8372  -20.9465   -9.8974 C   0  0  0  0  0  0  0  0  0  0  0  0
   19.9321  -22.3127   -9.2670 C   0  0  1  0  0  0  0  0  0  0  0  0
   19.1091  -23.3262  -10.0166 N   0  0  0  0  0  0  0  0  0  0  0  0
   19.3043  -24.6204   -9.4030 C   0  0  0  0  0  0  0  0  0  0  0  0
   19.4210  -23.3365  -11.4672 O   0  0  0  0  0  0  0  0  0  0  0  0
   20.2360  -24.1736  -11.9302 N   0  0  0  0  0  0  0  0  0  0  0  0
   17.9262  -27.2430  -18.4675 C   0  0  0  0  0  0  0  0  0  0  0  0
   18.4383  -26.0222  -18.9942 N   0  0  0  0  0  0  0  0  0  0  0  0
   18.6595  -25.8909  -20.2608 N   0  0  0  0  0  0  0  0  0  0  0  0
   18.7268  -24.9121  -18.1517 C   0  0  0  0  0  0  0  0  0  0  0  0
   18.5580  -24.9145  -16.7234 C   0  0  0  0  0  0  0  0  0  0  0  0
   18.9393  -23.6291  -16.0558 C   0  0  0  0  0  0  0  0  0  0  0  0
   18.6954  -23.6397  -14.5846 C   0  0  2  0  0  0  0  0  0  0  0  0
   19.0302  -22.4423  -13.8103 N   0  0  0  0  0  0  0  0  0  0  0  0
   18.8263  -22.4159  -12.4020 C   0  0  0  0  0  0  0  0  0  0  0  0
   18.4848  -21.1852  -14.4604 O   0  0  0  0  0  0  0  0  0  0  0  0
   18.9240  -20.8876  -15.7217 O   0  0  0  0  0  0  0  0  0  0  0  0
  2  3  2  0
  2  1  1  0
  4  2  1  0
  5  6  1  0
  5  4  1  0
  7  8  1  0
  7  6  1  0
  8  9  1  6
 10  8  1  0
 10 17  1  0
 11 10  2  0
 13 12  1  0
 13 14  1  0
 14 15  1  0
 16 15  1  1
 16 17  1  0
 18 16  1  0
 19 18  2  0
 20 21  1  0
 21 23  1  0
 21 22  2  0
 23 24  1  0
 24 25  1  0
 25 26  1  0
 27 26  1  1
 27 28  1  0
 27 29  1  0
 28 18  1  0
 29 31  2  0
 29 30  1  0
M  END
$$$$
