CVH.pdb
     RDKit          3D

 24 24  0  0  1  0  0  0  0  0999 V2000
   30.1561  -23.7684  -16.7375 N   0  0  0  0  0  0  0  0  0  0  0  0
   28.9428  -23.1361  -17.1836 C   0  0  1  0  0  0  0  0  0  0  0  0
   27.8969  -24.1245  -17.6569 C   0  0  0  0  0  0  0  0  0  0  0  0
   28.6566  -25.1155  -18.9858 S   0  0  0  0  0  0  0  0  0  0  0  0
   28.3905  -22.2085  -16.1578 C   0  0  0  0  0  0  0  0  0  0  0  0
   28.6708  -22.3222  -14.9406 O   0  0  0  0  0  0  0  0  0  0  0  0
   27.1177  -17.8478  -14.6587 C   0  0  0  0  0  0  0  0  0  0  0  0
   27.6671  -18.8339  -15.6652 C   0  0  2  0  0  0  0  0  0  0  0  0
   27.4523  -18.2699  -17.0502 C   0  0  0  0  0  0  0  0  0  0  0  0
   27.0188  -20.1722  -15.5848 C   0  0  2  0  0  0  0  0  0  0  0  0
   27.5116  -21.1434  -16.5142 N   0  0  0  0  0  0  0  0  0  0  0  0
   25.5164  -20.0778  -15.6320 C   0  0  0  0  0  0  0  0  0  0  0  0
   24.9742  -19.8776  -16.7390 O   0  0  0  0  0  0  0  0  0  0  0  0
   24.6932  -20.2031  -14.4966 N   0  0  0  0  0  0  0  0  0  0  0  0
   23.2679  -20.1540  -14.4917 C   0  0  1  0  0  0  0  0  0  0  0  0
   22.5969  -20.3452  -13.1789 C   0  0  0  0  0  0  0  0  0  0  0  0
   21.1219  -20.3796  -13.3114 C   0  0  0  0  0  0  0  0  0  0  0  0
   20.4372  -20.2410  -14.4892 C   0  0  0  0  0  0  0  0  0  0  0  0
   19.1318  -20.3409  -14.1983 N   0  0  0  0  0  0  0  0  0  0  0  0
   18.9964  -20.5356  -12.8832 C   0  0  0  0  0  0  0  0  0  0  0  0
   20.2449  -20.5611  -12.3181 N   0  0  0  0  0  0  0  0  0  0  0  0
   22.7432  -18.8941  -15.0987 C   0  0  0  0  0  0  0  0  0  0  0  0
   23.2272  -17.8066  -14.7029 O   0  0  0  0  0  0  0  0  0  0  0  0
   21.7551  -18.8804  -16.0689 O   0  0  0  0  0  0  0  0  0  0  0  0
  2  5  1  0
  2  1  1  1
  3  2  1  0
  4  3  1  0
  5  6  2  0
  8  7  1  1
  8  9  1  0
  8 10  1  0
 10 11  1  6
 11  5  1  0
 12 13  2  0
 12 10  1  0
 14 12  1  0
 15 14  1  0
 15 22  1  0
 15 16  1  1
 17 21  1  0
 17 16  1  0
 18 17  2  0
 19 18  1  0
 19 20  1  0
 20 21  2  0
 22 24  1  0
 23 22  2  0
M  END
$$$$
