CVH.pdb
     RDKit          3D

 24 24  0  0  1  0  0  0  0  0999 V2000
   26.2388  -13.3794  -15.9178 N   0  0  0  0  0  0  0  0  0  0  0  0
   26.1243  -11.9580  -16.1113 C   0  0  1  0  0  0  0  0  0  0  0  0
   27.2140  -11.3892  -16.9967 C   0  0  0  0  0  0  0  0  0  0  0  0
   28.8012  -11.6740  -16.1453 S   0  0  0  0  0  0  0  0  0  0  0  0
   24.7708  -11.5711  -16.5973 C   0  0  0  0  0  0  0  0  0  0  0  0
   24.1602  -12.2411  -17.4641 O   0  0  0  0  0  0  0  0  0  0  0  0
   21.6226  -11.0658  -14.4150 C   0  0  0  0  0  0  0  0  0  0  0  0
   21.7231  -11.0313  -15.9236 C   0  0  2  0  0  0  0  0  0  0  0  0
   22.0749  -12.4180  -16.4091 C   0  0  0  0  0  0  0  0  0  0  0  0
   22.7505  -10.0734  -16.4183 C   0  0  2  0  0  0  0  0  0  0  0  0
   24.1037  -10.4138  -16.0976 N   0  0  0  0  0  0  0  0  0  0  0  0
   22.4337   -8.6528  -16.0314 C   0  0  0  0  0  0  0  0  0  0  0  0
   23.1024   -8.1296  -15.1157 O   0  0  0  0  0  0  0  0  0  0  0  0
   21.4258   -7.8856  -16.6462 N   0  0  0  0  0  0  0  0  0  0  0  0
   21.1128   -6.5271  -16.3454 C   0  0  1  0  0  0  0  0  0  0  0  0
   20.5822   -5.7004  -17.4614 C   0  0  0  0  0  0  0  0  0  0  0  0
   21.5338   -5.6239  -18.5941 C   0  0  0  0  0  0  0  0  0  0  0  0
   22.8601   -5.3017  -18.4833 C   0  0  0  0  0  0  0  0  0  0  0  0
   23.3806   -5.3516  -19.7183 N   0  0  0  0  0  0  0  0  0  0  0  0
   22.4172   -5.6932  -20.5791 C   0  0  0  0  0  0  0  0  0  0  0  0
   21.2518   -5.8663  -19.8787 N   0  0  0  0  0  0  0  0  0  0  0  0
   20.1704   -6.4055  -15.1928 C   0  0  0  0  0  0  0  0  0  0  0  0
   19.5953   -7.4463  -14.7934 O   0  0  0  0  0  0  0  0  0  0  0  0
   19.9101   -5.2033  -14.5567 O   0  0  0  0  0  0  0  0  0  0  0  0
  2  5  1  0
  2  1  1  6
  3  2  1  0
  4  3  1  0
  5  6  2  0
  8  7  1  1
  8  9  1  0
  8 10  1  0
 10 11  1  1
 11  5  1  0
 12 13  2  0
 12 10  1  0
 14 12  1  0
 15 14  1  0
 15 22  1  0
 15 16  1  6
 17 21  1  0
 17 16  1  0
 18 17  2  0
 19 18  1  0
 19 20  1  0
 20 21  2  0
 22 24  1  0
 23 22  2  0
M  END
$$$$
