CVH.pdb
     RDKit          3D

 24 24  0  0  1  0  0  0  0  0999 V2000
   25.1819  -20.4393   -8.4882 N   0  0  0  0  0  0  0  0  0  0  0  0
   24.3094  -20.7614   -9.5863 C   0  0  1  0  0  0  0  0  0  0  0  0
   22.8650  -20.3846   -9.3278 C   0  0  0  0  0  0  0  0  0  0  0  0
   22.2544  -21.4759   -8.0006 S   0  0  0  0  0  0  0  0  0  0  0  0
   24.7996  -20.1897  -10.8711 C   0  0  0  0  0  0  0  0  0  0  0  0
   25.1242  -18.9831  -10.9796 O   0  0  0  0  0  0  0  0  0  0  0  0
   27.8241  -21.0040  -12.8048 C   0  0  0  0  0  0  0  0  0  0  0  0
   26.6718  -21.1536  -13.7728 C   0  0  2  0  0  0  0  0  0  0  0  0
   27.0722  -20.5306  -15.0896 C   0  0  0  0  0  0  0  0  0  0  0  0
   25.4197  -20.5046  -13.2945 C   0  0  2  0  0  0  0  0  0  0  0  0
   24.9216  -20.9921  -12.0438 N   0  0  0  0  0  0  0  0  0  0  0  0
   24.3456  -20.4985  -14.3501 C   0  0  0  0  0  0  0  0  0  0  0  0
   23.7941  -21.5824  -14.6342 O   0  0  0  0  0  0  0  0  0  0  0  0
   23.9316  -19.3382  -15.0318 N   0  0  0  0  0  0  0  0  0  0  0  0
   22.8758  -19.2658  -15.9878 C   0  0  1  0  0  0  0  0  0  0  0  0
   22.1272  -17.9835  -16.0612 C   0  0  0  0  0  0  0  0  0  0  0  0
   21.3703  -17.7128  -14.8169 C   0  0  0  0  0  0  0  0  0  0  0  0
   20.5518  -18.6113  -14.1861 C   0  0  0  0  0  0  0  0  0  0  0  0
   20.0632  -17.9998  -13.0970 N   0  0  0  0  0  0  0  0  0  0  0  0
   20.5555  -16.7587  -13.0417 C   0  0  0  0  0  0  0  0  0  0  0  0
   21.3792  -16.5707  -14.1210 N   0  0  0  0  0  0  0  0  0  0  0  0
   23.3363  -19.6106  -17.3664 C   0  0  0  0  0  0  0  0  0  0  0  0
   24.4804  -19.2315  -17.7144 O   0  0  0  0  0  0  0  0  0  0  0  0
   22.5586  -20.3229  -18.2638 O   0  0  0  0  0  0  0  0  0  0  0  0
  2  5  1  0
  2  1  1  1
  3  2  1  0
  4  3  1  0
  5  6  2  0
  8  7  1  1
  8  9  1  0
  8 10  1  0
 10 11  1  1
 11  5  1  0
 12 13  2  0
 12 10  1  0
 14 12  1  0
 15 14  1  0
 15 22  1  0
 15 16  1  6
 17 21  1  0
 17 16  1  0
 18 17  2  0
 19 18  1  0
 19 20  1  0
 20 21  2  0
 22 24  1  0
 23 22  2  0
M  END
$$$$
