CVH.pdb
     RDKit          3D

 24 24  0  0  1  0  0  0  0  0999 V2000
   28.0026  -19.4942  -16.2120 N   0  0  0  0  0  0  0  0  0  0  0  0
   27.2200  -18.9112  -15.1544 C   0  0  1  0  0  0  0  0  0  0  0  0
   26.4719  -17.6665  -15.5857 C   0  0  0  0  0  0  0  0  0  0  0  0
   27.6596  -16.2835  -15.5416 S   0  0  0  0  0  0  0  0  0  0  0  0
   26.3062  -19.9056  -14.5269 C   0  0  0  0  0  0  0  0  0  0  0  0
   25.7028  -20.7721  -15.2038 O   0  0  0  0  0  0  0  0  0  0  0  0
   25.3575  -20.1177  -10.0723 C   0  0  0  0  0  0  0  0  0  0  0  0
   25.5260  -21.2169  -11.0973 C   0  0  2  0  0  0  0  0  0  0  0  0
   26.9748  -21.6452  -11.1023 C   0  0  0  0  0  0  0  0  0  0  0  0
   25.1444  -20.7950  -12.4736 C   0  0  2  0  0  0  0  0  0  0  0  0
   26.0728  -19.9174  -13.1200 N   0  0  0  0  0  0  0  0  0  0  0  0
   23.7412  -20.2510  -12.5309 C   0  0  0  0  0  0  0  0  0  0  0  0
   23.4715  -19.2458  -11.8406 O   0  0  0  0  0  0  0  0  0  0  0  0
   22.7201  -20.8146  -13.3197 N   0  0  0  0  0  0  0  0  0  0  0  0
   21.3972  -20.3010  -13.4610 C   0  0  1  0  0  0  0  0  0  0  0  0
   21.1615  -19.3620  -14.5892 C   0  0  0  0  0  0  0  0  0  0  0  0
   20.3239  -18.2094  -14.1838 C   0  0  0  0  0  0  0  0  0  0  0  0
   19.8144  -18.0138  -12.9279 C   0  0  0  0  0  0  0  0  0  0  0  0
   19.1277  -16.8621  -12.9579 N   0  0  0  0  0  0  0  0  0  0  0  0
   19.2007  -16.3482  -14.1893 C   0  0  0  0  0  0  0  0  0  0  0  0
   19.9521  -17.1907  -14.9667 N   0  0  0  0  0  0  0  0  0  0  0  0
   20.3746  -21.3868  -13.5432 C   0  0  0  0  0  0  0  0  0  0  0  0
   19.1651  -21.0583  -13.4904 O   0  0  0  0  0  0  0  0  0  0  0  0
   20.7061  -22.7250  -13.6733 O   0  0  0  0  0  0  0  0  0  0  0  0
  2  5  1  0
  2  1  1  6
  3  2  1  0
  4  3  1  0
  5  6  2  0
  8  7  1  1
  8  9  1  0
  8 10  1  0
 10 11  1  1
 11  5  1  0
 12 13  2  0
 12 10  1  0
 14 12  1  0
 15 14  1  0
 15 22  1  0
 15 16  1  6
 17 21  1  0
 17 16  1  0
 18 17  2  0
 19 18  1  0
 19 20  1  0
 20 21  2  0
 22 24  1  0
 23 22  2  0
M  END
$$$$
