CVH.pdb
     RDKit          3D

 24 24  0  0  1  0  0  0  0  0999 V2000
   19.2420  -17.2796  -15.2070 N   0  0  0  0  0  0  0  0  0  0  0  0
   19.0434  -16.0794  -15.9757 C   0  0  1  0  0  0  0  0  0  0  0  0
   17.5850  -15.8011  -16.2767 C   0  0  0  0  0  0  0  0  0  0  0  0
   16.9847  -17.1627  -17.3308 S   0  0  0  0  0  0  0  0  0  0  0  0
   19.7038  -14.9018  -15.3471 C   0  0  0  0  0  0  0  0  0  0  0  0
   19.5393  -14.6162  -14.1370 O   0  0  0  0  0  0  0  0  0  0  0  0
   23.1626  -13.0085  -17.1865 C   0  0  0  0  0  0  0  0  0  0  0  0
   22.7641  -13.0044  -15.7277 C   0  0  2  0  0  0  0  0  0  0  0  0
   23.2986  -14.2627  -15.0846 C   0  0  0  0  0  0  0  0  0  0  0  0
   21.2896  -12.9500  -15.5257 C   0  0  2  0  0  0  0  0  0  0  0  0
   20.5570  -14.0394  -16.0970 N   0  0  0  0  0  0  0  0  0  0  0  0
   20.7101  -11.6217  -15.9357 C   0  0  0  0  0  0  0  0  0  0  0  0
   20.0808  -11.5620  -17.0127 O   0  0  0  0  0  0  0  0  0  0  0  0
   20.8404  -10.4469  -15.1707 N   0  0  0  0  0  0  0  0  0  0  0  0
   20.3170   -9.1659  -15.5158 C   0  0  1  0  0  0  0  0  0  0  0  0
   18.8420   -9.0011  -15.4300 C   0  0  0  0  0  0  0  0  0  0  0  0
   18.4000   -7.6907  -15.9612 C   0  0  0  0  0  0  0  0  0  0  0  0
   17.8378   -6.6909  -15.2132 C   0  0  0  0  0  0  0  0  0  0  0  0
   17.5892   -5.6698  -16.0465 N   0  0  0  0  0  0  0  0  0  0  0  0
   17.9803   -6.0124  -17.2775 C   0  0  0  0  0  0  0  0  0  0  0  0
   18.4918   -7.2833  -17.2317 N   0  0  0  0  0  0  0  0  0  0  0  0
   20.9506   -8.0653  -14.7294 C   0  0  0  0  0  0  0  0  0  0  0  0
   21.4085   -8.3435  -13.5951 O   0  0  0  0  0  0  0  0  0  0  0  0
   21.0503   -6.7660  -15.1979 O   0  0  0  0  0  0  0  0  0  0  0  0
  2  5  1  0
  2  1  1  1
  3  2  1  0
  4  3  1  0
  5  6  2  0
  8  7  1  6
  8  9  1  0
  8 10  1  0
 10 11  1  6
 11  5  1  0
 12 13  2  0
 12 10  1  0
 14 12  1  0
 15 14  1  0
 15 22  1  0
 15 16  1  1
 17 21  1  0
 17 16  1  0
 18 17  2  0
 19 18  1  0
 19 20  1  0
 20 21  2  0
 22 24  1  0
 23 22  2  0
M  END
$$$$
