CVH.pdb
     RDKit          3D

 24 24  0  0  1  0  0  0  0  0999 V2000
   19.0161  -13.5829  -17.9676 N   0  0  0  0  0  0  0  0  0  0  0  0
   19.6220  -12.3289  -18.3298 C   0  0  1  0  0  0  0  0  0  0  0  0
   18.9328  -11.6509  -19.4961 C   0  0  0  0  0  0  0  0  0  0  0  0
   18.9655  -12.8217  -20.8938 S   0  0  0  0  0  0  0  0  0  0  0  0
   19.7431  -11.4130  -17.1618 C   0  0  0  0  0  0  0  0  0  0  0  0
   18.7513  -11.0923  -16.4642 O   0  0  0  0  0  0  0  0  0  0  0  0
   22.3364   -9.1356  -13.6646 C   0  0  0  0  0  0  0  0  0  0  0  0
   22.2212  -10.1847  -14.7478 C   0  0  2  0  0  0  0  0  0  0  0  0
   23.5480  -10.2767  -15.4645 C   0  0  0  0  0  0  0  0  0  0  0  0
   21.1565   -9.8806  -15.7437 C   0  0  2  0  0  0  0  0  0  0  0  0
   20.9990  -10.8541  -16.7818 N   0  0  0  0  0  0  0  0  0  0  0  0
   21.2887   -8.4905  -16.3081 C   0  0  0  0  0  0  0  0  0  0  0  0
   22.1295   -8.3002  -17.2116 O   0  0  0  0  0  0  0  0  0  0  0  0
   20.5161   -7.3973  -15.8717 N   0  0  0  0  0  0  0  0  0  0  0  0
   20.5854   -6.0696  -16.3879 C   0  0  1  0  0  0  0  0  0  0  0  0
   19.4512   -5.6233  -17.2391 C   0  0  0  0  0  0  0  0  0  0  0  0
   19.2916   -6.4762  -18.4398 C   0  0  0  0  0  0  0  0  0  0  0  0
   18.4506   -7.5532  -18.5301 C   0  0  0  0  0  0  0  0  0  0  0  0
   18.5816   -8.0505  -19.7688 N   0  0  0  0  0  0  0  0  0  0  0  0
   19.4740   -7.3140  -20.4374 C   0  0  0  0  0  0  0  0  0  0  0  0
   19.9253   -6.3210  -19.6073 N   0  0  0  0  0  0  0  0  0  0  0  0
   20.7814   -5.0534  -15.3108 C   0  0  0  0  0  0  0  0  0  0  0  0
   20.6941   -5.4371  -14.1197 O   0  0  0  0  0  0  0  0  0  0  0  0
   21.0519   -3.7208  -15.5731 O   0  0  0  0  0  0  0  0  0  0  0  0
  2  5  1  0
  2  1  1  1
  3  2  1  0
  4  3  1  0
  5  6  2  0
  8  7  1  1
  8  9  1  0
  8 10  1  0
 10 11  1  6
 11  5  1  0
 12 13  2  0
 12 10  1  0
 14 12  1  0
 15 14  1  0
 15 22  1  0
 15 16  1  1
 17 21  1  0
 17 16  1  0
 18 17  2  0
 19 18  1  0
 19 20  1  0
 20 21  2  0
 22 24  1  0
 23 22  2  0
M  END
$$$$
