CVH.pdb
     RDKit          3D

 24 24  0  0  1  0  0  0  0  0999 V2000
   18.6290  -13.1114  -16.2496 N   0  0  0  0  0  0  0  0  0  0  0  0
   18.7960  -11.7220  -16.5852 C   0  0  1  0  0  0  0  0  0  0  0  0
   17.4875  -11.0241  -16.8943 C   0  0  0  0  0  0  0  0  0  0  0  0
   16.7249  -11.9080  -18.2952 S   0  0  0  0  0  0  0  0  0  0  0  0
   19.5717  -10.9892  -15.5465 C   0  0  0  0  0  0  0  0  0  0  0  0
   19.2046  -10.9509  -14.3478 O   0  0  0  0  0  0  0  0  0  0  0  0
   23.7953  -10.0334  -15.8913 C   0  0  0  0  0  0  0  0  0  0  0  0
   22.9121  -10.0636  -14.6640 C   0  0  2  0  0  0  0  0  0  0  0  0
   22.8113  -11.4929  -14.1850 C   0  0  0  0  0  0  0  0  0  0  0  0
   21.5401   -9.5439  -14.9194 C   0  0  2  0  0  0  0  0  0  0  0  0
   20.7734  -10.2922  -15.8692 N   0  0  0  0  0  0  0  0  0  0  0  0
   21.5431   -8.0744  -15.2496 C   0  0  0  0  0  0  0  0  0  0  0  0
   21.7187   -7.7396  -16.4399 O   0  0  0  0  0  0  0  0  0  0  0  0
   21.3589   -7.0612  -14.2896 N   0  0  0  0  0  0  0  0  0  0  0  0
   21.2985   -5.6616  -14.5569 C   0  0  1  0  0  0  0  0  0  0  0  0
   19.9771   -5.0036  -14.3805 C   0  0  0  0  0  0  0  0  0  0  0  0
   18.9639   -5.5369  -15.3205 C   0  0  0  0  0  0  0  0  0  0  0  0
   19.2381   -6.0520  -16.5593 C   0  0  0  0  0  0  0  0  0  0  0  0
   18.0690   -6.4374  -17.0917 N   0  0  0  0  0  0  0  0  0  0  0  0
   17.0906   -6.1749  -16.2201 C   0  0  0  0  0  0  0  0  0  0  0  0
   17.6462   -5.6080  -15.1027 N   0  0  0  0  0  0  0  0  0  0  0  0
   22.3063   -4.8910  -13.7682 C   0  0  0  0  0  0  0  0  0  0  0  0
   22.8948   -5.4827  -12.8316 O   0  0  0  0  0  0  0  0  0  0  0  0
   22.6117   -3.5654  -14.0274 O   0  0  0  0  0  0  0  0  0  0  0  0
  2  5  1  0
  2  1  1  1
  3  2  1  0
  4  3  1  0
  5  6  2  0
  8  7  1  6
  8  9  1  0
  8 10  1  0
 10 11  1  6
 11  5  1  0
 12 13  2  0
 12 10  1  0
 14 12  1  0
 15 14  1  0
 15 22  1  0
 15 16  1  1
 17 21  1  0
 17 16  1  0
 18 17  2  0
 19 18  1  0
 19 20  1  0
 20 21  2  0
 22 24  1  0
 23 22  2  0
M  END
$$$$
