CVH.pdb
     RDKit          3D

 24 24  0  0  1  0  0  0  0  0999 V2000
   13.5652  -21.3753    1.7756 N   0  0  0  0  0  0  0  0  0  0  0  0
   14.9297  -21.1619    2.1799 C   0  0  1  0  0  0  0  0  0  0  0  0
   15.7630  -20.4732    1.1186 C   0  0  0  0  0  0  0  0  0  0  0  0
   15.9590  -21.6517   -0.2591 S   0  0  0  0  0  0  0  0  0  0  0  0
   15.0172  -20.4523    3.4862 C   0  0  0  0  0  0  0  0  0  0  0  0
   14.1052  -19.6926    3.8912 O   0  0  0  0  0  0  0  0  0  0  0  0
   15.6717  -22.0365    6.9885 C   0  0  0  0  0  0  0  0  0  0  0  0
   16.6739  -20.9345    6.7268 C   0  0  2  0  0  0  0  0  0  0  0  0
   16.8529  -20.1415    8.0002 C   0  0  0  0  0  0  0  0  0  0  0  0
   16.2526  -20.0089    5.6389 C   0  0  2  0  0  0  0  0  0  0  0  0
   16.1491  -20.6037    4.3406 N   0  0  0  0  0  0  0  0  0  0  0  0
   17.0880  -18.7562    5.6055 C   0  0  0  0  0  0  0  0  0  0  0  0
   18.0542  -18.7146    4.8154 O   0  0  0  0  0  0  0  0  0  0  0  0
   16.8375  -17.6325    6.4161 N   0  0  0  0  0  0  0  0  0  0  0  0
   17.4928  -16.3699    6.3150 C   0  0  1  0  0  0  0  0  0  0  0  0
   16.9727  -15.4269    5.2900 C   0  0  0  0  0  0  0  0  0  0  0  0
   17.8325  -14.2282    5.1542 C   0  0  0  0  0  0  0  0  0  0  0  0
   19.0489  -14.0632    5.7610 C   0  0  0  0  0  0  0  0  0  0  0  0
   19.5157  -12.8635    5.3846 N   0  0  0  0  0  0  0  0  0  0  0  0
   18.6255  -12.2907    4.5690 C   0  0  0  0  0  0  0  0  0  0  0  0
   17.5633  -13.1438    4.4192 N   0  0  0  0  0  0  0  0  0  0  0  0
   17.5386  -15.6499    7.6230 C   0  0  0  0  0  0  0  0  0  0  0  0
   16.4859  -15.6028    8.3036 O   0  0  0  0  0  0  0  0  0  0  0  0
   18.6837  -15.0398    8.1068 O   0  0  0  0  0  0  0  0  0  0  0  0
  2  5  1  0
  2  1  1  6
  3  2  1  0
  4  3  1  0
  5  6  2  0
  8  7  1  1
  8  9  1  0
  8 10  1  0
 10 11  1  6
 11  5  1  0
 12 13  2  0
 12 10  1  0
 14 12  1  0
 15 14  1  0
 15 22  1  0
 15 16  1  6
 17 21  1  0
 17 16  1  0
 18 17  2  0
 19 18  1  0
 19 20  1  0
 20 21  2  0
 22 24  1  0
 23 22  2  0
M  END
$$$$
