CVH.pdb
     RDKit          3D

 24 24  0  0  1  0  0  0  0  0999 V2000
   21.6979  -18.4672  -15.4650 N   0  0  0  0  0  0  0  0  0  0  0  0
   21.6987  -17.3013  -16.3085 C   0  0  1  0  0  0  0  0  0  0  0  0
   20.3731  -17.0709  -17.0048 C   0  0  0  0  0  0  0  0  0  0  0  0
   20.1332  -18.4500  -18.1734 S   0  0  0  0  0  0  0  0  0  0  0  0
   22.1468  -16.0854  -15.5748 C   0  0  0  0  0  0  0  0  0  0  0  0
   21.7473  -15.8253  -14.4147 O   0  0  0  0  0  0  0  0  0  0  0  0
   25.6311  -13.6112  -16.7636 C   0  0  0  0  0  0  0  0  0  0  0  0
   24.9591  -13.7763  -15.4188 C   0  0  2  0  0  0  0  0  0  0  0  0
   25.5461  -14.9912  -14.7392 C   0  0  0  0  0  0  0  0  0  0  0  0
   23.4834  -13.9482  -15.5211 C   0  0  2  0  0  0  0  0  0  0  0  0
   23.0547  -15.1550  -16.1614 N   0  0  0  0  0  0  0  0  0  0  0  0
   22.8120  -12.7396  -16.1184 C   0  0  0  0  0  0  0  0  0  0  0  0
   22.5672  -12.7480  -17.3430 O   0  0  0  0  0  0  0  0  0  0  0  0
   22.4470  -11.6037  -15.3708 N   0  0  0  0  0  0  0  0  0  0  0  0
   21.6063  -10.5440  -15.8227 C   0  0  1  0  0  0  0  0  0  0  0  0
   20.1725  -10.8732  -16.0370 C   0  0  0  0  0  0  0  0  0  0  0  0
   19.4255   -9.7362  -16.6234 C   0  0  0  0  0  0  0  0  0  0  0  0
   19.4387   -8.4559  -16.1378 C   0  0  0  0  0  0  0  0  0  0  0  0
   18.6553   -7.7229  -16.9427 N   0  0  0  0  0  0  0  0  0  0  0  0
   18.1643   -8.5122  -17.9027 C   0  0  0  0  0  0  0  0  0  0  0  0
   18.6448   -9.7811  -17.7084 N   0  0  0  0  0  0  0  0  0  0  0  0
   21.6765   -9.3470  -14.9319 C   0  0  0  0  0  0  0  0  0  0  0  0
   21.9177   -9.5349  -13.7152 O   0  0  0  0  0  0  0  0  0  0  0  0
   21.4874   -8.0544  -15.3913 O   0  0  0  0  0  0  0  0  0  0  0  0
  2  5  1  0
  2  1  1  1
  3  2  1  0
  4  3  1  0
  5  6  2  0
  8  7  1  6
  8  9  1  0
  8 10  1  0
 10 11  1  6
 11  5  1  0
 12 13  2  0
 12 10  1  0
 14 12  1  0
 15 14  1  0
 15 22  1  0
 15 16  1  1
 17 21  1  0
 17 16  1  0
 18 17  2  0
 19 18  1  0
 19 20  1  0
 20 21  2  0
 22 24  1  0
 23 22  2  0
M  END
$$$$
