CVH.pdb
     RDKit          3D

 24 24  0  0  1  0  0  0  0  0999 V2000
   18.6818  -13.1778  -16.8883 N   0  0  0  0  0  0  0  0  0  0  0  0
   18.3268  -11.7837  -16.8544 C   0  0  1  0  0  0  0  0  0  0  0  0
   16.9986  -11.5252  -16.1733 C   0  0  0  0  0  0  0  0  0  0  0  0
   15.7070  -12.2956  -17.2046 S   0  0  0  0  0  0  0  0  0  0  0  0
   19.4112  -10.9487  -16.2674 C   0  0  0  0  0  0  0  0  0  0  0  0
   19.9309  -11.2195  -15.1586 O   0  0  0  0  0  0  0  0  0  0  0  0
   21.9904   -8.5632  -18.6970 C   0  0  0  0  0  0  0  0  0  0  0  0
   22.2201   -8.9969  -17.2665 C   0  0  2  0  0  0  0  0  0  0  0  0
   22.7796  -10.4002  -17.2785 C   0  0  0  0  0  0  0  0  0  0  0  0
   20.9778   -8.9812  -16.4453 C   0  0  2  0  0  0  0  0  0  0  0  0
   19.9101   -9.7956  -16.9423 N   0  0  0  0  0  0  0  0  0  0  0  0
   20.5105   -7.5800  -16.1512 C   0  0  0  0  0  0  0  0  0  0  0  0
   19.8404   -6.9884  -17.0233 O   0  0  0  0  0  0  0  0  0  0  0  0
   20.7887   -6.9039  -14.9480 N   0  0  0  0  0  0  0  0  0  0  0  0
   20.5092   -5.5313  -14.6800 C   0  0  1  0  0  0  0  0  0  0  0  0
   19.1748   -5.2211  -14.1025 C   0  0  0  0  0  0  0  0  0  0  0  0
   18.9211   -5.9812  -12.8566 C   0  0  0  0  0  0  0  0  0  0  0  0
   19.7704   -6.9113  -12.3190 C   0  0  0  0  0  0  0  0  0  0  0  0
   19.1964   -7.3630  -11.1942 N   0  0  0  0  0  0  0  0  0  0  0  0
   18.0258   -6.7405  -11.0270 C   0  0  0  0  0  0  0  0  0  0  0  0
   17.8456   -5.8690  -12.0695 N   0  0  0  0  0  0  0  0  0  0  0  0
   21.5465   -4.9024  -13.8084 C   0  0  0  0  0  0  0  0  0  0  0  0
   22.3901   -5.6549  -13.2646 O   0  0  0  0  0  0  0  0  0  0  0  0
   21.6116   -3.5381  -13.5799 O   0  0  0  0  0  0  0  0  0  0  0  0
  2  5  1  0
  2  1  1  1
  3  2  1  0
  4  3  1  0
  5  6  2  0
  8  7  1  6
  8  9  1  0
  8 10  1  0
 10 11  1  6
 11  5  1  0
 12 13  2  0
 12 10  1  0
 14 12  1  0
 15 14  1  0
 15 22  1  0
 15 16  1  1
 17 21  1  0
 17 16  1  0
 18 17  2  0
 19 18  1  0
 19 20  1  0
 20 21  2  0
 22 24  1  0
 23 22  2  0
M  END
$$$$
