CVH.pdb
     RDKit          3D

 24 24  0  0  1  0  0  0  0  0999 V2000
   28.8921  -21.2924  -15.9376 N   0  0  0  0  0  0  0  0  0  0  0  0
   28.0901  -20.3283  -15.2319 C   0  0  1  0  0  0  0  0  0  0  0  0
   27.5348  -19.2441  -16.1326 C   0  0  0  0  0  0  0  0  0  0  0  0
   28.6340  -17.7978  -15.9729 S   0  0  0  0  0  0  0  0  0  0  0  0
   27.0131  -20.9786  -14.4351 C   0  0  0  0  0  0  0  0  0  0  0  0
   26.3020  -21.8981  -14.9064 O   0  0  0  0  0  0  0  0  0  0  0  0
   24.6787  -21.6620  -10.0847 C   0  0  0  0  0  0  0  0  0  0  0  0
   25.8862  -21.1813  -10.8581 C   0  0  2  0  0  0  0  0  0  0  0  0
   26.2741  -19.8177  -10.3361 C   0  0  0  0  0  0  0  0  0  0  0  0
   25.6396  -21.0832  -12.3235 C   0  0  2  0  0  0  0  0  0  0  0  0
   26.7383  -20.5826  -13.0929 N   0  0  0  0  0  0  0  0  0  0  0  0
   24.3661  -20.3421  -12.6354 C   0  0  0  0  0  0  0  0  0  0  0  0
   24.3922  -19.0937  -12.6153 O   0  0  0  0  0  0  0  0  0  0  0  0
   23.1509  -20.9810  -12.9476 N   0  0  0  0  0  0  0  0  0  0  0  0
   21.9011  -20.3310  -13.1696 C   0  0  1  0  0  0  0  0  0  0  0  0
   21.8518  -19.3361  -14.2733 C   0  0  0  0  0  0  0  0  0  0  0  0
   22.4665  -19.8578  -15.5161 C   0  0  0  0  0  0  0  0  0  0  0  0
   22.9967  -21.1119  -15.6618 C   0  0  0  0  0  0  0  0  0  0  0  0
   23.4396  -21.2064  -16.9242 N   0  0  0  0  0  0  0  0  0  0  0  0
   23.1980  -20.0527  -17.5538 C   0  0  0  0  0  0  0  0  0  0  0  0
   22.5856  -19.1988  -16.6738 N   0  0  0  0  0  0  0  0  0  0  0  0
   20.7862  -21.3036  -13.3754 C   0  0  0  0  0  0  0  0  0  0  0  0
   19.6317  -20.8443  -13.5479 O   0  0  0  0  0  0  0  0  0  0  0  0
   20.9755  -22.6754  -13.3823 O   0  0  0  0  0  0  0  0  0  0  0  0
  2  5  1  0
  2  1  1  6
  3  2  1  0
  4  3  1  0
  5  6  2  0
  8  7  1  1
  8  9  1  0
  8 10  1  0
 10 11  1  6
 11  5  1  0
 12 13  2  0
 12 10  1  0
 14 12  1  0
 15 14  1  0
 15 22  1  0
 15 16  1  6
 17 21  1  0
 17 16  1  0
 18 17  2  0
 19 18  1  0
 19 20  1  0
 20 21  2  0
 22 24  1  0
 23 22  2  0
M  END
$$$$
