CVH.pdb
     RDKit          3D

 24 24  0  0  1  0  0  0  0  0999 V2000
   31.3525  -11.5360  -18.3990 N   0  0  0  0  0  0  0  0  0  0  0  0
   30.4207  -10.5269  -17.9697 C   0  0  1  0  0  0  0  0  0  0  0  0
   30.6845   -9.1712  -18.5922 C   0  0  0  0  0  0  0  0  0  0  0  0
   32.3752   -8.6812  -18.1159 S   0  0  0  0  0  0  0  0  0  0  0  0
   29.0082  -10.9532  -18.1721 C   0  0  0  0  0  0  0  0  0  0  0  0
   28.7012  -11.8816  -18.9577 O   0  0  0  0  0  0  0  0  0  0  0  0
   27.2017  -13.1915  -17.9734 C   0  0  0  0  0  0  0  0  0  0  0  0
   26.4443  -12.2429  -17.0713 C   0  0  2  0  0  0  0  0  0  0  0  0
   24.9804  -12.6139  -17.1122 C   0  0  0  0  0  0  0  0  0  0  0  0
   26.5903  -10.8158  -17.4711 C   0  0  2  0  0  0  0  0  0  0  0  0
   27.9338  -10.3210  -17.4793 N   0  0  0  0  0  0  0  0  0  0  0  0
   25.6753   -9.9115  -16.6880 C   0  0  0  0  0  0  0  0  0  0  0  0
   26.0773   -9.4783  -15.5878 O   0  0  0  0  0  0  0  0  0  0  0  0
   24.3941   -9.5298  -17.1298 N   0  0  0  0  0  0  0  0  0  0  0  0
   23.6009   -8.4810  -16.5778 C   0  0  1  0  0  0  0  0  0  0  0  0
   24.2740   -7.1716  -16.3713 C   0  0  0  0  0  0  0  0  0  0  0  0
   23.4027   -6.2080  -15.6595 C   0  0  0  0  0  0  0  0  0  0  0  0
   22.6026   -6.5152  -14.5915 C   0  0  0  0  0  0  0  0  0  0  0  0
   21.9861   -5.3822  -14.2242 N   0  0  0  0  0  0  0  0  0  0  0  0
   22.3826   -4.3939  -15.0317 C   0  0  0  0  0  0  0  0  0  0  0  0
   23.2744   -4.9061  -15.9378 N   0  0  0  0  0  0  0  0  0  0  0  0
   22.3547   -8.2398  -17.3654 C   0  0  0  0  0  0  0  0  0  0  0  0
   22.3980   -8.4305  -18.6045 O   0  0  0  0  0  0  0  0  0  0  0  0
   21.1687   -7.8186  -16.7877 O   0  0  0  0  0  0  0  0  0  0  0  0
  2  5  1  0
  2  1  1  6
  3  2  1  0
  4  3  1  0
  5  6  2  0
  8  7  1  6
  8  9  1  0
  8 10  1  0
 10 11  1  1
 11  5  1  0
 12 13  2  0
 12 10  1  0
 14 12  1  0
 15 14  1  0
 15 22  1  0
 15 16  1  6
 17 21  1  0
 17 16  1  0
 18 17  2  0
 19 18  1  0
 19 20  1  0
 20 21  2  0
 22 24  1  0
 23 22  2  0
M  END
$$$$
