YCT.pdb
     RDKit          3D

 26 26  0  0  1  0  0  0  0  0999 V2000
   25.9524  -17.1599  -15.1964 O   0  0  0  0  0  0  0  0  0  0  0  0
   25.1502  -16.1279  -15.6720 C   0  0  0  0  0  0  0  0  0  0  0  0
   25.0307  -14.9369  -14.9877 C   0  0  0  0  0  0  0  0  0  0  0  0
   24.2415  -13.9043  -15.4430 C   0  0  0  0  0  0  0  0  0  0  0  0
   23.5198  -14.0220  -16.6318 C   0  0  0  0  0  0  0  0  0  0  0  0
   22.6784  -12.8932  -17.0952 C   0  0  0  0  0  0  0  0  0  0  0  0
   21.2853  -13.1295  -16.5655 C   0  0  2  0  0  0  0  0  0  0  0  0
   20.7234  -14.3570  -17.0960 N   0  0  0  0  0  0  0  0  0  0  0  0
   20.4078  -12.0118  -16.9993 C   0  0  0  0  0  0  0  0  0  0  0  0
   19.6298  -12.1145  -17.9821 O   0  0  0  0  0  0  0  0  0  0  0  0
   23.6382  -15.2099  -17.3156 C   0  0  0  0  0  0  0  0  0  0  0  0
   24.4395  -16.2543  -16.8506 C   0  0  0  0  0  0  0  0  0  0  0  0
   20.4107  -10.7504  -16.3052 N   0  0  0  0  0  0  0  0  0  0  0  0
   19.5069   -9.6792  -16.6818 C   0  0  1  0  0  0  0  0  0  0  0  0
   18.0941  -10.0982  -16.2998 C   0  0  0  0  0  0  0  0  0  0  0  0
   17.0170   -8.6782  -16.6257 S   0  0  0  0  0  0  0  0  0  0  0  0
   19.8599   -8.4449  -15.9068 C   0  0  0  0  0  0  0  0  0  0  0  0
   19.9079   -8.4983  -14.6482 O   0  0  0  0  0  0  0  0  0  0  0  0
   22.8952   -6.1717  -16.7976 C   0  0  0  0  0  0  0  0  0  0  0  0
   21.6511   -5.3677  -16.5584 C   0  0  1  0  0  0  0  0  0  0  0  0
   21.0389   -4.9685  -17.7434 O   0  0  0  0  0  0  0  0  0  0  0  0
   20.6094   -6.1056  -15.7498 C   0  0  2  0  0  0  0  0  0  0  0  0
   20.1441   -7.2136  -16.5201 N   0  0  0  0  0  0  0  0  0  0  0  0
   19.5489   -5.2363  -15.2460 C   0  0  0  0  0  0  0  0  0  0  0  0
   19.8229   -4.3014  -14.2677 O   0  0  0  0  0  0  0  0  0  0  0  0
   18.3822   -5.3303  -15.6959 O   0  0  0  0  0  0  0  0  0  0  0  0
  2  3  2  0
  2  1  1  0
  4  3  1  0
  5  4  2  0
  6  5  1  0
  7  6  1  0
  7  9  1  0
  7  8  1  6
  9 10  2  0
 11  5  1  0
 11 12  2  0
 12  2  1  0
 13  9  1  0
 13 14  1  0
 14 15  1  1
 15 16  1  0
 17 14  1  0
 17 23  1  0
 18 17  2  0
 20 19  1  6
 21 20  1  0
 22 24  1  0
 22 23  1  6
 22 20  1  0
 24 25  1  0
 26 24  2  0
M  END
$$$$
