YCT.pdb
     RDKit          3D

 26 26  0  0  1  0  0  0  0  0999 V2000
   30.0463  -26.9556  -17.2865 O   0  0  0  0  0  0  0  0  0  0  0  0
   28.8006  -26.3924  -17.0299 C   0  0  0  0  0  0  0  0  0  0  0  0
   28.6766  -25.0897  -16.5959 C   0  0  0  0  0  0  0  0  0  0  0  0
   27.4521  -24.5154  -16.3368 C   0  0  0  0  0  0  0  0  0  0  0  0
   26.2698  -25.2378  -16.5048 C   0  0  0  0  0  0  0  0  0  0  0  0
   24.9671  -24.5920  -16.2169 C   0  0  0  0  0  0  0  0  0  0  0  0
   24.6171  -24.9145  -14.7848 C   0  0  2  0  0  0  0  0  0  0  0  0
   24.2518  -26.3102  -14.6354 N   0  0  0  0  0  0  0  0  0  0  0  0
   23.4431  -24.0990  -14.3794 C   0  0  0  0  0  0  0  0  0  0  0  0
   22.2979  -24.5989  -14.2377 O   0  0  0  0  0  0  0  0  0  0  0  0
   26.3922  -26.5378  -16.9379 C   0  0  0  0  0  0  0  0  0  0  0  0
   27.6355  -27.1163  -17.1995 C   0  0  0  0  0  0  0  0  0  0  0  0
   23.5684  -22.6868  -14.1284 N   0  0  0  0  0  0  0  0  0  0  0  0
   22.4784  -21.9230  -13.5501 C   0  0  1  0  0  0  0  0  0  0  0  0
   23.0749  -20.9004  -12.5931 C   0  0  0  0  0  0  0  0  0  0  0  0
   21.6866  -20.0469  -11.8014 S   0  0  0  0  0  0  0  0  0  0  0  0
   21.7622  -21.1867  -14.6427 C   0  0  0  0  0  0  0  0  0  0  0  0
   22.4234  -20.4677  -15.4395 O   0  0  0  0  0  0  0  0  0  0  0  0
   19.9167  -22.6489  -17.3945 C   0  0  0  0  0  0  0  0  0  0  0  0
   19.0084  -21.6482  -16.7425 C   0  0  1  0  0  0  0  0  0  0  0  0
   18.0840  -22.2445  -15.8892 O   0  0  0  0  0  0  0  0  0  0  0  0
   19.7484  -20.6076  -15.9344 C   0  0  2  0  0  0  0  0  0  0  0  0
   20.3715  -21.2579  -14.8268 N   0  0  0  0  0  0  0  0  0  0  0  0
   18.9171  -19.4632  -15.5693 C   0  0  0  0  0  0  0  0  0  0  0  0
   18.6101  -19.2217  -14.2450 O   0  0  0  0  0  0  0  0  0  0  0  0
   18.4753  -18.6906  -16.4527 O   0  0  0  0  0  0  0  0  0  0  0  0
  2  3  2  0
  2  1  1  0
  4  3  1  0
  5  4  2  0
  6  5  1  0
  7  6  1  0
  7  9  1  0
  7  8  1  6
  9 10  2  0
 11  5  1  0
 11 12  2  0
 12  2  1  0
 13  9  1  0
 13 14  1  0
 14 15  1  1
 15 16  1  0
 17 14  1  0
 17 23  1  0
 18 17  2  0
 20 19  1  1
 21 20  1  0
 22 24  1  0
 22 23  1  1
 22 20  1  0
 24 25  1  0
 26 24  2  0
M  END
$$$$
