YCT.pdb
     RDKit          3D

 26 26  0  0  1  0  0  0  0  0999 V2000
   20.5316  -13.7365  -23.3060 O   0  0  0  0  0  0  0  0  0  0  0  0
   20.3127  -12.9720  -22.1648 C   0  0  0  0  0  0  0  0  0  0  0  0
   19.0889  -12.9627  -21.5299 C   0  0  0  0  0  0  0  0  0  0  0  0
   18.8537  -12.2123  -20.3994 C   0  0  0  0  0  0  0  0  0  0  0  0
   19.8576  -11.4191  -19.8420 C   0  0  0  0  0  0  0  0  0  0  0  0
   19.5734  -10.6220  -18.6251 C   0  0  0  0  0  0  0  0  0  0  0  0
   20.4139  -11.1955  -17.5107 C   0  0  2  0  0  0  0  0  0  0  0  0
   20.0159  -12.5551  -17.1996 N   0  0  0  0  0  0  0  0  0  0  0  0
   20.2132  -10.3793  -16.2856 C   0  0  0  0  0  0  0  0  0  0  0  0
   19.1429  -10.4142  -15.6261 O   0  0  0  0  0  0  0  0  0  0  0  0
   21.0793  -11.4275  -20.4745 C   0  0  0  0  0  0  0  0  0  0  0  0
   21.3136  -12.1898  -21.6204 C   0  0  0  0  0  0  0  0  0  0  0  0
   21.2468   -9.5047  -15.7959 N   0  0  0  0  0  0  0  0  0  0  0  0
   21.0519   -8.6976  -14.6056 C   0  0  1  0  0  0  0  0  0  0  0  0
   21.8369   -9.3369  -13.4687 C   0  0  0  0  0  0  0  0  0  0  0  0
   23.5002   -9.6758  -14.1021 S   0  0  0  0  0  0  0  0  0  0  0  0
   21.6045   -7.3249  -14.8485 C   0  0  0  0  0  0  0  0  0  0  0  0
   22.6057   -7.1863  -15.6018 O   0  0  0  0  0  0  0  0  0  0  0  0
   19.8846   -4.4522  -16.3586 C   0  0  0  0  0  0  0  0  0  0  0  0
   20.4742   -3.9945  -15.0570 C   0  0  1  0  0  0  0  0  0  0  0  0
   19.5287   -3.9312  -14.0371 O   0  0  0  0  0  0  0  0  0  0  0  0
   21.5958   -4.8797  -14.5653 C   0  0  2  0  0  0  0  0  0  0  0  0
   21.0559   -6.1679  -14.2710 N   0  0  0  0  0  0  0  0  0  0  0  0
   22.3623   -4.2855  -13.4728 C   0  0  0  0  0  0  0  0  0  0  0  0
   22.3533   -4.8675  -12.2209 O   0  0  0  0  0  0  0  0  0  0  0  0
   23.0343   -3.2437  -13.6608 O   0  0  0  0  0  0  0  0  0  0  0  0
  2  3  2  0
  2  1  1  0
  4  3  1  0
  5  4  2  0
  6  5  1  0
  7  6  1  0
  7  9  1  0
  7  8  1  1
  9 10  2  0
 11  5  1  0
 11 12  2  0
 12  2  1  0
 13  9  1  0
 13 14  1  0
 14 15  1  1
 15 16  1  0
 17 14  1  0
 17 23  1  0
 18 17  2  0
 20 19  1  6
 21 20  1  0
 22 24  1  0
 22 23  1  1
 22 20  1  0
 24 25  1  0
 26 24  2  0
M  END
$$$$
