YCT.pdb
     RDKit          3D

 26 26  0  0  1  0  0  0  0  0999 V2000
   25.6337  -21.1230   -6.7007 O   0  0  0  0  0  0  0  0  0  0  0  0
   25.7963  -20.7757   -8.0378 C   0  0  0  0  0  0  0  0  0  0  0  0
   24.7248  -20.7315   -8.9042 C   0  0  0  0  0  0  0  0  0  0  0  0
   24.8665  -20.3900  -10.2307 C   0  0  0  0  0  0  0  0  0  0  0  0
   26.1174  -20.0704  -10.7606 C   0  0  0  0  0  0  0  0  0  0  0  0
   26.2378  -19.7076  -12.1926 C   0  0  0  0  0  0  0  0  0  0  0  0
   25.8866  -20.9368  -12.9944 C   0  0  2  0  0  0  0  0  0  0  0  0
   27.0450  -21.7891  -13.1828 N   0  0  0  0  0  0  0  0  0  0  0  0
   25.4163  -20.5175  -14.3399 C   0  0  0  0  0  0  0  0  0  0  0  0
   26.1408  -20.6169  -15.3631 O   0  0  0  0  0  0  0  0  0  0  0  0
   27.1876  -20.1141   -9.8971 C   0  0  0  0  0  0  0  0  0  0  0  0
   27.0396  -20.4607   -8.5528 C   0  0  0  0  0  0  0  0  0  0  0  0
   24.0968  -19.9740  -14.5315 N   0  0  0  0  0  0  0  0  0  0  0  0
   23.5774  -19.7028  -15.8592 C   0  0  1  0  0  0  0  0  0  0  0  0
   23.4964  -21.0231  -16.6126 C   0  0  0  0  0  0  0  0  0  0  0  0
   22.9183  -20.6401  -18.2865 S   0  0  0  0  0  0  0  0  0  0  0  0
   22.1920  -19.1417  -15.7382 C   0  0  0  0  0  0  0  0  0  0  0  0
   21.3633  -19.7021  -14.9713 O   0  0  0  0  0  0  0  0  0  0  0  0
   19.2042  -15.2826  -16.5451 C   0  0  0  0  0  0  0  0  0  0  0  0
   20.4478  -16.0623  -16.8565 C   0  0  1  0  0  0  0  0  0  0  0  0
   21.6079  -15.3762  -16.5078 O   0  0  0  0  0  0  0  0  0  0  0  0
   20.5018  -17.4030  -16.1615 C   0  0  2  0  0  0  0  0  0  0  0  0
   21.7636  -18.0067  -16.4462 N   0  0  0  0  0  0  0  0  0  0  0  0
   19.3496  -18.2516  -16.4560 C   0  0  0  0  0  0  0  0  0  0  0  0
   18.2794  -18.2969  -15.5849 O   0  0  0  0  0  0  0  0  0  0  0  0
   19.3212  -18.9453  -17.5002 O   0  0  0  0  0  0  0  0  0  0  0  0
  2  3  2  0
  2  1  1  0
  4  3  1  0
  5  4  2  0
  6  5  1  0
  7  6  1  0
  7  9  1  0
  7  8  1  6
  9 10  2  0
 11  5  1  0
 11 12  2  0
 12  2  1  0
 13  9  1  0
 13 14  1  0
 14 15  1  6
 15 16  1  0
 17 14  1  0
 17 23  1  0
 18 17  2  0
 20 19  1  1
 21 20  1  0
 22 24  1  0
 22 23  1  6
 22 20  1  0
 24 25  1  0
 26 24  2  0
M  END
$$$$
