YCT.pdb
     RDKit          3D

 26 26  0  0  1  0  0  0  0  0999 V2000
   22.7022  -21.4679   -7.4210 O   0  0  0  0  0  0  0  0  0  0  0  0
   23.4723  -21.1246   -8.5274 C   0  0  0  0  0  0  0  0  0  0  0  0
   24.8283  -20.9010   -8.4175 C   0  0  0  0  0  0  0  0  0  0  0  0
   25.6066  -20.5605   -9.5014 C   0  0  0  0  0  0  0  0  0  0  0  0
   25.0477  -20.4254  -10.7731 C   0  0  0  0  0  0  0  0  0  0  0  0
   25.9115  -20.0569  -11.9198 C   0  0  0  0  0  0  0  0  0  0  0  0
   25.5471  -20.9713  -13.0636 C   0  0  2  0  0  0  0  0  0  0  0  0
   26.1790  -22.2689  -12.9198 N   0  0  0  0  0  0  0  0  0  0  0  0
   26.0355  -20.3742  -14.3334 C   0  0  0  0  0  0  0  0  0  0  0  0
   27.2604  -20.2896  -14.6055 O   0  0  0  0  0  0  0  0  0  0  0  0
   23.6946  -20.6483  -10.8840 C   0  0  0  0  0  0  0  0  0  0  0  0
   22.9092  -20.9935   -9.7827 C   0  0  0  0  0  0  0  0  0  0  0  0
   25.1172  -19.8621  -15.3170 N   0  0  0  0  0  0  0  0  0  0  0  0
   25.5777  -19.4092  -16.6166 C   0  0  1  0  0  0  0  0  0  0  0  0
   24.8061  -20.1737  -17.6831 C   0  0  0  0  0  0  0  0  0  0  0  0
   25.2854  -21.9146  -17.5340 S   0  0  0  0  0  0  0  0  0  0  0  0
   25.2687  -17.9493  -16.7645 C   0  0  0  0  0  0  0  0  0  0  0  0
   24.2024  -17.4906  -16.2728 O   0  0  0  0  0  0  0  0  0  0  0  0
   27.4865  -15.0714  -15.7187 C   0  0  0  0  0  0  0  0  0  0  0  0
   27.0499  -14.8786  -17.1412 C   0  0  1  0  0  0  0  0  0  0  0  0
   28.0350  -15.2433  -18.0548 O   0  0  0  0  0  0  0  0  0  0  0  0
   25.8069  -15.6614  -17.4958 C   0  0  2  0  0  0  0  0  0  0  0  0
   26.1188  -17.0529  -17.4330 N   0  0  0  0  0  0  0  0  0  0  0  0
   25.1988  -15.2379  -18.7548 C   0  0  0  0  0  0  0  0  0  0  0  0
   24.5884  -14.0033  -18.8509 O   0  0  0  0  0  0  0  0  0  0  0  0
   25.2253  -15.9896  -19.7581 O   0  0  0  0  0  0  0  0  0  0  0  0
  2  3  2  0
  2  1  1  0
  4  3  1  0
  5  4  2  0
  6  5  1  0
  7  6  1  0
  7  9  1  0
  7  8  1  1
  9 10  2  0
 11  5  1  0
 11 12  2  0
 12  2  1  0
 13  9  1  0
 13 14  1  0
 14 15  1  6
 15 16  1  0
 17 14  1  0
 17 23  1  0
 18 17  2  0
 20 19  1  1
 21 20  1  0
 22 24  1  0
 22 23  1  6
 22 20  1  0
 24 25  1  0
 26 24  2  0
M  END
$$$$
