YCT.pdb
     RDKit          3D

 26 26  0  0  1  0  0  0  0  0999 V2000
   29.9763  -15.9301  -18.9179 O   0  0  0  0  0  0  0  0  0  0  0  0
   29.1548  -16.7431  -18.1439 C   0  0  0  0  0  0  0  0  0  0  0  0
   28.3617  -17.7152  -18.7155 C   0  0  0  0  0  0  0  0  0  0  0  0
   27.5424  -18.5293  -17.9654 C   0  0  0  0  0  0  0  0  0  0  0  0
   27.4798  -18.4023  -16.5770 C   0  0  0  0  0  0  0  0  0  0  0  0
   26.5876  -19.2928  -15.7974 C   0  0  0  0  0  0  0  0  0  0  0  0
   27.4709  -20.2175  -14.9962 C   0  0  2  0  0  0  0  0  0  0  0  0
   28.2630  -21.0685  -15.8635 N   0  0  0  0  0  0  0  0  0  0  0  0
   26.6150  -21.1011  -14.1630 C   0  0  0  0  0  0  0  0  0  0  0  0
   26.0023  -22.0878  -14.6454 O   0  0  0  0  0  0  0  0  0  0  0  0
   28.2708  -17.4326  -16.0054 C   0  0  0  0  0  0  0  0  0  0  0  0
   29.1001  -16.6094  -16.7695 C   0  0  0  0  0  0  0  0  0  0  0  0
   26.4493  -20.8627  -12.7528 N   0  0  0  0  0  0  0  0  0  0  0  0
   25.3878  -21.5032  -11.9983 C   0  0  1  0  0  0  0  0  0  0  0  0
   25.6098  -21.2015  -10.5228 C   0  0  0  0  0  0  0  0  0  0  0  0
   25.6319  -19.3979  -10.3512 S   0  0  0  0  0  0  0  0  0  0  0  0
   24.0710  -20.9144  -12.4085 C   0  0  0  0  0  0  0  0  0  0  0  0
   23.9959  -19.6803  -12.6543 O   0  0  0  0  0  0  0  0  0  0  0  0
   22.2690  -21.5356  -15.3820 C   0  0  0  0  0  0  0  0  0  0  0  0
   21.2742  -21.7367  -14.2770 C   0  0  1  0  0  0  0  0  0  0  0  0
   21.0517  -23.0826  -13.9990 O   0  0  0  0  0  0  0  0  0  0  0  0
   21.6823  -21.0792  -12.9791 C   0  0  2  0  0  0  0  0  0  0  0  0
   22.8992  -21.6785  -12.5346 N   0  0  0  0  0  0  0  0  0  0  0  0
   20.6175  -21.0683  -11.9789 C   0  0  0  0  0  0  0  0  0  0  0  0
   19.4360  -20.3992  -12.2292 O   0  0  0  0  0  0  0  0  0  0  0  0
   20.7655  -21.6649  -10.8860 O   0  0  0  0  0  0  0  0  0  0  0  0
  2  3  2  0
  2  1  1  0
  4  3  1  0
  5  4  2  0
  6  5  1  0
  7  6  1  0
  7  9  1  0
  7  8  1  6
  9 10  2  0
 11  5  1  0
 11 12  2  0
 12  2  1  0
 13  9  1  0
 13 14  1  0
 14 15  1  1
 15 16  1  0
 17 14  1  0
 17 23  1  0
 18 17  2  0
 20 19  1  6
 21 20  1  0
 22 24  1  0
 22 23  1  1
 22 20  1  0
 24 25  1  0
 26 24  2  0
M  END
$$$$
