YCT.pdb
     RDKit          3D

 26 26  0  0  1  0  0  0  0  0999 V2000
   28.7996  -13.1504  -17.3184 O   0  0  0  0  0  0  0  0  0  0  0  0
   28.1552  -14.3064  -16.8904 C   0  0  0  0  0  0  0  0  0  0  0  0
   27.7996  -14.4840  -15.5702 C   0  0  0  0  0  0  0  0  0  0  0  0
   27.1613  -15.6213  -15.1282 C   0  0  0  0  0  0  0  0  0  0  0  0
   26.8438  -16.6556  -16.0098 C   0  0  0  0  0  0  0  0  0  0  0  0
   26.1573  -17.8678  -15.5035 C   0  0  0  0  0  0  0  0  0  0  0  0
   27.2174  -18.7677  -14.9171 C   0  0  2  0  0  0  0  0  0  0  0  0
   27.9842  -19.4234  -15.9592 N   0  0  0  0  0  0  0  0  0  0  0  0
   26.5587  -19.8284  -14.1119 C   0  0  0  0  0  0  0  0  0  0  0  0
   26.1797  -20.9152  -14.6187 O   0  0  0  0  0  0  0  0  0  0  0  0
   27.1981  -16.4797  -17.3275 C   0  0  0  0  0  0  0  0  0  0  0  0
   27.8451  -15.3250  -17.7715 C   0  0  0  0  0  0  0  0  0  0  0  0
   26.3242  -19.6553  -12.7019 N   0  0  0  0  0  0  0  0  0  0  0  0
   25.5919  -20.6432  -11.9312 C   0  0  1  0  0  0  0  0  0  0  0  0
   25.7790  -20.3228  -10.4548 C   0  0  0  0  0  0  0  0  0  0  0  0
   24.7011  -21.4483   -9.5306 S   0  0  0  0  0  0  0  0  0  0  0  0
   24.1322  -20.5356  -12.2572 C   0  0  0  0  0  0  0  0  0  0  0  0
   23.5951  -19.3967  -12.3176 O   0  0  0  0  0  0  0  0  0  0  0  0
   20.1937  -22.3512  -14.4324 C   0  0  0  0  0  0  0  0  0  0  0  0
   21.6404  -22.3691  -14.0350 C   0  0  1  0  0  0  0  0  0  0  0  0
   22.4806  -21.9530  -15.0642 O   0  0  0  0  0  0  0  0  0  0  0  0
   21.9419  -21.4966  -12.8386 C   0  0  2  0  0  0  0  0  0  0  0  0
   23.3201  -21.6551  -12.5024 N   0  0  0  0  0  0  0  0  0  0  0  0
   21.0229  -21.7103  -11.7233 C   0  0  0  0  0  0  0  0  0  0  0  0
   20.0494  -20.7744  -11.4361 O   0  0  0  0  0  0  0  0  0  0  0  0
   21.1087  -22.7433  -11.0177 O   0  0  0  0  0  0  0  0  0  0  0  0
  2  3  2  0
  2  1  1  0
  4  3  1  0
  5  4  2  0
  6  5  1  0
  7  6  1  0
  7  9  1  0
  7  8  1  6
  9 10  2  0
 11  5  1  0
 11 12  2  0
 12  2  1  0
 13  9  1  0
 13 14  1  0
 14 15  1  1
 15 16  1  0
 17 14  1  0
 17 23  1  0
 18 17  2  0
 20 19  1  6
 21 20  1  0
 22 24  1  0
 22 23  1  1
 22 20  1  0
 24 25  1  0
 26 24  2  0
M  END
$$$$
