YCT.pdb
     RDKit          3D

 26 26  0  0  1  0  0  0  0  0999 V2000
   17.3276  -22.6806  -17.6727 O   0  0  0  0  0  0  0  0  0  0  0  0
   18.4169  -22.1348  -17.0016 C   0  0  0  0  0  0  0  0  0  0  0  0
   18.4905  -20.7853  -16.7292 C   0  0  0  0  0  0  0  0  0  0  0  0
   19.5606  -20.2273  -16.0660 C   0  0  0  0  0  0  0  0  0  0  0  0
   20.6297  -21.0149  -15.6366 C   0  0  0  0  0  0  0  0  0  0  0  0
   21.7677  -20.3847  -14.9261 C   0  0  0  0  0  0  0  0  0  0  0  0
   21.7045  -20.8429  -13.4896 C   0  0  2  0  0  0  0  0  0  0  0  0
   20.6144  -20.1998  -12.7812 N   0  0  0  0  0  0  0  0  0  0  0  0
   22.9678  -20.4634  -12.8059 C   0  0  0  0  0  0  0  0  0  0  0  0
   23.1910  -19.2888  -12.4158 O   0  0  0  0  0  0  0  0  0  0  0  0
   20.5575  -22.3618  -15.9077 C   0  0  0  0  0  0  0  0  0  0  0  0
   19.4707  -22.9235  -16.5802 C   0  0  0  0  0  0  0  0  0  0  0  0
   24.0011  -21.4350  -12.5578 N   0  0  0  0  0  0  0  0  0  0  0  0
   25.3974  -21.0482  -12.4762 C   0  0  1  0  0  0  0  0  0  0  0  0
   26.1014  -22.0185  -11.5380 C   0  0  0  0  0  0  0  0  0  0  0  0
   27.8169  -21.4554  -11.3877 S   0  0  0  0  0  0  0  0  0  0  0  0
   26.0197  -21.1689  -13.8352 C   0  0  0  0  0  0  0  0  0  0  0  0
   25.8248  -22.2135  -14.5133 O   0  0  0  0  0  0  0  0  0  0  0  0
   25.9684  -18.4344  -16.6464 C   0  0  0  0  0  0  0  0  0  0  0  0
   27.3502  -18.9587  -16.3876 C   0  0  1  0  0  0  0  0  0  0  0  0
   28.1044  -18.1019  -15.5906 O   0  0  0  0  0  0  0  0  0  0  0  0
   27.3593  -20.3112  -15.7137 C   0  0  2  0  0  0  0  0  0  0  0  0
   26.8207  -20.1628  -14.4001 N   0  0  0  0  0  0  0  0  0  0  0  0
   28.6633  -20.9683  -15.7578 C   0  0  0  0  0  0  0  0  0  0  0  0
   29.1717  -21.4235  -16.9580 O   0  0  0  0  0  0  0  0  0  0  0  0
   29.3322  -21.1249  -14.7088 O   0  0  0  0  0  0  0  0  0  0  0  0
  2  3  2  0
  2  1  1  0
  4  3  1  0
  5  4  2  0
  6  5  1  0
  7  6  1  0
  7  9  1  0
  7  8  1  1
  9 10  2  0
 11  5  1  0
 11 12  2  0
 12  2  1  0
 13  9  1  0
 13 14  1  0
 14 15  1  1
 15 16  1  0
 17 14  1  0
 17 23  1  0
 18 17  2  0
 20 19  1  1
 21 20  1  0
 22 24  1  0
 22 23  1  1
 22 20  1  0
 24 25  1  0
 26 24  2  0
M  END
$$$$
