YCT.pdb
     RDKit          3D

 26 26  0  0  1  0  0  0  0  0999 V2000
   27.0500   -9.6148  -15.5291 O   0  0  0  0  0  0  0  0  0  0  0  0
   25.6889   -9.7620  -15.2830 C   0  0  0  0  0  0  0  0  0  0  0  0
   25.1743  -10.9326  -14.7675 C   0  0  0  0  0  0  0  0  0  0  0  0
   23.8301  -11.0964  -14.5174 C   0  0  0  0  0  0  0  0  0  0  0  0
   22.9204  -10.0708  -14.7790 C   0  0  0  0  0  0  0  0  0  0  0  0
   21.4796  -10.2779  -14.4999 C   0  0  0  0  0  0  0  0  0  0  0  0
   20.8320  -10.7042  -15.7946 C   0  0  2  0  0  0  0  0  0  0  0  0
   21.6464  -11.6809  -16.4920 N   0  0  0  0  0  0  0  0  0  0  0  0
   20.6983   -9.5190  -16.6806 C   0  0  0  0  0  0  0  0  0  0  0  0
   21.5341   -9.2612  -17.5842 O   0  0  0  0  0  0  0  0  0  0  0  0
   23.4326   -8.9022  -15.2933 C   0  0  0  0  0  0  0  0  0  0  0  0
   24.7962   -8.7401  -15.5453 C   0  0  0  0  0  0  0  0  0  0  0  0
   19.5939   -8.6058  -16.5409 N   0  0  0  0  0  0  0  0  0  0  0  0
   19.3888   -7.5195  -17.4811 C   0  0  1  0  0  0  0  0  0  0  0  0
   18.2810   -7.9298  -18.4412 C   0  0  0  0  0  0  0  0  0  0  0  0
   18.0618   -6.5616  -19.6086 S   0  0  0  0  0  0  0  0  0  0  0  0
   18.9381   -6.3013  -16.7317 C   0  0  0  0  0  0  0  0  0  0  0  0
   18.0726   -6.4201  -15.8230 O   0  0  0  0  0  0  0  0  0  0  0  0
   20.2651   -2.2439  -17.6555 C   0  0  0  0  0  0  0  0  0  0  0  0
   20.0309   -2.8172  -16.2888 C   0  0  1  0  0  0  0  0  0  0  0  0
   19.6596   -1.8479  -15.3611 O   0  0  0  0  0  0  0  0  0  0  0  0
   18.9617   -3.8847  -16.2642 C   0  0  2  0  0  0  0  0  0  0  0  0
   19.4379   -5.0151  -16.9943 N   0  0  0  0  0  0  0  0  0  0  0  0
   17.6528   -3.3993  -16.6947 C   0  0  0  0  0  0  0  0  0  0  0  0
   17.0221   -3.9723  -17.7810 O   0  0  0  0  0  0  0  0  0  0  0  0
   17.0904   -2.4600  -16.0833 O   0  0  0  0  0  0  0  0  0  0  0  0
  2  3  2  0
  2  1  1  0
  4  3  1  0
  5  4  2  0
  6  5  1  0
  7  6  1  0
  7  9  1  0
  7  8  1  6
  9 10  2  0
 11  5  1  0
 11 12  2  0
 12  2  1  0
 13  9  1  0
 13 14  1  0
 14 15  1  6
 15 16  1  0
 17 14  1  0
 17 23  1  0
 18 17  2  0
 20 19  1  6
 21 20  1  0
 22 24  1  0
 22 23  1  6
 22 20  1  0
 24 25  1  0
 26 24  2  0
M  END
$$$$
