YCT.pdb
     RDKit          3D

 26 26  0  0  1  0  0  0  0  0999 V2000
   20.1122  -23.0697   -7.2969 O   0  0  0  0  0  0  0  0  0  0  0  0
   21.0205  -22.2952   -8.0112 C   0  0  0  0  0  0  0  0  0  0  0  0
   20.8959  -22.1137   -9.3722 C   0  0  0  0  0  0  0  0  0  0  0  0
   21.7850  -21.3507  -10.0957 C   0  0  0  0  0  0  0  0  0  0  0  0
   22.8639  -20.7210   -9.4733 C   0  0  0  0  0  0  0  0  0  0  0  0
   23.8043  -19.9070  -10.2795 C   0  0  0  0  0  0  0  0  0  0  0  0
   24.8865  -20.8355  -10.7732 C   0  0  2  0  0  0  0  0  0  0  0  0
   25.7760  -21.2247   -9.6956 N   0  0  0  0  0  0  0  0  0  0  0  0
   25.7025  -20.1268  -11.7927 C   0  0  0  0  0  0  0  0  0  0  0  0
   26.5741  -19.2762  -11.4791 O   0  0  0  0  0  0  0  0  0  0  0  0
   22.9893  -20.9012   -8.1152 C   0  0  0  0  0  0  0  0  0  0  0  0
   22.0855  -21.6756   -7.3853 C   0  0  0  0  0  0  0  0  0  0  0  0
   25.5284  -20.3871  -13.1981 N   0  0  0  0  0  0  0  0  0  0  0  0
   26.3760  -19.7571  -14.1934 C   0  0  1  0  0  0  0  0  0  0  0  0
   27.7204  -20.4713  -14.1881 C   0  0  0  0  0  0  0  0  0  0  0  0
   27.3922  -22.2093  -13.7954 S   0  0  0  0  0  0  0  0  0  0  0  0
   25.7541  -19.9298  -15.5470 C   0  0  0  0  0  0  0  0  0  0  0  0
   25.3482  -21.0700  -15.8993 O   0  0  0  0  0  0  0  0  0  0  0  0
   24.9585  -16.5636  -18.0724 C   0  0  0  0  0  0  0  0  0  0  0  0
   24.0688  -17.7606  -17.9083 C   0  0  1  0  0  0  0  0  0  0  0  0
   23.2665  -17.9848  -19.0239 O   0  0  0  0  0  0  0  0  0  0  0  0
   24.8302  -19.0395  -17.6476 C   0  0  2  0  0  0  0  0  0  0  0  0
   25.5983  -18.8707  -16.4563 N   0  0  0  0  0  0  0  0  0  0  0  0
   25.6024  -19.4957  -18.8008 C   0  0  0  0  0  0  0  0  0  0  0  0
   25.0031  -20.2660  -19.7774 O   0  0  0  0  0  0  0  0  0  0  0  0
   26.8139  -19.1930  -18.9148 O   0  0  0  0  0  0  0  0  0  0  0  0
  2  3  2  0
  2  1  1  0
  4  3  1  0
  5  4  2  0
  6  5  1  0
  7  6  1  0
  7  9  1  0
  7  8  1  1
  9 10  2  0
 11  5  1  0
 11 12  2  0
 12  2  1  0
 13  9  1  0
 13 14  1  0
 14 15  1  6
 15 16  1  0
 17 14  1  0
 17 23  1  0
 18 17  2  0
 20 19  1  6
 21 20  1  0
 22 24  1  0
 22 23  1  1
 22 20  1  0
 24 25  1  0
 26 24  2  0
M  END
$$$$
