YCT.pdb
     RDKit          3D

 26 26  0  0  1  0  0  0  0  0999 V2000
   21.5131  -16.0815  -17.2144 O   0  0  0  0  0  0  0  0  0  0  0  0
   21.4123  -17.1080  -16.2812 C   0  0  0  0  0  0  0  0  0  0  0  0
   20.9921  -16.8670  -14.9904 C   0  0  0  0  0  0  0  0  0  0  0  0
   20.8862  -17.8703  -14.0531 C   0  0  0  0  0  0  0  0  0  0  0  0
   21.2043  -19.1906  -14.3749 C   0  0  0  0  0  0  0  0  0  0  0  0
   21.0809  -20.2482  -13.3439 C   0  0  0  0  0  0  0  0  0  0  0  0
   22.3307  -20.1952  -12.4998 C   0  0  2  0  0  0  0  0  0  0  0  0
   23.4995  -20.5792  -13.2681 N   0  0  0  0  0  0  0  0  0  0  0  0
   22.1966  -21.1596  -11.3776 C   0  0  0  0  0  0  0  0  0  0  0  0
   22.0477  -22.3935  -11.5697 O   0  0  0  0  0  0  0  0  0  0  0  0
   21.6237  -19.4324  -15.6627 C   0  0  0  0  0  0  0  0  0  0  0  0
   21.7295  -18.4124  -16.6099 C   0  0  0  0  0  0  0  0  0  0  0  0
   22.2321  -20.7175  -10.0077 N   0  0  0  0  0  0  0  0  0  0  0  0
   22.2348  -21.6649   -8.9084 C   0  0  1  0  0  0  0  0  0  0  0  0
   22.9743  -21.0289   -7.7396 C   0  0  0  0  0  0  0  0  0  0  0  0
   24.7312  -20.9988   -8.1812 S   0  0  0  0  0  0  0  0  0  0  0  0
   20.8205  -21.9291   -8.4857 C   0  0  0  0  0  0  0  0  0  0  0  0
   20.0511  -20.9564   -8.2604 O   0  0  0  0  0  0  0  0  0  0  0  0
   19.2160  -25.9256   -7.8462 C   0  0  0  0  0  0  0  0  0  0  0  0
   18.4642  -24.7419   -8.3801 C   0  0  1  0  0  0  0  0  0  0  0  0
   17.1032  -24.8015   -8.0928 O   0  0  0  0  0  0  0  0  0  0  0  0
   18.9709  -23.4222   -7.8463 C   0  0  2  0  0  0  0  0  0  0  0  0
   20.3010  -23.2243   -8.3253 N   0  0  0  0  0  0  0  0  0  0  0  0
   18.8283  -23.2934   -6.3981 C   0  0  0  0  0  0  0  0  0  0  0  0
   17.5813  -23.1025   -5.8370 O   0  0  0  0  0  0  0  0  0  0  0  0
   19.8344  -23.3549   -5.6522 O   0  0  0  0  0  0  0  0  0  0  0  0
  2  3  2  0
  2  1  1  0
  4  3  1  0
  5  4  2  0
  6  5  1  0
  7  6  1  0
  7  9  1  0
  7  8  1  6
  9 10  2  0
 11  5  1  0
 11 12  2  0
 12  2  1  0
 13  9  1  0
 13 14  1  0
 14 15  1  1
 15 16  1  0
 17 14  1  0
 17 23  1  0
 18 17  2  0
 20 19  1  1
 21 20  1  0
 22 24  1  0
 22 23  1  1
 22 20  1  0
 24 25  1  0
 26 24  2  0
M  END
$$$$
