YCT.pdb
     RDKit          3D

 26 26  0  0  1  0  0  0  0  0999 V2000
   28.7741  -13.5569  -17.4585 O   0  0  0  0  0  0  0  0  0  0  0  0
   28.1127  -14.6814  -16.9758 C   0  0  0  0  0  0  0  0  0  0  0  0
   27.7821  -14.8037  -15.6430 C   0  0  0  0  0  0  0  0  0  0  0  0
   27.1275  -15.9092  -15.1472 C   0  0  0  0  0  0  0  0  0  0  0  0
   26.7669  -16.9661  -15.9843 C   0  0  0  0  0  0  0  0  0  0  0  0
   26.0639  -18.1428  -15.4206 C   0  0  0  0  0  0  0  0  0  0  0  0
   27.1147  -19.0430  -14.8183 C   0  0  2  0  0  0  0  0  0  0  0  0
   27.8584  -19.7434  -15.8478 N   0  0  0  0  0  0  0  0  0  0  0  0
   26.4469  -20.0670  -13.9739 C   0  0  0  0  0  0  0  0  0  0  0  0
   25.9689  -21.1250  -14.4575 O   0  0  0  0  0  0  0  0  0  0  0  0
   27.0963  -16.8452  -17.3146 C   0  0  0  0  0  0  0  0  0  0  0  0
   27.7598  -15.7227  -17.8132 C   0  0  0  0  0  0  0  0  0  0  0  0
   26.3176  -19.8896  -12.5509 N   0  0  0  0  0  0  0  0  0  0  0  0
   25.4875  -20.7724  -11.7523 C   0  0  1  0  0  0  0  0  0  0  0  0
   25.7226  -20.4412  -10.2852 C   0  0  0  0  0  0  0  0  0  0  0  0
   24.5840  -21.4715   -9.3234 S   0  0  0  0  0  0  0  0  0  0  0  0
   24.0458  -20.5109  -12.0711 C   0  0  0  0  0  0  0  0  0  0  0  0
   23.6078  -19.3296  -12.0270 O   0  0  0  0  0  0  0  0  0  0  0  0
   22.2631  -20.7925  -15.1254 C   0  0  0  0  0  0  0  0  0  0  0  0
   21.4860  -21.6047  -14.1315 C   0  0  1  0  0  0  0  0  0  0  0  0
   21.7298  -22.9700  -14.2525 O   0  0  0  0  0  0  0  0  0  0  0  0
   21.7762  -21.2297  -12.6967 C   0  0  2  0  0  0  0  0  0  0  0  0
   23.1444  -21.5296  -12.4214 N   0  0  0  0  0  0  0  0  0  0  0  0
   20.8307  -21.8108  -11.7467 C   0  0  0  0  0  0  0  0  0  0  0  0
   19.5037  -21.4303  -11.7663 O   0  0  0  0  0  0  0  0  0  0  0  0
   21.2140  -22.6588  -10.9062 O   0  0  0  0  0  0  0  0  0  0  0  0
  2  3  2  0
  2  1  1  0
  4  3  1  0
  5  4  2  0
  6  5  1  0
  7  6  1  0
  7  9  1  0
  7  8  1  6
  9 10  2  0
 11  5  1  0
 11 12  2  0
 12  2  1  0
 13  9  1  0
 13 14  1  0
 14 15  1  1
 15 16  1  0
 17 14  1  0
 17 23  1  0
 18 17  2  0
 20 19  1  6
 21 20  1  0
 22 24  1  0
 22 23  1  1
 22 20  1  0
 24 25  1  0
 26 24  2  0
M  END
$$$$
