YCT.pdb
     RDKit          3D

 26 26  0  0  1  0  0  0  0  0999 V2000
   27.8912  -12.9708  -17.4822 O   0  0  0  0  0  0  0  0  0  0  0  0
   27.2989  -14.1100  -16.9472 C   0  0  0  0  0  0  0  0  0  0  0  0
   26.6149  -15.0051  -17.7420 C   0  0  0  0  0  0  0  0  0  0  0  0
   26.0223  -16.1379  -17.2301 C   0  0  0  0  0  0  0  0  0  0  0  0
   26.0900  -16.4309  -15.8673 C   0  0  0  0  0  0  0  0  0  0  0  0
   25.4413  -17.6575  -15.3464 C   0  0  0  0  0  0  0  0  0  0  0  0
   26.5426  -18.6179  -14.9694 C   0  0  2  0  0  0  0  0  0  0  0  0
   27.1665  -19.1894  -16.1475 N   0  0  0  0  0  0  0  0  0  0  0  0
   25.9597  -19.7369  -14.1847 C   0  0  0  0  0  0  0  0  0  0  0  0
   25.3590  -20.6965  -14.7323 O   0  0  0  0  0  0  0  0  0  0  0  0
   26.7724  -15.5385  -15.0730 C   0  0  0  0  0  0  0  0  0  0  0  0
   27.3718  -14.3913  -15.5960 C   0  0  0  0  0  0  0  0  0  0  0  0
   26.0593  -19.7704  -12.7488 N   0  0  0  0  0  0  0  0  0  0  0  0
   25.2947  -20.7194  -11.9607 C   0  0  1  0  0  0  0  0  0  0  0  0
   25.5306  -20.4086  -10.4893 C   0  0  0  0  0  0  0  0  0  0  0  0
   24.5044  -21.5585   -9.5367 S   0  0  0  0  0  0  0  0  0  0  0  0
   23.8356  -20.5373  -12.2546 C   0  0  0  0  0  0  0  0  0  0  0  0
   23.3353  -19.3812  -12.2061 O   0  0  0  0  0  0  0  0  0  0  0  0
   19.6813  -22.3352  -14.1770 C   0  0  0  0  0  0  0  0  0  0  0  0
   21.1520  -22.3983  -13.8868 C   0  0  1  0  0  0  0  0  0  0  0  0
   21.9285  -22.2105  -15.0270 O   0  0  0  0  0  0  0  0  0  0  0  0
   21.6047  -21.3753  -12.8708 C   0  0  2  0  0  0  0  0  0  0  0  0
   22.9846  -21.6044  -12.5861 N   0  0  0  0  0  0  0  0  0  0  0  0
   20.7484  -21.3194  -11.6886 C   0  0  0  0  0  0  0  0  0  0  0  0
   20.8524  -22.2866  -10.7089 O   0  0  0  0  0  0  0  0  0  0  0  0
   19.9126  -20.3946  -11.5521 O   0  0  0  0  0  0  0  0  0  0  0  0
  2  3  2  0
  2  1  1  0
  4  3  1  0
  5  4  2  0
  6  5  1  0
  7  6  1  0
  7  9  1  0
  7  8  1  6
  9 10  2  0
 11  5  1  0
 11 12  2  0
 12  2  1  0
 13  9  1  0
 13 14  1  0
 14 15  1  1
 15 16  1  0
 17 14  1  0
 17 23  1  0
 18 17  2  0
 20 19  1  6
 21 20  1  0
 22 24  1  0
 22 23  1  1
 22 20  1  0
 24 25  1  0
 26 24  2  0
M  END
$$$$
