YCT.pdb
     RDKit          3D

 26 26  0  0  1  0  0  0  0  0999 V2000
   29.3675  -14.8895  -18.0211 O   0  0  0  0  0  0  0  0  0  0  0  0
   28.6306  -15.9159  -17.4394 C   0  0  0  0  0  0  0  0  0  0  0  0
   28.1775  -15.8281  -16.1402 C   0  0  0  0  0  0  0  0  0  0  0  0
   27.4468  -16.8339  -15.5478 C   0  0  0  0  0  0  0  0  0  0  0  0
   27.1306  -17.9997  -16.2469 C   0  0  0  0  0  0  0  0  0  0  0  0
   26.3434  -19.0647  -15.5815 C   0  0  0  0  0  0  0  0  0  0  0  0
   27.3187  -19.9320  -14.8240 C   0  0  2  0  0  0  0  0  0  0  0  0
   28.0555  -20.8007  -15.7220 N   0  0  0  0  0  0  0  0  0  0  0  0
   26.5637  -20.7988  -13.8826 C   0  0  0  0  0  0  0  0  0  0  0  0
   26.0479  -21.8878  -14.2427 O   0  0  0  0  0  0  0  0  0  0  0  0
   27.5822  -18.0885  -17.5434 C   0  0  0  0  0  0  0  0  0  0  0  0
   28.3225  -17.0665  -18.1404 C   0  0  0  0  0  0  0  0  0  0  0  0
   26.3892  -20.4249  -12.5032 N   0  0  0  0  0  0  0  0  0  0  0  0
   25.4325  -21.1068  -11.6512 C   0  0  1  0  0  0  0  0  0  0  0  0
   25.6513  -20.6312  -10.2218 C   0  0  0  0  0  0  0  0  0  0  0  0
   24.2870  -21.2943   -9.2311 S   0  0  0  0  0  0  0  0  0  0  0  0
   24.0441  -20.7244  -12.0695 C   0  0  0  0  0  0  0  0  0  0  0  0
   23.7186  -19.5068  -12.0909 O   0  0  0  0  0  0  0  0  0  0  0  0
   22.5084  -21.3954  -15.3005 C   0  0  0  0  0  0  0  0  0  0  0  0
   21.5358  -21.8578  -14.2556 C   0  0  1  0  0  0  0  0  0  0  0  0
   21.5489  -23.2400  -14.0902 O   0  0  0  0  0  0  0  0  0  0  0  0
   21.7853  -21.2478  -12.8959 C   0  0  2  0  0  0  0  0  0  0  0  0
   23.0728  -21.6673  -12.4442 N   0  0  0  0  0  0  0  0  0  0  0  0
   20.7043  -21.4970  -11.9453 C   0  0  0  0  0  0  0  0  0  0  0  0
   19.4412  -20.9921  -12.1816 O   0  0  0  0  0  0  0  0  0  0  0  0
   20.9123  -22.1703  -10.9081 O   0  0  0  0  0  0  0  0  0  0  0  0
  2  3  2  0
  2  1  1  0
  4  3  1  0
  5  4  2  0
  6  5  1  0
  7  6  1  0
  7  9  1  0
  7  8  1  6
  9 10  2  0
 11  5  1  0
 11 12  2  0
 12  2  1  0
 13  9  1  0
 13 14  1  0
 14 15  1  1
 15 16  1  0
 17 14  1  0
 17 23  1  0
 18 17  2  0
 20 19  1  6
 21 20  1  0
 22 24  1  0
 22 23  1  1
 22 20  1  0
 24 25  1  0
 26 24  2  0
M  END
$$$$
