GQC.pdb
     RDKit          3D

 20 19  0  0  1  0  0  0  0  0999 V2000
   23.2769  -21.6303   -6.7987 N   0  0  0  0  0  0  0  0  0  0  0  0
   23.9690  -20.5404   -7.4505 C   0  0  0  0  0  0  0  0  0  0  0  0
   24.3667  -20.9756   -8.8063 C   0  0  0  0  0  0  0  0  0  0  0  0
   25.0438  -22.0208   -8.9386 O   0  0  0  0  0  0  0  0  0  0  0  0
   21.7366  -19.7783  -14.4289 N   0  0  0  0  0  0  0  0  0  0  0  0
   22.7870  -20.6882  -14.6696 C   0  0  0  0  0  0  0  0  0  0  0  0
   22.7975  -21.2189  -15.8308 O   0  0  0  0  0  0  0  0  0  0  0  0
   23.8246  -21.0321  -13.6747 C   0  0  0  0  0  0  0  0  0  0  0  0
   23.4869  -20.3543  -12.3698 C   0  0  0  0  0  0  0  0  0  0  0  0
   24.4719  -20.6995  -11.2749 C   0  0  2  0  0  0  0  0  0  0  0  0
   24.0198  -20.2658   -9.9856 N   0  0  0  0  0  0  0  0  0  0  0  0
   25.7679  -20.0926  -11.6635 C   0  0  0  0  0  0  0  0  0  0  0  0
   26.2880  -19.2912  -10.8523 O   0  0  0  0  0  0  0  0  0  0  0  0
   26.4306  -20.3729  -12.8862 N   0  0  0  0  0  0  0  0  0  0  0  0
   27.8374  -20.1280  -13.0060 C   0  0  1  0  0  0  0  0  0  0  0  0
   28.6589  -20.8052  -11.9426 C   0  0  0  0  0  0  0  0  0  0  0  0
   30.4236  -20.7027  -12.2264 S   0  0  0  0  0  0  0  0  0  0  0  0
   28.2926  -20.6528  -14.3165 C   0  0  0  0  0  0  0  0  0  0  0  0
   29.5686  -20.3341  -14.7520 O   0  0  0  0  0  0  0  0  0  0  0  0
   27.5310  -21.3775  -15.0239 O   0  0  0  0  0  0  0  0  0  0  0  0
  2  1  1  0
  2  3  1  0
  3 11  1  0
  4  3  2  0
  6  5  1  0
  6  8  1  0
  7  6  2  0
  9  8  1  0
 10  9  1  6
 11 10  1  0
 12 10  1  0
 12 14  1  0
 13 12  2  0
 14 15  1  0
 15 18  1  0
 15 16  1  1
 16 17  1  0
 18 20  2  0
 18 19  1  0
M  END
$$$$
