GQC.pdb
     RDKit          3D

 20 19  0  0  1  0  0  0  0  0999 V2000
   12.9262   -9.0985   -7.5962 N   0  0  0  0  0  0  0  0  0  0  0  0
   13.9166   -8.0454   -7.5574 C   0  0  0  0  0  0  0  0  0  0  0  0
   14.8850   -8.2657   -8.6527 C   0  0  0  0  0  0  0  0  0  0  0  0
   14.9712   -9.4017   -9.1729 O   0  0  0  0  0  0  0  0  0  0  0  0
   16.2809   -8.3738  -13.7150 N   0  0  0  0  0  0  0  0  0  0  0  0
   15.0021   -8.5713  -13.1540 C   0  0  0  0  0  0  0  0  0  0  0  0
   14.2965   -9.4821  -13.7042 O   0  0  0  0  0  0  0  0  0  0  0  0
   14.4757   -7.7995  -12.0085 C   0  0  0  0  0  0  0  0  0  0  0  0
   15.5337   -6.8239  -11.5558 C   0  0  0  0  0  0  0  0  0  0  0  0
   16.3792   -7.3791  -10.4310 C   0  0  2  0  0  0  0  0  0  0  0  0
   15.7362   -7.2477   -9.1566 N   0  0  0  0  0  0  0  0  0  0  0  0
   17.6825   -6.6746  -10.4925 C   0  0  0  0  0  0  0  0  0  0  0  0
   17.9010   -5.8030   -9.6188 O   0  0  0  0  0  0  0  0  0  0  0  0
   18.6715   -6.9378  -11.4750 N   0  0  0  0  0  0  0  0  0  0  0  0
   19.8958   -6.1932  -11.4703 C   0  0  1  0  0  0  0  0  0  0  0  0
   21.1219   -7.0499  -11.6344 C   0  0  0  0  0  0  0  0  0  0  0  0
   22.6238   -6.1101  -11.8916 S   0  0  0  0  0  0  0  0  0  0  0  0
   19.8672   -5.2409  -12.6072 C   0  0  0  0  0  0  0  0  0  0  0  0
   20.3880   -3.9705  -12.4219 O   0  0  0  0  0  0  0  0  0  0  0  0
   19.3770   -5.5812  -13.7250 O   0  0  0  0  0  0  0  0  0  0  0  0
  2  1  1  0
  2  3  1  0
  3 11  1  0
  4  3  2  0
  6  5  1  0
  6  8  1  0
  7  6  2  0
  9  8  1  0
 10  9  1  6
 11 10  1  0
 12 10  1  0
 12 14  1  0
 13 12  2  0
 14 15  1  0
 15 18  1  0
 15 16  1  6
 16 17  1  0
 18 20  2  0
 18 19  1  0
M  END
$$$$
