GQC.pdb
     RDKit          3D

 20 19  0  0  1  0  0  0  0  0999 V2000
   28.5597  -22.2882  -16.2808 N   0  0  0  0  0  0  0  0  0  0  0  0
   27.9596  -21.0139  -15.9528 C   0  0  0  0  0  0  0  0  0  0  0  0
   26.6505  -21.2585  -15.3105 C   0  0  0  0  0  0  0  0  0  0  0  0
   25.9322  -22.1968  -15.7251 O   0  0  0  0  0  0  0  0  0  0  0  0
   24.6174  -20.2508   -9.4348 N   0  0  0  0  0  0  0  0  0  0  0  0
   25.3022  -21.3642   -9.9643 C   0  0  0  0  0  0  0  0  0  0  0  0
   25.8184  -22.1516   -9.1018 O   0  0  0  0  0  0  0  0  0  0  0  0
   25.4368  -21.6385  -11.4105 C   0  0  0  0  0  0  0  0  0  0  0  0
   24.8288  -20.4913  -12.1788 C   0  0  0  0  0  0  0  0  0  0  0  0
   24.8572  -20.7256  -13.6730 C   0  0  2  0  0  0  0  0  0  0  0  0
   26.1531  -20.4787  -14.2337 N   0  0  0  0  0  0  0  0  0  0  0  0
   23.8037  -19.8613  -14.2580 C   0  0  0  0  0  0  0  0  0  0  0  0
   24.1382  -18.6996  -14.5887 O   0  0  0  0  0  0  0  0  0  0  0  0
   22.4634  -20.2822  -14.4556 N   0  0  0  0  0  0  0  0  0  0  0  0
   21.5273  -19.4028  -15.0911 C   0  0  1  0  0  0  0  0  0  0  0  0
   21.6771  -19.3438  -16.5873 C   0  0  0  0  0  0  0  0  0  0  0  0
   20.3980  -18.3894  -17.3986 S   0  0  0  0  0  0  0  0  0  0  0  0
   20.1572  -19.8927  -14.8035 C   0  0  0  0  0  0  0  0  0  0  0  0
   19.1081  -18.9886  -14.8386 O   0  0  0  0  0  0  0  0  0  0  0  0
   19.9495  -21.1128  -14.5313 O   0  0  0  0  0  0  0  0  0  0  0  0
  2  1  1  0
  2  3  1  0
  3 11  1  0
  4  3  2  0
  6  5  1  0
  6  8  1  0
  7  6  2  0
  9  8  1  0
 10  9  1  1
 11 10  1  0
 12 10  1  0
 12 14  1  0
 13 12  2  0
 14 15  1  0
 15 18  1  0
 15 16  1  6
 16 17  1  0
 18 20  2  0
 18 19  1  0
M  END
$$$$
