GQC.pdb
     RDKit          3D

 20 19  0  0  1  0  0  0  0  0999 V2000
   17.5510  -14.4346  -16.2986 N   0  0  0  0  0  0  0  0  0  0  0  0
   17.8501  -13.3514  -17.2089 C   0  0  0  0  0  0  0  0  0  0  0  0
   18.5778  -12.2984  -16.4689 C   0  0  0  0  0  0  0  0  0  0  0  0
   18.4736  -12.2446  -15.2220 O   0  0  0  0  0  0  0  0  0  0  0  0
   23.8105   -9.0013  -17.6832 N   0  0  0  0  0  0  0  0  0  0  0  0
   23.2491   -8.3994  -16.5379 C   0  0  0  0  0  0  0  0  0  0  0  0
   24.0005   -7.5622  -15.9342 O   0  0  0  0  0  0  0  0  0  0  0  0
   21.8891   -8.6893  -16.0366 C   0  0  0  0  0  0  0  0  0  0  0  0
   21.2977   -9.8059  -16.8608 C   0  0  0  0  0  0  0  0  0  0  0  0
   19.9241  -10.2104  -16.3730 C   0  0  2  0  0  0  0  0  0  0  0  0
   19.4009  -11.3295  -17.1002 N   0  0  0  0  0  0  0  0  0  0  0  0
   19.0656   -9.0058  -16.4762 C   0  0  0  0  0  0  0  0  0  0  0  0
   18.6328   -8.7101  -17.6146 O   0  0  0  0  0  0  0  0  0  0  0  0
   18.7199   -8.1911  -15.3674 N   0  0  0  0  0  0  0  0  0  0  0  0
   17.8369   -7.0773  -15.5499 C   0  0  1  0  0  0  0  0  0  0  0  0
   16.5554   -7.1910  -14.7694 C   0  0  0  0  0  0  0  0  0  0  0  0
   15.4455   -8.4497  -15.3931 S   0  0  0  0  0  0  0  0  0  0  0  0
   18.5298   -5.8512  -15.0848 C   0  0  0  0  0  0  0  0  0  0  0  0
   17.8865   -4.6321  -15.2240 O   0  0  0  0  0  0  0  0  0  0  0  0
   19.6862   -5.9162  -14.5707 O   0  0  0  0  0  0  0  0  0  0  0  0
  2  1  1  0
  2  3  1  0
  3 11  1  0
  4  3  2  0
  6  5  1  0
  6  8  1  0
  7  6  2  0
  9  8  1  0
 10  9  1  6
 11 10  1  0
 12 10  1  0
 12 14  1  0
 13 12  2  0
 14 15  1  0
 15 18  1  0
 15 16  1  1
 16 17  1  0
 18 20  2  0
 18 19  1  0
M  END
$$$$
