GQC.pdb
     RDKit          3D

 20 19  0  0  1  0  0  0  0  0999 V2000
   27.3277  -15.7540  -16.8943 N   0  0  0  0  0  0  0  0  0  0  0  0
   27.9460  -16.7466  -16.0434 C   0  0  0  0  0  0  0  0  0  0  0  0
   26.8980  -17.3764  -15.2120 C   0  0  0  0  0  0  0  0  0  0  0  0
   25.9982  -16.6598  -14.7168 O   0  0  0  0  0  0  0  0  0  0  0  0
   22.6258  -19.1786  -15.3602 N   0  0  0  0  0  0  0  0  0  0  0  0
   22.6724  -20.1601  -14.3484 C   0  0  0  0  0  0  0  0  0  0  0  0
   21.5712  -20.3707  -13.7375 O   0  0  0  0  0  0  0  0  0  0  0  0
   23.8904  -20.9162  -13.9882 C   0  0  0  0  0  0  0  0  0  0  0  0
   25.0404  -20.4054  -14.8203 C   0  0  0  0  0  0  0  0  0  0  0  0
   25.8288  -19.3298  -14.1064 C   0  0  2  0  0  0  0  0  0  0  0  0
   26.8523  -18.7684  -14.9384 N   0  0  0  0  0  0  0  0  0  0  0  0
   26.3674  -19.9480  -12.8708 C   0  0  0  0  0  0  0  0  0  0  0  0
   27.3165  -20.7555  -13.0046 O   0  0  0  0  0  0  0  0  0  0  0  0
   25.8668  -19.6718  -11.5724 N   0  0  0  0  0  0  0  0  0  0  0  0
   26.4098  -20.3599  -10.4387 C   0  0  1  0  0  0  0  0  0  0  0  0
   26.0372  -19.7360   -9.1210 C   0  0  0  0  0  0  0  0  0  0  0  0
   26.7407  -18.1084   -8.8742 S   0  0  0  0  0  0  0  0  0  0  0  0
   25.8808  -21.7456  -10.4364 C   0  0  0  0  0  0  0  0  0  0  0  0
   26.3630  -22.6383   -9.4931 O   0  0  0  0  0  0  0  0  0  0  0  0
   25.0062  -22.1064  -11.2793 O   0  0  0  0  0  0  0  0  0  0  0  0
  2  1  1  0
  2  3  1  0
  3 11  1  0
  4  3  2  0
  6  5  1  0
  6  8  1  0
  7  6  2  0
  9  8  1  0
 10  9  1  6
 11 10  1  0
 12 10  1  0
 12 14  1  0
 13 12  2  0
 14 15  1  0
 15 18  1  0
 15 16  1  1
 16 17  1  0
 18 20  2  0
 18 19  1  0
M  END
$$$$
