GQC.pdb
     RDKit          3D

 20 19  0  0  1  0  0  0  0  0999 V2000
   29.4006  -23.6832  -16.4259 N   0  0  0  0  0  0  0  0  0  0  0  0
   29.3733  -22.2818  -16.0695 C   0  0  0  0  0  0  0  0  0  0  0  0
   28.0696  -21.9784  -15.4414 C   0  0  0  0  0  0  0  0  0  0  0  0
   27.0667  -22.6594  -15.7557 O   0  0  0  0  0  0  0  0  0  0  0  0
   26.1639  -22.1189  -10.7593 N   0  0  0  0  0  0  0  0  0  0  0  0
   25.1911  -21.1195  -10.9691 C   0  0  0  0  0  0  0  0  0  0  0  0
   24.0835  -21.2956  -10.3587 O   0  0  0  0  0  0  0  0  0  0  0  0
   25.3979  -19.9343  -11.8278 C   0  0  0  0  0  0  0  0  0  0  0  0
   26.7323  -20.0653  -12.5194 C   0  0  0  0  0  0  0  0  0  0  0  0
   26.6080  -20.7055  -13.8843 C   0  0  2  0  0  0  0  0  0  0  0  0
   27.8864  -20.9434  -14.4875 N   0  0  0  0  0  0  0  0  0  0  0  0
   25.7472  -19.8113  -14.6956 C   0  0  0  0  0  0  0  0  0  0  0  0
   26.1636  -18.6461  -14.8948 O   0  0  0  0  0  0  0  0  0  0  0  0
   24.5004  -20.2077  -15.2443 N   0  0  0  0  0  0  0  0  0  0  0  0
   23.7491  -19.2861  -16.0440 C   0  0  1  0  0  0  0  0  0  0  0  0
   23.4959  -19.7726  -17.4453 C   0  0  0  0  0  0  0  0  0  0  0  0
   24.9816  -20.2739  -18.3093 S   0  0  0  0  0  0  0  0  0  0  0  0
   22.4276  -19.0809  -15.4024 C   0  0  0  0  0  0  0  0  0  0  0  0
   21.5644  -18.1437  -15.9461 O   0  0  0  0  0  0  0  0  0  0  0  0
   22.0942  -19.7485  -14.3783 O   0  0  0  0  0  0  0  0  0  0  0  0
  2  1  1  0
  2  3  1  0
  3 11  1  0
  4  3  2  0
  6  5  1  0
  6  8  1  0
  7  6  2  0
  9  8  1  0
 10  9  1  1
 11 10  1  0
 12 10  1  0
 12 14  1  0
 13 12  2  0
 14 15  1  0
 15 18  1  0
 15 16  1  6
 16 17  1  0
 18 20  2  0
 18 19  1  0
M  END
$$$$
