GQC.pdb
     RDKit          3D

 20 19  0  0  1  0  0  0  0  0999 V2000
   14.4812  -12.3285  -12.2159 N   0  0  0  0  0  0  0  0  0  0  0  0
   15.4542  -11.9309  -11.2226 C   0  0  0  0  0  0  0  0  0  0  0  0
   15.7966  -10.5087  -11.4382 C   0  0  0  0  0  0  0  0  0  0  0  0
   15.6314  -10.0057  -12.5731 O   0  0  0  0  0  0  0  0  0  0  0  0
   15.6048   -5.7530   -7.3617 N   0  0  0  0  0  0  0  0  0  0  0  0
   15.9819   -5.1691   -8.5888 C   0  0  0  0  0  0  0  0  0  0  0  0
   15.9588   -3.8928   -8.6190 O   0  0  0  0  0  0  0  0  0  0  0  0
   16.3831   -5.9437   -9.7821 C   0  0  0  0  0  0  0  0  0  0  0  0
   16.2530   -7.4140   -9.4703 C   0  0  0  0  0  0  0  0  0  0  0  0
   16.5871   -8.2827  -10.6628 C   0  0  2  0  0  0  0  0  0  0  0  0
   16.3098   -9.6674  -10.4167 N   0  0  0  0  0  0  0  0  0  0  0  0
   18.0123   -8.0305  -10.9854 C   0  0  0  0  0  0  0  0  0  0  0  0
   18.8577   -8.3424  -10.1143 O   0  0  0  0  0  0  0  0  0  0  0  0
   18.4515   -7.4641  -12.2098 N   0  0  0  0  0  0  0  0  0  0  0  0
   19.8544   -7.3540  -12.4806 C   0  0  1  0  0  0  0  0  0  0  0  0
   20.2803   -8.0531  -13.7432 C   0  0  0  0  0  0  0  0  0  0  0  0
   19.8920   -9.8007  -13.7608 S   0  0  0  0  0  0  0  0  0  0  0  0
   20.1882   -5.9173  -12.6373 C   0  0  0  0  0  0  0  0  0  0  0  0
   21.5207   -5.5533  -12.7428 O   0  0  0  0  0  0  0  0  0  0  0  0
   19.2742   -5.0403  -12.6740 O   0  0  0  0  0  0  0  0  0  0  0  0
  2  1  1  0
  2  3  1  0
  3 11  1  0
  4  3  2  0
  6  5  1  0
  6  8  1  0
  7  6  2  0
  9  8  1  0
 10  9  1  1
 11 10  1  0
 12 10  1  0
 12 14  1  0
 13 12  2  0
 14 15  1  0
 15 18  1  0
 15 16  1  6
 16 17  1  0
 18 20  2  0
 18 19  1  0
M  END
$$$$
