GQC.pdb
     RDKit          3D

 20 19  0  0  1  0  0  0  0  0999 V2000
   16.0235  -22.0537  -11.0014 N   0  0  0  0  0  0  0  0  0  0  0  0
   17.2618  -22.3191  -10.3030 C   0  0  0  0  0  0  0  0  0  0  0  0
   17.2315  -23.7080   -9.7969 C   0  0  0  0  0  0  0  0  0  0  0  0
   16.1267  -24.2483   -9.5607 O   0  0  0  0  0  0  0  0  0  0  0  0
   21.2357  -28.4251  -10.7631 N   0  0  0  0  0  0  0  0  0  0  0  0
   20.2609  -28.9584   -9.8945 C   0  0  0  0  0  0  0  0  0  0  0  0
   20.3227  -30.2202   -9.7094 O   0  0  0  0  0  0  0  0  0  0  0  0
   19.2218  -28.1486   -9.2241 C   0  0  0  0  0  0  0  0  0  0  0  0
   19.4078  -26.7035   -9.6153 C   0  0  0  0  0  0  0  0  0  0  0  0
   18.3215  -25.8145   -9.0514 C   0  0  2  0  0  0  0  0  0  0  0  0
   18.4011  -24.4764   -9.5594 N   0  0  0  0  0  0  0  0  0  0  0  0
   18.4458  -25.8771   -7.5751 C   0  0  0  0  0  0  0  0  0  0  0  0
   19.0868  -24.9557   -7.0176 O   0  0  0  0  0  0  0  0  0  0  0  0
   17.8835  -26.9113   -6.7833 N   0  0  0  0  0  0  0  0  0  0  0  0
   17.6652  -26.6974   -5.3833 C   0  0  1  0  0  0  0  0  0  0  0  0
   16.7035  -25.5783   -5.0882 C   0  0  0  0  0  0  0  0  0  0  0  0
   16.6252  -25.1390   -3.3544 S   0  0  0  0  0  0  0  0  0  0  0  0
   17.0908  -27.9369   -4.8057 C   0  0  0  0  0  0  0  0  0  0  0  0
   17.3651  -28.2416   -3.4824 O   0  0  0  0  0  0  0  0  0  0  0  0
   16.3640  -28.7020   -5.5073 O   0  0  0  0  0  0  0  0  0  0  0  0
  2  1  1  0
  2  3  1  0
  3 11  1  0
  4  3  2  0
  6  5  1  0
  6  8  1  0
  7  6  2  0
  9  8  1  0
 10  9  1  6
 11 10  1  0
 12 10  1  0
 12 14  1  0
 13 12  2  0
 14 15  1  0
 15 18  1  0
 15 16  1  6
 16 17  1  0
 18 20  2  0
 18 19  1  0
M  END
$$$$
