GQC.pdb
     RDKit          3D

 20 19  0  0  1  0  0  0  0  0999 V2000
   28.4197  -25.8498  -16.8432 N   0  0  0  0  0  0  0  0  0  0  0  0
   27.1179  -25.2198  -16.8525 C   0  0  0  0  0  0  0  0  0  0  0  0
   27.2107  -23.9307  -16.1344 C   0  0  0  0  0  0  0  0  0  0  0  0
   28.0680  -23.7944  -15.2317 O   0  0  0  0  0  0  0  0  0  0  0  0
   28.0230  -18.9465  -17.1965 N   0  0  0  0  0  0  0  0  0  0  0  0
   27.2272  -18.4552  -16.1408 C   0  0  0  0  0  0  0  0  0  0  0  0
   27.6150  -17.3513  -15.6295 O   0  0  0  0  0  0  0  0  0  0  0  0
   26.0201  -19.1389  -15.6306 C   0  0  0  0  0  0  0  0  0  0  0  0
   25.8434  -20.4342  -16.3836 C   0  0  0  0  0  0  0  0  0  0  0  0
   26.4683  -21.6060  -15.6593 C   0  0  2  0  0  0  0  0  0  0  0  0
   26.3707  -22.8211  -16.4135 N   0  0  0  0  0  0  0  0  0  0  0  0
   25.7997  -21.6940  -14.3387 C   0  0  0  0  0  0  0  0  0  0  0  0
   24.6705  -22.2369  -14.3066 O   0  0  0  0  0  0  0  0  0  0  0  0
   26.3692  -21.2015  -13.1363 N   0  0  0  0  0  0  0  0  0  0  0  0
   25.6510  -21.3310  -11.9030 C   0  0  1  0  0  0  0  0  0  0  0  0
   26.4103  -20.8212  -10.7080 C   0  0  0  0  0  0  0  0  0  0  0  0
   25.4294  -20.7512   -9.2121 S   0  0  0  0  0  0  0  0  0  0  0  0
   24.4025  -20.5366  -12.0044 C   0  0  0  0  0  0  0  0  0  0  0  0
   23.2197  -21.0990  -11.5527 O   0  0  0  0  0  0  0  0  0  0  0  0
   24.4163  -19.3679  -12.4939 O   0  0  0  0  0  0  0  0  0  0  0  0
  2  1  1  0
  2  3  1  0
  3 11  1  0
  4  3  2  0
  6  5  1  0
  6  8  1  0
  7  6  2  0
  9  8  1  0
 10  9  1  6
 11 10  1  0
 12 10  1  0
 12 14  1  0
 13 12  2  0
 14 15  1  0
 15 18  1  0
 15 16  1  1
 16 17  1  0
 18 20  2  0
 18 19  1  0
M  END
$$$$
