GQC.pdb
     RDKit          3D

 20 19  0  0  1  0  0  0  0  0999 V2000
   18.9607  -27.5988   -1.0337 N   0  0  0  0  0  0  0  0  0  0  0  0
   18.5316  -27.9478   -2.3699 C   0  0  0  0  0  0  0  0  0  0  0  0
   18.1943  -26.7061   -3.0982 C   0  0  0  0  0  0  0  0  0  0  0  0
   18.1960  -25.6162   -2.4814 O   0  0  0  0  0  0  0  0  0  0  0  0
   18.5925  -25.4049   -9.2803 N   0  0  0  0  0  0  0  0  0  0  0  0
   18.1723  -24.2080   -8.6639 C   0  0  0  0  0  0  0  0  0  0  0  0
   18.1718  -23.1753   -9.4147 O   0  0  0  0  0  0  0  0  0  0  0  0
   17.7533  -24.1116   -7.2497 C   0  0  0  0  0  0  0  0  0  0  0  0
   17.9527  -25.4553   -6.5935 C   0  0  0  0  0  0  0  0  0  0  0  0
   17.5357  -25.4487   -5.1394 C   0  0  2  0  0  0  0  0  0  0  0  0
   17.8633  -26.6777   -4.4782 N   0  0  0  0  0  0  0  0  0  0  0  0
   16.0829  -25.1530   -5.1160 C   0  0  0  0  0  0  0  0  0  0  0  0
   15.3058  -26.0895   -5.4157 O   0  0  0  0  0  0  0  0  0  0  0  0
   15.5454  -23.8847   -4.7768 N   0  0  0  0  0  0  0  0  0  0  0  0
   14.1286  -23.7278   -4.6304 C   0  0  1  0  0  0  0  0  0  0  0  0
   13.7141  -23.2459   -3.2664 C   0  0  0  0  0  0  0  0  0  0  0  0
   14.5899  -24.0475   -1.9264 S   0  0  0  0  0  0  0  0  0  0  0  0
   13.6665  -22.7187   -5.6144 C   0  0  0  0  0  0  0  0  0  0  0  0
   12.3218  -22.3866   -5.6427 O   0  0  0  0  0  0  0  0  0  0  0  0
   14.4839  -22.1710   -6.4129 O   0  0  0  0  0  0  0  0  0  0  0  0
  2  1  1  0
  2  3  1  0
  3 11  1  0
  4  3  2  0
  6  5  1  0
  6  8  1  0
  7  6  2  0
  9  8  1  0
 10  9  1  6
 11 10  1  0
 12 10  1  0
 12 14  1  0
 13 12  2  0
 14 15  1  0
 15 18  1  0
 15 16  1  1
 16 17  1  0
 18 20  2  0
 18 19  1  0
M  END
$$$$
