GQC.pdb
     RDKit          3D

 20 19  0  0  1  0  0  0  0  0999 V2000
   17.1798  -12.3552  -15.7607 N   0  0  0  0  0  0  0  0  0  0  0  0
   16.9434  -11.1411  -16.5102 C   0  0  0  0  0  0  0  0  0  0  0  0
   17.3542   -9.9866  -15.6829 C   0  0  0  0  0  0  0  0  0  0  0  0
   16.7343   -9.7434  -14.6223 O   0  0  0  0  0  0  0  0  0  0  0  0
   22.9712   -7.5679  -14.8276 N   0  0  0  0  0  0  0  0  0  0  0  0
   22.3268   -8.6823  -14.2512 C   0  0  0  0  0  0  0  0  0  0  0  0
   23.0893   -9.4950  -13.6281 O   0  0  0  0  0  0  0  0  0  0  0  0
   20.8722   -8.9303  -14.3385 C   0  0  0  0  0  0  0  0  0  0  0  0
   20.2280   -7.7771  -15.0672 C   0  0  0  0  0  0  0  0  0  0  0  0
   18.7371   -7.9693  -15.2363 C   0  0  2  0  0  0  0  0  0  0  0  0
   18.4278   -9.1242  -16.0271 N   0  0  0  0  0  0  0  0  0  0  0  0
   18.2113   -6.7133  -15.8233 C   0  0  0  0  0  0  0  0  0  0  0  0
   18.2070   -6.6265  -17.0736 O   0  0  0  0  0  0  0  0  0  0  0  0
   17.7235   -5.6291  -15.0492 N   0  0  0  0  0  0  0  0  0  0  0  0
   17.1469   -4.4909  -15.7016 C   0  0  1  0  0  0  0  0  0  0  0  0
   15.6847   -4.3014  -15.4007 C   0  0  0  0  0  0  0  0  0  0  0  0
   14.6546   -5.6488  -15.9739 S   0  0  0  0  0  0  0  0  0  0  0  0
   17.8554   -3.2753  -15.2322 C   0  0  0  0  0  0  0  0  0  0  0  0
   17.5672   -2.0635  -15.8386 O   0  0  0  0  0  0  0  0  0  0  0  0
   18.7067   -3.3426  -14.2960 O   0  0  0  0  0  0  0  0  0  0  0  0
  2  1  1  0
  2  3  1  0
  3 11  1  0
  4  3  2  0
  6  5  1  0
  6  8  1  0
  7  6  2  0
  9  8  1  0
 10  9  1  6
 11 10  1  0
 12 10  1  0
 12 14  1  0
 13 12  2  0
 14 15  1  0
 15 18  1  0
 15 16  1  1
 16 17  1  0
 18 20  2  0
 18 19  1  0
M  END
$$$$
