GQC.pdb
     RDKit          3D

 20 19  0  0  1  0  0  0  0  0999 V2000
   22.1339  -12.7652  -16.9589 N   0  0  0  0  0  0  0  0  0  0  0  0
   21.1161  -12.6150  -15.9425 C   0  0  0  0  0  0  0  0  0  0  0  0
   20.5374  -11.2586  -16.0489 C   0  0  0  0  0  0  0  0  0  0  0  0
   20.9281  -10.4976  -16.9635 O   0  0  0  0  0  0  0  0  0  0  0  0
   15.3979  -11.1201  -14.1021 N   0  0  0  0  0  0  0  0  0  0  0  0
   15.5471  -10.9638  -15.4959 C   0  0  0  0  0  0  0  0  0  0  0  0
   14.6787  -11.5672  -16.2114 O   0  0  0  0  0  0  0  0  0  0  0  0
   16.6198  -10.1658  -16.1263 C   0  0  0  0  0  0  0  0  0  0  0  0
   17.4452   -9.5216  -15.0401 C   0  0  0  0  0  0  0  0  0  0  0  0
   18.9183   -9.4934  -15.3827 C   0  0  2  0  0  0  0  0  0  0  0  0
   19.5488  -10.7614  -15.1600 N   0  0  0  0  0  0  0  0  0  0  0  0
   19.5202   -8.4030  -14.5779 C   0  0  0  0  0  0  0  0  0  0  0  0
   19.6487   -8.6067  -13.3480 O   0  0  0  0  0  0  0  0  0  0  0  0
   19.9475   -7.1665  -15.1266 N   0  0  0  0  0  0  0  0  0  0  0  0
   20.6150   -6.2106  -14.2935 C   0  0  1  0  0  0  0  0  0  0  0  0
   22.1153   -6.2684  -14.3939 C   0  0  0  0  0  0  0  0  0  0  0  0
   22.9458   -4.9817  -13.4667 S   0  0  0  0  0  0  0  0  0  0  0  0
   20.1964   -4.8514  -14.7149 C   0  0  0  0  0  0  0  0  0  0  0  0
   20.1042   -3.8578  -13.7540 O   0  0  0  0  0  0  0  0  0  0  0  0
   19.9284   -4.6033  -15.9283 O   0  0  0  0  0  0  0  0  0  0  0  0
  2  1  1  0
  2  3  1  0
  3 11  1  0
  4  3  2  0
  6  5  1  0
  6  8  1  0
  7  6  2  0
  9  8  1  0
 10  9  1  1
 11 10  1  0
 12 10  1  0
 12 14  1  0
 13 12  2  0
 14 15  1  0
 15 18  1  0
 15 16  1  6
 16 17  1  0
 18 20  2  0
 18 19  1  0
M  END
$$$$
