GQC.pdb
     RDKit          3D

 20 19  0  0  1  0  0  0  0  0999 V2000
   16.8922  -13.3218  -15.7736 N   0  0  0  0  0  0  0  0  0  0  0  0
   16.7991  -12.1539  -16.6214 C   0  0  0  0  0  0  0  0  0  0  0  0
   17.1542  -10.9606  -15.8239 C   0  0  0  0  0  0  0  0  0  0  0  0
   16.6367  -10.8045  -14.6942 O   0  0  0  0  0  0  0  0  0  0  0  0
   22.2394   -8.9180  -13.7291 N   0  0  0  0  0  0  0  0  0  0  0  0
   22.0486   -9.4487  -15.0218 C   0  0  0  0  0  0  0  0  0  0  0  0
   23.1048   -9.8680  -15.6039 O   0  0  0  0  0  0  0  0  0  0  0  0
   20.7345   -9.5327  -15.6933 C   0  0  0  0  0  0  0  0  0  0  0  0
   19.6968   -8.8889  -14.8075 C   0  0  0  0  0  0  0  0  0  0  0  0
   18.3443   -8.8050  -15.4797 C   0  0  2  0  0  0  0  0  0  0  0  0
   18.0622   -9.9659  -16.2720 N   0  0  0  0  0  0  0  0  0  0  0  0
   18.3422   -7.5528  -16.2740 C   0  0  0  0  0  0  0  0  0  0  0  0
   18.5916   -7.6539  -17.4980 O   0  0  0  0  0  0  0  0  0  0  0  0
   18.0761   -6.2735  -15.7216 N   0  0  0  0  0  0  0  0  0  0  0  0
   17.9987   -5.1291  -16.5806 C   0  0  1  0  0  0  0  0  0  0  0  0
   16.8282   -4.2314  -16.2833 C   0  0  0  0  0  0  0  0  0  0  0  0
   15.2761   -4.8368  -16.9387 S   0  0  0  0  0  0  0  0  0  0  0  0
   19.2306   -4.3236  -16.3971 C   0  0  0  0  0  0  0  0  0  0  0  0
   19.4214   -3.2105  -17.1996 O   0  0  0  0  0  0  0  0  0  0  0  0
   20.0913   -4.6459  -15.5246 O   0  0  0  0  0  0  0  0  0  0  0  0
  2  1  1  0
  2  3  1  0
  3 11  1  0
  4  3  2  0
  6  5  1  0
  6  8  1  0
  7  6  2  0
  9  8  1  0
 10  9  1  6
 11 10  1  0
 12 10  1  0
 12 14  1  0
 13 12  2  0
 14 15  1  0
 15 18  1  0
 15 16  1  1
 16 17  1  0
 18 20  2  0
 18 19  1  0
M  END
$$$$
