GQC.pdb
     RDKit          3D

 20 19  0  0  1  0  0  0  0  0999 V2000
   19.4626  -13.1052  -15.6673 N   0  0  0  0  0  0  0  0  0  0  0  0
   19.8114  -12.7028  -17.0119 C   0  0  0  0  0  0  0  0  0  0  0  0
   19.9604  -11.2321  -17.0422 C   0  0  0  0  0  0  0  0  0  0  0  0
   20.4972  -10.6927  -18.0369 O   0  0  0  0  0  0  0  0  0  0  0  0
   15.8967  -10.0218  -15.1796 N   0  0  0  0  0  0  0  0  0  0  0  0
   15.9460   -9.3674  -16.4280 C   0  0  0  0  0  0  0  0  0  0  0  0
   14.9461   -9.5731  -17.1949 O   0  0  0  0  0  0  0  0  0  0  0  0
   17.0588   -8.4951  -16.8587 C   0  0  0  0  0  0  0  0  0  0  0  0
   18.0774   -8.4268  -15.7479 C   0  0  0  0  0  0  0  0  0  0  0  0
   19.4254   -8.9644  -16.1748 C   0  0  2  0  0  0  0  0  0  0  0  0
   19.5233  -10.3828  -15.9923 N   0  0  0  0  0  0  0  0  0  0  0  0
   20.4452   -8.2139  -15.4031 C   0  0  0  0  0  0  0  0  0  0  0  0
   20.6297   -8.5619  -14.2134 O   0  0  0  0  0  0  0  0  0  0  0  0
   21.2046   -7.1428  -15.9404 N   0  0  0  0  0  0  0  0  0  0  0  0
   22.2744   -6.5743  -15.1750 C   0  0  1  0  0  0  0  0  0  0  0  0
   23.3291   -5.9085  -16.0169 C   0  0  0  0  0  0  0  0  0  0  0  0
   24.0877   -7.0031  -17.2133 S   0  0  0  0  0  0  0  0  0  0  0  0
   21.7072   -5.5386  -14.2775 C   0  0  0  0  0  0  0  0  0  0  0  0
   20.3874   -5.1569  -14.4555 O   0  0  0  0  0  0  0  0  0  0  0  0
   22.4142   -5.0133  -13.3665 O   0  0  0  0  0  0  0  0  0  0  0  0
  2  1  1  0
  2  3  1  0
  3 11  1  0
  4  3  2  0
  6  5  1  0
  6  8  1  0
  7  6  2  0
  9  8  1  0
 10  9  1  1
 11 10  1  0
 12 10  1  0
 12 14  1  0
 13 12  2  0
 14 15  1  0
 15 18  1  0
 15 16  1  6
 16 17  1  0
 18 20  2  0
 18 19  1  0
M  END
$$$$
