GQC.pdb
     RDKit          3D

 20 19  0  0  1  0  0  0  0  0999 V2000
   23.8690  -11.6556  -19.0214 N   0  0  0  0  0  0  0  0  0  0  0  0
   24.0833  -11.0090  -17.7457 C   0  0  0  0  0  0  0  0  0  0  0  0
   22.9626  -10.0786  -17.4924 C   0  0  0  0  0  0  0  0  0  0  0  0
   22.9678   -8.9522  -18.0399 O   0  0  0  0  0  0  0  0  0  0  0  0
   17.1549  -11.2732  -15.1700 N   0  0  0  0  0  0  0  0  0  0  0  0
   17.2075   -9.8720  -15.3228 C   0  0  0  0  0  0  0  0  0  0  0  0
   16.1126   -9.2545  -15.0989 O   0  0  0  0  0  0  0  0  0  0  0  0
   18.4247   -9.1301  -15.7135 C   0  0  0  0  0  0  0  0  0  0  0  0
   19.5467  -10.1169  -15.9213 C   0  0  0  0  0  0  0  0  0  0  0  0
   20.8095   -9.4497  -16.4200 C   0  0  2  0  0  0  0  0  0  0  0  0
   21.8636  -10.3933  -16.6510 N   0  0  0  0  0  0  0  0  0  0  0  0
   21.1700   -8.4198  -15.4160 C   0  0  0  0  0  0  0  0  0  0  0  0
   21.6138   -8.8262  -14.3167 O   0  0  0  0  0  0  0  0  0  0  0  0
   21.0376   -7.0251  -15.6400 N   0  0  0  0  0  0  0  0  0  0  0  0
   21.4540   -6.0989  -14.6290 C   0  0  1  0  0  0  0  0  0  0  0  0
   22.4830   -5.1099  -15.1058 C   0  0  0  0  0  0  0  0  0  0  0  0
   22.8454   -3.8226  -13.9155 S   0  0  0  0  0  0  0  0  0  0  0  0
   20.2681   -5.3244  -14.1885 C   0  0  0  0  0  0  0  0  0  0  0  0
   19.0831   -5.4681  -14.8916 O   0  0  0  0  0  0  0  0  0  0  0  0
   20.3364   -4.5473  -13.1899 O   0  0  0  0  0  0  0  0  0  0  0  0
  2  1  1  0
  2  3  1  0
  3 11  1  0
  4  3  2  0
  6  5  1  0
  6  8  1  0
  7  6  2  0
  9  8  1  0
 10  9  1  1
 11 10  1  0
 12 10  1  0
 12 14  1  0
 13 12  2  0
 14 15  1  0
 15 18  1  0
 15 16  1  6
 16 17  1  0
 18 20  2  0
 18 19  1  0
M  END
$$$$
