ADE.pdb
     RDKit          3D

 23 22  0  0  1  0  0  0  0  0999 V2000
    7.6928  -12.1839   19.3662 C   0  0  0  0  0  0  0  0  0  0  0  0
    8.3792  -13.5360   19.1503 C   0  0  2  0  0  0  0  0  0  0  0  0
    7.4509  -14.5573   18.7849 N   0  0  0  0  0  0  0  0  0  0  0  0
    9.1309  -13.8414   20.3943 C   0  0  0  0  0  0  0  0  0  0  0  0
   10.1022  -13.1326   20.6854 O   0  0  0  0  0  0  0  0  0  0  0  0
    8.8052  -14.8977   21.2736 N   0  0  0  0  0  0  0  0  0  0  0  0
    9.5715  -15.2681   22.4207 C   0  0  1  0  0  0  0  0  0  0  0  0
    8.8250  -16.1100   23.4186 C   0  0  0  0  0  0  0  0  0  0  0  0
    9.6486  -16.4257   24.5954 C   0  0  0  0  0  0  0  0  0  0  0  0
    9.2186  -17.2071   25.4671 O   0  0  0  0  0  0  0  0  0  0  0  0
   10.8742  -15.9008   22.0533 C   0  0  0  0  0  0  0  0  0  0  0  0
   10.8530  -16.9856   21.4287 O   0  0  0  0  0  0  0  0  0  0  0  0
   10.8961  -15.8532   24.7280 O   0  0  0  0  0  0  0  0  0  0  0  0
   12.1254  -15.3337   22.3768 N   0  0  0  0  0  0  0  0  0  0  0  0
   13.4045  -15.8305   21.8593 C   0  0  1  0  0  0  0  0  0  0  0  0
   13.9939  -14.9278   20.8448 C   0  0  0  0  0  0  0  0  0  0  0  0
   15.2356  -15.4785   20.2499 C   0  0  0  0  0  0  0  0  0  0  0  0
   15.9668  -14.6103   19.3332 C   0  0  0  0  0  0  0  0  0  0  0  0
   16.8753  -13.8843   19.8570 O   0  0  0  0  0  0  0  0  0  0  0  0
   14.3015  -16.2175   22.9696 C   0  0  0  0  0  0  0  0  0  0  0  0
   15.3489  -17.1020   22.8984 O   0  0  0  0  0  0  0  0  0  0  0  0
   15.8028  -14.4743   17.9819 O   0  0  0  0  0  0  0  0  0  0  0  0
   14.0923  -15.6893   24.1000 O   0  0  0  0  0  0  0  0  0  0  0  0
  2  4  1  0
  2  3  1  0
  2  1  1  1
  4  5  2  0
  6  7  1  0
  6  4  1  0
  7 11  1  0
  8  9  1  0
  7  8  1  1
  9 10  2  0
 11 12  2  0
 11 14  1  0
 13  9  1  0
 14 15  1  0
 15 16  1  1
 16 17  1  0
 17 18  1  0
 18 22  1  0
 19 18  2  0
 20 21  1  0
 20 15  1  0
 23 20  2  0
M  END
$$$$
