ADE.pdb
     RDKit          3D

 23 22  0  0  1  0  0  0  0  0999 V2000
    7.8798  -12.3444   19.3750 C   0  0  0  0  0  0  0  0  0  0  0  0
    8.6659  -13.4800   18.7131 C   0  0  2  0  0  0  0  0  0  0  0  0
    7.8323  -14.3095   17.9036 N   0  0  0  0  0  0  0  0  0  0  0  0
    9.3534  -14.2201   19.8018 C   0  0  0  0  0  0  0  0  0  0  0  0
   10.1810  -13.6156   20.4947 O   0  0  0  0  0  0  0  0  0  0  0  0
    9.1208  -15.5811   20.0995 N   0  0  0  0  0  0  0  0  0  0  0  0
    9.7329  -16.2959   21.1742 C   0  0  1  0  0  0  0  0  0  0  0  0
    9.0119  -17.5548   21.5706 C   0  0  0  0  0  0  0  0  0  0  0  0
    9.6742  -18.2362   22.6930 C   0  0  0  0  0  0  0  0  0  0  0  0
   10.7773  -18.7923   22.5227 O   0  0  0  0  0  0  0  0  0  0  0  0
   11.1817  -16.5634   20.9258 C   0  0  0  0  0  0  0  0  0  0  0  0
   11.5129  -17.0756   19.8325 O   0  0  0  0  0  0  0  0  0  0  0  0
    9.0685  -18.2560   23.9318 O   0  0  0  0  0  0  0  0  0  0  0  0
   12.1928  -16.2661   21.8645 N   0  0  0  0  0  0  0  0  0  0  0  0
   13.6174  -16.1770   21.5282 C   0  0  1  0  0  0  0  0  0  0  0  0
   13.8779  -15.2424   20.4101 C   0  0  0  0  0  0  0  0  0  0  0  0
   15.3190  -15.1521   20.0717 C   0  0  0  0  0  0  0  0  0  0  0  0
   15.6926  -14.1932   19.0374 C   0  0  0  0  0  0  0  0  0  0  0  0
   16.0049  -13.0258   19.4452 O   0  0  0  0  0  0  0  0  0  0  0  0
   14.4283  -15.9596   22.7458 C   0  0  0  0  0  0  0  0  0  0  0  0
   15.7927  -16.0732   22.8453 O   0  0  0  0  0  0  0  0  0  0  0  0
   15.7509  -14.3855   17.6842 O   0  0  0  0  0  0  0  0  0  0  0  0
   13.8157  -15.6383   23.8051 O   0  0  0  0  0  0  0  0  0  0  0  0
  2  4  1  0
  2  3  1  0
  2  1  1  1
  4  5  2  0
  6  7  1  0
  6  4  1  0
  7 11  1  0
  8  9  1  0
  7  8  1  6
  9 10  2  0
 11 12  2  0
 11 14  1  0
 13  9  1  0
 14 15  1  0
 15 16  1  6
 16 17  1  0
 17 18  1  0
 18 22  1  0
 19 18  2  0
 20 21  1  0
 20 15  1  0
 23 20  2  0
M  END
$$$$
