ADE.pdb
     RDKit          3D

 23 22  0  0  1  0  0  0  0  0999 V2000
   -0.3612  -26.3845   28.6447 C   0  0  0  0  0  0  0  0  0  0  0  0
   -1.8829  -26.5585   28.6536 C   0  0  2  0  0  0  0  0  0  0  0  0
   -2.3314  -27.4172   27.6050 N   0  0  0  0  0  0  0  0  0  0  0  0
   -2.4728  -25.1969   28.5925 C   0  0  0  0  0  0  0  0  0  0  0  0
   -2.2859  -24.4299   29.5450 O   0  0  0  0  0  0  0  0  0  0  0  0
   -3.2397  -24.7175   27.5075 N   0  0  0  0  0  0  0  0  0  0  0  0
   -3.9071  -23.4549   27.4769 C   0  0  1  0  0  0  0  0  0  0  0  0
   -3.8525  -22.7578   26.1454 C   0  0  0  0  0  0  0  0  0  0  0  0
   -4.3293  -21.3694   26.2330 C   0  0  0  0  0  0  0  0  0  0  0  0
   -4.7919  -20.9345   27.3063 O   0  0  0  0  0  0  0  0  0  0  0  0
   -5.3116  -23.5427   27.9789 C   0  0  0  0  0  0  0  0  0  0  0  0
   -6.1913  -23.9905   27.2090 O   0  0  0  0  0  0  0  0  0  0  0  0
   -4.2615  -20.5539   25.1230 O   0  0  0  0  0  0  0  0  0  0  0  0
   -5.6922  -23.1451   29.2785 N   0  0  0  0  0  0  0  0  0  0  0  0
   -7.0803  -23.1241   29.7513 C   0  0  1  0  0  0  0  0  0  0  0  0
   -7.3257  -24.1068   30.8309 C   0  0  0  0  0  0  0  0  0  0  0  0
   -7.1689  -25.5071   30.3683 C   0  0  0  0  0  0  0  0  0  0  0  0
   -7.4051  -26.5558   31.3548 C   0  0  0  0  0  0  0  0  0  0  0  0
   -7.5739  -26.1637   32.5567 O   0  0  0  0  0  0  0  0  0  0  0  0
   -7.5134  -21.7391   30.0365 C   0  0  0  0  0  0  0  0  0  0  0  0
   -6.7149  -20.6225   30.0440 O   0  0  0  0  0  0  0  0  0  0  0  0
   -7.4686  -27.9078   31.1562 O   0  0  0  0  0  0  0  0  0  0  0  0
   -8.7364  -21.5530   30.3016 O   0  0  0  0  0  0  0  0  0  0  0  0
  2  4  1  0
  2  3  1  0
  2  1  1  6
  4  5  2  0
  6  7  1  0
  6  4  1  0
  7 11  1  0
  8  9  1  0
  7  8  1  6
  9 10  2  0
 11 12  2  0
 11 14  1  0
 13  9  1  0
 14 15  1  0
 15 16  1  1
 16 17  1  0
 17 18  1  0
 18 22  1  0
 19 18  2  0
 20 21  1  0
 20 15  1  0
 23 20  2  0
M  END
$$$$
