ADE.pdb
     RDKit          3D

 23 22  0  0  1  0  0  0  0  0999 V2000
    8.7858  -17.2064   17.0440 C   0  0  0  0  0  0  0  0  0  0  0  0
    9.0557  -16.2836   18.2364 C   0  0  2  0  0  0  0  0  0  0  0  0
    8.5409  -14.9688   18.0252 N   0  0  0  0  0  0  0  0  0  0  0  0
   10.5206  -16.3104   18.4792 C   0  0  0  0  0  0  0  0  0  0  0  0
   11.0695  -17.4051   18.6547 O   0  0  0  0  0  0  0  0  0  0  0  0
   11.3342  -15.1565   18.5229 N   0  0  0  0  0  0  0  0  0  0  0  0
   12.7453  -15.1629   18.7441 C   0  0  1  0  0  0  0  0  0  0  0  0
   13.5186  -14.2472   17.8356 C   0  0  0  0  0  0  0  0  0  0  0  0
   14.9659  -14.3195   18.0862 C   0  0  0  0  0  0  0  0  0  0  0  0
   15.4692  -15.3654   18.5423 O   0  0  0  0  0  0  0  0  0  0  0  0
   13.0969  -14.9200   20.1757 C   0  0  0  0  0  0  0  0  0  0  0  0
   13.2076  -13.7363   20.5682 O   0  0  0  0  0  0  0  0  0  0  0  0
   15.7605  -13.2256   17.8143 O   0  0  0  0  0  0  0  0  0  0  0  0
   13.3096  -15.9608   21.1049 N   0  0  0  0  0  0  0  0  0  0  0  0
   13.5653  -15.7405   22.5321 C   0  0  1  0  0  0  0  0  0  0  0  0
   12.5490  -16.3838   23.3952 C   0  0  0  0  0  0  0  0  0  0  0  0
   13.1570  -17.1977   24.4756 C   0  0  0  0  0  0  0  0  0  0  0  0
   12.2391  -17.8499   25.4034 C   0  0  0  0  0  0  0  0  0  0  0  0
   12.2180  -19.1245   25.3643 O   0  0  0  0  0  0  0  0  0  0  0  0
   14.9733  -16.0482   22.8634 C   0  0  0  0  0  0  0  0  0  0  0  0
   15.6538  -15.6378   23.9827 O   0  0  0  0  0  0  0  0  0  0  0  0
   11.3965  -17.2691   26.3112 O   0  0  0  0  0  0  0  0  0  0  0  0
   15.6246  -16.7570   22.0423 O   0  0  0  0  0  0  0  0  0  0  0  0
  2  4  1  0
  2  3  1  0
  2  1  1  6
  4  5  2  0
  6  7  1  0
  6  4  1  0
  7 11  1  0
  8  9  1  0
  7  8  1  6
  9 10  2  0
 11 12  2  0
 11 14  1  0
 13  9  1  0
 14 15  1  0
 15 16  1  1
 16 17  1  0
 17 18  1  0
 18 22  1  0
 19 18  2  0
 20 21  1  0
 20 15  1  0
 23 20  2  0
M  END
$$$$
