ADE.pdb
     RDKit          3D

 23 22  0  0  1  0  0  0  0  0999 V2000
    7.2049  -14.4797   18.7695 C   0  0  0  0  0  0  0  0  0  0  0  0
    8.2803  -13.7426   19.5734 C   0  0  2  0  0  0  0  0  0  0  0  0
    8.4240  -12.3840   19.1586 N   0  0  0  0  0  0  0  0  0  0  0  0
    9.5314  -14.5326   19.4454 C   0  0  0  0  0  0  0  0  0  0  0  0
    9.4969  -15.7395   19.7150 O   0  0  0  0  0  0  0  0  0  0  0  0
   10.7683  -13.9899   19.0322 N   0  0  0  0  0  0  0  0  0  0  0  0
   11.9762  -14.7375   18.8822 C   0  0  1  0  0  0  0  0  0  0  0  0
   12.7764  -14.3822   17.6594 C   0  0  0  0  0  0  0  0  0  0  0  0
   13.9164  -15.2910   17.4664 C   0  0  0  0  0  0  0  0  0  0  0  0
   13.7916  -16.5086   17.7050 O   0  0  0  0  0  0  0  0  0  0  0  0
   12.8262  -14.6954   20.1101 C   0  0  0  0  0  0  0  0  0  0  0  0
   13.4749  -13.6516   20.3488 O   0  0  0  0  0  0  0  0  0  0  0  0
   15.1211  -14.7887   17.0212 O   0  0  0  0  0  0  0  0  0  0  0  0
   12.9320  -15.7757   21.0122 N   0  0  0  0  0  0  0  0  0  0  0  0
   13.6623  -15.7094   22.2822 C   0  0  1  0  0  0  0  0  0  0  0  0
   13.1613  -16.6863   23.2752 C   0  0  0  0  0  0  0  0  0  0  0  0
   11.7478  -16.4387   23.6496 C   0  0  0  0  0  0  0  0  0  0  0  0
   11.1884  -17.2826   24.7002 C   0  0  0  0  0  0  0  0  0  0  0  0
    9.9351  -17.1629   24.9042 O   0  0  0  0  0  0  0  0  0  0  0  0
   15.1222  -15.7287   22.0461 C   0  0  0  0  0  0  0  0  0  0  0  0
   16.0855  -15.1928   22.8641 O   0  0  0  0  0  0  0  0  0  0  0  0
   11.8364  -18.1872   25.4960 O   0  0  0  0  0  0  0  0  0  0  0  0
   15.5351  -16.2902   20.9902 O   0  0  0  0  0  0  0  0  0  0  0  0
  2  4  1  0
  2  3  1  0
  2  1  1  6
  4  5  2  0
  6  7  1  0
  6  4  1  0
  7 11  1  0
  8  9  1  0
  7  8  1  6
  9 10  2  0
 11 12  2  0
 11 14  1  0
 13  9  1  0
 14 15  1  0
 15 16  1  1
 16 17  1  0
 17 18  1  0
 18 22  1  0
 19 18  2  0
 20 21  1  0
 20 15  1  0
 23 20  2  0
M  END
$$$$
