ADE.pdb
     RDKit          3D

 23 22  0  0  1  0  0  0  0  0999 V2000
   10.1157  -15.4035   23.0539 C   0  0  0  0  0  0  0  0  0  0  0  0
   10.7754  -15.7781   21.7234 C   0  0  2  0  0  0  0  0  0  0  0  0
   10.0095  -16.7385   20.9958 N   0  0  0  0  0  0  0  0  0  0  0  0
   12.1513  -16.2393   22.0392 C   0  0  0  0  0  0  0  0  0  0  0  0
   12.2996  -17.3744   22.5084 O   0  0  0  0  0  0  0  0  0  0  0  0
   13.3110  -15.4589   21.8364 N   0  0  0  0  0  0  0  0  0  0  0  0
   14.6469  -15.9115   22.0617 C   0  0  1  0  0  0  0  0  0  0  0  0
   15.7105  -14.9939   21.5242 C   0  0  0  0  0  0  0  0  0  0  0  0
   17.0512  -15.5898   21.6244 C   0  0  0  0  0  0  0  0  0  0  0  0
   18.0191  -14.8922   21.9875 O   0  0  0  0  0  0  0  0  0  0  0  0
   14.8998  -16.2430   23.4964 C   0  0  0  0  0  0  0  0  0  0  0  0
   14.8305  -15.3213   24.3408 O   0  0  0  0  0  0  0  0  0  0  0  0
   17.2303  -16.9216   21.3147 O   0  0  0  0  0  0  0  0  0  0  0  0
   15.2128  -17.5445   23.9436 N   0  0  0  0  0  0  0  0  0  0  0  0
   15.3655  -17.9069   25.3564 C   0  0  1  0  0  0  0  0  0  0  0  0
   14.3001  -18.8219   25.8246 C   0  0  0  0  0  0  0  0  0  0  0  0
   14.4733  -19.2129   27.2446 C   0  0  0  0  0  0  0  0  0  0  0  0
   13.4805  -20.1259   27.8009 C   0  0  0  0  0  0  0  0  0  0  0  0
   13.9197  -20.9913   28.6286 O   0  0  0  0  0  0  0  0  0  0  0  0
   16.7510  -18.3417   25.6365 C   0  0  0  0  0  0  0  0  0  0  0  0
   17.4149  -18.2221   26.8320 O   0  0  0  0  0  0  0  0  0  0  0  0
   12.1368  -20.1734   27.5485 O   0  0  0  0  0  0  0  0  0  0  0  0
   17.3976  -18.8764   24.6896 O   0  0  0  0  0  0  0  0  0  0  0  0
  2  4  1  0
  2  3  1  0
  2  1  1  1
  4  5  2  0
  6  7  1  0
  6  4  1  0
  7 11  1  0
  8  9  1  0
  7  8  1  1
  9 10  2  0
 11 12  2  0
 11 14  1  0
 13  9  1  0
 14 15  1  0
 15 16  1  6
 16 17  1  0
 17 18  1  0
 18 22  1  0
 19 18  2  0
 20 21  1  0
 20 15  1  0
 23 20  2  0
M  END
$$$$
