ADE.pdb
     RDKit          3D

 23 22  0  0  1  0  0  0  0  0999 V2000
    8.0083  -12.4897   20.0101 C   0  0  0  0  0  0  0  0  0  0  0  0
    8.5882  -13.2226   18.7967 C   0  0  2  0  0  0  0  0  0  0  0  0
    7.6085  -13.4385   17.7810 N   0  0  0  0  0  0  0  0  0  0  0  0
    9.1983  -14.4786   19.3027 C   0  0  0  0  0  0  0  0  0  0  0  0
    8.5418  -15.1811   20.0812 O   0  0  0  0  0  0  0  0  0  0  0  0
   10.4905  -14.9261   18.9492 N   0  0  0  0  0  0  0  0  0  0  0  0
   11.1253  -16.0876   19.4862 C   0  0  1  0  0  0  0  0  0  0  0  0
   12.0887  -16.7575   18.5454 C   0  0  0  0  0  0  0  0  0  0  0  0
   11.4019  -17.3560   17.3910 C   0  0  0  0  0  0  0  0  0  0  0  0
   11.4069  -16.7714   16.2894 O   0  0  0  0  0  0  0  0  0  0  0  0
   11.7648  -15.8241   20.8106 C   0  0  0  0  0  0  0  0  0  0  0  0
   12.4830  -14.8060   20.9320 O   0  0  0  0  0  0  0  0  0  0  0  0
   10.7539  -18.5648   17.5347 O   0  0  0  0  0  0  0  0  0  0  0  0
   11.5972  -16.6680   21.9293 N   0  0  0  0  0  0  0  0  0  0  0  0
   12.2173  -16.4236   23.2356 C   0  0  1  0  0  0  0  0  0  0  0  0
   11.5325  -17.1457   24.3315 C   0  0  0  0  0  0  0  0  0  0  0  0
   12.1515  -16.8865   25.6540 C   0  0  0  0  0  0  0  0  0  0  0  0
   11.5393  -17.5400   26.8060 C   0  0  0  0  0  0  0  0  0  0  0  0
   11.8559  -17.0692   27.9483 O   0  0  0  0  0  0  0  0  0  0  0  0
   13.6821  -16.6137   23.1615 C   0  0  0  0  0  0  0  0  0  0  0  0
   14.6360  -15.8179   23.7456 O   0  0  0  0  0  0  0  0  0  0  0  0
   10.6682  -18.5947   26.8185 O   0  0  0  0  0  0  0  0  0  0  0  0
   14.1094  -17.6019   22.4972 O   0  0  0  0  0  0  0  0  0  0  0  0
  2  4  1  0
  2  3  1  0
  2  1  1  1
  4  5  2  0
  6  7  1  0
  6  4  1  0
  7 11  1  0
  8  9  1  0
  7  8  1  6
  9 10  2  0
 11 12  2  0
 11 14  1  0
 13  9  1  0
 14 15  1  0
 15 16  1  1
 16 17  1  0
 17 18  1  0
 18 22  1  0
 19 18  2  0
 20 21  1  0
 20 15  1  0
 23 20  2  0
M  END
$$$$
