ADE.pdb
     RDKit          3D

 23 22  0  0  1  0  0  0  0  0999 V2000
    8.1429  -12.2937   18.7803 C   0  0  0  0  0  0  0  0  0  0  0  0
    9.1289  -13.4583   18.6486 C   0  0  2  0  0  0  0  0  0  0  0  0
    8.7279  -14.3906   17.6446 N   0  0  0  0  0  0  0  0  0  0  0  0
    9.2608  -14.0661   19.9973 C   0  0  0  0  0  0  0  0  0  0  0  0
    9.8379  -13.4207   20.8811 O   0  0  0  0  0  0  0  0  0  0  0  0
    8.7654  -15.3440   20.3386 N   0  0  0  0  0  0  0  0  0  0  0  0
    9.0061  -16.0056   21.5815 C   0  0  1  0  0  0  0  0  0  0  0  0
    7.9390  -16.9892   21.9762 C   0  0  0  0  0  0  0  0  0  0  0  0
    7.7580  -18.0387   20.9621 C   0  0  0  0  0  0  0  0  0  0  0  0
    6.6169  -18.3033   20.5340 O   0  0  0  0  0  0  0  0  0  0  0  0
   10.3609  -16.6330   21.6378 C   0  0  0  0  0  0  0  0  0  0  0  0
   10.9354  -16.9051   20.5593 O   0  0  0  0  0  0  0  0  0  0  0  0
    8.8557  -18.7266   20.4893 O   0  0  0  0  0  0  0  0  0  0  0  0
   11.0222  -16.9328   22.8480 N   0  0  0  0  0  0  0  0  0  0  0  0
   12.4671  -16.7811   23.0473 C   0  0  1  0  0  0  0  0  0  0  0  0
   13.0077  -15.5765   22.3776 C   0  0  0  0  0  0  0  0  0  0  0  0
   14.0206  -15.9085   21.3466 C   0  0  0  0  0  0  0  0  0  0  0  0
   15.0998  -14.9462   21.1514 C   0  0  0  0  0  0  0  0  0  0  0  0
   15.0010  -14.1976   20.1234 O   0  0  0  0  0  0  0  0  0  0  0  0
   12.8149  -16.9284   24.4772 C   0  0  0  0  0  0  0  0  0  0  0  0
   12.0965  -16.4460   25.5428 O   0  0  0  0  0  0  0  0  0  0  0  0
   16.2061  -14.7434   21.9302 O   0  0  0  0  0  0  0  0  0  0  0  0
   13.8760  -17.5575   24.7578 O   0  0  0  0  0  0  0  0  0  0  0  0
  2  4  1  0
  2  3  1  0
  2  1  1  1
  4  5  2  0
  6  7  1  0
  6  4  1  0
  7 11  1  0
  8  9  1  0
  7  8  1  6
  9 10  2  0
 11 12  2  0
 11 14  1  0
 13  9  1  0
 14 15  1  0
 15 16  1  1
 16 17  1  0
 17 18  1  0
 18 22  1  0
 19 18  2  0
 20 21  1  0
 20 15  1  0
 23 20  2  0
M  END
$$$$
