ADE.pdb
     RDKit          3D

 23 22  0  0  1  0  0  0  0  0999 V2000
   14.9149  -20.8875   17.9361 C   0  0  0  0  0  0  0  0  0  0  0  0
   13.4535  -20.5489   17.6265 C   0  0  2  0  0  0  0  0  0  0  0  0
   13.3357  -19.5880   16.5772 N   0  0  0  0  0  0  0  0  0  0  0  0
   12.8338  -20.1071   18.9018 C   0  0  0  0  0  0  0  0  0  0  0  0
   13.4034  -19.2287   19.5610 O   0  0  0  0  0  0  0  0  0  0  0  0
   11.6258  -20.6296   19.4144 N   0  0  0  0  0  0  0  0  0  0  0  0
   11.0001  -20.1980   20.6238 C   0  0  1  0  0  0  0  0  0  0  0  0
    9.5188  -20.4521   20.6794 C   0  0  0  0  0  0  0  0  0  0  0  0
    8.7750  -19.5612   19.7762 C   0  0  0  0  0  0  0  0  0  0  0  0
    9.2933  -18.4978   19.3814 O   0  0  0  0  0  0  0  0  0  0  0  0
   11.6823  -20.7357   21.8394 C   0  0  0  0  0  0  0  0  0  0  0  0
   11.8191  -21.9757   21.9449 O   0  0  0  0  0  0  0  0  0  0  0  0
    7.5037  -19.9087   19.3701 O   0  0  0  0  0  0  0  0  0  0  0  0
   12.1789  -19.9125   22.8726 N   0  0  0  0  0  0  0  0  0  0  0  0
   12.8734  -20.4225   24.0594 C   0  0  1  0  0  0  0  0  0  0  0  0
   14.3461  -20.3821   23.9147 C   0  0  0  0  0  0  0  0  0  0  0  0
   14.8816  -18.9999   23.9581 C   0  0  0  0  0  0  0  0  0  0  0  0
   16.3208  -18.8463   23.7733 C   0  0  0  0  0  0  0  0  0  0  0  0
   16.9882  -18.5424   24.8169 O   0  0  0  0  0  0  0  0  0  0  0  0
   12.3339  -19.7996   25.2874 C   0  0  0  0  0  0  0  0  0  0  0  0
   12.6905  -20.1036   26.5777 O   0  0  0  0  0  0  0  0  0  0  0  0
   17.0476  -18.9862   22.6228 O   0  0  0  0  0  0  0  0  0  0  0  0
   11.4572  -18.8982   25.1478 O   0  0  0  0  0  0  0  0  0  0  0  0
  2  4  1  0
  2  3  1  0
  2  1  1  1
  4  5  2  0
  6  7  1  0
  6  4  1  0
  7 11  1  0
  8  9  1  0
  7  8  1  6
  9 10  2  0
 11 12  2  0
 11 14  1  0
 13  9  1  0
 14 15  1  0
 15 16  1  6
 16 17  1  0
 17 18  1  0
 18 22  1  0
 19 18  2  0
 20 21  1  0
 20 15  1  0
 23 20  2  0
M  END
$$$$
