ADE.pdb
     RDKit          3D

 23 22  0  0  1  0  0  0  0  0999 V2000
    7.5587  -12.3492   19.4065 C   0  0  0  0  0  0  0  0  0  0  0  0
    8.1885  -13.7209   19.1462 C   0  0  2  0  0  0  0  0  0  0  0  0
    7.2349  -14.7782   19.2511 N   0  0  0  0  0  0  0  0  0  0  0  0
    9.3267  -13.8589   20.0902 C   0  0  0  0  0  0  0  0  0  0  0  0
   10.3009  -13.1089   19.9530 O   0  0  0  0  0  0  0  0  0  0  0  0
    9.3685  -14.7992   21.1434 N   0  0  0  0  0  0  0  0  0  0  0  0
   10.4202  -14.8990   22.1048 C   0  0  1  0  0  0  0  0  0  0  0  0
   10.0253  -15.5804   23.3861 C   0  0  0  0  0  0  0  0  0  0  0  0
    9.8804  -17.0336   23.2126 C   0  0  0  0  0  0  0  0  0  0  0  0
    9.5882  -17.5030   22.0948 O   0  0  0  0  0  0  0  0  0  0  0  0
   11.6573  -15.5100   21.5318 C   0  0  0  0  0  0  0  0  0  0  0  0
   11.5380  -16.5180   20.7988 O   0  0  0  0  0  0  0  0  0  0  0  0
   10.0692  -17.8713   24.2917 O   0  0  0  0  0  0  0  0  0  0  0  0
   12.9520  -15.0049   21.7777 N   0  0  0  0  0  0  0  0  0  0  0  0
   14.1616  -15.5039   21.1154 C   0  0  1  0  0  0  0  0  0  0  0  0
   14.6198  -14.6120   20.0264 C   0  0  0  0  0  0  0  0  0  0  0  0
   15.8245  -15.1336   19.3364 C   0  0  0  0  0  0  0  0  0  0  0  0
   16.3919  -14.2988   18.2829 C   0  0  0  0  0  0  0  0  0  0  0  0
   17.1281  -14.8984   17.4313 O   0  0  0  0  0  0  0  0  0  0  0  0
   15.1880  -15.8740   22.1138 C   0  0  0  0  0  0  0  0  0  0  0  0
   16.1536  -16.8388   21.9682 O   0  0  0  0  0  0  0  0  0  0  0  0
   16.2358  -12.9534   18.0908 O   0  0  0  0  0  0  0  0  0  0  0  0
   15.1850  -15.2481   23.2133 O   0  0  0  0  0  0  0  0  0  0  0  0
  2  4  1  0
  2  3  1  0
  2  1  1  1
  4  5  2  0
  6  7  1  0
  6  4  1  0
  7 11  1  0
  8  9  1  0
  7  8  1  1
  9 10  2  0
 11 12  2  0
 11 14  1  0
 13  9  1  0
 14 15  1  0
 15 16  1  6
 16 17  1  0
 17 18  1  0
 18 22  1  0
 19 18  2  0
 20 21  1  0
 20 15  1  0
 23 20  2  0
M  END
$$$$
