ADE.pdb
     RDKit          3D

 23 22  0  0  1  0  0  0  0  0999 V2000
    8.0782  -12.0939   19.0240 C   0  0  0  0  0  0  0  0  0  0  0  0
    8.9468  -13.2518   18.5233 C   0  0  2  0  0  0  0  0  0  0  0  0
    8.5022  -13.7499   17.2613 N   0  0  0  0  0  0  0  0  0  0  0  0
    8.9518  -14.2812   19.5938 C   0  0  0  0  0  0  0  0  0  0  0  0
    9.3707  -13.9649   20.7141 O   0  0  0  0  0  0  0  0  0  0  0  0
    8.5052  -15.6090   19.4135 N   0  0  0  0  0  0  0  0  0  0  0  0
    8.5407  -16.6237   20.4183 C   0  0  1  0  0  0  0  0  0  0  0  0
    7.7806  -17.8723   20.0645 C   0  0  0  0  0  0  0  0  0  0  0  0
    7.8344  -18.8714   21.1423 C   0  0  0  0  0  0  0  0  0  0  0  0
    7.9068  -18.5036   22.3317 O   0  0  0  0  0  0  0  0  0  0  0  0
    9.9342  -16.9482   20.8486 C   0  0  0  0  0  0  0  0  0  0  0  0
   10.5532  -17.8450   20.2323 O   0  0  0  0  0  0  0  0  0  0  0  0
    7.8044  -20.2141   20.8294 O   0  0  0  0  0  0  0  0  0  0  0  0
   10.5843  -16.2920   21.9157 N   0  0  0  0  0  0  0  0  0  0  0  0
   11.9026  -16.6784   22.4290 C   0  0  1  0  0  0  0  0  0  0  0  0
   12.9340  -15.6475   22.1742 C   0  0  0  0  0  0  0  0  0  0  0  0
   13.2592  -15.5160   20.7333 C   0  0  0  0  0  0  0  0  0  0  0  0
   14.3283  -14.5870   20.3826 C   0  0  0  0  0  0  0  0  0  0  0  0
   14.3868  -14.2405   19.1566 O   0  0  0  0  0  0  0  0  0  0  0  0
   11.8004  -17.1492   23.8273 C   0  0  0  0  0  0  0  0  0  0  0  0
   12.7826  -17.7852   24.5451 O   0  0  0  0  0  0  0  0  0  0  0  0
   15.2778  -14.0393   21.2011 O   0  0  0  0  0  0  0  0  0  0  0  0
   10.7058  -16.9531   24.4305 O   0  0  0  0  0  0  0  0  0  0  0  0
  2  4  1  0
  2  3  1  0
  2  1  1  1
  4  5  2  0
  6  7  1  0
  6  4  1  0
  7 11  1  0
  8  9  1  0
  7  8  1  6
  9 10  2  0
 11 12  2  0
 11 14  1  0
 13  9  1  0
 14 15  1  0
 15 16  1  1
 16 17  1  0
 17 18  1  0
 18 22  1  0
 19 18  2  0
 20 21  1  0
 20 15  1  0
 23 20  2  0
M  END
$$$$
