VCI.pdb
     RDKit          3D

 22 21  0  0  1  0  0  0  0  0999 V2000
    6.8365  -13.0384   20.2140 C   0  0  0  0  0  0  0  0  0  0  0  0
    8.2691  -13.4022   19.9780 C   0  0  2  0  0  0  0  0  0  0  0  0
    8.7718  -12.7719   18.7059 C   0  0  0  0  0  0  0  0  0  0  0  0
    8.4942  -14.8960   19.9154 C   0  0  2  0  0  0  0  0  0  0  0  0
    7.7934  -15.4205   18.7647 N   0  0  0  0  0  0  0  0  0  0  0  0
    8.0175  -15.5877   21.1229 C   0  0  0  0  0  0  0  0  0  0  0  0
    6.9041  -16.2148   21.1258 O   0  0  0  0  0  0  0  0  0  0  0  0
    8.7339  -15.6158   22.3510 N   0  0  0  0  0  0  0  0  0  0  0  0
    8.2333  -16.2605   23.5479 C   0  0  1  0  0  0  0  0  0  0  0  0
    8.0735  -17.7339   23.2239 C   0  0  0  0  0  0  0  0  0  0  0  0
    7.5322  -18.6398   24.6867 S   0  0  0  0  0  0  0  0  0  0  0  0
    9.1923  -16.1198   24.6878 C   0  0  0  0  0  0  0  0  0  0  0  0
   10.3767  -16.4862   24.4710 O   0  0  0  0  0  0  0  0  0  0  0  0
    8.2561  -12.0676   28.2117 C   0  0  0  0  0  0  0  0  0  0  0  0
    8.8516  -13.0059   27.1866 C   0  0  0  0  0  0  0  0  0  0  0  0
    9.3896  -14.2357   27.8890 C   0  0  2  0  0  0  0  0  0  0  0  0
   10.5968  -13.8870   28.7316 C   0  0  0  0  0  0  0  0  0  0  0  0
    9.8247  -15.2961   26.9057 C   0  0  2  0  0  0  0  0  0  0  0  0
    8.7903  -15.6017   25.9458 N   0  0  0  0  0  0  0  0  0  0  0  0
   10.1165  -16.5337   27.6703 C   0  0  0  0  0  0  0  0  0  0  0  0
    9.2270  -17.3867   27.9412 O   0  0  0  0  0  0  0  0  0  0  0  0
   11.4418  -16.7367   28.0957 O   0  0  0  0  0  0  0  0  0  0  0  0
  2  1  1  6
  2  4  1  0
  2  3  1  0
  4  5  1  6
  6  4  1  0
  7  6  2  0
  8  6  1  0
  9 12  1  0
  9  8  1  0
  9 10  1  6
 11 10  1  0
 12 19  1  0
 13 12  2  0
 15 14  1  0
 16 17  1  6
 16 15  1  0
 18 16  1  0
 18 19  1  6
 20 22  1  0
 20 18  1  0
 21 20  2  0
M  END
$$$$
