VCI.pdb
     RDKit          3D

 22 21  0  0  1  0  0  0  0  0999 V2000
    7.7640  -12.4212   18.7417 C   0  0  0  0  0  0  0  0  0  0  0  0
    7.7463  -13.3802   19.8909 C   0  0  2  0  0  0  0  0  0  0  0  0
    8.4911  -12.8079   21.0682 C   0  0  0  0  0  0  0  0  0  0  0  0
    8.3316  -14.7294   19.5404 C   0  0  2  0  0  0  0  0  0  0  0  0
    7.5991  -15.2730   18.4188 N   0  0  0  0  0  0  0  0  0  0  0  0
    8.2656  -15.6795   20.6615 C   0  0  0  0  0  0  0  0  0  0  0  0
    7.1529  -16.1924   21.0247 O   0  0  0  0  0  0  0  0  0  0  0  0
    9.3997  -16.0943   21.4124 N   0  0  0  0  0  0  0  0  0  0  0  0
    9.3066  -16.9057   22.6089 C   0  0  1  0  0  0  0  0  0  0  0  0
   10.0523  -18.1967   22.3279 C   0  0  0  0  0  0  0  0  0  0  0  0
   10.1184  -19.2159   23.8147 S   0  0  0  0  0  0  0  0  0  0  0  0
    9.9430  -16.2280   23.7813 C   0  0  0  0  0  0  0  0  0  0  0  0
   11.0811  -15.7268   23.5879 O   0  0  0  0  0  0  0  0  0  0  0  0
    9.3656  -12.3678   28.1791 C   0  0  0  0  0  0  0  0  0  0  0  0
   10.0364  -13.6722   27.8123 C   0  0  0  0  0  0  0  0  0  0  0  0
    9.2995  -14.3023   26.6482 C   0  0  2  0  0  0  0  0  0  0  0  0
    7.9152  -14.7464   27.0671 C   0  0  0  0  0  0  0  0  0  0  0  0
   10.0190  -15.5227   26.1253 C   0  0  2  0  0  0  0  0  0  0  0  0
    9.2998  -16.1533   25.0436 N   0  0  0  0  0  0  0  0  0  0  0  0
   10.1213  -16.5014   27.2357 C   0  0  0  0  0  0  0  0  0  0  0  0
    9.3781  -17.5183   27.3115 O   0  0  0  0  0  0  0  0  0  0  0  0
   11.0913  -16.2610   28.2257 O   0  0  0  0  0  0  0  0  0  0  0  0
  2  1  1  6
  2  4  1  0
  2  3  1  0
  4  5  1  6
  6  4  1  0
  7  6  2  0
  8  6  1  0
  9 12  1  0
  9  8  1  0
  9 10  1  6
 11 10  1  0
 12 19  1  0
 13 12  2  0
 15 14  1  0
 16 17  1  1
 16 15  1  0
 18 16  1  0
 18 19  1  6
 20 22  1  0
 20 18  1  0
 21 20  2  0
M  END
$$$$
