VCI.pdb
     RDKit          3D

 22 21  0  0  1  0  0  0  0  0999 V2000
   13.1510  -17.2246   21.2550 C   0  0  0  0  0  0  0  0  0  0  0  0
   12.3855  -18.4611   20.9005 C   0  0  2  0  0  0  0  0  0  0  0  0
   13.1383  -19.2742   19.8804 C   0  0  0  0  0  0  0  0  0  0  0  0
   10.9991  -18.1645   20.3751 C   0  0  2  0  0  0  0  0  0  0  0  0
   11.1196  -17.3343   19.1977 N   0  0  0  0  0  0  0  0  0  0  0  0
   10.1587  -17.4732   21.3648 C   0  0  0  0  0  0  0  0  0  0  0  0
   10.1062  -16.1971   21.4069 O   0  0  0  0  0  0  0  0  0  0  0  0
    9.3584  -18.1463   22.3285 N   0  0  0  0  0  0  0  0  0  0  0  0
    8.6256  -17.4589   23.3721 C   0  0  1  0  0  0  0  0  0  0  0  0
    7.4426  -18.3367   23.7347 C   0  0  0  0  0  0  0  0  0  0  0  0
    6.4446  -17.5437   25.0109 S   0  0  0  0  0  0  0  0  0  0  0  0
    9.4681  -17.2589   24.5924 C   0  0  0  0  0  0  0  0  0  0  0  0
   10.3042  -18.1639   24.8495 O   0  0  0  0  0  0  0  0  0  0  0  0
   10.6804  -13.2830   29.2062 C   0  0  0  0  0  0  0  0  0  0  0  0
   10.8878  -14.6219   28.5351 C   0  0  0  0  0  0  0  0  0  0  0  0
   10.0208  -14.6982   27.2951 C   0  0  2  0  0  0  0  0  0  0  0  0
    8.5564  -14.5794   27.6565 C   0  0  0  0  0  0  0  0  0  0  0  0
   10.1950  -16.0117   26.5707 C   0  0  2  0  0  0  0  0  0  0  0  0
    9.3334  -16.1119   25.4164 N   0  0  0  0  0  0  0  0  0  0  0  0
    9.8280  -17.1011   27.5087 C   0  0  0  0  0  0  0  0  0  0  0  0
    8.6838  -17.6330   27.5131 O   0  0  0  0  0  0  0  0  0  0  0  0
   10.8120  -17.5364   28.4149 O   0  0  0  0  0  0  0  0  0  0  0  0
  2  1  1  6
  2  4  1  0
  2  3  1  0
  4  5  1  6
  6  4  1  0
  7  6  2  0
  8  6  1  0
  9 12  1  0
  9  8  1  0
  9 10  1  1
 11 10  1  0
 12 19  1  0
 13 12  2  0
 15 14  1  0
 16 17  1  1
 16 15  1  0
 18 16  1  0
 18 19  1  6
 20 22  1  0
 20 18  1  0
 21 20  2  0
M  END
$$$$
