VCI.pdb
     RDKit          3D

 22 21  0  0  1  0  0  0  0  0999 V2000
    8.1511  -13.0969   18.0168 C   0  0  0  0  0  0  0  0  0  0  0  0
    7.5380  -13.6807   19.2512 C   0  0  2  0  0  0  0  0  0  0  0  0
    7.9599  -12.9023   20.4696 C   0  0  0  0  0  0  0  0  0  0  0  0
    7.8859  -15.1390   19.4478 C   0  0  2  0  0  0  0  0  0  0  0  0
    7.3835  -15.8895   18.3189 N   0  0  0  0  0  0  0  0  0  0  0  0
    7.3126  -15.6921   20.6844 C   0  0  0  0  0  0  0  0  0  0  0  0
    6.0499  -15.8366   20.8171 O   0  0  0  0  0  0  0  0  0  0  0  0
    8.0916  -16.1002   21.8019 N   0  0  0  0  0  0  0  0  0  0  0  0
    7.5179  -16.4444   23.0868 C   0  0  1  0  0  0  0  0  0  0  0  0
    7.5659  -17.9563   23.2028 C   0  0  0  0  0  0  0  0  0  0  0  0
    7.0566  -18.4722   24.8545 S   0  0  0  0  0  0  0  0  0  0  0  0
    8.3025  -15.8503   24.2139 C   0  0  0  0  0  0  0  0  0  0  0  0
    9.5554  -15.8750   24.0975 O   0  0  0  0  0  0  0  0  0  0  0  0
    6.0234  -11.7026   26.8206 C   0  0  0  0  0  0  0  0  0  0  0  0
    7.0813  -12.4895   26.0807 C   0  0  0  0  0  0  0  0  0  0  0  0
    7.7042  -13.4980   27.0241 C   0  0  2  0  0  0  0  0  0  0  0  0
    8.6586  -12.8186   27.9814 C   0  0  0  0  0  0  0  0  0  0  0  0
    8.4937  -14.5477   26.2789 C   0  0  2  0  0  0  0  0  0  0  0  0
    7.6701  -15.2890   25.3531 N   0  0  0  0  0  0  0  0  0  0  0  0
    9.0326  -15.5051   27.2761 C   0  0  0  0  0  0  0  0  0  0  0  0
   10.0683  -15.2629   27.9552 O   0  0  0  0  0  0  0  0  0  0  0  0
    8.3430  -16.7188   27.4496 O   0  0  0  0  0  0  0  0  0  0  0  0
  2  1  1  6
  2  4  1  0
  2  3  1  0
  4  5  1  6
  6  4  1  0
  7  6  2  0
  8  6  1  0
  9 12  1  0
  9  8  1  0
  9 10  1  1
 11 10  1  0
 12 19  1  0
 13 12  2  0
 15 14  1  0
 16 17  1  1
 16 15  1  0
 18 16  1  0
 18 19  1  6
 20 22  1  0
 20 18  1  0
 21 20  2  0
M  END
$$$$
