VCI.pdb
     RDKit          3D

 22 21  0  0  1  0  0  0  0  0999 V2000
    8.3228  -12.7023   17.5425 C   0  0  0  0  0  0  0  0  0  0  0  0
    7.8997  -13.5145   18.7264 C   0  0  2  0  0  0  0  0  0  0  0  0
    8.1902  -12.7747   20.0058 C   0  0  0  0  0  0  0  0  0  0  0  0
    8.5626  -14.8724   18.7757 C   0  0  2  0  0  0  0  0  0  0  0  0
    8.2206  -15.5969   17.5723 N   0  0  0  0  0  0  0  0  0  0  0  0
    8.1436  -15.6607   19.9449 C   0  0  0  0  0  0  0  0  0  0  0  0
    7.4314  -16.7128   19.8081 O   0  0  0  0  0  0  0  0  0  0  0  0
    8.4855  -15.3283   21.2846 N   0  0  0  0  0  0  0  0  0  0  0  0
    8.2324  -16.2050   22.4097 C   0  0  1  0  0  0  0  0  0  0  0  0
    8.9683  -17.5029   22.1345 C   0  0  0  0  0  0  0  0  0  0  0  0
    8.8643  -18.5953   23.5660 S   0  0  0  0  0  0  0  0  0  0  0  0
    8.7491  -15.6206   23.6866 C   0  0  0  0  0  0  0  0  0  0  0  0
    9.9872  -15.4013   23.7409 O   0  0  0  0  0  0  0  0  0  0  0  0
    6.6578  -11.0320   26.8095 C   0  0  0  0  0  0  0  0  0  0  0  0
    7.6768  -12.1487   26.8291 C   0  0  0  0  0  0  0  0  0  0  0  0
    7.2252  -13.2526   25.8950 C   0  0  2  0  0  0  0  0  0  0  0  0
    6.0154  -13.9678   26.4553 C   0  0  0  0  0  0  0  0  0  0  0  0
    8.3028  -14.2915   25.6946 C   0  0  2  0  0  0  0  0  0  0  0  0
    7.8913  -15.3287   24.7783 N   0  0  0  0  0  0  0  0  0  0  0  0
    8.5737  -14.9256   27.0083 C   0  0  0  0  0  0  0  0  0  0  0  0
    9.0639  -14.2864   27.9796 O   0  0  0  0  0  0  0  0  0  0  0  0
    8.2625  -16.2905   27.1469 O   0  0  0  0  0  0  0  0  0  0  0  0
  2  1  1  6
  2  4  1  0
  2  3  1  0
  4  5  1  6
  6  4  1  0
  7  6  2  0
  8  6  1  0
  9 12  1  0
  9  8  1  0
  9 10  1  6
 11 10  1  0
 12 19  1  0
 13 12  2  0
 15 14  1  0
 16 17  1  1
 16 15  1  0
 18 16  1  0
 18 19  1  6
 20 22  1  0
 20 18  1  0
 21 20  2  0
M  END
$$$$
