VCI.pdb
     RDKit          3D

 22 21  0  0  1  0  0  0  0  0999 V2000
    7.7381  -12.9599   18.4944 C   0  0  0  0  0  0  0  0  0  0  0  0
    7.6188  -13.5866   19.8485 C   0  0  2  0  0  0  0  0  0  0  0  0
    8.2677  -12.7163   20.8925 C   0  0  0  0  0  0  0  0  0  0  0  0
    8.2219  -14.9717   19.9111 C   0  0  2  0  0  0  0  0  0  0  0  0
    7.6228  -15.7831   18.8752 N   0  0  0  0  0  0  0  0  0  0  0  0
    8.0058  -15.6208   21.2132 C   0  0  0  0  0  0  0  0  0  0  0  0
    6.8478  -16.0387   21.5561 O   0  0  0  0  0  0  0  0  0  0  0  0
    9.0358  -15.8315   22.1708 N   0  0  0  0  0  0  0  0  0  0  0  0
    8.8008  -16.4198   23.4736 C   0  0  1  0  0  0  0  0  0  0  0  0
    9.5049  -17.7636   23.4866 C   0  0  0  0  0  0  0  0  0  0  0  0
   11.2494  -17.5584   23.0765 S   0  0  0  0  0  0  0  0  0  0  0  0
    9.3657  -15.5702   24.5681 C   0  0  0  0  0  0  0  0  0  0  0  0
   10.4440  -14.9734   24.3133 O   0  0  0  0  0  0  0  0  0  0  0  0
    6.3814  -12.4070   27.8491 C   0  0  0  0  0  0  0  0  0  0  0  0
    7.1342  -13.6875   27.5674 C   0  0  0  0  0  0  0  0  0  0  0  0
    8.5298  -13.3499   27.0843 C   0  0  2  0  0  0  0  0  0  0  0  0
    8.4748  -12.5631   25.7932 C   0  0  0  0  0  0  0  0  0  0  0  0
    9.3439  -14.5927   26.8135 C   0  0  2  0  0  0  0  0  0  0  0  0
    8.7220  -15.4430   25.8260 N   0  0  0  0  0  0  0  0  0  0  0  0
    9.4387  -15.3597   28.0800 C   0  0  0  0  0  0  0  0  0  0  0  0
   10.0534  -14.9221   29.0914 O   0  0  0  0  0  0  0  0  0  0  0  0
    8.8105  -16.6176   28.1258 O   0  0  0  0  0  0  0  0  0  0  0  0
  2  1  1  6
  2  4  1  0
  2  3  1  0
  4  5  1  6
  6  4  1  0
  7  6  2  0
  8  6  1  0
  9 12  1  0
  9  8  1  0
  9 10  1  6
 11 10  1  0
 12 19  1  0
 13 12  2  0
 15 14  1  0
 16 17  1  6
 16 15  1  0
 18 16  1  0
 18 19  1  6
 20 22  1  0
 20 18  1  0
 21 20  2  0
M  END
$$$$
