VCI.pdb
     RDKit          3D

 22 21  0  0  1  0  0  0  0  0999 V2000
    6.3686  -13.9958   19.0235 C   0  0  0  0  0  0  0  0  0  0  0  0
    7.6988  -13.3627   19.2881 C   0  0  2  0  0  0  0  0  0  0  0  0
    8.3379  -12.9175   17.9990 C   0  0  0  0  0  0  0  0  0  0  0  0
    8.6503  -14.2784   20.0244 C   0  0  2  0  0  0  0  0  0  0  0  0
    8.8680  -15.4603   19.2209 N   0  0  0  0  0  0  0  0  0  0  0  0
    8.1354  -14.6828   21.3417 C   0  0  0  0  0  0  0  0  0  0  0  0
    7.9481  -13.8221   22.2675 O   0  0  0  0  0  0  0  0  0  0  0  0
    7.8126  -16.0244   21.6850 N   0  0  0  0  0  0  0  0  0  0  0  0
    7.2020  -16.3969   22.9448 C   0  0  1  0  0  0  0  0  0  0  0  0
    7.1036  -17.9108   22.9591 C   0  0  0  0  0  0  0  0  0  0  0  0
    6.4180  -18.4772   24.5284 S   0  0  0  0  0  0  0  0  0  0  0  0
    8.0345  -15.9580   24.1080 C   0  0  0  0  0  0  0  0  0  0  0  0
    9.2772  -16.1270   24.0021 O   0  0  0  0  0  0  0  0  0  0  0  0
    5.9941  -11.9159   26.9286 C   0  0  0  0  0  0  0  0  0  0  0  0
    7.0830  -12.6402   26.1698 C   0  0  0  0  0  0  0  0  0  0  0  0
    7.6742  -13.7191   27.0539 C   0  0  2  0  0  0  0  0  0  0  0  0
    8.7199  -13.1394   27.9810 C   0  0  0  0  0  0  0  0  0  0  0  0
    8.3487  -14.7996   26.2427 C   0  0  2  0  0  0  0  0  0  0  0  0
    7.4563  -15.3822   25.2686 N   0  0  0  0  0  0  0  0  0  0  0  0
    8.7684  -15.8742   27.1758 C   0  0  0  0  0  0  0  0  0  0  0  0
    8.0654  -16.9009   27.3849 O   0  0  0  0  0  0  0  0  0  0  0  0
    9.9997  -15.7154   27.8371 O   0  0  0  0  0  0  0  0  0  0  0  0
  2  1  1  6
  2  4  1  0
  2  3  1  0
  4  5  1  6
  6  4  1  0
  7  6  2  0
  8  6  1  0
  9 12  1  0
  9  8  1  0
  9 10  1  6
 11 10  1  0
 12 19  1  0
 13 12  2  0
 15 14  1  0
 16 17  1  1
 16 15  1  0
 18 16  1  0
 18 19  1  6
 20 22  1  0
 20 18  1  0
 21 20  2  0
M  END
$$$$
