VCI.pdb
     RDKit          3D

 22 21  0  0  1  0  0  0  0  0999 V2000
    7.2010  -12.8850   20.5353 C   0  0  0  0  0  0  0  0  0  0  0  0
    8.4267  -13.4461   19.8847 C   0  0  2  0  0  0  0  0  0  0  0  0
    8.5946  -12.8818   18.4984 C   0  0  0  0  0  0  0  0  0  0  0  0
    8.4136  -14.9561   19.8085 C   0  0  2  0  0  0  0  0  0  0  0  0
    7.3651  -15.3633   18.9003 N   0  0  0  0  0  0  0  0  0  0  0  0
    8.1827  -15.5833   21.1189 C   0  0  0  0  0  0  0  0  0  0  0  0
    7.0001  -15.7210   21.5833 O   0  0  0  0  0  0  0  0  0  0  0  0
    9.2242  -16.0740   21.9536 N   0  0  0  0  0  0  0  0  0  0  0  0
    8.9907  -16.6323   23.2698 C   0  0  1  0  0  0  0  0  0  0  0  0
    9.7788  -17.9262   23.3485 C   0  0  0  0  0  0  0  0  0  0  0  0
    8.8890  -19.2514   22.5085 S   0  0  0  0  0  0  0  0  0  0  0  0
    9.4686  -15.7116   24.3481 C   0  0  0  0  0  0  0  0  0  0  0  0
   10.5637  -15.1272   24.1401 O   0  0  0  0  0  0  0  0  0  0  0  0
    6.0172  -12.4154   26.6217 C   0  0  0  0  0  0  0  0  0  0  0  0
    7.2492  -13.0204   25.9875 C   0  0  0  0  0  0  0  0  0  0  0  0
    8.0809  -13.6961   27.0584 C   0  0  2  0  0  0  0  0  0  0  0  0
    8.7053  -12.6706   27.9791 C   0  0  0  0  0  0  0  0  0  0  0  0
    9.2089  -14.5048   26.4633 C   0  0  2  0  0  0  0  0  0  0  0  0
    8.7289  -15.5070   25.5413 N   0  0  0  0  0  0  0  0  0  0  0  0
    9.9036  -15.2026   27.5732 C   0  0  0  0  0  0  0  0  0  0  0  0
   10.7421  -14.6229   28.3169 O   0  0  0  0  0  0  0  0  0  0  0  0
    9.5962  -16.5596   27.7803 O   0  0  0  0  0  0  0  0  0  0  0  0
  2  1  1  6
  2  4  1  0
  2  3  1  0
  4  5  1  6
  6  4  1  0
  7  6  2  0
  8  6  1  0
  9 12  1  0
  9  8  1  0
  9 10  1  6
 11 10  1  0
 12 19  1  0
 13 12  2  0
 15 14  1  0
 16 17  1  1
 16 15  1  0
 18 16  1  0
 18 19  1  6
 20 22  1  0
 20 18  1  0
 21 20  2  0
M  END
$$$$
