VCI.pdb
     RDKit          3D

 22 21  0  0  1  0  0  0  0  0999 V2000
    6.6602  -21.0981   24.4818 C   0  0  0  0  0  0  0  0  0  0  0  0
    7.2629  -19.7282   24.4560 C   0  0  2  0  0  0  0  0  0  0  0  0
    7.5287  -19.2414   25.8563 C   0  0  0  0  0  0  0  0  0  0  0  0
    6.3989  -18.7187   23.7345 C   0  0  2  0  0  0  0  0  0  0  0  0
    6.0393  -19.2588   22.4425 N   0  0  0  0  0  0  0  0  0  0  0  0
    7.0814  -17.4299   23.5419 C   0  0  0  0  0  0  0  0  0  0  0  0
    8.0629  -17.3198   22.7310 O   0  0  0  0  0  0  0  0  0  0  0  0
    6.7174  -16.2348   24.2212 N   0  0  0  0  0  0  0  0  0  0  0  0
    7.4457  -14.9901   24.0842 C   0  0  1  0  0  0  0  0  0  0  0  0
    6.4812  -13.8717   24.4316 C   0  0  0  0  0  0  0  0  0  0  0  0
    5.8192  -14.1116   26.0922 S   0  0  0  0  0  0  0  0  0  0  0  0
    8.6096  -14.9303   25.0226 C   0  0  0  0  0  0  0  0  0  0  0  0
    9.3741  -13.9376   24.9034 O   0  0  0  0  0  0  0  0  0  0  0  0
    9.1936  -12.8642   29.0992 C   0  0  0  0  0  0  0  0  0  0  0  0
    9.5113  -13.5734   27.8022 C   0  0  0  0  0  0  0  0  0  0  0  0
    9.7560  -15.0417   28.0833 C   0  0  2  0  0  0  0  0  0  0  0  0
   10.9621  -15.2226   28.9786 C   0  0  0  0  0  0  0  0  0  0  0  0
   10.0230  -15.8171   26.8152 C   0  0  2  0  0  0  0  0  0  0  0  0
    8.8408  -15.9373   25.9949 N   0  0  0  0  0  0  0  0  0  0  0  0
   10.4514  -17.1847   27.1996 C   0  0  0  0  0  0  0  0  0  0  0  0
   11.5796  -17.4207   27.7130 O   0  0  0  0  0  0  0  0  0  0  0  0
    9.5459  -18.2368   26.9715 O   0  0  0  0  0  0  0  0  0  0  0  0
  2  1  1  1
  2  4  1  0
  2  3  1  0
  4  5  1  6
  6  4  1  0
  7  6  2  0
  8  6  1  0
  9 12  1  0
  9  8  1  0
  9 10  1  1
 11 10  1  0
 12 19  1  0
 13 12  2  0
 15 14  1  0
 16 17  1  1
 16 15  1  0
 18 16  1  0
 18 19  1  6
 20 22  1  0
 20 18  1  0
 21 20  2  0
M  END
$$$$
