VCI.pdb
     RDKit          3D

 22 21  0  0  1  0  0  0  0  0999 V2000
    8.4528  -12.8518   17.4136 C   0  0  0  0  0  0  0  0  0  0  0  0
    7.9152  -13.4526   18.6747 C   0  0  2  0  0  0  0  0  0  0  0  0
    8.2685  -12.5947   19.8611 C   0  0  0  0  0  0  0  0  0  0  0  0
    8.4115  -14.8606   18.9138 C   0  0  2  0  0  0  0  0  0  0  0  0
    8.0333  -15.6812   17.7852 N   0  0  0  0  0  0  0  0  0  0  0  0
    7.8581  -15.4509   20.1422 C   0  0  0  0  0  0  0  0  0  0  0  0
    6.6985  -15.9881   20.1496 O   0  0  0  0  0  0  0  0  0  0  0  0
    8.5458  -15.4729   21.3867 N   0  0  0  0  0  0  0  0  0  0  0  0
    7.9766  -16.0251   22.5991 C   0  0  1  0  0  0  0  0  0  0  0  0
    8.2511  -17.5170   22.5778 C   0  0  0  0  0  0  0  0  0  0  0  0
   10.0264  -17.8241   22.4907 S   0  0  0  0  0  0  0  0  0  0  0  0
    8.6112  -15.4366   23.8196 C   0  0  0  0  0  0  0  0  0  0  0  0
    9.8034  -15.0513   23.7000 O   0  0  0  0  0  0  0  0  0  0  0  0
    5.8177  -11.8981   26.5883 C   0  0  0  0  0  0  0  0  0  0  0  0
    6.8859  -12.6752   25.8527 C   0  0  0  0  0  0  0  0  0  0  0  0
    7.5357  -13.6561   26.8069 C   0  0  2  0  0  0  0  0  0  0  0  0
    8.2906  -12.9253   27.8955 C   0  0  0  0  0  0  0  0  0  0  0  0
    8.5273  -14.5499   26.1009 C   0  0  2  0  0  0  0  0  0  0  0  0
    7.9087  -15.3183   25.0465 N   0  0  0  0  0  0  0  0  0  0  0  0
    9.0723  -15.5027   27.0992 C   0  0  0  0  0  0  0  0  0  0  0  0
    8.5775  -16.6493   27.2801 O   0  0  0  0  0  0  0  0  0  0  0  0
   10.1815  -15.0853   27.8570 O   0  0  0  0  0  0  0  0  0  0  0  0
  2  1  1  6
  2  4  1  0
  2  3  1  0
  4  5  1  6
  6  4  1  0
  7  6  2  0
  8  6  1  0
  9 12  1  0
  9  8  1  0
  9 10  1  6
 11 10  1  0
 12 19  1  0
 13 12  2  0
 15 14  1  0
 16 17  1  1
 16 15  1  0
 18 16  1  0
 18 19  1  6
 20 22  1  0
 20 18  1  0
 21 20  2  0
M  END
$$$$
