TKK.pdb
     RDKit          3D

 26 25  0  0  1  0  0  0  0  0999 V2000
   32.9275  -33.1165  -19.2222 C   0  0  0  0  0  0  0  0  0  0  0  0
   33.1716  -33.7230  -17.8567 C   0  0  1  0  0  0  0  0  0  0  0  0
   34.1290  -34.7184  -17.9891 O   0  0  0  0  0  0  0  0  0  0  0  0
   33.6226  -32.6099  -16.9438 C   0  0  2  0  0  0  0  0  0  0  0  0
   33.8934  -33.0450  -15.6043 N   0  0  0  0  0  0  0  0  0  0  0  0
   32.7175  -31.4619  -16.9240 C   0  0  0  0  0  0  0  0  0  0  0  0
   31.9573  -31.3124  -15.9335 O   0  0  0  0  0  0  0  0  0  0  0  0
   32.6271  -30.4859  -17.9521 N   0  0  0  0  0  0  0  0  0  0  0  0
   31.6828  -29.3875  -17.9660 C   0  0  1  0  0  0  0  0  0  0  0  0
   32.1625  -28.2389  -18.8163 C   0  0  0  0  0  0  0  0  0  0  0  0
   33.2322  -27.4282  -18.2024 C   0  0  0  0  0  0  0  0  0  0  0  0
   33.8450  -26.3803  -19.0509 C   0  0  0  0  0  0  0  0  0  0  0  0
   34.9075  -25.5690  -18.3449 C   0  0  0  0  0  0  0  0  0  0  0  0
   35.4345  -24.6351  -19.3495 N   0  0  0  0  0  0  0  0  0  0  0  0
   30.3286  -29.8497  -18.4005 C   0  0  0  0  0  0  0  0  0  0  0  0
   30.2293  -30.5710  -19.4430 O   0  0  0  0  0  0  0  0  0  0  0  0
   29.1435  -29.5297  -17.7159 N   0  0  0  0  0  0  0  0  0  0  0  0
   27.8239  -30.0487  -18.1046 C   0  0  1  0  0  0  0  0  0  0  0  0
   26.9056  -30.0775  -16.9307 C   0  0  0  0  0  0  0  0  0  0  0  0
   25.5833  -30.6763  -17.2942 C   0  0  0  0  0  0  0  0  0  0  0  0
   25.4111  -32.0745  -16.7205 C   0  0  0  0  0  0  0  0  0  0  0  0
   24.5698  -32.0639  -15.4774 C   0  0  0  0  0  0  0  0  0  0  0  0
   24.4725  -33.4625  -15.0346 N   0  0  0  0  0  0  0  0  0  0  0  0
   27.2799  -29.3068  -19.2396 C   0  0  0  0  0  0  0  0  0  0  0  0
   26.3379  -29.7079  -20.1415 O   0  0  0  0  0  0  0  0  0  0  0  0
   27.7523  -28.1218  -19.4137 O   0  0  0  0  0  0  0  0  0  0  0  0
  2  1  1  6
  2  4  1  0
  2  3  1  0
  4  5  1  1
  6  4  1  0
  7  6  2  0
  8  6  1  0
  9  8  1  0
  9 10  1  6
 10 11  1  0
 11 12  1  0
 12 13  1  0
 13 14  1  0
 15  9  1  0
 16 15  2  0
 17 15  1  0
 18 24  1  0
 18 17  1  0
 18 19  1  1
 20 19  1  0
 21 22  1  0
 21 20  1  0
 23 22  1  0
 24 25  1  0
 26 24  2  0
M  END
$$$$
