TKK.pdb
     RDKit          3D

 26 25  0  0  1  0  0  0  0  0999 V2000
   24.3139  -26.4495  -17.8748 C   0  0  0  0  0  0  0  0  0  0  0  0
   25.4095  -27.2136  -17.1621 C   0  0  1  0  0  0  0  0  0  0  0  0
   25.8148  -28.2567  -17.9823 O   0  0  0  0  0  0  0  0  0  0  0  0
   26.5257  -26.2395  -16.8774 C   0  0  2  0  0  0  0  0  0  0  0  0
   27.6452  -26.8348  -16.2072 N   0  0  0  0  0  0  0  0  0  0  0  0
   26.0924  -25.0411  -16.1609 C   0  0  0  0  0  0  0  0  0  0  0  0
   25.7356  -25.1542  -14.9604 O   0  0  0  0  0  0  0  0  0  0  0  0
   26.0414  -23.7374  -16.7226 N   0  0  0  0  0  0  0  0  0  0  0  0
   25.6511  -22.5432  -16.0016 C   0  0  1  0  0  0  0  0  0  0  0  0
   26.1935  -21.2916  -16.6431 C   0  0  0  0  0  0  0  0  0  0  0  0
   27.6665  -21.2274  -16.7102 C   0  0  0  0  0  0  0  0  0  0  0  0
   28.2535  -20.0245  -17.3444 C   0  0  0  0  0  0  0  0  0  0  0  0
   29.7639  -20.0439  -17.4059 C   0  0  0  0  0  0  0  0  0  0  0  0
   30.1540  -18.8109  -18.1036 N   0  0  0  0  0  0  0  0  0  0  0  0
   24.1651  -22.4697  -15.8502 C   0  0  0  0  0  0  0  0  0  0  0  0
   23.4364  -22.5295  -16.8906 O   0  0  0  0  0  0  0  0  0  0  0  0
   23.5179  -22.3362  -14.6098 N   0  0  0  0  0  0  0  0  0  0  0  0
   22.0562  -22.2637  -14.4680 C   0  0  1  0  0  0  0  0  0  0  0  0
   21.5752  -23.2691  -13.4781 C   0  0  0  0  0  0  0  0  0  0  0  0
   20.0829  -23.2486  -13.3693 C   0  0  0  0  0  0  0  0  0  0  0  0
   19.5770  -24.1637  -12.2647 C   0  0  0  0  0  0  0  0  0  0  0  0
   18.0790  -24.2591  -12.2664 C   0  0  0  0  0  0  0  0  0  0  0  0
   17.7226  -25.1564  -11.1575 N   0  0  0  0  0  0  0  0  0  0  0  0
   21.6243  -20.9028  -14.1585 C   0  0  0  0  0  0  0  0  0  0  0  0
   20.4314  -20.3059  -14.4459 O   0  0  0  0  0  0  0  0  0  0  0  0
   22.4808  -20.1701  -13.5362 O   0  0  0  0  0  0  0  0  0  0  0  0
  2  1  1  6
  2  4  1  0
  2  3  1  0
  4  5  1  1
  6  4  1  0
  7  6  2  0
  8  6  1  0
  9  8  1  0
  9 10  1  6
 10 11  1  0
 11 12  1  0
 12 13  1  0
 13 14  1  0
 15  9  1  0
 16 15  2  0
 17 15  1  0
 18 24  1  0
 18 17  1  0
 18 19  1  1
 20 19  1  0
 21 22  1  0
 21 20  1  0
 23 22  1  0
 24 25  1  0
 26 24  2  0
M  END
$$$$
