TKK.pdb
     RDKit          3D

 26 25  0  0  1  0  0  0  0  0999 V2000
   23.7958   -9.8607  -14.3169 C   0  0  0  0  0  0  0  0  0  0  0  0
   24.2244  -10.7281  -15.4814 C   0  0  1  0  0  0  0  0  0  0  0  0
   25.3096  -11.4920  -15.0767 O   0  0  0  0  0  0  0  0  0  0  0  0
   23.0390  -11.5754  -15.8719 C   0  0  2  0  0  0  0  0  0  0  0  0
   23.3405  -12.5469  -16.8829 N   0  0  0  0  0  0  0  0  0  0  0  0
   21.8624  -10.7987  -16.2588 C   0  0  0  0  0  0  0  0  0  0  0  0
   21.8190  -10.3090  -17.4162 O   0  0  0  0  0  0  0  0  0  0  0  0
   20.7459  -10.5490  -15.4168 N   0  0  0  0  0  0  0  0  0  0  0  0
   19.5517   -9.8352  -15.8205 C   0  0  1  0  0  0  0  0  0  0  0  0
   18.3181  -10.3602  -15.1314 C   0  0  0  0  0  0  0  0  0  0  0  0
   17.0601   -9.7125  -15.5514 C   0  0  0  0  0  0  0  0  0  0  0  0
   15.8238  -10.1461  -14.8606 C   0  0  0  0  0  0  0  0  0  0  0  0
   14.5779   -9.4351  -15.3380 C   0  0  0  0  0  0  0  0  0  0  0  0
   13.4851   -9.9216  -14.4847 N   0  0  0  0  0  0  0  0  0  0  0  0
   19.7060   -8.3641  -15.6007 C   0  0  0  0  0  0  0  0  0  0  0  0
   20.1453   -7.9515  -14.4810 O   0  0  0  0  0  0  0  0  0  0  0  0
   19.3897   -7.3978  -16.5711 N   0  0  0  0  0  0  0  0  0  0  0  0
   19.5260   -5.9519  -16.3419 C   0  0  1  0  0  0  0  0  0  0  0  0
   19.8074   -5.2426  -17.6224 C   0  0  0  0  0  0  0  0  0  0  0  0
   19.9115   -3.7650  -17.4096 C   0  0  0  0  0  0  0  0  0  0  0  0
   20.2344   -3.0227  -18.6973 C   0  0  0  0  0  0  0  0  0  0  0  0
   20.2568   -1.5363  -18.4897 C   0  0  0  0  0  0  0  0  0  0  0  0
   20.4305   -0.9374  -19.8212 N   0  0  0  0  0  0  0  0  0  0  0  0
   18.3635   -5.4192  -15.6352 C   0  0  0  0  0  0  0  0  0  0  0  0
   18.2759   -4.2849  -14.8818 O   0  0  0  0  0  0  0  0  0  0  0  0
   17.2818   -6.1105  -15.7333 O   0  0  0  0  0  0  0  0  0  0  0  0
  2  1  1  1
  2  4  1  0
  2  3  1  0
  4  5  1  6
  6  4  1  0
  7  6  2  0
  8  6  1  0
  9  8  1  0
  9 10  1  1
 10 11  1  0
 11 12  1  0
 12 13  1  0
 13 14  1  0
 15  9  1  0
 16 15  2  0
 17 15  1  0
 18 24  1  0
 18 17  1  0
 18 19  1  6
 20 19  1  0
 21 22  1  0
 21 20  1  0
 23 22  1  0
 24 25  1  0
 26 24  2  0
M  END
$$$$
