TKK.pdb
     RDKit          3D

 26 25  0  0  1  0  0  0  0  0999 V2000
   26.3267  -22.4719  -12.3721 C   0  0  0  0  0  0  0  0  0  0  0  0
   25.4413  -21.9278  -11.2712 C   0  0  1  0  0  0  0  0  0  0  0  0
   25.6480  -22.6914  -10.1312 O   0  0  0  0  0  0  0  0  0  0  0  0
   25.8136  -20.4801  -11.0683 C   0  0  2  0  0  0  0  0  0  0  0  0
   25.1780  -19.8817   -9.9303 N   0  0  0  0  0  0  0  0  0  0  0  0
   25.6071  -19.6478  -12.2524 C   0  0  0  0  0  0  0  0  0  0  0  0
   24.5173  -19.0319  -12.3720 O   0  0  0  0  0  0  0  0  0  0  0  0
   26.5556  -19.4772  -13.2960 N   0  0  0  0  0  0  0  0  0  0  0  0
   26.3466  -18.6625  -14.4754 C   0  0  1  0  0  0  0  0  0  0  0  0
   27.6394  -18.3536  -15.1865 C   0  0  0  0  0  0  0  0  0  0  0  0
   27.4868  -17.5362  -16.4059 C   0  0  0  0  0  0  0  0  0  0  0  0
   28.7113  -17.2918  -17.2026 C   0  0  0  0  0  0  0  0  0  0  0  0
   28.4986  -16.3648  -18.3777 C   0  0  0  0  0  0  0  0  0  0  0  0
   29.8100  -16.2306  -19.0267 N   0  0  0  0  0  0  0  0  0  0  0  0
   25.3624  -19.3023  -15.4018 C   0  0  0  0  0  0  0  0  0  0  0  0
   25.5246  -20.5209  -15.7266 O   0  0  0  0  0  0  0  0  0  0  0  0
   24.2544  -18.6273  -15.9422 N   0  0  0  0  0  0  0  0  0  0  0  0
   23.2309  -19.2892  -16.7646 C   0  0  1  0  0  0  0  0  0  0  0  0
   22.1036  -18.3564  -17.0493 C   0  0  0  0  0  0  0  0  0  0  0  0
   21.0443  -19.0238  -17.8690 C   0  0  0  0  0  0  0  0  0  0  0  0
   19.6704  -18.9172  -17.2252 C   0  0  0  0  0  0  0  0  0  0  0  0
   18.6233  -19.6280  -18.0322 C   0  0  0  0  0  0  0  0  0  0  0  0
   17.3541  -19.4431  -17.3136 N   0  0  0  0  0  0  0  0  0  0  0  0
   23.8175  -19.8647  -17.9725 C   0  0  0  0  0  0  0  0  0  0  0  0
   24.5752  -19.2467  -18.9243 O   0  0  0  0  0  0  0  0  0  0  0  0
   23.5880  -21.1167  -18.1662 O   0  0  0  0  0  0  0  0  0  0  0  0
  2  1  1  6
  2  4  1  0
  2  3  1  0
  4  5  1  1
  6  4  1  0
  7  6  2  0
  8  6  1  0
  9  8  1  0
  9 10  1  6
 10 11  1  0
 11 12  1  0
 12 13  1  0
 13 14  1  0
 15  9  1  0
 16 15  2  0
 17 15  1  0
 18 24  1  0
 18 17  1  0
 18 19  1  6
 20 19  1  0
 21 22  1  0
 21 20  1  0
 23 22  1  0
 24 25  1  0
 26 24  2  0
M  END
$$$$
