TKK.pdb
     RDKit          3D

 26 25  0  0  1  0  0  0  0  0999 V2000
   18.8121  -18.3654  -18.5758 C   0  0  0  0  0  0  0  0  0  0  0  0
   18.0220  -17.5436  -17.5796 C   0  0  1  0  0  0  0  0  0  0  0  0
   16.7211  -17.4278  -18.0479 O   0  0  0  0  0  0  0  0  0  0  0  0
   18.0933  -18.2556  -16.2516 C   0  0  2  0  0  0  0  0  0  0  0  0
   17.2578  -17.6690  -15.2442 N   0  0  0  0  0  0  0  0  0  0  0  0
   19.4543  -18.4161  -15.7423 C   0  0  0  0  0  0  0  0  0  0  0  0
   20.1678  -17.3905  -15.5994 O   0  0  0  0  0  0  0  0  0  0  0  0
   20.0445  -19.6594  -15.3904 N   0  0  0  0  0  0  0  0  0  0  0  0
   21.4332  -19.8374  -15.0189 C   0  0  1  0  0  0  0  0  0  0  0  0
   21.6001  -20.8618  -13.9257 C   0  0  0  0  0  0  0  0  0  0  0  0
   22.9897  -21.0404  -13.4615 C   0  0  0  0  0  0  0  0  0  0  0  0
   23.7213  -22.2174  -13.9842 C   0  0  0  0  0  0  0  0  0  0  0  0
   25.1344  -22.3382  -13.4605 C   0  0  0  0  0  0  0  0  0  0  0  0
   25.7012  -23.5316  -14.1037 N   0  0  0  0  0  0  0  0  0  0  0  0
   22.2675  -20.1820  -16.2111 C   0  0  0  0  0  0  0  0  0  0  0  0
   22.0252  -21.2594  -16.8417 O   0  0  0  0  0  0  0  0  0  0  0  0
   23.3176  -19.3752  -16.6820 N   0  0  0  0  0  0  0  0  0  0  0  0
   24.1597  -19.7391  -17.8310 C   0  0  1  0  0  0  0  0  0  0  0  0
   25.3373  -18.8301  -17.9265 C   0  0  0  0  0  0  0  0  0  0  0  0
   26.1056  -19.0723  -19.1875 C   0  0  0  0  0  0  0  0  0  0  0  0
   27.2542  -18.0895  -19.3558 C   0  0  0  0  0  0  0  0  0  0  0  0
   27.9411  -18.2608  -20.6793 C   0  0  0  0  0  0  0  0  0  0  0  0
   28.8702  -17.1289  -20.8101 N   0  0  0  0  0  0  0  0  0  0  0  0
   24.5286  -21.1521  -17.7866 C   0  0  0  0  0  0  0  0  0  0  0  0
   24.8706  -21.9052  -16.7013 O   0  0  0  0  0  0  0  0  0  0  0  0
   24.5348  -21.7663  -18.9181 O   0  0  0  0  0  0  0  0  0  0  0  0
  2  1  1  6
  2  4  1  0
  2  3  1  0
  4  5  1  1
  6  4  1  0
  7  6  2  0
  8  6  1  0
  9  8  1  0
  9 10  1  1
 10 11  1  0
 11 12  1  0
 12 13  1  0
 13 14  1  0
 15  9  1  0
 16 15  2  0
 17 15  1  0
 18 24  1  0
 18 17  1  0
 18 19  1  1
 20 19  1  0
 21 22  1  0
 21 20  1  0
 23 22  1  0
 24 25  1  0
 26 24  2  0
M  END
$$$$
