TKK.pdb
     RDKit          3D

 26 25  0  0  1  0  0  0  0  0999 V2000
   19.4793  -26.5926  -16.2132 C   0  0  0  0  0  0  0  0  0  0  0  0
   20.8472  -27.2214  -16.0537 C   0  0  1  0  0  0  0  0  0  0  0  0
   21.0627  -28.0697  -17.1303 O   0  0  0  0  0  0  0  0  0  0  0  0
   21.8543  -26.0997  -15.9956 C   0  0  2  0  0  0  0  0  0  0  0  0
   23.2146  -26.5541  -15.9899 N   0  0  0  0  0  0  0  0  0  0  0  0
   21.6332  -25.1670  -14.8917 C   0  0  0  0  0  0  0  0  0  0  0  0
   22.1454  -25.4270  -13.7730 O   0  0  0  0  0  0  0  0  0  0  0  0
   20.8729  -23.9707  -14.9840 N   0  0  0  0  0  0  0  0  0  0  0  0
   20.6363  -23.0569  -13.8852 C   0  0  1  0  0  0  0  0  0  0  0  0
   20.4083  -21.6451  -14.3619 C   0  0  0  0  0  0  0  0  0  0  0  0
   21.5835  -21.0159  -14.9955 C   0  0  0  0  0  0  0  0  0  0  0  0
   21.4537  -19.5897  -15.3733 C   0  0  0  0  0  0  0  0  0  0  0  0
   22.6597  -19.0400  -16.1007 C   0  0  0  0  0  0  0  0  0  0  0  0
   22.3134  -17.6600  -16.4682 N   0  0  0  0  0  0  0  0  0  0  0  0
   19.5016  -23.5265  -13.0318 C   0  0  0  0  0  0  0  0  0  0  0  0
   18.4139  -23.8751  -13.5907 O   0  0  0  0  0  0  0  0  0  0  0  0
   19.5671  -23.6061  -11.6301 N   0  0  0  0  0  0  0  0  0  0  0  0
   18.4194  -23.9798  -10.7904 C   0  0  1  0  0  0  0  0  0  0  0  0
   18.8791  -24.4387   -9.4487 C   0  0  0  0  0  0  0  0  0  0  0  0
   17.7199  -24.8150   -8.5804 C   0  0  0  0  0  0  0  0  0  0  0  0
   18.1675  -25.3583   -7.2320 C   0  0  0  0  0  0  0  0  0  0  0  0
   16.9981  -25.6714   -6.3446 C   0  0  0  0  0  0  0  0  0  0  0  0
   17.5622  -26.1583   -5.0772 N   0  0  0  0  0  0  0  0  0  0  0  0
   17.4425  -22.8956  -10.7216 C   0  0  0  0  0  0  0  0  0  0  0  0
   17.6675  -21.5499  -10.7323 O   0  0  0  0  0  0  0  0  0  0  0  0
   16.2093  -23.2560  -10.6371 O   0  0  0  0  0  0  0  0  0  0  0  0
  2  1  1  6
  2  4  1  0
  2  3  1  0
  4  5  1  1
  6  4  1  0
  7  6  2  0
  8  6  1  0
  9  8  1  0
  9 10  1  6
 10 11  1  0
 11 12  1  0
 12 13  1  0
 13 14  1  0
 15  9  1  0
 16 15  2  0
 17 15  1  0
 18 24  1  0
 18 17  1  0
 18 19  1  1
 20 19  1  0
 21 22  1  0
 21 20  1  0
 23 22  1  0
 24 25  1  0
 26 24  2  0
M  END
$$$$
