TKK.pdb
     RDKit          3D

 26 25  0  0  1  0  0  0  0  0999 V2000
   17.2040  -20.4700    4.9569 C   0  0  0  0  0  0  0  0  0  0  0  0
   17.8324  -20.4195    3.5805 C   0  0  1  0  0  0  0  0  0  0  0  0
   18.0238  -21.7222    3.1430 O   0  0  0  0  0  0  0  0  0  0  0  0
   16.8963  -19.6448    2.6864 C   0  0  2  0  0  0  0  0  0  0  0  0
   17.2117  -19.7619    1.2922 N   0  0  0  0  0  0  0  0  0  0  0  0
   16.7635  -18.2358    3.0532 C   0  0  0  0  0  0  0  0  0  0  0  0
   17.5961  -17.4135    2.5928 O   0  0  0  0  0  0  0  0  0  0  0  0
   15.7521  -17.7135    3.9028 N   0  0  0  0  0  0  0  0  0  0  0  0
   15.6309  -16.3204    4.2810 C   0  0  1  0  0  0  0  0  0  0  0  0
   14.2542  -15.9923    4.8000 C   0  0  0  0  0  0  0  0  0  0  0  0
   14.0308  -14.5604    5.0795 C   0  0  0  0  0  0  0  0  0  0  0  0
   12.6962  -14.1826    5.5989 C   0  0  0  0  0  0  0  0  0  0  0  0
   12.5178  -12.6942    5.7950 C   0  0  0  0  0  0  0  0  0  0  0  0
   11.1593  -12.5184    6.3269 N   0  0  0  0  0  0  0  0  0  0  0  0
   16.6843  -15.9400    5.2719 C   0  0  0  0  0  0  0  0  0  0  0  0
   17.1555  -16.8341    6.0436 O   0  0  0  0  0  0  0  0  0  0  0  0
   17.1907  -14.6354    5.4028 N   0  0  0  0  0  0  0  0  0  0  0  0
   18.2145  -14.2645    6.3907 C   0  0  1  0  0  0  0  0  0  0  0  0
   18.8740  -12.9841    6.0064 C   0  0  0  0  0  0  0  0  0  0  0  0
   19.9586  -12.6241    6.9725 C   0  0  0  0  0  0  0  0  0  0  0  0
   20.6828  -11.3483    6.5707 C   0  0  0  0  0  0  0  0  0  0  0  0
   21.8038  -11.0261    7.5154 C   0  0  0  0  0  0  0  0  0  0  0  0
   22.4152   -9.7841    7.0200 N   0  0  0  0  0  0  0  0  0  0  0  0
   17.6581  -14.2396    7.7413 C   0  0  0  0  0  0  0  0  0  0  0  0
   18.2771  -14.5428    8.9189 O   0  0  0  0  0  0  0  0  0  0  0  0
   16.4227  -13.8887    7.8329 O   0  0  0  0  0  0  0  0  0  0  0  0
  2  1  1  1
  2  4  1  0
  2  3  1  0
  4  5  1  6
  6  4  1  0
  7  6  2  0
  8  6  1  0
  9  8  1  0
  9 10  1  1
 10 11  1  0
 11 12  1  0
 12 13  1  0
 13 14  1  0
 15  9  1  0
 16 15  2  0
 17 15  1  0
 18 24  1  0
 18 17  1  0
 18 19  1  6
 20 19  1  0
 21 22  1  0
 21 20  1  0
 23 22  1  0
 24 25  1  0
 26 24  2  0
M  END
$$$$
