TKK.pdb
     RDKit          3D

 26 25  0  0  1  0  0  0  0  0999 V2000
   28.4173  -21.5505  -17.9481 C   0  0  0  0  0  0  0  0  0  0  0  0
   27.4310  -22.0118  -16.8962 C   0  0  1  0  0  0  0  0  0  0  0  0
   28.0983  -22.8489  -16.0135 O   0  0  0  0  0  0  0  0  0  0  0  0
   26.8864  -20.7790  -16.2185 C   0  0  2  0  0  0  0  0  0  0  0  0
   27.9040  -19.9453  -15.6472 N   0  0  0  0  0  0  0  0  0  0  0  0
   25.8540  -21.0625  -15.2228 C   0  0  0  0  0  0  0  0  0  0  0  0
   24.8214  -21.6812  -15.5866 O   0  0  0  0  0  0  0  0  0  0  0  0
   25.9258  -20.6878  -13.8545 N   0  0  0  0  0  0  0  0  0  0  0  0
   24.8590  -20.8713  -12.8920 C   0  0  1  0  0  0  0  0  0  0  0  0
   25.3300  -20.6549  -11.4765 C   0  0  0  0  0  0  0  0  0  0  0  0
   24.2978  -20.8829  -10.4465 C   0  0  0  0  0  0  0  0  0  0  0  0
   24.7225  -20.7436   -9.0344 C   0  0  0  0  0  0  0  0  0  0  0  0
   23.6156  -21.0004   -8.0372 C   0  0  0  0  0  0  0  0  0  0  0  0
   24.2054  -20.7653   -6.7120 N   0  0  0  0  0  0  0  0  0  0  0  0
   23.6917  -19.9927  -13.2109 C   0  0  0  0  0  0  0  0  0  0  0  0
   23.8825  -18.7440  -13.3566 O   0  0  0  0  0  0  0  0  0  0  0  0
   22.3789  -20.4717  -13.3607 N   0  0  0  0  0  0  0  0  0  0  0  0
   21.2369  -19.6035  -13.6830 C   0  0  1  0  0  0  0  0  0  0  0  0
   20.9464  -19.6406  -15.1446 C   0  0  0  0  0  0  0  0  0  0  0  0
   19.8235  -18.7159  -15.4956 C   0  0  0  0  0  0  0  0  0  0  0  0
   19.4505  -18.8014  -16.9677 C   0  0  0  0  0  0  0  0  0  0  0  0
   18.4348  -17.7621  -17.3436 C   0  0  0  0  0  0  0  0  0  0  0  0
   18.3450  -17.7864  -18.8109 N   0  0  0  0  0  0  0  0  0  0  0  0
   20.0760  -19.9334  -12.8595 C   0  0  0  0  0  0  0  0  0  0  0  0
   19.1438  -19.0886  -12.3312 O   0  0  0  0  0  0  0  0  0  0  0  0
   19.9123  -21.1828  -12.5953 O   0  0  0  0  0  0  0  0  0  0  0  0
  2  1  1  6
  2  4  1  0
  2  3  1  0
  4  5  1  1
  6  4  1  0
  7  6  2  0
  8  6  1  0
  9  8  1  0
  9 10  1  1
 10 11  1  0
 11 12  1  0
 12 13  1  0
 13 14  1  0
 15  9  1  0
 16 15  2  0
 17 15  1  0
 18 24  1  0
 18 17  1  0
 18 19  1  6
 20 19  1  0
 21 22  1  0
 21 20  1  0
 23 22  1  0
 24 25  1  0
 26 24  2  0
M  END
$$$$
