TKK.pdb
     RDKit          3D

 26 25  0  0  1  0  0  0  0  0999 V2000
   26.0104   -9.9429  -15.2917 C   0  0  0  0  0  0  0  0  0  0  0  0
   25.6872  -11.0546  -16.2672 C   0  0  1  0  0  0  0  0  0  0  0  0
   26.7263  -11.9735  -16.2373 O   0  0  0  0  0  0  0  0  0  0  0  0
   24.3727  -11.6596  -15.8409 C   0  0  2  0  0  0  0  0  0  0  0  0
   24.0481  -12.8693  -16.5397 N   0  0  0  0  0  0  0  0  0  0  0  0
   23.2480  -10.7277  -15.9040 C   0  0  0  0  0  0  0  0  0  0  0  0
   22.9170  -10.2594  -17.0232 O   0  0  0  0  0  0  0  0  0  0  0  0
   22.4870  -10.3019  -14.7827 N   0  0  0  0  0  0  0  0  0  0  0  0
   21.3931   -9.3541  -14.8400 C   0  0  1  0  0  0  0  0  0  0  0  0
   20.3369   -9.6449  -13.8045 C   0  0  0  0  0  0  0  0  0  0  0  0
   19.1889   -8.7176  -13.8242 C   0  0  0  0  0  0  0  0  0  0  0  0
   18.1757   -8.8877  -12.7573 C   0  0  0  0  0  0  0  0  0  0  0  0
   16.9891   -7.9605  -12.8906 C   0  0  0  0  0  0  0  0  0  0  0  0
   16.1487   -8.2106  -11.7114 N   0  0  0  0  0  0  0  0  0  0  0  0
   21.8930   -7.9499  -14.7191 C   0  0  0  0  0  0  0  0  0  0  0  0
   22.6181   -7.6382  -13.7221 O   0  0  0  0  0  0  0  0  0  0  0  0
   21.6048   -6.9411  -15.6543 N   0  0  0  0  0  0  0  0  0  0  0  0
   22.0903   -5.5594  -15.5235 C   0  0  1  0  0  0  0  0  0  0  0  0
   22.2260   -4.9225  -16.8643 C   0  0  0  0  0  0  0  0  0  0  0  0
   22.8084   -3.5485  -16.7531 C   0  0  0  0  0  0  0  0  0  0  0  0
   22.9909   -2.8924  -18.1131 C   0  0  0  0  0  0  0  0  0  0  0  0
   23.6775   -1.5625  -17.9994 C   0  0  0  0  0  0  0  0  0  0  0  0
   23.8904   -1.0904  -19.3754 N   0  0  0  0  0  0  0  0  0  0  0  0
   21.2514   -4.7913  -14.6065 C   0  0  0  0  0  0  0  0  0  0  0  0
   19.9646   -5.0387  -14.2260 O   0  0  0  0  0  0  0  0  0  0  0  0
   21.7952   -3.7436  -14.0925 O   0  0  0  0  0  0  0  0  0  0  0  0
  2  1  1  1
  2  4  1  0
  2  3  1  0
  4  5  1  6
  6  4  1  0
  7  6  2  0
  8  6  1  0
  9  8  1  0
  9 10  1  1
 10 11  1  0
 11 12  1  0
 12 13  1  0
 13 14  1  0
 15  9  1  0
 16 15  2  0
 17 15  1  0
 18 24  1  0
 18 17  1  0
 18 19  1  6
 20 19  1  0
 21 22  1  0
 21 20  1  0
 23 22  1  0
 24 25  1  0
 26 24  2  0
M  END
$$$$
