TKK.pdb
     RDKit          3D

 26 25  0  0  1  0  0  0  0  0999 V2000
   12.6995   -9.8554  -10.4039 C   0  0  0  0  0  0  0  0  0  0  0  0
   13.2649  -11.0969   -9.7474 C   0  0  1  0  0  0  0  0  0  0  0  0
   12.4404  -12.1676  -10.0621 O   0  0  0  0  0  0  0  0  0  0  0  0
   14.6692  -11.2810  -10.2667 C   0  0  2  0  0  0  0  0  0  0  0  0
   15.2863  -12.4976   -9.8238 N   0  0  0  0  0  0  0  0  0  0  0  0
   15.5500  -10.1457   -9.9970 C   0  0  0  0  0  0  0  0  0  0  0  0
   15.8427   -9.8821   -8.8028 O   0  0  0  0  0  0  0  0  0  0  0  0
   16.1103   -9.3027  -10.9935 N   0  0  0  0  0  0  0  0  0  0  0  0
   16.9412   -8.1470  -10.7243 C   0  0  1  0  0  0  0  0  0  0  0  0
   17.9596   -7.9162  -11.8114 C   0  0  0  0  0  0  0  0  0  0  0  0
   18.8265   -6.7408  -11.5983 C   0  0  0  0  0  0  0  0  0  0  0  0
   19.8008   -6.4278  -12.6690 C   0  0  0  0  0  0  0  0  0  0  0  0
   20.6574   -5.2166  -12.3781 C   0  0  0  0  0  0  0  0  0  0  0  0
   21.5890   -5.1017  -13.5087 N   0  0  0  0  0  0  0  0  0  0  0  0
   16.1065   -6.9265  -10.5009 C   0  0  0  0  0  0  0  0  0  0  0  0
   15.2068   -6.6320  -11.3498 O   0  0  0  0  0  0  0  0  0  0  0  0
   16.2600   -6.0743   -9.3938 N   0  0  0  0  0  0  0  0  0  0  0  0
   15.4139   -4.8942   -9.1628 C   0  0  1  0  0  0  0  0  0  0  0  0
   14.7660   -4.9682   -7.8223 C   0  0  0  0  0  0  0  0  0  0  0  0
   13.9834   -3.7263   -7.5315 C   0  0  0  0  0  0  0  0  0  0  0  0
   13.3177   -3.7762   -6.1648 C   0  0  0  0  0  0  0  0  0  0  0  0
   12.4615   -2.5678   -5.9207 C   0  0  0  0  0  0  0  0  0  0  0  0
   11.8366   -2.7653   -4.6046 N   0  0  0  0  0  0  0  0  0  0  0  0
   16.1663   -3.6588   -9.3681 C   0  0  0  0  0  0  0  0  0  0  0  0
   15.6897   -2.4158   -9.6677 O   0  0  0  0  0  0  0  0  0  0  0  0
   17.4451   -3.7552   -9.2546 O   0  0  0  0  0  0  0  0  0  0  0  0
  2  1  1  6
  2  4  1  0
  2  3  1  0
  4  5  1  1
  6  4  1  0
  7  6  2  0
  8  6  1  0
  9  8  1  0
  9 10  1  6
 10 11  1  0
 11 12  1  0
 12 13  1  0
 13 14  1  0
 15  9  1  0
 16 15  2  0
 17 15  1  0
 18 24  1  0
 18 17  1  0
 18 19  1  1
 20 19  1  0
 21 22  1  0
 21 20  1  0
 23 22  1  0
 24 25  1  0
 26 24  2  0
M  END
$$$$
