TKK.pdb
     RDKit          3D

 26 25  0  0  1  0  0  0  0  0999 V2000
   26.7006  -21.7774  -17.2226 C   0  0  0  0  0  0  0  0  0  0  0  0
   26.8923  -23.2688  -17.0460 C   0  0  1  0  0  0  0  0  0  0  0  0
   28.2351  -23.5594  -17.2395 O   0  0  0  0  0  0  0  0  0  0  0  0
   26.4225  -23.6216  -15.6565 C   0  0  2  0  0  0  0  0  0  0  0  0
   26.5225  -25.0210  -15.3586 N   0  0  0  0  0  0  0  0  0  0  0  0
   25.0768  -23.1393  -15.3501 C   0  0  0  0  0  0  0  0  0  0  0  0
   24.1033  -23.6388  -15.9700 O   0  0  0  0  0  0  0  0  0  0  0  0
   24.7767  -22.1344  -14.3921 N   0  0  0  0  0  0  0  0  0  0  0  0
   23.4507  -21.6126  -14.1317 C   0  0  1  0  0  0  0  0  0  0  0  0
   23.4037  -20.7899  -12.8695 C   0  0  0  0  0  0  0  0  0  0  0  0
   22.0897  -20.1813  -12.5844 C   0  0  0  0  0  0  0  0  0  0  0  0
   21.2615  -20.8382  -11.5469 C   0  0  0  0  0  0  0  0  0  0  0  0
   20.0008  -20.0782  -11.2025 C   0  0  0  0  0  0  0  0  0  0  0  0
   19.3908  -20.7998  -10.0771 N   0  0  0  0  0  0  0  0  0  0  0  0
   22.9420  -20.8326  -15.3017 C   0  0  0  0  0  0  0  0  0  0  0  0
   23.5737  -19.7923  -15.6700 O   0  0  0  0  0  0  0  0  0  0  0  0
   21.7914  -21.1857  -16.0277 N   0  0  0  0  0  0  0  0  0  0  0  0
   21.2271  -20.3505  -17.0982 C   0  0  1  0  0  0  0  0  0  0  0  0
   20.5611  -21.1979  -18.1280 C   0  0  0  0  0  0  0  0  0  0  0  0
   19.5066  -22.0646  -17.5145 C   0  0  0  0  0  0  0  0  0  0  0  0
   18.9510  -23.0774  -18.5039 C   0  0  0  0  0  0  0  0  0  0  0  0
   17.9395  -23.9819  -17.8624 C   0  0  0  0  0  0  0  0  0  0  0  0
   17.6116  -25.0078  -18.8632 N   0  0  0  0  0  0  0  0  0  0  0  0
   20.3506  -19.3168  -16.5525 C   0  0  0  0  0  0  0  0  0  0  0  0
   19.8987  -19.1775  -15.2726 O   0  0  0  0  0  0  0  0  0  0  0  0
   19.9500  -18.4225  -17.3877 O   0  0  0  0  0  0  0  0  0  0  0  0
  2  1  1  1
  2  4  1  0
  2  3  1  0
  4  5  1  6
  6  4  1  0
  7  6  2  0
  8  6  1  0
  9  8  1  0
  9 10  1  1
 10 11  1  0
 11 12  1  0
 12 13  1  0
 13 14  1  0
 15  9  1  0
 16 15  2  0
 17 15  1  0
 18 24  1  0
 18 17  1  0
 18 19  1  6
 20 19  1  0
 21 22  1  0
 21 20  1  0
 23 22  1  0
 24 25  1  0
 26 24  2  0
M  END
$$$$
