TKK.pdb
     RDKit          3D

 26 25  0  0  1  0  0  0  0  0999 V2000
   17.8757  -10.7944  -11.1214 C   0  0  0  0  0  0  0  0  0  0  0  0
   16.8152  -11.6505  -11.7807 C   0  0  1  0  0  0  0  0  0  0  0  0
   17.1699  -12.9820  -11.6182 O   0  0  0  0  0  0  0  0  0  0  0  0
   15.4982  -11.3222  -11.1223 C   0  0  2  0  0  0  0  0  0  0  0  0
   14.4571  -12.2592  -11.4307 N   0  0  0  0  0  0  0  0  0  0  0  0
   15.0365   -9.9587  -11.3774 C   0  0  0  0  0  0  0  0  0  0  0  0
   14.5989   -9.6762  -12.5220 O   0  0  0  0  0  0  0  0  0  0  0  0
   15.0432   -8.9103  -10.4190 N   0  0  0  0  0  0  0  0  0  0  0  0
   14.5773   -7.5616  -10.6686 C   0  0  1  0  0  0  0  0  0  0  0  0
   13.7608   -7.0232   -9.5215 C   0  0  0  0  0  0  0  0  0  0  0  0
   12.3941   -7.5732   -9.4320 C   0  0  0  0  0  0  0  0  0  0  0  0
   11.5019   -6.9793   -8.4098 C   0  0  0  0  0  0  0  0  0  0  0  0
   10.1370   -7.6259   -8.3428 C   0  0  0  0  0  0  0  0  0  0  0  0
   10.3648   -8.9988   -7.8710 N   0  0  0  0  0  0  0  0  0  0  0  0
   15.7186   -6.6508  -10.9908 C   0  0  0  0  0  0  0  0  0  0  0  0
   16.6588   -6.5184  -10.1449 O   0  0  0  0  0  0  0  0  0  0  0  0
   15.8148   -5.9224  -12.1890 N   0  0  0  0  0  0  0  0  0  0  0  0
   16.9263   -5.0074  -12.4881 C   0  0  1  0  0  0  0  0  0  0  0  0
   17.7247   -5.5121  -13.6413 C   0  0  0  0  0  0  0  0  0  0  0  0
   18.5515   -6.6960  -13.2487 C   0  0  0  0  0  0  0  0  0  0  0  0
   19.3409   -7.2571  -14.4216 C   0  0  0  0  0  0  0  0  0  0  0  0
   20.0605   -8.5213  -14.0515 C   0  0  0  0  0  0  0  0  0  0  0  0
   20.6924   -9.0113  -15.2853 N   0  0  0  0  0  0  0  0  0  0  0  0
   16.4464   -3.6406  -12.6778 C   0  0  0  0  0  0  0  0  0  0  0  0
   17.1546   -2.4763  -12.6092 O   0  0  0  0  0  0  0  0  0  0  0  0
   15.1921   -3.5178  -12.9412 O   0  0  0  0  0  0  0  0  0  0  0  0
  2  1  1  1
  2  4  1  0
  2  3  1  0
  4  5  1  6
  6  4  1  0
  7  6  2  0
  8  6  1  0
  9  8  1  0
  9 10  1  1
 10 11  1  0
 11 12  1  0
 12 13  1  0
 13 14  1  0
 15  9  1  0
 16 15  2  0
 17 15  1  0
 18 24  1  0
 18 17  1  0
 18 19  1  6
 20 19  1  0
 21 22  1  0
 21 20  1  0
 23 22  1  0
 24 25  1  0
 26 24  2  0
M  END
$$$$
