TKK.pdb
     RDKit          3D

 26 25  0  0  1  0  0  0  0  0999 V2000
   26.9411  -24.7558  -18.1308 C   0  0  0  0  0  0  0  0  0  0  0  0
   27.9106  -25.3332  -17.1215 C   0  0  1  0  0  0  0  0  0  0  0  0
   28.4468  -26.4976  -17.6522 O   0  0  0  0  0  0  0  0  0  0  0  0
   28.9626  -24.2848  -16.8570 C   0  0  2  0  0  0  0  0  0  0  0  0
   29.9886  -24.7210  -15.9547 N   0  0  0  0  0  0  0  0  0  0  0  0
   28.4173  -23.0029  -16.4132 C   0  0  0  0  0  0  0  0  0  0  0  0
   27.9746  -22.9116  -15.2397 O   0  0  0  0  0  0  0  0  0  0  0  0
   28.3466  -21.8331  -17.2158 N   0  0  0  0  0  0  0  0  0  0  0  0
   27.7823  -20.5703  -16.7853 C   0  0  1  0  0  0  0  0  0  0  0  0
   28.3087  -19.4106  -17.5917 C   0  0  0  0  0  0  0  0  0  0  0  0
   27.6876  -18.1106  -17.2715 C   0  0  0  0  0  0  0  0  0  0  0  0
   28.1520  -16.9396  -18.0505 C   0  0  0  0  0  0  0  0  0  0  0  0
   27.4484  -15.6508  -17.6909 C   0  0  0  0  0  0  0  0  0  0  0  0
   27.9553  -14.6402  -18.6296 N   0  0  0  0  0  0  0  0  0  0  0  0
   26.2878  -20.6124  -16.8156 C   0  0  0  0  0  0  0  0  0  0  0  0
   25.7051  -21.0531  -17.8564 O   0  0  0  0  0  0  0  0  0  0  0  0
   25.4784  -20.1878  -15.7479 N   0  0  0  0  0  0  0  0  0  0  0  0
   24.0134  -20.3127  -15.7489 C   0  0  1  0  0  0  0  0  0  0  0  0
   23.5108  -20.5981  -14.3749 C   0  0  0  0  0  0  0  0  0  0  0  0
   22.0352  -20.8469  -14.3804 C   0  0  0  0  0  0  0  0  0  0  0  0
   21.5255  -21.2965  -13.0197 C   0  0  0  0  0  0  0  0  0  0  0  0
   20.0678  -21.6519  -13.0635 C   0  0  0  0  0  0  0  0  0  0  0  0
   19.7115  -22.0952  -11.7077 N   0  0  0  0  0  0  0  0  0  0  0  0
   23.3857  -19.1419  -16.3569 C   0  0  0  0  0  0  0  0  0  0  0  0
   22.3396  -19.0993  -17.2319 O   0  0  0  0  0  0  0  0  0  0  0  0
   23.8858  -18.0023  -16.0269 O   0  0  0  0  0  0  0  0  0  0  0  0
  2  1  1  6
  2  4  1  0
  2  3  1  0
  4  5  1  1
  6  4  1  0
  7  6  2  0
  8  6  1  0
  9  8  1  0
  9 10  1  6
 10 11  1  0
 11 12  1  0
 12 13  1  0
 13 14  1  0
 15  9  1  0
 16 15  2  0
 17 15  1  0
 18 24  1  0
 18 17  1  0
 18 19  1  1
 20 19  1  0
 21 22  1  0
 21 20  1  0
 23 22  1  0
 24 25  1  0
 26 24  2  0
M  END
$$$$
