TKK.pdb
     RDKit          3D

 26 25  0  0  1  0  0  0  0  0999 V2000
   15.8144  -24.0539   -1.4120 C   0  0  0  0  0  0  0  0  0  0  0  0
   15.7088  -25.1105   -2.4911 C   0  0  1  0  0  0  0  0  0  0  0  0
   14.6290  -25.9289   -2.1925 O   0  0  0  0  0  0  0  0  0  0  0  0
   15.5398  -24.3940   -3.8078 C   0  0  2  0  0  0  0  0  0  0  0  0
   14.2453  -23.7984   -3.9712 N   0  0  0  0  0  0  0  0  0  0  0  0
   15.8625  -25.2177   -4.9718 C   0  0  0  0  0  0  0  0  0  0  0  0
   14.9630  -25.9491   -5.4589 O   0  0  0  0  0  0  0  0  0  0  0  0
   17.1327  -25.2582   -5.6064 N   0  0  0  0  0  0  0  0  0  0  0  0
   17.4869  -26.1562   -6.6864 C   0  0  1  0  0  0  0  0  0  0  0  0
   18.5378  -25.5662   -7.5919 C   0  0  0  0  0  0  0  0  0  0  0  0
   18.0793  -24.4136   -8.3916 C   0  0  0  0  0  0  0  0  0  0  0  0
   19.0379  -23.8618   -9.3766 C   0  0  0  0  0  0  0  0  0  0  0  0
   18.5001  -23.8135  -10.7888 C   0  0  0  0  0  0  0  0  0  0  0  0
   19.5530  -23.1855  -11.5989 N   0  0  0  0  0  0  0  0  0  0  0  0
   17.9176  -27.4872   -6.1580 C   0  0  0  0  0  0  0  0  0  0  0  0
   18.7953  -27.5301   -5.2389 O   0  0  0  0  0  0  0  0  0  0  0  0
   17.4032  -28.7096   -6.6234 N   0  0  0  0  0  0  0  0  0  0  0  0
   17.8091  -30.0136   -6.0788 C   0  0  1  0  0  0  0  0  0  0  0  0
   16.8840  -30.4375   -4.9895 C   0  0  0  0  0  0  0  0  0  0  0  0
   17.6323  -31.0840   -3.8665 C   0  0  0  0  0  0  0  0  0  0  0  0
   17.1107  -30.6487   -2.5056 C   0  0  0  0  0  0  0  0  0  0  0  0
   17.7481  -31.4281   -1.3924 C   0  0  0  0  0  0  0  0  0  0  0  0
   17.1912  -30.8905   -0.1424 N   0  0  0  0  0  0  0  0  0  0  0  0
   17.9396  -31.0095   -7.1397 C   0  0  0  0  0  0  0  0  0  0  0  0
   17.5726  -30.9055   -8.4498 O   0  0  0  0  0  0  0  0  0  0  0  0
   18.4666  -32.1321   -6.7938 O   0  0  0  0  0  0  0  0  0  0  0  0
  2  1  1  1
  2  4  1  0
  2  3  1  0
  4  5  1  6
  6  4  1  0
  7  6  2  0
  8  6  1  0
  9  8  1  0
  9 10  1  1
 10 11  1  0
 11 12  1  0
 12 13  1  0
 13 14  1  0
 15  9  1  0
 16 15  2  0
 17 15  1  0
 18 24  1  0
 18 17  1  0
 18 19  1  1
 20 19  1  0
 21 22  1  0
 21 20  1  0
 23 22  1  0
 24 25  1  0
 26 24  2  0
M  END
$$$$
