LGG.pdb
     RDKit          3D

 17 16  0  0  1  0  0  0  0  0999 V2000
   29.3263  -12.0547  -17.2160 C   0  0  0  0  0  0  0  0  0  0  0  0
   27.9432  -12.5181  -16.8650 C   0  0  1  0  0  0  0  0  0  0  0  0
   27.0607  -12.3032  -18.0679 C   0  0  0  0  0  0  0  0  0  0  0  0
   27.8881  -13.9525  -16.4108 C   0  0  0  0  0  0  0  0  0  0  0  0
   26.4547  -14.3806  -16.2147 C   0  0  2  0  0  0  0  0  0  0  0  0
   26.0348  -13.9403  -14.8969 N   0  0  0  0  0  0  0  0  0  0  0  0
   26.3899  -15.8775  -16.2595 C   0  0  0  0  0  0  0  0  0  0  0  0
   26.6311  -16.4942  -17.3286 O   0  0  0  0  0  0  0  0  0  0  0  0
   26.0594  -16.6486  -15.1173 N   0  0  0  0  0  0  0  0  0  0  0  0
   25.9972  -18.1110  -15.1699 C   0  0  0  0  0  0  0  0  0  0  0  0
   24.5983  -18.5701  -15.3444 C   0  0  0  0  0  0  0  0  0  0  0  0
   24.3536  -19.7988  -15.4535 O   0  0  0  0  0  0  0  0  0  0  0  0
   23.5005  -17.6739  -15.3954 N   0  0  0  0  0  0  0  0  0  0  0  0
   22.1532  -18.0925  -15.7279 C   0  0  0  0  0  0  0  0  0  0  0  0
   21.5130  -18.7244  -14.5600 C   0  0  0  0  0  0  0  0  0  0  0  0
   22.2252  -19.2476  -13.6637 O   0  0  0  0  0  0  0  0  0  0  0  0
   20.1279  -18.7395  -14.4545 O   0  0  0  0  0  0  0  0  0  0  0  0
  2  1  1  6
  2  3  1  0
  4  5  1  0
  4  2  1  0
  5  6  1  1
  7  5  1  0
  7  8  2  0
  9  7  1  0
 10  9  1  0
 10 11  1  0
 11 13  1  0
 11 12  2  0
 13 14  1  0
 14 15  1  0
 15 16  2  0
 15 17  1  0
M  END
$$$$
