LGG.pdb
     RDKit          3D

 17 16  0  0  1  0  0  0  0  0999 V2000
   25.1562  -13.6051  -15.2512 C   0  0  0  0  0  0  0  0  0  0  0  0
   24.7117  -13.0710  -16.5809 C   0  0  1  0  0  0  0  0  0  0  0  0
   24.2652  -14.2368  -17.4255 C   0  0  0  0  0  0  0  0  0  0  0  0
   23.6225  -12.0366  -16.4785 C   0  0  0  0  0  0  0  0  0  0  0  0
   23.2658  -11.5202  -17.8505 C   0  0  2  0  0  0  0  0  0  0  0  0
   24.4838  -11.0374  -18.4750 N   0  0  0  0  0  0  0  0  0  0  0  0
   22.3195  -10.3675  -17.6990 C   0  0  0  0  0  0  0  0  0  0  0  0
   21.2100  -10.5246  -17.1281 O   0  0  0  0  0  0  0  0  0  0  0  0
   22.6302   -9.0730  -18.1849 N   0  0  0  0  0  0  0  0  0  0  0  0
   21.7310   -7.9366  -17.9715 C   0  0  0  0  0  0  0  0  0  0  0  0
   22.2603   -7.0409  -16.9152 C   0  0  0  0  0  0  0  0  0  0  0  0
   22.6061   -5.8676  -17.2074 O   0  0  0  0  0  0  0  0  0  0  0  0
   22.3986   -7.4501  -15.5646 N   0  0  0  0  0  0  0  0  0  0  0  0
   22.9410   -6.5917  -14.5301 C   0  0  0  0  0  0  0  0  0  0  0  0
   21.9177   -5.6333  -14.0748 C   0  0  0  0  0  0  0  0  0  0  0  0
   20.7749   -5.6413  -14.6024 O   0  0  0  0  0  0  0  0  0  0  0  0
   22.2193   -4.7265  -13.0664 O   0  0  0  0  0  0  0  0  0  0  0  0
  2  1  1  1
  2  3  1  0
  4  5  1  0
  4  2  1  0
  5  6  1  1
  7  5  1  0
  7  8  2  0
  9  7  1  0
 10  9  1  0
 10 11  1  0
 11 13  1  0
 11 12  2  0
 13 14  1  0
 14 15  1  0
 15 16  2  0
 15 17  1  0
M  END
$$$$
