LGG.pdb
     RDKit          3D

 17 16  0  0  1  0  0  0  0  0999 V2000
   24.8361  -17.2740  -18.3069 C   0  0  0  0  0  0  0  0  0  0  0  0
   24.8903  -18.6377  -17.6839 C   0  0  1  0  0  0  0  0  0  0  0  0
   25.0776  -19.6468  -18.7877 C   0  0  0  0  0  0  0  0  0  0  0  0
   25.9675  -18.7790  -16.6416 C   0  0  0  0  0  0  0  0  0  0  0  0
   26.0109  -20.1971  -16.1283 C   0  0  2  0  0  0  0  0  0  0  0  0
   24.7538  -20.4651  -15.4540 N   0  0  0  0  0  0  0  0  0  0  0  0
   27.1215  -20.3123  -15.1281 C   0  0  0  0  0  0  0  0  0  0  0  0
   28.3182  -20.1635  -15.4846 O   0  0  0  0  0  0  0  0  0  0  0  0
   26.8736  -20.5894  -13.7605 N   0  0  0  0  0  0  0  0  0  0  0  0
   27.9502  -20.5776  -12.7674 C   0  0  0  0  0  0  0  0  0  0  0  0
   27.4215  -20.8894  -11.4178 C   0  0  0  0  0  0  0  0  0  0  0  0
   28.2017  -20.9124  -10.4318 O   0  0  0  0  0  0  0  0  0  0  0  0
   26.0519  -21.1687  -11.1791 N   0  0  0  0  0  0  0  0  0  0  0  0
   25.4336  -21.0359   -9.8748 C   0  0  0  0  0  0  0  0  0  0  0  0
   23.9834  -20.8140  -10.0186 C   0  0  0  0  0  0  0  0  0  0  0  0
   23.4979  -20.5692  -11.1538 O   0  0  0  0  0  0  0  0  0  0  0  0
   23.1601  -20.8760   -8.9013 O   0  0  0  0  0  0  0  0  0  0  0  0
  2  1  1  6
  2  3  1  0
  4  5  1  0
  4  2  1  0
  5  6  1  1
  7  5  1  0
  7  8  2  0
  9  7  1  0
 10  9  1  0
 10 11  1  0
 11 13  1  0
 11 12  2  0
 13 14  1  0
 14 15  1  0
 15 16  2  0
 15 17  1  0
M  END
$$$$
