LGG.pdb
     RDKit          3D

 17 16  0  0  1  0  0  0  0  0999 V2000
   17.3327  -12.7571  -16.1481 C   0  0  0  0  0  0  0  0  0  0  0  0
   18.8251  -12.6239  -16.2252 C   0  0  1  0  0  0  0  0  0  0  0  0
   19.3973  -13.9794  -16.5524 C   0  0  0  0  0  0  0  0  0  0  0  0
   19.2850  -11.5943  -17.2228 C   0  0  0  0  0  0  0  0  0  0  0  0
   20.7712  -11.3704  -17.0906 C   0  0  2  0  0  0  0  0  0  0  0  0
   21.0682  -11.1728  -15.6836 N   0  0  0  0  0  0  0  0  0  0  0  0
   21.1370  -10.1214  -17.8343 C   0  0  0  0  0  0  0  0  0  0  0  0
   20.9305  -10.0328  -19.0716 O   0  0  0  0  0  0  0  0  0  0  0  0
   21.7217   -9.0057  -17.1848 N   0  0  0  0  0  0  0  0  0  0  0  0
   22.0012   -7.7595  -17.9021 C   0  0  0  0  0  0  0  0  0  0  0  0
   22.5063   -6.7215  -16.9717 C   0  0  0  0  0  0  0  0  0  0  0  0
   22.7960   -5.5787  -17.4093 O   0  0  0  0  0  0  0  0  0  0  0  0
   22.6825   -6.9586  -15.5847 N   0  0  0  0  0  0  0  0  0  0  0  0
   23.0216   -5.9122  -14.6407 C   0  0  0  0  0  0  0  0  0  0  0  0
   21.8010   -5.3856  -14.0036 C   0  0  0  0  0  0  0  0  0  0  0  0
   20.6708   -5.7467  -14.4239 O   0  0  0  0  0  0  0  0  0  0  0  0
   21.9040   -4.4939  -12.9432 O   0  0  0  0  0  0  0  0  0  0  0  0
  2  1  1  6
  2  3  1  0
  4  5  1  0
  4  2  1  0
  5  6  1  1
  7  5  1  0
  7  8  2  0
  9  7  1  0
 10  9  1  0
 10 11  1  0
 11 13  1  0
 11 12  2  0
 13 14  1  0
 14 15  1  0
 15 16  2  0
 15 17  1  0
M  END
$$$$
