LGG.pdb
     RDKit          3D

 17 16  0  0  1  0  0  0  0  0999 V2000
   21.1215  -14.4193  -19.1129 C   0  0  0  0  0  0  0  0  0  0  0  0
   21.8962  -13.1701  -18.8126 C   0  0  1  0  0  0  0  0  0  0  0  0
   22.5417  -12.7034  -20.0922 C   0  0  0  0  0  0  0  0  0  0  0  0
   21.0587  -12.0757  -18.2061 C   0  0  0  0  0  0  0  0  0  0  0  0
   21.9302  -10.9037  -17.8276 C   0  0  2  0  0  0  0  0  0  0  0  0
   22.8726  -11.3565  -16.8208 N   0  0  0  0  0  0  0  0  0  0  0  0
   21.0661   -9.8371  -17.2253 C   0  0  0  0  0  0  0  0  0  0  0  0
   20.4791  -10.0349  -16.1310 O   0  0  0  0  0  0  0  0  0  0  0  0
   20.8774   -8.5809  -17.8537 N   0  0  0  0  0  0  0  0  0  0  0  0
   19.9872   -7.5651  -17.2871 C   0  0  0  0  0  0  0  0  0  0  0  0
   20.7550   -6.5871  -16.4795 C   0  0  0  0  0  0  0  0  0  0  0  0
   20.2516   -5.4660  -16.2127 O   0  0  0  0  0  0  0  0  0  0  0  0
   22.0552   -6.8590  -15.9832 N   0  0  0  0  0  0  0  0  0  0  0  0
   22.7828   -5.9420  -15.1284 C   0  0  0  0  0  0  0  0  0  0  0  0
   22.2871   -6.0345  -13.7431 C   0  0  0  0  0  0  0  0  0  0  0  0
   22.7538   -5.2689  -12.8597 O   0  0  0  0  0  0  0  0  0  0  0  0
   21.3081   -6.9656  -13.4196 O   0  0  0  0  0  0  0  0  0  0  0  0
  2  1  1  6
  2  3  1  0
  4  5  1  0
  4  2  1  0
  5  6  1  1
  7  5  1  0
  7  8  2  0
  9  7  1  0
 10  9  1  0
 10 11  1  0
 11 13  1  0
 11 12  2  0
 13 14  1  0
 14 15  1  0
 15 16  2  0
 15 17  1  0
M  END
$$$$
