LGG.pdb
     RDKit          3D

 17 16  0  0  1  0  0  0  0  0999 V2000
   28.2902  -18.3583   -5.1727 C   0  0  0  0  0  0  0  0  0  0  0  0
   28.2570  -19.2439   -6.3833 C   0  0  1  0  0  0  0  0  0  0  0  0
   29.3555  -20.2663   -6.2426 C   0  0  0  0  0  0  0  0  0  0  0  0
   26.9266  -19.9147   -6.5999 C   0  0  0  0  0  0  0  0  0  0  0  0
   26.8867  -20.5615   -7.9624 C   0  0  2  0  0  0  0  0  0  0  0  0
   27.5320  -19.6621   -8.9013 N   0  0  0  0  0  0  0  0  0  0  0  0
   25.4547  -20.7302   -8.3724 C   0  0  0  0  0  0  0  0  0  0  0  0
   24.6737  -21.4359   -7.6844 O   0  0  0  0  0  0  0  0  0  0  0  0
   24.9292  -20.1115   -9.5341 N   0  0  0  0  0  0  0  0  0  0  0  0
   23.5312  -20.2898   -9.9332 C   0  0  0  0  0  0  0  0  0  0  0  0
   23.4449  -20.9112  -11.2765 C   0  0  0  0  0  0  0  0  0  0  0  0
   22.3195  -21.1818  -11.7680 O   0  0  0  0  0  0  0  0  0  0  0  0
   24.5921  -21.2217  -12.0502 N   0  0  0  0  0  0  0  0  0  0  0  0
   24.5194  -21.8452  -13.3567 C   0  0  0  0  0  0  0  0  0  0  0  0
   24.3250  -20.8217  -14.3996 C   0  0  0  0  0  0  0  0  0  0  0  0
   24.8791  -19.6974  -14.2832 O   0  0  0  0  0  0  0  0  0  0  0  0
   23.5319  -21.1026  -15.5051 O   0  0  0  0  0  0  0  0  0  0  0  0
  2  1  1  1
  2  3  1  0
  4  5  1  0
  4  2  1  0
  5  6  1  6
  7  5  1  0
  7  8  2  0
  9  7  1  0
 10  9  1  0
 10 11  1  0
 11 13  1  0
 11 12  2  0
 13 14  1  0
 14 15  1  0
 15 16  2  0
 15 17  1  0
M  END
$$$$
