LGG.pdb
     RDKit          3D

 17 16  0  0  1  0  0  0  0  0999 V2000
   18.7149  -15.7761  -17.4760 C   0  0  0  0  0  0  0  0  0  0  0  0
   18.7482  -14.2911  -17.6870 C   0  0  1  0  0  0  0  0  0  0  0  0
   17.3255  -13.8006  -17.7706 C   0  0  0  0  0  0  0  0  0  0  0  0
   19.5074  -13.5500  -16.6187 C   0  0  0  0  0  0  0  0  0  0  0  0
   19.4595  -12.0653  -16.8824 C   0  0  2  0  0  0  0  0  0  0  0  0
   20.2720  -11.7947  -18.0543 N   0  0  0  0  0  0  0  0  0  0  0  0
   20.0608  -11.3494  -15.7107 C   0  0  0  0  0  0  0  0  0  0  0  0
   19.5424  -11.4477  -14.5692 O   0  0  0  0  0  0  0  0  0  0  0  0
   21.2204  -10.5446  -15.8378 N   0  0  0  0  0  0  0  0  0  0  0  0
   21.7851   -9.8255  -14.6935 C   0  0  0  0  0  0  0  0  0  0  0  0
   21.2854   -8.4302  -14.6531 C   0  0  0  0  0  0  0  0  0  0  0  0
   21.7282   -7.6334  -13.7868 O   0  0  0  0  0  0  0  0  0  0  0  0
   20.3131   -7.9399  -15.5615 N   0  0  0  0  0  0  0  0  0  0  0  0
   19.8217   -6.5765  -15.5337 C   0  0  0  0  0  0  0  0  0  0  0  0
   20.5759   -5.7435  -16.4879 C   0  0  0  0  0  0  0  0  0  0  0  0
   21.5929   -6.2143  -17.0609 O   0  0  0  0  0  0  0  0  0  0  0  0
   20.1608   -4.4438  -16.7498 O   0  0  0  0  0  0  0  0  0  0  0  0
  2  1  1  1
  2  3  1  0
  4  5  1  0
  4  2  1  0
  5  6  1  6
  7  5  1  0
  7  8  2  0
  9  7  1  0
 10  9  1  0
 10 11  1  0
 11 13  1  0
 11 12  2  0
 13 14  1  0
 14 15  1  0
 15 16  2  0
 15 17  1  0
M  END
$$$$
