LGG.pdb
     RDKit          3D

 17 16  0  0  1  0  0  0  0  0999 V2000
   18.2442  -12.8663  -20.1781 C   0  0  0  0  0  0  0  0  0  0  0  0
   19.3077  -12.1548  -19.3947 C   0  0  1  0  0  0  0  0  0  0  0  0
   20.4685  -11.8901  -20.3190 C   0  0  0  0  0  0  0  0  0  0  0  0
   18.8299  -10.8774  -18.7569 C   0  0  0  0  0  0  0  0  0  0  0  0
   19.9678  -10.2008  -18.0332 C   0  0  2  0  0  0  0  0  0  0  0  0
   20.3084  -11.0141  -16.8803 N   0  0  0  0  0  0  0  0  0  0  0  0
   19.5007   -8.8612  -17.5494 C   0  0  0  0  0  0  0  0  0  0  0  0
   19.2634   -7.9355  -18.3669 O   0  0  0  0  0  0  0  0  0  0  0  0
   19.3100   -8.5856  -16.1724 N   0  0  0  0  0  0  0  0  0  0  0  0
   18.7679   -7.3045  -15.7136 C   0  0  0  0  0  0  0  0  0  0  0  0
   19.7030   -6.6482  -14.7687 C   0  0  0  0  0  0  0  0  0  0  0  0
   19.2635   -5.8230  -13.9276 O   0  0  0  0  0  0  0  0  0  0  0  0
   21.0967   -6.9103  -14.7664 N   0  0  0  0  0  0  0  0  0  0  0  0
   21.9952   -6.4010  -13.7494 C   0  0  0  0  0  0  0  0  0  0  0  0
   22.2049   -4.9535  -13.9333 C   0  0  0  0  0  0  0  0  0  0  0  0
   21.6632   -4.3616  -14.9032 O   0  0  0  0  0  0  0  0  0  0  0  0
   22.9988   -4.2501  -13.0361 O   0  0  0  0  0  0  0  0  0  0  0  0
  2  1  1  6
  2  3  1  0
  4  5  1  0
  4  2  1  0
  5  6  1  1
  7  5  1  0
  7  8  2  0
  9  7  1  0
 10  9  1  0
 10 11  1  0
 11 13  1  0
 11 12  2  0
 13 14  1  0
 14 15  1  0
 15 16  2  0
 15 17  1  0
M  END
$$$$
