LGG.pdb
     RDKit          3D

 17 16  0  0  1  0  0  0  0  0999 V2000
   18.0071  -15.4604  -16.7409 C   0  0  0  0  0  0  0  0  0  0  0  0
   17.9649  -14.0572  -16.2118 C   0  0  1  0  0  0  0  0  0  0  0  0
   17.7212  -14.1268  -14.7260 C   0  0  0  0  0  0  0  0  0  0  0  0
   19.2090  -13.2645  -16.5131 C   0  0  0  0  0  0  0  0  0  0  0  0
   19.0672  -11.8564  -15.9903 C   0  0  2  0  0  0  0  0  0  0  0  0
   17.9600  -11.2310  -16.6902 N   0  0  0  0  0  0  0  0  0  0  0  0
   20.3203  -11.0975  -16.3076 C   0  0  0  0  0  0  0  0  0  0  0  0
   21.4109  -11.4133  -15.7668 O   0  0  0  0  0  0  0  0  0  0  0  0
   20.3289  -10.0096  -17.2158 N   0  0  0  0  0  0  0  0  0  0  0  0
   21.5743   -9.3437  -17.6045 C   0  0  0  0  0  0  0  0  0  0  0  0
   21.7103   -8.0405  -16.9106 C   0  0  0  0  0  0  0  0  0  0  0  0
   22.6663   -7.2763  -17.1997 O   0  0  0  0  0  0  0  0  0  0  0  0
   20.7973   -7.6046  -15.9171 N   0  0  0  0  0  0  0  0  0  0  0  0
   20.9222   -6.3335  -15.2316 C   0  0  0  0  0  0  0  0  0  0  0  0
   21.6018   -6.5177  -13.9365 C   0  0  0  0  0  0  0  0  0  0  0  0
   22.0856   -7.6409  -13.6385 O   0  0  0  0  0  0  0  0  0  0  0  0
   21.7048   -5.4516  -13.0517 O   0  0  0  0  0  0  0  0  0  0  0  0
  2  1  1  1
  2  3  1  0
  4  5  1  0
  4  2  1  0
  5  6  1  6
  7  5  1  0
  7  8  2  0
  9  7  1  0
 10  9  1  0
 10 11  1  0
 11 13  1  0
 11 12  2  0
 13 14  1  0
 14 15  1  0
 15 16  2  0
 15 17  1  0
M  END
$$$$
