LGG.pdb
     RDKit          3D

 17 16  0  0  1  0  0  0  0  0999 V2000
   25.1711  -20.3669   -9.4089 C   0  0  0  0  0  0  0  0  0  0  0  0
   26.1485  -20.2052  -10.5356 C   0  0  1  0  0  0  0  0  0  0  0  0
   27.4662  -20.7909  -10.0967 C   0  0  0  0  0  0  0  0  0  0  0  0
   25.6876  -20.8320  -11.8246 C   0  0  0  0  0  0  0  0  0  0  0  0
   26.7564  -20.6943  -12.8805 C   0  0  2  0  0  0  0  0  0  0  0  0
   26.9509  -19.2787  -13.1352 N   0  0  0  0  0  0  0  0  0  0  0  0
   26.2717  -21.3427  -14.1421 C   0  0  0  0  0  0  0  0  0  0  0  0
   25.4444  -20.7540  -14.8841 O   0  0  0  0  0  0  0  0  0  0  0  0
   26.7183  -22.6258  -14.5456 N   0  0  0  0  0  0  0  0  0  0  0  0
   26.1840  -23.2842  -15.7399 C   0  0  0  0  0  0  0  0  0  0  0  0
   25.1376  -24.2680  -15.3721 C   0  0  0  0  0  0  0  0  0  0  0  0
   24.2679  -23.9636  -14.5163 O   0  0  0  0  0  0  0  0  0  0  0  0
   25.0677  -25.5614  -15.9493 N   0  0  0  0  0  0  0  0  0  0  0  0
   24.1304  -26.5748  -15.5070 C   0  0  0  0  0  0  0  0  0  0  0  0
   23.0590  -26.7480  -16.5046 C   0  0  0  0  0  0  0  0  0  0  0  0
   23.0702  -26.0616  -17.5596 O   0  0  0  0  0  0  0  0  0  0  0  0
   22.0428  -27.6672  -16.2756 O   0  0  0  0  0  0  0  0  0  0  0  0
  2  1  1  1
  2  3  1  0
  4  5  1  0
  4  2  1  0
  5  6  1  6
  7  5  1  0
  7  8  2  0
  9  7  1  0
 10  9  1  0
 10 11  1  0
 11 13  1  0
 11 12  2  0
 13 14  1  0
 14 15  1  0
 15 16  2  0
 15 17  1  0
M  END
$$$$
