PNR.pdb
     RDKit          3D

 27 27  0  0  1  0  0  0  0  0999 V2000
    9.0505  -14.4082   17.7809 N   0  0  0  0  0  0  0  0  0  0  0  0
    7.7140  -14.1636   17.3306 C   0  0  0  0  0  0  0  0  0  0  0  0
    7.3705  -12.8349   17.9937 C   0  0  0  0  0  0  0  0  0  0  0  0
    7.8347  -13.1628   19.4237 C   0  0  0  0  0  0  0  0  0  0  0  0
    9.1013  -13.9743   19.1522 C   0  0  1  0  0  0  0  0  0  0  0  0
    9.1383  -15.1428   20.0641 C   0  0  0  0  0  0  0  0  0  0  0  0
    9.0590  -14.9541   21.3192 O   0  0  0  0  0  0  0  0  0  0  0  0
    6.6900  -19.7733   19.9499 N   0  0  0  0  0  0  0  0  0  0  0  0
    7.9337  -19.5889   20.6072 C   0  0  0  0  0  0  0  0  0  0  0  0
    8.0186  -20.0653   21.7666 O   0  0  0  0  0  0  0  0  0  0  0  0
    9.0111  -18.8681   19.8986 C   0  0  0  0  0  0  0  0  0  0  0  0
    9.2767  -17.5644   20.6029 C   0  0  2  0  0  0  0  0  0  0  0  0
    9.2601  -16.4978   19.6206 N   0  0  0  0  0  0  0  0  0  0  0  0
   10.6320  -17.6748   21.2030 C   0  0  0  0  0  0  0  0  0  0  0  0
   11.5747  -18.0719   20.4362 O   0  0  0  0  0  0  0  0  0  0  0  0
   15.1392  -16.3314   19.1657 N   0  0  0  0  0  0  0  0  0  0  0  0
   14.8844  -14.9524   18.9558 C   0  0  0  0  0  0  0  0  0  0  0  0
   15.2106  -14.4218   17.8464 N   0  0  0  0  0  0  0  0  0  0  0  0
   14.2768  -14.2006   19.9818 N   0  0  0  0  0  0  0  0  0  0  0  0
   14.3603  -14.6478   21.3476 C   0  0  0  0  0  0  0  0  0  0  0  0
   13.7539  -16.0532   21.4907 C   0  0  0  0  0  0  0  0  0  0  0  0
   12.9576  -16.0797   22.7674 C   0  0  0  0  0  0  0  0  0  0  0  0
   12.3339  -17.4214   23.0358 C   0  0  2  0  0  0  0  0  0  0  0  0
   10.9588  -17.3810   22.5305 N   0  0  0  0  0  0  0  0  0  0  0  0
   12.3243  -17.7181   24.4704 C   0  0  0  0  0  0  0  0  0  0  0  0
   13.3947  -18.2209   25.1859 O   0  0  0  0  0  0  0  0  0  0  0  0
   11.2738  -17.5139   25.1412 O   0  0  0  0  0  0  0  0  0  0  0  0
  1  2  1  0
  3  2  1  0
  4  5  1  0
  4  3  1  0
  5  1  1  0
  5  6  1  1
  6  7  2  0
  8  9  1  0
  9 11  1  0
 10  9  2  0
 12 11  1  6
 12 13  1  0
 13  6  1  0
 14 12  1  0
 15 14  2  0
 16 17  1  0
 17 19  1  0
 18 17  2  0
 19 20  1  0
 21 20  1  0
 22 21  1  0
 23 22  1  1
 23 24  1  0
 24 14  1  0
 25 23  1  0
 26 25  1  0
 27 25  2  0
M  END
$$$$
