PNR.pdb
     RDKit          3D

 27 27  0  0  1  0  0  0  0  0999 V2000
    7.7398  -14.8828   20.4724 N   0  0  0  0  0  0  0  0  0  0  0  0
    6.7547  -14.0736   19.8215 C   0  0  0  0  0  0  0  0  0  0  0  0
    7.5992  -13.1026   19.0047 C   0  0  0  0  0  0  0  0  0  0  0  0
    8.5889  -12.6758   20.1029 C   0  0  0  0  0  0  0  0  0  0  0  0
    8.8138  -13.9972   20.8378 C   0  0  1  0  0  0  0  0  0  0  0  0
    8.8073  -13.7508   22.2998 C   0  0  0  0  0  0  0  0  0  0  0  0
    9.9117  -13.5750   22.9052 O   0  0  0  0  0  0  0  0  0  0  0  0
    5.4891  -12.1329   27.1945 N   0  0  0  0  0  0  0  0  0  0  0  0
    6.6444  -12.4373   26.4293 C   0  0  0  0  0  0  0  0  0  0  0  0
    7.7411  -12.3678   27.0382 O   0  0  0  0  0  0  0  0  0  0  0  0
    6.4781  -12.8041   25.0079 C   0  0  0  0  0  0  0  0  0  0  0  0
    7.7332  -13.4796   24.5240 C   0  0  2  0  0  0  0  0  0  0  0  0
    7.6187  -13.6964   23.0947 N   0  0  0  0  0  0  0  0  0  0  0  0
    7.8093  -14.7871   25.2268 C   0  0  0  0  0  0  0  0  0  0  0  0
    7.7730  -14.7611   26.5044 O   0  0  0  0  0  0  0  0  0  0  0  0
    4.2815  -22.1179   24.1861 N   0  0  0  0  0  0  0  0  0  0  0  0
    5.5109  -22.7904   24.4029 C   0  0  0  0  0  0  0  0  0  0  0  0
    5.5206  -24.0608   24.4730 N   0  0  0  0  0  0  0  0  0  0  0  0
    6.6940  -22.0360   24.5375 N   0  0  0  0  0  0  0  0  0  0  0  0
    6.7650  -20.7057   23.9921 C   0  0  0  0  0  0  0  0  0  0  0  0
    7.2841  -19.7183   25.0500 C   0  0  0  0  0  0  0  0  0  0  0  0
    7.3470  -18.3566   24.4125 C   0  0  0  0  0  0  0  0  0  0  0  0
    7.8527  -17.2974   25.3526 C   0  0  2  0  0  0  0  0  0  0  0  0
    7.9163  -16.0366   24.6083 N   0  0  0  0  0  0  0  0  0  0  0  0
    9.1838  -17.6387   25.8605 C   0  0  0  0  0  0  0  0  0  0  0  0
    9.4344  -18.3920   26.9920 O   0  0  0  0  0  0  0  0  0  0  0  0
   10.2083  -17.2298   25.2454 O   0  0  0  0  0  0  0  0  0  0  0  0
  1  2  1  0
  3  2  1  0
  4  5  1  0
  4  3  1  0
  5  1  1  0
  5  6  1  1
  6  7  2  0
  8  9  1  0
  9 11  1  0
 10  9  2  0
 12 11  1  1
 12 13  1  0
 13  6  1  0
 14 12  1  0
 15 14  2  0
 16 17  1  0
 17 19  1  0
 18 17  2  0
 19 20  1  0
 21 20  1  0
 22 21  1  0
 23 22  1  6
 23 24  1  0
 24 14  1  0
 25 23  1  0
 26 25  1  0
 27 25  2  0
M  END
$$$$
