PNR.pdb
     RDKit          3D

 27 27  0  0  1  0  0  0  0  0999 V2000
    8.8542  -14.6218   17.8897 N   0  0  0  0  0  0  0  0  0  0  0  0
    7.6191  -14.0203   17.4880 C   0  0  0  0  0  0  0  0  0  0  0  0
    7.7556  -12.5911   17.9999 C   0  0  0  0  0  0  0  0  0  0  0  0
    8.2273  -12.9017   19.4312 C   0  0  0  0  0  0  0  0  0  0  0  0
    9.1588  -14.0897   19.1918 C   0  0  1  0  0  0  0  0  0  0  0  0
    8.9237  -15.1140   20.2377 C   0  0  0  0  0  0  0  0  0  0  0  0
    8.9863  -14.7771   21.4624 O   0  0  0  0  0  0  0  0  0  0  0  0
    8.7689  -20.1784   19.2642 N   0  0  0  0  0  0  0  0  0  0  0  0
    7.9813  -18.9986   19.2823 C   0  0  0  0  0  0  0  0  0  0  0  0
    7.7707  -18.4610   18.1664 O   0  0  0  0  0  0  0  0  0  0  0  0
    7.4790  -18.5002   20.5792 C   0  0  0  0  0  0  0  0  0  0  0  0
    8.3777  -17.3934   21.0624 C   0  0  2  0  0  0  0  0  0  0  0  0
    8.6251  -16.4854   19.9591 N   0  0  0  0  0  0  0  0  0  0  0  0
    9.6514  -18.0340   21.4824 C   0  0  0  0  0  0  0  0  0  0  0  0
   10.4670  -18.3648   20.5551 O   0  0  0  0  0  0  0  0  0  0  0  0
   12.9771  -13.6962   19.2832 N   0  0  0  0  0  0  0  0  0  0  0  0
   14.1469  -14.4918   19.3793 C   0  0  0  0  0  0  0  0  0  0  0  0
   14.9929  -14.4707   18.4292 N   0  0  0  0  0  0  0  0  0  0  0  0
   14.3450  -15.2892   20.5247 N   0  0  0  0  0  0  0  0  0  0  0  0
   13.3333  -15.3435   21.5473 C   0  0  0  0  0  0  0  0  0  0  0  0
   12.9759  -16.8030   21.8726 C   0  0  0  0  0  0  0  0  0  0  0  0
   11.8826  -16.7864   22.9065 C   0  0  0  0  0  0  0  0  0  0  0  0
   11.4094  -18.1656   23.2745 C   0  0  2  0  0  0  0  0  0  0  0  0
   10.0291  -18.3024   22.8017 N   0  0  0  0  0  0  0  0  0  0  0  0
   11.4570  -18.3672   24.7247 C   0  0  0  0  0  0  0  0  0  0  0  0
   12.4834  -18.9920   25.4078 O   0  0  0  0  0  0  0  0  0  0  0  0
   10.5035  -17.9535   25.4422 O   0  0  0  0  0  0  0  0  0  0  0  0
  1  2  1  0
  3  2  1  0
  4  5  1  0
  4  3  1  0
  5  1  1  0
  5  6  1  1
  6  7  2  0
  8  9  1  0
  9 11  1  0
 10  9  2  0
 12 11  1  6
 12 13  1  0
 13  6  1  0
 14 12  1  0
 15 14  2  0
 16 17  1  0
 17 19  1  0
 18 17  2  0
 19 20  1  0
 21 20  1  0
 22 21  1  0
 23 22  1  1
 23 24  1  0
 24 14  1  0
 25 23  1  0
 26 25  1  0
 27 25  2  0
M  END
$$$$
