PNR.pdb
     RDKit          3D

 27 27  0  0  1  0  0  0  0  0999 V2000
    7.9696  -14.5449   18.1517 N   0  0  0  0  0  0  0  0  0  0  0  0
    6.9697  -13.6827   18.7044 C   0  0  0  0  0  0  0  0  0  0  0  0
    7.7436  -12.3989   18.9802 C   0  0  0  0  0  0  0  0  0  0  0  0
    8.9583  -13.0108   19.6999 C   0  0  0  0  0  0  0  0  0  0  0  0
    9.1782  -14.2882   18.8898 C   0  0  1  0  0  0  0  0  0  0  0  0
    9.4681  -15.4100   19.8150 C   0  0  0  0  0  0  0  0  0  0  0  0
    8.5071  -16.1184   20.2528 O   0  0  0  0  0  0  0  0  0  0  0  0
   13.7979  -19.0266   22.2085 N   0  0  0  0  0  0  0  0  0  0  0  0
   12.4969  -18.6634   21.7747 C   0  0  0  0  0  0  0  0  0  0  0  0
   11.5636  -19.4195   22.1430 O   0  0  0  0  0  0  0  0  0  0  0  0
   12.3382  -17.4533   20.9422 C   0  0  0  0  0  0  0  0  0  0  0  0
   10.9527  -16.8988   21.1392 C   0  0  2  0  0  0  0  0  0  0  0  0
   10.7828  -15.7585   20.2595 N   0  0  0  0  0  0  0  0  0  0  0  0
   10.8696  -16.4580   22.5563 C   0  0  0  0  0  0  0  0  0  0  0  0
   11.5363  -15.4160   22.8790 O   0  0  0  0  0  0  0  0  0  0  0  0
    6.5853  -12.5492   24.9128 N   0  0  0  0  0  0  0  0  0  0  0  0
    6.4912  -12.6180   26.3260 C   0  0  0  0  0  0  0  0  0  0  0  0
    6.5512  -11.5443   27.0060 N   0  0  0  0  0  0  0  0  0  0  0  0
    6.3350  -13.8746   26.9452 N   0  0  0  0  0  0  0  0  0  0  0  0
    6.5884  -15.0802   26.2005 C   0  0  0  0  0  0  0  0  0  0  0  0
    8.0813  -15.4427   26.2568 C   0  0  0  0  0  0  0  0  0  0  0  0
    8.4421  -16.0984   24.9512 C   0  0  0  0  0  0  0  0  0  0  0  0
    9.8950  -16.4785   24.8734 C   0  0  2  0  0  0  0  0  0  0  0  0
   10.1255  -17.0860   23.5599 N   0  0  0  0  0  0  0  0  0  0  0  0
   10.2446  -17.4338   25.9276 C   0  0  0  0  0  0  0  0  0  0  0  0
   10.7509  -17.0983   27.1692 O   0  0  0  0  0  0  0  0  0  0  0  0
   10.0874  -18.6703   25.7240 O   0  0  0  0  0  0  0  0  0  0  0  0
  1  2  1  0
  3  2  1  0
  4  5  1  0
  4  3  1  0
  5  1  1  0
  5  6  1  1
  6  7  2  0
  8  9  1  0
  9 11  1  0
 10  9  2  0
 12 11  1  1
 12 13  1  0
 13  6  1  0
 14 12  1  0
 15 14  2  0
 16 17  1  0
 17 19  1  0
 18 17  2  0
 19 20  1  0
 21 20  1  0
 22 21  1  0
 23 22  1  6
 23 24  1  0
 24 14  1  0
 25 23  1  0
 26 25  1  0
 27 25  2  0
M  END
$$$$
