PNR.pdb
     RDKit          3D

 27 27  0  0  1  0  0  0  0  0999 V2000
    9.6071  -13.7861   18.5559 N   0  0  0  0  0  0  0  0  0  0  0  0
    8.7718  -14.0739   17.4297 C   0  0  0  0  0  0  0  0  0  0  0  0
    7.4938  -13.3077   17.7508 C   0  0  0  0  0  0  0  0  0  0  0  0
    7.3035  -13.7736   19.2049 C   0  0  0  0  0  0  0  0  0  0  0  0
    8.7463  -13.7884   19.7093 C   0  0  1  0  0  0  0  0  0  0  0  0
    8.9687  -15.0104   20.5190 C   0  0  0  0  0  0  0  0  0  0  0  0
    8.0840  -15.3683   21.3594 O   0  0  0  0  0  0  0  0  0  0  0  0
   12.4761  -17.9958   18.6554 N   0  0  0  0  0  0  0  0  0  0  0  0
   11.4447  -18.2730   19.5893 C   0  0  0  0  0  0  0  0  0  0  0  0
   10.5076  -18.9994   19.1738 O   0  0  0  0  0  0  0  0  0  0  0  0
   11.5447  -17.7014   20.9479 C   0  0  0  0  0  0  0  0  0  0  0  0
   10.2583  -16.9934   21.2797 C   0  0  2  0  0  0  0  0  0  0  0  0
   10.1353  -15.8329   20.4188 N   0  0  0  0  0  0  0  0  0  0  0  0
   10.3663  -16.5593   22.6971 C   0  0  0  0  0  0  0  0  0  0  0  0
   11.1432  -15.5745   22.9439 O   0  0  0  0  0  0  0  0  0  0  0  0
    5.3077  -12.5924   27.5010 N   0  0  0  0  0  0  0  0  0  0  0  0
    6.2308  -11.9590   26.6307 C   0  0  0  0  0  0  0  0  0  0  0  0
    6.5186  -10.7334   26.8152 N   0  0  0  0  0  0  0  0  0  0  0  0
    6.8070  -12.7011   25.5799 N   0  0  0  0  0  0  0  0  0  0  0  0
    6.9359  -14.1303   25.6948 C   0  0  0  0  0  0  0  0  0  0  0  0
    8.3919  -14.5597   25.4520 C   0  0  0  0  0  0  0  0  0  0  0  0
    8.4424  -16.0623   25.5183 C   0  0  0  0  0  0  0  0  0  0  0  0
    9.7895  -16.6158   25.1432 C   0  0  2  0  0  0  0  0  0  0  0  0
    9.6910  -17.1365   23.7769 N   0  0  0  0  0  0  0  0  0  0  0  0
   10.1868  -17.6919   26.0544 C   0  0  0  0  0  0  0  0  0  0  0  0
   10.6358  -17.5127   27.3493 O   0  0  0  0  0  0  0  0  0  0  0  0
   10.1307  -18.8914   25.6629 O   0  0  0  0  0  0  0  0  0  0  0  0
  1  2  1  0
  3  2  1  0
  4  5  1  0
  4  3  1  0
  5  1  1  0
  5  6  1  6
  6  7  2  0
  8  9  1  0
  9 11  1  0
 10  9  2  0
 12 11  1  6
 12 13  1  0
 13  6  1  0
 14 12  1  0
 15 14  2  0
 16 17  1  0
 17 19  1  0
 18 17  2  0
 19 20  1  0
 21 20  1  0
 22 21  1  0
 23 22  1  1
 23 24  1  0
 24 14  1  0
 25 23  1  0
 26 25  1  0
 27 25  2  0
M  END
$$$$
