PNR.pdb
     RDKit          3D

 27 27  0  0  1  0  0  0  0  0999 V2000
    8.5024  -13.2025   19.5217 N   0  0  0  0  0  0  0  0  0  0  0  0
    9.2669  -13.4553   18.3383 C   0  0  0  0  0  0  0  0  0  0  0  0
    8.1935  -13.7556   17.2987 C   0  0  0  0  0  0  0  0  0  0  0  0
    7.3593  -14.7617   18.1109 C   0  0  0  0  0  0  0  0  0  0  0  0
    7.4113  -14.1409   19.5067 C   0  0  1  0  0  0  0  0  0  0  0  0
    7.6340  -15.2101   20.5094 C   0  0  0  0  0  0  0  0  0  0  0  0
    7.4903  -16.4255   20.1639 O   0  0  0  0  0  0  0  0  0  0  0  0
   11.0241  -18.0779   22.1829 N   0  0  0  0  0  0  0  0  0  0  0  0
   11.2509  -16.6833   22.3119 C   0  0  0  0  0  0  0  0  0  0  0  0
   12.2921  -16.3508   22.9313 O   0  0  0  0  0  0  0  0  0  0  0  0
   10.2708  -15.7473   21.7238 C   0  0  0  0  0  0  0  0  0  0  0  0
    8.9843  -15.8295   22.5012 C   0  0  2  0  0  0  0  0  0  0  0  0
    8.0073  -14.9643   21.8688 N   0  0  0  0  0  0  0  0  0  0  0  0
    9.2835  -15.3344   23.8703 C   0  0  0  0  0  0  0  0  0  0  0  0
   10.4681  -14.9043   24.0849 O   0  0  0  0  0  0  0  0  0  0  0  0
    4.7813  -21.6456   23.5561 N   0  0  0  0  0  0  0  0  0  0  0  0
    5.2915  -21.8899   24.8563 C   0  0  0  0  0  0  0  0  0  0  0  0
    4.8862  -22.9086   25.5020 N   0  0  0  0  0  0  0  0  0  0  0  0
    6.2350  -20.9975   25.4046 N   0  0  0  0  0  0  0  0  0  0  0  0
    6.4644  -19.7204   24.7811 C   0  0  0  0  0  0  0  0  0  0  0  0
    7.4190  -18.8696   25.6346 C   0  0  0  0  0  0  0  0  0  0  0  0
    7.6930  -17.5957   24.8816 C   0  0  0  0  0  0  0  0  0  0  0  0
    8.1079  -16.4656   25.7828 C   0  0  2  0  0  0  0  0  0  0  0  0
    8.3801  -15.3002   24.9370 N   0  0  0  0  0  0  0  0  0  0  0  0
    9.3099  -16.8153   26.5437 C   0  0  0  0  0  0  0  0  0  0  0  0
    9.4690  -16.6384   27.9053 O   0  0  0  0  0  0  0  0  0  0  0  0
   10.3013  -17.3186   25.9445 O   0  0  0  0  0  0  0  0  0  0  0  0
  1  2  1  0
  3  2  1  0
  4  5  1  0
  4  3  1  0
  5  1  1  0
  5  6  1  1
  6  7  2  0
  8  9  1  0
  9 11  1  0
 10  9  2  0
 12 11  1  6
 12 13  1  0
 13  6  1  0
 14 12  1  0
 15 14  2  0
 16 17  1  0
 17 19  1  0
 18 17  2  0
 19 20  1  0
 21 20  1  0
 22 21  1  0
 23 22  1  6
 23 24  1  0
 24 14  1  0
 25 23  1  0
 26 25  1  0
 27 25  2  0
M  END
$$$$
