PNR.pdb
     RDKit          3D

 27 27  0  0  1  0  0  0  0  0999 V2000
    8.5070  -14.5930   17.5474 N   0  0  0  0  0  0  0  0  0  0  0  0
    7.1109  -14.2954   17.6525 C   0  0  0  0  0  0  0  0  0  0  0  0
    7.1061  -12.8144   18.0131 C   0  0  0  0  0  0  0  0  0  0  0  0
    8.1472  -12.8483   19.1457 C   0  0  0  0  0  0  0  0  0  0  0  0
    9.1583  -13.8549   18.5973 C   0  0  1  0  0  0  0  0  0  0  0  0
    9.5801  -14.7675   19.6871 C   0  0  0  0  0  0  0  0  0  0  0  0
   10.1124  -14.2803   20.7342 O   0  0  0  0  0  0  0  0  0  0  0  0
    9.1139  -19.8960   22.4304 N   0  0  0  0  0  0  0  0  0  0  0  0
   10.0739  -19.2554   21.6053 C   0  0  0  0  0  0  0  0  0  0  0  0
   11.2772  -19.4437   21.9138 O   0  0  0  0  0  0  0  0  0  0  0  0
    9.6009  -18.4338   20.4722 C   0  0  0  0  0  0  0  0  0  0  0  0
    9.9460  -16.9918   20.7322 C   0  0  2  0  0  0  0  0  0  0  0  0
    9.4268  -16.1895   19.6415 N   0  0  0  0  0  0  0  0  0  0  0  0
   11.4298  -16.9084   20.7565 C   0  0  0  0  0  0  0  0  0  0  0  0
   12.0486  -17.2850   19.7031 O   0  0  0  0  0  0  0  0  0  0  0  0
   16.8648  -16.0422   18.3448 N   0  0  0  0  0  0  0  0  0  0  0  0
   16.6057  -14.7572   17.8042 C   0  0  0  0  0  0  0  0  0  0  0  0
   16.7162  -14.5768   16.5495 N   0  0  0  0  0  0  0  0  0  0  0  0
   16.2331  -13.7085   18.6693 N   0  0  0  0  0  0  0  0  0  0  0  0
   15.8009  -14.0017   20.0108 C   0  0  0  0  0  0  0  0  0  0  0  0
   14.4988  -14.8186   19.9893 C   0  0  0  0  0  0  0  0  0  0  0  0
   14.0167  -14.9479   21.4090 C   0  0  0  0  0  0  0  0  0  0  0  0
   13.6618  -16.3624   21.7760 C   0  0  2  0  0  0  0  0  0  0  0  0
   12.2002  -16.4536   21.8311 N   0  0  0  0  0  0  0  0  0  0  0  0
   14.2287  -16.7249   23.0773 C   0  0  0  0  0  0  0  0  0  0  0  0
   15.5157  -17.1846   23.2841 O   0  0  0  0  0  0  0  0  0  0  0  0
   13.5169  -16.6252   24.1158 O   0  0  0  0  0  0  0  0  0  0  0  0
  1  2  1  0
  3  2  1  0
  4  5  1  0
  4  3  1  0
  5  1  1  0
  5  6  1  1
  6  7  2  0
  8  9  1  0
  9 11  1  0
 10  9  2  0
 12 11  1  6
 12 13  1  0
 13  6  1  0
 14 12  1  0
 15 14  2  0
 16 17  1  0
 17 19  1  0
 18 17  2  0
 19 20  1  0
 21 20  1  0
 22 21  1  0
 23 22  1  1
 23 24  1  0
 24 14  1  0
 25 23  1  0
 26 25  1  0
 27 25  2  0
M  END
$$$$
