PNR.pdb
     RDKit          3D

 27 27  0  0  1  0  0  0  0  0999 V2000
    9.2063  -13.8859   17.7461 N   0  0  0  0  0  0  0  0  0  0  0  0
    8.0758  -14.1121   16.8978 C   0  0  0  0  0  0  0  0  0  0  0  0
    6.9931  -13.2521   17.5391 C   0  0  0  0  0  0  0  0  0  0  0  0
    7.1761  -13.7003   18.9997 C   0  0  0  0  0  0  0  0  0  0  0  0
    8.6971  -13.8222   19.0907 C   0  0  1  0  0  0  0  0  0  0  0  0
    9.0450  -15.0562   19.8352 C   0  0  0  0  0  0  0  0  0  0  0  0
    8.5241  -15.2605   20.9772 O   0  0  0  0  0  0  0  0  0  0  0  0
   10.7265  -19.5202   21.3594 N   0  0  0  0  0  0  0  0  0  0  0  0
   11.5656  -19.2405   20.2502 C   0  0  0  0  0  0  0  0  0  0  0  0
   12.4048  -20.1287   19.9580 O   0  0  0  0  0  0  0  0  0  0  0  0
   11.3962  -17.9576   19.5375 C   0  0  0  0  0  0  0  0  0  0  0  0
   10.3156  -17.1576   20.2145 C   0  0  2  0  0  0  0  0  0  0  0  0
    9.9464  -16.0551   19.3479 N   0  0  0  0  0  0  0  0  0  0  0  0
   10.9030  -16.6323   21.4748 C   0  0  0  0  0  0  0  0  0  0  0  0
   11.7779  -15.7067   21.3645 O   0  0  0  0  0  0  0  0  0  0  0  0
   10.5245  -13.1350   28.4280 N   0  0  0  0  0  0  0  0  0  0  0  0
   10.2448  -14.4625   28.8406 C   0  0  0  0  0  0  0  0  0  0  0  0
   10.8361  -14.9329   29.8643 N   0  0  0  0  0  0  0  0  0  0  0  0
    9.3193  -15.2312   28.1060 N   0  0  0  0  0  0  0  0  0  0  0  0
    9.7354  -16.4652   27.4924 C   0  0  0  0  0  0  0  0  0  0  0  0
   10.7994  -16.1977   26.4155 C   0  0  0  0  0  0  0  0  0  0  0  0
   10.2166  -16.5992   25.0874 C   0  0  0  0  0  0  0  0  0  0  0  0
   11.2162  -16.5216   23.9666 C   0  0  2  0  0  0  0  0  0  0  0  0
   10.5784  -17.0649   22.7642 N   0  0  0  0  0  0  0  0  0  0  0  0
   12.4186  -17.2972   24.2811 C   0  0  0  0  0  0  0  0  0  0  0  0
   13.5491  -16.7965   24.8991 O   0  0  0  0  0  0  0  0  0  0  0  0
   12.4658  -18.5224   23.9783 O   0  0  0  0  0  0  0  0  0  0  0  0
  1  2  1  0
  3  2  1  0
  4  5  1  0
  4  3  1  0
  5  1  1  0
  5  6  1  1
  6  7  2  0
  8  9  1  0
  9 11  1  0
 10  9  2  0
 12 11  1  6
 12 13  1  0
 13  6  1  0
 14 12  1  0
 15 14  2  0
 16 17  1  0
 17 19  1  0
 18 17  2  0
 19 20  1  0
 21 20  1  0
 22 21  1  0
 23 22  1  1
 23 24  1  0
 24 14  1  0
 25 23  1  0
 26 25  1  0
 27 25  2  0
M  END
$$$$
