PNR.pdb
     RDKit          3D

 27 27  0  0  1  0  0  0  0  0999 V2000
    8.7181  -14.7820   18.1853 N   0  0  0  0  0  0  0  0  0  0  0  0
    7.5069  -14.0991   17.8453 C   0  0  0  0  0  0  0  0  0  0  0  0
    7.8751  -12.6340   18.0486 C   0  0  0  0  0  0  0  0  0  0  0  0
    8.5302  -12.7501   19.4361 C   0  0  0  0  0  0  0  0  0  0  0  0
    9.2793  -14.0762   19.3071 C   0  0  1  0  0  0  0  0  0  0  0  0
    9.1033  -14.8605   20.5530 C   0  0  0  0  0  0  0  0  0  0  0  0
    9.4875  -14.3642   21.6590 O   0  0  0  0  0  0  0  0  0  0  0  0
    5.5906  -16.3342   22.0180 N   0  0  0  0  0  0  0  0  0  0  0  0
    6.0873  -17.4813   21.3470 C   0  0  0  0  0  0  0  0  0  0  0  0
    5.3291  -17.9821   20.4794 O   0  0  0  0  0  0  0  0  0  0  0  0
    7.4260  -17.9911   21.7085 C   0  0  0  0  0  0  0  0  0  0  0  0
    8.3657  -16.8276   21.8798 C   0  0  2  0  0  0  0  0  0  0  0  0
    8.5186  -16.1657   20.5986 N   0  0  0  0  0  0  0  0  0  0  0  0
    9.6697  -17.3954   22.3117 C   0  0  0  0  0  0  0  0  0  0  0  0
   10.1436  -18.3553   21.6129 O   0  0  0  0  0  0  0  0  0  0  0  0
   15.1394  -14.2797   18.9734 N   0  0  0  0  0  0  0  0  0  0  0  0
   13.8925  -14.4462   19.6277 C   0  0  0  0  0  0  0  0  0  0  0  0
   12.8265  -14.4830   18.9340 N   0  0  0  0  0  0  0  0  0  0  0  0
   13.8622  -14.5654   21.0319 N   0  0  0  0  0  0  0  0  0  0  0  0
   14.2244  -15.8110   21.6562 C   0  0  0  0  0  0  0  0  0  0  0  0
   12.9710  -16.6558   21.9367 C   0  0  0  0  0  0  0  0  0  0  0  0
   12.8030  -16.7426   23.4297 C   0  0  0  0  0  0  0  0  0  0  0  0
   11.6559  -17.6266   23.8351 C   0  0  2  0  0  0  0  0  0  0  0  0
   10.4168  -16.9676   23.4135 N   0  0  0  0  0  0  0  0  0  0  0  0
   11.6380  -17.8307   25.2856 C   0  0  0  0  0  0  0  0  0  0  0  0
   12.5419  -18.6021   25.9917 O   0  0  0  0  0  0  0  0  0  0  0  0
   10.7409  -17.2769   25.9810 O   0  0  0  0  0  0  0  0  0  0  0  0
  1  2  1  0
  3  2  1  0
  4  5  1  0
  4  3  1  0
  5  1  1  0
  5  6  1  1
  6  7  2  0
  8  9  1  0
  9 11  1  0
 10  9  2  0
 12 11  1  6
 12 13  1  0
 13  6  1  0
 14 12  1  0
 15 14  2  0
 16 17  1  0
 17 19  1  0
 18 17  2  0
 19 20  1  0
 21 20  1  0
 22 21  1  0
 23 22  1  1
 23 24  1  0
 24 14  1  0
 25 23  1  0
 26 25  1  0
 27 25  2  0
M  END
$$$$
