LRD.pdb
     RDKit          3D

 28 27  0  0  1  0  0  0  0  0999 V2000
   27.3170  -19.3178   -3.7309 C   0  0  0  0  0  0  0  0  0  0  0  0
   28.1552  -19.9677   -4.7786 C   0  0  2  0  0  0  0  0  0  0  0  0
   29.6071  -20.0596   -4.3663 C   0  0  0  0  0  0  0  0  0  0  0  0
   27.9613  -19.3346   -6.1278 C   0  0  0  0  0  0  0  0  0  0  0  0
   26.6299  -19.8067   -6.6685 C   0  0  2  0  0  0  0  0  0  0  0  0
   26.5804  -21.2342   -6.4373 N   0  0  0  0  0  0  0  0  0  0  0  0
   26.5207  -19.5850   -8.1349 C   0  0  0  0  0  0  0  0  0  0  0  0
   26.7231  -18.4290   -8.5769 O   0  0  0  0  0  0  0  0  0  0  0  0
   31.7600  -22.8801  -13.0937 N   0  0  0  0  0  0  0  0  0  0  0  0
   31.2482  -22.3022  -11.8602 C   0  0  0  0  0  0  0  0  0  0  0  0
   32.0361  -22.1938  -10.9073 N   0  0  0  0  0  0  0  0  0  0  0  0
   29.9022  -21.8888  -11.7799 N   0  0  0  0  0  0  0  0  0  0  0  0
   28.9011  -22.0009  -12.7816 C   0  0  0  0  0  0  0  0  0  0  0  0
   27.5402  -21.4818  -12.5020 C   0  0  0  0  0  0  0  0  0  0  0  0
   27.3370  -21.4233  -11.0083 C   0  0  0  0  0  0  0  0  0  0  0  0
   26.2826  -20.5078  -10.5036 C   0  0  2  0  0  0  0  0  0  0  0  0
   26.1970  -20.6382   -9.0305 N   0  0  0  0  0  0  0  0  0  0  0  0
   24.9303  -20.7105  -11.0765 C   0  0  0  0  0  0  0  0  0  0  0  0
   24.2801  -21.7115  -10.5797 O   0  0  0  0  0  0  0  0  0  0  0  0
   32.0579  -21.8576   -9.9860 N   0  0  0  0  0  0  0  0  0  0  0  0
   24.3088  -19.9449  -12.0686 C   0  0  1  0  0  0  0  0  0  0  0  0
   22.9425  -20.3006  -12.4449 C   0  0  0  0  0  0  0  0  0  0  0  0
   22.1382  -19.1304  -12.9180 C   0  0  0  0  0  0  0  0  0  0  0  0
   20.7415  -19.4887  -13.2406 O   0  0  0  0  0  0  0  0  0  0  0  0
   20.2290  -20.6118  -12.9761 C   0  0  0  0  0  0  0  0  0  0  0  0
   23.0321  -21.2464  -13.6075 O   0  0  0  0  0  0  0  0  0  0  0  0
   22.2372  -22.2054  -13.7092 O   0  0  0  0  0  0  0  0  0  0  0  0
   19.9201  -18.5573  -13.8712 O   0  0  0  0  0  0  0  0  0  0  0  0
  2  1  1  1
  3  2  1  0
  4  5  1  0
  4  2  1  0
  5  6  1  6
  7  8  2  0
  7  5  1  0
  9 10  1  0
 10 11  2  0
 12 10  1  0
 12 13  1  0
 13 14  1  0
 14 15  1  0
 16 15  1  6
 16 17  1  0
 17  7  1  0
 18 16  1  0
 19 18  2  0
 20 18  1  0
 21 25  1  0
 21 20  1  0
 21 22  1  6
 23 24  2  0
 23 22  1  0
 25 28  1  0
 26 25  2  0
 27 23  1  0
M  END
$$$$
