LRD.pdb
     RDKit          3D

 28 27  0  0  1  0  0  0  0  0999 V2000
   28.7380  -19.6955   -7.0373 C   0  0  0  0  0  0  0  0  0  0  0  0
   27.2715  -19.9490   -7.1263 C   0  0  2  0  0  0  0  0  0  0  0  0
   26.9219  -21.3793   -6.7823 C   0  0  0  0  0  0  0  0  0  0  0  0
   26.7011  -19.4994   -8.4420 C   0  0  0  0  0  0  0  0  0  0  0  0
   26.7767  -20.6692   -9.3979 C   0  0  2  0  0  0  0  0  0  0  0  0
   28.1681  -21.0630   -9.4491 N   0  0  0  0  0  0  0  0  0  0  0  0
   26.3682  -20.2831  -10.7747 C   0  0  0  0  0  0  0  0  0  0  0  0
   27.0147  -19.3776  -11.3534 O   0  0  0  0  0  0  0  0  0  0  0  0
   24.0133  -25.5337  -14.1871 N   0  0  0  0  0  0  0  0  0  0  0  0
   24.1897  -25.3243  -15.6163 C   0  0  0  0  0  0  0  0  0  0  0  0
   23.5201  -26.0306  -16.3865 N   0  0  0  0  0  0  0  0  0  0  0  0
   25.0949  -24.3471  -16.0798 N   0  0  0  0  0  0  0  0  0  0  0  0
   25.6339  -23.2523  -15.3527 C   0  0  0  0  0  0  0  0  0  0  0  0
   24.7918  -22.5787  -14.3343 C   0  0  0  0  0  0  0  0  0  0  0  0
   25.5433  -21.3903  -13.7876 C   0  0  0  0  0  0  0  0  0  0  0  0
   24.8350  -20.5368  -12.8004 C   0  0  2  0  0  0  0  0  0  0  0  0
   25.2789  -20.9083  -11.4369 N   0  0  0  0  0  0  0  0  0  0  0  0
   23.3543  -20.5951  -12.8490 C   0  0  0  0  0  0  0  0  0  0  0  0
   22.8251  -21.4804  -12.0694 O   0  0  0  0  0  0  0  0  0  0  0  0
   23.3720  -26.1611  -17.3474 N   0  0  0  0  0  0  0  0  0  0  0  0
   22.5022  -19.8070  -13.6295 C   0  0  2  0  0  0  0  0  0  0  0  0
   21.0640  -19.9338  -13.4047 C   0  0  0  0  0  0  0  0  0  0  0  0
   20.3170  -18.6574  -13.6349 C   0  0  0  0  0  0  0  0  0  0  0  0
   18.8635  -18.7962  -13.4091 O   0  0  0  0  0  0  0  0  0  0  0  0
   18.3300  -19.8197  -12.8975 C   0  0  0  0  0  0  0  0  0  0  0  0
   20.5399  -20.9151  -14.4128 O   0  0  0  0  0  0  0  0  0  0  0  0
   20.9932  -20.9331  -15.5773 O   0  0  0  0  0  0  0  0  0  0  0  0
   18.0086  -17.7574  -13.7700 O   0  0  0  0  0  0  0  0  0  0  0  0
  2  1  1  6
  3  2  1  0
  4  5  1  0
  4  2  1  0
  5  6  1  6
  7  8  2  0
  7  5  1  0
  9 10  1  0
 10 11  2  0
 12 10  1  0
 12 13  1  0
 13 14  1  0
 14 15  1  0
 16 15  1  6
 16 17  1  0
 17  7  1  0
 18 16  1  0
 19 18  2  0
 20 18  1  0
 21 25  1  0
 21 20  1  0
 21 22  1  6
 23 24  2  0
 23 22  1  0
 25 28  1  0
 26 25  2  0
 27 23  1  0
M  END
$$$$
