LRD.pdb
     RDKit          3D

 28 27  0  0  1  0  0  0  0  0999 V2000
   28.9322  -17.4364  -16.9633 C   0  0  0  0  0  0  0  0  0  0  0  0
   28.0382  -18.1756  -17.8998 C   0  0  2  0  0  0  0  0  0  0  0  0
   27.4273  -17.2628  -18.9391 C   0  0  0  0  0  0  0  0  0  0  0  0
   27.0209  -19.0064  -17.1694 C   0  0  0  0  0  0  0  0  0  0  0  0
   27.7699  -19.9362  -16.2408 C   0  0  2  0  0  0  0  0  0  0  0  0
   28.4583  -20.8874  -17.0864 N   0  0  0  0  0  0  0  0  0  0  0  0
   26.8448  -20.7020  -15.3638 C   0  0  0  0  0  0  0  0  0  0  0  0
   26.3049  -21.7342  -15.8285 O   0  0  0  0  0  0  0  0  0  0  0  0
   22.1401  -20.2340   -8.9839 N   0  0  0  0  0  0  0  0  0  0  0  0
   23.0369  -20.8521   -8.0189 C   0  0  0  0  0  0  0  0  0  0  0  0
   22.5397  -21.2770   -6.9641 N   0  0  0  0  0  0  0  0  0  0  0  0
   24.4154  -20.9514   -8.2996 N   0  0  0  0  0  0  0  0  0  0  0  0
   25.1060  -20.4489   -9.4348 C   0  0  0  0  0  0  0  0  0  0  0  0
   24.6605  -20.8582  -10.7891 C   0  0  0  0  0  0  0  0  0  0  0  0
   25.7748  -20.5927  -11.7708 C   0  0  0  0  0  0  0  0  0  0  0  0
   25.5148  -20.9208  -13.1954 C   0  0  2  0  0  0  0  0  0  0  0  0
   26.5647  -20.2953  -14.0325 N   0  0  0  0  0  0  0  0  0  0  0  0
   24.1880  -20.5114  -13.7151 C   0  0  0  0  0  0  0  0  0  0  0  0
   24.0256  -19.2337  -13.8285 O   0  0  0  0  0  0  0  0  0  0  0  0
   22.8139  -21.6976   -6.1213 N   0  0  0  0  0  0  0  0  0  0  0  0
   23.1303  -21.3481  -14.0862 C   0  0  2  0  0  0  0  0  0  0  0  0
   21.9185  -20.7203  -14.6082 C   0  0  0  0  0  0  0  0  0  0  0  0
   21.1156  -21.6287  -15.4858 C   0  0  0  0  0  0  0  0  0  0  0  0
   19.9081  -20.9761  -16.0327 O   0  0  0  0  0  0  0  0  0  0  0  0
   19.5758  -19.7871  -15.7689 C   0  0  0  0  0  0  0  0  0  0  0  0
   21.0447  -20.3916  -13.4324 O   0  0  0  0  0  0  0  0  0  0  0  0
   20.2170  -19.4575  -13.4973 O   0  0  0  0  0  0  0  0  0  0  0  0
   19.0703  -21.6861  -16.8895 O   0  0  0  0  0  0  0  0  0  0  0  0
  2  1  1  1
  3  2  1  0
  4  5  1  0
  4  2  1  0
  5  6  1  6
  7  8  2  0
  7  5  1  0
  9 10  1  0
 10 11  2  0
 12 10  1  0
 12 13  1  0
 13 14  1  0
 14 15  1  0
 16 15  1  1
 16 17  1  0
 17  7  1  0
 18 16  1  0
 19 18  2  0
 20 18  1  0
 21 25  1  0
 21 20  1  0
 21 22  1  6
 23 24  2  0
 23 22  1  0
 25 28  1  0
 26 25  2  0
 27 23  1  0
M  END
$$$$
