LRD.pdb
     RDKit          3D

 28 27  0  0  1  0  0  0  0  0999 V2000
   26.4370  -20.6562  -10.0561 C   0  0  0  0  0  0  0  0  0  0  0  0
   27.0631  -21.0605  -11.3473 C   0  0  2  0  0  0  0  0  0  0  0  0
   28.5721  -20.9767  -11.2960 C   0  0  0  0  0  0  0  0  0  0  0  0
   26.4682  -20.3264  -12.5159 C   0  0  0  0  0  0  0  0  0  0  0  0
   24.9647  -20.4651  -12.4270 C   0  0  2  0  0  0  0  0  0  0  0  0
   24.6921  -21.8831  -12.3342 N   0  0  0  0  0  0  0  0  0  0  0  0
   24.2910  -19.9575  -13.6517 C   0  0  0  0  0  0  0  0  0  0  0  0
   24.2779  -18.7195  -13.8519 O   0  0  0  0  0  0  0  0  0  0  0  0
   27.3674  -17.9467  -19.2436 N   0  0  0  0  0  0  0  0  0  0  0  0
   28.0303  -19.0940  -18.6421 C   0  0  0  0  0  0  0  0  0  0  0  0
   29.2578  -19.1933  -18.7966 N   0  0  0  0  0  0  0  0  0  0  0  0
   27.2799  -20.0416  -17.9154 N   0  0  0  0  0  0  0  0  0  0  0  0
   25.8732  -20.0651  -17.7190 C   0  0  0  0  0  0  0  0  0  0  0  0
   25.2764  -21.1554  -16.9097 C   0  0  0  0  0  0  0  0  0  0  0  0
   23.7731  -21.0537  -16.9859 C   0  0  0  0  0  0  0  0  0  0  0  0
   23.0828  -20.3706  -15.8627 C   0  0  2  0  0  0  0  0  0  0  0  0
   23.6722  -20.8314  -14.5842 N   0  0  0  0  0  0  0  0  0  0  0  0
   21.6137  -20.5611  -15.8030 C   0  0  0  0  0  0  0  0  0  0  0  0
   20.9886  -20.2697  -16.8967 O   0  0  0  0  0  0  0  0  0  0  0  0
   29.9877  -19.8247  -18.6207 N   0  0  0  0  0  0  0  0  0  0  0  0
   20.8635  -21.0150  -14.7132 C   0  0  1  0  0  0  0  0  0  0  0  0
   19.4082  -21.0180  -14.8444 C   0  0  0  0  0  0  0  0  0  0  0  0
   18.7499  -22.1219  -14.0776 C   0  0  0  0  0  0  0  0  0  0  0  0
   18.9677  -23.4505  -14.6861 O   0  0  0  0  0  0  0  0  0  0  0  0
   19.5575  -23.6264  -15.7884 C   0  0  0  0  0  0  0  0  0  0  0  0
   18.9043  -19.7348  -14.2497 O   0  0  0  0  0  0  0  0  0  0  0  0
   17.7166  -19.3820  -14.4132 O   0  0  0  0  0  0  0  0  0  0  0  0
   18.5085  -24.5910  -14.0315 O   0  0  0  0  0  0  0  0  0  0  0  0
  2  1  1  1
  3  2  1  0
  4  5  1  0
  4  2  1  0
  5  6  1  6
  7  8  2  0
  7  5  1  0
  9 10  1  0
 10 11  2  0
 12 10  1  0
 12 13  1  0
 13 14  1  0
 14 15  1  0
 16 15  1  6
 16 17  1  0
 17  7  1  0
 18 16  1  0
 19 18  2  0
 20 18  1  0
 21 25  1  0
 21 20  1  0
 21 22  1  6
 23 24  2  0
 23 22  1  0
 25 28  1  0
 26 25  2  0
 27 23  1  0
M  END
$$$$
