LRD.pdb
     RDKit          3D

 28 27  0  0  1  0  0  0  0  0999 V2000
   26.2720  -18.8490  -20.8933 C   0  0  0  0  0  0  0  0  0  0  0  0
   27.0190  -20.0509  -20.4242 C   0  0  2  0  0  0  0  0  0  0  0  0
   27.5037  -20.9021  -21.5762 C   0  0  0  0  0  0  0  0  0  0  0  0
   26.2460  -20.8289  -19.3967 C   0  0  0  0  0  0  0  0  0  0  0  0
   26.0084  -19.9164  -18.2141 C   0  0  2  0  0  0  0  0  0  0  0  0
   27.3129  -19.4643  -17.7810 N   0  0  0  0  0  0  0  0  0  0  0  0
   25.3834  -20.6410  -17.0757 C   0  0  0  0  0  0  0  0  0  0  0  0
   24.6067  -21.5917  -17.3322 O   0  0  0  0  0  0  0  0  0  0  0  0
   23.5923  -20.6474  -10.1573 N   0  0  0  0  0  0  0  0  0  0  0  0
   24.7507  -20.7469   -9.2822 C   0  0  0  0  0  0  0  0  0  0  0  0
   24.5417  -20.9325   -8.0729 N   0  0  0  0  0  0  0  0  0  0  0  0
   26.0508  -20.6335   -9.8169 N   0  0  0  0  0  0  0  0  0  0  0  0
   26.5267  -21.1492  -11.0520 C   0  0  0  0  0  0  0  0  0  0  0  0
   25.5496  -21.5007  -12.1110 C   0  0  0  0  0  0  0  0  0  0  0  0
   25.9114  -20.7605  -13.3747 C   0  0  0  0  0  0  0  0  0  0  0  0
   25.0633  -21.0043  -14.5689 C   0  0  2  0  0  0  0  0  0  0  0  0
   25.6436  -20.2844  -15.7262 N   0  0  0  0  0  0  0  0  0  0  0  0
   23.6394  -20.6140  -14.4337 C   0  0  0  0  0  0  0  0  0  0  0  0
   23.4109  -19.3508  -14.5881 O   0  0  0  0  0  0  0  0  0  0  0  0
   25.0347  -20.9945   -7.2270 N   0  0  0  0  0  0  0  0  0  0  0  0
   22.5538  -21.4548  -14.1674 C   0  0  1  0  0  0  0  0  0  0  0  0
   21.2120  -20.8871  -14.2771 C   0  0  0  0  0  0  0  0  0  0  0  0
   20.1934  -21.8717  -14.7600 C   0  0  0  0  0  0  0  0  0  0  0  0
   19.9397  -21.7674  -16.2118 O   0  0  0  0  0  0  0  0  0  0  0  0
   20.4592  -20.8854  -16.9507 C   0  0  0  0  0  0  0  0  0  0  0  0
   20.7843  -20.4834  -12.8957 O   0  0  0  0  0  0  0  0  0  0  0  0
   21.2929  -21.0231  -11.8899 O   0  0  0  0  0  0  0  0  0  0  0  0
   19.0849  -22.6781  -16.8283 O   0  0  0  0  0  0  0  0  0  0  0  0
  2  1  1  6
  3  2  1  0
  4  5  1  0
  4  2  1  0
  5  6  1  1
  7  8  2  0
  7  5  1  0
  9 10  1  0
 10 11  2  0
 12 10  1  0
 12 13  1  0
 13 14  1  0
 14 15  1  0
 16 15  1  1
 16 17  1  0
 17  7  1  0
 18 16  1  0
 19 18  2  0
 20 18  1  0
 21 25  1  0
 21 20  1  0
 21 22  1  1
 23 24  2  0
 23 22  1  0
 25 28  1  0
 26 25  2  0
 27 23  1  0
M  END
$$$$
