LRD.pdb
     RDKit          3D

 28 27  0  0  1  0  0  0  0  0999 V2000
   24.7826  -25.1673  -15.4906 C   0  0  0  0  0  0  0  0  0  0  0  0
   25.0884  -23.7148  -15.6297 C   0  0  2  0  0  0  0  0  0  0  0  0
   26.5755  -23.4429  -15.5931 C   0  0  0  0  0  0  0  0  0  0  0  0
   24.3090  -22.8792  -14.6536 C   0  0  0  0  0  0  0  0  0  0  0  0
   22.8510  -23.2591  -14.7868 C   0  0  2  0  0  0  0  0  0  0  0  0
   22.4223  -22.7775  -16.0822 N   0  0  0  0  0  0  0  0  0  0  0  0
   22.0109  -22.5899  -13.7583 C   0  0  0  0  0  0  0  0  0  0  0  0
   22.4752  -21.5794  -13.1787 O   0  0  0  0  0  0  0  0  0  0  0  0
   15.2810  -18.9108  -15.8088 N   0  0  0  0  0  0  0  0  0  0  0  0
   16.0637  -20.0692  -16.2125 C   0  0  0  0  0  0  0  0  0  0  0  0
   15.6697  -20.7124  -17.1981 N   0  0  0  0  0  0  0  0  0  0  0  0
   17.2231  -20.4234  -15.4918 N   0  0  0  0  0  0  0  0  0  0  0  0
   17.7561  -19.7834  -14.3410 C   0  0  0  0  0  0  0  0  0  0  0  0
   18.9970  -20.3175  -13.7288 C   0  0  0  0  0  0  0  0  0  0  0  0
   18.7276  -21.7096  -13.2137 C   0  0  0  0  0  0  0  0  0  0  0  0
   19.8209  -22.3774  -12.4631 C   0  0  2  0  0  0  0  0  0  0  0  0
   20.7148  -23.0640  -13.4243 N   0  0  0  0  0  0  0  0  0  0  0  0
   19.3885  -23.3556  -11.4364 C   0  0  0  0  0  0  0  0  0  0  0  0
   19.1005  -24.5284  -11.8984 O   0  0  0  0  0  0  0  0  0  0  0  0
   15.9281  -21.4881  -17.7402 N   0  0  0  0  0  0  0  0  0  0  0  0
   19.2695  -23.1395  -10.0596 C   0  0  1  0  0  0  0  0  0  0  0  0
   18.7382  -24.2294   -9.2443 C   0  0  0  0  0  0  0  0  0  0  0  0
   19.0673  -24.0924   -7.7907 C   0  0  0  0  0  0  0  0  0  0  0  0
   18.5690  -25.2239   -6.9818 O   0  0  0  0  0  0  0  0  0  0  0  0
   17.9857  -26.2304   -7.4721 C   0  0  0  0  0  0  0  0  0  0  0  0
   17.2412  -24.1715   -9.3434 O   0  0  0  0  0  0  0  0  0  0  0  0
   16.5547  -25.2065   -9.2045 O   0  0  0  0  0  0  0  0  0  0  0  0
   18.7371  -25.2082   -5.5992 O   0  0  0  0  0  0  0  0  0  0  0  0
  2  1  1  1
  3  2  1  0
  4  5  1  0
  4  2  1  0
  5  6  1  6
  7  8  2  0
  7  5  1  0
  9 10  1  0
 10 11  2  0
 12 10  1  0
 12 13  1  0
 13 14  1  0
 14 15  1  0
 16 15  1  6
 16 17  1  0
 17  7  1  0
 18 16  1  0
 19 18  2  0
 20 18  1  0
 21 25  1  0
 21 20  1  0
 21 22  1  1
 23 24  2  0
 23 22  1  0
 25 28  1  0
 26 25  2  0
 27 23  1  0
M  END
$$$$
