LRD.pdb
     RDKit          3D

 28 27  0  0  1  0  0  0  0  0999 V2000
   29.1272  -18.1370  -16.2513 C   0  0  0  0  0  0  0  0  0  0  0  0
   28.1467  -18.6334  -17.2587 C   0  0  2  0  0  0  0  0  0  0  0  0
   27.8370  -17.5910  -18.3094 C   0  0  0  0  0  0  0  0  0  0  0  0
   26.9170  -19.2070  -16.6126 C   0  0  0  0  0  0  0  0  0  0  0  0
   27.3631  -20.3027  -15.6702 C   0  0  2  0  0  0  0  0  0  0  0  0
   27.9021  -21.3583  -16.5003 N   0  0  0  0  0  0  0  0  0  0  0  0
   26.2211  -20.8711  -14.9059 C   0  0  0  0  0  0  0  0  0  0  0  0
   25.4857  -21.7122  -15.4757 O   0  0  0  0  0  0  0  0  0  0  0  0
   21.2324  -20.7807   -8.6669 N   0  0  0  0  0  0  0  0  0  0  0  0
   22.2589  -21.3589   -7.8127 C   0  0  0  0  0  0  0  0  0  0  0  0
   21.8847  -22.0757   -6.8711 N   0  0  0  0  0  0  0  0  0  0  0  0
   23.6207  -21.0974   -8.0699 N   0  0  0  0  0  0  0  0  0  0  0  0
   24.1672  -20.2972   -9.1087 C   0  0  0  0  0  0  0  0  0  0  0  0
   23.7378  -20.5399  -10.5075 C   0  0  0  0  0  0  0  0  0  0  0  0
   24.9626  -20.7004  -11.3735 C   0  0  0  0  0  0  0  0  0  0  0  0
   24.7415  -20.9175  -12.8256 C   0  0  2  0  0  0  0  0  0  0  0  0
   25.9504  -20.4874  -13.5659 N   0  0  0  0  0  0  0  0  0  0  0  0
   23.5622  -20.2297  -13.4039 C   0  0  0  0  0  0  0  0  0  0  0  0
   23.6671  -18.9425  -13.4658 O   0  0  0  0  0  0  0  0  0  0  0  0
   22.2585  -22.5802   -6.1173 N   0  0  0  0  0  0  0  0  0  0  0  0
   22.3863  -20.8211  -13.8771 C   0  0  1  0  0  0  0  0  0  0  0  0
   21.3467  -19.9395  -14.4034 C   0  0  0  0  0  0  0  0  0  0  0  0
   20.9782  -20.2444  -15.8216 C   0  0  0  0  0  0  0  0  0  0  0  0
   21.8802  -19.6004  -16.7986 O   0  0  0  0  0  0  0  0  0  0  0  0
   22.4731  -18.5061  -16.5871 C   0  0  0  0  0  0  0  0  0  0  0  0
   20.1082  -20.1739  -13.5878 O   0  0  0  0  0  0  0  0  0  0  0  0
   19.9718  -21.2263  -12.9278 O   0  0  0  0  0  0  0  0  0  0  0  0
   22.1092  -20.2100  -18.0299 O   0  0  0  0  0  0  0  0  0  0  0  0
  2  1  1  1
  3  2  1  0
  4  5  1  0
  4  2  1  0
  5  6  1  6
  7  8  2  0
  7  5  1  0
  9 10  1  0
 10 11  2  0
 12 10  1  0
 12 13  1  0
 13 14  1  0
 14 15  1  0
 16 15  1  1
 16 17  1  0
 17  7  1  0
 18 16  1  0
 19 18  2  0
 20 18  1  0
 21 25  1  0
 21 20  1  0
 21 22  1  6
 23 24  2  0
 23 22  1  0
 25 28  1  0
 26 25  2  0
 27 23  1  0
M  END
$$$$
