LRD.pdb
     RDKit          3D

 28 27  0  0  1  0  0  0  0  0999 V2000
   26.6046  -15.0993  -16.2167 C   0  0  0  0  0  0  0  0  0  0  0  0
   26.7279  -14.1179  -17.3322 C   0  0  2  0  0  0  0  0  0  0  0  0
   27.9618  -13.2548  -17.1938 C   0  0  0  0  0  0  0  0  0  0  0  0
   25.4671  -13.3228  -17.5248 C   0  0  0  0  0  0  0  0  0  0  0  0
   25.4262  -12.2607  -16.4486 C   0  0  2  0  0  0  0  0  0  0  0  0
   25.1349  -12.9487  -15.2094 N   0  0  0  0  0  0  0  0  0  0  0  0
   24.3346  -11.2789  -16.6846 C   0  0  0  0  0  0  0  0  0  0  0  0
   24.3833  -10.5753  -17.7216 O   0  0  0  0  0  0  0  0  0  0  0  0
   16.7209  -14.2578  -15.3904 N   0  0  0  0  0  0  0  0  0  0  0  0
   17.2476  -14.2777  -16.7468 C   0  0  0  0  0  0  0  0  0  0  0  0
   16.7189  -15.0563  -17.5560 N   0  0  0  0  0  0  0  0  0  0  0  0
   18.3193  -13.4318  -17.1001 N   0  0  0  0  0  0  0  0  0  0  0  0
   19.0658  -12.5774  -16.2452 C   0  0  0  0  0  0  0  0  0  0  0  0
   20.1881  -11.7913  -16.8128 C   0  0  0  0  0  0  0  0  0  0  0  0
   20.8454  -11.0074  -15.7040 C   0  0  0  0  0  0  0  0  0  0  0  0
   22.0826  -10.2603  -16.0442 C   0  0  2  0  0  0  0  0  0  0  0  0
   23.2556  -11.1239  -15.7747 N   0  0  0  0  0  0  0  0  0  0  0  0
   22.2691   -8.9726  -15.3334 C   0  0  0  0  0  0  0  0  0  0  0  0
   22.7768   -9.0805  -14.1492 O   0  0  0  0  0  0  0  0  0  0  0  0
   16.7716  -15.3031  -18.5040 N   0  0  0  0  0  0  0  0  0  0  0  0
   21.9619   -7.6930  -15.8074 C   0  0  2  0  0  0  0  0  0  0  0  0
   22.1977   -6.5624  -14.9124 C   0  0  0  0  0  0  0  0  0  0  0  0
   22.4566   -5.2798  -15.6390 C   0  0  0  0  0  0  0  0  0  0  0  0
   22.6180   -4.1281  -14.7277 O   0  0  0  0  0  0  0  0  0  0  0  0
   23.1082   -4.2178  -13.5677 C   0  0  0  0  0  0  0  0  0  0  0  0
   20.9397   -6.3503  -14.1208 O   0  0  0  0  0  0  0  0  0  0  0  0
   20.9243   -5.5620  -13.1512 O   0  0  0  0  0  0  0  0  0  0  0  0
   22.2167   -2.8605  -15.1426 O   0  0  0  0  0  0  0  0  0  0  0  0
  2  1  1  1
  3  2  1  0
  4  5  1  0
  4  2  1  0
  5  6  1  1
  7  8  2  0
  7  5  1  0
  9 10  1  0
 10 11  2  0
 12 10  1  0
 12 13  1  0
 13 14  1  0
 14 15  1  0
 16 15  1  1
 16 17  1  0
 17  7  1  0
 18 16  1  0
 19 18  2  0
 20 18  1  0
 21 25  1  0
 21 20  1  0
 21 22  1  6
 23 24  2  0
 23 22  1  0
 25 28  1  0
 26 25  2  0
 27 23  1  0
M  END
$$$$
