LRD.pdb
     RDKit          3D

 28 27  0  0  1  0  0  0  0  0999 V2000
   24.5865  -13.9760  -14.5471 C   0  0  0  0  0  0  0  0  0  0  0  0
   24.8637  -13.9287  -16.0112 C   0  0  2  0  0  0  0  0  0  0  0  0
   26.3451  -13.9824  -16.3094 C   0  0  0  0  0  0  0  0  0  0  0  0
   24.1659  -12.7777  -16.6796 C   0  0  0  0  0  0  0  0  0  0  0  0
   22.7060  -12.8373  -16.2887 C   0  0  2  0  0  0  0  0  0  0  0  0
   22.1271  -13.9273  -17.0441 N   0  0  0  0  0  0  0  0  0  0  0  0
   21.9828  -11.5944  -16.6676 C   0  0  0  0  0  0  0  0  0  0  0  0
   22.1399  -11.1470  -17.8287 O   0  0  0  0  0  0  0  0  0  0  0  0
   15.1642  -13.4842  -14.4868 N   0  0  0  0  0  0  0  0  0  0  0  0
   14.9643  -12.2260  -15.1899 C   0  0  0  0  0  0  0  0  0  0  0  0
   13.8170  -11.7527  -15.2040 N   0  0  0  0  0  0  0  0  0  0  0  0
   16.0530  -11.5902  -15.8222 N   0  0  0  0  0  0  0  0  0  0  0  0
   17.3607  -12.1079  -16.0218 C   0  0  0  0  0  0  0  0  0  0  0  0
   18.3351  -11.3192  -16.8143 C   0  0  0  0  0  0  0  0  0  0  0  0
   18.8427  -10.1778  -15.9685 C   0  0  0  0  0  0  0  0  0  0  0  0
   20.2622   -9.7809  -16.1480 C   0  0  2  0  0  0  0  0  0  0  0  0
   21.1319  -10.9145  -15.7567 N   0  0  0  0  0  0  0  0  0  0  0  0
   20.6898   -8.5751  -15.3988 C   0  0  0  0  0  0  0  0  0  0  0  0
   21.0891   -8.8058  -14.1909 O   0  0  0  0  0  0  0  0  0  0  0  0
   13.3193  -11.0028  -15.5941 N   0  0  0  0  0  0  0  0  0  0  0  0
   20.7057   -7.2547  -15.8599 C   0  0  2  0  0  0  0  0  0  0  0  0
   21.2340   -6.2286  -14.9638 C   0  0  0  0  0  0  0  0  0  0  0  0
   21.9759   -5.1448  -15.6816 C   0  0  0  0  0  0  0  0  0  0  0  0
   22.3877   -4.0436  -14.7867 O   0  0  0  0  0  0  0  0  0  0  0  0
   22.2632   -4.0795  -13.5309 C   0  0  0  0  0  0  0  0  0  0  0  0
   20.0599   -5.5669  -14.3022 O   0  0  0  0  0  0  0  0  0  0  0  0
   18.9151   -5.6652  -14.7936 O   0  0  0  0  0  0  0  0  0  0  0  0
   22.9473   -2.8890  -15.3287 O   0  0  0  0  0  0  0  0  0  0  0  0
  2  1  1  1
  3  2  1  0
  4  5  1  0
  4  2  1  0
  5  6  1  6
  7  8  2  0
  7  5  1  0
  9 10  1  0
 10 11  2  0
 12 10  1  0
 12 13  1  0
 13 14  1  0
 14 15  1  0
 16 15  1  1
 16 17  1  0
 17  7  1  0
 18 16  1  0
 19 18  2  0
 20 18  1  0
 21 25  1  0
 21 20  1  0
 21 22  1  6
 23 24  2  0
 23 22  1  0
 25 28  1  0
 26 25  2  0
 27 23  1  0
M  END
$$$$
