LRD.pdb
     RDKit          3D

 28 27  0  0  1  0  0  0  0  0999 V2000
   22.2259  -21.9842   -9.3384 C   0  0  0  0  0  0  0  0  0  0  0  0
   22.5886  -20.6927   -8.6879 C   0  0  2  0  0  0  0  0  0  0  0  0
   21.3760  -19.9736   -8.1410 C   0  0  0  0  0  0  0  0  0  0  0  0
   23.4360  -19.8308   -9.5810 C   0  0  0  0  0  0  0  0  0  0  0  0
   24.5766  -20.6825  -10.0921 C   0  0  2  0  0  0  0  0  0  0  0  0
   25.6267  -20.5930   -9.1006 N   0  0  0  0  0  0  0  0  0  0  0  0
   25.1228  -20.1611  -11.3732 C   0  0  0  0  0  0  0  0  0  0  0  0
   25.6576  -19.0267  -11.3722 O   0  0  0  0  0  0  0  0  0  0  0  0
   27.8490  -18.8734  -17.8347 N   0  0  0  0  0  0  0  0  0  0  0  0
   28.7986  -19.9628  -18.0042 C   0  0  0  0  0  0  0  0  0  0  0  0
   29.2726  -20.1395  -19.1376 N   0  0  0  0  0  0  0  0  0  0  0  0
   29.1492  -20.7711  -16.9029 N   0  0  0  0  0  0  0  0  0  0  0  0
   28.3393  -21.1115  -15.7865 C   0  0  0  0  0  0  0  0  0  0  0  0
   26.8635  -21.0863  -15.9321 C   0  0  0  0  0  0  0  0  0  0  0  0
   26.2359  -21.4538  -14.6104 C   0  0  0  0  0  0  0  0  0  0  0  0
   25.5023  -20.3837  -13.8882 C   0  0  2  0  0  0  0  0  0  0  0  0
   25.0523  -20.9088  -12.5782 N   0  0  0  0  0  0  0  0  0  0  0  0
   24.3310  -19.8179  -14.5995 C   0  0  0  0  0  0  0  0  0  0  0  0
   23.1869  -20.1279  -14.0832 O   0  0  0  0  0  0  0  0  0  0  0  0
   29.9030  -20.7291  -19.6039 N   0  0  0  0  0  0  0  0  0  0  0  0
   24.3447  -19.0037  -15.7368 C   0  0  1  0  0  0  0  0  0  0  0  0
   23.0591  -18.5531  -16.2651 C   0  0  0  0  0  0  0  0  0  0  0  0
   22.3442  -17.6092  -15.3496 C   0  0  0  0  0  0  0  0  0  0  0  0
   21.0804  -17.1025  -15.9232 O   0  0  0  0  0  0  0  0  0  0  0  0
   20.4152  -17.7179  -16.8021 C   0  0  0  0  0  0  0  0  0  0  0  0
   23.3390  -17.7855  -17.5247 O   0  0  0  0  0  0  0  0  0  0  0  0
   24.4995  -17.4079  -17.7941 O   0  0  0  0  0  0  0  0  0  0  0  0
   20.5691  -15.8813  -15.4905 O   0  0  0  0  0  0  0  0  0  0  0  0
  2  1  1  6
  3  2  1  0
  4  5  1  0
  4  2  1  0
  5  6  1  1
  7  8  2  0
  7  5  1  0
  9 10  1  0
 10 11  2  0
 12 10  1  0
 12 13  1  0
 13 14  1  0
 14 15  1  0
 16 15  1  6
 16 17  1  0
 17  7  1  0
 18 16  1  0
 19 18  2  0
 20 18  1  0
 21 25  1  0
 21 20  1  0
 21 22  1  1
 23 24  2  0
 23 22  1  0
 25 28  1  0
 26 25  2  0
 27 23  1  0
M  END
$$$$
