LRD.pdb
     RDKit          3D

 28 27  0  0  1  0  0  0  0  0999 V2000
   27.1997  -20.5758   -4.5701 C   0  0  0  0  0  0  0  0  0  0  0  0
   28.3138  -20.2237   -5.4960 C   0  0  2  0  0  0  0  0  0  0  0  0
   29.4681  -19.5696   -4.7707 C   0  0  0  0  0  0  0  0  0  0  0  0
   27.8334  -19.4327   -6.6802 C   0  0  0  0  0  0  0  0  0  0  0  0
   26.8061  -20.2726   -7.4062 C   0  0  2  0  0  0  0  0  0  0  0  0
   27.5170  -21.4163   -7.9358 N   0  0  0  0  0  0  0  0  0  0  0  0
   26.2101  -19.5422   -8.5562 C   0  0  0  0  0  0  0  0  0  0  0  0
   26.4871  -18.3269   -8.6950 O   0  0  0  0  0  0  0  0  0  0  0  0
   26.7559  -20.7609  -16.0099 N   0  0  0  0  0  0  0  0  0  0  0  0
   27.6665  -21.7840  -15.5184 C   0  0  0  0  0  0  0  0  0  0  0  0
   27.6921  -22.8676  -16.1231 N   0  0  0  0  0  0  0  0  0  0  0  0
   28.4785  -21.5251  -14.3947 N   0  0  0  0  0  0  0  0  0  0  0  0
   28.1335  -20.7916  -13.2281 C   0  0  0  0  0  0  0  0  0  0  0  0
   26.7277  -20.8080  -12.7556 C   0  0  0  0  0  0  0  0  0  0  0  0
   26.6157  -19.9419  -11.5256 C   0  0  0  0  0  0  0  0  0  0  0  0
   25.2692  -19.8032  -10.9153 C   0  0  2  0  0  0  0  0  0  0  0  0
   25.3478  -20.1818   -9.4853 N   0  0  0  0  0  0  0  0  0  0  0  0
   24.1909  -20.5936  -11.5561 C   0  0  0  0  0  0  0  0  0  0  0  0
   24.1939  -21.8509  -11.2547 O   0  0  0  0  0  0  0  0  0  0  0  0
   28.1327  -23.7428  -16.0765 N   0  0  0  0  0  0  0  0  0  0  0  0
   23.2003  -20.1240  -12.4247 C   0  0  1  0  0  0  0  0  0  0  0  0
   22.0539  -20.9930  -12.6810 C   0  0  0  0  0  0  0  0  0  0  0  0
   20.8051  -20.2380  -13.0135 C   0  0  0  0  0  0  0  0  0  0  0  0
   19.6671  -20.6030  -12.1446 O   0  0  0  0  0  0  0  0  0  0  0  0
   19.7226  -21.5032  -11.2612 C   0  0  0  0  0  0  0  0  0  0  0  0
   22.3814  -21.8176  -13.8921 O   0  0  0  0  0  0  0  0  0  0  0  0
   23.3386  -21.5064  -14.6329 O   0  0  0  0  0  0  0  0  0  0  0  0
   18.4529  -19.9349  -12.2838 O   0  0  0  0  0  0  0  0  0  0  0  0
  2  1  1  1
  3  2  1  0
  4  5  1  0
  4  2  1  0
  5  6  1  6
  7  8  2  0
  7  5  1  0
  9 10  1  0
 10 11  2  0
 12 10  1  0
 12 13  1  0
 13 14  1  0
 14 15  1  0
 16 15  1  6
 16 17  1  0
 17  7  1  0
 18 16  1  0
 19 18  2  0
 20 18  1  0
 21 25  1  0
 21 20  1  0
 21 22  1  6
 23 24  2  0
 23 22  1  0
 25 28  1  0
 26 25  2  0
 27 23  1  0
M  END
$$$$
