LRD.pdb
     RDKit          3D

 28 27  0  0  1  0  0  0  0  0999 V2000
   22.5471  -15.4806  -19.3774 C   0  0  0  0  0  0  0  0  0  0  0  0
   23.5514  -16.5502  -19.6422 C   0  0  2  0  0  0  0  0  0  0  0  0
   23.8545  -16.6903  -21.1169 C   0  0  0  0  0  0  0  0  0  0  0  0
   23.1754  -17.8501  -18.9883 C   0  0  0  0  0  0  0  0  0  0  0  0
   22.8200  -17.5529  -17.5484 C   0  0  2  0  0  0  0  0  0  0  0  0
   23.9878  -16.9323  -16.9613 N   0  0  0  0  0  0  0  0  0  0  0  0
   22.5389  -18.7961  -16.7823 C   0  0  0  0  0  0  0  0  0  0  0  0
   21.8333  -19.6801  -17.3240 O   0  0  0  0  0  0  0  0  0  0  0  0
   26.7697  -20.2201   -9.6989 N   0  0  0  0  0  0  0  0  0  0  0  0
   25.4409  -20.6585   -9.2994 C   0  0  0  0  0  0  0  0  0  0  0  0
   25.1287  -20.5278   -8.1053 N   0  0  0  0  0  0  0  0  0  0  0  0
   24.5616  -21.2071  -10.2559 N   0  0  0  0  0  0  0  0  0  0  0  0
   24.7958  -21.3844  -11.6457 C   0  0  0  0  0  0  0  0  0  0  0  0
   23.6399  -21.4029  -12.5750 C   0  0  0  0  0  0  0  0  0  0  0  0
   23.8319  -20.3269  -13.6148 C   0  0  0  0  0  0  0  0  0  0  0  0
   22.8179  -20.2414  -14.6961 C   0  0  2  0  0  0  0  0  0  0  0  0
   23.0447  -18.9995  -15.4712 N   0  0  0  0  0  0  0  0  0  0  0  0
   21.4037  -20.2709  -14.2519 C   0  0  0  0  0  0  0  0  0  0  0  0
   20.9007  -19.1111  -13.9808 O   0  0  0  0  0  0  0  0  0  0  0  0
   24.3762  -20.7080   -7.5023 N   0  0  0  0  0  0  0  0  0  0  0  0
   20.5866  -21.3968  -14.1062 C   0  0  1  0  0  0  0  0  0  0  0  0
   19.1418  -21.1852  -14.0533 C   0  0  0  0  0  0  0  0  0  0  0  0
   18.5917  -20.5626  -15.2982 C   0  0  0  0  0  0  0  0  0  0  0  0
   17.1170  -20.4721  -15.2895 O   0  0  0  0  0  0  0  0  0  0  0  0
   16.4466  -20.0791  -14.2945 C   0  0  0  0  0  0  0  0  0  0  0  0
   18.4972  -22.5363  -13.9391 O   0  0  0  0  0  0  0  0  0  0  0  0
   18.9638  -23.5173  -14.5569 O   0  0  0  0  0  0  0  0  0  0  0  0
   16.3984  -20.8333  -16.4267 O   0  0  0  0  0  0  0  0  0  0  0  0
  2  1  1  6
  3  2  1  0
  4  5  1  0
  4  2  1  0
  5  6  1  1
  7  8  2  0
  7  5  1  0
  9 10  1  0
 10 11  2  0
 12 10  1  0
 12 13  1  0
 13 14  1  0
 14 15  1  0
 16 15  1  1
 16 17  1  0
 17  7  1  0
 18 16  1  0
 19 18  2  0
 20 18  1  0
 21 25  1  0
 21 20  1  0
 21 22  1  1
 23 24  2  0
 23 22  1  0
 25 28  1  0
 26 25  2  0
 27 23  1  0
M  END
$$$$
