LRD.pdb
     RDKit          3D

 28 27  0  0  1  0  0  0  0  0999 V2000
   23.2731  -15.4469  -19.4099 C   0  0  0  0  0  0  0  0  0  0  0  0
   24.0694  -16.6863  -19.6394 C   0  0  2  0  0  0  0  0  0  0  0  0
   24.3642  -16.9069  -21.1060 C   0  0  0  0  0  0  0  0  0  0  0  0
   23.4528  -17.8835  -18.9722 C   0  0  0  0  0  0  0  0  0  0  0  0
   23.1591  -17.5076  -17.5368 C   0  0  2  0  0  0  0  0  0  0  0  0
   24.4295  -17.1545  -16.9410 N   0  0  0  0  0  0  0  0  0  0  0  0
   22.6061  -18.6547  -16.7689 C   0  0  0  0  0  0  0  0  0  0  0  0
   21.8374  -19.4496  -17.3606 O   0  0  0  0  0  0  0  0  0  0  0  0
   27.2291  -21.5537  -10.5866 N   0  0  0  0  0  0  0  0  0  0  0  0
   26.0005  -20.9690  -10.0709 C   0  0  0  0  0  0  0  0  0  0  0  0
   25.9852  -20.6253   -8.8784 N   0  0  0  0  0  0  0  0  0  0  0  0
   24.8845  -20.8102  -10.9186 N   0  0  0  0  0  0  0  0  0  0  0  0
   24.3312  -21.7683  -11.8096 C   0  0  0  0  0  0  0  0  0  0  0  0
   23.1078  -21.4211  -12.5728 C   0  0  0  0  0  0  0  0  0  0  0  0
   23.4257  -20.2874  -13.5159 C   0  0  0  0  0  0  0  0  0  0  0  0
   22.4799  -20.0530  -14.6363 C   0  0  2  0  0  0  0  0  0  0  0  0
   22.9253  -18.8653  -15.4014 N   0  0  0  0  0  0  0  0  0  0  0  0
   21.0618  -19.8621  -14.2482 C   0  0  0  0  0  0  0  0  0  0  0  0
   20.8127  -18.7404  -13.6554 O   0  0  0  0  0  0  0  0  0  0  0  0
   25.3928  -20.1860   -8.2315 N   0  0  0  0  0  0  0  0  0  0  0  0
   20.0009  -20.7491  -14.4584 C   0  0  1  0  0  0  0  0  0  0  0  0
   18.6718  -20.3359  -14.0138 C   0  0  0  0  0  0  0  0  0  0  0  0
   17.5800  -20.7633  -14.9442 C   0  0  0  0  0  0  0  0  0  0  0  0
   17.4831  -19.9072  -16.1445 O   0  0  0  0  0  0  0  0  0  0  0  0
   18.1952  -18.8815  -16.3310 C   0  0  0  0  0  0  0  0  0  0  0  0
   18.4042  -21.0255  -12.7073 O   0  0  0  0  0  0  0  0  0  0  0  0
   19.0327  -22.0592  -12.3940 O   0  0  0  0  0  0  0  0  0  0  0  0
   16.5651  -20.2235  -17.1431 O   0  0  0  0  0  0  0  0  0  0  0  0
  2  1  1  6
  3  2  1  0
  4  5  1  0
  4  2  1  0
  5  6  1  1
  7  8  2  0
  7  5  1  0
  9 10  1  0
 10 11  2  0
 12 10  1  0
 12 13  1  0
 13 14  1  0
 14 15  1  0
 16 15  1  1
 16 17  1  0
 17  7  1  0
 18 16  1  0
 19 18  2  0
 20 18  1  0
 21 25  1  0
 21 20  1  0
 21 22  1  1
 23 24  2  0
 23 22  1  0
 25 28  1  0
 26 25  2  0
 27 23  1  0
M  END
$$$$
