LRD.pdb
     RDKit          3D

 28 27  0  0  1  0  0  0  0  0999 V2000
   26.9199  -18.7484   -5.6894 C   0  0  0  0  0  0  0  0  0  0  0  0
   27.5477  -20.0042   -6.1907 C   0  0  2  0  0  0  0  0  0  0  0  0
   28.9010  -20.2509   -5.5630 C   0  0  0  0  0  0  0  0  0  0  0  0
   27.5717  -20.0613   -7.6924 C   0  0  0  0  0  0  0  0  0  0  0  0
   26.1468  -19.9186   -8.1793 C   0  0  2  0  0  0  0  0  0  0  0  0
   25.3934  -20.9809   -7.5487 N   0  0  0  0  0  0  0  0  0  0  0  0
   26.0456  -20.1085   -9.6507 C   0  0  0  0  0  0  0  0  0  0  0  0
   26.6479  -19.2996  -10.3962 O   0  0  0  0  0  0  0  0  0  0  0  0
   25.9304  -25.3483  -15.9646 N   0  0  0  0  0  0  0  0  0  0  0  0
   25.4332  -24.0374  -16.3542 C   0  0  0  0  0  0  0  0  0  0  0  0
   24.5752  -23.9924  -17.2500 N   0  0  0  0  0  0  0  0  0  0  0  0
   25.9259  -22.8784  -15.7193 N   0  0  0  0  0  0  0  0  0  0  0  0
   26.0865  -22.6572  -14.3253 C   0  0  0  0  0  0  0  0  0  0  0  0
   25.1344  -23.2900  -13.3805 C   0  0  0  0  0  0  0  0  0  0  0  0
   25.4420  -22.8116  -11.9832 C   0  0  0  0  0  0  0  0  0  0  0  0
   25.1668  -21.3843  -11.6801 C   0  0  2  0  0  0  0  0  0  0  0  0
   25.2931  -21.1696  -10.2199 N   0  0  0  0  0  0  0  0  0  0  0  0
   23.8441  -20.8795  -12.1206 C   0  0  0  0  0  0  0  0  0  0  0  0
   22.8809  -21.0948  -11.2854 O   0  0  0  0  0  0  0  0  0  0  0  0
   24.0809  -23.3339  -17.7833 N   0  0  0  0  0  0  0  0  0  0  0  0
   23.5487  -20.2107  -13.3130 C   0  0  2  0  0  0  0  0  0  0  0  0
   22.1851  -19.7184  -13.4958 C   0  0  0  0  0  0  0  0  0  0  0  0
   22.0943  -18.5811  -14.4646 C   0  0  0  0  0  0  0  0  0  0  0  0
   20.7113  -18.0951  -14.6487 O   0  0  0  0  0  0  0  0  0  0  0  0
   20.0570  -17.4922  -13.7530 C   0  0  0  0  0  0  0  0  0  0  0  0
   21.3818  -20.8400  -14.0881 O   0  0  0  0  0  0  0  0  0  0  0  0
   21.8845  -21.5982  -14.9449 O   0  0  0  0  0  0  0  0  0  0  0  0
   20.0668  -18.2982  -15.8667 O   0  0  0  0  0  0  0  0  0  0  0  0
  2  1  1  6
  3  2  1  0
  4  5  1  0
  4  2  1  0
  5  6  1  1
  7  8  2  0
  7  5  1  0
  9 10  1  0
 10 11  2  0
 12 10  1  0
 12 13  1  0
 13 14  1  0
 14 15  1  0
 16 15  1  1
 16 17  1  0
 17  7  1  0
 18 16  1  0
 19 18  2  0
 20 18  1  0
 21 25  1  0
 21 20  1  0
 21 22  1  6
 23 24  2  0
 23 22  1  0
 25 28  1  0
 26 25  2  0
 27 23  1  0
M  END
$$$$
