FIE.pdb
     RDKit          3D

 29 29  0  0  1  0  0  0  0  0999 V2000
   19.9794  -20.2770  -12.5331 N   0  0  0  0  0  0  0  0  0  0  0  0
   20.9541  -20.8481  -13.4110 C   0  0  1  0  0  0  0  0  0  0  0  0
   20.5960  -20.5442  -14.8503 C   0  0  0  0  0  0  0  0  0  0  0  0
   19.3943  -21.2647  -15.2698 C   0  0  0  0  0  0  0  0  0  0  0  0
   19.3515  -22.6359  -15.4004 C   0  0  0  0  0  0  0  0  0  0  0  0
   18.2164  -23.3151  -15.7992 C   0  0  0  0  0  0  0  0  0  0  0  0
   17.0676  -22.6105  -16.0831 C   0  0  0  0  0  0  0  0  0  0  0  0
   17.0865  -21.2507  -15.9608 C   0  0  0  0  0  0  0  0  0  0  0  0
   18.2208  -20.5885  -15.5637 C   0  0  0  0  0  0  0  0  0  0  0  0
   22.3526  -20.3162  -13.1246 C   0  0  0  0  0  0  0  0  0  0  0  0
   22.4824  -19.1056  -12.8512 O   0  0  0  0  0  0  0  0  0  0  0  0
   25.4424  -20.8808   -9.1941 C   0  0  0  0  0  0  0  0  0  0  0  0
   24.6555  -20.6638  -10.4999 C   0  0  0  0  0  0  0  0  0  0  0  0
   25.4501  -21.1067  -11.6845 C   0  0  2  0  0  0  0  0  0  0  0  0
   26.9351  -21.0286  -11.5288 C   0  0  0  0  0  0  0  0  0  0  0  0
   24.8550  -20.9483  -13.0223 C   0  0  2  0  0  0  0  0  0  0  0  0
   23.4392  -21.1858  -13.1747 N   0  0  0  0  0  0  0  0  0  0  0  0
   25.5436  -21.4697  -14.1873 C   0  0  0  0  0  0  0  0  0  0  0  0
   25.5628  -22.7392  -14.4189 O   0  0  0  0  0  0  0  0  0  0  0  0
   26.2375  -20.7158  -15.1673 N   0  0  0  0  0  0  0  0  0  0  0  0
   26.9390  -21.3386  -16.2963 C   0  0  1  0  0  0  0  0  0  0  0  0
   27.1649  -20.3487  -17.3855 C   0  0  0  0  0  0  0  0  0  0  0  0
   25.8612  -19.8276  -17.9098 C   0  0  0  0  0  0  0  0  0  0  0  0
   25.9607  -18.3717  -18.2607 C   0  0  0  0  0  0  0  0  0  0  0  0
   27.0700  -17.7951  -18.1691 O   0  0  0  0  0  0  0  0  0  0  0  0
   28.1949  -21.9585  -15.8761 C   0  0  0  0  0  0  0  0  0  0  0  0
   28.7452  -21.8879  -14.7716 O   0  0  0  0  0  0  0  0  0  0  0  0
   24.7997  -17.7414  -18.6722 O   0  0  0  0  0  0  0  0  0  0  0  0
   28.8722  -22.7362  -16.8394 O   0  0  0  0  0  0  0  0  0  0  0  0
  2  1  1  1
  2  3  1  0
  4  3  1  0
  5  4  2  0
  6  7  2  0
  6  5  1  0
  7  8  1  0
  8  9  2  0
  9  4  1  0
 10  2  1  0
 11 10  2  0
 12 13  1  0
 13 14  1  0
 14 15  1  6
 16 14  1  0
 16 17  1  1
 17 10  1  0
 18 16  1  0
 19 18  2  0
 20 18  1  0
 21 22  1  6
 21 20  1  0
 23 22  1  0
 24 25  2  0
 24 23  1  0
 26 21  1  0
 26 29  1  0
 27 26  2  0
 28 24  1  0
M  END
$$$$
