FIE.pdb
     RDKit          3D

 29 29  0  0  1  0  0  0  0  0999 V2000
   19.7478  -12.2674  -18.1171 N   0  0  0  0  0  0  0  0  0  0  0  0
   20.2633  -10.9343  -18.1796 C   0  0  1  0  0  0  0  0  0  0  0  0
   19.2599  -10.0219  -18.8523 C   0  0  0  0  0  0  0  0  0  0  0  0
   19.0665  -10.3775  -20.2578 C   0  0  0  0  0  0  0  0  0  0  0  0
   20.0189  -10.1446  -21.2263 C   0  0  0  0  0  0  0  0  0  0  0  0
   19.8340  -10.4788  -22.5540 C   0  0  0  0  0  0  0  0  0  0  0  0
   18.6545  -11.0711  -22.9477 C   0  0  0  0  0  0  0  0  0  0  0  0
   17.6962  -11.3115  -22.0052 C   0  0  0  0  0  0  0  0  0  0  0  0
   17.8927  -10.9745  -20.6897 C   0  0  0  0  0  0  0  0  0  0  0  0
   20.5813  -10.3865  -16.7940 C   0  0  0  0  0  0  0  0  0  0  0  0
   19.8095  -10.6659  -15.8541 O   0  0  0  0  0  0  0  0  0  0  0  0
   26.0182   -9.9161  -14.8779 C   0  0  0  0  0  0  0  0  0  0  0  0
   24.8042   -9.3684  -15.6508 C   0  0  0  0  0  0  0  0  0  0  0  0
   23.5368   -9.6071  -14.8974 C   0  0  2  0  0  0  0  0  0  0  0  0
   23.4766  -10.8884  -14.1294 C   0  0  0  0  0  0  0  0  0  0  0  0
   22.2921   -9.0208  -15.4228 C   0  0  2  0  0  0  0  0  0  0  0  0
   21.7135   -9.5959  -16.6138 N   0  0  0  0  0  0  0  0  0  0  0  0
   22.1373   -7.5799  -15.4777 C   0  0  0  0  0  0  0  0  0  0  0  0
   22.5163   -6.9233  -16.5222 O   0  0  0  0  0  0  0  0  0  0  0  0
   21.5845   -6.7497  -14.4701 N   0  0  0  0  0  0  0  0  0  0  0  0
   21.4981   -5.2906  -14.6046 C   0  0  1  0  0  0  0  0  0  0  0  0
   20.0789   -4.8418  -14.5632 C   0  0  0  0  0  0  0  0  0  0  0  0
   19.9894   -3.3496  -14.6705 C   0  0  0  0  0  0  0  0  0  0  0  0
   18.5610   -2.8892  -14.6536 C   0  0  0  0  0  0  0  0  0  0  0  0
   17.6459   -3.7390  -14.5433 O   0  0  0  0  0  0  0  0  0  0  0  0
   22.2990   -4.6064  -13.5903 C   0  0  0  0  0  0  0  0  0  0  0  0
   22.6899   -5.0492  -12.5045 O   0  0  0  0  0  0  0  0  0  0  0  0
   18.3356   -1.5285  -14.7630 O   0  0  0  0  0  0  0  0  0  0  0  0
   22.6801   -3.2774  -13.8728 O   0  0  0  0  0  0  0  0  0  0  0  0
  2  1  1  1
  2  3  1  0
  4  3  1  0
  5  4  2  0
  6  7  2  0
  6  5  1  0
  7  8  1  0
  8  9  2  0
  9  4  1  0
 10  2  1  0
 11 10  2  0
 12 13  1  0
 13 14  1  0
 14 15  1  6
 16 14  1  0
 16 17  1  6
 17 10  1  0
 18 16  1  0
 19 18  2  0
 20 18  1  0
 21 22  1  1
 21 20  1  0
 23 22  1  0
 24 25  2  0
 24 23  1  0
 26 21  1  0
 26 29  1  0
 27 26  2  0
 28 24  1  0
M  END
$$$$
