FIE.pdb
     RDKit          3D

 29 29  0  0  1  0  0  0  0  0999 V2000
   20.8884  -12.1066  -19.2377 N   0  0  0  0  0  0  0  0  0  0  0  0
   21.3799  -10.7896  -18.9713 C   0  0  1  0  0  0  0  0  0  0  0  0
   21.0070   -9.8584  -20.1053 C   0  0  0  0  0  0  0  0  0  0  0  0
   21.5948  -10.2912  -21.3727 C   0  0  0  0  0  0  0  0  0  0  0  0
   22.8542   -9.9097  -21.7822 C   0  0  0  0  0  0  0  0  0  0  0  0
   23.4073  -10.3172  -22.9808 C   0  0  0  0  0  0  0  0  0  0  0  0
   22.6860  -11.1402  -23.8171 C   0  0  0  0  0  0  0  0  0  0  0  0
   21.4355  -11.5310  -23.4322 C   0  0  0  0  0  0  0  0  0  0  0  0
   20.8980  -11.1189  -22.2388 C   0  0  0  0  0  0  0  0  0  0  0  0
   20.8227  -10.2321  -17.6677 C   0  0  0  0  0  0  0  0  0  0  0  0
   19.7073  -10.6346  -17.2790 O   0  0  0  0  0  0  0  0  0  0  0  0
   23.5728  -10.5700  -13.2337 C   0  0  0  0  0  0  0  0  0  0  0  0
   22.5683  -10.4160  -14.3907 C   0  0  0  0  0  0  0  0  0  0  0  0
   22.1216   -8.9974  -14.5276 C   0  0  2  0  0  0  0  0  0  0  0  0
   21.9389   -8.2537  -13.2435 C   0  0  0  0  0  0  0  0  0  0  0  0
   21.3012   -8.6341  -15.6955 C   0  0  2  0  0  0  0  0  0  0  0  0
   21.5647   -9.2970  -16.9506 N   0  0  0  0  0  0  0  0  0  0  0  0
   20.9931   -7.2416  -15.9588 C   0  0  0  0  0  0  0  0  0  0  0  0
   21.9425   -6.3918  -16.1637 O   0  0  0  0  0  0  0  0  0  0  0  0
   19.7021   -6.6597  -16.0287 N   0  0  0  0  0  0  0  0  0  0  0  0
   19.4904   -5.2280  -16.2738 C   0  0  1  0  0  0  0  0  0  0  0  0
   18.2717   -5.0108  -17.1013 C   0  0  0  0  0  0  0  0  0  0  0  0
   18.0881   -3.5550  -17.4062 C   0  0  0  0  0  0  0  0  0  0  0  0
   16.8434   -3.3222  -18.2120 C   0  0  0  0  0  0  0  0  0  0  0  0
   16.5923   -2.1671  -18.6293 O   0  0  0  0  0  0  0  0  0  0  0  0
   19.4235   -4.4705  -15.0249 C   0  0  0  0  0  0  0  0  0  0  0  0
   18.9054   -4.8116  -13.9558 O   0  0  0  0  0  0  0  0  0  0  0  0
   16.0324   -4.4176  -18.4504 O   0  0  0  0  0  0  0  0  0  0  0  0
   20.0202   -3.1916  -15.0255 O   0  0  0  0  0  0  0  0  0  0  0  0
  2  1  1  6
  2  3  1  0
  4  3  1  0
  5  4  2  0
  6  7  2  0
  6  5  1  0
  7  8  1  0
  8  9  2  0
  9  4  1  0
 10  2  1  0
 11 10  2  0
 12 13  1  0
 13 14  1  0
 14 15  1  1
 16 14  1  0
 16 17  1  6
 17 10  1  0
 18 16  1  0
 19 18  2  0
 20 18  1  0
 21 22  1  1
 21 20  1  0
 23 22  1  0
 24 25  2  0
 24 23  1  0
 26 21  1  0
 26 29  1  0
 27 26  2  0
 28 24  1  0
M  END
$$$$
