FIE.pdb
     RDKit          3D

 29 29  0  0  1  0  0  0  0  0999 V2000
   26.4105  -20.0728  -15.7805 N   0  0  0  0  0  0  0  0  0  0  0  0
   25.3956  -20.9317  -15.2522 C   0  0  1  0  0  0  0  0  0  0  0  0
   26.0140  -21.9524  -14.3208 C   0  0  0  0  0  0  0  0  0  0  0  0
   26.9545  -22.8236  -15.0249 C   0  0  0  0  0  0  0  0  0  0  0  0
   28.2590  -22.4622  -15.2837 C   0  0  0  0  0  0  0  0  0  0  0  0
   29.1457  -23.2851  -15.9510 C   0  0  0  0  0  0  0  0  0  0  0  0
   28.7284  -24.5239  -16.3847 C   0  0  0  0  0  0  0  0  0  0  0  0
   27.4398  -24.9035  -16.1396 C   0  0  0  0  0  0  0  0  0  0  0  0
   26.5693  -24.0763  -15.4755 C   0  0  0  0  0  0  0  0  0  0  0  0
   24.3316  -20.1483  -14.4939 C   0  0  0  0  0  0  0  0  0  0  0  0
   24.6985  -19.3762  -13.5849 O   0  0  0  0  0  0  0  0  0  0  0  0
   20.3167  -16.0915  -14.6546 C   0  0  0  0  0  0  0  0  0  0  0  0
   20.3230  -17.5836  -14.2739 C   0  0  0  0  0  0  0  0  0  0  0  0
   21.6237  -18.2233  -14.6343 C   0  0  2  0  0  0  0  0  0  0  0  0
   22.3366  -17.6185  -15.8011 C   0  0  0  0  0  0  0  0  0  0  0  0
   21.8002  -19.6564  -14.3440 C   0  0  2  0  0  0  0  0  0  0  0  0
   22.9904  -20.3124  -14.8310 N   0  0  0  0  0  0  0  0  0  0  0  0
   20.6783  -20.5657  -14.4776 C   0  0  0  0  0  0  0  0  0  0  0  0
   20.7958  -21.6479  -15.1707 O   0  0  0  0  0  0  0  0  0  0  0  0
   19.3908  -20.4100  -13.9047 N   0  0  0  0  0  0  0  0  0  0  0  0
   18.5965  -21.5453  -13.4200 C   0  0  1  0  0  0  0  0  0  0  0  0
   19.3592  -22.3262  -12.4071 C   0  0  0  0  0  0  0  0  0  0  0  0
   18.6131  -23.5670  -12.0198 C   0  0  0  0  0  0  0  0  0  0  0  0
   19.1007  -24.7570  -12.7936 C   0  0  0  0  0  0  0  0  0  0  0  0
   20.3118  -25.0742  -12.7286 O   0  0  0  0  0  0  0  0  0  0  0  0
   17.3037  -21.1131  -12.8909 C   0  0  0  0  0  0  0  0  0  0  0  0
   16.2733  -21.7832  -12.7608 O   0  0  0  0  0  0  0  0  0  0  0  0
   18.1664  -25.4455  -13.5467 O   0  0  0  0  0  0  0  0  0  0  0  0
   17.2063  -19.7687  -12.4729 O   0  0  0  0  0  0  0  0  0  0  0  0
  2  1  1  1
  2  3  1  0
  4  3  1  0
  5  4  2  0
  6  7  2  0
  6  5  1  0
  7  8  1  0
  8  9  2  0
  9  4  1  0
 10  2  1  0
 11 10  2  0
 12 13  1  0
 13 14  1  0
 14 15  1  6
 16 14  1  0
 16 17  1  6
 17 10  1  0
 18 16  1  0
 19 18  2  0
 20 18  1  0
 21 22  1  1
 21 20  1  0
 23 22  1  0
 24 25  2  0
 24 23  1  0
 26 21  1  0
 26 29  1  0
 27 26  2  0
 28 24  1  0
M  END
$$$$
