FIE.pdb
     RDKit          3D

 29 29  0  0  1  0  0  0  0  0999 V2000
   20.7927  -13.6527  -17.7151 N   0  0  0  0  0  0  0  0  0  0  0  0
   21.0760  -12.2849  -18.0244 C   0  0  1  0  0  0  0  0  0  0  0  0
   19.8338  -11.6075  -18.5630 C   0  0  0  0  0  0  0  0  0  0  0  0
   19.3709  -12.2363  -19.7997 C   0  0  0  0  0  0  0  0  0  0  0  0
   18.2026  -12.9630  -19.8777 C   0  0  0  0  0  0  0  0  0  0  0  0
   17.7677  -13.5585  -21.0460 C   0  0  0  0  0  0  0  0  0  0  0  0
   18.5191  -13.4327  -22.1934 C   0  0  0  0  0  0  0  0  0  0  0  0
   19.6808  -12.7171  -22.1399 C   0  0  0  0  0  0  0  0  0  0  0  0
   20.1013  -12.1306  -20.9728 C   0  0  0  0  0  0  0  0  0  0  0  0
   21.5681  -11.5199  -16.8023 C   0  0  0  0  0  0  0  0  0  0  0  0
   20.9912  -11.7091  -15.7121 O   0  0  0  0  0  0  0  0  0  0  0  0
   26.7026  -11.6208  -15.3822 C   0  0  0  0  0  0  0  0  0  0  0  0
   25.1789  -11.5227  -15.5827 C   0  0  0  0  0  0  0  0  0  0  0  0
   24.7425  -10.0981  -15.6865 C   0  0  2  0  0  0  0  0  0  0  0  0
   25.5393   -9.1210  -14.8829 C   0  0  0  0  0  0  0  0  0  0  0  0
   23.3213   -9.8219  -15.9565 C   0  0  2  0  0  0  0  0  0  0  0  0
   22.6382  -10.6381  -16.9318 N   0  0  0  0  0  0  0  0  0  0  0  0
   22.8626   -8.4526  -16.0905 C   0  0  0  0  0  0  0  0  0  0  0  0
   23.0384   -7.8119  -17.1969 O   0  0  0  0  0  0  0  0  0  0  0  0
   22.2008   -7.6818  -15.1015 N   0  0  0  0  0  0  0  0  0  0  0  0
   21.8223   -6.2793  -15.3117 C   0  0  1  0  0  0  0  0  0  0  0  0
   20.3415   -6.1245  -15.2842 C   0  0  0  0  0  0  0  0  0  0  0  0
   19.9523   -4.6921  -15.4909 C   0  0  0  0  0  0  0  0  0  0  0  0
   18.4608   -4.5266  -15.4693 C   0  0  0  0  0  0  0  0  0  0  0  0
   17.7384   -5.5235  -15.2328 O   0  0  0  0  0  0  0  0  0  0  0  0
   22.4645   -5.3951  -14.3402 C   0  0  0  0  0  0  0  0  0  0  0  0
   23.0100   -5.7046  -13.2752 O   0  0  0  0  0  0  0  0  0  0  0  0
   17.9632   -3.2595  -15.7166 O   0  0  0  0  0  0  0  0  0  0  0  0
   22.4704   -4.0169  -14.6432 O   0  0  0  0  0  0  0  0  0  0  0  0
  2  1  1  1
  2  3  1  0
  4  3  1  0
  5  4  2  0
  6  7  2  0
  6  5  1  0
  7  8  1  0
  8  9  2  0
  9  4  1  0
 10  2  1  0
 11 10  2  0
 12 13  1  0
 13 14  1  0
 14 15  1  1
 16 14  1  0
 16 17  1  6
 17 10  1  0
 18 16  1  0
 19 18  2  0
 20 18  1  0
 21 22  1  1
 21 20  1  0
 23 22  1  0
 24 25  2  0
 24 23  1  0
 26 21  1  0
 26 29  1  0
 27 26  2  0
 28 24  1  0
M  END
$$$$
