FIE.pdb
     RDKit          3D

 29 29  0  0  1  0  0  0  0  0999 V2000
   28.3073  -21.3219   -9.2551 N   0  0  0  0  0  0  0  0  0  0  0  0
   26.9762  -20.8106   -9.1384 C   0  0  1  0  0  0  0  0  0  0  0  0
   26.9643  -19.5999   -8.2295 C   0  0  0  0  0  0  0  0  0  0  0  0
   27.5734  -19.8942   -6.9327 C   0  0  0  0  0  0  0  0  0  0  0  0
   26.8769  -20.4706   -5.8926 C   0  0  0  0  0  0  0  0  0  0  0  0
   27.4528  -20.7459   -4.6673 C   0  0  0  0  0  0  0  0  0  0  0  0
   28.7787  -20.4389   -4.4553 C   0  0  0  0  0  0  0  0  0  0  0  0
   29.4888  -19.8669   -5.4718 C   0  0  0  0  0  0  0  0  0  0  0  0
   28.9045  -19.5989   -6.6840 C   0  0  0  0  0  0  0  0  0  0  0  0
   26.4009  -20.4194  -10.4937 C   0  0  0  0  0  0  0  0  0  0  0  0
   27.1100  -19.7431  -11.2663 O   0  0  0  0  0  0  0  0  0  0  0  0
   26.8869  -22.7022  -14.5281 C   0  0  0  0  0  0  0  0  0  0  0  0
   26.4858  -21.7516  -13.3850 C   0  0  0  0  0  0  0  0  0  0  0  0
   25.0149  -21.8085  -13.1317 C   0  0  2  0  0  0  0  0  0  0  0  0
   24.1757  -22.2109  -14.3018 C   0  0  0  0  0  0  0  0  0  0  0  0
   24.4477  -20.9111  -12.1109 C   0  0  2  0  0  0  0  0  0  0  0  0
   25.1115  -20.8222  -10.8320 N   0  0  0  0  0  0  0  0  0  0  0  0
   23.0139  -20.8736  -11.8961 C   0  0  0  0  0  0  0  0  0  0  0  0
   22.4762  -21.5839  -10.9624 O   0  0  0  0  0  0  0  0  0  0  0  0
   22.0698  -20.1051  -12.6229 N   0  0  0  0  0  0  0  0  0  0  0  0
   20.6227  -20.2112  -12.4012 C   0  0  1  0  0  0  0  0  0  0  0  0
   19.9028  -19.1037  -13.0885 C   0  0  0  0  0  0  0  0  0  0  0  0
   20.4200  -17.7716  -12.6365 C   0  0  0  0  0  0  0  0  0  0  0  0
   19.6883  -16.6482  -13.3112 C   0  0  0  0  0  0  0  0  0  0  0  0
   18.5083  -16.3958  -12.9714 O   0  0  0  0  0  0  0  0  0  0  0  0
   20.1069  -21.5150  -12.8162 C   0  0  0  0  0  0  0  0  0  0  0  0
   20.5334  -22.2506  -13.7132 O   0  0  0  0  0  0  0  0  0  0  0  0
   20.3733  -15.9452  -14.2863 O   0  0  0  0  0  0  0  0  0  0  0  0
   18.9853  -22.0063  -12.1147 O   0  0  0  0  0  0  0  0  0  0  0  0
  2  1  1  6
  2  3  1  0
  4  3  1  0
  5  4  2  0
  6  7  2  0
  6  5  1  0
  7  8  1  0
  8  9  2  0
  9  4  1  0
 10  2  1  0
 11 10  2  0
 12 13  1  0
 13 14  1  0
 14 15  1  6
 16 14  1  0
 16 17  1  1
 17 10  1  0
 18 16  1  0
 19 18  2  0
 20 18  1  0
 21 22  1  6
 21 20  1  0
 23 22  1  0
 24 25  2  0
 24 23  1  0
 26 21  1  0
 26 29  1  0
 27 26  2  0
 28 24  1  0
M  END
$$$$
