FIE.pdb
     RDKit          3D

 29 29  0  0  1  0  0  0  0  0999 V2000
   21.5775  -25.5261  -14.6518 N   0  0  0  0  0  0  0  0  0  0  0  0
   21.4634  -25.5663  -13.2262 C   0  0  1  0  0  0  0  0  0  0  0  0
   21.1187  -24.1911  -12.6952 C   0  0  0  0  0  0  0  0  0  0  0  0
   19.8200  -23.7335  -13.1883 C   0  0  0  0  0  0  0  0  0  0  0  0
   19.6686  -23.0526  -14.3768 C   0  0  0  0  0  0  0  0  0  0  0  0
   18.4415  -22.6189  -14.8403 C   0  0  0  0  0  0  0  0  0  0  0  0
   17.3083  -22.8673  -14.0980 C   0  0  0  0  0  0  0  0  0  0  0  0
   17.4340  -23.5404  -12.9166 C   0  0  0  0  0  0  0  0  0  0  0  0
   18.6590  -23.9658  -12.4678 C   0  0  0  0  0  0  0  0  0  0  0  0
   20.3968  -26.5551  -12.7729 C   0  0  0  0  0  0  0  0  0  0  0  0
   19.5217  -26.9008  -13.5925 O   0  0  0  0  0  0  0  0  0  0  0  0
   21.8627  -31.2983  -10.2911 C   0  0  0  0  0  0  0  0  0  0  0  0
   21.4717  -29.8182  -10.1250 C   0  0  0  0  0  0  0  0  0  0  0  0
   20.2682  -29.4863  -10.9449 C   0  0  2  0  0  0  0  0  0  0  0  0
   20.1379  -30.2389  -12.2302 C   0  0  0  0  0  0  0  0  0  0  0  0
   19.7080  -28.1280  -10.8433 C   0  0  2  0  0  0  0  0  0  0  0  0
   20.4255  -27.0427  -11.4688 N   0  0  0  0  0  0  0  0  0  0  0  0
   19.1630  -27.6621   -9.5827 C   0  0  0  0  0  0  0  0  0  0  0  0
   19.6374  -26.6019   -9.0201 O   0  0  0  0  0  0  0  0  0  0  0  0
   18.1075  -28.2567   -8.8463 N   0  0  0  0  0  0  0  0  0  0  0  0
   17.5925  -27.6844   -7.5966 C   0  0  1  0  0  0  0  0  0  0  0  0
   17.0655  -26.3106   -7.8253 C   0  0  0  0  0  0  0  0  0  0  0  0
   16.4252  -25.7725   -6.5817 C   0  0  0  0  0  0  0  0  0  0  0  0
   17.1616  -24.5691   -6.0694 C   0  0  0  0  0  0  0  0  0  0  0  0
   16.5095  -23.6101   -5.5934 O   0  0  0  0  0  0  0  0  0  0  0  0
   16.5798  -28.5444   -6.9857 C   0  0  0  0  0  0  0  0  0  0  0  0
   16.2854  -28.6401   -5.7891 O   0  0  0  0  0  0  0  0  0  0  0  0
   18.5424  -24.5910   -6.1551 O   0  0  0  0  0  0  0  0  0  0  0  0
   15.8398  -29.3713   -7.8575 O   0  0  0  0  0  0  0  0  0  0  0  0
  2  1  1  6
  2  3  1  0
  4  3  1  0
  5  4  2  0
  6  7  2  0
  6  5  1  0
  7  8  1  0
  8  9  2  0
  9  4  1  0
 10  2  1  0
 11 10  2  0
 12 13  1  0
 13 14  1  0
 14 15  1  6
 16 14  1  0
 16 17  1  1
 17 10  1  0
 18 16  1  0
 19 18  2  0
 20 18  1  0
 21 22  1  6
 21 20  1  0
 23 22  1  0
 24 25  2  0
 24 23  1  0
 26 21  1  0
 26 29  1  0
 27 26  2  0
 28 24  1  0
M  END
$$$$
