FIE.pdb
     RDKit          3D

 29 29  0  0  1  0  0  0  0  0999 V2000
   19.5331  -12.6092  -17.6813 N   0  0  0  0  0  0  0  0  0  0  0  0
   20.2760  -11.4256  -17.9876 C   0  0  1  0  0  0  0  0  0  0  0  0
   19.3830  -10.4182  -18.6802 C   0  0  0  0  0  0  0  0  0  0  0  0
   18.9670  -10.8865  -20.0019 C   0  0  0  0  0  0  0  0  0  0  0  0
   19.8591  -11.1362  -21.0221 C   0  0  0  0  0  0  0  0  0  0  0  0
   19.4646  -11.5762  -22.2709 C   0  0  0  0  0  0  0  0  0  0  0  0
   18.1271  -11.7806  -22.5281 C   0  0  0  0  0  0  0  0  0  0  0  0
   17.2246  -11.5396  -21.5321 C   0  0  0  0  0  0  0  0  0  0  0  0
   17.6300  -11.1027  -20.2961 C   0  0  0  0  0  0  0  0  0  0  0  0
   20.8647  -10.7885  -16.7352 C   0  0  0  0  0  0  0  0  0  0  0  0
   20.2454  -10.9133  -15.6591 O   0  0  0  0  0  0  0  0  0  0  0  0
   25.9294  -11.6371  -15.2471 C   0  0  0  0  0  0  0  0  0  0  0  0
   24.4405  -11.3310  -15.4937 C   0  0  0  0  0  0  0  0  0  0  0  0
   24.1935   -9.8583  -15.5216 C   0  0  2  0  0  0  0  0  0  0  0  0
   25.0736   -9.0414  -14.6308 C   0  0  0  0  0  0  0  0  0  0  0  0
   22.8315   -9.3851  -15.8219 C   0  0  2  0  0  0  0  0  0  0  0  0
   22.0664  -10.0903  -16.8226 N   0  0  0  0  0  0  0  0  0  0  0  0
   22.5706   -7.9643  -15.9504 C   0  0  0  0  0  0  0  0  0  0  0  0
   23.0494   -7.3018  -16.9492 O   0  0  0  0  0  0  0  0  0  0  0  0
   21.8058   -7.1615  -15.0669 N   0  0  0  0  0  0  0  0  0  0  0  0
   21.7214   -5.7017  -15.1946 C   0  0  1  0  0  0  0  0  0  0  0  0
   20.3003   -5.2593  -15.2415 C   0  0  0  0  0  0  0  0  0  0  0  0
   19.6066   -5.8241  -16.4439 C   0  0  0  0  0  0  0  0  0  0  0  0
   18.1665   -5.4035  -16.4868 C   0  0  0  0  0  0  0  0  0  0  0  0
   17.3193   -6.0560  -15.8326 O   0  0  0  0  0  0  0  0  0  0  0  0
   22.4515   -5.0229  -14.1249 C   0  0  0  0  0  0  0  0  0  0  0  0
   22.9145   -5.5147  -13.0898 O   0  0  0  0  0  0  0  0  0  0  0  0
   17.8546   -4.2998  -17.2607 O   0  0  0  0  0  0  0  0  0  0  0  0
   22.6613   -3.6361  -14.2806 O   0  0  0  0  0  0  0  0  0  0  0  0
  2  1  1  1
  2  3  1  0
  4  3  1  0
  5  4  2  0
  6  7  2  0
  6  5  1  0
  7  8  1  0
  8  9  2  0
  9  4  1  0
 10  2  1  0
 11 10  2  0
 12 13  1  0
 13 14  1  0
 14 15  1  1
 16 14  1  0
 16 17  1  6
 17 10  1  0
 18 16  1  0
 19 18  2  0
 20 18  1  0
 21 22  1  1
 21 20  1  0
 23 22  1  0
 24 25  2  0
 24 23  1  0
 26 21  1  0
 26 29  1  0
 27 26  2  0
 28 24  1  0
M  END
$$$$
