FIE.pdb
     RDKit          3D

 29 29  0  0  1  0  0  0  0  0999 V2000
   28.2489  -20.7097  -16.0517 N   0  0  0  0  0  0  0  0  0  0  0  0
   27.6162  -19.8345  -15.1133 C   0  0  1  0  0  0  0  0  0  0  0  0
   26.8722  -18.7389  -15.8469 C   0  0  0  0  0  0  0  0  0  0  0  0
   27.7832  -17.8906  -16.6148 C   0  0  0  0  0  0  0  0  0  0  0  0
   29.1382  -18.1287  -16.6953 C   0  0  0  0  0  0  0  0  0  0  0  0
   29.9980  -17.3251  -17.4191 C   0  0  0  0  0  0  0  0  0  0  0  0
   29.5000  -16.2343  -18.0966 C   0  0  0  0  0  0  0  0  0  0  0  0
   28.1603  -15.9786  -18.0311 C   0  0  0  0  0  0  0  0  0  0  0  0
   27.3173  -16.7849  -17.3085 C   0  0  0  0  0  0  0  0  0  0  0  0
   26.6392  -20.5818  -14.2144 C   0  0  0  0  0  0  0  0  0  0  0  0
   26.2299  -21.7011  -14.5844 O   0  0  0  0  0  0  0  0  0  0  0  0
   27.7082  -20.8314   -8.9721 C   0  0  0  0  0  0  0  0  0  0  0  0
   27.2281  -21.0931  -10.4116 C   0  0  0  0  0  0  0  0  0  0  0  0
   25.8370  -20.5882  -10.6129 C   0  0  2  0  0  0  0  0  0  0  0  0
   24.8800  -20.8789   -9.5015 C   0  0  0  0  0  0  0  0  0  0  0  0
   25.3297  -20.4717  -11.9906 C   0  0  2  0  0  0  0  0  0  0  0  0
   26.2319  -20.0025  -13.0153 N   0  0  0  0  0  0  0  0  0  0  0  0
   24.0152  -19.9090  -12.2330 C   0  0  0  0  0  0  0  0  0  0  0  0
   23.8904  -18.8020  -12.8844 O   0  0  0  0  0  0  0  0  0  0  0  0
   22.7727  -20.4561  -11.8243 N   0  0  0  0  0  0  0  0  0  0  0  0
   21.5570  -20.3592  -12.6411 C   0  0  1  0  0  0  0  0  0  0  0  0
   21.7975  -20.8990  -14.0079 C   0  0  0  0  0  0  0  0  0  0  0  0
   22.1209  -19.7939  -14.9671 C   0  0  0  0  0  0  0  0  0  0  0  0
   21.6833  -20.1396  -16.3606 C   0  0  0  0  0  0  0  0  0  0  0  0
   20.4665  -20.3382  -16.5877 O   0  0  0  0  0  0  0  0  0  0  0  0
   20.4224  -21.0242  -12.0019 C   0  0  0  0  0  0  0  0  0  0  0  0
   20.4411  -21.8117  -11.0494 O   0  0  0  0  0  0  0  0  0  0  0  0
   22.6680  -20.2197  -17.3292 O   0  0  0  0  0  0  0  0  0  0  0  0
   19.1432  -20.7410  -12.5261 O   0  0  0  0  0  0  0  0  0  0  0  0
  2  1  1  6
  2  3  1  0
  4  3  1  0
  5  4  2  0
  6  7  2  0
  6  5  1  0
  7  8  1  0
  8  9  2  0
  9  4  1  0
 10  2  1  0
 11 10  2  0
 12 13  1  0
 13 14  1  0
 14 15  1  1
 16 14  1  0
 16 17  1  6
 17 10  1  0
 18 16  1  0
 19 18  2  0
 20 18  1  0
 21 22  1  6
 21 20  1  0
 23 22  1  0
 24 25  2  0
 24 23  1  0
 26 21  1  0
 26 29  1  0
 27 26  2  0
 28 24  1  0
M  END
$$$$
