FIE.pdb
     RDKit          3D

 29 29  0  0  1  0  0  0  0  0999 V2000
   28.5721  -20.4295  -15.4579 N   0  0  0  0  0  0  0  0  0  0  0  0
   27.6975  -19.6728  -14.6156 C   0  0  1  0  0  0  0  0  0  0  0  0
   26.7633  -18.8329  -15.4605 C   0  0  0  0  0  0  0  0  0  0  0  0
   27.4570  -17.6929  -16.0591 C   0  0  0  0  0  0  0  0  0  0  0  0
   27.5678  -16.4710  -15.4316 C   0  0  0  0  0  0  0  0  0  0  0  0
   28.2213  -15.3942  -15.9992 C   0  0  0  0  0  0  0  0  0  0  0  0
   28.7936  -15.5264  -17.2449 C   0  0  0  0  0  0  0  0  0  0  0  0
   28.6963  -16.7282  -17.8859 C   0  0  0  0  0  0  0  0  0  0  0  0
   28.0443  -17.7898  -17.3107 C   0  0  0  0  0  0  0  0  0  0  0  0
   26.8704  -20.5731  -13.7067 C   0  0  0  0  0  0  0  0  0  0  0  0
   26.7806  -21.7842  -13.9936 O   0  0  0  0  0  0  0  0  0  0  0  0
   27.2999  -20.2490   -8.3228 C   0  0  0  0  0  0  0  0  0  0  0  0
   27.0927  -20.6695   -9.7896 C   0  0  0  0  0  0  0  0  0  0  0  0
   25.6665  -20.5000  -10.1995 C   0  0  2  0  0  0  0  0  0  0  0  0
   24.6514  -20.9033   -9.1786 C   0  0  0  0  0  0  0  0  0  0  0  0
   25.3344  -20.6088  -11.6303 C   0  0  2  0  0  0  0  0  0  0  0  0
   26.2420  -20.0270  -12.5903 N   0  0  0  0  0  0  0  0  0  0  0  0
   23.9735  -20.3809  -12.0769 C   0  0  0  0  0  0  0  0  0  0  0  0
   23.4625  -19.1968  -12.0309 O   0  0  0  0  0  0  0  0  0  0  0  0
   23.0792  -21.3521  -12.5938 N   0  0  0  0  0  0  0  0  0  0  0  0
   21.7236  -21.0193  -13.0476 C   0  0  1  0  0  0  0  0  0  0  0  0
   21.5446  -21.3830  -14.4804 C   0  0  0  0  0  0  0  0  0  0  0  0
   22.1804  -22.7074  -14.7766 C   0  0  0  0  0  0  0  0  0  0  0  0
   21.2696  -23.5756  -15.5947 C   0  0  0  0  0  0  0  0  0  0  0  0
   20.0911  -23.2015  -15.8014 O   0  0  0  0  0  0  0  0  0  0  0  0
   20.7038  -21.6497  -12.2106 C   0  0  0  0  0  0  0  0  0  0  0  0
   20.8678  -22.4720  -11.3024 O   0  0  0  0  0  0  0  0  0  0  0  0
   21.7954  -24.7595  -16.0807 O   0  0  0  0  0  0  0  0  0  0  0  0
   19.3638  -21.2833  -12.4585 O   0  0  0  0  0  0  0  0  0  0  0  0
  2  1  1  6
  2  3  1  0
  4  3  1  0
  5  4  2  0
  6  7  2  0
  6  5  1  0
  7  8  1  0
  8  9  2  0
  9  4  1  0
 10  2  1  0
 11 10  2  0
 12 13  1  0
 13 14  1  0
 14 15  1  1
 16 14  1  0
 16 17  1  6
 17 10  1  0
 18 16  1  0
 19 18  2  0
 20 18  1  0
 21 22  1  6
 21 20  1  0
 23 22  1  0
 24 25  2  0
 24 23  1  0
 26 21  1  0
 26 29  1  0
 27 26  2  0
 28 24  1  0
M  END
$$$$
