FIE.pdb
     RDKit          3D

 29 29  0  0  1  0  0  0  0  0999 V2000
   26.5611  -18.3364   -7.7823 N   0  0  0  0  0  0  0  0  0  0  0  0
   26.8763  -19.6810   -8.1558 C   0  0  1  0  0  0  0  0  0  0  0  0
   26.6348  -20.6132   -6.9876 C   0  0  0  0  0  0  0  0  0  0  0  0
   27.5220  -20.3105   -5.8649 C   0  0  0  0  0  0  0  0  0  0  0  0
   28.8812  -20.5344   -5.9039 C   0  0  0  0  0  0  0  0  0  0  0  0
   29.7178  -20.2502   -4.8418 C   0  0  0  0  0  0  0  0  0  0  0  0
   29.1911  -19.7199   -3.6850 C   0  0  0  0  0  0  0  0  0  0  0  0
   27.8465  -19.4896   -3.6233 C   0  0  0  0  0  0  0  0  0  0  0  0
   27.0268  -19.7764   -4.6857 C   0  0  0  0  0  0  0  0  0  0  0  0
   26.0433  -20.1471   -9.3431 C   0  0  0  0  0  0  0  0  0  0  0  0
   24.8141  -19.9331   -9.3260 O   0  0  0  0  0  0  0  0  0  0  0  0
   29.8800  -20.9538  -11.4356 C   0  0  0  0  0  0  0  0  0  0  0  0
   28.9511  -19.9947  -12.2027 C   0  0  0  0  0  0  0  0  0  0  0  0
   27.7233  -20.7016  -12.6756 C   0  0  2  0  0  0  0  0  0  0  0  0
   27.5773  -20.8147  -14.1593 C   0  0  0  0  0  0  0  0  0  0  0  0
   26.5163  -20.6421  -11.8337 C   0  0  2  0  0  0  0  0  0  0  0  0
   26.6687  -20.7937  -10.4062 N   0  0  0  0  0  0  0  0  0  0  0  0
   25.3089  -21.3295  -12.2497 C   0  0  0  0  0  0  0  0  0  0  0  0
   25.2396  -22.6170  -12.1922 O   0  0  0  0  0  0  0  0  0  0  0  0
   24.1200  -20.7305  -12.7373 N   0  0  0  0  0  0  0  0  0  0  0  0
   22.9271  -21.5096  -13.0902 C   0  0  1  0  0  0  0  0  0  0  0  0
   21.6904  -20.7166  -12.8474 C   0  0  0  0  0  0  0  0  0  0  0  0
   20.4693  -21.5219  -13.1738 C   0  0  0  0  0  0  0  0  0  0  0  0
   19.2161  -20.7456  -12.8918 C   0  0  0  0  0  0  0  0  0  0  0  0
   19.3078  -19.5745  -12.4542 O   0  0  0  0  0  0  0  0  0  0  0  0
   22.9847  -21.9903  -14.4700 C   0  0  0  0  0  0  0  0  0  0  0  0
   22.5039  -23.0305  -14.9332 O   0  0  0  0  0  0  0  0  0  0  0  0
   18.0119  -21.3815  -13.1365 O   0  0  0  0  0  0  0  0  0  0  0  0
   23.6694  -21.1764  -15.3975 O   0  0  0  0  0  0  0  0  0  0  0  0
  2  1  1  1
  2  3  1  0
  4  3  1  0
  5  4  2  0
  6  7  2  0
  6  5  1  0
  7  8  1  0
  8  9  2  0
  9  4  1  0
 10  2  1  0
 11 10  2  0
 12 13  1  0
 13 14  1  0
 14 15  1  6
 16 14  1  0
 16 17  1  1
 17 10  1  0
 18 16  1  0
 19 18  2  0
 20 18  1  0
 21 22  1  6
 21 20  1  0
 23 22  1  0
 24 25  2  0
 24 23  1  0
 26 21  1  0
 26 29  1  0
 27 26  2  0
 28 24  1  0
M  END
$$$$
