FIE.pdb
     RDKit          3D

 29 29  0  0  1  0  0  0  0  0999 V2000
   27.0520  -18.4075   -7.7879 N   0  0  0  0  0  0  0  0  0  0  0  0
   27.1598  -19.8022   -8.0878 C   0  0  1  0  0  0  0  0  0  0  0  0
   26.8589  -20.6226   -6.8516 C   0  0  0  0  0  0  0  0  0  0  0  0
   27.7949  -20.3261   -5.7675 C   0  0  0  0  0  0  0  0  0  0  0  0
   27.5916  -19.3081   -4.8611 C   0  0  0  0  0  0  0  0  0  0  0  0
   28.4778  -19.0274   -3.8390 C   0  0  0  0  0  0  0  0  0  0  0  0
   29.6195  -19.7856   -3.7023 C   0  0  0  0  0  0  0  0  0  0  0  0
   29.8420  -20.7998   -4.5891 C   0  0  0  0  0  0  0  0  0  0  0  0
   28.9535  -21.0679   -5.5999 C   0  0  0  0  0  0  0  0  0  0  0  0
   26.2064  -20.2155   -9.2019 C   0  0  0  0  0  0  0  0  0  0  0  0
   25.0052  -19.8917   -9.1053 O   0  0  0  0  0  0  0  0  0  0  0  0
   30.0409  -21.1983  -11.9539 C   0  0  0  0  0  0  0  0  0  0  0  0
   28.9070  -20.1918  -12.2230 C   0  0  0  0  0  0  0  0  0  0  0  0
   27.6456  -20.8947  -12.6047 C   0  0  2  0  0  0  0  0  0  0  0  0
   27.4238  -21.0662  -14.0733 C   0  0  0  0  0  0  0  0  0  0  0  0
   26.4834  -20.7783  -11.7076 C   0  0  2  0  0  0  0  0  0  0  0  0
   26.6950  -20.9367  -10.2884 N   0  0  0  0  0  0  0  0  0  0  0  0
   25.2269  -21.4080  -12.0653 C   0  0  0  0  0  0  0  0  0  0  0  0
   25.0617  -22.6764  -11.8936 O   0  0  0  0  0  0  0  0  0  0  0  0
   24.0846  -20.7677  -12.6088 N   0  0  0  0  0  0  0  0  0  0  0  0
   22.8284  -21.4792  -12.8742 C   0  0  1  0  0  0  0  0  0  0  0  0
   21.6578  -20.6122  -12.5654 C   0  0  0  0  0  0  0  0  0  0  0  0
   20.3782  -21.3829  -12.6871 C   0  0  0  0  0  0  0  0  0  0  0  0
   19.1926  -20.5199  -12.3672 C   0  0  0  0  0  0  0  0  0  0  0  0
   19.3673  -19.2982  -12.1468 O   0  0  0  0  0  0  0  0  0  0  0  0
   22.7698  -21.9775  -14.2476 C   0  0  0  0  0  0  0  0  0  0  0  0
   23.2671  -21.4737  -15.2609 O   0  0  0  0  0  0  0  0  0  0  0  0
   17.9544  -21.1364  -12.3340 O   0  0  0  0  0  0  0  0  0  0  0  0
   22.0626  -23.1807  -14.4566 O   0  0  0  0  0  0  0  0  0  0  0  0
  2  1  1  1
  2  3  1  0
  4  3  1  0
  5  4  2  0
  6  7  2  0
  6  5  1  0
  7  8  1  0
  8  9  2  0
  9  4  1  0
 10  2  1  0
 11 10  2  0
 12 13  1  0
 13 14  1  0
 14 15  1  6
 16 14  1  0
 16 17  1  1
 17 10  1  0
 18 16  1  0
 19 18  2  0
 20 18  1  0
 21 22  1  6
 21 20  1  0
 23 22  1  0
 24 25  2  0
 24 23  1  0
 26 21  1  0
 26 29  1  0
 27 26  2  0
 28 24  1  0
M  END
$$$$
