FIE.pdb
     RDKit          3D

 29 29  0  0  1  0  0  0  0  0999 V2000
   27.6745  -18.8806  -16.7449 N   0  0  0  0  0  0  0  0  0  0  0  0
   26.9800  -18.5033  -15.5523 C   0  0  1  0  0  0  0  0  0  0  0  0
   25.8404  -17.5660  -15.8910 C   0  0  0  0  0  0  0  0  0  0  0  0
   26.3301  -16.2601  -16.3313 C   0  0  0  0  0  0  0  0  0  0  0  0
   26.3766  -15.8866  -17.6570 C   0  0  0  0  0  0  0  0  0  0  0  0
   26.8416  -14.6535  -18.0718 C   0  0  0  0  0  0  0  0  0  0  0  0
   27.2822  -13.7437  -17.1363 C   0  0  0  0  0  0  0  0  0  0  0  0
   27.2456  -14.0920  -15.8165 C   0  0  0  0  0  0  0  0  0  0  0  0
   26.7812  -15.3202  -15.4181 C   0  0  0  0  0  0  0  0  0  0  0  0
   26.4237  -19.7152  -14.8157 C   0  0  0  0  0  0  0  0  0  0  0  0
   26.1189  -20.7257  -15.4814 O   0  0  0  0  0  0  0  0  0  0  0  0
   28.7492  -21.4273  -10.1843 C   0  0  0  0  0  0  0  0  0  0  0  0
   28.0164  -21.2771  -11.5303 C   0  0  0  0  0  0  0  0  0  0  0  0
   26.5677  -20.9792  -11.3217 C   0  0  2  0  0  0  0  0  0  0  0  0
   25.9282  -21.6751  -10.1632 C   0  0  0  0  0  0  0  0  0  0  0  0
   25.7504  -20.6334  -12.4971 C   0  0  2  0  0  0  0  0  0  0  0  0
   26.2710  -19.6647  -13.4324 N   0  0  0  0  0  0  0  0  0  0  0  0
   24.3237  -20.4193  -12.3491 C   0  0  0  0  0  0  0  0  0  0  0  0
   23.8825  -19.3912  -11.7057 O   0  0  0  0  0  0  0  0  0  0  0  0
   23.2877  -21.2437  -12.8564 N   0  0  0  0  0  0  0  0  0  0  0  0
   21.8773  -20.8372  -12.8517 C   0  0  1  0  0  0  0  0  0  0  0  0
   21.1964  -21.2865  -14.0974 C   0  0  0  0  0  0  0  0  0  0  0  0
   19.7560  -20.8725  -14.0954 C   0  0  0  0  0  0  0  0  0  0  0  0
   19.0703  -21.2883  -15.3641 C   0  0  0  0  0  0  0  0  0  0  0  0
   19.7346  -21.8643  -16.2577 O   0  0  0  0  0  0  0  0  0  0  0  0
   21.1791  -21.3235  -11.6625 C   0  0  0  0  0  0  0  0  0  0  0  0
   20.0588  -20.9994  -11.2531 O   0  0  0  0  0  0  0  0  0  0  0  0
   17.7203  -21.0055  -15.4732 O   0  0  0  0  0  0  0  0  0  0  0  0
   21.8551  -22.2812  -10.8768 O   0  0  0  0  0  0  0  0  0  0  0  0
  2  1  1  6
  2  3  1  0
  4  3  1  0
  5  4  2  0
  6  7  2  0
  6  5  1  0
  7  8  1  0
  8  9  2  0
  9  4  1  0
 10  2  1  0
 11 10  2  0
 12 13  1  0
 13 14  1  0
 14 15  1  6
 16 14  1  0
 16 17  1  1
 17 10  1  0
 18 16  1  0
 19 18  2  0
 20 18  1  0
 21 22  1  6
 21 20  1  0
 23 22  1  0
 24 25  2  0
 24 23  1  0
 26 21  1  0
 26 29  1  0
 27 26  2  0
 28 24  1  0
M  END
$$$$
