FCA.pdb
     RDKit          3D

 23 23  0  0  1  0  0  0  0  0999 V2000
   20.9808  -19.3502  -14.2951 N   0  0  0  0  0  0  0  0  0  0  0  0
   20.6660  -20.5146  -15.0963 C   0  0  1  0  0  0  0  0  0  0  0  0
   21.9425  -20.9891  -15.7489 C   0  0  0  0  0  0  0  0  0  0  0  0
   22.2724  -20.0493  -16.8521 C   0  0  0  0  0  0  0  0  0  0  0  0
   21.5122  -19.9580  -17.9996 C   0  0  0  0  0  0  0  0  0  0  0  0
   21.8220  -19.0908  -19.0107 C   0  0  0  0  0  0  0  0  0  0  0  0
   22.9334  -18.2569  -18.9148 C   0  0  0  0  0  0  0  0  0  0  0  0
   23.7175  -18.3290  -17.7672 C   0  0  0  0  0  0  0  0  0  0  0  0
   23.3778  -19.2136  -16.7670 C   0  0  0  0  0  0  0  0  0  0  0  0
   20.0800  -21.5362  -14.1983 C   0  0  0  0  0  0  0  0  0  0  0  0
   20.1923  -22.7573  -14.4594 O   0  0  0  0  0  0  0  0  0  0  0  0
   19.3675  -21.1951  -13.0068 N   0  0  0  0  0  0  0  0  0  0  0  0
   18.6996  -22.1485  -12.1737 C   0  0  1  0  0  0  0  0  0  0  0  0
   18.5233  -21.5968  -10.7922 C   0  0  0  0  0  0  0  0  0  0  0  0
   18.1827  -19.8356  -10.7486 S   0  0  0  0  0  0  0  0  0  0  0  0
   17.4349  -22.6496  -12.7692 C   0  0  0  0  0  0  0  0  0  0  0  0
   16.5707  -21.8535  -13.2209 O   0  0  0  0  0  0  0  0  0  0  0  0
   15.9604  -25.9319  -13.9233 C   0  0  0  0  0  0  0  0  0  0  0  0
   15.9368  -24.4806  -13.5115 C   0  0  2  0  0  0  0  0  0  0  0  0
   17.1331  -24.0537  -12.8608 N   0  0  0  0  0  0  0  0  0  0  0  0
   14.7828  -24.2792  -12.6275 C   0  0  0  0  0  0  0  0  0  0  0  0
   14.8881  -24.0705  -11.3840 O   0  0  0  0  0  0  0  0  0  0  0  0
   13.5086  -24.3171  -13.1683 O   0  0  0  0  0  0  0  0  0  0  0  0
  2  1  1  1
  2 10  1  0
  3  2  1  0
  4  3  1  0
  4  5  2  0
  6  5  1  0
  7  6  2  0
  8  9  2  0
  8  7  1  0
  9  4  1  0
 10 11  2  0
 12 10  1  0
 12 13  1  0
 13 16  1  0
 13 14  1  1
 15 14  1  0
 16 17  2  0
 19 18  1  1
 19 21  1  0
 20 19  1  0
 20 16  1  0
 21 22  2  0
 21 23  1  0
M  END
$$$$
