FCA.pdb
     RDKit          3D

 23 23  0  0  1  0  0  0  0  0999 V2000
   27.1640  -21.7981  -11.5785 N   0  0  0  0  0  0  0  0  0  0  0  0
   25.9416  -21.0222  -11.5536 C   0  0  1  0  0  0  0  0  0  0  0  0
   26.2154  -19.7472  -10.7921 C   0  0  0  0  0  0  0  0  0  0  0  0
   26.1697  -20.0596   -9.3397 C   0  0  0  0  0  0  0  0  0  0  0  0
   25.0844  -20.6710   -8.7472 C   0  0  0  0  0  0  0  0  0  0  0  0
   25.0495  -20.9554   -7.4100 C   0  0  0  0  0  0  0  0  0  0  0  0
   26.1260  -20.6322   -6.5875 C   0  0  0  0  0  0  0  0  0  0  0  0
   27.2340  -20.0146   -7.1602 C   0  0  0  0  0  0  0  0  0  0  0  0
   27.2372  -19.7419   -8.5107 C   0  0  0  0  0  0  0  0  0  0  0  0
   25.5410  -20.7648  -12.9560 C   0  0  0  0  0  0  0  0  0  0  0  0
   26.4060  -20.5758  -13.8438 O   0  0  0  0  0  0  0  0  0  0  0  0
   24.1732  -20.7179  -13.3689 N   0  0  0  0  0  0  0  0  0  0  0  0
   23.7530  -20.5854  -14.7309 C   0  0  1  0  0  0  0  0  0  0  0  0
   23.5597  -21.9366  -15.3480 C   0  0  0  0  0  0  0  0  0  0  0  0
   23.1086  -23.2164  -14.1739 S   0  0  0  0  0  0  0  0  0  0  0  0
   22.5736  -19.6968  -14.8873 C   0  0  0  0  0  0  0  0  0  0  0  0
   21.5625  -19.8251  -14.1485 O   0  0  0  0  0  0  0  0  0  0  0  0
   21.6186  -16.5554  -16.7758 C   0  0  0  0  0  0  0  0  0  0  0  0
   21.3875  -17.7939  -15.9455 C   0  0  2  0  0  0  0  0  0  0  0  0
   22.5237  -18.6548  -15.8788 N   0  0  0  0  0  0  0  0  0  0  0  0
   20.2424  -18.5138  -16.5149 C   0  0  0  0  0  0  0  0  0  0  0  0
   19.0526  -18.0879  -16.4516 O   0  0  0  0  0  0  0  0  0  0  0  0
   20.4607  -19.7212  -17.1566 O   0  0  0  0  0  0  0  0  0  0  0  0
  2  1  1  6
  2 10  1  0
  3  2  1  0
  4  3  1  0
  4  5  2  0
  6  5  1  0
  7  6  2  0
  8  9  2  0
  8  7  1  0
  9  4  1  0
 10 11  2  0
 12 10  1  0
 12 13  1  0
 13 16  1  0
 13 14  1  1
 15 14  1  0
 16 17  2  0
 19 18  1  6
 19 21  1  0
 20 19  1  0
 20 16  1  0
 21 22  2  0
 21 23  1  0
M  END
$$$$
