FCA.pdb
     RDKit          3D

 23 23  0  0  1  0  0  0  0  0999 V2000
   24.9269   -9.7861  -18.6691 N   0  0  0  0  0  0  0  0  0  0  0  0
   24.4490   -9.1734  -17.4472 C   0  0  1  0  0  0  0  0  0  0  0  0
   25.5581   -8.3096  -16.8955 C   0  0  0  0  0  0  0  0  0  0  0  0
   26.7105   -9.1909  -16.5723 C   0  0  0  0  0  0  0  0  0  0  0  0
   27.9293   -9.0800  -17.2086 C   0  0  0  0  0  0  0  0  0  0  0  0
   28.9853   -9.8945  -16.9058 C   0  0  0  0  0  0  0  0  0  0  0  0
   28.8642  -10.8798  -15.9289 C   0  0  0  0  0  0  0  0  0  0  0  0
   27.6447  -11.0130  -15.2714 C   0  0  0  0  0  0  0  0  0  0  0  0
   26.6007  -10.1762  -15.6003 C   0  0  0  0  0  0  0  0  0  0  0  0
   23.2372   -8.3891  -17.7787 C   0  0  0  0  0  0  0  0  0  0  0  0
   23.1848   -7.7065  -18.8291 O   0  0  0  0  0  0  0  0  0  0  0  0
   22.0819   -8.3662  -16.9372 N   0  0  0  0  0  0  0  0  0  0  0  0
   20.8751   -7.6647  -17.2546 C   0  0  1  0  0  0  0  0  0  0  0  0
   19.6920   -8.3809  -16.6789 C   0  0  0  0  0  0  0  0  0  0  0  0
   19.4736  -10.0482  -17.3054 S   0  0  0  0  0  0  0  0  0  0  0  0
   20.9274   -6.2282  -16.8821 C   0  0  0  0  0  0  0  0  0  0  0  0
   21.3396   -5.8666  -15.7490 O   0  0  0  0  0  0  0  0  0  0  0  0
   20.6157   -2.8622  -18.5735 C   0  0  0  0  0  0  0  0  0  0  0  0
   20.6737   -3.8184  -17.4078 C   0  0  2  0  0  0  0  0  0  0  0  0
   20.5150   -5.1858  -17.7846 N   0  0  0  0  0  0  0  0  0  0  0  0
   19.6268   -3.4338  -16.4539 C   0  0  0  0  0  0  0  0  0  0  0  0
   19.6465   -2.3508  -15.8000 O   0  0  0  0  0  0  0  0  0  0  0  0
   18.5578   -4.2899  -16.2495 O   0  0  0  0  0  0  0  0  0  0  0  0
  2  1  1  6
  2 10  1  0
  3  2  1  0
  4  3  1  0
  4  5  2  0
  6  5  1  0
  7  6  2  0
  8  9  2  0
  8  7  1  0
  9  4  1  0
 10 11  2  0
 12 10  1  0
 12 13  1  0
 13 16  1  0
 13 14  1  1
 15 14  1  0
 16 17  2  0
 19 18  1  6
 19 21  1  0
 20 19  1  0
 20 16  1  0
 21 22  2  0
 21 23  1  0
M  END
$$$$
