FCA.pdb
     RDKit          3D

 23 23  0  0  1  0  0  0  0  0999 V2000
   28.6376  -36.1037   -5.3048 N   0  0  0  0  0  0  0  0  0  0  0  0
   28.7611  -35.3051   -4.1032 C   0  0  1  0  0  0  0  0  0  0  0  0
   29.4234  -34.0007   -4.4778 C   0  0  0  0  0  0  0  0  0  0  0  0
   30.8658  -34.2685   -4.7162 C   0  0  0  0  0  0  0  0  0  0  0  0
   31.3905  -34.4278   -5.9820 C   0  0  0  0  0  0  0  0  0  0  0  0
   32.7190  -34.6741   -6.1935 C   0  0  0  0  0  0  0  0  0  0  0  0
   33.6018  -34.7741   -5.1209 C   0  0  0  0  0  0  0  0  0  0  0  0
   33.0982  -34.6174   -3.8329 C   0  0  0  0  0  0  0  0  0  0  0  0
   31.7545  -34.3702   -3.6543 C   0  0  0  0  0  0  0  0  0  0  0  0
   27.4015  -35.1071   -3.5503 C   0  0  0  0  0  0  0  0  0  0  0  0
   26.3944  -35.1593   -4.2953 O   0  0  0  0  0  0  0  0  0  0  0  0
   27.1649  -34.8505   -2.1641 N   0  0  0  0  0  0  0  0  0  0  0  0
   25.8624  -34.7853   -1.5738 C   0  0  1  0  0  0  0  0  0  0  0  0
   25.9624  -34.8929   -0.0830 C   0  0  0  0  0  0  0  0  0  0  0  0
   27.2887  -33.9174    0.6308 S   0  0  0  0  0  0  0  0  0  0  0  0
   25.0831  -33.6042   -2.0240 C   0  0  0  0  0  0  0  0  0  0  0  0
   25.6356  -32.4841   -2.1809 O   0  0  0  0  0  0  0  0  0  0  0  0
   21.5800  -32.7699   -3.2137 C   0  0  0  0  0  0  0  0  0  0  0  0
   22.9641  -32.4957   -2.6792 C   0  0  2  0  0  0  0  0  0  0  0  0
   23.6727  -33.6756   -2.3016 N   0  0  0  0  0  0  0  0  0  0  0  0
   22.8349  -31.5952   -1.5276 C   0  0  0  0  0  0  0  0  0  0  0  0
   23.1384  -31.9304   -0.3459 O   0  0  0  0  0  0  0  0  0  0  0  0
   22.3580  -30.3111   -1.7302 O   0  0  0  0  0  0  0  0  0  0  0  0
  2  1  1  6
  2 10  1  0
  3  2  1  0
  4  3  1  0
  4  5  2  0
  6  5  1  0
  7  6  2  0
  8  9  2  0
  8  7  1  0
  9  4  1  0
 10 11  2  0
 12 10  1  0
 12 13  1  0
 13 16  1  0
 13 14  1  1
 15 14  1  0
 16 17  2  0
 19 18  1  1
 19 21  1  0
 20 19  1  0
 20 16  1  0
 21 22  2  0
 21 23  1  0
M  END
$$$$
