FCA.pdb
     RDKit          3D

 23 23  0  0  1  0  0  0  0  0999 V2000
   26.2240  -21.5428  -16.0011 N   0  0  0  0  0  0  0  0  0  0  0  0
   25.1388  -20.6381  -15.6838 C   0  0  1  0  0  0  0  0  0  0  0  0
   24.3726  -20.3666  -16.9565 C   0  0  0  0  0  0  0  0  0  0  0  0
   25.1583  -19.4021  -17.7699 C   0  0  0  0  0  0  0  0  0  0  0  0
   25.1479  -18.0448  -17.5243 C   0  0  0  0  0  0  0  0  0  0  0  0
   25.8735  -17.1633  -18.2771 C   0  0  0  0  0  0  0  0  0  0  0  0
   26.6604  -17.6132  -19.3346 C   0  0  0  0  0  0  0  0  0  0  0  0
   26.6887  -18.9784  -19.6039 C   0  0  0  0  0  0  0  0  0  0  0  0
   25.9459  -19.8397  -18.8262 C   0  0  0  0  0  0  0  0  0  0  0  0
   24.2993  -21.2845  -14.6490 C   0  0  0  0  0  0  0  0  0  0  0  0
   23.8665  -22.4498  -14.8128 O   0  0  0  0  0  0  0  0  0  0  0  0
   23.9420  -20.6301  -13.4294 N   0  0  0  0  0  0  0  0  0  0  0  0
   23.1344  -21.2261  -12.4087 C   0  0  1  0  0  0  0  0  0  0  0  0
   23.5408  -20.7146  -11.0607 C   0  0  0  0  0  0  0  0  0  0  0  0
   25.2037  -21.1822  -10.5747 S   0  0  0  0  0  0  0  0  0  0  0  0
   21.6792  -21.0906  -12.6714 C   0  0  0  0  0  0  0  0  0  0  0  0
   21.1704  -19.9712  -12.9414 O   0  0  0  0  0  0  0  0  0  0  0  0
   18.7488  -23.3741  -13.3736 C   0  0  0  0  0  0  0  0  0  0  0  0
   19.4342  -22.0647  -13.0700 C   0  0  2  0  0  0  0  0  0  0  0  0
   20.7840  -22.2167  -12.6320 N   0  0  0  0  0  0  0  0  0  0  0  0
   18.6473  -21.3684  -12.0454 C   0  0  0  0  0  0  0  0  0  0  0  0
   18.9868  -21.3117  -10.8278 O   0  0  0  0  0  0  0  0  0  0  0  0
   17.4717  -20.7374  -12.4160 O   0  0  0  0  0  0  0  0  0  0  0  0
  2  1  1  6
  2 10  1  0
  3  2  1  0
  4  3  1  0
  4  5  2  0
  6  5  1  0
  7  6  2  0
  8  9  2  0
  8  7  1  0
  9  4  1  0
 10 11  2  0
 12 10  1  0
 12 13  1  0
 13 16  1  0
 13 14  1  1
 15 14  1  0
 16 17  2  0
 19 18  1  1
 19 21  1  0
 20 19  1  0
 20 16  1  0
 21 22  2  0
 21 23  1  0
M  END
$$$$
