FCA.pdb
     RDKit          3D

 23 23  0  0  1  0  0  0  0  0999 V2000
   22.4135  -10.5428  -15.0490 N   0  0  0  0  0  0  0  0  0  0  0  0
   22.9447   -9.2154  -15.2787 C   0  0  1  0  0  0  0  0  0  0  0  0
   23.6876   -9.2330  -16.5934 C   0  0  0  0  0  0  0  0  0  0  0  0
   24.9041  -10.0699  -16.4235 C   0  0  0  0  0  0  0  0  0  0  0  0
   24.9907  -11.3582  -16.9088 C   0  0  0  0  0  0  0  0  0  0  0  0
   26.1135  -12.1224  -16.7487 C   0  0  0  0  0  0  0  0  0  0  0  0
   27.2258  -11.6178  -16.0794 C   0  0  0  0  0  0  0  0  0  0  0  0
   27.1647  -10.3203  -15.5796 C   0  0  0  0  0  0  0  0  0  0  0  0
   26.0184   -9.5769  -15.7580 C   0  0  0  0  0  0  0  0  0  0  0  0
   21.8060   -8.2684  -15.2888 C   0  0  0  0  0  0  0  0  0  0  0  0
   20.6688   -8.6396  -15.6642 O   0  0  0  0  0  0  0  0  0  0  0  0
   21.9361   -6.9050  -14.8793 N   0  0  0  0  0  0  0  0  0  0  0  0
   20.8540   -5.9680  -14.8637 C   0  0  1  0  0  0  0  0  0  0  0  0
   20.8690   -5.1793  -13.5902 C   0  0  0  0  0  0  0  0  0  0  0  0
   22.4485   -4.4082  -13.2290 S   0  0  0  0  0  0  0  0  0  0  0  0
   20.8108   -5.1158  -16.0790 C   0  0  0  0  0  0  0  0  0  0  0  0
   21.8702   -4.7104  -16.6248 O   0  0  0  0  0  0  0  0  0  0  0  0
   18.2833   -3.8561  -18.5974 C   0  0  0  0  0  0  0  0  0  0  0  0
   19.5909   -3.8743  -17.8449 C   0  0  2  0  0  0  0  0  0  0  0  0
   19.5718   -4.7128  -16.6902 N   0  0  0  0  0  0  0  0  0  0  0  0
   19.9117   -2.4946  -17.4607 C   0  0  0  0  0  0  0  0  0  0  0  0
   20.0906   -1.5637  -18.2987 O   0  0  0  0  0  0  0  0  0  0  0  0
   20.0275   -2.1821  -16.1167 O   0  0  0  0  0  0  0  0  0  0  0  0
  2  1  1  6
  2 10  1  0
  3  2  1  0
  4  3  1  0
  4  5  2  0
  6  5  1  0
  7  6  2  0
  8  9  2  0
  8  7  1  0
  9  4  1  0
 10 11  2  0
 12 10  1  0
 12 13  1  0
 13 16  1  0
 13 14  1  1
 15 14  1  0
 16 17  2  0
 19 18  1  1
 19 21  1  0
 20 19  1  0
 20 16  1  0
 21 22  2  0
 21 23  1  0
M  END
$$$$
