FCA.pdb
     RDKit          3D

 23 23  0  0  1  0  0  0  0  0999 V2000
   27.2619  -31.0592    8.1219 N   0  0  0  0  0  0  0  0  0  0  0  0
   27.5921  -29.6758    7.8501 C   0  0  1  0  0  0  0  0  0  0  0  0
   26.3005  -28.8985    7.7599 C   0  0  0  0  0  0  0  0  0  0  0  0
   25.6347  -29.2590    6.4809 C   0  0  0  0  0  0  0  0  0  0  0  0
   24.4487  -29.9620    6.4357 C   0  0  0  0  0  0  0  0  0  0  0  0
   23.8417  -30.2903    5.2549 C   0  0  0  0  0  0  0  0  0  0  0  0
   24.4096  -29.9200    4.0382 C   0  0  0  0  0  0  0  0  0  0  0  0
   25.6064  -29.2098    4.0557 C   0  0  0  0  0  0  0  0  0  0  0  0
   26.1919  -28.8950    5.2625 C   0  0  0  0  0  0  0  0  0  0  0  0
   28.4625  -29.1948    8.9477 C   0  0  0  0  0  0  0  0  0  0  0  0
   28.5121  -29.8082   10.0401 O   0  0  0  0  0  0  0  0  0  0  0  0
   29.2789  -28.0277    8.8265 N   0  0  0  0  0  0  0  0  0  0  0  0
   30.1331  -27.5378    9.8656 C   0  0  1  0  0  0  0  0  0  0  0  0
   31.4926  -27.2292    9.3174 C   0  0  0  0  0  0  0  0  0  0  0  0
   31.4885  -26.0065    8.0040 S   0  0  0  0  0  0  0  0  0  0  0  0
   29.5353  -26.4060   10.6186 C   0  0  0  0  0  0  0  0  0  0  0  0
   28.6893  -25.6444   10.0812 O   0  0  0  0  0  0  0  0  0  0  0  0
   29.4326  -25.0665   14.1555 C   0  0  0  0  0  0  0  0  0  0  0  0
   29.2906  -25.0119   12.6543 C   0  0  2  0  0  0  0  0  0  0  0  0
   29.8865  -26.1227   11.9852 N   0  0  0  0  0  0  0  0  0  0  0  0
   29.8952  -23.7588   12.1874 C   0  0  0  0  0  0  0  0  0  0  0  0
   30.9348  -23.7148   11.4675 O   0  0  0  0  0  0  0  0  0  0  0  0
   29.3087  -22.5566   12.5454 O   0  0  0  0  0  0  0  0  0  0  0  0
  2  1  1  1
  2 10  1  0
  3  2  1  0
  4  3  1  0
  4  5  2  0
  6  5  1  0
  7  6  2  0
  8  9  2  0
  8  7  1  0
  9  4  1  0
 10 11  2  0
 12 10  1  0
 12 13  1  0
 13 16  1  0
 13 14  1  6
 15 14  1  0
 16 17  2  0
 19 18  1  1
 19 21  1  0
 20 19  1  0
 20 16  1  0
 21 22  2  0
 21 23  1  0
M  END
$$$$
