FCA.pdb
     RDKit          3D

 23 23  0  0  1  0  0  0  0  0999 V2000
   19.0491   -9.7166  -13.5785 N   0  0  0  0  0  0  0  0  0  0  0  0
   19.9112   -9.1298  -14.5832 C   0  0  1  0  0  0  0  0  0  0  0  0
   19.1948   -9.2026  -15.9106 C   0  0  0  0  0  0  0  0  0  0  0  0
   19.2348  -10.6127  -16.3786 C   0  0  0  0  0  0  0  0  0  0  0  0
   20.4173  -11.2744  -16.6365 C   0  0  0  0  0  0  0  0  0  0  0  0
   20.4463  -12.5722  -17.0669 C   0  0  0  0  0  0  0  0  0  0  0  0
   19.2637  -13.2814  -17.2629 C   0  0  0  0  0  0  0  0  0  0  0  0
   18.0563  -12.6370  -17.0100 C   0  0  0  0  0  0  0  0  0  0  0  0
   18.0621  -11.3289  -16.5772 C   0  0  0  0  0  0  0  0  0  0  0  0
   20.1978   -7.7355  -14.1744 C   0  0  0  0  0  0  0  0  0  0  0  0
   19.5334   -7.1867  -13.2637 O   0  0  0  0  0  0  0  0  0  0  0  0
   21.2272   -6.9520  -14.7825 N   0  0  0  0  0  0  0  0  0  0  0  0
   21.4807   -5.5794  -14.4650 C   0  0  1  0  0  0  0  0  0  0  0  0
   22.8768   -5.2050  -14.8583 C   0  0  0  0  0  0  0  0  0  0  0  0
   23.3487   -3.5422  -14.3763 S   0  0  0  0  0  0  0  0  0  0  0  0
   20.4518   -4.6603  -15.0144 C   0  0  0  0  0  0  0  0  0  0  0  0
   20.3545   -3.4750  -14.6019 O   0  0  0  0  0  0  0  0  0  0  0  0
   18.0877   -4.5132  -17.9481 C   0  0  0  0  0  0  0  0  0  0  0  0
   18.6171   -4.1180  -16.5916 C   0  0  2  0  0  0  0  0  0  0  0  0
   19.5229   -5.0698  -16.0345 N   0  0  0  0  0  0  0  0  0  0  0  0
   17.4705   -3.9289  -15.6953 C   0  0  0  0  0  0  0  0  0  0  0  0
   17.0082   -4.8453  -14.9555 O   0  0  0  0  0  0  0  0  0  0  0  0
   16.8538   -2.6900  -15.6469 O   0  0  0  0  0  0  0  0  0  0  0  0
  2  1  1  1
  2 10  1  0
  3  2  1  0
  4  3  1  0
  4  5  2  0
  6  5  1  0
  7  6  2  0
  8  9  2  0
  8  7  1  0
  9  4  1  0
 10 11  2  0
 12 10  1  0
 12 13  1  0
 13 16  1  0
 13 14  1  6
 15 14  1  0
 16 17  2  0
 19 18  1  6
 19 21  1  0
 20 19  1  0
 20 16  1  0
 21 22  2  0
 21 23  1  0
M  END
$$$$
