FCA.pdb
     RDKit          3D

 23 23  0  0  1  0  0  0  0  0999 V2000
   21.6376  -11.0274  -21.3615 N   0  0  0  0  0  0  0  0  0  0  0  0
   21.6240  -10.9843  -19.9142 C   0  0  1  0  0  0  0  0  0  0  0  0
   22.9394  -11.5375  -19.4201 C   0  0  0  0  0  0  0  0  0  0  0  0
   22.9742  -12.9903  -19.7322 C   0  0  0  0  0  0  0  0  0  0  0  0
   22.4727  -13.9450  -18.8720 C   0  0  0  0  0  0  0  0  0  0  0  0
   22.5081  -15.2802  -19.1660 C   0  0  0  0  0  0  0  0  0  0  0  0
   23.0607  -15.7287  -20.3633 C   0  0  0  0  0  0  0  0  0  0  0  0
   23.5739  -14.7859  -21.2492 C   0  0  0  0  0  0  0  0  0  0  0  0
   23.5226  -13.4483  -20.9226 C   0  0  0  0  0  0  0  0  0  0  0  0
   21.4173   -9.5758  -19.5058 C   0  0  0  0  0  0  0  0  0  0  0  0
   21.8429   -8.6348  -20.2166 O   0  0  0  0  0  0  0  0  0  0  0  0
   20.7346   -9.2163  -18.3024 N   0  0  0  0  0  0  0  0  0  0  0  0
   20.4242   -7.8691  -17.9309 C   0  0  1  0  0  0  0  0  0  0  0  0
   18.9451   -7.6408  -17.9950 C   0  0  0  0  0  0  0  0  0  0  0  0
   18.3236   -6.5302  -16.7300 S   0  0  0  0  0  0  0  0  0  0  0  0
   21.0206   -7.4775  -16.6286 C   0  0  0  0  0  0  0  0  0  0  0  0
   20.9338   -8.2299  -15.6231 O   0  0  0  0  0  0  0  0  0  0  0  0
   23.0302   -4.6042  -15.1585 C   0  0  0  0  0  0  0  0  0  0  0  0
   22.2724   -5.9088  -15.1725 C   0  0  2  0  0  0  0  0  0  0  0  0
   21.7206   -6.2331  -16.4481 N   0  0  0  0  0  0  0  0  0  0  0  0
   21.2053   -5.8237  -14.1686 C   0  0  0  0  0  0  0  0  0  0  0  0
   20.0192   -5.4790  -14.4429 O   0  0  0  0  0  0  0  0  0  0  0  0
   21.4974   -6.1334  -12.8510 O   0  0  0  0  0  0  0  0  0  0  0  0
  2  1  1  6
  2 10  1  0
  3  2  1  0
  4  3  1  0
  4  5  2  0
  6  5  1  0
  7  6  2  0
  8  9  2  0
  8  7  1  0
  9  4  1  0
 10 11  2  0
 12 10  1  0
 12 13  1  0
 13 16  1  0
 13 14  1  1
 15 14  1  0
 16 17  2  0
 19 18  1  6
 19 21  1  0
 20 19  1  0
 20 16  1  0
 21 22  2  0
 21 23  1  0
M  END
$$$$
