FCA.pdb
     RDKit          3D

 23 23  0  0  1  0  0  0  0  0999 V2000
   17.4350   -8.8450  -15.8432 N   0  0  0  0  0  0  0  0  0  0  0  0
   18.3299   -7.8836  -16.4530 C   0  0  1  0  0  0  0  0  0  0  0  0
   17.5724   -7.1737  -17.5497 C   0  0  0  0  0  0  0  0  0  0  0  0
   17.3584   -8.1382  -18.6602 C   0  0  0  0  0  0  0  0  0  0  0  0
   16.1614   -8.7973  -18.8487 C   0  0  0  0  0  0  0  0  0  0  0  0
   15.9719   -9.6835  -19.8729 C   0  0  0  0  0  0  0  0  0  0  0  0
   16.9977   -9.9553  -20.7751 C   0  0  0  0  0  0  0  0  0  0  0  0
   18.2160   -9.3036  -20.6074 C   0  0  0  0  0  0  0  0  0  0  0  0
   18.3740   -8.4165  -19.5651 C   0  0  0  0  0  0  0  0  0  0  0  0
   18.7864   -6.9554  -15.3931 C   0  0  0  0  0  0  0  0  0  0  0  0
   18.0362   -6.6639  -14.4317 O   0  0  0  0  0  0  0  0  0  0  0  0
   20.0819   -6.3513  -15.4055 N   0  0  0  0  0  0  0  0  0  0  0  0
   20.5577   -5.4584  -14.3928 C   0  0  1  0  0  0  0  0  0  0  0  0
   21.9052   -5.8963  -13.9064 C   0  0  0  0  0  0  0  0  0  0  0  0
   22.7266   -4.6954  -12.8561 S   0  0  0  0  0  0  0  0  0  0  0  0
   20.5224   -4.0352  -14.8151 C   0  0  0  0  0  0  0  0  0  0  0  0
   21.1122   -3.6539  -15.8597 O   0  0  0  0  0  0  0  0  0  0  0  0
   18.7099   -0.8429  -13.9228 C   0  0  0  0  0  0  0  0  0  0  0  0
   19.8164   -1.6767  -14.5202 C   0  0  2  0  0  0  0  0  0  0  0  0
   19.8212   -3.0285  -14.0627 N   0  0  0  0  0  0  0  0  0  0  0  0
   21.0945   -1.0311  -14.1983 C   0  0  0  0  0  0  0  0  0  0  0  0
   22.0129   -1.5987  -13.5386 O   0  0  0  0  0  0  0  0  0  0  0  0
   21.3198    0.2644  -14.6321 O   0  0  0  0  0  0  0  0  0  0  0  0
  2  1  1  1
  2 10  1  0
  3  2  1  0
  4  3  1  0
  4  5  2  0
  6  5  1  0
  7  6  2  0
  8  9  2  0
  8  7  1  0
  9  4  1  0
 10 11  2  0
 12 10  1  0
 12 13  1  0
 13 16  1  0
 13 14  1  6
 15 14  1  0
 16 17  2  0
 19 18  1  1
 19 21  1  0
 20 19  1  0
 20 16  1  0
 21 22  2  0
 21 23  1  0
M  END
$$$$
