FCA.pdb
     RDKit          3D

 23 23  0  0  1  0  0  0  0  0999 V2000
   25.6007  -19.3222  -10.0861 N   0  0  0  0  0  0  0  0  0  0  0  0
   25.6944  -20.4934  -10.9324 C   0  0  1  0  0  0  0  0  0  0  0  0
   24.2933  -20.8949  -11.3275 C   0  0  0  0  0  0  0  0  0  0  0  0
   23.5411  -21.2215  -10.0879 C   0  0  0  0  0  0  0  0  0  0  0  0
   22.1648  -21.1603  -10.0187 C   0  0  0  0  0  0  0  0  0  0  0  0
   21.4794  -21.4623   -8.8744 C   0  0  0  0  0  0  0  0  0  0  0  0
   22.1586  -21.8481   -7.7213 C   0  0  0  0  0  0  0  0  0  0  0  0
   23.5480  -21.9180   -7.7641 C   0  0  0  0  0  0  0  0  0  0  0  0
   24.2081  -21.6071   -8.9329 C   0  0  0  0  0  0  0  0  0  0  0  0
   26.5294  -20.1394  -12.1032 C   0  0  0  0  0  0  0  0  0  0  0  0
   26.3214  -19.0796  -12.7401 O   0  0  0  0  0  0  0  0  0  0  0  0
   27.5983  -20.9690  -12.5645 N   0  0  0  0  0  0  0  0  0  0  0  0
   28.4727  -20.6207  -13.6431 C   0  0  1  0  0  0  0  0  0  0  0  0
   29.8808  -21.0151  -13.3177 C   0  0  0  0  0  0  0  0  0  0  0  0
   30.4201  -20.5088  -11.6828 S   0  0  0  0  0  0  0  0  0  0  0  0
   28.0077  -21.1406  -14.9540 C   0  0  0  0  0  0  0  0  0  0  0  0
   27.5437  -22.3058  -15.0619 O   0  0  0  0  0  0  0  0  0  0  0  0
   27.5871  -19.9116  -18.5251 C   0  0  0  0  0  0  0  0  0  0  0  0
   27.6028  -20.9041  -17.3888 C   0  0  2  0  0  0  0  0  0  0  0  0
   28.0618  -20.3508  -16.1559 N   0  0  0  0  0  0  0  0  0  0  0  0
   28.4553  -22.0315  -17.7837 C   0  0  0  0  0  0  0  0  0  0  0  0
   29.6997  -22.0738  -17.5589 O   0  0  0  0  0  0  0  0  0  0  0  0
   27.8819  -23.1100  -18.4359 O   0  0  0  0  0  0  0  0  0  0  0  0
  2  1  1  1
  2 10  1  0
  3  2  1  0
  4  3  1  0
  4  5  2  0
  6  5  1  0
  7  6  2  0
  8  9  2  0
  8  7  1  0
  9  4  1  0
 10 11  2  0
 12 10  1  0
 12 13  1  0
 13 16  1  0
 13 14  1  1
 15 14  1  0
 16 17  2  0
 19 18  1  6
 19 21  1  0
 20 19  1  0
 20 16  1  0
 21 22  2  0
 21 23  1  0
M  END
$$$$
