FCA.pdb
     RDKit          3D

 23 23  0  0  1  0  0  0  0  0999 V2000
   20.8020  -14.6214  -19.5886 N   0  0  0  0  0  0  0  0  0  0  0  0
   20.0774  -13.7877  -18.6522 C   0  0  1  0  0  0  0  0  0  0  0  0
   19.6341  -14.6584  -17.5008 C   0  0  0  0  0  0  0  0  0  0  0  0
   18.5414  -15.5416  -17.9856 C   0  0  0  0  0  0  0  0  0  0  0  0
   17.2182  -15.1517  -17.9848 C   0  0  0  0  0  0  0  0  0  0  0  0
   16.2181  -15.9699  -18.4326 C   0  0  0  0  0  0  0  0  0  0  0  0
   16.5060  -17.2454  -18.9123 C   0  0  0  0  0  0  0  0  0  0  0  0
   17.8334  -17.6637  -18.9240 C   0  0  0  0  0  0  0  0  0  0  0  0
   18.8172  -16.8147  -18.4658 C   0  0  0  0  0  0  0  0  0  0  0  0
   20.9852  -12.7008  -18.2185 C   0  0  0  0  0  0  0  0  0  0  0  0
   22.2047  -12.7323  -18.5082 O   0  0  0  0  0  0  0  0  0  0  0  0
   20.5320  -11.5769  -17.4603 N   0  0  0  0  0  0  0  0  0  0  0  0
   21.3481  -10.4443  -17.1435 C   0  0  1  0  0  0  0  0  0  0  0  0
   21.9516   -9.8745  -18.3906 C   0  0  0  0  0  0  0  0  0  0  0  0
   20.7657   -9.5771  -19.7041 S   0  0  0  0  0  0  0  0  0  0  0  0
   20.6369   -9.4318  -16.3225 C   0  0  0  0  0  0  0  0  0  0  0  0
   19.4891   -9.0266  -16.6436 O   0  0  0  0  0  0  0  0  0  0  0  0
   20.9067   -7.8139  -12.9339 C   0  0  0  0  0  0  0  0  0  0  0  0
   20.4815   -7.9000  -14.3790 C   0  0  2  0  0  0  0  0  0  0  0  0
   21.2138   -8.8667  -15.1313 N   0  0  0  0  0  0  0  0  0  0  0  0
   20.6403   -6.5696  -14.9780 C   0  0  0  0  0  0  0  0  0  0  0  0
   21.4666   -6.3179  -15.9025 O   0  0  0  0  0  0  0  0  0  0  0  0
   19.8523   -5.5282  -14.5175 O   0  0  0  0  0  0  0  0  0  0  0  0
  2  1  1  6
  2 10  1  0
  3  2  1  0
  4  3  1  0
  4  5  2  0
  6  5  1  0
  7  6  2  0
  8  9  2  0
  8  7  1  0
  9  4  1  0
 10 11  2  0
 12 10  1  0
 12 13  1  0
 13 16  1  0
 13 14  1  6
 15 14  1  0
 16 17  2  0
 19 18  1  1
 19 21  1  0
 20 19  1  0
 20 16  1  0
 21 22  2  0
 21 23  1  0
M  END
$$$$
