LSP.pdb
     RDKit          3D

 22 22  0  0  1  0  0  0  0  0999 V2000
    5.3791  -12.2054   26.2179 C   0  0  0  0  0  0  0  0  0  0  0  0
    6.5100  -12.8477   27.0073 C   0  0  2  0  0  0  0  0  0  0  0  0
    7.4028  -11.7182   27.5013 C   0  0  0  0  0  0  0  0  0  0  0  0
    7.2933  -13.8113   26.1477 C   0  0  0  0  0  0  0  0  0  0  0  0
    6.4252  -14.8847   25.5642 C   0  0  2  0  0  0  0  0  0  0  0  0
    5.9375  -15.7332   26.6240 N   0  0  0  0  0  0  0  0  0  0  0  0
    7.1780  -15.6903   24.5398 C   0  0  0  0  0  0  0  0  0  0  0  0
    7.7200  -16.7357   24.9339 O   0  0  0  0  0  0  0  0  0  0  0  0
    8.9523  -15.2973   19.9806 O   0  0  0  0  0  0  0  0  0  0  0  0
    8.1052  -14.8805   21.0038 C   0  0  0  0  0  0  0  0  0  0  0  0
    8.2504  -15.7262   22.2532 C   0  0  2  0  0  0  0  0  0  0  0  0
    7.2654  -15.2831   23.2026 N   0  0  0  0  0  0  0  0  0  0  0  0
    9.6276  -15.7331   22.7848 C   0  0  0  0  0  0  0  0  0  0  0  0
   10.2250  -14.6711   23.1227 O   0  0  0  0  0  0  0  0  0  0  0  0
   10.3273  -16.9482   22.9354 N   0  0  0  0  0  0  0  0  0  0  0  0
    9.6577  -18.2585   23.0460 C   0  0  0  0  0  0  0  0  0  0  0  0
   10.3604  -18.9847   21.9236 C   0  0  0  0  0  0  0  0  0  0  0  0
   11.8169  -18.5459   22.1463 C   0  0  0  0  0  0  0  0  0  0  0  0
   11.7219  -17.2838   23.0170 C   0  0  1  0  0  0  0  0  0  0  0  0
   12.6866  -16.3242   22.5121 C   0  0  0  0  0  0  0  0  0  0  0  0
   13.9805  -16.1341   22.9004 O   0  0  0  0  0  0  0  0  0  0  0  0
   12.2740  -15.5471   21.5793 O   0  0  0  0  0  0  0  0  0  0  0  0
  2  1  1  6
  2  3  1  0
  4  2  1  0
  4  5  1  0
  5  6  1  1
  7  5  1  0
  8  7  2  0
  9 10  1  0
 11 12  1  0
 11 10  1  6
 12  7  1  0
 13 11  1  0
 14 13  2  0
 15 13  1  0
 16 15  1  0
 17 16  1  0
 17 18  1  0
 18 19  1  0
 19 15  1  0
 20 21  1  0
 19 20  1  6
 22 20  2  0
M  END
$$$$
