LSP.pdb
     RDKit          3D

 22 22  0  0  1  0  0  0  0  0999 V2000
    8.5189  -11.8624   20.0873 C   0  0  0  0  0  0  0  0  0  0  0  0
    8.2971  -13.2838   19.5924 C   0  0  2  0  0  0  0  0  0  0  0  0
    7.8840  -13.1848   18.1308 C   0  0  0  0  0  0  0  0  0  0  0  0
    7.2306  -13.9810   20.4033 C   0  0  0  0  0  0  0  0  0  0  0  0
    7.6792  -15.3241   20.8940 C   0  0  2  0  0  0  0  0  0  0  0  0
    7.1670  -16.3484   20.0168 N   0  0  0  0  0  0  0  0  0  0  0  0
    7.2273  -15.5600   22.3102 C   0  0  0  0  0  0  0  0  0  0  0  0
    6.0120  -15.7402   22.4901 O   0  0  0  0  0  0  0  0  0  0  0  0
    6.7819  -17.5695   26.1036 O   0  0  0  0  0  0  0  0  0  0  0  0
    7.0502  -17.1600   24.8004 C   0  0  0  0  0  0  0  0  0  0  0  0
    7.8049  -15.8465   24.7524 C   0  0  2  0  0  0  0  0  0  0  0  0
    8.1328  -15.5763   23.3785 N   0  0  0  0  0  0  0  0  0  0  0  0
    8.9706  -15.8209   25.6578 C   0  0  0  0  0  0  0  0  0  0  0  0
    9.7514  -16.8079   25.7796 O   0  0  0  0  0  0  0  0  0  0  0  0
    9.2518  -14.6714   26.4250 N   0  0  0  0  0  0  0  0  0  0  0  0
    8.7223  -13.3329   26.1002 C   0  0  0  0  0  0  0  0  0  0  0  0
    8.0663  -13.0054   27.4205 C   0  0  0  0  0  0  0  0  0  0  0  0
    9.1383  -13.4797   28.4152 C   0  0  0  0  0  0  0  0  0  0  0  0
   10.0289  -14.4386   27.6107 C   0  0  1  0  0  0  0  0  0  0  0  0
   10.3367  -15.5743   28.4603 C   0  0  0  0  0  0  0  0  0  0  0  0
   11.3205  -15.6934   29.3980 O   0  0  0  0  0  0  0  0  0  0  0  0
    9.5911  -16.6071   28.3134 O   0  0  0  0  0  0  0  0  0  0  0  0
  2  1  1  1
  2  3  1  0
  4  2  1  0
  4  5  1  0
  5  6  1  6
  7  5  1  0
  8  7  2  0
  9 10  1  0
 11 12  1  0
 11 10  1  6
 12  7  1  0
 13 11  1  0
 14 13  2  0
 15 13  1  0
 16 15  1  0
 17 16  1  0
 17 18  1  0
 18 19  1  0
 19 15  1  0
 20 21  1  0
 19 20  1  1
 22 20  2  0
M  END
$$$$
