LSP.pdb
     RDKit          3D

 22 22  0  0  1  0  0  0  0  0999 V2000
    8.2049  -12.0071   19.6410 C   0  0  0  0  0  0  0  0  0  0  0  0
    8.5881  -13.4613   19.8709 C   0  0  2  0  0  0  0  0  0  0  0  0
    9.3764  -13.9105   18.6487 C   0  0  0  0  0  0  0  0  0  0  0  0
    7.3621  -14.3223   20.0623 C   0  0  0  0  0  0  0  0  0  0  0  0
    7.6953  -15.6605   20.6492 C   0  0  2  0  0  0  0  0  0  0  0  0
    7.1834  -16.6998   19.7896 N   0  0  0  0  0  0  0  0  0  0  0  0
    7.1352  -15.7945   22.0397 C   0  0  0  0  0  0  0  0  0  0  0  0
    5.9237  -16.0493   22.1359 O   0  0  0  0  0  0  0  0  0  0  0  0
    6.7371  -17.6697   25.9386 O   0  0  0  0  0  0  0  0  0  0  0  0
    6.9973  -17.2858   24.6260 C   0  0  0  0  0  0  0  0  0  0  0  0
    7.5276  -15.8690   24.5338 C   0  0  2  0  0  0  0  0  0  0  0  0
    7.9402  -15.6401   23.1754 N   0  0  0  0  0  0  0  0  0  0  0  0
    8.5787  -15.5835   25.5304 C   0  0  0  0  0  0  0  0  0  0  0  0
    9.5126  -16.3993   25.7777 O   0  0  0  0  0  0  0  0  0  0  0  0
    8.5709  -14.3684   26.2461 N   0  0  0  0  0  0  0  0  0  0  0  0
    7.8269  -13.1736   25.8029 C   0  0  0  0  0  0  0  0  0  0  0  0
    7.0110  -12.9209   27.0484 C   0  0  0  0  0  0  0  0  0  0  0  0
    8.0650  -13.1339   28.1472 C   0  0  0  0  0  0  0  0  0  0  0  0
    9.1862  -13.9370   27.4706 C   0  0  1  0  0  0  0  0  0  0  0  0
    9.6303  -14.9526   28.4074 C   0  0  0  0  0  0  0  0  0  0  0  0
    9.2828  -16.2708   28.4611 O   0  0  0  0  0  0  0  0  0  0  0  0
   10.4568  -14.5661   29.3084 O   0  0  0  0  0  0  0  0  0  0  0  0
  2  1  1  6
  2  3  1  0
  4  2  1  0
  4  5  1  0
  5  6  1  6
  7  5  1  0
  8  7  2  0
  9 10  1  0
 11 12  1  0
 11 10  1  6
 12  7  1  0
 13 11  1  0
 14 13  2  0
 15 13  1  0
 16 15  1  0
 17 16  1  0
 17 18  1  0
 18 19  1  0
 19 15  1  0
 20 21  1  0
 19 20  1  1
 22 20  2  0
M  END
$$$$
