LSP.pdb
     RDKit          3D

 22 22  0  0  1  0  0  0  0  0999 V2000
    9.6774  -13.8389   19.3030 C   0  0  0  0  0  0  0  0  0  0  0  0
    8.1692  -13.6520   19.2309 C   0  0  2  0  0  0  0  0  0  0  0  0
    7.9212  -12.2168   18.7885 C   0  0  0  0  0  0  0  0  0  0  0  0
    7.5244  -13.9174   20.5706 C   0  0  0  0  0  0  0  0  0  0  0  0
    7.7739  -15.3143   21.0528 C   0  0  2  0  0  0  0  0  0  0  0  0
    7.0528  -16.2436   20.2177 N   0  0  0  0  0  0  0  0  0  0  0  0
    7.3694  -15.4681   22.4943 C   0  0  0  0  0  0  0  0  0  0  0  0
    6.1866  -15.2166   22.7764 O   0  0  0  0  0  0  0  0  0  0  0  0
    5.9326  -17.2495   24.5349 O   0  0  0  0  0  0  0  0  0  0  0  0
    7.2245  -17.3290   25.0476 C   0  0  0  0  0  0  0  0  0  0  0  0
    7.9941  -16.0347   24.8752 C   0  0  2  0  0  0  0  0  0  0  0  0
    8.2821  -15.8760   23.4752 N   0  0  0  0  0  0  0  0  0  0  0  0
    9.1880  -15.9572   25.7401 C   0  0  0  0  0  0  0  0  0  0  0  0
   10.0967  -16.8362   25.7152 O   0  0  0  0  0  0  0  0  0  0  0  0
    9.3519  -14.8785   26.6336 N   0  0  0  0  0  0  0  0  0  0  0  0
    8.6798  -13.5762   26.4608 C   0  0  0  0  0  0  0  0  0  0  0  0
    8.0044  -13.4720   27.8075 C   0  0  0  0  0  0  0  0  0  0  0  0
    9.1295  -13.9384   28.7457 C   0  0  0  0  0  0  0  0  0  0  0  0
   10.1101  -14.6995   27.8406 C   0  0  1  0  0  0  0  0  0  0  0  0
   10.5448  -15.8845   28.5570 C   0  0  0  0  0  0  0  0  0  0  0  0
   11.5657  -16.0102   29.4532 O   0  0  0  0  0  0  0  0  0  0  0  0
    9.8885  -16.9600   28.3188 O   0  0  0  0  0  0  0  0  0  0  0  0
  2  1  1  1
  2  3  1  0
  4  2  1  0
  4  5  1  0
  5  6  1  6
  7  5  1  0
  8  7  2  0
  9 10  1  0
 11 12  1  0
 11 10  1  6
 12  7  1  0
 13 11  1  0
 14 13  2  0
 15 13  1  0
 16 15  1  0
 17 16  1  0
 17 18  1  0
 18 19  1  0
 19 15  1  0
 20 21  1  0
 19 20  1  1
 22 20  2  0
M  END
$$$$
