LSP.pdb
     RDKit          3D

 22 22  0  0  1  0  0  0  0  0999 V2000
    6.2968  -12.1480   25.1253 C   0  0  0  0  0  0  0  0  0  0  0  0
    6.3830  -12.9377   26.4228 C   0  0  2  0  0  0  0  0  0  0  0  0
    6.9691  -12.0036   27.4720 C   0  0  0  0  0  0  0  0  0  0  0  0
    7.2485  -14.1641   26.2556 C   0  0  0  0  0  0  0  0  0  0  0  0
    6.6305  -15.1727   25.3355 C   0  0  2  0  0  0  0  0  0  0  0  0
    5.6488  -15.9420   26.0605 N   0  0  0  0  0  0  0  0  0  0  0  0
    7.6789  -16.0729   24.7389 C   0  0  0  0  0  0  0  0  0  0  0  0
    8.0525  -17.0353   25.4289 O   0  0  0  0  0  0  0  0  0  0  0  0
   10.1561  -17.0908   20.6583 O   0  0  0  0  0  0  0  0  0  0  0  0
    9.2232  -16.3309   21.3586 C   0  0  0  0  0  0  0  0  0  0  0  0
    9.2792  -16.5819   22.8522 C   0  0  2  0  0  0  0  0  0  0  0  0
    8.2108  -15.8393   23.4646 N   0  0  0  0  0  0  0  0  0  0  0  0
   10.6073  -16.3004   23.4321 C   0  0  0  0  0  0  0  0  0  0  0  0
   11.1510  -15.1618   23.3502 O   0  0  0  0  0  0  0  0  0  0  0  0
   11.3187  -17.3130   24.1086 N   0  0  0  0  0  0  0  0  0  0  0  0
   10.6680  -18.4875   24.7206 C   0  0  0  0  0  0  0  0  0  0  0  0
   11.4530  -19.5821   24.0378 C   0  0  0  0  0  0  0  0  0  0  0  0
   12.8843  -19.0283   24.1294 C   0  0  0  0  0  0  0  0  0  0  0  0
   12.7114  -17.5245   24.3909 C   0  0  1  0  0  0  0  0  0  0  0  0
   13.6878  -16.8194   23.5810 C   0  0  0  0  0  0  0  0  0  0  0  0
   13.4962  -16.1509   22.4073 O   0  0  0  0  0  0  0  0  0  0  0  0
   14.8928  -16.8238   24.0194 O   0  0  0  0  0  0  0  0  0  0  0  0
  2  1  1  6
  2  3  1  0
  4  2  1  0
  4  5  1  0
  5  6  1  1
  7  5  1  0
  8  7  2  0
  9 10  1  0
 11 12  1  0
 11 10  1  6
 12  7  1  0
 13 11  1  0
 14 13  2  0
 15 13  1  0
 16 15  1  0
 17 16  1  0
 17 18  1  0
 18 19  1  0
 19 15  1  0
 20 21  1  0
 19 20  1  6
 22 20  2  0
M  END
$$$$
