LSP.pdb
     RDKit          3D

 22 22  0  0  1  0  0  0  0  0999 V2000
    9.3336  -13.1436   19.9251 C   0  0  0  0  0  0  0  0  0  0  0  0
    8.3825  -13.7616   18.9112 C   0  0  2  0  0  0  0  0  0  0  0  0
    7.7542  -12.6128   18.1352 C   0  0  0  0  0  0  0  0  0  0  0  0
    7.3201  -14.5879   19.5966 C   0  0  0  0  0  0  0  0  0  0  0  0
    7.9069  -15.6138   20.5181 C   0  0  2  0  0  0  0  0  0  0  0  0
    7.8051  -16.9173   19.9084 N   0  0  0  0  0  0  0  0  0  0  0  0
    7.2170  -15.5954   21.8557 C   0  0  0  0  0  0  0  0  0  0  0  0
    5.9898  -15.7844   21.8581 O   0  0  0  0  0  0  0  0  0  0  0  0
    7.7093  -17.7880   24.9392 O   0  0  0  0  0  0  0  0  0  0  0  0
    6.7712  -16.8411   24.5376 C   0  0  0  0  0  0  0  0  0  0  0  0
    7.3779  -15.4620   24.3728 C   0  0  2  0  0  0  0  0  0  0  0  0
    7.9232  -15.3759   23.0450 N   0  0  0  0  0  0  0  0  0  0  0  0
    8.3469  -15.1305   25.4361 C   0  0  0  0  0  0  0  0  0  0  0  0
    9.3422  -15.8664   25.6944 O   0  0  0  0  0  0  0  0  0  0  0  0
    8.1871  -13.9599   26.2062 N   0  0  0  0  0  0  0  0  0  0  0  0
    7.2658  -12.8682   25.8363 C   0  0  0  0  0  0  0  0  0  0  0  0
    6.4614  -12.7879   27.1120 C   0  0  0  0  0  0  0  0  0  0  0  0
    7.5688  -12.8912   28.1734 C   0  0  0  0  0  0  0  0  0  0  0  0
    8.7720  -13.4949   27.4332 C   0  0  1  0  0  0  0  0  0  0  0  0
    9.3864  -14.4733   28.3117 C   0  0  0  0  0  0  0  0  0  0  0  0
   10.3123  -14.2725   29.2933 O   0  0  0  0  0  0  0  0  0  0  0  0
    9.0167  -15.6900   28.1469 O   0  0  0  0  0  0  0  0  0  0  0  0
  2  1  1  1
  2  3  1  0
  4  2  1  0
  4  5  1  0
  5  6  1  6
  7  5  1  0
  8  7  2  0
  9 10  1  0
 11 12  1  0
 11 10  1  1
 12  7  1  0
 13 11  1  0
 14 13  2  0
 15 13  1  0
 16 15  1  0
 17 16  1  0
 17 18  1  0
 18 19  1  0
 19 15  1  0
 20 21  1  0
 19 20  1  1
 22 20  2  0
M  END
$$$$
