LSP.pdb
     RDKit          3D

 22 22  0  0  1  0  0  0  0  0999 V2000
    9.8213  -13.5181   19.4881 C   0  0  0  0  0  0  0  0  0  0  0  0
    8.3660  -13.6274   19.0581 C   0  0  2  0  0  0  0  0  0  0  0  0
    7.9682  -12.2718   18.4916 C   0  0  0  0  0  0  0  0  0  0  0  0
    7.4816  -13.9998   20.2244 C   0  0  0  0  0  0  0  0  0  0  0  0
    7.8358  -15.3375   20.7997 C   0  0  2  0  0  0  0  0  0  0  0  0
    7.3683  -16.3767   19.9151 N   0  0  0  0  0  0  0  0  0  0  0  0
    7.2502  -15.5054   22.1760 C   0  0  0  0  0  0  0  0  0  0  0  0
    6.0235  -15.6845   22.2472 O   0  0  0  0  0  0  0  0  0  0  0  0
    7.8409  -18.0621   24.6159 O   0  0  0  0  0  0  0  0  0  0  0  0
    6.9266  -17.0203   24.7455 C   0  0  0  0  0  0  0  0  0  0  0  0
    7.5893  -15.6591   24.6743 C   0  0  2  0  0  0  0  0  0  0  0  0
    8.0486  -15.4624   23.3258 N   0  0  0  0  0  0  0  0  0  0  0  0
    8.6423  -15.4793   25.6932 C   0  0  0  0  0  0  0  0  0  0  0  0
    9.5665  -16.3252   25.8640 O   0  0  0  0  0  0  0  0  0  0  0  0
    8.6476  -14.3357   26.5184 N   0  0  0  0  0  0  0  0  0  0  0  0
    7.8361  -13.1348   26.2412 C   0  0  0  0  0  0  0  0  0  0  0  0
    7.1045  -13.0280   27.5581 C   0  0  0  0  0  0  0  0  0  0  0  0
    8.2412  -13.2998   28.5570 C   0  0  0  0  0  0  0  0  0  0  0  0
    9.3356  -13.9945   27.7326 C   0  0  1  0  0  0  0  0  0  0  0  0
    9.8780  -15.0736   28.5374 C   0  0  0  0  0  0  0  0  0  0  0  0
   10.8147  -15.0088   29.5271 O   0  0  0  0  0  0  0  0  0  0  0  0
    9.4232  -16.2464   28.2886 O   0  0  0  0  0  0  0  0  0  0  0  0
  2  1  1  1
  2  3  1  0
  4  2  1  0
  4  5  1  0
  5  6  1  6
  7  5  1  0
  8  7  2  0
  9 10  1  0
 11 12  1  0
 11 10  1  6
 12  7  1  0
 13 11  1  0
 14 13  2  0
 15 13  1  0
 16 15  1  0
 17 16  1  0
 17 18  1  0
 18 19  1  0
 19 15  1  0
 20 21  1  0
 19 20  1  1
 22 20  2  0
M  END
$$$$
