LSP.pdb
     RDKit          3D

 22 22  0  0  1  0  0  0  0  0999 V2000
    9.7579  -13.7109   19.4896 C   0  0  0  0  0  0  0  0  0  0  0  0
    8.3173  -13.8570   19.0226 C   0  0  2  0  0  0  0  0  0  0  0  0
    7.9074  -12.5187   18.4245 C   0  0  0  0  0  0  0  0  0  0  0  0
    7.4095  -14.2301   20.1705 C   0  0  0  0  0  0  0  0  0  0  0  0
    7.8088  -15.5248   20.8111 C   0  0  2  0  0  0  0  0  0  0  0  0
    7.3478  -16.6227   19.9967 N   0  0  0  0  0  0  0  0  0  0  0  0
    7.2574  -15.6287   22.2077 C   0  0  0  0  0  0  0  0  0  0  0  0
    6.0219  -15.6750   22.3225 O   0  0  0  0  0  0  0  0  0  0  0  0
    7.7228  -18.1883   24.7296 O   0  0  0  0  0  0  0  0  0  0  0  0
    6.8990  -17.0722   24.8477 C   0  0  0  0  0  0  0  0  0  0  0  0
    7.6637  -15.7724   24.6965 C   0  0  2  0  0  0  0  0  0  0  0  0
    8.0959  -15.6716   23.3287 N   0  0  0  0  0  0  0  0  0  0  0  0
    8.7581  -15.6328   25.6775 C   0  0  0  0  0  0  0  0  0  0  0  0
    9.6768  -16.4943   25.7896 O   0  0  0  0  0  0  0  0  0  0  0  0
    8.8108  -14.5117   26.5314 N   0  0  0  0  0  0  0  0  0  0  0  0
    8.0145  -13.2892   26.3111 C   0  0  0  0  0  0  0  0  0  0  0  0
    7.3261  -13.2038   27.6526 C   0  0  0  0  0  0  0  0  0  0  0  0
    8.4876  -13.5228   28.6079 C   0  0  0  0  0  0  0  0  0  0  0  0
    9.5425  -14.2155   27.7319 C   0  0  1  0  0  0  0  0  0  0  0  0
   10.0886  -15.3253   28.4911 C   0  0  0  0  0  0  0  0  0  0  0  0
    9.7663  -16.6487   28.4147 O   0  0  0  0  0  0  0  0  0  0  0  0
   10.9922  -15.0296   29.3515 O   0  0  0  0  0  0  0  0  0  0  0  0
  2  1  1  1
  2  3  1  0
  4  2  1  0
  4  5  1  0
  5  6  1  6
  7  5  1  0
  8  7  2  0
  9 10  1  0
 11 12  1  0
 11 10  1  6
 12  7  1  0
 13 11  1  0
 14 13  2  0
 15 13  1  0
 16 15  1  0
 17 16  1  0
 17 18  1  0
 18 19  1  0
 19 15  1  0
 20 21  1  0
 19 20  1  1
 22 20  2  0
M  END
$$$$
