LSP.pdb
     RDKit          3D

 22 22  0  0  1  0  0  0  0  0999 V2000
    9.2158  -13.1836   20.7371 C   0  0  0  0  0  0  0  0  0  0  0  0
    8.5881  -13.5898   19.4121 C   0  0  2  0  0  0  0  0  0  0  0  0
    8.0218  -12.3244   18.7836 C   0  0  0  0  0  0  0  0  0  0  0  0
    7.5004  -14.6170   19.6187 C   0  0  0  0  0  0  0  0  0  0  0  0
    7.9373  -15.7315   20.5203 C   0  0  2  0  0  0  0  0  0  0  0  0
    7.7262  -16.9942   19.8555 N   0  0  0  0  0  0  0  0  0  0  0  0
    7.1970  -15.6880   21.8300 C   0  0  0  0  0  0  0  0  0  0  0  0
    5.9674  -15.8561   21.7868 O   0  0  0  0  0  0  0  0  0  0  0  0
    7.7060  -17.8395   24.8683 O   0  0  0  0  0  0  0  0  0  0  0  0
    6.7106  -16.9189   24.5522 C   0  0  0  0  0  0  0  0  0  0  0  0
    7.2608  -15.5213   24.3496 C   0  0  2  0  0  0  0  0  0  0  0  0
    7.8607  -15.4686   23.0437 N   0  0  0  0  0  0  0  0  0  0  0  0
    8.1652  -15.0972   25.4366 C   0  0  0  0  0  0  0  0  0  0  0  0
    9.1782  -15.7747   25.7736 O   0  0  0  0  0  0  0  0  0  0  0  0
    7.9203  -13.9003   26.1411 N   0  0  0  0  0  0  0  0  0  0  0  0
    6.9713  -12.8693   25.6784 C   0  0  0  0  0  0  0  0  0  0  0  0
    6.1064  -12.7657   26.9121 C   0  0  0  0  0  0  0  0  0  0  0  0
    7.1673  -12.7696   28.0249 C   0  0  0  0  0  0  0  0  0  0  0  0
    8.4279  -13.3527   27.3685 C   0  0  1  0  0  0  0  0  0  0  0  0
    9.0423  -14.2605   28.3196 C   0  0  0  0  0  0  0  0  0  0  0  0
    8.9397  -15.6193   28.3872 O   0  0  0  0  0  0  0  0  0  0  0  0
    9.7782  -13.7206   29.2202 O   0  0  0  0  0  0  0  0  0  0  0  0
  2  1  1  1
  2  3  1  0
  4  2  1  0
  4  5  1  0
  5  6  1  6
  7  5  1  0
  8  7  2  0
  9 10  1  0
 11 12  1  0
 11 10  1  1
 12  7  1  0
 13 11  1  0
 14 13  2  0
 15 13  1  0
 16 15  1  0
 17 16  1  0
 17 18  1  0
 18 19  1  0
 19 15  1  0
 20 21  1  0
 19 20  1  1
 22 20  2  0
M  END
$$$$
