LSP.pdb
     RDKit          3D

 22 22  0  0  1  0  0  0  0  0999 V2000
    9.9095  -13.3380   19.5594 C   0  0  0  0  0  0  0  0  0  0  0  0
    8.5284  -13.4862   18.9389 C   0  0  2  0  0  0  0  0  0  0  0  0
    8.1364  -12.1185   18.3980 C   0  0  0  0  0  0  0  0  0  0  0  0
    7.5233  -13.9656   19.9592 C   0  0  0  0  0  0  0  0  0  0  0  0
    7.9310  -15.2624   20.5904 C   0  0  2  0  0  0  0  0  0  0  0  0
    7.6334  -16.3473   19.6874 N   0  0  0  0  0  0  0  0  0  0  0  0
    7.2366  -15.4618   21.9108 C   0  0  0  0  0  0  0  0  0  0  0  0
    6.0451  -15.8096   21.8727 O   0  0  0  0  0  0  0  0  0  0  0  0
    6.5828  -17.4703   25.7044 O   0  0  0  0  0  0  0  0  0  0  0  0
    7.0423  -17.0537   24.4580 C   0  0  0  0  0  0  0  0  0  0  0  0
    7.3739  -15.5751   24.4303 C   0  0  2  0  0  0  0  0  0  0  0  0
    7.9002  -15.2655   23.1283 N   0  0  0  0  0  0  0  0  0  0  0  0
    8.2552  -15.1636   25.5409 C   0  0  0  0  0  0  0  0  0  0  0  0
    9.2711  -15.8358   25.8799 O   0  0  0  0  0  0  0  0  0  0  0  0
    7.9840  -13.9852   26.2667 N   0  0  0  0  0  0  0  0  0  0  0  0
    6.9612  -13.0023   25.8600 C   0  0  0  0  0  0  0  0  0  0  0  0
    6.1542  -12.9512   27.1355 C   0  0  0  0  0  0  0  0  0  0  0  0
    7.2676  -12.9066   28.1948 C   0  0  0  0  0  0  0  0  0  0  0  0
    8.5226  -13.4193   27.4724 C   0  0  1  0  0  0  0  0  0  0  0  0
    9.2295  -14.2997   28.3844 C   0  0  0  0  0  0  0  0  0  0  0  0
   10.1088  -13.9707   29.3743 O   0  0  0  0  0  0  0  0  0  0  0  0
    9.0047  -15.5543   28.2451 O   0  0  0  0  0  0  0  0  0  0  0  0
  2  1  1  1
  2  3  1  0
  4  2  1  0
  4  5  1  0
  5  6  1  6
  7  5  1  0
  8  7  2  0
  9 10  1  0
 11 12  1  0
 11 10  1  6
 12  7  1  0
 13 11  1  0
 14 13  2  0
 15 13  1  0
 16 15  1  0
 17 16  1  0
 17 18  1  0
 18 19  1  0
 19 15  1  0
 20 21  1  0
 19 20  1  1
 22 20  2  0
M  END
$$$$
