LSP.pdb
     RDKit          3D

 22 22  0  0  1  0  0  0  0  0999 V2000
    5.5941  -12.0482   25.7332 C   0  0  0  0  0  0  0  0  0  0  0  0
    6.3365  -12.8117   26.8197 C   0  0  2  0  0  0  0  0  0  0  0  0
    7.1282  -11.7869   27.6196 C   0  0  0  0  0  0  0  0  0  0  0  0
    7.2565  -13.8498   26.2221 C   0  0  0  0  0  0  0  0  0  0  0  0
    6.5062  -14.9032   25.4648 C   0  0  2  0  0  0  0  0  0  0  0  0
    5.6550  -15.6303   26.3746 N   0  0  0  0  0  0  0  0  0  0  0  0
    7.4520  -15.8367   24.7580 C   0  0  0  0  0  0  0  0  0  0  0  0
    7.8587  -16.8181   25.4009 O   0  0  0  0  0  0  0  0  0  0  0  0
    8.2247  -15.1979   20.6941 O   0  0  0  0  0  0  0  0  0  0  0  0
    8.3594  -16.4618   21.2619 C   0  0  0  0  0  0  0  0  0  0  0  0
    8.8137  -16.3997   22.7066 C   0  0  2  0  0  0  0  0  0  0  0  0
    7.8569  -15.6123   23.4362 N   0  0  0  0  0  0  0  0  0  0  0  0
   10.2052  -15.9282   22.8509 C   0  0  0  0  0  0  0  0  0  0  0  0
   10.6103  -14.8521   22.3249 O   0  0  0  0  0  0  0  0  0  0  0  0
   11.1382  -16.6787   23.5960 N   0  0  0  0  0  0  0  0  0  0  0  0
   10.7476  -17.6989   24.5880 C   0  0  0  0  0  0  0  0  0  0  0  0
   11.5266  -18.8738   24.0462 C   0  0  0  0  0  0  0  0  0  0  0  0
   12.8761  -18.2146   23.7175 C   0  0  0  0  0  0  0  0  0  0  0  0
   12.5738  -16.7105   23.6396 C   0  0  1  0  0  0  0  0  0  0  0  0
   13.3043  -16.1704   22.5077 C   0  0  0  0  0  0  0  0  0  0  0  0
   14.5159  -15.5433   22.4980 O   0  0  0  0  0  0  0  0  0  0  0  0
   12.7408  -16.2929   21.3624 O   0  0  0  0  0  0  0  0  0  0  0  0
  2  1  1  6
  2  3  1  0
  4  2  1  0
  4  5  1  0
  5  6  1  1
  7  5  1  0
  8  7  2  0
  9 10  1  0
 11 12  1  0
 11 10  1  6
 12  7  1  0
 13 11  1  0
 14 13  2  0
 15 13  1  0
 16 15  1  0
 17 16  1  0
 17 18  1  0
 18 19  1  0
 19 15  1  0
 20 21  1  0
 19 20  1  6
 22 20  2  0
M  END
$$$$
