LSP.pdb
     RDKit          3D

 22 22  0  0  1  0  0  0  0  0999 V2000
    9.6442  -13.6022   19.5565 C   0  0  0  0  0  0  0  0  0  0  0  0
    8.2009  -13.6321   19.0762 C   0  0  2  0  0  0  0  0  0  0  0  0
    7.8611  -12.2249   18.6060 C   0  0  0  0  0  0  0  0  0  0  0  0
    7.2691  -14.0655   20.1830 C   0  0  0  0  0  0  0  0  0  0  0  0
    7.6425  -15.4030   20.7469 C   0  0  2  0  0  0  0  0  0  0  0  0
    7.1240  -16.4431   19.8922 N   0  0  0  0  0  0  0  0  0  0  0  0
    7.1254  -15.5598   22.1516 C   0  0  0  0  0  0  0  0  0  0  0  0
    5.8983  -15.4609   22.3135 O   0  0  0  0  0  0  0  0  0  0  0  0
    5.9260  -17.5359   24.1126 O   0  0  0  0  0  0  0  0  0  0  0  0
    7.0505  -17.2529   24.8830 C   0  0  0  0  0  0  0  0  0  0  0  0
    7.6004  -15.8665   24.6134 C   0  0  2  0  0  0  0  0  0  0  0  0
    7.9854  -15.8064   23.2292 N   0  0  0  0  0  0  0  0  0  0  0  0
    8.6781  -15.4849   25.5473 C   0  0  0  0  0  0  0  0  0  0  0  0
    9.7106  -16.1960   25.7120 O   0  0  0  0  0  0  0  0  0  0  0  0
    8.5847  -14.2922   26.2941 N   0  0  0  0  0  0  0  0  0  0  0  0
    7.7793  -13.1318   25.8672 C   0  0  0  0  0  0  0  0  0  0  0  0
    6.9268  -12.9616   27.1022 C   0  0  0  0  0  0  0  0  0  0  0  0
    7.9711  -13.1418   28.2161 C   0  0  0  0  0  0  0  0  0  0  0  0
    9.1504  -13.8587   27.5415 C   0  0  1  0  0  0  0  0  0  0  0  0
    9.6367  -14.8714   28.4604 C   0  0  0  0  0  0  0  0  0  0  0  0
   10.5149  -14.7304   29.4949 O   0  0  0  0  0  0  0  0  0  0  0  0
    9.1879  -16.0589   28.2799 O   0  0  0  0  0  0  0  0  0  0  0  0
  2  1  1  1
  2  3  1  0
  4  2  1  0
  4  5  1  0
  5  6  1  6
  7  5  1  0
  8  7  2  0
  9 10  1  0
 11 12  1  0
 11 10  1  1
 12  7  1  0
 13 11  1  0
 14 13  2  0
 15 13  1  0
 16 15  1  0
 17 16  1  0
 17 18  1  0
 18 19  1  0
 19 15  1  0
 20 21  1  0
 19 20  1  1
 22 20  2  0
M  END
$$$$
