LSP.pdb
     RDKit          3D

 22 22  0  0  1  0  0  0  0  0999 V2000
    9.3452  -13.0036   19.0697 C   0  0  0  0  0  0  0  0  0  0  0  0
    8.0008  -13.7141   19.1166 C   0  0  2  0  0  0  0  0  0  0  0  0
    7.0211  -12.8616   18.3227 C   0  0  0  0  0  0  0  0  0  0  0  0
    7.5272  -13.8870   20.5403 C   0  0  0  0  0  0  0  0  0  0  0  0
    8.4667  -14.7264   21.3520 C   0  0  2  0  0  0  0  0  0  0  0  0
    8.4250  -16.0871   20.8747 N   0  0  0  0  0  0  0  0  0  0  0  0
    8.1195  -14.6636   22.8152 C   0  0  0  0  0  0  0  0  0  0  0  0
    8.0134  -13.5342   23.3201 O   0  0  0  0  0  0  0  0  0  0  0  0
    7.2355  -18.2404   25.0546 O   0  0  0  0  0  0  0  0  0  0  0  0
    6.6927  -16.9760   25.2658 C   0  0  0  0  0  0  0  0  0  0  0  0
    7.6899  -15.8675   24.9937 C   0  0  2  0  0  0  0  0  0  0  0  0
    7.9242  -15.8234   23.5756 N   0  0  0  0  0  0  0  0  0  0  0  0
    8.9224  -15.9945   25.7962 C   0  0  0  0  0  0  0  0  0  0  0  0
    9.6544  -17.0244   25.7490 O   0  0  0  0  0  0  0  0  0  0  0  0
    9.3261  -14.9492   26.6525 N   0  0  0  0  0  0  0  0  0  0  0  0
    8.8352  -13.5635   26.5242 C   0  0  0  0  0  0  0  0  0  0  0  0
    8.3159  -13.3599   27.9276 C   0  0  0  0  0  0  0  0  0  0  0  0
    9.4479  -13.9827   28.7609 C   0  0  0  0  0  0  0  0  0  0  0  0
   10.2159  -14.8797   27.7783 C   0  0  1  0  0  0  0  0  0  0  0  0
   10.5428  -16.1138   28.4686 C   0  0  0  0  0  0  0  0  0  0  0  0
   11.5727  -16.3605   29.3285 O   0  0  0  0  0  0  0  0  0  0  0  0
    9.7665  -17.1091   28.2426 O   0  0  0  0  0  0  0  0  0  0  0  0
  2  1  1  1
  2  3  1  0
  4  2  1  0
  4  5  1  0
  5  6  1  6
  7  5  1  0
  8  7  2  0
  9 10  1  0
 11 12  1  0
 11 10  1  6
 12  7  1  0
 13 11  1  0
 14 13  2  0
 15 13  1  0
 16 15  1  0
 17 16  1  0
 17 18  1  0
 18 19  1  0
 19 15  1  0
 20 21  1  0
 19 20  1  1
 22 20  2  0
M  END
$$$$
