LSP.pdb
     RDKit          3D

 22 22  0  0  1  0  0  0  0  0999 V2000
    9.7807  -13.3011   19.7391 C   0  0  0  0  0  0  0  0  0  0  0  0
    8.4904  -13.6400   19.0078 C   0  0  2  0  0  0  0  0  0  0  0  0
    7.9855  -12.3493   18.3785 C   0  0  0  0  0  0  0  0  0  0  0  0
    7.4624  -14.2101   19.9561 C   0  0  0  0  0  0  0  0  0  0  0  0
    7.9478  -15.4538   20.6371 C   0  0  2  0  0  0  0  0  0  0  0  0
    7.7358  -16.5869   19.7697 N   0  0  0  0  0  0  0  0  0  0  0  0
    7.2508  -15.6541   21.9559 C   0  0  0  0  0  0  0  0  0  0  0  0
    6.0775  -16.0587   21.9163 O   0  0  0  0  0  0  0  0  0  0  0  0
    6.5070  -17.5596   25.7510 O   0  0  0  0  0  0  0  0  0  0  0  0
    7.0027  -17.1637   24.5118 C   0  0  0  0  0  0  0  0  0  0  0  0
    7.3653  -15.6925   24.4789 C   0  0  2  0  0  0  0  0  0  0  0  0
    7.8926  -15.3973   23.1740 N   0  0  0  0  0  0  0  0  0  0  0  0
    8.2597  -15.2968   25.5848 C   0  0  0  0  0  0  0  0  0  0  0  0
    9.1880  -16.0470   26.0023 O   0  0  0  0  0  0  0  0  0  0  0  0
    8.1013  -14.0460   26.2166 N   0  0  0  0  0  0  0  0  0  0  0  0
    7.2147  -12.9856   25.7000 C   0  0  0  0  0  0  0  0  0  0  0  0
    6.3741  -12.7513   26.9325 C   0  0  0  0  0  0  0  0  0  0  0  0
    7.4466  -12.7566   28.0340 C   0  0  0  0  0  0  0  0  0  0  0  0
    8.6586  -13.4591   27.4037 C   0  0  1  0  0  0  0  0  0  0  0  0
    9.2255  -14.3456   28.4032 C   0  0  0  0  0  0  0  0  0  0  0  0
    9.0419  -15.6894   28.5509 O   0  0  0  0  0  0  0  0  0  0  0  0
   10.0002  -13.7997   29.2669 O   0  0  0  0  0  0  0  0  0  0  0  0
  2  1  1  1
  2  3  1  0
  4  2  1  0
  4  5  1  0
  5  6  1  6
  7  5  1  0
  8  7  2  0
  9 10  1  0
 11 12  1  0
 11 10  1  6
 12  7  1  0
 13 11  1  0
 14 13  2  0
 15 13  1  0
 16 15  1  0
 17 16  1  0
 17 18  1  0
 18 19  1  0
 19 15  1  0
 20 21  1  0
 19 20  1  1
 22 20  2  0
M  END
$$$$
