LSP.pdb
     RDKit          3D

 22 22  0  0  1  0  0  0  0  0999 V2000
    9.7960  -13.2157   19.6253 C   0  0  0  0  0  0  0  0  0  0  0  0
    8.4300  -13.4100   18.9843 C   0  0  2  0  0  0  0  0  0  0  0  0
    7.9928  -12.0524   18.4527 C   0  0  0  0  0  0  0  0  0  0  0  0
    7.4306  -13.9392   19.9853 C   0  0  0  0  0  0  0  0  0  0  0  0
    7.8556  -15.2518   20.5707 C   0  0  2  0  0  0  0  0  0  0  0  0
    7.5125  -16.3151   19.6583 N   0  0  0  0  0  0  0  0  0  0  0  0
    7.2165  -15.4755   21.9149 C   0  0  0  0  0  0  0  0  0  0  0  0
    6.0209  -15.8106   21.9203 O   0  0  0  0  0  0  0  0  0  0  0  0
    6.6389  -17.4598   25.7434 O   0  0  0  0  0  0  0  0  0  0  0  0
    7.0587  -17.0637   24.4765 C   0  0  0  0  0  0  0  0  0  0  0  0
    7.4411  -15.5979   24.4277 C   0  0  2  0  0  0  0  0  0  0  0  0
    7.9340  -15.3145   23.1069 N   0  0  0  0  0  0  0  0  0  0  0  0
    8.3731  -15.2117   25.5055 C   0  0  0  0  0  0  0  0  0  0  0  0
    9.3289  -15.9555   25.8689 O   0  0  0  0  0  0  0  0  0  0  0  0
    8.2212  -13.9774   26.1706 N   0  0  0  0  0  0  0  0  0  0  0  0
    7.3821  -12.8787   25.6547 C   0  0  0  0  0  0  0  0  0  0  0  0
    6.4999  -12.6611   26.8609 C   0  0  0  0  0  0  0  0  0  0  0  0
    7.5280  -12.7286   28.0021 C   0  0  0  0  0  0  0  0  0  0  0  0
    8.7459  -13.4425   27.3964 C   0  0  1  0  0  0  0  0  0  0  0  0
    9.2511  -14.3741   28.3880 C   0  0  0  0  0  0  0  0  0  0  0  0
   10.0979  -14.1314   29.4298 O   0  0  0  0  0  0  0  0  0  0  0  0
    8.8555  -15.5885   28.2742 O   0  0  0  0  0  0  0  0  0  0  0  0
  2  1  1  1
  2  3  1  0
  4  2  1  0
  4  5  1  0
  5  6  1  6
  7  5  1  0
  8  7  2  0
  9 10  1  0
 11 12  1  0
 11 10  1  6
 12  7  1  0
 13 11  1  0
 14 13  2  0
 15 13  1  0
 16 15  1  0
 17 16  1  0
 17 18  1  0
 18 19  1  0
 19 15  1  0
 20 21  1  0
 19 20  1  1
 22 20  2  0
M  END
$$$$
