LSP.pdb
     RDKit          3D

 22 22  0  0  1  0  0  0  0  0999 V2000
    9.6573  -13.3687   20.1481 C   0  0  0  0  0  0  0  0  0  0  0  0
    8.5080  -13.6573   19.1940 C   0  0  2  0  0  0  0  0  0  0  0  0
    8.0965  -12.3264   18.5804 C   0  0  0  0  0  0  0  0  0  0  0  0
    7.3462  -14.2932   19.9199 C   0  0  0  0  0  0  0  0  0  0  0  0
    7.7337  -15.5719   20.5988 C   0  0  2  0  0  0  0  0  0  0  0  0
    7.3706  -16.6874   19.7592 N   0  0  0  0  0  0  0  0  0  0  0  0
    7.0791  -15.6858   21.9493 C   0  0  0  0  0  0  0  0  0  0  0  0
    5.8853  -16.0270   21.9687 O   0  0  0  0  0  0  0  0  0  0  0  0
    6.6455  -17.6076   25.8053 O   0  0  0  0  0  0  0  0  0  0  0  0
    6.9803  -17.1907   24.5199 C   0  0  0  0  0  0  0  0  0  0  0  0
    7.3239  -15.7157   24.4631 C   0  0  2  0  0  0  0  0  0  0  0  0
    7.7808  -15.4202   23.1320 N   0  0  0  0  0  0  0  0  0  0  0  0
    8.2687  -15.3053   25.5206 C   0  0  0  0  0  0  0  0  0  0  0  0
    9.2832  -15.9965   25.8235 O   0  0  0  0  0  0  0  0  0  0  0  0
    8.0627  -14.1064   26.2342 N   0  0  0  0  0  0  0  0  0  0  0  0
    7.1237  -13.0558   25.7961 C   0  0  0  0  0  0  0  0  0  0  0  0
    6.2885  -12.9400   27.0490 C   0  0  0  0  0  0  0  0  0  0  0  0
    7.3735  -12.9684   28.1379 C   0  0  0  0  0  0  0  0  0  0  0  0
    8.6078  -13.5732   27.4518 C   0  0  1  0  0  0  0  0  0  0  0  0
    9.2256  -14.4962   28.3861 C   0  0  0  0  0  0  0  0  0  0  0  0
   10.1470  -14.2340   29.3575 O   0  0  0  0  0  0  0  0  0  0  0  0
    8.8643  -15.7227   28.2895 O   0  0  0  0  0  0  0  0  0  0  0  0
  2  1  1  1
  2  3  1  0
  4  2  1  0
  4  5  1  0
  5  6  1  6
  7  5  1  0
  8  7  2  0
  9 10  1  0
 11 12  1  0
 11 10  1  6
 12  7  1  0
 13 11  1  0
 14 13  2  0
 15 13  1  0
 16 15  1  0
 17 16  1  0
 17 18  1  0
 18 19  1  0
 19 15  1  0
 20 21  1  0
 19 20  1  1
 22 20  2  0
M  END
$$$$
