KDL.pdb
     RDKit          3D

 26 25  0  0  1  0  0  0  0  0999 V2000
   18.8512  -14.4942  -18.7590 N   0  0  0  0  0  0  0  0  0  0  0  0
   18.8470  -13.8818  -17.4462 C   0  0  1  0  0  0  0  0  0  0  0  0
   19.7857  -14.5700  -16.4827 C   0  0  0  0  0  0  0  0  0  0  0  0
   19.3851  -15.9595  -16.1276 C   0  0  0  0  0  0  0  0  0  0  0  0
   18.0770  -16.1130  -15.4197 C   0  0  0  0  0  0  0  0  0  0  0  0
   17.8489  -17.5792  -15.0714 C   0  0  0  0  0  0  0  0  0  0  0  0
   16.5981  -17.7563  -14.3631 N   0  0  0  0  0  0  0  0  0  0  0  0
   19.3241  -12.4888  -17.5696 C   0  0  0  0  0  0  0  0  0  0  0  0
   20.4238  -12.2645  -18.0969 O   0  0  0  0  0  0  0  0  0  0  0  0
   18.5592  -11.4094  -17.1020 N   0  0  0  0  0  0  0  0  0  0  0  0
   18.8799  -10.0327  -17.2451 C   0  0  1  0  0  0  0  0  0  0  0  0
   17.7184   -9.1048  -17.3540 C   0  0  0  0  0  0  0  0  0  0  0  0
   16.8904   -9.3768  -18.5286 C   0  0  0  0  0  0  0  0  0  0  0  0
   17.4168   -9.5509  -19.6712 O   0  0  0  0  0  0  0  0  0  0  0  0
   19.7319   -9.6105  -16.1230 C   0  0  0  0  0  0  0  0  0  0  0  0
   19.3567   -9.8347  -14.9194 O   0  0  0  0  0  0  0  0  0  0  0  0
   15.5093   -9.4600  -18.4745 O   0  0  0  0  0  0  0  0  0  0  0  0
   23.5469  -10.8502  -14.0936 C   0  0  0  0  0  0  0  0  0  0  0  0
   23.7914  -10.1987  -15.4452 C   0  0  2  0  0  0  0  0  0  0  0  0
   25.1651  -10.3812  -15.9495 C   0  0  0  0  0  0  0  0  0  0  0  0
   23.2283   -8.8375  -15.5283 C   0  0  0  0  0  0  0  0  0  0  0  0
   21.8229   -8.6023  -15.1013 C   0  0  2  0  0  0  0  0  0  0  0  0
   20.9730   -8.9553  -16.2692 N   0  0  0  0  0  0  0  0  0  0  0  0
   21.4928   -7.2027  -14.7931 C   0  0  0  0  0  0  0  0  0  0  0  0
   21.0133   -6.3683  -15.6025 O   0  0  0  0  0  0  0  0  0  0  0  0
   21.7038   -6.6751  -13.4974 O   0  0  0  0  0  0  0  0  0  0  0  0
  2  1  1  6
  2  3  1  0
  3  4  1  0
  5  4  1  0
  6  7  1  0
  6  5  1  0
  8  2  1  0
  8  9  2  0
 10  8  1  0
 11 10  1  0
 11 12  1  1
 13 12  1  0
 13 17  1  0
 14 13  2  0
 15 11  1  0
 16 15  2  0
 19 18  1  1
 19 21  1  0
 20 19  1  0
 22 21  1  6
 22 23  1  0
 23 15  1  0
 24 22  1  0
 25 24  2  0
 26 24  1  0
M  END
$$$$
