KDL.pdb
     RDKit          3D

 26 25  0  0  1  0  0  0  0  0999 V2000
   27.3435  -32.6584  -16.0801 N   0  0  0  0  0  0  0  0  0  0  0  0
   25.9652  -33.0992  -16.1473 C   0  0  1  0  0  0  0  0  0  0  0  0
   25.8425  -34.5705  -16.4685 C   0  0  0  0  0  0  0  0  0  0  0  0
   25.8121  -34.8769  -17.9253 C   0  0  0  0  0  0  0  0  0  0  0  0
   25.6028  -36.3096  -18.2983 C   0  0  0  0  0  0  0  0  0  0  0  0
   25.7323  -36.4729  -19.8082 C   0  0  0  0  0  0  0  0  0  0  0  0
   25.5370  -37.8535  -20.2000 N   0  0  0  0  0  0  0  0  0  0  0  0
   25.3396  -32.9082  -14.8223 C   0  0  0  0  0  0  0  0  0  0  0  0
   25.9185  -32.2222  -13.9670 O   0  0  0  0  0  0  0  0  0  0  0  0
   24.1008  -33.4875  -14.5079 N   0  0  0  0  0  0  0  0  0  0  0  0
   23.3517  -33.2676  -13.3209 C   0  0  1  0  0  0  0  0  0  0  0  0
   21.8851  -33.5126  -13.4256 C   0  0  0  0  0  0  0  0  0  0  0  0
   21.1170  -32.2751  -13.5591 C   0  0  0  0  0  0  0  0  0  0  0  0
   21.4596  -31.2244  -12.9332 O   0  0  0  0  0  0  0  0  0  0  0  0
   23.9032  -34.0929  -12.2355 C   0  0  0  0  0  0  0  0  0  0  0  0
   24.4873  -35.1987  -12.5106 O   0  0  0  0  0  0  0  0  0  0  0  0
   19.9910  -32.1692  -14.3578 O   0  0  0  0  0  0  0  0  0  0  0  0
   26.8179  -33.0005   -8.9655 C   0  0  0  0  0  0  0  0  0  0  0  0
   25.4010  -32.6361   -8.5523 C   0  0  2  0  0  0  0  0  0  0  0  0
   25.3371  -31.7686   -7.3615 C   0  0  0  0  0  0  0  0  0  0  0  0
   24.4869  -33.7939   -8.5809 C   0  0  0  0  0  0  0  0  0  0  0  0
   24.4071  -34.6301   -9.8086 C   0  0  2  0  0  0  0  0  0  0  0  0
   23.8389  -33.7542  -10.8673 N   0  0  0  0  0  0  0  0  0  0  0  0
   23.4891  -35.7757   -9.7219 C   0  0  0  0  0  0  0  0  0  0  0  0
   22.2864  -35.7794  -10.0890 O   0  0  0  0  0  0  0  0  0  0  0  0
   23.9214  -37.0143   -9.1923 O   0  0  0  0  0  0  0  0  0  0  0  0
  2  1  1  1
  2  3  1  0
  3  4  1  0
  5  4  1  0
  6  7  1  0
  6  5  1  0
  8  2  1  0
  8  9  2  0
 10  8  1  0
 11 10  1  0
 11 12  1  6
 13 12  1  0
 13 17  1  0
 14 13  2  0
 15 11  1  0
 16 15  2  0
 19 18  1  1
 19 21  1  0
 20 19  1  0
 22 21  1  1
 22 23  1  0
 23 15  1  0
 24 22  1  0
 25 24  2  0
 26 24  1  0
M  END
$$$$
