KDL.pdb
     RDKit          3D

 26 25  0  0  1  0  0  0  0  0999 V2000
   29.6325  -24.7277  -16.2980 N   0  0  0  0  0  0  0  0  0  0  0  0
   28.5300  -24.3141  -17.1418 C   0  0  1  0  0  0  0  0  0  0  0  0
   27.5529  -25.4351  -17.4095 C   0  0  0  0  0  0  0  0  0  0  0  0
   28.1550  -26.6244  -18.0729 C   0  0  0  0  0  0  0  0  0  0  0  0
   28.0783  -27.9143  -17.3206 C   0  0  0  0  0  0  0  0  0  0  0  0
   28.6766  -29.0367  -18.1604 C   0  0  0  0  0  0  0  0  0  0  0  0
   28.6628  -30.2911  -17.4366 N   0  0  0  0  0  0  0  0  0  0  0  0
   27.7694  -23.2556  -16.4458 C   0  0  0  0  0  0  0  0  0  0  0  0
   27.6571  -23.2956  -15.2116 O   0  0  0  0  0  0  0  0  0  0  0  0
   27.1686  -22.2020  -17.1515 N   0  0  0  0  0  0  0  0  0  0  0  0
   26.5044  -21.0837  -16.5798 C   0  0  1  0  0  0  0  0  0  0  0  0
   26.7541  -19.7728  -17.2440 C   0  0  0  0  0  0  0  0  0  0  0  0
   26.0773  -18.6643  -16.5713 C   0  0  0  0  0  0  0  0  0  0  0  0
   25.3358  -18.8700  -15.5610 O   0  0  0  0  0  0  0  0  0  0  0  0
   25.0566  -21.3404  -16.5463 C   0  0  0  0  0  0  0  0  0  0  0  0
   24.4397  -21.6490  -17.6251 O   0  0  0  0  0  0  0  0  0  0  0  0
   26.1970  -17.3475  -16.9819 O   0  0  0  0  0  0  0  0  0  0  0  0
   21.7316  -24.1636  -16.2582 C   0  0  0  0  0  0  0  0  0  0  0  0
   22.5400  -24.0002  -14.9812 C   0  0  2  0  0  0  0  0  0  0  0  0
   22.3089  -25.0714  -13.9943 C   0  0  0  0  0  0  0  0  0  0  0  0
   22.5248  -22.6148  -14.4741 C   0  0  0  0  0  0  0  0  0  0  0  0
   22.7931  -21.4918  -15.4122 C   0  0  2  0  0  0  0  0  0  0  0  0
   24.2633  -21.2717  -15.3814 N   0  0  0  0  0  0  0  0  0  0  0  0
   22.2019  -20.2025  -15.0237 C   0  0  0  0  0  0  0  0  0  0  0  0
   21.0007  -19.8688  -15.1880 O   0  0  0  0  0  0  0  0  0  0  0  0
   22.9868  -19.2001  -14.4067 O   0  0  0  0  0  0  0  0  0  0  0  0
  2  1  1  1
  2  3  1  0
  3  4  1  0
  5  4  1  0
  6  7  1  0
  6  5  1  0
  8  2  1  0
  8  9  2  0
 10  8  1  0
 11 10  1  0
 11 12  1  6
 13 12  1  0
 13 17  1  0
 14 13  2  0
 15 11  1  0
 16 15  2  0
 19 18  1  6
 19 21  1  0
 20 19  1  0
 22 21  1  1
 22 23  1  0
 23 15  1  0
 24 22  1  0
 25 24  2  0
 26 24  1  0
M  END
$$$$
