KDL.pdb
     RDKit          3D

 26 25  0  0  1  0  0  0  0  0999 V2000
   23.0611  -16.3496  -17.7905 N   0  0  0  0  0  0  0  0  0  0  0  0
   22.8171  -15.5021  -16.6412 C   0  0  1  0  0  0  0  0  0  0  0  0
   23.9744  -15.4958  -15.6697 C   0  0  0  0  0  0  0  0  0  0  0  0
   25.0758  -16.4323  -16.0262 C   0  0  0  0  0  0  0  0  0  0  0  0
   24.8588  -17.8723  -15.6874 C   0  0  0  0  0  0  0  0  0  0  0  0
   26.0724  -18.6901  -16.1130 C   0  0  0  0  0  0  0  0  0  0  0  0
   25.8550  -20.1028  -15.8791 N   0  0  0  0  0  0  0  0  0  0  0  0
   22.6537  -14.1084  -17.1040 C   0  0  0  0  0  0  0  0  0  0  0  0
   23.1644  -13.7580  -18.1782 O   0  0  0  0  0  0  0  0  0  0  0  0
   21.9316  -13.1682  -16.3533 N   0  0  0  0  0  0  0  0  0  0  0  0
   21.6456  -11.8312  -16.7395 C   0  0  1  0  0  0  0  0  0  0  0  0
   20.2469  -11.3735  -16.5024 C   0  0  0  0  0  0  0  0  0  0  0  0
   19.9758  -10.0647  -17.0965 C   0  0  0  0  0  0  0  0  0  0  0  0
   20.6957   -9.6161  -18.0417 O   0  0  0  0  0  0  0  0  0  0  0  0
   22.5751  -10.9168  -16.0588 C   0  0  0  0  0  0  0  0  0  0  0  0
   22.8817  -11.1178  -14.8320 O   0  0  0  0  0  0  0  0  0  0  0  0
   18.9405   -9.2465  -16.6773 O   0  0  0  0  0  0  0  0  0  0  0  0
   26.4591  -10.3896  -14.6069 C   0  0  0  0  0  0  0  0  0  0  0  0
   26.2855  -10.3892  -16.1172 C   0  0  2  0  0  0  0  0  0  0  0  0
   27.5267  -10.6894  -16.8549 C   0  0  0  0  0  0  0  0  0  0  0  0
   25.4884   -9.2437  -16.5958 C   0  0  0  0  0  0  0  0  0  0  0  0
   24.1758   -8.9520  -15.9597 C   0  0  2  0  0  0  0  0  0  0  0  0
   23.1779   -9.7961  -16.6685 N   0  0  0  0  0  0  0  0  0  0  0  0
   23.6986   -7.5706  -16.1240 C   0  0  0  0  0  0  0  0  0  0  0  0
   23.0457   -7.1335  -17.1058 O   0  0  0  0  0  0  0  0  0  0  0  0
   23.9561   -6.5910  -15.1362 O   0  0  0  0  0  0  0  0  0  0  0  0
  2  1  1  6
  2  3  1  0
  3  4  1  0
  5  4  1  0
  6  7  1  0
  6  5  1  0
  8  2  1  0
  8  9  2  0
 10  8  1  0
 11 10  1  0
 11 12  1  1
 13 12  1  0
 13 17  1  0
 14 13  2  0
 15 11  1  0
 16 15  2  0
 19 18  1  1
 19 21  1  0
 20 19  1  0
 22 21  1  6
 22 23  1  0
 23 15  1  0
 24 22  1  0
 25 24  2  0
 26 24  1  0
M  END
$$$$
