KDL.pdb
     RDKit          3D

 26 25  0  0  1  0  0  0  0  0999 V2000
   28.6052  -21.6418  -17.7123 N   0  0  0  0  0  0  0  0  0  0  0  0
   27.3552  -22.1404  -17.1762 C   0  0  1  0  0  0  0  0  0  0  0  0
   27.5571  -23.0568  -15.9919 C   0  0  0  0  0  0  0  0  0  0  0  0
   27.2921  -24.4935  -16.2794 C   0  0  0  0  0  0  0  0  0  0  0  0
   28.4867  -25.3432  -16.5732 C   0  0  0  0  0  0  0  0  0  0  0  0
   28.0389  -26.7555  -16.9309 C   0  0  0  0  0  0  0  0  0  0  0  0
   29.1781  -27.6140  -17.1817 N   0  0  0  0  0  0  0  0  0  0  0  0
   26.5573  -20.9969  -16.6872 C   0  0  0  0  0  0  0  0  0  0  0  0
   27.1361  -19.9899  -16.2531 O   0  0  0  0  0  0  0  0  0  0  0  0
   25.1545  -21.0239  -16.7024 N   0  0  0  0  0  0  0  0  0  0  0  0
   24.2932  -19.9632  -16.3129 C   0  0  1  0  0  0  0  0  0  0  0  0
   23.2246  -19.6049  -17.2884 C   0  0  0  0  0  0  0  0  0  0  0  0
   22.4024  -18.4837  -16.8343 C   0  0  0  0  0  0  0  0  0  0  0  0
   21.1465  -18.6108  -16.6949 O   0  0  0  0  0  0  0  0  0  0  0  0
   23.6761  -20.2860  -15.0173 C   0  0  0  0  0  0  0  0  0  0  0  0
   23.0194  -19.3878  -14.3837 O   0  0  0  0  0  0  0  0  0  0  0  0
   22.9263  -17.2379  -16.5335 O   0  0  0  0  0  0  0  0  0  0  0  0
   25.7052  -22.6367  -11.7107 C   0  0  0  0  0  0  0  0  0  0  0  0
   25.3828  -21.1627  -11.8965 C   0  0  2  0  0  0  0  0  0  0  0  0
   26.0701  -20.2815  -10.9343 C   0  0  0  0  0  0  0  0  0  0  0  0
   23.9431  -20.9199  -12.1090 C   0  0  0  0  0  0  0  0  0  0  0  0
   23.1852  -21.7975  -13.0408 C   0  0  2  0  0  0  0  0  0  0  0  0
   23.7515  -21.5491  -14.3930 N   0  0  0  0  0  0  0  0  0  0  0  0
   21.7525  -21.4876  -13.1597 C   0  0  0  0  0  0  0  0  0  0  0  0
   21.2087  -20.8997  -14.1292 O   0  0  0  0  0  0  0  0  0  0  0  0
   20.8438  -21.8499  -12.1376 O   0  0  0  0  0  0  0  0  0  0  0  0
  2  1  1  1
  2  3  1  0
  3  4  1  0
  5  4  1  0
  6  7  1  0
  6  5  1  0
  8  2  1  0
  8  9  2  0
 10  8  1  0
 11 10  1  0
 11 12  1  6
 13 12  1  0
 13 17  1  0
 14 13  2  0
 15 11  1  0
 16 15  2  0
 19 18  1  1
 19 21  1  0
 20 19  1  0
 22 21  1  1
 22 23  1  0
 23 15  1  0
 24 22  1  0
 25 24  2  0
 26 24  1  0
M  END
$$$$
