KDL.pdb
     RDKit          3D

 26 25  0  0  1  0  0  0  0  0999 V2000
   28.7090  -25.7479  -19.8701 N   0  0  0  0  0  0  0  0  0  0  0  0
   28.6847  -26.1646  -18.4829 C   0  0  1  0  0  0  0  0  0  0  0  0
   30.0631  -26.2021  -17.8649 C   0  0  0  0  0  0  0  0  0  0  0  0
   30.9775  -27.2080  -18.4726 C   0  0  0  0  0  0  0  0  0  0  0  0
   30.7343  -28.6360  -18.1018 C   0  0  0  0  0  0  0  0  0  0  0  0
   31.7155  -29.5352  -18.8446 C   0  0  0  0  0  0  0  0  0  0  0  0
   31.4703  -30.9308  -18.5449 N   0  0  0  0  0  0  0  0  0  0  0  0
   27.9054  -25.1801  -17.7040 C   0  0  0  0  0  0  0  0  0  0  0  0
   27.8249  -25.3018  -16.4726 O   0  0  0  0  0  0  0  0  0  0  0  0
   27.2515  -24.1065  -18.3275 N   0  0  0  0  0  0  0  0  0  0  0  0
   26.3805  -23.1777  -17.6972 C   0  0  1  0  0  0  0  0  0  0  0  0
   26.6092  -21.7437  -18.0339 C   0  0  0  0  0  0  0  0  0  0  0  0
   25.7281  -20.8445  -17.2894 C   0  0  0  0  0  0  0  0  0  0  0  0
   24.7904  -20.2187  -17.8742 O   0  0  0  0  0  0  0  0  0  0  0  0
   24.9859  -23.5298  -18.0047 C   0  0  0  0  0  0  0  0  0  0  0  0
   24.5416  -23.3875  -19.1971 O   0  0  0  0  0  0  0  0  0  0  0  0
   25.8551  -20.6203  -15.9290 O   0  0  0  0  0  0  0  0  0  0  0  0
   22.1389  -26.3260  -19.5124 C   0  0  0  0  0  0  0  0  0  0  0  0
   22.6941  -26.6140  -18.1269 C   0  0  2  0  0  0  0  0  0  0  0  0
   22.5762  -28.0280  -17.7251 C   0  0  0  0  0  0  0  0  0  0  0  0
   22.2861  -25.6041  -17.1317 C   0  0  0  0  0  0  0  0  0  0  0  0
   22.6170  -24.1730  -17.3670 C   0  0  2  0  0  0  0  0  0  0  0  0
   24.0646  -24.0291  -17.0598 N   0  0  0  0  0  0  0  0  0  0  0  0
   21.9368  -23.2228  -16.4741 C   0  0  0  0  0  0  0  0  0  0  0  0
   22.4924  -22.5251  -15.5876 O   0  0  0  0  0  0  0  0  0  0  0  0
   20.5392  -23.0201  -16.5583 O   0  0  0  0  0  0  0  0  0  0  0  0
  2  1  1  6
  2  3  1  0
  3  4  1  0
  5  4  1  0
  6  7  1  0
  6  5  1  0
  8  2  1  0
  8  9  2  0
 10  8  1  0
 11 10  1  0
 11 12  1  6
 13 12  1  0
 13 17  1  0
 14 13  2  0
 15 11  1  0
 16 15  2  0
 19 18  1  6
 19 21  1  0
 20 19  1  0
 22 21  1  1
 22 23  1  0
 23 15  1  0
 24 22  1  0
 25 24  2  0
 26 24  1  0
M  END
$$$$
