KDL.pdb
     RDKit          3D

 26 25  0  0  1  0  0  0  0  0999 V2000
   27.2449  -20.8822  -14.6545 N   0  0  0  0  0  0  0  0  0  0  0  0
   27.8856  -19.7731  -13.9779 C   0  0  1  0  0  0  0  0  0  0  0  0
   27.8485  -18.4994  -14.7900 C   0  0  0  0  0  0  0  0  0  0  0  0
   27.0372  -18.5927  -16.0351 C   0  0  0  0  0  0  0  0  0  0  0  0
   25.5544  -18.6665  -15.8575 C   0  0  0  0  0  0  0  0  0  0  0  0
   24.8806  -18.8290  -17.2149 C   0  0  0  0  0  0  0  0  0  0  0  0
   23.4654  -19.0974  -17.0636 N   0  0  0  0  0  0  0  0  0  0  0  0
   27.1519  -19.4912  -12.7267 C   0  0  0  0  0  0  0  0  0  0  0  0
   27.3453  -18.4194  -12.1338 O   0  0  0  0  0  0  0  0  0  0  0  0
   26.2379  -20.4115  -12.1913 N   0  0  0  0  0  0  0  0  0  0  0  0
   25.4673  -20.2348  -11.0108 C   0  0  1  0  0  0  0  0  0  0  0  0
   24.1392  -20.9114  -10.9968 C   0  0  0  0  0  0  0  0  0  0  0  0
   23.2900  -20.5050  -12.1162 C   0  0  0  0  0  0  0  0  0  0  0  0
   23.1722  -19.2812  -12.4344 O   0  0  0  0  0  0  0  0  0  0  0  0
   26.2484  -20.6797   -9.8466 C   0  0  0  0  0  0  0  0  0  0  0  0
   26.9924  -21.7178   -9.9383 O   0  0  0  0  0  0  0  0  0  0  0  0
   22.5741  -21.4066  -12.8854 O   0  0  0  0  0  0  0  0  0  0  0  0
   27.8622  -20.1177   -4.6006 C   0  0  0  0  0  0  0  0  0  0  0  0
   28.6946  -19.5936   -5.7597 C   0  0  2  0  0  0  0  0  0  0  0  0
   29.5747  -18.4683   -5.3940 C   0  0  0  0  0  0  0  0  0  0  0  0
   27.9098  -19.4475   -7.0005 C   0  0  0  0  0  0  0  0  0  0  0  0
   27.0153  -20.5549   -7.4323 C   0  0  2  0  0  0  0  0  0  0  0  0
   26.2449  -20.0335   -8.5922 N   0  0  0  0  0  0  0  0  0  0  0  0
   26.0017  -20.9562   -6.4451 C   0  0  0  0  0  0  0  0  0  0  0  0
   24.8439  -20.4754   -6.3479 O   0  0  0  0  0  0  0  0  0  0  0  0
   26.2770  -21.9627   -5.4897 O   0  0  0  0  0  0  0  0  0  0  0  0
  2  1  1  6
  2  3  1  0
  3  4  1  0
  5  4  1  0
  6  7  1  0
  6  5  1  0
  8  2  1  0
  8  9  2  0
 10  8  1  0
 11 10  1  0
 11 12  1  6
 13 12  1  0
 13 17  1  0
 14 13  2  0
 15 11  1  0
 16 15  2  0
 19 18  1  1
 19 21  1  0
 20 19  1  0
 22 21  1  1
 22 23  1  0
 23 15  1  0
 24 22  1  0
 25 24  2  0
 26 24  1  0
M  END
$$$$
