KDL.pdb
     RDKit          3D

 26 25  0  0  1  0  0  0  0  0999 V2000
   25.0042  -22.4885  -15.3759 N   0  0  0  0  0  0  0  0  0  0  0  0
   23.8159  -23.2987  -15.5486 C   0  0  1  0  0  0  0  0  0  0  0  0
   24.0144  -24.7241  -15.0879 C   0  0  0  0  0  0  0  0  0  0  0  0
   25.3532  -25.2896  -15.4121 C   0  0  0  0  0  0  0  0  0  0  0  0
   25.5865  -25.6670  -16.8400 C   0  0  0  0  0  0  0  0  0  0  0  0
   26.9824  -26.2591  -16.9947 C   0  0  0  0  0  0  0  0  0  0  0  0
   27.2447  -26.6179  -18.3732 N   0  0  0  0  0  0  0  0  0  0  0  0
   22.7326  -22.7383  -14.7146 C   0  0  0  0  0  0  0  0  0  0  0  0
   23.0119  -21.9457  -13.8028 O   0  0  0  0  0  0  0  0  0  0  0  0
   21.3898  -23.0833  -14.9309 N   0  0  0  0  0  0  0  0  0  0  0  0
   20.2621  -22.4915  -14.3009 C   0  0  1  0  0  0  0  0  0  0  0  0
   19.3892  -21.6632  -15.1806 C   0  0  0  0  0  0  0  0  0  0  0  0
   18.2573  -21.0804  -14.4605 C   0  0  0  0  0  0  0  0  0  0  0  0
   18.4198  -20.5267  -13.3291 O   0  0  0  0  0  0  0  0  0  0  0  0
   19.4510  -23.5411  -13.6655 C   0  0  0  0  0  0  0  0  0  0  0  0
   19.1598  -24.6033  -14.3185 O   0  0  0  0  0  0  0  0  0  0  0  0
   16.9633  -21.0936  -14.9527 O   0  0  0  0  0  0  0  0  0  0  0  0
   19.1074  -26.6211   -9.9045 C   0  0  0  0  0  0  0  0  0  0  0  0
   19.0719  -25.1655   -9.4675 C   0  0  2  0  0  0  0  0  0  0  0  0
   18.9902  -24.9890   -8.0057 C   0  0  0  0  0  0  0  0  0  0  0  0
   18.1561  -24.3497  -10.2876 C   0  0  0  0  0  0  0  0  0  0  0  0
   18.1179  -24.5543  -11.7606 C   0  0  2  0  0  0  0  0  0  0  0  0
   18.9492  -23.4708  -12.3486 N   0  0  0  0  0  0  0  0  0  0  0  0
   16.7910  -24.3992  -12.3756 C   0  0  0  0  0  0  0  0  0  0  0  0
   16.1617  -23.3172  -12.4955 O   0  0  0  0  0  0  0  0  0  0  0  0
   16.0990  -25.5159  -12.9006 O   0  0  0  0  0  0  0  0  0  0  0  0
  2  1  1  1
  2  3  1  0
  3  4  1  0
  5  4  1  0
  6  7  1  0
  6  5  1  0
  8  2  1  0
  8  9  2  0
 10  8  1  0
 11 10  1  0
 11 12  1  6
 13 12  1  0
 13 17  1  0
 14 13  2  0
 15 11  1  0
 16 15  2  0
 19 18  1  1
 19 21  1  0
 20 19  1  0
 22 21  1  1
 22 23  1  0
 23 15  1  0
 24 22  1  0
 25 24  2  0
 26 24  1  0
M  END
$$$$
