KDL.pdb
     RDKit          3D

 26 25  0  0  1  0  0  0  0  0999 V2000
   22.4818  -16.6798  -18.2646 N   0  0  0  0  0  0  0  0  0  0  0  0
   22.8920  -16.9443  -16.9007 C   0  0  1  0  0  0  0  0  0  0  0  0
   21.7284  -16.9527  -15.9368 C   0  0  0  0  0  0  0  0  0  0  0  0
   20.4858  -17.5630  -16.4851 C   0  0  0  0  0  0  0  0  0  0  0  0
   20.0982  -18.8950  -15.9273 C   0  0  0  0  0  0  0  0  0  0  0  0
   18.7740  -19.3423  -16.5349 C   0  0  0  0  0  0  0  0  0  0  0  0
   18.4180  -20.6717  -16.0837 N   0  0  0  0  0  0  0  0  0  0  0  0
   23.4948  -18.2920  -16.8381 C   0  0  0  0  0  0  0  0  0  0  0  0
   23.0493  -19.1943  -17.5626 O   0  0  0  0  0  0  0  0  0  0  0  0
   24.5636  -18.5759  -15.9744 N   0  0  0  0  0  0  0  0  0  0  0  0
   25.2532  -19.8142  -15.8759 C   0  0  1  0  0  0  0  0  0  0  0  0
   26.7276  -19.7206  -15.6775 C   0  0  0  0  0  0  0  0  0  0  0  0
   27.3832  -21.0277  -15.7125 C   0  0  0  0  0  0  0  0  0  0  0  0
   27.2302  -21.8073  -16.7033 O   0  0  0  0  0  0  0  0  0  0  0  0
   24.6690  -20.6133  -14.7880 C   0  0  0  0  0  0  0  0  0  0  0  0
   25.2137  -21.7214  -14.4489 O   0  0  0  0  0  0  0  0  0  0  0  0
   28.1950  -21.4914  -14.6913 O   0  0  0  0  0  0  0  0  0  0  0  0
   25.1160  -22.5851  -11.4256 C   0  0  0  0  0  0  0  0  0  0  0  0
   25.0154  -21.0688  -11.3846 C   0  0  2  0  0  0  0  0  0  0  0  0
   25.6723  -20.4644  -10.2108 C   0  0  0  0  0  0  0  0  0  0  0  0
   23.6621  -20.5814  -11.7132 C   0  0  0  0  0  0  0  0  0  0  0  0
   22.9888  -21.0738  -12.9449 C   0  0  2  0  0  0  0  0  0  0  0  0
   23.5163  -20.2461  -14.0617 N   0  0  0  0  0  0  0  0  0  0  0  0
   21.5313  -20.8800  -12.9763 C   0  0  0  0  0  0  0  0  0  0  0  0
   20.6837  -21.6056  -12.3963 O   0  0  0  0  0  0  0  0  0  0  0  0
   20.9566  -19.8080  -13.6989 O   0  0  0  0  0  0  0  0  0  0  0  0
  2  1  1  6
  2  3  1  0
  3  4  1  0
  5  4  1  0
  6  7  1  0
  6  5  1  0
  8  2  1  0
  8  9  2  0
 10  8  1  0
 11 10  1  0
 11 12  1  1
 13 12  1  0
 13 17  1  0
 14 13  2  0
 15 11  1  0
 16 15  2  0
 19 18  1  1
 19 21  1  0
 20 19  1  0
 22 21  1  1
 22 23  1  0
 23 15  1  0
 24 22  1  0
 25 24  2  0
 26 24  1  0
M  END
$$$$
