KDL.pdb
     RDKit          3D

 26 25  0  0  1  0  0  0  0  0999 V2000
   23.8279  -24.8378  -15.5814 N   0  0  0  0  0  0  0  0  0  0  0  0
   24.6280  -24.3104  -16.6678 C   0  0  1  0  0  0  0  0  0  0  0  0
   24.2434  -24.8946  -18.0072 C   0  0  0  0  0  0  0  0  0  0  0  0
   24.6774  -26.3051  -18.2053 C   0  0  0  0  0  0  0  0  0  0  0  0
   23.8039  -27.3593  -17.6042 C   0  0  0  0  0  0  0  0  0  0  0  0
   24.3715  -28.7387  -17.9174 C   0  0  0  0  0  0  0  0  0  0  0  0
   23.5613  -29.7813  -17.3222 N   0  0  0  0  0  0  0  0  0  0  0  0
   24.3961  -22.8544  -16.7661 C   0  0  0  0  0  0  0  0  0  0  0  0
   24.9179  -22.2142  -17.6909 O   0  0  0  0  0  0  0  0  0  0  0  0
   23.5962  -22.1764  -15.8336 N   0  0  0  0  0  0  0  0  0  0  0  0
   23.2992  -20.7871  -15.8399 C   0  0  1  0  0  0  0  0  0  0  0  0
   21.8607  -20.4314  -15.6782 C   0  0  0  0  0  0  0  0  0  0  0  0
   21.2099  -21.1933  -14.6127 C   0  0  0  0  0  0  0  0  0  0  0  0
   20.0062  -20.9569  -14.2840 O   0  0  0  0  0  0  0  0  0  0  0  0
   24.0836  -20.1153  -14.7926 C   0  0  0  0  0  0  0  0  0  0  0  0
   23.4835  -19.5279  -13.8260 O   0  0  0  0  0  0  0  0  0  0  0  0
   21.8482  -22.1995  -13.9076 O   0  0  0  0  0  0  0  0  0  0  0  0
   26.8858  -19.1438  -10.7756 C   0  0  0  0  0  0  0  0  0  0  0  0
   25.8059  -20.1713  -11.0740 C   0  0  2  0  0  0  0  0  0  0  0  0
   25.6846  -21.2179  -10.0422 C   0  0  0  0  0  0  0  0  0  0  0  0
   25.8251  -20.6219  -12.4788 C   0  0  0  0  0  0  0  0  0  0  0  0
   26.2461  -19.6723  -13.5436 C   0  0  2  0  0  0  0  0  0  0  0  0
   25.4934  -20.0630  -14.7650 N   0  0  0  0  0  0  0  0  0  0  0  0
   27.6648  -19.7525  -13.9227 C   0  0  0  0  0  0  0  0  0  0  0  0
   28.5580  -18.9310  -13.5935 O   0  0  0  0  0  0  0  0  0  0  0  0
   28.1432  -20.8153  -14.7247 O   0  0  0  0  0  0  0  0  0  0  0  0
  2  1  1  1
  2  3  1  0
  3  4  1  0
  5  4  1  0
  6  7  1  0
  6  5  1  0
  8  2  1  0
  8  9  2  0
 10  8  1  0
 11 10  1  0
 11 12  1  1
 13 12  1  0
 13 17  1  0
 14 13  2  0
 15 11  1  0
 16 15  2  0
 19 18  1  1
 19 21  1  0
 20 19  1  0
 22 21  1  1
 22 23  1  0
 23 15  1  0
 24 22  1  0
 25 24  2  0
 26 24  1  0
M  END
$$$$
