KDL.pdb
     RDKit          3D

 26 25  0  0  1  0  0  0  0  0999 V2000
   24.1575  -17.9478  -15.7424 N   0  0  0  0  0  0  0  0  0  0  0  0
   23.4454  -19.2082  -15.6876 C   0  0  1  0  0  0  0  0  0  0  0  0
   22.6234  -19.4638  -16.9294 C   0  0  0  0  0  0  0  0  0  0  0  0
   21.4983  -18.5080  -17.1242 C   0  0  0  0  0  0  0  0  0  0  0  0
   20.7386  -18.1177  -15.8971 C   0  0  0  0  0  0  0  0  0  0  0  0
   19.5225  -17.2858  -16.2870 C   0  0  0  0  0  0  0  0  0  0  0  0
   18.6889  -17.0124  -15.1347 N   0  0  0  0  0  0  0  0  0  0  0  0
   24.4295  -20.3074  -15.6056 C   0  0  0  0  0  0  0  0  0  0  0  0
   24.0776  -21.4637  -15.8827 O   0  0  0  0  0  0  0  0  0  0  0  0
   25.7580  -20.0727  -15.2198 N   0  0  0  0  0  0  0  0  0  0  0  0
   26.7581  -21.0618  -15.0198 C   0  0  1  0  0  0  0  0  0  0  0  0
   28.1422  -20.6723  -15.4129 C   0  0  0  0  0  0  0  0  0  0  0  0
   28.2078  -20.1208  -16.7660 C   0  0  0  0  0  0  0  0  0  0  0  0
   28.0718  -20.8699  -17.7825 O   0  0  0  0  0  0  0  0  0  0  0  0
   26.7560  -21.4803  -13.6098 C   0  0  0  0  0  0  0  0  0  0  0  0
   27.5448  -22.4110  -13.2209 O   0  0  0  0  0  0  0  0  0  0  0  0
   28.4180  -18.7766  -17.0228 O   0  0  0  0  0  0  0  0  0  0  0  0
   26.6681  -20.4792   -8.3929 C   0  0  0  0  0  0  0  0  0  0  0  0
   27.6819  -21.1719   -9.2892 C   0  0  2  0  0  0  0  0  0  0  0  0
   29.0822  -20.9272   -8.8968 C   0  0  0  0  0  0  0  0  0  0  0  0
   27.3594  -21.0336  -10.7222 C   0  0  0  0  0  0  0  0  0  0  0  0
   25.9874  -21.3596  -11.1958 C   0  0  2  0  0  0  0  0  0  0  0  0
   25.9264  -20.9205  -12.6151 N   0  0  0  0  0  0  0  0  0  0  0  0
   24.9060  -20.6280  -10.5190 C   0  0  0  0  0  0  0  0  0  0  0  0
   24.5271  -19.4612  -10.7949 O   0  0  0  0  0  0  0  0  0  0  0  0
   24.1824  -21.2202   -9.4572 O   0  0  0  0  0  0  0  0  0  0  0  0
  2  1  1  6
  2  3  1  0
  3  4  1  0
  5  4  1  0
  6  7  1  0
  6  5  1  0
  8  2  1  0
  8  9  2  0
 10  8  1  0
 11 10  1  0
 11 12  1  1
 13 12  1  0
 13 17  1  0
 14 13  2  0
 15 11  1  0
 16 15  2  0
 19 18  1  1
 19 21  1  0
 20 19  1  0
 22 21  1  1
 22 23  1  0
 23 15  1  0
 24 22  1  0
 25 24  2  0
 26 24  1  0
M  END
$$$$
