KDL.pdb
     RDKit          3D

 26 25  0  0  1  0  0  0  0  0999 V2000
   26.6082  -22.0022  -14.1937 N   0  0  0  0  0  0  0  0  0  0  0  0
   27.5483  -20.9326  -13.9279 C   0  0  1  0  0  0  0  0  0  0  0  0
   27.6368  -19.9428  -15.0661 C   0  0  0  0  0  0  0  0  0  0  0  0
   26.5496  -20.0738  -16.0750 C   0  0  0  0  0  0  0  0  0  0  0  0
   26.1024  -21.4648  -16.3925 C   0  0  0  0  0  0  0  0  0  0  0  0
   25.0984  -21.4340  -17.5388 C   0  0  0  0  0  0  0  0  0  0  0  0
   24.6091  -22.7642  -17.8367 N   0  0  0  0  0  0  0  0  0  0  0  0
   27.0831  -20.1722  -12.7495 C   0  0  0  0  0  0  0  0  0  0  0  0
   27.7071  -19.1633  -12.3886 O   0  0  0  0  0  0  0  0  0  0  0  0
   25.9473  -20.5666  -12.0260 N   0  0  0  0  0  0  0  0  0  0  0  0
   25.4512  -19.9499  -10.8461 C   0  0  1  0  0  0  0  0  0  0  0  0
   23.9688  -19.8223  -10.7560 C   0  0  0  0  0  0  0  0  0  0  0  0
   23.2932  -20.2412  -11.9837 C   0  0  0  0  0  0  0  0  0  0  0  0
   23.9562  -20.5143  -13.0320 O   0  0  0  0  0  0  0  0  0  0  0  0
   25.9458  -20.6794   -9.6687 C   0  0  0  0  0  0  0  0  0  0  0  0
   26.2699  -21.9137   -9.7745 O   0  0  0  0  0  0  0  0  0  0  0  0
   21.9177  -20.3647  -12.0828 O   0  0  0  0  0  0  0  0  0  0  0  0
   29.3412  -20.8683   -6.0284 C   0  0  0  0  0  0  0  0  0  0  0  0
   28.4801  -19.6223   -6.1586 C   0  0  2  0  0  0  0  0  0  0  0  0
   28.8912  -18.5237   -5.2649 C   0  0  0  0  0  0  0  0  0  0  0  0
   27.0387  -19.9325   -6.2110 C   0  0  0  0  0  0  0  0  0  0  0  0
   26.5392  -20.9112   -7.2138 C   0  0  2  0  0  0  0  0  0  0  0  0
   26.0978  -20.1106   -8.3864 N   0  0  0  0  0  0  0  0  0  0  0  0
   25.3526  -21.6749   -6.7995 C   0  0  0  0  0  0  0  0  0  0  0  0
   24.1624  -21.3943   -7.0926 O   0  0  0  0  0  0  0  0  0  0  0  0
   25.4787  -22.8369   -6.0023 O   0  0  0  0  0  0  0  0  0  0  0  0
  2  1  1  6
  2  3  1  0
  3  4  1  0
  5  4  1  0
  6  7  1  0
  6  5  1  0
  8  2  1  0
  8  9  2  0
 10  8  1  0
 11 10  1  0
 11 12  1  6
 13 12  1  0
 13 17  1  0
 14 13  2  0
 15 11  1  0
 16 15  2  0
 19 18  1  1
 19 21  1  0
 20 19  1  0
 22 21  1  1
 22 23  1  0
 23 15  1  0
 24 22  1  0
 25 24  2  0
 26 24  1  0
M  END
$$$$
