KDL.pdb
     RDKit          3D

 26 25  0  0  1  0  0  0  0  0999 V2000
   13.4777  -17.6445    4.2116 N   0  0  0  0  0  0  0  0  0  0  0  0
   14.4280  -18.2914    5.0931 C   0  0  1  0  0  0  0  0  0  0  0  0
   15.4289  -19.1398    4.3438 C   0  0  0  0  0  0  0  0  0  0  0  0
   14.8635  -20.3971    3.7810 C   0  0  0  0  0  0  0  0  0  0  0  0
   15.7985  -21.2454    2.9799 C   0  0  0  0  0  0  0  0  0  0  0  0
   15.0828  -22.5114    2.5238 C   0  0  0  0  0  0  0  0  0  0  0  0
   15.9805  -23.3807    1.7918 N   0  0  0  0  0  0  0  0  0  0  0  0
   15.2071  -17.2522    5.7977 C   0  0  0  0  0  0  0  0  0  0  0  0
   14.9087  -16.0582    5.6468 O   0  0  0  0  0  0  0  0  0  0  0  0
   16.2812  -17.5861    6.6366 N   0  0  0  0  0  0  0  0  0  0  0  0
   16.7940  -16.7901    7.6959 C   0  0  1  0  0  0  0  0  0  0  0  0
   16.6676  -17.3713    9.0627 C   0  0  0  0  0  0  0  0  0  0  0  0
   16.9614  -16.3996   10.1157 C   0  0  0  0  0  0  0  0  0  0  0  0
   17.1176  -15.1692    9.8422 O   0  0  0  0  0  0  0  0  0  0  0  0
   18.2069  -16.4780    7.4323 C   0  0  0  0  0  0  0  0  0  0  0  0
   18.9846  -17.3860    6.9738 O   0  0  0  0  0  0  0  0  0  0  0  0
   17.0862  -16.7483   11.4498 O   0  0  0  0  0  0  0  0  0  0  0  0
   20.1517  -13.0852    5.0780 C   0  0  0  0  0  0  0  0  0  0  0  0
   19.8394  -12.6206    6.4914 C   0  0  2  0  0  0  0  0  0  0  0  0
   19.9977  -11.1672    6.6844 C   0  0  0  0  0  0  0  0  0  0  0  0
   20.4331  -13.4961    7.5199 C   0  0  0  0  0  0  0  0  0  0  0  0
   20.2450  -14.9684    7.4214 C   0  0  2  0  0  0  0  0  0  0  0  0
   18.7968  -15.2150    7.6513 N   0  0  0  0  0  0  0  0  0  0  0  0
   20.9386  -15.7542    8.4531 C   0  0  0  0  0  0  0  0  0  0  0  0
   20.4135  -16.2151    9.4986 O   0  0  0  0  0  0  0  0  0  0  0  0
   22.3146  -16.0596    8.3306 O   0  0  0  0  0  0  0  0  0  0  0  0
  2  1  1  6
  2  3  1  0
  3  4  1  0
  5  4  1  0
  6  7  1  0
  6  5  1  0
  8  2  1  0
  8  9  2  0
 10  8  1  0
 11 10  1  0
 11 12  1  1
 13 12  1  0
 13 17  1  0
 14 13  2  0
 15 11  1  0
 16 15  2  0
 19 18  1  6
 19 21  1  0
 20 19  1  0
 22 21  1  1
 22 23  1  0
 23 15  1  0
 24 22  1  0
 25 24  2  0
 26 24  1  0
M  END
$$$$
