KDL.pdb
     RDKit          3D

 26 25  0  0  1  0  0  0  0  0999 V2000
   18.2635  -24.5397  -14.3963 N   0  0  0  0  0  0  0  0  0  0  0  0
   18.9225  -23.3146  -14.8003 C   0  0  1  0  0  0  0  0  0  0  0  0
   18.4658  -22.1189  -13.9972 C   0  0  0  0  0  0  0  0  0  0  0  0
   17.4790  -21.2527  -14.6994 C   0  0  0  0  0  0  0  0  0  0  0  0
   16.2680  -21.9361  -15.2488 C   0  0  0  0  0  0  0  0  0  0  0  0
   15.3417  -20.9081  -15.8876 C   0  0  0  0  0  0  0  0  0  0  0  0
   14.5525  -20.2250  -14.8835 N   0  0  0  0  0  0  0  0  0  0  0  0
   20.3732  -23.4516  -14.5553 C   0  0  0  0  0  0  0  0  0  0  0  0
   20.7707  -23.8553  -13.4523 O   0  0  0  0  0  0  0  0  0  0  0  0
   21.3156  -23.1342  -15.5454 N   0  0  0  0  0  0  0  0  0  0  0  0
   22.7252  -23.2713  -15.4332 C   0  0  1  0  0  0  0  0  0  0  0  0
   23.4546  -23.5285  -16.7075 C   0  0  0  0  0  0  0  0  0  0  0  0
   22.6330  -23.2638  -17.8883 C   0  0  0  0  0  0  0  0  0  0  0  0
   21.4126  -23.6133  -17.9250 O   0  0  0  0  0  0  0  0  0  0  0  0
   23.2830  -22.0714  -14.7910 C   0  0  0  0  0  0  0  0  0  0  0  0
   22.6263  -20.9725  -14.8161 O   0  0  0  0  0  0  0  0  0  0  0  0
   23.1199  -22.6297  -19.0187 O   0  0  0  0  0  0  0  0  0  0  0  0
   24.6461  -20.1162  -10.5516 C   0  0  0  0  0  0  0  0  0  0  0  0
   25.3924  -21.3670  -10.9870 C   0  0  2  0  0  0  0  0  0  0  0  0
   26.3103  -21.8950   -9.9606 C   0  0  0  0  0  0  0  0  0  0  0  0
   25.9206  -21.2625  -12.3606 C   0  0  0  0  0  0  0  0  0  0  0  0
   25.0236  -20.8007  -13.4538 C   0  0  2  0  0  0  0  0  0  0  0  0
   24.5269  -22.0304  -14.1260 N   0  0  0  0  0  0  0  0  0  0  0  0
   25.6838  -20.0223  -14.5126 C   0  0  0  0  0  0  0  0  0  0  0  0
   25.9091  -18.7856  -14.4796 O   0  0  0  0  0  0  0  0  0  0  0  0
   26.1326  -20.6463  -15.7003 O   0  0  0  0  0  0  0  0  0  0  0  0
  2  1  1  1
  2  3  1  0
  3  4  1  0
  5  4  1  0
  6  7  1  0
  6  5  1  0
  8  2  1  0
  8  9  2  0
 10  8  1  0
 11 10  1  0
 11 12  1  6
 13 12  1  0
 13 17  1  0
 14 13  2  0
 15 11  1  0
 16 15  2  0
 19 18  1  1
 19 21  1  0
 20 19  1  0
 22 21  1  1
 22 23  1  0
 23 15  1  0
 24 22  1  0
 25 24  2  0
 26 24  1  0
M  END
$$$$
