YGQ.pdb
     RDKit          3D

 26 26  0  0  1  0  0  0  0  0999 V2000
   29.1520  -19.1754   -3.3866 O   0  0  0  0  0  0  0  0  0  0  0  0
   28.7634  -19.5275   -4.6749 C   0  0  0  0  0  0  0  0  0  0  0  0
   27.9969  -18.6897   -5.4571 C   0  0  0  0  0  0  0  0  0  0  0  0
   27.6241  -19.0612   -6.7317 C   0  0  0  0  0  0  0  0  0  0  0  0
   28.0005  -20.2900   -7.2859 C   0  0  0  0  0  0  0  0  0  0  0  0
   27.5722  -20.6170   -8.6359 C   0  0  0  0  0  0  0  0  0  0  0  0
   26.2435  -20.1136   -9.0824 C   0  0  2  0  0  0  0  0  0  0  0  0
   25.2734  -21.0249   -8.4360 N   0  0  0  0  0  0  0  0  0  0  0  0
   26.1407  -20.1763  -10.5381 C   0  0  0  0  0  0  0  0  0  0  0  0
   27.0920  -19.6589  -11.2168 O   0  0  0  0  0  0  0  0  0  0  0  0
   28.7658  -21.1107   -6.4869 C   0  0  0  0  0  0  0  0  0  0  0  0
   29.1378  -20.7400   -5.2149 C   0  0  0  0  0  0  0  0  0  0  0  0
   25.0796  -20.7622  -11.2623 N   0  0  0  0  0  0  0  0  0  0  0  0
   24.9412  -20.6993  -12.6766 C   0  0  0  0  0  0  0  0  0  0  0  0
   23.7163  -21.3532  -13.1200 C   0  0  0  0  0  0  0  0  0  0  0  0
   23.7569  -22.1744  -14.0964 O   0  0  0  0  0  0  0  0  0  0  0  0
   19.6520  -23.2871   -9.3597 N   0  0  0  0  0  0  0  0  0  0  0  0
   18.8362  -23.5069  -10.5018 C   0  0  0  0  0  0  0  0  0  0  0  0
   17.7281  -24.0554  -10.3590 O   0  0  0  0  0  0  0  0  0  0  0  0
   19.3165  -23.0792  -11.8510 C   0  0  0  0  0  0  0  0  0  0  0  0
   20.6210  -22.3691  -11.6715 C   0  0  0  0  0  0  0  0  0  0  0  0
   21.3048  -21.9697  -12.9425 C   0  0  2  0  0  0  0  0  0  0  0  0
   22.4579  -21.1376  -12.5383 N   0  0  0  0  0  0  0  0  0  0  0  0
   20.4010  -21.1354  -13.7565 C   0  0  0  0  0  0  0  0  0  0  0  0
   20.2860  -19.7867  -13.4758 O   0  0  0  0  0  0  0  0  0  0  0  0
   19.7284  -21.6090  -14.7006 O   0  0  0  0  0  0  0  0  0  0  0  0
  2  1  1  0
  3  2  2  0
  4  3  1  0
  5  4  2  0
  5 11  1  0
  6  5  1  0
  7  6  1  0
  7  8  1  1
  9  7  1  0
  9 10  2  0
 11 12  2  0
 12  2  1  0
 13  9  1  0
 14 13  1  0
 15 14  1  0
 16 15  2  0
 17 18  1  0
 18 19  2  0
 18 20  1  0
 20 21  1  0
 22 21  1  1
 22 23  1  0
 22 24  1  0
 23 15  1  0
 24 25  1  0
 26 24  2  0
M  END
$$$$
