YGQ.pdb
     RDKit          3D

 26 26  0  0  1  0  0  0  0  0999 V2000
   18.0986  -19.2277  -18.4226 O   0  0  0  0  0  0  0  0  0  0  0  0
   18.2675  -17.8479  -18.3749 C   0  0  0  0  0  0  0  0  0  0  0  0
   17.2591  -17.0065  -17.9545 C   0  0  0  0  0  0  0  0  0  0  0  0
   17.4507  -15.6415  -17.9159 C   0  0  0  0  0  0  0  0  0  0  0  0
   18.6615  -15.0515  -18.2963 C   0  0  0  0  0  0  0  0  0  0  0  0
   18.7941  -13.6055  -18.2306 C   0  0  0  0  0  0  0  0  0  0  0  0
   19.6926  -13.0387  -17.1869 C   0  0  2  0  0  0  0  0  0  0  0  0
   19.0444  -13.4083  -15.9092 N   0  0  0  0  0  0  0  0  0  0  0  0
   19.7875  -11.5884  -17.3328 C   0  0  0  0  0  0  0  0  0  0  0  0
   20.3482  -11.1400  -18.3901 O   0  0  0  0  0  0  0  0  0  0  0  0
   19.6544  -15.9107  -18.7126 C   0  0  0  0  0  0  0  0  0  0  0  0
   19.4634  -17.2730  -18.7512 C   0  0  0  0  0  0  0  0  0  0  0  0
   19.3105  -10.6365  -16.4055 N   0  0  0  0  0  0  0  0  0  0  0  0
   19.3576   -9.2286  -16.6035 C   0  0  0  0  0  0  0  0  0  0  0  0
   20.2119   -8.5816  -15.6156 C   0  0  0  0  0  0  0  0  0  0  0  0
   21.0646   -9.2756  -14.9669 O   0  0  0  0  0  0  0  0  0  0  0  0
   23.8991   -4.6074  -14.7848 N   0  0  0  0  0  0  0  0  0  0  0  0
   23.5131   -5.0432  -16.0808 C   0  0  0  0  0  0  0  0  0  0  0  0
   23.8608   -4.3774  -17.0731 O   0  0  0  0  0  0  0  0  0  0  0  0
   22.6996   -6.2878  -16.2340 C   0  0  0  0  0  0  0  0  0  0  0  0
   22.4693   -6.8580  -14.8702 C   0  0  0  0  0  0  0  0  0  0  0  0
   21.0944   -6.6418  -14.3173 C   0  0  2  0  0  0  0  0  0  0  0  0
   20.1627   -7.2124  -15.3132 N   0  0  0  0  0  0  0  0  0  0  0  0
   20.8200   -5.1967  -14.2088 C   0  0  0  0  0  0  0  0  0  0  0  0
   21.4763   -4.4519  -13.2467 O   0  0  0  0  0  0  0  0  0  0  0  0
   20.0070   -4.6153  -14.9632 O   0  0  0  0  0  0  0  0  0  0  0  0
  2  1  1  0
  3  2  2  0
  4  3  1  0
  5  4  2  0
  5 11  1  0
  6  5  1  0
  7  6  1  0
  7  8  1  1
  9  7  1  0
  9 10  2  0
 11 12  2  0
 12  2  1  0
 13  9  1  0
 14 13  1  0
 15 14  1  0
 16 15  2  0
 17 18  1  0
 18 19  2  0
 18 20  1  0
 20 21  1  0
 22 21  1  6
 22 23  1  0
 22 24  1  0
 23 15  1  0
 24 25  1  0
 26 24  2  0
M  END
$$$$
