YGQ.pdb
     RDKit          3D

 26 26  0  0  1  0  0  0  0  0999 V2000
   30.5430  -28.2658  -17.0579 O   0  0  0  0  0  0  0  0  0  0  0  0
   30.0678  -26.9847  -16.7979 C   0  0  0  0  0  0  0  0  0  0  0  0
   28.7514  -26.7529  -16.4591 C   0  0  0  0  0  0  0  0  0  0  0  0
   28.3039  -25.4734  -16.2058 C   0  0  0  0  0  0  0  0  0  0  0  0
   29.1525  -24.3629  -16.2792 C   0  0  0  0  0  0  0  0  0  0  0  0
   28.6135  -23.0422  -15.9994 C   0  0  0  0  0  0  0  0  0  0  0  0
   27.8435  -22.3650  -17.0794 C   0  0  2  0  0  0  0  0  0  0  0  0
   28.8811  -21.8765  -18.0144 N   0  0  0  0  0  0  0  0  0  0  0  0
   27.0634  -21.2594  -16.5291 C   0  0  0  0  0  0  0  0  0  0  0  0
   27.5756  -20.0903  -16.5933 O   0  0  0  0  0  0  0  0  0  0  0  0
   30.4628  -24.6178  -16.6191 C   0  0  0  0  0  0  0  0  0  0  0  0
   30.9095  -25.8947  -16.8720 C   0  0  0  0  0  0  0  0  0  0  0  0
   25.7886  -21.3704  -15.9324 N   0  0  0  0  0  0  0  0  0  0  0  0
   25.0442  -20.2729  -15.4178 C   0  0  0  0  0  0  0  0  0  0  0  0
   23.7179  -20.6895  -14.9797 C   0  0  0  0  0  0  0  0  0  0  0  0
   23.3246  -21.8829  -15.2043 O   0  0  0  0  0  0  0  0  0  0  0  0
   19.9825  -17.3723  -11.4365 N   0  0  0  0  0  0  0  0  0  0  0  0
   19.1823  -18.5448  -11.4935 C   0  0  0  0  0  0  0  0  0  0  0  0
   18.1181  -18.5845  -10.8495 O   0  0  0  0  0  0  0  0  0  0  0  0
   19.6266  -19.7076  -12.3208 C   0  0  0  0  0  0  0  0  0  0  0  0
   20.9775  -19.3869  -12.8780 C   0  0  0  0  0  0  0  0  0  0  0  0
   21.5046  -20.3769  -13.8703 C   0  0  2  0  0  0  0  0  0  0  0  0
   22.8131  -19.8499  -14.3127 N   0  0  0  0  0  0  0  0  0  0  0  0
   20.6129  -20.4327  -15.0438 C   0  0  0  0  0  0  0  0  0  0  0  0
   19.6520  -21.4237  -15.1192 O   0  0  0  0  0  0  0  0  0  0  0  0
   20.6958  -19.6078  -15.9823 O   0  0  0  0  0  0  0  0  0  0  0  0
  2  1  1  0
  3  2  2  0
  4  3  1  0
  5  4  2  0
  5 11  1  0
  6  5  1  0
  7  6  1  0
  7  8  1  6
  9  7  1  0
  9 10  2  0
 11 12  2  0
 12  2  1  0
 13  9  1  0
 14 13  1  0
 15 14  1  0
 16 15  2  0
 17 18  1  0
 18 19  2  0
 18 20  1  0
 20 21  1  0
 22 21  1  1
 22 23  1  0
 22 24  1  0
 23 15  1  0
 24 25  1  0
 26 24  2  0
M  END
$$$$
