YGQ.pdb
     RDKit          3D

 26 26  0  0  1  0  0  0  0  0999 V2000
   15.9875  -21.6766  -22.6596 O   0  0  0  0  0  0  0  0  0  0  0  0
   16.8506  -21.3518  -21.6183 C   0  0  0  0  0  0  0  0  0  0  0  0
   17.5823  -22.3136  -20.9542 C   0  0  0  0  0  0  0  0  0  0  0  0
   18.4316  -21.9667  -19.9247 C   0  0  0  0  0  0  0  0  0  0  0  0
   18.5901  -20.6396  -19.5094 C   0  0  0  0  0  0  0  0  0  0  0  0
   19.5028  -20.3455  -18.4169 C   0  0  0  0  0  0  0  0  0  0  0  0
   20.8260  -19.7540  -18.7595 C   0  0  2  0  0  0  0  0  0  0  0  0
   21.6029  -20.8905  -19.3021 N   0  0  0  0  0  0  0  0  0  0  0  0
   21.4592  -19.2019  -17.5646 C   0  0  0  0  0  0  0  0  0  0  0  0
   20.8225  -18.2943  -16.9288 O   0  0  0  0  0  0  0  0  0  0  0  0
   17.8497  -19.6959  -20.1866 C   0  0  0  0  0  0  0  0  0  0  0  0
   17.0021  -20.0420  -21.2140 C   0  0  0  0  0  0  0  0  0  0  0  0
   22.7160  -19.5862  -17.0487 N   0  0  0  0  0  0  0  0  0  0  0  0
   23.3022  -19.0416  -15.8726 C   0  0  0  0  0  0  0  0  0  0  0  0
   23.1207  -19.9276  -14.7295 C   0  0  0  0  0  0  0  0  0  0  0  0
   22.2344  -20.8450  -14.7762 O   0  0  0  0  0  0  0  0  0  0  0  0
   25.4447  -20.7162   -7.8616 N   0  0  0  0  0  0  0  0  0  0  0  0
   25.6680  -20.9283   -9.2486 C   0  0  0  0  0  0  0  0  0  0  0  0
   26.8207  -20.8091   -9.7024 O   0  0  0  0  0  0  0  0  0  0  0  0
   24.5227  -21.2894  -10.1384 C   0  0  0  0  0  0  0  0  0  0  0  0
   24.6407  -20.4810  -11.3918 C   0  0  0  0  0  0  0  0  0  0  0  0
   23.6558  -20.8289  -12.4649 C   0  0  2  0  0  0  0  0  0  0  0  0
   23.8678  -19.8419  -13.5450 N   0  0  0  0  0  0  0  0  0  0  0  0
   22.2815  -20.6629  -11.9560 C   0  0  0  0  0  0  0  0  0  0  0  0
   21.7425  -19.3936  -11.8594 O   0  0  0  0  0  0  0  0  0  0  0  0
   21.5794  -21.6387  -11.6053 O   0  0  0  0  0  0  0  0  0  0  0  0
  2  1  1  0
  3  2  2  0
  4  3  1  0
  5  4  2  0
  5 11  1  0
  6  5  1  0
  7  6  1  0
  7  8  1  1
  9  7  1  0
  9 10  2  0
 11 12  2  0
 12  2  1  0
 13  9  1  0
 14 13  1  0
 15 14  1  0
 16 15  2  0
 17 18  1  0
 18 19  2  0
 18 20  1  0
 20 21  1  0
 22 21  1  1
 22 23  1  0
 22 24  1  0
 23 15  1  0
 24 25  1  0
 26 24  2  0
M  END
$$$$
