YGQ.pdb
     RDKit          3D

 26 26  0  0  1  0  0  0  0  0999 V2000
   25.7841  -32.2222  -10.3899 O   0  0  0  0  0  0  0  0  0  0  0  0
   25.8793  -32.5619   -9.0445 C   0  0  0  0  0  0  0  0  0  0  0  0
   26.6414  -33.6283   -8.6164 C   0  0  0  0  0  0  0  0  0  0  0  0
   26.7200  -33.9454   -7.2767 C   0  0  0  0  0  0  0  0  0  0  0  0
   26.0394  -33.2102   -6.2995 C   0  0  0  0  0  0  0  0  0  0  0  0
   26.1672  -33.6004   -4.9051 C   0  0  0  0  0  0  0  0  0  0  0  0
   27.3863  -34.3572   -4.5063 C   0  0  2  0  0  0  0  0  0  0  0  0
   27.1848  -35.7034   -5.0864 N   0  0  0  0  0  0  0  0  0  0  0  0
   27.4917  -34.4179   -3.0507 C   0  0  0  0  0  0  0  0  0  0  0  0
   26.6164  -35.1094   -2.4269 O   0  0  0  0  0  0  0  0  0  0  0  0
   25.2844  -32.1496   -6.7497 C   0  0  0  0  0  0  0  0  0  0  0  0
   25.2059  -31.8331   -8.0866 C   0  0  0  0  0  0  0  0  0  0  0  0
   28.4804  -33.7789   -2.2711 N   0  0  0  0  0  0  0  0  0  0  0  0
   28.2059  -32.8479   -1.2313 C   0  0  0  0  0  0  0  0  0  0  0  0
   28.1941  -33.4972    0.0736 C   0  0  0  0  0  0  0  0  0  0  0  0
   28.3468  -34.7622    0.1508 O   0  0  0  0  0  0  0  0  0  0  0  0
   28.4311  -30.5354    5.4308 N   0  0  0  0  0  0  0  0  0  0  0  0
   28.6720  -31.8469    5.9210 C   0  0  0  0  0  0  0  0  0  0  0  0
   28.9866  -31.9997    7.1154 O   0  0  0  0  0  0  0  0  0  0  0  0
   28.5452  -33.0183    5.0014 C   0  0  0  0  0  0  0  0  0  0  0  0
   28.2569  -32.4972    3.6289 C   0  0  0  0  0  0  0  0  0  0  0  0
   28.1270  -33.5457    2.5677 C   0  0  2  0  0  0  0  0  0  0  0  0
   28.0186  -32.8151    1.2871 N   0  0  0  0  0  0  0  0  0  0  0  0
   26.8802  -34.3080    2.7670 C   0  0  0  0  0  0  0  0  0  0  0  0
   26.8485  -35.3240    3.7039 O   0  0  0  0  0  0  0  0  0  0  0  0
   25.8404  -34.0658    2.1124 O   0  0  0  0  0  0  0  0  0  0  0  0
  2  1  1  0
  3  2  2  0
  4  3  1  0
  5  4  2  0
  5 11  1  0
  6  5  1  0
  7  6  1  0
  7  8  1  1
  9  7  1  0
  9 10  2  0
 11 12  2  0
 12  2  1  0
 13  9  1  0
 14 13  1  0
 15 14  1  0
 16 15  2  0
 17 18  1  0
 18 19  2  0
 18 20  1  0
 20 21  1  0
 22 21  1  1
 22 23  1  0
 22 24  1  0
 23 15  1  0
 24 25  1  0
 26 24  2  0
M  END
$$$$
