YGQ.pdb
     RDKit          3D

 26 26  0  0  1  0  0  0  0  0999 V2000
   28.7669  -19.6449   -4.9184 O   0  0  0  0  0  0  0  0  0  0  0  0
   28.5044  -19.8036   -6.2751 C   0  0  0  0  0  0  0  0  0  0  0  0
   29.4741  -20.2304   -7.1577 C   0  0  0  0  0  0  0  0  0  0  0  0
   29.1895  -20.3801   -8.4986 C   0  0  0  0  0  0  0  0  0  0  0  0
   27.9199  -20.1099   -9.0219 C   0  0  0  0  0  0  0  0  0  0  0  0
   27.6899  -20.2893  -10.4460 C   0  0  0  0  0  0  0  0  0  0  0  0
   26.6828  -21.3042  -10.8628 C   0  0  2  0  0  0  0  0  0  0  0  0
   27.2899  -22.5980  -10.4790 N   0  0  0  0  0  0  0  0  0  0  0  0
   26.4568  -21.2320  -12.3040 C   0  0  0  0  0  0  0  0  0  0  0  0
   27.4874  -21.2009  -13.0592 O   0  0  0  0  0  0  0  0  0  0  0  0
   26.9671  -19.6849   -8.1224 C   0  0  0  0  0  0  0  0  0  0  0  0
   27.2510  -19.5355   -6.7842 C   0  0  0  0  0  0  0  0  0  0  0  0
   25.1952  -21.1952  -12.9370 N   0  0  0  0  0  0  0  0  0  0  0  0
   24.9895  -20.8357  -14.2979 C   0  0  0  0  0  0  0  0  0  0  0  0
   23.5737  -20.8543  -14.6439 C   0  0  0  0  0  0  0  0  0  0  0  0
   23.2038  -20.4885  -15.8096 O   0  0  0  0  0  0  0  0  0  0  0  0
   19.9628  -23.0746  -11.0019 N   0  0  0  0  0  0  0  0  0  0  0  0
   19.7685  -21.6882  -11.2439 C   0  0  0  0  0  0  0  0  0  0  0  0
   18.6125  -21.2272  -11.2351 O   0  0  0  0  0  0  0  0  0  0  0  0
   20.9476  -20.8073  -11.5040 C   0  0  0  0  0  0  0  0  0  0  0  0
   20.7162  -20.0995  -12.8017 C   0  0  0  0  0  0  0  0  0  0  0  0
   21.1575  -20.8503  -14.0200 C   0  0  2  0  0  0  0  0  0  0  0  0
   22.5567  -21.2528  -13.7633 N   0  0  0  0  0  0  0  0  0  0  0  0
   21.1463  -19.9543  -15.1915 C   0  0  0  0  0  0  0  0  0  0  0  0
   22.2724  -19.2087  -15.4862 O   0  0  0  0  0  0  0  0  0  0  0  0
   20.1448  -19.8440  -15.9351 O   0  0  0  0  0  0  0  0  0  0  0  0
  2  1  1  0
  3  2  2  0
  4  3  1  0
  5  4  2  0
  5 11  1  0
  6  5  1  0
  7  6  1  0
  7  8  1  6
  9  7  1  0
  9 10  2  0
 11 12  2  0
 12  2  1  0
 13  9  1  0
 14 13  1  0
 15 14  1  0
 16 15  2  0
 17 18  1  0
 18 19  2  0
 18 20  1  0
 20 21  1  0
 22 21  1  1
 22 23  1  0
 22 24  1  0
 23 15  1  0
 24 25  1  0
 26 24  2  0
M  END
$$$$
