YGQ.pdb
     RDKit          3D

 26 26  0  0  1  0  0  0  0  0999 V2000
   23.0726  -17.7987  -20.4382 O   0  0  0  0  0  0  0  0  0  0  0  0
   22.5416  -18.1145  -19.1920 C   0  0  0  0  0  0  0  0  0  0  0  0
   21.1835  -18.0929  -18.9542 C   0  0  0  0  0  0  0  0  0  0  0  0
   20.6811  -18.4100  -17.7098 C   0  0  0  0  0  0  0  0  0  0  0  0
   21.5137  -18.7644  -16.6421 C   0  0  0  0  0  0  0  0  0  0  0  0
   20.9159  -19.0868  -15.3569 C   0  0  0  0  0  0  0  0  0  0  0  0
   20.8353  -20.5229  -14.9709 C   0  0  2  0  0  0  0  0  0  0  0  0
   19.8666  -21.1027  -15.9273 N   0  0  0  0  0  0  0  0  0  0  0  0
   20.3631  -20.6521  -13.5947 C   0  0  0  0  0  0  0  0  0  0  0  0
   19.1075  -20.5289  -13.3907 O   0  0  0  0  0  0  0  0  0  0  0  0
   22.8663  -18.7793  -16.9023 C   0  0  0  0  0  0  0  0  0  0  0  0
   23.3679  -18.4628  -18.1441 C   0  0  0  0  0  0  0  0  0  0  0  0
   21.1754  -20.9039  -12.4676 N   0  0  0  0  0  0  0  0  0  0  0  0
   20.6785  -21.1360  -11.1551 C   0  0  0  0  0  0  0  0  0  0  0  0
   20.1419  -22.4846  -11.0210 C   0  0  0  0  0  0  0  0  0  0  0  0
   20.3668  -23.3473  -11.9346 O   0  0  0  0  0  0  0  0  0  0  0  0
   18.7450  -24.9874   -5.7084 N   0  0  0  0  0  0  0  0  0  0  0  0
   18.4217  -26.1172   -6.5067 C   0  0  0  0  0  0  0  0  0  0  0  0
   18.1332  -27.1916   -5.9486 O   0  0  0  0  0  0  0  0  0  0  0  0
   18.4323  -26.0012   -7.9968 C   0  0  0  0  0  0  0  0  0  0  0  0
   18.8788  -24.6171   -8.3477 C   0  0  0  0  0  0  0  0  0  0  0  0
   18.9881  -24.3399   -9.8153 C   0  0  2  0  0  0  0  0  0  0  0  0
   19.3705  -22.9166   -9.9316 N   0  0  0  0  0  0  0  0  0  0  0  0
   17.6717  -24.5143  -10.4572 C   0  0  0  0  0  0  0  0  0  0  0  0
   17.3809  -25.7052  -11.0961 O   0  0  0  0  0  0  0  0  0  0  0  0
   16.8007  -23.6147  -10.4441 O   0  0  0  0  0  0  0  0  0  0  0  0
  2  1  1  0
  3  2  2  0
  4  3  1  0
  5  4  2  0
  5 11  1  0
  6  5  1  0
  7  6  1  0
  7  8  1  6
  9  7  1  0
  9 10  2  0
 11 12  2  0
 12  2  1  0
 13  9  1  0
 14 13  1  0
 15 14  1  0
 16 15  2  0
 17 18  1  0
 18 19  2  0
 18 20  1  0
 20 21  1  0
 22 21  1  1
 22 23  1  0
 22 24  1  0
 23 15  1  0
 24 25  1  0
 26 24  2  0
M  END
$$$$
