YGQ.pdb
     RDKit          3D

 26 26  0  0  1  0  0  0  0  0999 V2000
   11.1286  -13.0952  -10.8989 O   0  0  0  0  0  0  0  0  0  0  0  0
   12.1988  -12.2433  -10.6465 C   0  0  0  0  0  0  0  0  0  0  0  0
   13.5064  -12.6641  -10.7665 C   0  0  0  0  0  0  0  0  0  0  0  0
   14.5507  -11.8005  -10.5109 C   0  0  0  0  0  0  0  0  0  0  0  0
   14.3370  -10.4730  -10.1224 C   0  0  0  0  0  0  0  0  0  0  0  0
   15.4847   -9.6177   -9.8689 C   0  0  0  0  0  0  0  0  0  0  0  0
   15.9190   -8.6998  -10.9583 C   0  0  2  0  0  0  0  0  0  0  0  0
   16.8754   -9.5034  -11.7513 N   0  0  0  0  0  0  0  0  0  0  0  0
   16.5613   -7.5144  -10.3964 C   0  0  0  0  0  0  0  0  0  0  0  0
   17.7347   -7.6569   -9.9104 O   0  0  0  0  0  0  0  0  0  0  0  0
   13.0233  -10.0745  -10.0089 C   0  0  0  0  0  0  0  0  0  0  0  0
   11.9812  -10.9362  -10.2641 C   0  0  0  0  0  0  0  0  0  0  0  0
   15.9976   -6.2209  -10.3451 N   0  0  0  0  0  0  0  0  0  0  0  0
   16.3431   -5.2316   -9.3831 C   0  0  0  0  0  0  0  0  0  0  0  0
   15.1556   -4.6437   -8.7758 C   0  0  0  0  0  0  0  0  0  0  0  0
   13.9983   -5.0467   -9.1332 O   0  0  0  0  0  0  0  0  0  0  0  0
   11.5904   -5.1490   -5.9598 N   0  0  0  0  0  0  0  0  0  0  0  0
   11.3603   -3.8819   -5.3598 C   0  0  0  0  0  0  0  0  0  0  0  0
   10.2506   -3.6456   -4.8484 O   0  0  0  0  0  0  0  0  0  0  0  0
   12.4473   -2.8560   -5.3510 C   0  0  0  0  0  0  0  0  0  0  0  0
   13.6539   -3.4581   -5.9991 C   0  0  0  0  0  0  0  0  0  0  0  0
   13.9406   -2.9661   -7.3842 C   0  0  2  0  0  0  0  0  0  0  0  0
   15.1913   -3.6351   -7.8012 N   0  0  0  0  0  0  0  0  0  0  0  0
   14.1857   -1.5119   -7.3582 C   0  0  0  0  0  0  0  0  0  0  0  0
   13.1447   -0.6435   -7.6285 O   0  0  0  0  0  0  0  0  0  0  0  0
   15.3126   -1.0317   -7.0980 O   0  0  0  0  0  0  0  0  0  0  0  0
  2  1  1  0
  3  2  2  0
  4  3  1  0
  5  4  2  0
  5 11  1  0
  6  5  1  0
  7  6  1  0
  7  8  1  6
  9  7  1  0
  9 10  2  0
 11 12  2  0
 12  2  1  0
 13  9  1  0
 14 13  1  0
 15 14  1  0
 16 15  2  0
 17 18  1  0
 18 19  2  0
 18 20  1  0
 20 21  1  0
 22 21  1  1
 22 23  1  0
 22 24  1  0
 23 15  1  0
 24 25  1  0
 26 24  2  0
M  END
$$$$
