YGQ.pdb
     RDKit          3D

 26 26  0  0  1  0  0  0  0  0999 V2000
   24.7440  -19.4284  -22.2642 O   0  0  0  0  0  0  0  0  0  0  0  0
   24.3803  -19.7388  -20.9580 C   0  0  0  0  0  0  0  0  0  0  0  0
   23.1755  -19.3336  -20.4235 C   0  0  0  0  0  0  0  0  0  0  0  0
   22.8374  -19.6539  -19.1255 C   0  0  0  0  0  0  0  0  0  0  0  0
   23.6890  -20.3955  -18.2988 C   0  0  0  0  0  0  0  0  0  0  0  0
   23.2686  -20.6971  -16.9404 C   0  0  0  0  0  0  0  0  0  0  0  0
   23.2872  -19.5878  -15.9468 C   0  0  2  0  0  0  0  0  0  0  0  0
   24.6925  -19.1245  -15.9453 N   0  0  0  0  0  0  0  0  0  0  0  0
   22.8902  -20.0799  -14.6301 C   0  0  0  0  0  0  0  0  0  0  0  0
   23.4641  -19.5624  -13.6122 O   0  0  0  0  0  0  0  0  0  0  0  0
   24.8868  -20.7896  -18.8534 C   0  0  0  0  0  0  0  0  0  0  0  0
   25.2243  -20.4701  -20.1487 C   0  0  0  0  0  0  0  0  0  0  0  0
   21.9235  -21.0791  -14.3836 N   0  0  0  0  0  0  0  0  0  0  0  0
   21.4805  -21.4661  -13.0884 C   0  0  0  0  0  0  0  0  0  0  0  0
   20.3230  -22.3487  -13.1647 C   0  0  0  0  0  0  0  0  0  0  0  0
   19.7961  -22.6023  -14.2993 O   0  0  0  0  0  0  0  0  0  0  0  0
   18.2730  -26.0925   -8.6842 N   0  0  0  0  0  0  0  0  0  0  0  0
   18.8671  -24.8096   -8.5438 C   0  0  0  0  0  0  0  0  0  0  0  0
   19.2392  -24.4336   -7.4173 O   0  0  0  0  0  0  0  0  0  0  0  0
   19.0360  -23.9341   -9.7434 C   0  0  0  0  0  0  0  0  0  0  0  0
   18.5414  -24.6883  -10.9371 C   0  0  0  0  0  0  0  0  0  0  0  0
   18.6552  -23.9578  -12.2394 C   0  0  2  0  0  0  0  0  0  0  0  0
   19.7251  -22.9554  -12.0498 N   0  0  0  0  0  0  0  0  0  0  0  0
   17.3987  -23.2387  -12.5215 C   0  0  0  0  0  0  0  0  0  0  0  0
   16.4406  -23.8346  -13.3201 O   0  0  0  0  0  0  0  0  0  0  0  0
   17.1668  -22.0981  -12.0596 O   0  0  0  0  0  0  0  0  0  0  0  0
  2  1  1  0
  3  2  2  0
  4  3  1  0
  5  4  2  0
  5 11  1  0
  6  5  1  0
  7  6  1  0
  7  8  1  1
  9  7  1  0
  9 10  2  0
 11 12  2  0
 12  2  1  0
 13  9  1  0
 14 13  1  0
 15 14  1  0
 16 15  2  0
 17 18  1  0
 18 19  2  0
 18 20  1  0
 20 21  1  0
 22 21  1  1
 22 23  1  0
 22 24  1  0
 23 15  1  0
 24 25  1  0
 26 24  2  0
M  END
$$$$
