YGQ.pdb
     RDKit          3D

 26 26  0  0  1  0  0  0  0  0999 V2000
   28.5911  -19.1784   -3.6773 O   0  0  0  0  0  0  0  0  0  0  0  0
   28.4491  -19.4226   -5.0393 C   0  0  0  0  0  0  0  0  0  0  0  0
   27.3848  -18.9233   -5.7600 C   0  0  0  0  0  0  0  0  0  0  0  0
   27.2660  -19.1793   -7.1098 C   0  0  0  0  0  0  0  0  0  0  0  0
   28.2069  -19.9479   -7.8045 C   0  0  0  0  0  0  0  0  0  0  0  0
   28.0191  -20.1780   -9.2274 C   0  0  0  0  0  0  0  0  0  0  0  0
   26.6378  -20.4597   -9.7074 C   0  0  2  0  0  0  0  0  0  0  0  0
   26.3372  -21.8089   -9.1792 N   0  0  0  0  0  0  0  0  0  0  0  0
   26.5946  -20.4406  -11.1673 C   0  0  0  0  0  0  0  0  0  0  0  0
   26.6410  -19.2997  -11.7413 O   0  0  0  0  0  0  0  0  0  0  0  0
   29.2614  -20.4363   -7.0648 C   0  0  0  0  0  0  0  0  0  0  0  0
   29.3801  -20.1809   -5.7178 C   0  0  0  0  0  0  0  0  0  0  0  0
   26.5079  -21.5764  -12.0016 N   0  0  0  0  0  0  0  0  0  0  0  0
   26.1809  -21.5336  -13.3854 C   0  0  0  0  0  0  0  0  0  0  0  0
   24.8691  -20.9366  -13.6030 C   0  0  0  0  0  0  0  0  0  0  0  0
   24.6780  -20.1843  -14.6163 O   0  0  0  0  0  0  0  0  0  0  0  0
   23.9066  -25.3340  -13.9079 N   0  0  0  0  0  0  0  0  0  0  0  0
   22.9598  -24.9360  -14.8895 C   0  0  0  0  0  0  0  0  0  0  0  0
   22.7982  -25.6456  -15.8991 O   0  0  0  0  0  0  0  0  0  0  0  0
   22.1754  -23.6783  -14.6978 C   0  0  0  0  0  0  0  0  0  0  0  0
   22.5729  -23.0836  -13.3837 C   0  0  0  0  0  0  0  0  0  0  0  0
   22.4789  -21.5908  -13.3098 C   0  0  2  0  0  0  0  0  0  0  0  0
   23.7691  -21.1305  -12.7539 N   0  0  0  0  0  0  0  0  0  0  0  0
   21.4106  -21.2023  -12.3700 C   0  0  0  0  0  0  0  0  0  0  0  0
   20.0989  -21.1792  -12.8058 O   0  0  0  0  0  0  0  0  0  0  0  0
   21.6512  -20.8900  -11.1814 O   0  0  0  0  0  0  0  0  0  0  0  0
  2  1  1  0
  3  2  2  0
  4  3  1  0
  5  4  2  0
  5 11  1  0
  6  5  1  0
  7  6  1  0
  7  8  1  6
  9  7  1  0
  9 10  2  0
 11 12  2  0
 12  2  1  0
 13  9  1  0
 14 13  1  0
 15 14  1  0
 16 15  2  0
 17 18  1  0
 18 19  2  0
 18 20  1  0
 20 21  1  0
 22 21  1  1
 22 23  1  0
 22 24  1  0
 23 15  1  0
 24 25  1  0
 26 24  2  0
M  END
$$$$
