YGQ.pdb
     RDKit          3D

 26 26  0  0  1  0  0  0  0  0999 V2000
   17.0894  -17.7249  -18.1952 O   0  0  0  0  0  0  0  0  0  0  0  0
   18.4566  -17.6243  -17.9604 C   0  0  0  0  0  0  0  0  0  0  0  0
   19.0133  -16.5058  -17.3769 C   0  0  0  0  0  0  0  0  0  0  0  0
   20.3721  -16.4296  -17.1543 C   0  0  0  0  0  0  0  0  0  0  0  0
   21.2404  -17.4696  -17.5051 C   0  0  0  0  0  0  0  0  0  0  0  0
   22.6623  -17.3220  -17.2415 C   0  0  0  0  0  0  0  0  0  0  0  0
   23.3475  -18.4183  -16.5023 C   0  0  2  0  0  0  0  0  0  0  0  0
   22.6482  -18.4709  -15.1993 N   0  0  0  0  0  0  0  0  0  0  0  0
   24.7641  -18.1061  -16.3309 C   0  0  0  0  0  0  0  0  0  0  0  0
   25.4843  -18.0483  -17.3851 O   0  0  0  0  0  0  0  0  0  0  0  0
   20.6627  -18.5768  -18.0865 C   0  0  0  0  0  0  0  0  0  0  0  0
   19.3068  -18.6529  -18.3086 C   0  0  0  0  0  0  0  0  0  0  0  0
   25.4080  -17.8601  -15.0987 N   0  0  0  0  0  0  0  0  0  0  0  0
   26.8032  -17.6232  -14.9546 C   0  0  0  0  0  0  0  0  0  0  0  0
   27.5542  -18.8721  -14.9296 C   0  0  0  0  0  0  0  0  0  0  0  0
   27.7431  -19.5171  -16.0149 O   0  0  0  0  0  0  0  0  0  0  0  0
   23.8049  -19.4776  -12.5982 N   0  0  0  0  0  0  0  0  0  0  0  0
   24.1128  -20.4965  -11.6573 C   0  0  0  0  0  0  0  0  0  0  0  0
   23.1864  -21.0470  -11.0347 O   0  0  0  0  0  0  0  0  0  0  0  0
   25.5363  -20.8911  -11.4291 C   0  0  0  0  0  0  0  0  0  0  0  0
   26.4061  -19.9272  -12.1726 C   0  0  0  0  0  0  0  0  0  0  0  0
   27.4045  -20.5564  -13.0945 C   0  0  2  0  0  0  0  0  0  0  0  0
   28.0980  -19.4366  -13.7660 N   0  0  0  0  0  0  0  0  0  0  0  0
   26.7057  -21.3465  -14.1254 C   0  0  0  0  0  0  0  0  0  0  0  0
   27.1633  -22.6136  -14.4350 O   0  0  0  0  0  0  0  0  0  0  0  0
   25.7043  -20.9069  -14.7353 O   0  0  0  0  0  0  0  0  0  0  0  0
  2  1  1  0
  3  2  2  0
  4  3  1  0
  5  4  2  0
  5 11  1  0
  6  5  1  0
  7  6  1  0
  7  8  1  1
  9  7  1  0
  9 10  2  0
 11 12  2  0
 12  2  1  0
 13  9  1  0
 14 13  1  0
 15 14  1  0
 16 15  2  0
 17 18  1  0
 18 19  2  0
 18 20  1  0
 20 21  1  0
 22 21  1  1
 22 23  1  0
 22 24  1  0
 23 15  1  0
 24 25  1  0
 26 24  2  0
M  END
$$$$
