QYW.pdb
     RDKit          3D

 36 38  0  0  1  0  0  0  0  0999 V2000
    7.3385  -12.0408   18.9059 N   0  0  0  0  0  0  0  0  0  0  0  0
    7.0522  -13.3795   18.4677 C   0  0  0  0  0  0  0  0  0  0  0  0
    5.8807  -13.8186   18.5433 O   0  0  0  0  0  0  0  0  0  0  0  0
    8.1394  -14.1834   17.9435 C   0  0  0  0  0  0  0  0  0  0  0  0
    8.8862  -14.9280   18.9779 C   0  0  0  0  0  0  0  0  0  0  0  0
   10.0881  -15.6930   18.5537 C   0  0  2  0  0  0  0  0  0  0  0  0
    9.8871  -16.6103   17.4706 N   0  0  0  0  0  0  0  0  0  0  0  0
   10.6798  -16.4306   19.7017 C   0  0  0  0  0  0  0  0  0  0  0  0
   11.0280  -17.6316   19.5119 O   0  0  0  0  0  0  0  0  0  0  0  0
   15.4868  -14.0932   17.9794 O   0  0  0  0  0  0  0  0  0  0  0  0
   14.8076  -14.8721   18.9343 C   0  0  0  0  0  0  0  0  0  0  0  0
   14.5650  -16.2088   18.7077 C   0  0  0  0  0  0  0  0  0  0  0  0
   13.8997  -16.9776   19.6393 C   0  0  0  0  0  0  0  0  0  0  0  0
   13.4486  -16.4367   20.8406 C   0  0  0  0  0  0  0  0  0  0  0  0
   12.6988  -17.2413   21.7987 C   0  0  0  0  0  0  0  0  0  0  0  0
   11.3632  -16.6850   22.1225 C   0  0  2  0  0  0  0  0  0  0  0  0
   10.8749  -15.8864   20.9663 N   0  0  0  0  0  0  0  0  0  0  0  0
   11.3811  -15.7609   23.2478 C   0  0  0  0  0  0  0  0  0  0  0  0
   11.6061  -14.5223   23.0175 O   0  0  0  0  0  0  0  0  0  0  0  0
   13.6945  -15.1034   21.0592 C   0  0  0  0  0  0  0  0  0  0  0  0
   14.3692  -14.3210   20.1157 C   0  0  0  0  0  0  0  0  0  0  0  0
   11.1657  -16.0648   24.6169 N   0  0  0  0  0  0  0  0  0  0  0  0
    9.8639  -15.9479   25.2440 C   0  0  1  0  0  0  0  0  0  0  0  0
    8.8595  -15.5303   24.1767 C   0  0  0  0  0  0  0  0  0  0  0  0
    7.7021  -14.8512   24.7734 C   0  0  0  0  0  0  0  0  0  0  0  0
    6.4271  -15.3443   24.9346 C   0  0  0  0  0  0  0  0  0  0  0  0
    5.6627  -14.3941   25.5293 N   0  0  0  0  0  0  0  0  0  0  0  0
    6.3982  -13.2905   25.7637 C   0  0  0  0  0  0  0  0  0  0  0  0
    6.0681  -12.0749   26.3423 C   0  0  0  0  0  0  0  0  0  0  0  0
    7.0564  -11.1214   26.4456 C   0  0  0  0  0  0  0  0  0  0  0  0
    8.3257  -11.3797   25.9856 C   0  0  0  0  0  0  0  0  0  0  0  0
    8.6300  -12.6047   25.4106 C   0  0  0  0  0  0  0  0  0  0  0  0
    7.6672  -13.5665   25.2967 C   0  0  0  0  0  0  0  0  0  0  0  0
    9.4295  -17.1223   25.9871 C   0  0  0  0  0  0  0  0  0  0  0  0
    8.8180  -17.1029   27.0802 O   0  0  0  0  0  0  0  0  0  0  0  0
    9.6843  -18.4204   25.4946 O   0  0  0  0  0  0  0  0  0  0  0  0
  2  1  1  0
  3  2  2  0
  4  2  1  0
  5  6  1  0
  5  4  1  0
  6  7  1  6
  8  9  2  0
  8  6  1  0
 10 11  1  0
 11 12  2  0
 12 13  1  0
 14 13  2  0
 14 15  1  0
 16 15  1  6
 16 17  1  0
 17  8  1  0
 18 19  2  0
 18 16  1  0
 20 14  1  0
 21 11  1  0
 21 20  2  0
 22 18  1  0
 23 24  1  6
 23 22  1  0
 25 24  1  0
 25 33  1  0
 26 27  1  0
 26 25  2  0
 27 28  1  0
 28 29  2  0
 28 33  1  0
 29 30  1  0
 30 31  2  0
 32 31  1  0
 33 32  2  0
 34 23  1  0
 35 34  2  0
 36 34  1  0
M  END
$$$$
