QYW.pdb
     RDKit          3D

 36 38  0  0  1  0  0  0  0  0999 V2000
   10.7361  -21.2112   23.5159 N   0  0  0  0  0  0  0  0  0  0  0  0
    9.3472  -21.1827   23.1468 C   0  0  0  0  0  0  0  0  0  0  0  0
    8.4734  -21.4579   24.0021 O   0  0  0  0  0  0  0  0  0  0  0  0
    9.0006  -20.8286   21.7838 C   0  0  0  0  0  0  0  0  0  0  0  0
    9.7831  -19.6994   21.2411 C   0  0  0  0  0  0  0  0  0  0  0  0
    9.0581  -18.6594   20.4649 C   0  0  2  0  0  0  0  0  0  0  0  0
    9.2136  -18.7293   19.0414 N   0  0  0  0  0  0  0  0  0  0  0  0
    9.4380  -17.2958   20.9211 C   0  0  0  0  0  0  0  0  0  0  0  0
   10.4512  -16.7587   20.3877 O   0  0  0  0  0  0  0  0  0  0  0  0
    7.3060  -13.1908   16.6834 O   0  0  0  0  0  0  0  0  0  0  0  0
    7.5066  -13.4463   18.0524 C   0  0  0  0  0  0  0  0  0  0  0  0
    8.4708  -12.7646   18.7612 C   0  0  0  0  0  0  0  0  0  0  0  0
    8.6726  -13.0105   20.1030 C   0  0  0  0  0  0  0  0  0  0  0  0
    7.9137  -13.9530   20.7921 C   0  0  0  0  0  0  0  0  0  0  0  0
    8.1671  -14.2472   22.1981 C   0  0  0  0  0  0  0  0  0  0  0  0
    9.2265  -15.2628   22.4093 C   0  0  2  0  0  0  0  0  0  0  0  0
    8.7527  -16.5751   21.8930 N   0  0  0  0  0  0  0  0  0  0  0  0
    9.5345  -15.4909   23.8141 C   0  0  0  0  0  0  0  0  0  0  0  0
   10.2255  -14.6130   24.4382 O   0  0  0  0  0  0  0  0  0  0  0  0
    6.9542  -14.6283   20.0786 C   0  0  0  0  0  0  0  0  0  0  0  0
    6.7474  -14.3809   18.7171 C   0  0  0  0  0  0  0  0  0  0  0  0
    9.1474  -16.5975   24.6133 N   0  0  0  0  0  0  0  0  0  0  0  0
    9.6375  -16.7905   25.9640 C   0  0  1  0  0  0  0  0  0  0  0  0
    8.4441  -16.7532   26.9110 C   0  0  0  0  0  0  0  0  0  0  0  0
    7.5193  -15.6685   26.5574 C   0  0  0  0  0  0  0  0  0  0  0  0
    6.2778  -15.7772   25.9729 C   0  0  0  0  0  0  0  0  0  0  0  0
    5.7570  -14.5339   25.8181 N   0  0  0  0  0  0  0  0  0  0  0  0
    6.6202  -13.6110   26.2839 C   0  0  0  0  0  0  0  0  0  0  0  0
    6.5399  -12.2284   26.3434 C   0  0  0  0  0  0  0  0  0  0  0  0
    7.6048  -11.5443   26.8861 C   0  0  0  0  0  0  0  0  0  0  0  0
    8.7063  -12.2230   27.3504 C   0  0  0  0  0  0  0  0  0  0  0  0
    8.7616  -13.6071   27.2792 C   0  0  0  0  0  0  0  0  0  0  0  0
    7.7183  -14.3082   26.7452 C   0  0  0  0  0  0  0  0  0  0  0  0
   10.4636  -17.9738   26.1572 C   0  0  0  0  0  0  0  0  0  0  0  0
   10.7708  -18.7967   25.2640 O   0  0  0  0  0  0  0  0  0  0  0  0
   10.9957  -18.2805   27.4282 O   0  0  0  0  0  0  0  0  0  0  0  0
  2  1  1  0
  3  2  2  0
  4  2  1  0
  5  6  1  0
  5  4  1  0
  6  7  1  6
  8  9  2  0
  8  6  1  0
 10 11  1  0
 11 12  2  0
 12 13  1  0
 14 13  2  0
 14 15  1  0
 16 15  1  1
 16 17  1  0
 17  8  1  0
 18 19  2  0
 18 16  1  0
 20 14  1  0
 21 11  1  0
 21 20  2  0
 22 18  1  0
 23 24  1  1
 23 22  1  0
 25 24  1  0
 25 33  1  0
 26 27  1  0
 26 25  2  0
 27 28  1  0
 28 29  2  0
 28 33  1  0
 29 30  1  0
 30 31  2  0
 32 31  1  0
 33 32  2  0
 34 23  1  0
 35 34  2  0
 36 34  1  0
M  END
$$$$
