QYW.pdb
     RDKit          3D

 36 38  0  0  1  0  0  0  0  0999 V2000
    8.2881  -12.8334   17.5551 N   0  0  0  0  0  0  0  0  0  0  0  0
    7.9316  -14.0081   16.8076 C   0  0  0  0  0  0  0  0  0  0  0  0
    7.7416  -13.9217   15.5717 O   0  0  0  0  0  0  0  0  0  0  0  0
    7.8066  -15.2675   17.5157 C   0  0  0  0  0  0  0  0  0  0  0  0
    8.0488  -15.1637   18.9692 C   0  0  0  0  0  0  0  0  0  0  0  0
    9.0040  -16.1214   19.5859 C   0  0  2  0  0  0  0  0  0  0  0  0
    9.2084  -17.3428   18.8637 N   0  0  0  0  0  0  0  0  0  0  0  0
    8.5995  -16.4512   20.9786 C   0  0  0  0  0  0  0  0  0  0  0  0
    7.8887  -15.6090   21.5992 O   0  0  0  0  0  0  0  0  0  0  0  0
    7.3191  -21.0677   28.5326 O   0  0  0  0  0  0  0  0  0  0  0  0
    7.6370  -20.6394   27.2307 C   0  0  0  0  0  0  0  0  0  0  0  0
    6.6491  -20.2204   26.3673 C   0  0  0  0  0  0  0  0  0  0  0  0
    6.9540  -19.7996   25.0900 C   0  0  0  0  0  0  0  0  0  0  0  0
    8.2660  -19.7814   24.6236 C   0  0  0  0  0  0  0  0  0  0  0  0
    8.5771  -19.3862   23.2544 C   0  0  0  0  0  0  0  0  0  0  0  0
    8.5263  -17.9209   23.0346 C   0  0  2  0  0  0  0  0  0  0  0  0
    8.9508  -17.6226   21.6403 N   0  0  0  0  0  0  0  0  0  0  0  0
    9.4471  -17.1783   23.8839 C   0  0  0  0  0  0  0  0  0  0  0  0
   10.6477  -17.6054   24.0028 O   0  0  0  0  0  0  0  0  0  0  0  0
    9.2452  -20.2004   25.4903 C   0  0  0  0  0  0  0  0  0  0  0  0
    8.9388  -20.6279   26.7868 C   0  0  0  0  0  0  0  0  0  0  0  0
    9.1790  -15.9943   24.6182 N   0  0  0  0  0  0  0  0  0  0  0  0
   10.0209  -15.5499   25.7116 C   0  0  1  0  0  0  0  0  0  0  0  0
    9.1172  -15.0603   26.8368 C   0  0  0  0  0  0  0  0  0  0  0  0
    7.8944  -14.4443   26.3057 C   0  0  0  0  0  0  0  0  0  0  0  0
    6.8553  -15.0645   25.6495 C   0  0  0  0  0  0  0  0  0  0  0  0
    5.9231  -14.1327   25.3277 N   0  0  0  0  0  0  0  0  0  0  0  0
    6.3192  -12.9179   25.7531 C   0  0  0  0  0  0  0  0  0  0  0  0
    5.7168  -11.6728   25.6603 C   0  0  0  0  0  0  0  0  0  0  0  0
    6.3805  -10.5944   26.2016 C   0  0  0  0  0  0  0  0  0  0  0  0
    7.6009  -10.7610   26.8119 C   0  0  0  0  0  0  0  0  0  0  0  0
    8.1820  -12.0179   26.8916 C   0  0  0  0  0  0  0  0  0  0  0  0
    7.5437  -13.1029   26.3623 C   0  0  0  0  0  0  0  0  0  0  0  0
   11.0016  -16.5236   26.1700 C   0  0  0  0  0  0  0  0  0  0  0  0
   12.1748  -16.6265   25.7431 O   0  0  0  0  0  0  0  0  0  0  0  0
   10.6722  -17.4584   27.1752 O   0  0  0  0  0  0  0  0  0  0  0  0
  2  1  1  0
  3  2  2  0
  4  2  1  0
  5  6  1  0
  5  4  1  0
  6  7  1  6
  8  9  2  0
  8  6  1  0
 10 11  1  0
 11 12  2  0
 12 13  1  0
 14 13  2  0
 14 15  1  0
 16 15  1  1
 16 17  1  0
 17  8  1  0
 18 19  2  0
 18 16  1  0
 20 14  1  0
 21 11  1  0
 21 20  2  0
 22 18  1  0
 23 24  1  1
 23 22  1  0
 25 24  1  0
 25 33  1  0
 26 27  1  0
 26 25  2  0
 27 28  1  0
 28 29  2  0
 28 33  1  0
 29 30  1  0
 30 31  2  0
 32 31  1  0
 33 32  2  0
 34 23  1  0
 35 34  2  0
 36 34  1  0
M  END
$$$$
