QYW.pdb
     RDKit          3D

 36 38  0  0  1  0  0  0  0  0999 V2000
    9.2382  -17.3930   16.2605 N   0  0  0  0  0  0  0  0  0  0  0  0
   10.5609  -17.2097   16.7926 C   0  0  0  0  0  0  0  0  0  0  0  0
   11.4787  -16.8011   16.0432 O   0  0  0  0  0  0  0  0  0  0  0  0
   10.7896  -17.5027   18.1944 C   0  0  0  0  0  0  0  0  0  0  0  0
    9.6001  -18.0227   18.8992 C   0  0  0  0  0  0  0  0  0  0  0  0
    9.7178  -18.2952   20.3558 C   0  0  2  0  0  0  0  0  0  0  0  0
    8.5642  -18.8843   20.9701 N   0  0  0  0  0  0  0  0  0  0  0  0
   10.0766  -17.0582   21.0995 C   0  0  0  0  0  0  0  0  0  0  0  0
   11.2286  -16.5719   20.9100 O   0  0  0  0  0  0  0  0  0  0  0  0
    6.9784  -12.8799   17.2814 O   0  0  0  0  0  0  0  0  0  0  0  0
    7.3255  -13.2029   18.6061 C   0  0  0  0  0  0  0  0  0  0  0  0
    8.3386  -12.5294   19.2518 C   0  0  0  0  0  0  0  0  0  0  0  0
    8.6838  -12.8413   20.5499 C   0  0  0  0  0  0  0  0  0  0  0  0
    8.0257  -13.8444   21.2569 C   0  0  0  0  0  0  0  0  0  0  0  0
    8.4303  -14.2063   22.6108 C   0  0  0  0  0  0  0  0  0  0  0  0
    9.5927  -15.1255   22.6560 C   0  0  2  0  0  0  0  0  0  0  0  0
    9.2293  -16.4033   21.9865 N   0  0  0  0  0  0  0  0  0  0  0  0
    9.9811  -15.4975   24.0093 C   0  0  0  0  0  0  0  0  0  0  0  0
   10.6859  -14.6746   24.6904 O   0  0  0  0  0  0  0  0  0  0  0  0
    7.0167  -14.5111   20.6063 C   0  0  0  0  0  0  0  0  0  0  0  0
    6.6644  -14.1969   19.2893 C   0  0  0  0  0  0  0  0  0  0  0  0
    9.6614  -16.6949   24.7000 N   0  0  0  0  0  0  0  0  0  0  0  0
   10.2807  -17.0545   25.9605 C   0  0  1  0  0  0  0  0  0  0  0  0
    9.6791  -16.1769   27.0515 C   0  0  0  0  0  0  0  0  0  0  0  0
    8.3481  -15.6897   26.6673 C   0  0  0  0  0  0  0  0  0  0  0  0
    7.2956  -16.4216   26.1658 C   0  0  0  0  0  0  0  0  0  0  0  0
    6.2491  -15.5871   25.9438 N   0  0  0  0  0  0  0  0  0  0  0  0
    6.5831  -14.3277   26.2847 C   0  0  0  0  0  0  0  0  0  0  0  0
    5.8627  -13.1442   26.2395 C   0  0  0  0  0  0  0  0  0  0  0  0
    6.4881  -11.9931   26.6642 C   0  0  0  0  0  0  0  0  0  0  0  0
    7.7857  -12.0303   27.1162 C   0  0  0  0  0  0  0  0  0  0  0  0
    8.4845  -13.2278   27.1514 C   0  0  0  0  0  0  0  0  0  0  0  0
    7.8864  -14.3829   26.7355 C   0  0  0  0  0  0  0  0  0  0  0  0
   10.2253  -18.4711   26.2930 C   0  0  0  0  0  0  0  0  0  0  0  0
    9.7012  -19.3616   25.5846 O   0  0  0  0  0  0  0  0  0  0  0  0
   10.7880  -18.9507   27.4954 O   0  0  0  0  0  0  0  0  0  0  0  0
  2  1  1  0
  3  2  2  0
  4  2  1  0
  5  6  1  0
  5  4  1  0
  6  7  1  1
  8  9  2  0
  8  6  1  0
 10 11  1  0
 11 12  2  0
 12 13  1  0
 14 13  2  0
 14 15  1  0
 16 15  1  1
 16 17  1  0
 17  8  1  0
 18 19  2  0
 18 16  1  0
 20 14  1  0
 21 11  1  0
 21 20  2  0
 22 18  1  0
 23 24  1  1
 23 22  1  0
 25 24  1  0
 25 33  1  0
 26 27  1  0
 26 25  2  0
 27 28  1  0
 28 29  2  0
 28 33  1  0
 29 30  1  0
 30 31  2  0
 32 31  1  0
 33 32  2  0
 34 23  1  0
 35 34  2  0
 36 34  1  0
M  END
$$$$
