QYW.pdb
     RDKit          3D

 36 38  0  0  1  0  0  0  0  0999 V2000
    9.2998  -21.7301   22.7090 N   0  0  0  0  0  0  0  0  0  0  0  0
    9.4027  -21.9704   21.2956 C   0  0  0  0  0  0  0  0  0  0  0  0
    9.3634  -23.1461   20.8628 O   0  0  0  0  0  0  0  0  0  0  0  0
    9.5456  -20.8319   20.4087 C   0  0  0  0  0  0  0  0  0  0  0  0
    9.5276  -19.5274   21.1014 C   0  0  0  0  0  0  0  0  0  0  0  0
    9.2485  -18.3127   20.2912 C   0  0  2  0  0  0  0  0  0  0  0  0
    9.7445  -18.3386   18.9464 N   0  0  0  0  0  0  0  0  0  0  0  0
    9.7650  -17.0933   20.9681 C   0  0  0  0  0  0  0  0  0  0  0  0
   10.9415  -16.7210   20.6908 O   0  0  0  0  0  0  0  0  0  0  0  0
    7.2582  -12.7878   16.9368 O   0  0  0  0  0  0  0  0  0  0  0  0
    7.5475  -13.0905   18.2801 C   0  0  0  0  0  0  0  0  0  0  0  0
    8.4902  -12.3674   18.9767 C   0  0  0  0  0  0  0  0  0  0  0  0
    8.7785  -12.6591   20.2932 C   0  0  0  0  0  0  0  0  0  0  0  0
    8.1317  -13.6911   20.9683 C   0  0  0  0  0  0  0  0  0  0  0  0
    8.4785  -14.0299   22.3440 C   0  0  0  0  0  0  0  0  0  0  0  0
    9.5415  -15.0578   22.4511 C   0  0  2  0  0  0  0  0  0  0  0  0
    9.0398  -16.3380   21.8831 N   0  0  0  0  0  0  0  0  0  0  0  0
    9.9095  -15.3654   23.8260 C   0  0  0  0  0  0  0  0  0  0  0  0
   10.5732  -14.4956   24.4898 O   0  0  0  0  0  0  0  0  0  0  0  0
    7.1930  -14.4073   20.2671 C   0  0  0  0  0  0  0  0  0  0  0  0
    6.8985  -14.1135   18.9312 C   0  0  0  0  0  0  0  0  0  0  0  0
    9.6103  -16.5448   24.5557 N   0  0  0  0  0  0  0  0  0  0  0  0
   10.1510  -16.8005   25.8764 C   0  0  1  0  0  0  0  0  0  0  0  0
    9.6375  -15.7168   26.8167 C   0  0  0  0  0  0  0  0  0  0  0  0
    8.2124  -15.4464   26.5872 C   0  0  0  0  0  0  0  0  0  0  0  0
    7.2481  -16.3257   26.1493 C   0  0  0  0  0  0  0  0  0  0  0  0
    6.0620  -15.6713   26.0727 N   0  0  0  0  0  0  0  0  0  0  0  0
    6.2186  -14.3872   26.4474 C   0  0  0  0  0  0  0  0  0  0  0  0
    5.3134  -13.3409   26.5344 C   0  0  0  0  0  0  0  0  0  0  0  0
    5.7823  -12.1176   26.9590 C   0  0  0  0  0  0  0  0  0  0  0  0
    7.1079  -11.9528   27.2832 C   0  0  0  0  0  0  0  0  0  0  0  0
    7.9931  -13.0163   27.1875 C   0  0  0  0  0  0  0  0  0  0  0  0
    7.5525  -14.2393   26.7689 C   0  0  0  0  0  0  0  0  0  0  0  0
    9.9133  -18.1416   26.3912 C   0  0  0  0  0  0  0  0  0  0  0  0
    9.2274  -19.0240   25.8252 O   0  0  0  0  0  0  0  0  0  0  0  0
   10.4704  -18.5491   27.6225 O   0  0  0  0  0  0  0  0  0  0  0  0
  2  1  1  0
  3  2  2  0
  4  2  1  0
  5  6  1  0
  5  4  1  0
  6  7  1  6
  8  9  2  0
  8  6  1  0
 10 11  1  0
 11 12  2  0
 12 13  1  0
 14 13  2  0
 14 15  1  0
 16 15  1  1
 16 17  1  0
 17  8  1  0
 18 19  2  0
 18 16  1  0
 20 14  1  0
 21 11  1  0
 21 20  2  0
 22 18  1  0
 23 24  1  1
 23 22  1  0
 25 24  1  0
 25 33  1  0
 26 27  1  0
 26 25  2  0
 27 28  1  0
 28 29  2  0
 28 33  1  0
 29 30  1  0
 30 31  2  0
 32 31  1  0
 33 32  2  0
 34 23  1  0
 35 34  2  0
 36 34  1  0
M  END
$$$$
