QYW.pdb
     RDKit          3D

 36 38  0  0  1  0  0  0  0  0999 V2000
    7.4225  -19.3346   14.6973 N   0  0  0  0  0  0  0  0  0  0  0  0
    7.0486  -19.1728   16.0757 C   0  0  0  0  0  0  0  0  0  0  0  0
    6.1739  -19.9209   16.5721 O   0  0  0  0  0  0  0  0  0  0  0  0
    7.7062  -18.1413   16.8546 C   0  0  0  0  0  0  0  0  0  0  0  0
    7.2563  -18.0739   18.2600 C   0  0  0  0  0  0  0  0  0  0  0  0
    7.8790  -17.0521   19.1420 C   0  0  2  0  0  0  0  0  0  0  0  0
    8.8357  -16.1907   18.5113 N   0  0  0  0  0  0  0  0  0  0  0  0
    8.5162  -17.6898   20.3249 C   0  0  0  0  0  0  0  0  0  0  0  0
    7.8319  -18.5267   20.9812 O   0  0  0  0  0  0  0  0  0  0  0  0
   11.4890  -23.4060   18.4251 O   0  0  0  0  0  0  0  0  0  0  0  0
   11.5364  -22.2325   19.1999 C   0  0  0  0  0  0  0  0  0  0  0  0
   11.7243  -21.0044   18.6055 C   0  0  0  0  0  0  0  0  0  0  0  0
   11.7719  -19.8506   19.3592 C   0  0  0  0  0  0  0  0  0  0  0  0
   11.6328  -19.8801   20.7444 C   0  0  0  0  0  0  0  0  0  0  0  0
   11.7374  -18.6630   21.5417 C   0  0  0  0  0  0  0  0  0  0  0  0
   10.4244  -18.0965   21.9330 C   0  0  2  0  0  0  0  0  0  0  0  0
    9.8124  -17.4265   20.7541 N   0  0  0  0  0  0  0  0  0  0  0  0
   10.5238  -17.0628   22.9539 C   0  0  0  0  0  0  0  0  0  0  0  0
   11.0753  -15.9501   22.6448 O   0  0  0  0  0  0  0  0  0  0  0  0
   11.4457  -21.1082   21.3296 C   0  0  0  0  0  0  0  0  0  0  0  0
   11.3970  -22.2805   20.5674 C   0  0  0  0  0  0  0  0  0  0  0  0
   10.0647  -17.1280   24.2948 N   0  0  0  0  0  0  0  0  0  0  0  0
   10.2509  -16.0397   25.2343 C   0  0  1  0  0  0  0  0  0  0  0  0
    9.6633  -14.7759   24.6181 C   0  0  0  0  0  0  0  0  0  0  0  0
    8.2869  -14.5513   25.0783 C   0  0  0  0  0  0  0  0  0  0  0  0
    7.2360  -15.4401   25.0568 C   0  0  0  0  0  0  0  0  0  0  0  0
    6.1388  -14.8326   25.5744 N   0  0  0  0  0  0  0  0  0  0  0  0
    6.4378  -13.5700   25.9354 C   0  0  0  0  0  0  0  0  0  0  0  0
    5.6620  -12.5705   26.5017 C   0  0  0  0  0  0  0  0  0  0  0  0
    6.2624  -11.3587   26.7614 C   0  0  0  0  0  0  0  0  0  0  0  0
    7.5896  -11.1597   26.4639 C   0  0  0  0  0  0  0  0  0  0  0  0
    8.3439  -12.1766   25.8975 C   0  0  0  0  0  0  0  0  0  0  0  0
    7.7713  -13.3873   25.6304 C   0  0  0  0  0  0  0  0  0  0  0  0
    9.7457  -16.2905   26.5767 C   0  0  0  0  0  0  0  0  0  0  0  0
    9.8890  -15.5267   27.5593 O   0  0  0  0  0  0  0  0  0  0  0  0
    9.0267  -17.4702   26.8664 O   0  0  0  0  0  0  0  0  0  0  0  0
  2  1  1  0
  3  2  2  0
  4  2  1  0
  5  6  1  0
  5  4  1  0
  6  7  1  6
  8  9  2  0
  8  6  1  0
 10 11  1  0
 11 12  2  0
 12 13  1  0
 14 13  2  0
 14 15  1  0
 16 15  1  6
 16 17  1  0
 17  8  1  0
 18 19  2  0
 18 16  1  0
 20 14  1  0
 21 11  1  0
 21 20  2  0
 22 18  1  0
 23 24  1  6
 23 22  1  0
 25 24  1  0
 25 33  1  0
 26 27  1  0
 26 25  2  0
 27 28  1  0
 28 29  2  0
 28 33  1  0
 29 30  1  0
 30 31  2  0
 32 31  1  0
 33 32  2  0
 34 23  1  0
 35 34  2  0
 36 34  1  0
M  END
$$$$
