QYW.pdb
     RDKit          3D

 36 38  0  0  1  0  0  0  0  0999 V2000
    6.3050  -17.5307   16.8030 N   0  0  0  0  0  0  0  0  0  0  0  0
    7.5498  -17.9195   16.1984 C   0  0  0  0  0  0  0  0  0  0  0  0
    7.5417  -18.5553   15.1183 O   0  0  0  0  0  0  0  0  0  0  0  0
    8.7858  -17.5553   16.8638 C   0  0  0  0  0  0  0  0  0  0  0  0
    8.5898  -16.8452   18.1442 C   0  0  0  0  0  0  0  0  0  0  0  0
    9.6860  -16.9019   19.1467 C   0  0  2  0  0  0  0  0  0  0  0  0
   10.7401  -17.8300   18.8588 N   0  0  0  0  0  0  0  0  0  0  0  0
    9.1498  -17.1928   20.5031 C   0  0  0  0  0  0  0  0  0  0  0  0
    8.1764  -16.4964   20.9119 O   0  0  0  0  0  0  0  0  0  0  0  0
    7.4399  -21.4370   28.1093 O   0  0  0  0  0  0  0  0  0  0  0  0
    7.8726  -21.0873   26.8170 C   0  0  0  0  0  0  0  0  0  0  0  0
    9.2028  -20.8345   26.5650 C   0  0  0  0  0  0  0  0  0  0  0  0
    9.6333  -20.4911   25.3008 C   0  0  0  0  0  0  0  0  0  0  0  0
    8.7453  -20.3863   24.2332 C   0  0  0  0  0  0  0  0  0  0  0  0
    9.1979  -19.9707   22.9103 C   0  0  0  0  0  0  0  0  0  0  0  0
    9.0134  -18.5231   22.6488 C   0  0  2  0  0  0  0  0  0  0  0  0
    9.6477  -18.1786   21.3480 N   0  0  0  0  0  0  0  0  0  0  0  0
    9.6673  -17.6717   23.6327 C   0  0  0  0  0  0  0  0  0  0  0  0
   10.7710  -17.1072   23.3147 O   0  0  0  0  0  0  0  0  0  0  0  0
    7.4208  -20.6400   24.4924 C   0  0  0  0  0  0  0  0  0  0  0  0
    6.9813  -20.9886   25.7741 C   0  0  0  0  0  0  0  0  0  0  0  0
    9.2196  -17.3686   24.9445 N   0  0  0  0  0  0  0  0  0  0  0  0
    9.8530  -16.3576   25.7682 C   0  0  1  0  0  0  0  0  0  0  0  0
    9.6641  -15.0065   25.0891 C   0  0  0  0  0  0  0  0  0  0  0  0
    8.2645  -14.5673   25.1606 C   0  0  0  0  0  0  0  0  0  0  0  0
    7.1325  -15.3279   24.9737 C   0  0  0  0  0  0  0  0  0  0  0  0
    6.0425  -14.5350   25.1284 N   0  0  0  0  0  0  0  0  0  0  0  0
    6.4250  -13.2751   25.4114 C   0  0  0  0  0  0  0  0  0  0  0  0
    5.6884  -12.1253   25.6505 C   0  0  0  0  0  0  0  0  0  0  0  0
    6.3773  -10.9632   25.9176 C   0  0  0  0  0  0  0  0  0  0  0  0
    7.7517  -10.9572   25.9434 C   0  0  0  0  0  0  0  0  0  0  0  0
    8.4651  -12.1216   25.7007 C   0  0  0  0  0  0  0  0  0  0  0  0
    7.8049  -13.2868   25.4334 C   0  0  0  0  0  0  0  0  0  0  0  0
    9.4302  -16.3434   27.1615 C   0  0  0  0  0  0  0  0  0  0  0  0
    9.9125  -15.6129   28.0577 O   0  0  0  0  0  0  0  0  0  0  0  0
    8.3981  -17.1959   27.6091 O   0  0  0  0  0  0  0  0  0  0  0  0
  2  1  1  0
  3  2  2  0
  4  2  1  0
  5  6  1  0
  5  4  1  0
  6  7  1  6
  8  9  2  0
  8  6  1  0
 10 11  1  0
 11 12  2  0
 12 13  1  0
 14 13  2  0
 14 15  1  0
 16 15  1  1
 16 17  1  0
 17  8  1  0
 18 19  2  0
 18 16  1  0
 20 14  1  0
 21 11  1  0
 21 20  2  0
 22 18  1  0
 23 24  1  6
 23 22  1  0
 25 24  1  0
 25 33  1  0
 26 27  1  0
 26 25  2  0
 27 28  1  0
 28 29  2  0
 28 33  1  0
 29 30  1  0
 30 31  2  0
 32 31  1  0
 33 32  2  0
 34 23  1  0
 35 34  2  0
 36 34  1  0
M  END
$$$$
