QYW.pdb
     RDKit          3D

 36 38  0  0  1  0  0  0  0  0999 V2000
    8.3235  -12.6635   18.1620 N   0  0  0  0  0  0  0  0  0  0  0  0
    8.0245  -13.7729   17.2985 C   0  0  0  0  0  0  0  0  0  0  0  0
    7.9304  -13.5878   16.0624 O   0  0  0  0  0  0  0  0  0  0  0  0
    7.8444  -15.0835   17.8928 C   0  0  0  0  0  0  0  0  0  0  0  0
    7.9609  -15.0943   19.3653 C   0  0  0  0  0  0  0  0  0  0  0  0
    8.9601  -16.0087   19.9778 C   0  0  2  0  0  0  0  0  0  0  0  0
    9.2432  -17.2022   19.2358 N   0  0  0  0  0  0  0  0  0  0  0  0
    8.5559  -16.3881   21.3579 C   0  0  0  0  0  0  0  0  0  0  0  0
    7.9558  -15.5194   22.0543 O   0  0  0  0  0  0  0  0  0  0  0  0
    7.3998  -21.3977   28.6976 O   0  0  0  0  0  0  0  0  0  0  0  0
    7.6370  -20.9079   27.4002 C   0  0  0  0  0  0  0  0  0  0  0  0
    6.5883  -20.5938   26.5644 C   0  0  0  0  0  0  0  0  0  0  0  0
    6.8140  -20.1136   25.2916 C   0  0  0  0  0  0  0  0  0  0  0  0
    8.1044  -19.9278   24.8022 C   0  0  0  0  0  0  0  0  0  0  0  0
    8.3375  -19.4704   23.4369 C   0  0  0  0  0  0  0  0  0  0  0  0
    8.3334  -17.9943   23.2977 C   0  0  2  0  0  0  0  0  0  0  0  0
    8.7940  -17.6329   21.9302 N   0  0  0  0  0  0  0  0  0  0  0  0
    9.2581  -17.3273   24.2036 C   0  0  0  0  0  0  0  0  0  0  0  0
   10.4828  -17.2124   23.8505 O   0  0  0  0  0  0  0  0  0  0  0  0
    9.1446  -20.2430   25.6415 C   0  0  0  0  0  0  0  0  0  0  0  0
    8.9185  -20.7305   26.9334 C   0  0  0  0  0  0  0  0  0  0  0  0
    8.9658  -16.7600   25.4708 N   0  0  0  0  0  0  0  0  0  0  0  0
    9.9945  -16.2152   26.3349 C   0  0  1  0  0  0  0  0  0  0  0  0
    9.7640  -14.7139   26.4579 C   0  0  0  0  0  0  0  0  0  0  0  0
    8.3407  -14.3817   26.3142 C   0  0  0  0  0  0  0  0  0  0  0  0
    7.2841  -15.2509   26.1622 C   0  0  0  0  0  0  0  0  0  0  0  0
    6.1374  -14.5323   26.0648 N   0  0  0  0  0  0  0  0  0  0  0  0
    6.4094  -13.2160   26.1483 C   0  0  0  0  0  0  0  0  0  0  0  0
    5.5824  -12.1044   26.1021 C   0  0  0  0  0  0  0  0  0  0  0  0
    6.1661  -10.8624   26.2170 C   0  0  0  0  0  0  0  0  0  0  0  0
    7.5267  -10.7426   26.3721 C   0  0  0  0  0  0  0  0  0  0  0  0
    8.3320  -11.8711   26.4153 C   0  0  0  0  0  0  0  0  0  0  0  0
    7.7770  -13.1139   26.3035 C   0  0  0  0  0  0  0  0  0  0  0  0
   10.1198  -16.8665   27.6312 C   0  0  0  0  0  0  0  0  0  0  0  0
   10.9960  -16.6104   28.4891 O   0  0  0  0  0  0  0  0  0  0  0  0
    9.2144  -17.8776   28.0191 O   0  0  0  0  0  0  0  0  0  0  0  0
  2  1  1  0
  3  2  2  0
  4  2  1  0
  5  6  1  0
  5  4  1  0
  6  7  1  6
  8  9  2  0
  8  6  1  0
 10 11  1  0
 11 12  2  0
 12 13  1  0
 14 13  2  0
 14 15  1  0
 16 15  1  6
 16 17  1  0
 17  8  1  0
 18 19  2  0
 18 16  1  0
 20 14  1  0
 21 11  1  0
 21 20  2  0
 22 18  1  0
 23 24  1  1
 23 22  1  0
 25 24  1  0
 25 33  1  0
 26 27  1  0
 26 25  2  0
 27 28  1  0
 28 29  2  0
 28 33  1  0
 29 30  1  0
 30 31  2  0
 32 31  1  0
 33 32  2  0
 34 23  1  0
 35 34  2  0
 36 34  1  0
M  END
$$$$
