QYW.pdb
     RDKit          3D

 36 38  0  0  1  0  0  0  0  0999 V2000
   12.8706  -16.8591   16.2505 N   0  0  0  0  0  0  0  0  0  0  0  0
   12.4130  -18.2160   16.3753 C   0  0  0  0  0  0  0  0  0  0  0  0
   12.5244  -18.9990   15.4029 O   0  0  0  0  0  0  0  0  0  0  0  0
   11.8357  -18.6383   17.6369 C   0  0  0  0  0  0  0  0  0  0  0  0
   11.4056  -17.5212   18.5023 C   0  0  0  0  0  0  0  0  0  0  0  0
   10.8329  -17.8525   19.8335 C   0  0  2  0  0  0  0  0  0  0  0  0
    9.6499  -18.6618   19.8140 N   0  0  0  0  0  0  0  0  0  0  0  0
   10.5544  -16.6171   20.6134 C   0  0  0  0  0  0  0  0  0  0  0  0
   11.4948  -15.7819   20.7470 O   0  0  0  0  0  0  0  0  0  0  0  0
    4.0121  -19.0547   21.8779 O   0  0  0  0  0  0  0  0  0  0  0  0
    4.9197  -17.9802   21.8419 C   0  0  0  0  0  0  0  0  0  0  0  0
    5.0027  -17.0941   22.8930 C   0  0  0  0  0  0  0  0  0  0  0  0
    5.8900  -16.0389   22.8637 C   0  0  0  0  0  0  0  0  0  0  0  0
    6.7336  -15.8275   21.7761 C   0  0  0  0  0  0  0  0  0  0  0  0
    7.6321  -14.6794   21.7271 C   0  0  0  0  0  0  0  0  0  0  0  0
    9.0602  -15.0368   21.9027 C   0  0  2  0  0  0  0  0  0  0  0  0
    9.3302  -16.3215   21.2029 N   0  0  0  0  0  0  0  0  0  0  0  0
    9.4292  -15.2709   23.2918 C   0  0  0  0  0  0  0  0  0  0  0  0
    9.3408  -14.2987   24.1194 O   0  0  0  0  0  0  0  0  0  0  0  0
    6.6450  -16.7153   20.7323 C   0  0  0  0  0  0  0  0  0  0  0  0
    5.7457  -17.7868   20.7592 C   0  0  0  0  0  0  0  0  0  0  0  0
    9.8835  -16.4839   23.8709 N   0  0  0  0  0  0  0  0  0  0  0  0
   10.1645  -16.6121   25.2874 C   0  0  1  0  0  0  0  0  0  0  0  0
    8.9058  -17.1265   25.9755 C   0  0  0  0  0  0  0  0  0  0  0  0
    7.8337  -16.1236   25.9401 C   0  0  0  0  0  0  0  0  0  0  0  0
    6.6104  -16.2201   25.3162 C   0  0  0  0  0  0  0  0  0  0  0  0
    5.9191  -15.0722   25.5292 N   0  0  0  0  0  0  0  0  0  0  0  0
    6.6525  -14.2238   26.2749 C   0  0  0  0  0  0  0  0  0  0  0  0
    6.3813  -12.9486   26.7462 C   0  0  0  0  0  0  0  0  0  0  0  0
    7.3489  -12.3210   27.4988 C   0  0  0  0  0  0  0  0  0  0  0  0
    8.5413  -12.9501   27.7669 C   0  0  0  0  0  0  0  0  0  0  0  0
    8.7877  -14.2266   27.2834 C   0  0  0  0  0  0  0  0  0  0  0  0
    7.8441  -14.8699   26.5346 C   0  0  0  0  0  0  0  0  0  0  0  0
   11.3405  -17.4063   25.6135 C   0  0  0  0  0  0  0  0  0  0  0  0
   12.0721  -17.9925   24.7826 O   0  0  0  0  0  0  0  0  0  0  0  0
   11.7479  -17.5717   26.9548 O   0  0  0  0  0  0  0  0  0  0  0  0
  2  1  1  0
  3  2  2  0
  4  2  1  0
  5  6  1  0
  5  4  1  0
  6  7  1  6
  8  9  2  0
  8  6  1  0
 10 11  1  0
 11 12  2  0
 12 13  1  0
 14 13  2  0
 14 15  1  0
 16 15  1  1
 16 17  1  0
 17  8  1  0
 18 19  2  0
 18 16  1  0
 20 14  1  0
 21 11  1  0
 21 20  2  0
 22 18  1  0
 23 24  1  1
 23 22  1  0
 25 24  1  0
 25 33  1  0
 26 27  1  0
 26 25  2  0
 27 28  1  0
 28 29  2  0
 28 33  1  0
 29 30  1  0
 30 31  2  0
 32 31  1  0
 33 32  2  0
 34 23  1  0
 35 34  2  0
 36 34  1  0
M  END
$$$$
