QYW.pdb
     RDKit          3D

 36 38  0  0  1  0  0  0  0  0999 V2000
   12.0830  -18.9823   15.9048 N   0  0  0  0  0  0  0  0  0  0  0  0
   10.8377  -18.6066   16.5164 C   0  0  0  0  0  0  0  0  0  0  0  0
   10.0027  -17.9394   15.8617 O   0  0  0  0  0  0  0  0  0  0  0  0
   10.5854  -19.0205   17.8832 C   0  0  0  0  0  0  0  0  0  0  0  0
   11.1822  -18.1289   18.8986 C   0  0  0  0  0  0  0  0  0  0  0  0
   10.7102  -18.2580   20.3022 C   0  0  2  0  0  0  0  0  0  0  0  0
    9.3629  -18.7215   20.4617 N   0  0  0  0  0  0  0  0  0  0  0  0
   10.8633  -16.9722   21.0338 C   0  0  0  0  0  0  0  0  0  0  0  0
   11.9819  -16.3861   20.9642 O   0  0  0  0  0  0  0  0  0  0  0  0
    7.5360  -12.6877   17.0412 O   0  0  0  0  0  0  0  0  0  0  0  0
    7.8587  -13.0894   18.3504 C   0  0  0  0  0  0  0  0  0  0  0  0
    6.9696  -13.8286   19.0986 C   0  0  0  0  0  0  0  0  0  0  0  0
    7.2797  -14.2252   20.3824 C   0  0  0  0  0  0  0  0  0  0  0  0
    8.4979  -13.8963   20.9713 C   0  0  0  0  0  0  0  0  0  0  0  0
    8.7991  -14.2725   22.3481 C   0  0  0  0  0  0  0  0  0  0  0  0
   10.0392  -15.0734   22.4856 C   0  0  2  0  0  0  0  0  0  0  0  0
    9.8587  -16.3742   21.7866 N   0  0  0  0  0  0  0  0  0  0  0  0
   10.3524  -15.4186   23.8652 C   0  0  0  0  0  0  0  0  0  0  0  0
   11.2135  -14.7091   24.4919 O   0  0  0  0  0  0  0  0  0  0  0  0
    9.3792  -13.1593   20.2189 C   0  0  0  0  0  0  0  0  0  0  0  0
    9.0671  -12.7555   18.9162 C   0  0  0  0  0  0  0  0  0  0  0  0
    9.8009  -16.4739   24.6367 N   0  0  0  0  0  0  0  0  0  0  0  0
   10.1356  -16.6735   26.0331 C   0  0  1  0  0  0  0  0  0  0  0  0
    9.6460  -15.4610   26.8157 C   0  0  0  0  0  0  0  0  0  0  0  0
    8.2294  -15.1882   26.5408 C   0  0  0  0  0  0  0  0  0  0  0  0
    7.2958  -16.0444   26.0022 C   0  0  0  0  0  0  0  0  0  0  0  0
    6.1067  -15.3968   25.9160 N   0  0  0  0  0  0  0  0  0  0  0  0
    6.2315  -14.1395   26.3822 C   0  0  0  0  0  0  0  0  0  0  0  0
    5.3112  -13.1092   26.4979 C   0  0  0  0  0  0  0  0  0  0  0  0
    5.7464  -11.9132   27.0238 C   0  0  0  0  0  0  0  0  0  0  0  0
    7.0542  -11.7590   27.4177 C   0  0  0  0  0  0  0  0  0  0  0  0
    7.9553  -12.8059   27.2914 C   0  0  0  0  0  0  0  0  0  0  0  0
    7.5481  -14.0018   26.7727 C   0  0  0  0  0  0  0  0  0  0  0  0
    9.6710  -17.9292   26.6054 C   0  0  0  0  0  0  0  0  0  0  0  0
    8.9689  -18.7801   26.0118 O   0  0  0  0  0  0  0  0  0  0  0  0
   10.0010  -18.2813   27.9319 O   0  0  0  0  0  0  0  0  0  0  0  0
  2  1  1  0
  3  2  2  0
  4  2  1  0
  5  6  1  0
  5  4  1  0
  6  7  1  6
  8  9  2  0
  8  6  1  0
 10 11  1  0
 11 12  2  0
 12 13  1  0
 14 13  2  0
 14 15  1  0
 16 15  1  1
 16 17  1  0
 17  8  1  0
 18 19  2  0
 18 16  1  0
 20 14  1  0
 21 11  1  0
 21 20  2  0
 22 18  1  0
 23 24  1  1
 23 22  1  0
 25 24  1  0
 25 33  1  0
 26 27  1  0
 26 25  2  0
 27 28  1  0
 28 29  2  0
 28 33  1  0
 29 30  1  0
 30 31  2  0
 32 31  1  0
 33 32  2  0
 34 23  1  0
 35 34  2  0
 36 34  1  0
M  END
$$$$
