QYW.pdb
     RDKit          3D

 36 38  0  0  1  0  0  0  0  0999 V2000
    8.3582  -12.3545   18.3535 N   0  0  0  0  0  0  0  0  0  0  0  0
    7.8481  -13.3934   17.5011 C   0  0  0  0  0  0  0  0  0  0  0  0
    7.9537  -13.2813   16.2572 O   0  0  0  0  0  0  0  0  0  0  0  0
    7.2261  -14.5500   18.1161 C   0  0  0  0  0  0  0  0  0  0  0  0
    7.6811  -14.8112   19.4970 C   0  0  0  0  0  0  0  0  0  0  0  0
    8.9625  -15.5421   19.6812 C   0  0  2  0  0  0  0  0  0  0  0  0
    9.2774  -16.5041   18.6660 N   0  0  0  0  0  0  0  0  0  0  0  0
    9.0035  -16.2149   21.0069 C   0  0  0  0  0  0  0  0  0  0  0  0
    8.0587  -15.9804   21.8144 O   0  0  0  0  0  0  0  0  0  0  0  0
   11.2269  -21.8223   27.5246 O   0  0  0  0  0  0  0  0  0  0  0  0
   11.1081  -21.1534   26.2925 C   0  0  0  0  0  0  0  0  0  0  0  0
   12.1957  -20.5286   25.7236 C   0  0  0  0  0  0  0  0  0  0  0  0
   12.0857  -19.8711   24.5165 C   0  0  0  0  0  0  0  0  0  0  0  0
   10.8771  -19.8125   23.8273 C   0  0  0  0  0  0  0  0  0  0  0  0
   10.7537  -19.0705   22.5775 C   0  0  0  0  0  0  0  0  0  0  0  0
    9.9668  -17.8206   22.7057 C   0  0  2  0  0  0  0  0  0  0  0  0
   10.0102  -17.0831   21.4145 N   0  0  0  0  0  0  0  0  0  0  0  0
   10.5077  -16.8977   23.6938 C   0  0  0  0  0  0  0  0  0  0  0  0
   11.6718  -16.4043   23.4958 O   0  0  0  0  0  0  0  0  0  0  0  0
    9.7975  -20.4380   24.4008 C   0  0  0  0  0  0  0  0  0  0  0  0
    9.9061  -21.1057   25.6255 C   0  0  0  0  0  0  0  0  0  0  0  0
    9.8858  -16.4514   24.8884 N   0  0  0  0  0  0  0  0  0  0  0  0
   10.6431  -15.9574   26.0217 C   0  0  1  0  0  0  0  0  0  0  0  0
   10.1110  -14.5754   26.3812 C   0  0  0  0  0  0  0  0  0  0  0  0
    8.6461  -14.5297   26.2876 C   0  0  0  0  0  0  0  0  0  0  0  0
    7.7304  -15.1750   27.0876 C   0  0  0  0  0  0  0  0  0  0  0  0
    6.4807  -14.8635   26.6608 N   0  0  0  0  0  0  0  0  0  0  0  0
    6.5482  -14.0322   25.6034 C   0  0  0  0  0  0  0  0  0  0  0  0
    5.5557  -13.4464   24.8331 C   0  0  0  0  0  0  0  0  0  0  0  0
    5.9443  -12.6262   23.7974 C   0  0  0  0  0  0  0  0  0  0  0  0
    7.2773  -12.4036   23.5462 C   0  0  0  0  0  0  0  0  0  0  0  0
    8.2509  -13.0021   24.3322 C   0  0  0  0  0  0  0  0  0  0  0  0
    7.8909  -13.8197   25.3650 C   0  0  0  0  0  0  0  0  0  0  0  0
   10.6888  -16.8516   27.1700 C   0  0  0  0  0  0  0  0  0  0  0  0
   11.4388  -16.7164   28.1642 O   0  0  0  0  0  0  0  0  0  0  0  0
    9.8470  -17.9828   27.2352 O   0  0  0  0  0  0  0  0  0  0  0  0
  2  1  1  0
  3  2  2  0
  4  2  1  0
  5  6  1  0
  5  4  1  0
  6  7  1  6
  8  9  2  0
  8  6  1  0
 10 11  1  0
 11 12  2  0
 12 13  1  0
 14 13  2  0
 14 15  1  0
 16 15  1  6
 16 17  1  0
 17  8  1  0
 18 19  2  0
 18 16  1  0
 20 14  1  0
 21 11  1  0
 21 20  2  0
 22 18  1  0
 23 24  1  1
 23 22  1  0
 25 24  1  0
 25 33  1  0
 26 27  1  0
 26 25  2  0
 27 28  1  0
 28 29  2  0
 28 33  1  0
 29 30  1  0
 30 31  2  0
 32 31  1  0
 33 32  2  0
 34 23  1  0
 35 34  2  0
 36 34  1  0
M  END
$$$$
