QYW.pdb
     RDKit          3D

 36 38  0  0  1  0  0  0  0  0999 V2000
   11.6742  -17.0010   16.5676 N   0  0  0  0  0  0  0  0  0  0  0  0
   10.9168  -18.2042   16.7792 C   0  0  0  0  0  0  0  0  0  0  0  0
   10.6777  -18.9637   15.8112 O   0  0  0  0  0  0  0  0  0  0  0  0
   10.4539  -18.5037   18.1205 C   0  0  0  0  0  0  0  0  0  0  0  0
   10.8012  -17.4712   19.1182 C   0  0  0  0  0  0  0  0  0  0  0  0
   10.5043  -17.7557   20.5467 C   0  0  2  0  0  0  0  0  0  0  0  0
    9.2838  -18.4654   20.7954 N   0  0  0  0  0  0  0  0  0  0  0  0
   10.5006  -16.5024   21.3475 C   0  0  0  0  0  0  0  0  0  0  0  0
   11.5201  -15.7573   21.2774 O   0  0  0  0  0  0  0  0  0  0  0  0
    7.2513  -13.1328   16.9555 O   0  0  0  0  0  0  0  0  0  0  0  0
    7.4790  -13.3778   18.3222 C   0  0  0  0  0  0  0  0  0  0  0  0
    6.8687  -14.4360   18.9582 C   0  0  0  0  0  0  0  0  0  0  0  0
    7.0874  -14.6814   20.2974 C   0  0  0  0  0  0  0  0  0  0  0  0
    7.9297  -13.8736   21.0571 C   0  0  0  0  0  0  0  0  0  0  0  0
    8.1157  -14.1057   22.4851 C   0  0  0  0  0  0  0  0  0  0  0  0
    9.4037  -14.7609   22.8160 C   0  0  2  0  0  0  0  0  0  0  0  0
    9.4513  -16.0979   22.1653 N   0  0  0  0  0  0  0  0  0  0  0  0
    9.5697  -15.0201   24.2393 C   0  0  0  0  0  0  0  0  0  0  0  0
    9.7507  -14.0255   25.0241 O   0  0  0  0  0  0  0  0  0  0  0  0
    8.5346  -12.8207   20.4157 C   0  0  0  0  0  0  0  0  0  0  0  0
    8.3144  -12.5693   19.0571 C   0  0  0  0  0  0  0  0  0  0  0  0
    9.5484  -16.2780   24.8952 N   0  0  0  0  0  0  0  0  0  0  0  0
   10.1917  -16.4984   26.1756 C   0  0  1  0  0  0  0  0  0  0  0  0
    9.1953  -16.1457   27.2735 C   0  0  0  0  0  0  0  0  0  0  0  0
    7.9599  -15.5866   26.7097 C   0  0  0  0  0  0  0  0  0  0  0  0
    6.9526  -16.2593   26.0558 C   0  0  0  0  0  0  0  0  0  0  0  0
    5.9936  -15.3692   25.6967 N   0  0  0  0  0  0  0  0  0  0  0  0
    6.3413  -14.1307   26.0955 C   0  0  0  0  0  0  0  0  0  0  0  0
    5.6978  -12.9102   25.9617 C   0  0  0  0  0  0  0  0  0  0  0  0
    6.3160  -11.7958   26.4835 C   0  0  0  0  0  0  0  0  0  0  0  0
    7.5322  -11.9039   27.1147 C   0  0  0  0  0  0  0  0  0  0  0  0
    8.1551  -13.1373   27.2354 C   0  0  0  0  0  0  0  0  0  0  0  0
    7.5624  -14.2572   26.7261 C   0  0  0  0  0  0  0  0  0  0  0  0
   10.7711  -17.8221   26.3550 C   0  0  0  0  0  0  0  0  0  0  0  0
   11.3679  -18.2187   27.3826 O   0  0  0  0  0  0  0  0  0  0  0  0
   10.6907  -18.7881   25.3288 O   0  0  0  0  0  0  0  0  0  0  0  0
  2  1  1  0
  3  2  2  0
  4  2  1  0
  5  6  1  0
  5  4  1  0
  6  7  1  6
  8  9  2  0
  8  6  1  0
 10 11  1  0
 11 12  2  0
 12 13  1  0
 14 13  2  0
 14 15  1  0
 16 15  1  1
 16 17  1  0
 17  8  1  0
 18 19  2  0
 18 16  1  0
 20 14  1  0
 21 11  1  0
 21 20  2  0
 22 18  1  0
 23 24  1  1
 23 22  1  0
 25 24  1  0
 25 33  1  0
 26 27  1  0
 26 25  2  0
 27 28  1  0
 28 29  2  0
 28 33  1  0
 29 30  1  0
 30 31  2  0
 32 31  1  0
 33 32  2  0
 34 23  1  0
 35 34  2  0
 36 34  1  0
M  END
$$$$
