QYW.pdb
     RDKit          3D

 36 38  0  0  1  0  0  0  0  0999 V2000
    6.2819  -13.4076   20.1011 N   0  0  0  0  0  0  0  0  0  0  0  0
    7.6951  -13.3632   19.8426 C   0  0  0  0  0  0  0  0  0  0  0  0
    8.2355  -12.2734   19.5404 O   0  0  0  0  0  0  0  0  0  0  0  0
    8.4564  -14.5933   19.9456 C   0  0  0  0  0  0  0  0  0  0  0  0
    7.6977  -15.7201   20.5257 C   0  0  0  0  0  0  0  0  0  0  0  0
    8.3425  -17.0595   20.5400 C   0  0  2  0  0  0  0  0  0  0  0  0
    7.4938  -18.1507   20.9198 N   0  0  0  0  0  0  0  0  0  0  0  0
    9.5439  -17.0605   21.4167 C   0  0  0  0  0  0  0  0  0  0  0  0
   10.4806  -16.2602   21.1308 O   0  0  0  0  0  0  0  0  0  0  0  0
   14.0634  -20.4900   18.3728 O   0  0  0  0  0  0  0  0  0  0  0  0
   13.5500  -19.6982   19.4164 C   0  0  0  0  0  0  0  0  0  0  0  0
   13.3943  -18.3391   19.2569 C   0  0  0  0  0  0  0  0  0  0  0  0
   12.8920  -17.5575   20.2758 C   0  0  0  0  0  0  0  0  0  0  0  0
   12.5235  -18.1076   21.5009 C   0  0  0  0  0  0  0  0  0  0  0  0
   12.0430  -17.2690   22.5933 C   0  0  0  0  0  0  0  0  0  0  0  0
   10.9330  -17.8787   23.3643 C   0  0  2  0  0  0  0  0  0  0  0  0
    9.7030  -17.8816   22.5275 N   0  0  0  0  0  0  0  0  0  0  0  0
   10.5818  -17.1275   24.5613 C   0  0  0  0  0  0  0  0  0  0  0  0
   11.1583  -16.0038   24.7682 O   0  0  0  0  0  0  0  0  0  0  0  0
   12.6814  -19.4634   21.6521 C   0  0  0  0  0  0  0  0  0  0  0  0
   13.1910  -20.2588   20.6200 C   0  0  0  0  0  0  0  0  0  0  0  0
    9.6429  -17.4888   25.5618 N   0  0  0  0  0  0  0  0  0  0  0  0
    9.6029  -16.8443   26.8598 C   0  0  1  0  0  0  0  0  0  0  0  0
    8.1507  -16.5090   27.1778 C   0  0  0  0  0  0  0  0  0  0  0  0
    7.6234  -15.4999   26.2502 C   0  0  0  0  0  0  0  0  0  0  0  0
    6.9160  -15.7117   25.0884 C   0  0  0  0  0  0  0  0  0  0  0  0
    6.6187  -14.5103   24.5324 N   0  0  0  0  0  0  0  0  0  0  0  0
    7.1101  -13.5149   25.2948 C   0  0  0  0  0  0  0  0  0  0  0  0
    7.0638  -12.1375   25.1454 C   0  0  0  0  0  0  0  0  0  0  0  0
    7.6703  -11.3644   26.1103 C   0  0  0  0  0  0  0  0  0  0  0  0
    8.2981  -11.9524   27.1825 C   0  0  0  0  0  0  0  0  0  0  0  0
    8.3302  -13.3334   27.3085 C   0  0  0  0  0  0  0  0  0  0  0  0
    7.7361  -14.1217   26.3647 C   0  0  0  0  0  0  0  0  0  0  0  0
   10.2514  -17.5817   27.9349 C   0  0  0  0  0  0  0  0  0  0  0  0
   10.3182  -17.2115   29.1298 O   0  0  0  0  0  0  0  0  0  0  0  0
   10.8760  -18.8220   27.6821 O   0  0  0  0  0  0  0  0  0  0  0  0
  2  1  1  0
  3  2  2  0
  4  2  1  0
  5  6  1  0
  5  4  1  0
  6  7  1  1
  8  9  2  0
  8  6  1  0
 10 11  1  0
 11 12  2  0
 12 13  1  0
 14 13  2  0
 14 15  1  0
 16 15  1  6
 16 17  1  0
 17  8  1  0
 18 19  2  0
 18 16  1  0
 20 14  1  0
 21 11  1  0
 21 20  2  0
 22 18  1  0
 23 24  1  1
 23 22  1  0
 25 24  1  0
 25 33  1  0
 26 27  1  0
 26 25  2  0
 27 28  1  0
 28 29  2  0
 28 33  1  0
 29 30  1  0
 30 31  2  0
 32 31  1  0
 33 32  2  0
 34 23  1  0
 35 34  2  0
 36 34  1  0
M  END
$$$$
