QYW.pdb
     RDKit          3D

 36 38  0  0  1  0  0  0  0  0999 V2000
   10.9425  -17.6042   16.2289 N   0  0  0  0  0  0  0  0  0  0  0  0
    9.7562  -18.3772   16.4763 C   0  0  0  0  0  0  0  0  0  0  0  0
    9.0493  -18.7526   15.5117 O   0  0  0  0  0  0  0  0  0  0  0  0
    9.4165  -18.7037   17.8479 C   0  0  0  0  0  0  0  0  0  0  0  0
   10.1688  -17.9248   18.8526 C   0  0  0  0  0  0  0  0  0  0  0  0
    9.9013  -18.1991   20.2889 C   0  0  2  0  0  0  0  0  0  0  0  0
    8.5600  -18.5952   20.6038 N   0  0  0  0  0  0  0  0  0  0  0  0
   10.2636  -17.0267   21.1292 C   0  0  0  0  0  0  0  0  0  0  0  0
   11.4372  -16.5675   21.0227 O   0  0  0  0  0  0  0  0  0  0  0  0
    7.1003  -13.4536   17.1434 O   0  0  0  0  0  0  0  0  0  0  0  0
    7.4573  -13.6304   18.4928 C   0  0  0  0  0  0  0  0  0  0  0  0
    8.4541  -12.8694   19.0621 C   0  0  0  0  0  0  0  0  0  0  0  0
    8.8089  -13.0379   20.3839 C   0  0  0  0  0  0  0  0  0  0  0  0
    8.1771  -13.9793   21.1926 C   0  0  0  0  0  0  0  0  0  0  0  0
    8.5925  -14.1904   22.5748 C   0  0  0  0  0  0  0  0  0  0  0  0
    9.7303  -15.1306   22.7144 C   0  0  2  0  0  0  0  0  0  0  0  0
    9.3975  -16.4042   22.0214 N   0  0  0  0  0  0  0  0  0  0  0  0
   10.0031  -15.5043   24.0952 C   0  0  0  0  0  0  0  0  0  0  0  0
   10.5400  -14.6370   24.8680 O   0  0  0  0  0  0  0  0  0  0  0  0
    7.1842  -14.7339   20.6177 C   0  0  0  0  0  0  0  0  0  0  0  0
    6.8223  -14.5652   19.2768 C   0  0  0  0  0  0  0  0  0  0  0  0
    9.7341  -16.7488   24.7211 N   0  0  0  0  0  0  0  0  0  0  0  0
    9.9778  -16.9787   26.1316 C   0  0  1  0  0  0  0  0  0  0  0  0
    8.7098  -16.6185   26.8965 C   0  0  0  0  0  0  0  0  0  0  0  0
    8.6754  -15.1872   27.2233 C   0  0  0  0  0  0  0  0  0  0  0  0
    9.5738  -14.4755   27.9858 C   0  0  0  0  0  0  0  0  0  0  0  0
    9.1727  -13.1804   28.0389 N   0  0  0  0  0  0  0  0  0  0  0  0
    8.0366  -13.0201   27.3337 C   0  0  0  0  0  0  0  0  0  0  0  0
    7.2560  -11.8996   27.0957 C   0  0  0  0  0  0  0  0  0  0  0  0
    6.1287  -12.0532   26.3196 C   0  0  0  0  0  0  0  0  0  0  0  0
    5.7996  -13.2839   25.8034 C   0  0  0  0  0  0  0  0  0  0  0  0
    6.5979  -14.3895   26.0566 C   0  0  0  0  0  0  0  0  0  0  0  0
    7.7209  -14.2629   26.8234 C   0  0  0  0  0  0  0  0  0  0  0  0
   10.4687  -18.3086   26.4640 C   0  0  0  0  0  0  0  0  0  0  0  0
   10.7021  -18.7264   27.6218 O   0  0  0  0  0  0  0  0  0  0  0  0
   10.7241  -19.2560   25.4493 O   0  0  0  0  0  0  0  0  0  0  0  0
  2  1  1  0
  3  2  2  0
  4  2  1  0
  5  6  1  0
  5  4  1  0
  6  7  1  6
  8  9  2  0
  8  6  1  0
 10 11  1  0
 11 12  2  0
 12 13  1  0
 14 13  2  0
 14 15  1  0
 16 15  1  1
 16 17  1  0
 17  8  1  0
 18 19  2  0
 18 16  1  0
 20 14  1  0
 21 11  1  0
 21 20  2  0
 22 18  1  0
 23 24  1  1
 23 22  1  0
 25 24  1  0
 25 33  1  0
 26 27  1  0
 26 25  2  0
 27 28  1  0
 28 29  2  0
 28 33  1  0
 29 30  1  0
 30 31  2  0
 32 31  1  0
 33 32  2  0
 34 23  1  0
 35 34  2  0
 36 34  1  0
M  END
$$$$
