HRR.pdb
     RDKit          3D

 33 33  0  0  1  0  0  0  0  0999 V2000
   24.4738  -19.7020  -17.7601 N   0  0  0  0  0  0  0  0  0  0  0  0
   23.6269  -19.1169  -16.7512 C   0  0  1  0  0  0  0  0  0  0  0  0
   22.3075  -18.6359  -17.3558 C   0  0  0  0  0  0  0  0  0  0  0  0
   22.5955  -17.4974  -18.2513 C   0  0  0  0  0  0  0  0  0  0  0  0
   22.5597  -17.4503  -19.6229 C   0  0  0  0  0  0  0  0  0  0  0  0
   22.8963  -16.1980  -20.0414 N   0  0  0  0  0  0  0  0  0  0  0  0
   23.1376  -15.4784  -18.9393 C   0  0  0  0  0  0  0  0  0  0  0  0
   22.9558  -16.2639  -17.8578 N   0  0  0  0  0  0  0  0  0  0  0  0
   23.3262  -20.1383  -15.7202 C   0  0  0  0  0  0  0  0  0  0  0  0
   23.3227  -21.3609  -16.0165 O   0  0  0  0  0  0  0  0  0  0  0  0
   28.1051  -19.7203  -12.6765 N   0  0  0  0  0  0  0  0  0  0  0  0
   28.2256  -20.8187  -11.8052 C   0  0  0  0  0  0  0  0  0  0  0  0
   29.3520  -21.4117  -11.6572 N   0  0  0  0  0  0  0  0  0  0  0  0
   27.1029  -21.2757  -11.0875 N   0  0  0  0  0  0  0  0  0  0  0  0
   25.8789  -20.5442  -11.1001 C   0  0  0  0  0  0  0  0  0  0  0  0
   24.7999  -21.3260  -11.8530 C   0  0  0  0  0  0  0  0  0  0  0  0
   23.7290  -20.3387  -12.1872 C   0  0  0  0  0  0  0  0  0  0  0  0
   22.8810  -20.8116  -13.3863 C   0  0  2  0  0  0  0  0  0  0  0  0
   23.0372  -19.7734  -14.3784 N   0  0  0  0  0  0  0  0  0  0  0  0
   21.4571  -20.9301  -12.9643 C   0  0  0  0  0  0  0  0  0  0  0  0
   20.8178  -19.8734  -12.7410 O   0  0  0  0  0  0  0  0  0  0  0  0
   29.4791  -22.2362  -11.0442 N   0  0  0  0  0  0  0  0  0  0  0  0
   19.2759  -24.4732   -7.1587 C   0  0  0  0  0  0  0  0  0  0  0  0
   18.5114  -25.4283   -7.9174 N   0  0  0  0  0  0  0  0  0  0  0  0
   18.5836  -26.6801   -7.6415 N   0  0  0  0  0  0  0  0  0  0  0  0
   17.6681  -25.0324   -8.9782 C   0  0  0  0  0  0  0  0  0  0  0  0
   17.8358  -23.7545   -9.6289 C   0  0  0  0  0  0  0  0  0  0  0  0
   19.2328  -23.6253  -10.1958 C   0  0  0  0  0  0  0  0  0  0  0  0
   19.4534  -22.2876  -10.8445 C   0  0  2  0  0  0  0  0  0  0  0  0
   19.4471  -22.3322  -12.3353 N   0  0  0  0  0  0  0  0  0  0  0  0
   20.8098  -22.1844  -12.8084 C   0  0  0  0  0  0  0  0  0  0  0  0
   18.5399  -21.3350  -12.9501 O   0  0  0  0  0  0  0  0  0  0  0  0
   18.8652  -20.8775  -14.2306 O   0  0  0  0  0  0  0  0  0  0  0  0
  2  3  1  0
  2  9  1  0
  2  1  1  6
  4  3  1  0
  4  5  2  0
  6  5  1  0
  7  6  1  0
  8  7  2  0
  8  4  1  0
  9 10  2  0
 11 12  1  0
 12 13  2  0
 12 14  1  0
 14 15  1  0
 15 16  1  0
 17 16  1  0
 18 17  1  1
 19 18  1  0
 19  9  1  0
 20 21  2  0
 20 18  1  0
 22 23  1  0
 23 25  1  0
 24 23  2  0
 25 26  1  0
 27 26  1  0
 27 28  1  0
 29 28  1  1
 29 30  1  0
 30 20  1  0
 31 32  1  0
 31 29  1  0
 33 31  2  0
M  END
$$$$
