HRR.pdb
     RDKit          3D

 33 33  0  0  1  0  0  0  0  0999 V2000
   21.9775  -21.3627  -20.1801 N   0  0  0  0  0  0  0  0  0  0  0  0
   22.1028  -21.2607  -18.7479 C   0  0  1  0  0  0  0  0  0  0  0  0
   21.7195  -19.8623  -18.2631 C   0  0  0  0  0  0  0  0  0  0  0  0
   22.7784  -18.9207  -18.6793 C   0  0  0  0  0  0  0  0  0  0  0  0
   23.9621  -18.6236  -18.0507 C   0  0  0  0  0  0  0  0  0  0  0  0
   24.6431  -17.6978  -18.7827 N   0  0  0  0  0  0  0  0  0  0  0  0
   23.8876  -17.4255  -19.8531 C   0  0  0  0  0  0  0  0  0  0  0  0
   22.7608  -18.1647  -19.7902 N   0  0  0  0  0  0  0  0  0  0  0  0
   21.1941  -22.2437  -18.1117 C   0  0  0  0  0  0  0  0  0  0  0  0
   20.1107  -22.5619  -18.6664 O   0  0  0  0  0  0  0  0  0  0  0  0
   25.1293  -26.7201  -17.1886 N   0  0  0  0  0  0  0  0  0  0  0  0
   25.2577  -25.9128  -16.0431 C   0  0  0  0  0  0  0  0  0  0  0  0
   26.3182  -25.2197  -15.8507 N   0  0  0  0  0  0  0  0  0  0  0  0
   24.2161  -25.8624  -15.0960 N   0  0  0  0  0  0  0  0  0  0  0  0
   23.0070  -26.5908  -15.2984 C   0  0  0  0  0  0  0  0  0  0  0  0
   22.0764  -25.8249  -16.2419 C   0  0  0  0  0  0  0  0  0  0  0  0
   21.4704  -24.7284  -15.4273 C   0  0  0  0  0  0  0  0  0  0  0  0
   20.5914  -23.8027  -16.2938 C   0  0  2  0  0  0  0  0  0  0  0  0
   21.5149  -22.8528  -16.8694 N   0  0  0  0  0  0  0  0  0  0  0  0
   19.5976  -23.1137  -15.4236 C   0  0  0  0  0  0  0  0  0  0  0  0
   20.0006  -22.1717  -14.6987 O   0  0  0  0  0  0  0  0  0  0  0  0
   26.4736  -24.6509  -14.9998 N   0  0  0  0  0  0  0  0  0  0  0  0
   18.6058  -27.1928  -11.1736 C   0  0  0  0  0  0  0  0  0  0  0  0
   18.5113  -26.1017  -10.2394 N   0  0  0  0  0  0  0  0  0  0  0  0
   19.2535  -26.0808   -9.1920 N   0  0  0  0  0  0  0  0  0  0  0  0
   17.6121  -25.0307  -10.4343 C   0  0  0  0  0  0  0  0  0  0  0  0
   16.7446  -24.9840  -11.5874 C   0  0  0  0  0  0  0  0  0  0  0  0
   17.5349  -24.6537  -12.8348 C   0  0  0  0  0  0  0  0  0  0  0  0
   17.5389  -23.1784  -13.1219 C   0  0  2  0  0  0  0  0  0  0  0  0
   17.2412  -22.8400  -14.5437 N   0  0  0  0  0  0  0  0  0  0  0  0
   18.2273  -23.4848  -15.3890 C   0  0  0  0  0  0  0  0  0  0  0  0
   17.1665  -21.3823  -14.7986 O   0  0  0  0  0  0  0  0  0  0  0  0
   16.2279  -20.6514  -14.0640 O   0  0  0  0  0  0  0  0  0  0  0  0
  2  3  1  0
  2  9  1  0
  2  1  1  6
  4  3  1  0
  4  5  2  0
  6  5  1  0
  7  6  1  0
  8  7  2  0
  8  4  1  0
  9 10  2  0
 11 12  1  0
 12 13  2  0
 12 14  1  0
 14 15  1  0
 15 16  1  0
 17 16  1  0
 18 17  1  1
 19 18  1  0
 19  9  1  0
 20 21  2  0
 20 18  1  0
 22 23  1  0
 23 25  1  0
 24 23  2  0
 25 26  1  0
 27 26  1  0
 27 28  1  0
 29 28  1  6
 29 30  1  0
 30 20  1  0
 31 32  1  0
 31 29  1  0
 33 31  2  0
M  END
$$$$
