HRR.pdb
     RDKit          3D

 33 33  0  0  1  0  0  0  0  0999 V2000
   27.7888  -20.2876  -17.0653 N   0  0  0  0  0  0  0  0  0  0  0  0
   26.6228  -21.0549  -16.7061 C   0  0  1  0  0  0  0  0  0  0  0  0
   26.4549  -22.2608  -17.6309 C   0  0  0  0  0  0  0  0  0  0  0  0
   26.2447  -21.7649  -19.0061 C   0  0  0  0  0  0  0  0  0  0  0  0
   25.0638  -21.5359  -19.6677 C   0  0  0  0  0  0  0  0  0  0  0  0
   25.3302  -21.0786  -20.9233 N   0  0  0  0  0  0  0  0  0  0  0  0
   26.6625  -21.0256  -21.0365 C   0  0  0  0  0  0  0  0  0  0  0  0
   27.2148  -21.4404  -19.8777 N   0  0  0  0  0  0  0  0  0  0  0  0
   26.7767  -21.5468  -15.3165 C   0  0  0  0  0  0  0  0  0  0  0  0
   26.0337  -22.4627  -14.8788 O   0  0  0  0  0  0  0  0  0  0  0  0
   31.1477  -21.0069   -9.3144 N   0  0  0  0  0  0  0  0  0  0  0  0
   31.6414  -21.9130  -10.2712 C   0  0  0  0  0  0  0  0  0  0  0  0
   32.1392  -23.0365   -9.9076 N   0  0  0  0  0  0  0  0  0  0  0  0
   31.5918  -21.5884  -11.6410 N   0  0  0  0  0  0  0  0  0  0  0  0
   31.2850  -20.2629  -12.0683 C   0  0  0  0  0  0  0  0  0  0  0  0
   29.7801  -20.1155  -12.3051 C   0  0  0  0  0  0  0  0  0  0  0  0
   29.2871  -21.4704  -12.6980 C   0  0  0  0  0  0  0  0  0  0  0  0
   27.7892  -21.4398  -13.0665 C   0  0  2  0  0  0  0  0  0  0  0  0
   27.7589  -21.0067  -14.4442 N   0  0  0  0  0  0  0  0  0  0  0  0
   27.0876  -20.4615  -12.1889 C   0  0  0  0  0  0  0  0  0  0  0  0
   27.1254  -19.2484  -12.5089 O   0  0  0  0  0  0  0  0  0  0  0  0
   32.5721  -23.7028  -10.5713 N   0  0  0  0  0  0  0  0  0  0  0  0
   18.9335  -21.0029  -13.0188 C   0  0  0  0  0  0  0  0  0  0  0  0
   19.7696  -20.0350  -13.6793 N   0  0  0  0  0  0  0  0  0  0  0  0
   19.2552  -19.1801  -14.4873 N   0  0  0  0  0  0  0  0  0  0  0  0
   21.1650  -19.9900  -13.4694 C   0  0  0  0  0  0  0  0  0  0  0  0
   21.8619  -21.0881  -12.8423 C   0  0  0  0  0  0  0  0  0  0  0  0
   22.6986  -20.5944  -11.6823 C   0  0  0  0  0  0  0  0  0  0  0  0
   24.1587  -20.8928  -11.8768 C   0  0  1  0  0  0  0  0  0  0  0  0
   25.0181  -20.4700  -10.7334 N   0  0  0  0  0  0  0  0  0  0  0  0
   26.3874  -20.8533  -11.0172 C   0  0  0  0  0  0  0  0  0  0  0  0
   24.5590  -20.9957   -9.4263 O   0  0  0  0  0  0  0  0  0  0  0  0
   25.0052  -22.2679   -9.0557 O   0  0  0  0  0  0  0  0  0  0  0  0
  2  3  1  0
  2  9  1  0
  2  1  1  6
  4  3  1  0
  4  5  2  0
  6  5  1  0
  7  6  1  0
  8  7  2  0
  8  4  1  0
  9 10  2  0
 11 12  1  0
 12 13  2  0
 12 14  1  0
 14 15  1  0
 15 16  1  0
 17 16  1  0
 18 17  1  1
 19 18  1  0
 19  9  1  0
 20 21  2  0
 20 18  1  0
 22 23  1  0
 23 25  1  0
 24 23  2  0
 25 26  1  0
 27 26  1  0
 27 28  1  0
 29 28  1  6
 29 30  1  0
 30 20  1  0
 31 32  1  0
 31 29  1  0
 33 31  2  0
M  END
$$$$
