HRR.pdb
     RDKit          3D

 33 33  0  0  1  0  0  0  0  0999 V2000
   19.3224  -24.7550   -8.9999 N   0  0  0  0  0  0  0  0  0  0  0  0
   17.9857  -24.6114   -8.4803 C   0  0  1  0  0  0  0  0  0  0  0  0
   17.0188  -25.5616   -9.1872 C   0  0  0  0  0  0  0  0  0  0  0  0
   17.6139  -26.9132   -9.1877 C   0  0  0  0  0  0  0  0  0  0  0  0
   17.5341  -27.8895   -8.2259 C   0  0  0  0  0  0  0  0  0  0  0  0
   18.2327  -28.9855   -8.6349 N   0  0  0  0  0  0  0  0  0  0  0  0
   18.7392  -28.6894   -9.8376 C   0  0  0  0  0  0  0  0  0  0  0  0
   18.3651  -27.4370  -10.1713 N   0  0  0  0  0  0  0  0  0  0  0  0
   17.9913  -24.9371   -7.0344 C   0  0  0  0  0  0  0  0  0  0  0  0
   19.0491  -25.3206   -6.4717 O   0  0  0  0  0  0  0  0  0  0  0  0
   12.2209  -22.2117   -0.8840 N   0  0  0  0  0  0  0  0  0  0  0  0
   13.5385  -21.9977   -0.4386 C   0  0  0  0  0  0  0  0  0  0  0  0
   13.7791  -21.1665    0.5065 N   0  0  0  0  0  0  0  0  0  0  0  0
   14.6061  -22.6989   -1.0327 N   0  0  0  0  0  0  0  0  0  0  0  0
   14.6598  -22.8909   -2.4447 C   0  0  0  0  0  0  0  0  0  0  0  0
   15.8241  -23.8140   -2.8119 C   0  0  0  0  0  0  0  0  0  0  0  0
   15.7962  -23.9454   -4.3002 C   0  0  0  0  0  0  0  0  0  0  0  0
   16.9291  -24.8624   -4.8062 C   0  0  2  0  0  0  0  0  0  0  0  0
   16.8153  -24.8261   -6.2458 N   0  0  0  0  0  0  0  0  0  0  0  0
   16.7091  -26.2435   -4.2928 C   0  0  0  0  0  0  0  0  0  0  0  0
   15.7836  -26.9218   -4.8014 O   0  0  0  0  0  0  0  0  0  0  0  0
   14.7289  -21.0007    0.8837 N   0  0  0  0  0  0  0  0  0  0  0  0
   20.1792  -32.3049   -5.1165 C   0  0  0  0  0  0  0  0  0  0  0  0
   20.4481  -32.3936   -3.7051 N   0  0  0  0  0  0  0  0  0  0  0  0
   21.0565  -33.4175   -3.2257 N   0  0  0  0  0  0  0  0  0  0  0  0
   20.0578  -31.3761   -2.8076 C   0  0  0  0  0  0  0  0  0  0  0  0
   18.6641  -31.1118   -2.5381 C   0  0  0  0  0  0  0  0  0  0  0  0
   18.5199  -29.9873   -1.5360 C   0  0  0  0  0  0  0  0  0  0  0  0
   18.6074  -28.6375   -2.1911 C   0  0  1  0  0  0  0  0  0  0  0  0
   17.3095  -28.1480   -2.7391 N   0  0  0  0  0  0  0  0  0  0  0  0
   17.5027  -26.8085   -3.2596 C   0  0  0  0  0  0  0  0  0  0  0  0
   16.1988  -28.2031   -1.7599 O   0  0  0  0  0  0  0  0  0  0  0  0
   15.4486  -29.3819   -1.7087 O   0  0  0  0  0  0  0  0  0  0  0  0
  2  3  1  0
  2  9  1  0
  2  1  1  6
  4  3  1  0
  4  5  2  0
  6  5  1  0
  7  6  1  0
  8  7  2  0
  8  4  1  0
  9 10  2  0
 11 12  1  0
 12 13  2  0
 12 14  1  0
 14 15  1  0
 15 16  1  0
 17 16  1  0
 18 17  1  1
 19 18  1  0
 19  9  1  0
 20 21  2  0
 20 18  1  0
 22 23  1  0
 23 25  1  0
 24 23  2  0
 25 26  1  0
 27 26  1  0
 27 28  1  0
 29 28  1  6
 29 30  1  0
 30 20  1  0
 31 32  1  0
 31 29  1  0
 33 31  2  0
M  END
$$$$
