HRR.pdb
     RDKit          3D

 33 33  0  0  1  0  0  0  0  0999 V2000
   25.2195  -21.7808  -10.3052 N   0  0  0  0  0  0  0  0  0  0  0  0
   24.0635  -21.0369  -10.7384 C   0  0  1  0  0  0  0  0  0  0  0  0
   23.7060  -19.9449   -9.7299 C   0  0  0  0  0  0  0  0  0  0  0  0
   23.1924  -20.5934   -8.5065 C   0  0  0  0  0  0  0  0  0  0  0  0
   23.8206  -20.7743   -7.2993 C   0  0  0  0  0  0  0  0  0  0  0  0
   22.9800  -21.4219   -6.4445 N   0  0  0  0  0  0  0  0  0  0  0  0
   21.8436  -21.6391   -7.1169 C   0  0  0  0  0  0  0  0  0  0  0  0
   21.9724  -21.1383   -8.3629 N   0  0  0  0  0  0  0  0  0  0  0  0
   24.3619  -20.3944  -12.0403 C   0  0  0  0  0  0  0  0  0  0  0  0
   25.5430  -20.0835  -12.3415 O   0  0  0  0  0  0  0  0  0  0  0  0
   27.6810  -22.2647  -17.4002 N   0  0  0  0  0  0  0  0  0  0  0  0
   26.7281  -22.9479  -18.1783 C   0  0  0  0  0  0  0  0  0  0  0  0
   26.9603  -23.2081  -19.4114 N   0  0  0  0  0  0  0  0  0  0  0  0
   25.5069  -23.3512  -17.6035 N   0  0  0  0  0  0  0  0  0  0  0  0
   25.2107  -23.0647  -16.2384 C   0  0  0  0  0  0  0  0  0  0  0  0
   24.6070  -21.6643  -16.1078 C   0  0  0  0  0  0  0  0  0  0  0  0
   24.2300  -21.5073  -14.6703 C   0  0  0  0  0  0  0  0  0  0  0  0
   23.6554  -20.1034  -14.3887 C   0  0  2  0  0  0  0  0  0  0  0  0
   23.3348  -20.1138  -12.9802 N   0  0  0  0  0  0  0  0  0  0  0  0
   22.4282  -19.9016  -15.2091 C   0  0  0  0  0  0  0  0  0  0  0  0
   21.4828  -20.7147  -15.0667 O   0  0  0  0  0  0  0  0  0  0  0  0
   26.3225  -23.7744  -19.9982 N   0  0  0  0  0  0  0  0  0  0  0  0
   21.6524  -16.9520  -23.3489 C   0  0  0  0  0  0  0  0  0  0  0  0
   21.8632  -16.1402  -22.1791 N   0  0  0  0  0  0  0  0  0  0  0  0
   22.4521  -15.0036  -22.2782 N   0  0  0  0  0  0  0  0  0  0  0  0
   21.4396  -16.5561  -20.8981 C   0  0  0  0  0  0  0  0  0  0  0  0
   20.8394  -17.8534  -20.6945 C   0  0  0  0  0  0  0  0  0  0  0  0
   20.3823  -18.0090  -19.2605 C   0  0  0  0  0  0  0  0  0  0  0  0
   21.5258  -18.3282  -18.3389 C   0  0  2  0  0  0  0  0  0  0  0  0
   21.1088  -18.6026  -16.9333 N   0  0  0  0  0  0  0  0  0  0  0  0
   22.2970  -18.8327  -16.1347 C   0  0  0  0  0  0  0  0  0  0  0  0
   20.1407  -19.7180  -16.8137 O   0  0  0  0  0  0  0  0  0  0  0  0
   20.5853  -20.9930  -17.1761 O   0  0  0  0  0  0  0  0  0  0  0  0
  2  3  1  0
  2  9  1  0
  2  1  1  1
  4  3  1  0
  4  5  2  0
  6  5  1  0
  7  6  1  0
  8  7  2  0
  8  4  1  0
  9 10  2  0
 11 12  1  0
 12 13  2  0
 12 14  1  0
 14 15  1  0
 15 16  1  0
 17 16  1  0
 18 17  1  6
 19 18  1  0
 19  9  1  0
 20 21  2  0
 20 18  1  0
 22 23  1  0
 23 25  1  0
 24 23  2  0
 25 26  1  0
 27 26  1  0
 27 28  1  0
 29 28  1  1
 29 30  1  0
 30 20  1  0
 31 32  1  0
 31 29  1  0
 33 31  2  0
M  END
$$$$
