HRR.pdb
     RDKit          3D

 33 33  0  0  1  0  0  0  0  0999 V2000
   20.3835  -21.5542  -12.4500 N   0  0  0  0  0  0  0  0  0  0  0  0
   20.6536  -21.2983  -13.8425 C   0  0  1  0  0  0  0  0  0  0  0  0
   19.3987  -20.8018  -14.5611 C   0  0  0  0  0  0  0  0  0  0  0  0
   18.4270  -21.9125  -14.6185 C   0  0  0  0  0  0  0  0  0  0  0  0
   17.1503  -21.9664  -14.1166 C   0  0  0  0  0  0  0  0  0  0  0  0
   16.6063  -23.1845  -14.3941 N   0  0  0  0  0  0  0  0  0  0  0  0
   17.5377  -23.8765  -15.0608 C   0  0  0  0  0  0  0  0  0  0  0  0
   18.6377  -23.1075  -15.1962 N   0  0  0  0  0  0  0  0  0  0  0  0
   21.6995  -20.2536  -13.9483 C   0  0  0  0  0  0  0  0  0  0  0  0
   21.7293  -19.2968  -13.1321 O   0  0  0  0  0  0  0  0  0  0  0  0
   26.0835  -22.6130  -11.7253 N   0  0  0  0  0  0  0  0  0  0  0  0
   26.2950  -22.9864  -13.0654 C   0  0  0  0  0  0  0  0  0  0  0  0
   26.0574  -24.1847  -13.4525 N   0  0  0  0  0  0  0  0  0  0  0  0
   26.7725  -22.0406  -13.9938 N   0  0  0  0  0  0  0  0  0  0  0  0
   26.8558  -20.6584  -13.6531 C   0  0  0  0  0  0  0  0  0  0  0  0
   25.4567  -20.0412  -13.5889 C   0  0  0  0  0  0  0  0  0  0  0  0
   25.0173  -19.8609  -15.0058 C   0  0  0  0  0  0  0  0  0  0  0  0
   23.6241  -19.2026  -15.0841 C   0  0  2  0  0  0  0  0  0  0  0  0
   22.6924  -20.2998  -14.9628 N   0  0  0  0  0  0  0  0  0  0  0  0
   23.4747  -18.5250  -16.4025 C   0  0  0  0  0  0  0  0  0  0  0  0
   23.3748  -19.2430  -17.4272 O   0  0  0  0  0  0  0  0  0  0  0  0
   26.2582  -24.5178  -14.4120 N   0  0  0  0  0  0  0  0  0  0  0  0
   22.2783   -9.8022  -18.4185 C   0  0  0  0  0  0  0  0  0  0  0  0
   22.4276  -10.5184  -19.6582 N   0  0  0  0  0  0  0  0  0  0  0  0
   22.3089   -9.9032  -20.7789 N   0  0  0  0  0  0  0  0  0  0  0  0
   22.7036  -11.9026  -19.6896 C   0  0  0  0  0  0  0  0  0  0  0  0
   22.6660  -12.6994  -18.4861 C   0  0  0  0  0  0  0  0  0  0  0  0
   23.0826  -14.1244  -18.7782 C   0  0  0  0  0  0  0  0  0  0  0  0
   23.0595  -14.9799  -17.5427 C   0  0  1  0  0  0  0  0  0  0  0  0
   23.3163  -16.4255  -17.8054 N   0  0  0  0  0  0  0  0  0  0  0  0
   23.4428  -17.1115  -16.5342 C   0  0  0  0  0  0  0  0  0  0  0  0
   24.4885  -16.6657  -18.6795 O   0  0  0  0  0  0  0  0  0  0  0  0
   25.7167  -16.8985  -18.0534 O   0  0  0  0  0  0  0  0  0  0  0  0
  2  3  1  0
  2  9  1  0
  2  1  1  1
  4  3  1  0
  4  5  2  0
  6  5  1  0
  7  6  1  0
  8  7  2  0
  8  4  1  0
  9 10  2  0
 11 12  1  0
 12 13  2  0
 12 14  1  0
 14 15  1  0
 15 16  1  0
 17 16  1  0
 18 17  1  6
 19 18  1  0
 19  9  1  0
 20 21  2  0
 20 18  1  0
 22 23  1  0
 23 25  1  0
 24 23  2  0
 25 26  1  0
 27 26  1  0
 27 28  1  0
 29 28  1  1
 29 30  1  0
 30 20  1  0
 31 32  1  0
 31 29  1  0
 33 31  2  0
M  END
$$$$
