HRR.pdb
     RDKit          3D

 33 33  0  0  1  0  0  0  0  0999 V2000
   29.0332  -21.9725  -12.1120 N   0  0  0  0  0  0  0  0  0  0  0  0
   28.1760  -21.2473  -11.2083 C   0  0  1  0  0  0  0  0  0  0  0  0
   28.9978  -20.4694  -10.1802 C   0  0  0  0  0  0  0  0  0  0  0  0
   30.1707  -21.2868   -9.8095 C   0  0  0  0  0  0  0  0  0  0  0  0
   31.1826  -21.7541  -10.6111 C   0  0  0  0  0  0  0  0  0  0  0  0
   32.0638  -22.4688   -9.8567 N   0  0  0  0  0  0  0  0  0  0  0  0
   31.6011  -22.4434   -8.6013 C   0  0  0  0  0  0  0  0  0  0  0  0
   30.4571  -21.7291   -8.5732 N   0  0  0  0  0  0  0  0  0  0  0  0
   27.3605  -20.2832  -11.9841 C   0  0  0  0  0  0  0  0  0  0  0  0
   26.4472  -19.6245  -11.4230 O   0  0  0  0  0  0  0  0  0  0  0  0
   28.3857  -20.2552  -18.4104 N   0  0  0  0  0  0  0  0  0  0  0  0
   27.3625  -19.5834  -19.1046 C   0  0  0  0  0  0  0  0  0  0  0  0
   26.7990  -20.1267  -20.1193 N   0  0  0  0  0  0  0  0  0  0  0  0
   26.9501  -18.3030  -18.6867 N   0  0  0  0  0  0  0  0  0  0  0  0
   27.5048  -17.7002  -17.5195 C   0  0  0  0  0  0  0  0  0  0  0  0
   26.6281  -17.9963  -16.3003 C   0  0  0  0  0  0  0  0  0  0  0  0
   27.4434  -18.8732  -15.4060 C   0  0  0  0  0  0  0  0  0  0  0  0
   26.6886  -19.2051  -14.1019 C   0  0  2  0  0  0  0  0  0  0  0  0
   27.5827  -20.0728  -13.3711 N   0  0  0  0  0  0  0  0  0  0  0  0
   25.4202  -19.9119  -14.4351 C   0  0  0  0  0  0  0  0  0  0  0  0
   25.4986  -21.0557  -14.9461 O   0  0  0  0  0  0  0  0  0  0  0  0
   26.0722  -19.6512  -20.6827 N   0  0  0  0  0  0  0  0  0  0  0  0
   17.8307  -20.2645  -13.0692 C   0  0  0  0  0  0  0  0  0  0  0  0
   17.9429  -21.5826  -12.5017 N   0  0  0  0  0  0  0  0  0  0  0  0
   16.9419  -22.3861  -12.5294 N   0  0  0  0  0  0  0  0  0  0  0  0
   19.1376  -22.0350  -11.9005 C   0  0  0  0  0  0  0  0  0  0  0  0
   20.2986  -21.1814  -11.8110 C   0  0  0  0  0  0  0  0  0  0  0  0
   20.9330  -21.0015  -13.1729 C   0  0  0  0  0  0  0  0  0  0  0  0
   22.2072  -20.2079  -13.0977 C   0  0  2  0  0  0  0  0  0  0  0  0
   22.8937  -20.0438  -14.4117 N   0  0  0  0  0  0  0  0  0  0  0  0
   24.1427  -19.3396  -14.1963 C   0  0  0  0  0  0  0  0  0  0  0  0
   22.0549  -19.3765  -15.4347 O   0  0  0  0  0  0  0  0  0  0  0  0
   21.2269  -20.1904  -16.2137 O   0  0  0  0  0  0  0  0  0  0  0  0
  2  3  1  0
  2  9  1  0
  2  1  1  6
  4  3  1  0
  4  5  2  0
  6  5  1  0
  7  6  1  0
  8  7  2  0
  8  4  1  0
  9 10  2  0
 11 12  1  0
 12 13  2  0
 12 14  1  0
 14 15  1  0
 15 16  1  0
 17 16  1  0
 18 17  1  6
 19 18  1  0
 19  9  1  0
 20 21  2  0
 20 18  1  0
 22 23  1  0
 23 25  1  0
 24 23  2  0
 25 26  1  0
 27 26  1  0
 27 28  1  0
 29 28  1  1
 29 30  1  0
 30 20  1  0
 31 32  1  0
 31 29  1  0
 33 31  2  0
M  END
$$$$
