HRR.pdb
     RDKit          3D

 33 33  0  0  1  0  0  0  0  0999 V2000
   16.7833  -12.2066    4.6225 N   0  0  0  0  0  0  0  0  0  0  0  0
   17.3942  -13.2053    3.7819 C   0  0  1  0  0  0  0  0  0  0  0  0
   18.9136  -13.0387    3.7497 C   0  0  0  0  0  0  0  0  0  0  0  0
   19.3926  -12.8825    5.1379 C   0  0  0  0  0  0  0  0  0  0  0  0
   19.2653  -13.7488    6.1953 C   0  0  0  0  0  0  0  0  0  0  0  0
   19.8549  -13.2067    7.2977 N   0  0  0  0  0  0  0  0  0  0  0  0
   20.3417  -12.0172    6.9252 C   0  0  0  0  0  0  0  0  0  0  0  0
   20.0622  -11.8216    5.6200 N   0  0  0  0  0  0  0  0  0  0  0  0
   17.0806  -14.5496    4.3217 C   0  0  0  0  0  0  0  0  0  0  0  0
   16.9971  -14.7340    5.5634 O   0  0  0  0  0  0  0  0  0  0  0  0
   15.3851  -21.9655   -0.1087 N   0  0  0  0  0  0  0  0  0  0  0  0
   15.1273  -22.3201    1.2284 C   0  0  0  0  0  0  0  0  0  0  0  0
   14.7178  -23.4984    1.5220 N   0  0  0  0  0  0  0  0  0  0  0  0
   15.3179  -21.3769    2.2572 N   0  0  0  0  0  0  0  0  0  0  0  0
   15.8362  -20.0791    1.9733 C   0  0  0  0  0  0  0  0  0  0  0  0
   15.8802  -19.2334    3.2483 C   0  0  0  0  0  0  0  0  0  0  0  0
   16.4238  -17.9013    2.8442 C   0  0  0  0  0  0  0  0  0  0  0  0
   16.4654  -16.9243    4.0376 C   0  0  2  0  0  0  0  0  0  0  0  0
   16.8648  -15.6604    3.4635 N   0  0  0  0  0  0  0  0  0  0  0  0
   17.4745  -17.3990    5.0256 C   0  0  0  0  0  0  0  0  0  0  0  0
   18.6890  -17.2402    4.7516 O   0  0  0  0  0  0  0  0  0  0  0  0
   14.5251  -23.8030    2.4925 N   0  0  0  0  0  0  0  0  0  0  0  0
   18.0810  -16.2853   13.6194 C   0  0  0  0  0  0  0  0  0  0  0  0
   19.2716  -16.9794   13.2036 N   0  0  0  0  0  0  0  0  0  0  0  0
   20.2679  -17.0921   14.0055 N   0  0  0  0  0  0  0  0  0  0  0  0
   19.3890  -17.5518   11.9184 C   0  0  0  0  0  0  0  0  0  0  0  0
   18.3532  -17.3811   10.9271 C   0  0  0  0  0  0  0  0  0  0  0  0
   18.7492  -18.0415    9.6246 C   0  0  0  0  0  0  0  0  0  0  0  0
   17.7106  -17.8429    8.5565 C   0  0  2  0  0  0  0  0  0  0  0  0
   18.0688  -18.4574    7.2455 N   0  0  0  0  0  0  0  0  0  0  0  0
   17.1099  -18.0174    6.2508 C   0  0  0  0  0  0  0  0  0  0  0  0
   18.1707  -19.9347    7.2961 O   0  0  0  0  0  0  0  0  0  0  0  0
   19.2267  -20.4785    8.0337 O   0  0  0  0  0  0  0  0  0  0  0  0
  2  3  1  0
  2  9  1  0
  2  1  1  1
  4  3  1  0
  4  5  2  0
  6  5  1  0
  7  6  1  0
  8  7  2  0
  8  4  1  0
  9 10  2  0
 11 12  1  0
 12 13  2  0
 12 14  1  0
 14 15  1  0
 15 16  1  0
 17 16  1  0
 18 17  1  6
 19 18  1  0
 19  9  1  0
 20 21  2  0
 20 18  1  0
 22 23  1  0
 23 25  1  0
 24 23  2  0
 25 26  1  0
 27 26  1  0
 27 28  1  0
 29 28  1  6
 29 30  1  0
 30 20  1  0
 31 32  1  0
 31 29  1  0
 33 31  2  0
M  END
$$$$
