HRR.pdb
     RDKit          3D

 33 33  0  0  1  0  0  0  0  0999 V2000
   19.3251  -20.2833  -13.0096 N   0  0  0  0  0  0  0  0  0  0  0  0
   19.5871  -19.8527  -14.3598 C   0  0  1  0  0  0  0  0  0  0  0  0
   18.6195  -18.7454  -14.7786 C   0  0  0  0  0  0  0  0  0  0  0  0
   17.3018  -19.3569  -15.0444 C   0  0  0  0  0  0  0  0  0  0  0  0
   16.9254  -20.6727  -14.9353 C   0  0  0  0  0  0  0  0  0  0  0  0
   15.6126  -20.7975  -15.2783 N   0  0  0  0  0  0  0  0  0  0  0  0
   15.1820  -19.5711  -15.5963 C   0  0  0  0  0  0  0  0  0  0  0  0
   16.2031  -18.7008  -15.4548 N   0  0  0  0  0  0  0  0  0  0  0  0
   20.9691  -19.3233  -14.4391 C   0  0  0  0  0  0  0  0  0  0  0  0
   21.3376  -18.3879  -13.6828 O   0  0  0  0  0  0  0  0  0  0  0  0
   27.9321  -21.3181  -12.1850 N   0  0  0  0  0  0  0  0  0  0  0  0
   26.8480  -21.3042  -11.2880 C   0  0  0  0  0  0  0  0  0  0  0  0
   27.0299  -21.0217  -10.0514 N   0  0  0  0  0  0  0  0  0  0  0  0
   25.5500  -21.6031  -11.7464 N   0  0  0  0  0  0  0  0  0  0  0  0
   25.2433  -21.5848  -13.1389 C   0  0  0  0  0  0  0  0  0  0  0  0
   24.3701  -20.3735  -13.4752 C   0  0  0  0  0  0  0  0  0  0  0  0
   24.1789  -20.3983  -14.9571 C   0  0  0  0  0  0  0  0  0  0  0  0
   23.2340  -19.2708  -15.4221 C   0  0  2  0  0  0  0  0  0  0  0  0
   21.9125  -19.8507  -15.3606 N   0  0  0  0  0  0  0  0  0  0  0  0
   23.5786  -18.8867  -16.8198 C   0  0  0  0  0  0  0  0  0  0  0  0
   23.2217  -19.6531  -17.7475 O   0  0  0  0  0  0  0  0  0  0  0  0
   26.2568  -20.9716   -9.3646 N   0  0  0  0  0  0  0  0  0  0  0  0
   27.0132  -11.2683  -20.2195 C   0  0  0  0  0  0  0  0  0  0  0  0
   27.1705  -12.2903  -21.2210 N   0  0  0  0  0  0  0  0  0  0  0  0
   27.6885  -12.0049  -22.3606 N   0  0  0  0  0  0  0  0  0  0  0  0
   26.7661  -13.6237  -20.9937 C   0  0  0  0  0  0  0  0  0  0  0  0
   26.2293  -14.0344  -19.7178 C   0  0  0  0  0  0  0  0  0  0  0  0
   25.7547  -15.4699  -19.7774 C   0  0  0  0  0  0  0  0  0  0  0  0
   25.2117  -15.9364  -18.4559 C   0  0  1  0  0  0  0  0  0  0  0  0
   24.7170  -17.3435  -18.4702 N   0  0  0  0  0  0  0  0  0  0  0  0
   24.2890  -17.6971  -17.1307 C   0  0  0  0  0  0  0  0  0  0  0  0
   25.7050  -18.3093  -19.0053 O   0  0  0  0  0  0  0  0  0  0  0  0
   25.6722  -18.5633  -20.3797 O   0  0  0  0  0  0  0  0  0  0  0  0
  2  3  1  0
  2  9  1  0
  2  1  1  1
  4  3  1  0
  4  5  2  0
  6  5  1  0
  7  6  1  0
  8  7  2  0
  8  4  1  0
  9 10  2  0
 11 12  1  0
 12 13  2  0
 12 14  1  0
 14 15  1  0
 15 16  1  0
 17 16  1  0
 18 17  1  6
 19 18  1  0
 19  9  1  0
 20 21  2  0
 20 18  1  0
 22 23  1  0
 23 25  1  0
 24 23  2  0
 25 26  1  0
 27 26  1  0
 27 28  1  0
 29 28  1  6
 29 30  1  0
 30 20  1  0
 31 32  1  0
 31 29  1  0
 33 31  2  0
M  END
$$$$
