HRR.pdb
     RDKit          3D

 33 33  0  0  1  0  0  0  0  0999 V2000
   47.3460   -6.7771   -3.3229 N   0  0  0  0  0  0  0  0  0  0  0  0
   45.9391   -7.0863   -3.3728 C   0  0  1  0  0  0  0  0  0  0  0  0
   45.0955   -5.8462   -3.0760 C   0  0  0  0  0  0  0  0  0  0  0  0
   45.2932   -5.4789   -1.6592 C   0  0  0  0  0  0  0  0  0  0  0  0
   46.0196   -4.4399   -1.1324 C   0  0  0  0  0  0  0  0  0  0  0  0
   45.9319   -4.4703    0.2270 N   0  0  0  0  0  0  0  0  0  0  0  0
   45.1589   -5.5176    0.5371 C   0  0  0  0  0  0  0  0  0  0  0  0
   44.7731   -6.1269   -0.6029 N   0  0  0  0  0  0  0  0  0  0  0  0
   45.5985   -7.5719   -4.7310 C   0  0  0  0  0  0  0  0  0  0  0  0
   46.1453   -7.0655   -5.7445 O   0  0  0  0  0  0  0  0  0  0  0  0
   44.8174  -15.5232   -7.6054 N   0  0  0  0  0  0  0  0  0  0  0  0
   44.2694  -14.7999   -8.6809 C   0  0  0  0  0  0  0  0  0  0  0  0
   43.9388  -15.3969   -9.7656 N   0  0  0  0  0  0  0  0  0  0  0  0
   44.0808  -13.4083   -8.5712 N   0  0  0  0  0  0  0  0  0  0  0  0
   44.4159  -12.7168   -7.3699 C   0  0  0  0  0  0  0  0  0  0  0  0
   44.2326  -11.2087   -7.5555 C   0  0  0  0  0  0  0  0  0  0  0  0
   44.5437  -10.5868   -6.2327 C   0  0  0  0  0  0  0  0  0  0  0  0
   44.3673   -9.0547   -6.2751 C   0  0  2  0  0  0  0  0  0  0  0  0
   44.6550   -8.6148   -4.9296 N   0  0  0  0  0  0  0  0  0  0  0  0
   42.9612   -8.7325   -6.6476 C   0  0  0  0  0  0  0  0  0  0  0  0
   42.0460   -9.0991   -5.8708 O   0  0  0  0  0  0  0  0  0  0  0  0
   43.5705  -14.8977  -10.5944 N   0  0  0  0  0  0  0  0  0  0  0  0
   38.6128   -7.1164  -13.2000 C   0  0  0  0  0  0  0  0  0  0  0  0
   38.1426   -5.8390  -12.7316 N   0  0  0  0  0  0  0  0  0  0  0  0
   37.1563   -5.2594  -13.3145 N   0  0  0  0  0  0  0  0  0  0  0  0
   38.7390   -5.1837  -11.6324 C   0  0  0  0  0  0  0  0  0  0  0  0
   40.0549   -5.5528  -11.1668 C   0  0  0  0  0  0  0  0  0  0  0  0
   39.9569   -6.4779   -9.9734 C   0  0  0  0  0  0  0  0  0  0  0  0
   41.3118   -6.8946   -9.4740 C   0  0  2  0  0  0  0  0  0  0  0  0
   41.2689   -7.7247   -8.2356 N   0  0  0  0  0  0  0  0  0  0  0  0
   42.6287   -8.0336   -7.8382 C   0  0  0  0  0  0  0  0  0  0  0  0
   40.4449   -8.9482   -8.3755 O   0  0  0  0  0  0  0  0  0  0  0  0
   40.9714   -9.9900   -9.1451 O   0  0  0  0  0  0  0  0  0  0  0  0
  2  3  1  0
  2  9  1  0
  2  1  1  6
  4  3  1  0
  4  5  2  0
  6  5  1  0
  7  6  1  0
  8  7  2  0
  8  4  1  0
  9 10  2  0
 11 12  1  0
 12 13  2  0
 12 14  1  0
 14 15  1  0
 15 16  1  0
 17 16  1  0
 18 17  1  1
 19 18  1  0
 19  9  1  0
 20 21  2  0
 20 18  1  0
 22 23  1  0
 23 25  1  0
 24 23  2  0
 25 26  1  0
 27 26  1  0
 27 28  1  0
 29 28  1  1
 29 30  1  0
 30 20  1  0
 31 32  1  0
 31 29  1  0
 33 31  2  0
M  END
$$$$
