HRR.pdb
     RDKit          3D

 33 33  0  0  1  0  0  0  0  0999 V2000
   27.2095  -24.9385  -16.6303 N   0  0  0  0  0  0  0  0  0  0  0  0
   26.8053  -23.5571  -16.7055 C   0  0  1  0  0  0  0  0  0  0  0  0
   26.4628  -23.1645  -18.1429 C   0  0  0  0  0  0  0  0  0  0  0  0
   27.7148  -23.1310  -18.9254 C   0  0  0  0  0  0  0  0  0  0  0  0
   28.7188  -22.1949  -18.9041 C   0  0  0  0  0  0  0  0  0  0  0  0
   29.6919  -22.5550  -19.7873 N   0  0  0  0  0  0  0  0  0  0  0  0
   29.2931  -23.7023  -20.3489 C   0  0  0  0  0  0  0  0  0  0  0  0
   28.0984  -24.0501  -19.8279 N   0  0  0  0  0  0  0  0  0  0  0  0
   25.6008  -23.3591  -15.8649 C   0  0  0  0  0  0  0  0  0  0  0  0
   24.7067  -24.2426  -15.8145 O   0  0  0  0  0  0  0  0  0  0  0  0
   26.1199  -19.4758   -9.1594 N   0  0  0  0  0  0  0  0  0  0  0  0
   25.7041  -20.8151   -9.2764 C   0  0  0  0  0  0  0  0  0  0  0  0
   25.0803  -21.3893   -8.3155 N   0  0  0  0  0  0  0  0  0  0  0  0
   25.9733  -21.5362  -10.4561 N   0  0  0  0  0  0  0  0  0  0  0  0
   26.6859  -20.9347  -11.5350 C   0  0  0  0  0  0  0  0  0  0  0  0
   26.2824  -21.5789  -12.8635 C   0  0  0  0  0  0  0  0  0  0  0  0
   24.7890  -21.5414  -12.9063 C   0  0  0  0  0  0  0  0  0  0  0  0
   24.2510  -22.0594  -14.2563 C   0  0  2  0  0  0  0  0  0  0  0  0
   25.4202  -22.1786  -15.0961 N   0  0  0  0  0  0  0  0  0  0  0  0
   23.2952  -21.0643  -14.8183 C   0  0  0  0  0  0  0  0  0  0  0  0
   23.6810  -20.3513  -15.7765 O   0  0  0  0  0  0  0  0  0  0  0  0
   24.7498  -22.3693   -8.3634 N   0  0  0  0  0  0  0  0  0  0  0  0
   20.0345  -26.6916  -18.3127 C   0  0  0  0  0  0  0  0  0  0  0  0
   19.4381  -26.6144  -17.0048 N   0  0  0  0  0  0  0  0  0  0  0  0
   18.8679  -27.6442  -16.4922 N   0  0  0  0  0  0  0  0  0  0  0  0
   19.4549  -25.4225  -16.2482 C   0  0  0  0  0  0  0  0  0  0  0  0
   20.1395  -24.2443  -16.7254 C   0  0  0  0  0  0  0  0  0  0  0  0
   20.0723  -23.1366  -15.6968 C   0  0  0  0  0  0  0  0  0  0  0  0
   20.8254  -21.9136  -16.1396 C   0  0  1  0  0  0  0  0  0  0  0  0
   20.8009  -20.7989  -15.1488 N   0  0  0  0  0  0  0  0  0  0  0  0
   21.9795  -20.8992  -14.3102 C   0  0  0  0  0  0  0  0  0  0  0  0
   19.5564  -20.7523  -14.3460 O   0  0  0  0  0  0  0  0  0  0  0  0
   18.4294  -20.1812  -14.9448 O   0  0  0  0  0  0  0  0  0  0  0  0
  2  3  1  0
  2  9  1  0
  2  1  1  6
  4  3  1  0
  4  5  2  0
  6  5  1  0
  7  6  1  0
  8  7  2  0
  8  4  1  0
  9 10  2  0
 11 12  1  0
 12 13  2  0
 12 14  1  0
 14 15  1  0
 15 16  1  0
 17 16  1  0
 18 17  1  1
 19 18  1  0
 19  9  1  0
 20 21  2  0
 20 18  1  0
 22 23  1  0
 23 25  1  0
 24 23  2  0
 25 26  1  0
 27 26  1  0
 27 28  1  0
 29 28  1  6
 29 30  1  0
 30 20  1  0
 31 32  1  0
 31 29  1  0
 33 31  2  0
M  END
$$$$
