HRR.pdb
     RDKit          3D

 33 33  0  0  1  0  0  0  0  0999 V2000
   18.8462  -16.5237  -16.8088 N   0  0  0  0  0  0  0  0  0  0  0  0
   18.8139  -15.1762  -17.3192 C   0  0  1  0  0  0  0  0  0  0  0  0
   17.4028  -14.5933  -17.2365 C   0  0  0  0  0  0  0  0  0  0  0  0
   16.5236  -15.3791  -18.1256 C   0  0  0  0  0  0  0  0  0  0  0  0
   15.2973  -15.9333  -17.8534 C   0  0  0  0  0  0  0  0  0  0  0  0
   14.8351  -16.5757  -18.9625 N   0  0  0  0  0  0  0  0  0  0  0  0
   15.7665  -16.4201  -19.9107 C   0  0  0  0  0  0  0  0  0  0  0  0
   16.7866  -15.6969  -19.4046 N   0  0  0  0  0  0  0  0  0  0  0  0
   19.7199  -14.3296  -16.5074 C   0  0  0  0  0  0  0  0  0  0  0  0
   20.1496  -14.7381  -15.3978 O   0  0  0  0  0  0  0  0  0  0  0  0
   27.4513  -14.1782  -16.7253 N   0  0  0  0  0  0  0  0  0  0  0  0
   27.2843  -13.1102  -15.8244 C   0  0  0  0  0  0  0  0  0  0  0  0
   28.2840  -12.6501  -15.1679 N   0  0  0  0  0  0  0  0  0  0  0  0
   26.0106  -12.5384  -15.6373 N   0  0  0  0  0  0  0  0  0  0  0  0
   24.8512  -13.1265  -16.2232 C   0  0  0  0  0  0  0  0  0  0  0  0
   23.5973  -12.3482  -15.8176 C   0  0  0  0  0  0  0  0  0  0  0  0
   22.4501  -13.0291  -16.4910 C   0  0  0  0  0  0  0  0  0  0  0  0
   21.1154  -12.3174  -16.1871 C   0  0  2  0  0  0  0  0  0  0  0  0
   20.1292  -13.0444  -16.9523 N   0  0  0  0  0  0  0  0  0  0  0  0
   21.1994  -10.9013  -16.6421 C   0  0  0  0  0  0  0  0  0  0  0  0
   21.1263  -10.6719  -17.8739 O   0  0  0  0  0  0  0  0  0  0  0  0
   28.2042  -11.8695  -14.4925 N   0  0  0  0  0  0  0  0  0  0  0  0
   15.0683   -5.9113  -17.5502 C   0  0  0  0  0  0  0  0  0  0  0  0
   16.1636   -4.9930  -17.7207 N   0  0  0  0  0  0  0  0  0  0  0  0
   15.9424   -3.7845  -18.0938 N   0  0  0  0  0  0  0  0  0  0  0  0
   17.5018   -5.3795  -17.4902 C   0  0  0  0  0  0  0  0  0  0  0  0
   17.8400   -6.7462  -17.1701 C   0  0  0  0  0  0  0  0  0  0  0  0
   19.3167   -6.8713  -16.8647 C   0  0  0  0  0  0  0  0  0  0  0  0
   19.6962   -8.2782  -16.4970 C   0  0  1  0  0  0  0  0  0  0  0  0
   21.1244   -8.4321  -16.0955 N   0  0  0  0  0  0  0  0  0  0  0  0
   21.3578   -9.8178  -15.7379 C   0  0  0  0  0  0  0  0  0  0  0  0
   21.5342   -7.5077  -15.0124 O   0  0  0  0  0  0  0  0  0  0  0  0
   21.6184   -6.1484  -15.3288 O   0  0  0  0  0  0  0  0  0  0  0  0
  2  3  1  0
  2  9  1  0
  2  1  1  1
  4  3  1  0
  4  5  2  0
  6  5  1  0
  7  6  1  0
  8  7  2  0
  8  4  1  0
  9 10  2  0
 11 12  1  0
 12 13  2  0
 12 14  1  0
 14 15  1  0
 15 16  1  0
 17 16  1  0
 18 17  1  6
 19 18  1  0
 19  9  1  0
 20 21  2  0
 20 18  1  0
 22 23  1  0
 23 25  1  0
 24 23  2  0
 25 26  1  0
 27 26  1  0
 27 28  1  0
 29 28  1  6
 29 30  1  0
 30 20  1  0
 31 32  1  0
 31 29  1  0
 33 31  2  0
M  END
$$$$
