HRR.pdb
     RDKit          3D

 33 33  0  0  1  0  0  0  0  0999 V2000
   16.7123  -12.3332  -17.6563 N   0  0  0  0  0  0  0  0  0  0  0  0
   17.4432  -11.9745  -16.4670 C   0  0  1  0  0  0  0  0  0  0  0  0
   18.9012  -12.4245  -16.5641 C   0  0  0  0  0  0  0  0  0  0  0  0
   18.9263  -13.8980  -16.6613 C   0  0  0  0  0  0  0  0  0  0  0  0
   18.7156  -14.8296  -15.6752 C   0  0  0  0  0  0  0  0  0  0  0  0
   18.8327  -16.0806  -16.2024 N   0  0  0  0  0  0  0  0  0  0  0  0
   19.1130  -15.9235  -17.5015 C   0  0  0  0  0  0  0  0  0  0  0  0
   19.1695  -14.6045  -17.7784 N   0  0  0  0  0  0  0  0  0  0  0  0
   17.4162  -10.5011  -16.3086 C   0  0  0  0  0  0  0  0  0  0  0  0
   16.8099   -9.7815  -17.1436 O   0  0  0  0  0  0  0  0  0  0  0  0
   12.4501   -5.9169  -15.7128 N   0  0  0  0  0  0  0  0  0  0  0  0
   12.8153   -5.5853  -14.3950 C   0  0  0  0  0  0  0  0  0  0  0  0
   12.3535   -4.5275  -13.8382 N   0  0  0  0  0  0  0  0  0  0  0  0
   13.6958   -6.4178  -13.6768 N   0  0  0  0  0  0  0  0  0  0  0  0
   14.4444   -7.4352  -14.3387 C   0  0  0  0  0  0  0  0  0  0  0  0
   15.3500   -8.1626  -13.3420 C   0  0  0  0  0  0  0  0  0  0  0  0
   16.0705   -9.2118  -14.1251 C   0  0  0  0  0  0  0  0  0  0  0  0
   17.4450   -8.7072  -14.6116 C   0  0  2  0  0  0  0  0  0  0  0  0
   18.0655   -9.8613  -15.2195 N   0  0  0  0  0  0  0  0  0  0  0  0
   18.2372   -8.2356  -13.4412 C   0  0  0  0  0  0  0  0  0  0  0  0
   18.1551   -8.8875  -12.3718 O   0  0  0  0  0  0  0  0  0  0  0  0
   12.5924   -4.2495  -12.8699 N   0  0  0  0  0  0  0  0  0  0  0  0
   16.2481   -4.0775   -7.3073 C   0  0  0  0  0  0  0  0  0  0  0  0
   16.3174   -3.2481   -8.4818 N   0  0  0  0  0  0  0  0  0  0  0  0
   15.8189   -2.0650   -8.4684 N   0  0  0  0  0  0  0  0  0  0  0  0
   16.9243   -3.6965   -9.6751 C   0  0  0  0  0  0  0  0  0  0  0  0
   17.6027   -4.9696   -9.7355 C   0  0  0  0  0  0  0  0  0  0  0  0
   18.3269   -5.1245  -11.0549 C   0  0  0  0  0  0  0  0  0  0  0  0
   18.9644   -6.4789  -11.1893 C   0  0  2  0  0  0  0  0  0  0  0  0
   19.8574   -6.6099  -12.3767 N   0  0  0  0  0  0  0  0  0  0  0  0
   19.0703   -7.0871  -13.4972 C   0  0  0  0  0  0  0  0  0  0  0  0
   21.0413   -7.4664  -12.1312 O   0  0  0  0  0  0  0  0  0  0  0  0
   22.2984   -6.9070  -12.3791 O   0  0  0  0  0  0  0  0  0  0  0  0
  2  3  1  0
  2  9  1  0
  2  1  1  6
  4  3  1  0
  4  5  2  0
  6  5  1  0
  7  6  1  0
  8  7  2  0
  8  4  1  0
  9 10  2  0
 11 12  1  0
 12 13  2  0
 12 14  1  0
 14 15  1  0
 15 16  1  0
 17 16  1  0
 18 17  1  1
 19 18  1  0
 19  9  1  0
 20 21  2  0
 20 18  1  0
 22 23  1  0
 23 25  1  0
 24 23  2  0
 25 26  1  0
 27 26  1  0
 27 28  1  0
 29 28  1  6
 29 30  1  0
 30 20  1  0
 31 32  1  0
 31 29  1  0
 33 31  2  0
M  END
$$$$
