NEE.pdb
     RDKit          3D

 27 26  0  0  1  0  0  0  0  0999 V2000
    8.4962  -12.0548   18.3648 N   0  0  0  0  0  0  0  0  0  0  0  0
    7.7791  -13.2722   18.4670 C   0  0  0  0  0  0  0  0  0  0  0  0
    6.7481  -13.3751   17.7374 O   0  0  0  0  0  0  0  0  0  0  0  0
    8.1091  -14.4050   19.3207 C   0  0  0  0  0  0  0  0  0  0  0  0
    9.2454  -14.2193   20.2566 C   0  0  2  0  0  0  0  0  0  0  0  0
   10.4540  -13.7123   19.6784 N   0  0  0  0  0  0  0  0  0  0  0  0
    9.5438  -15.3918   21.0866 C   0  0  0  0  0  0  0  0  0  0  0  0
    8.5990  -15.9399   21.7391 O   0  0  0  0  0  0  0  0  0  0  0  0
   10.8506  -15.9176   21.1727 N   0  0  0  0  0  0  0  0  0  0  0  0
   11.0579  -17.1012   22.0189 C   0  0  1  0  0  0  0  0  0  0  0  0
   12.1999  -17.9109   21.4231 C   0  0  0  0  0  0  0  0  0  0  0  0
   11.7667  -18.7109   20.2328 C   0  0  0  0  0  0  0  0  0  0  0  0
   12.9254  -19.4800   19.6671 C   0  0  0  0  0  0  0  0  0  0  0  0
   13.1401  -19.5078   18.4463 O   0  0  0  0  0  0  0  0  0  0  0  0
   11.2660  -16.7024   23.4179 C   0  0  0  0  0  0  0  0  0  0  0  0
   12.1272  -15.7811   23.6291 O   0  0  0  0  0  0  0  0  0  0  0  0
   13.7699  -20.1712   20.5263 O   0  0  0  0  0  0  0  0  0  0  0  0
   10.6220  -17.2153   24.5501 N   0  0  0  0  0  0  0  0  0  0  0  0
   10.8602  -16.7395   25.8677 C   0  0  1  0  0  0  0  0  0  0  0  0
    9.9470  -15.6430   26.3208 C   0  0  0  0  0  0  0  0  0  0  0  0
   10.2113  -15.1092   27.7005 C   0  0  0  0  0  0  0  0  0  0  0  0
    9.3113  -14.0459   28.1144 C   0  0  0  0  0  0  0  0  0  0  0  0
    9.4278  -13.4041   29.1844 O   0  0  0  0  0  0  0  0  0  0  0  0
   11.0922  -17.8034   26.8730 C   0  0  0  0  0  0  0  0  0  0  0  0
   10.5162  -18.9108   26.7565 O   0  0  0  0  0  0  0  0  0  0  0  0
    8.2432  -13.7023   27.2829 O   0  0  0  0  0  0  0  0  0  0  0  0
   11.9299  -17.6466   27.9652 O   0  0  0  0  0  0  0  0  0  0  0  0
  2  1  1  0
  3  2  2  0
  4  5  1  0
  4  2  1  0
  5  6  1  6
  7  5  1  0
  7  8  2  0
  9  7  1  0
 10  9  1  0
 10 11  1  6
 11 12  1  0
 12 13  1  0
 13 17  1  0
 14 13  2  0
 15 10  1  0
 16 15  2  0
 18 15  1  0
 19 20  1  1
 19 18  1  0
 20 21  1  0
 21 22  1  0
 22 26  1  0
 23 22  2  0
 24 19  1  0
 25 24  2  0
 27 24  1  0
M  END
$$$$
