NEE.pdb
     RDKit          3D

 27 26  0  0  1  0  0  0  0  0999 V2000
   16.2435  -12.5510   15.9494 N   0  0  0  0  0  0  0  0  0  0  0  0
   16.7580  -12.8749   17.2289 C   0  0  0  0  0  0  0  0  0  0  0  0
   18.0201  -12.9419   17.3219 O   0  0  0  0  0  0  0  0  0  0  0  0
   15.9845  -13.1355   18.4350 C   0  0  0  0  0  0  0  0  0  0  0  0
   15.9563  -14.5401   18.9124 C   0  0  2  0  0  0  0  0  0  0  0  0
   15.6583  -15.5305   17.9212 N   0  0  0  0  0  0  0  0  0  0  0  0
   15.1245  -14.7588   20.1011 C   0  0  0  0  0  0  0  0  0  0  0  0
   15.4365  -14.1725   21.1864 O   0  0  0  0  0  0  0  0  0  0  0  0
   13.9935  -15.6019   20.0614 N   0  0  0  0  0  0  0  0  0  0  0  0
   13.2047  -15.7476   21.2929 C   0  0  1  0  0  0  0  0  0  0  0  0
   11.8030  -16.1931   20.9034 C   0  0  0  0  0  0  0  0  0  0  0  0
   10.8985  -16.3206   22.0909 C   0  0  0  0  0  0  0  0  0  0  0  0
    9.5406  -16.8010   21.6674 C   0  0  0  0  0  0  0  0  0  0  0  0
    9.3179  -17.1383   20.4953 O   0  0  0  0  0  0  0  0  0  0  0  0
   13.8845  -16.6477   22.2348 C   0  0  0  0  0  0  0  0  0  0  0  0
   14.8215  -17.3751   21.7575 O   0  0  0  0  0  0  0  0  0  0  0  0
    8.5179  -16.8683   22.6049 O   0  0  0  0  0  0  0  0  0  0  0  0
   13.6249  -16.7962   23.6024 N   0  0  0  0  0  0  0  0  0  0  0  0
   14.6055  -17.2100   24.5438 C   0  0  1  0  0  0  0  0  0  0  0  0
   15.9502  -16.5722   24.3808 C   0  0  0  0  0  0  0  0  0  0  0  0
   17.0415  -17.4797   23.8871 C   0  0  0  0  0  0  0  0  0  0  0  0
   18.3821  -17.0669   24.2670 C   0  0  0  0  0  0  0  0  0  0  0  0
   18.6324  -16.0803   24.9980 O   0  0  0  0  0  0  0  0  0  0  0  0
   14.1228  -17.2817   25.9431 C   0  0  0  0  0  0  0  0  0  0  0  0
   13.0037  -16.8037   26.2443 O   0  0  0  0  0  0  0  0  0  0  0  0
   19.4738  -17.8015   23.7991 O   0  0  0  0  0  0  0  0  0  0  0  0
   14.8516  -17.8606   26.9693 O   0  0  0  0  0  0  0  0  0  0  0  0
  2  1  1  0
  3  2  2  0
  4  5  1  0
  4  2  1  0
  5  6  1  6
  7  5  1  0
  7  8  2  0
  9  7  1  0
 10  9  1  0
 10 11  1  6
 11 12  1  0
 12 13  1  0
 13 17  1  0
 14 13  2  0
 15 10  1  0
 16 15  2  0
 18 15  1  0
 19 20  1  1
 19 18  1  0
 20 21  1  0
 21 22  1  0
 22 26  1  0
 23 22  2  0
 24 19  1  0
 25 24  2  0
 27 24  1  0
M  END
$$$$
