NEE.pdb
     RDKit          3D

 27 26  0  0  1  0  0  0  0  0999 V2000
   15.7614  -29.9610   35.0394 N   0  0  0  0  0  0  0  0  0  0  0  0
   16.0394  -28.6598   35.5256 C   0  0  0  0  0  0  0  0  0  0  0  0
   17.2643  -28.3681   35.6694 O   0  0  0  0  0  0  0  0  0  0  0  0
   15.0636  -27.6359   35.8723 C   0  0  0  0  0  0  0  0  0  0  0  0
   15.6054  -26.3135   36.2714 C   0  0  2  0  0  0  0  0  0  0  0  0
   14.8872  -25.6309   37.3060 N   0  0  0  0  0  0  0  0  0  0  0  0
   15.8557  -25.3989   35.1518 C   0  0  0  0  0  0  0  0  0  0  0  0
   16.8556  -25.6129   34.3946 O   0  0  0  0  0  0  0  0  0  0  0  0
   15.0130  -24.2947   34.9027 N   0  0  0  0  0  0  0  0  0  0  0  0
   15.3791  -23.3878   33.8056 C   0  0  1  0  0  0  0  0  0  0  0  0
   14.0966  -22.9232   33.1317 C   0  0  0  0  0  0  0  0  0  0  0  0
   13.3009  -24.0659   32.5789 C   0  0  0  0  0  0  0  0  0  0  0  0
   12.0775  -23.5598   31.8708 C   0  0  0  0  0  0  0  0  0  0  0  0
   11.0744  -24.2759   31.7353 O   0  0  0  0  0  0  0  0  0  0  0  0
   16.2294  -22.2972   34.3028 C   0  0  0  0  0  0  0  0  0  0  0  0
   15.7559  -21.5916   35.2582 O   0  0  0  0  0  0  0  0  0  0  0  0
   12.0704  -22.2683   31.3598 O   0  0  0  0  0  0  0  0  0  0  0  0
   17.5065  -21.9448   33.8505 N   0  0  0  0  0  0  0  0  0  0  0  0
   18.2299  -20.8264   34.3454 C   0  0  1  0  0  0  0  0  0  0  0  0
   19.4081  -21.1633   35.2056 C   0  0  0  0  0  0  0  0  0  0  0  0
   20.1367  -19.9883   35.7945 C   0  0  0  0  0  0  0  0  0  0  0  0
   21.3373  -20.3373   36.5352 C   0  0  0  0  0  0  0  0  0  0  0  0
   22.4507  -20.5585   36.0041 O   0  0  0  0  0  0  0  0  0  0  0  0
   18.4823  -19.7647   33.3427 C   0  0  0  0  0  0  0  0  0  0  0  0
   18.5121  -20.0509   32.1224 O   0  0  0  0  0  0  0  0  0  0  0  0
   21.2681  -20.4382   37.9263 O   0  0  0  0  0  0  0  0  0  0  0  0
   18.6934  -18.4374   33.6785 O   0  0  0  0  0  0  0  0  0  0  0  0
  2  1  1  0
  3  2  2  0
  4  5  1  0
  4  2  1  0
  5  6  1  1
  7  5  1  0
  7  8  2  0
  9  7  1  0
 10  9  1  0
 10 11  1  1
 11 12  1  0
 12 13  1  0
 13 17  1  0
 14 13  2  0
 15 10  1  0
 16 15  2  0
 18 15  1  0
 19 20  1  6
 19 18  1  0
 20 21  1  0
 21 22  1  0
 22 26  1  0
 23 22  2  0
 24 19  1  0
 25 24  2  0
 27 24  1  0
M  END
$$$$
