NEE.pdb
     RDKit          3D

 27 26  0  0  1  0  0  0  0  0999 V2000
    7.0679  -13.5102   17.7168 N   0  0  0  0  0  0  0  0  0  0  0  0
    8.3551  -13.6147   17.1346 C   0  0  0  0  0  0  0  0  0  0  0  0
    8.3871  -13.8765   15.8951 O   0  0  0  0  0  0  0  0  0  0  0  0
    9.6318  -13.4519   17.8161 C   0  0  0  0  0  0  0  0  0  0  0  0
   10.3631  -14.6969   18.1577 C   0  0  2  0  0  0  0  0  0  0  0  0
   10.1637  -15.8021   17.2684 N   0  0  0  0  0  0  0  0  0  0  0  0
   10.1920  -15.1378   19.5466 C   0  0  0  0  0  0  0  0  0  0  0  0
   10.4556  -14.3228   20.4875 O   0  0  0  0  0  0  0  0  0  0  0  0
    9.7438  -16.4401   19.8541 N   0  0  0  0  0  0  0  0  0  0  0  0
    9.6321  -16.8087   21.2724 C   0  0  1  0  0  0  0  0  0  0  0  0
    8.5375  -17.8575   21.4009 C   0  0  0  0  0  0  0  0  0  0  0  0
    8.4439  -18.4117   22.7896 C   0  0  0  0  0  0  0  0  0  0  0  0
    7.3487  -19.4352   22.8738 C   0  0  0  0  0  0  0  0  0  0  0  0
    6.1646  -19.1228   22.6802 O   0  0  0  0  0  0  0  0  0  0  0  0
   10.9380  -17.2311   21.7976 C   0  0  0  0  0  0  0  0  0  0  0  0
   11.5641  -18.1221   21.1275 O   0  0  0  0  0  0  0  0  0  0  0  0
    7.6684  -20.7532   23.1735 O   0  0  0  0  0  0  0  0  0  0  0  0
   11.5793  -16.7632   22.9507 N   0  0  0  0  0  0  0  0  0  0  0  0
   12.7743  -17.3333   23.4664 C   0  0  1  0  0  0  0  0  0  0  0  0
   14.0391  -16.8174   22.8532 C   0  0  0  0  0  0  0  0  0  0  0  0
   14.3166  -15.3571   23.0736 C   0  0  0  0  0  0  0  0  0  0  0  0
   15.4453  -14.8407   22.3178 C   0  0  0  0  0  0  0  0  0  0  0  0
   15.7741  -13.6318   22.2844 O   0  0  0  0  0  0  0  0  0  0  0  0
   12.8101  -17.4552   24.9429 C   0  0  0  0  0  0  0  0  0  0  0  0
   11.8804  -16.9746   25.6331 O   0  0  0  0  0  0  0  0  0  0  0  0
   16.2254  -15.7299   21.5754 O   0  0  0  0  0  0  0  0  0  0  0  0
   13.8360  -18.0850   25.6284 O   0  0  0  0  0  0  0  0  0  0  0  0
  2  1  1  0
  3  2  2  0
  4  5  1  0
  4  2  1  0
  5  6  1  6
  7  5  1  0
  7  8  2  0
  9  7  1  0
 10  9  1  0
 10 11  1  6
 11 12  1  0
 12 13  1  0
 13 17  1  0
 14 13  2  0
 15 10  1  0
 16 15  2  0
 18 15  1  0
 19 20  1  1
 19 18  1  0
 20 21  1  0
 21 22  1  0
 22 26  1  0
 23 22  2  0
 24 19  1  0
 25 24  2  0
 27 24  1  0
M  END
$$$$
