NEE.pdb
     RDKit          3D

 27 26  0  0  1  0  0  0  0  0999 V2000
   18.9414  -15.2871   16.0576 N   0  0  0  0  0  0  0  0  0  0  0  0
   17.5719  -15.6469   16.1008 C   0  0  0  0  0  0  0  0  0  0  0  0
   17.1299  -16.2811   15.0967 O   0  0  0  0  0  0  0  0  0  0  0  0
   16.6330  -15.3612   17.1768 C   0  0  0  0  0  0  0  0  0  0  0  0
   15.6737  -14.2541   16.9415 C   0  0  2  0  0  0  0  0  0  0  0  0
   16.2537  -12.9718   16.6740 N   0  0  0  0  0  0  0  0  0  0  0  0
   14.6333  -14.1260   17.9680 C   0  0  0  0  0  0  0  0  0  0  0  0
   14.8601  -13.3973   18.9860 O   0  0  0  0  0  0  0  0  0  0  0  0
   13.3952  -14.7922   17.8463 N   0  0  0  0  0  0  0  0  0  0  0  0
   12.4949  -14.7814   19.0079 C   0  0  1  0  0  0  0  0  0  0  0  0
   11.0978  -15.1395   18.5232 C   0  0  0  0  0  0  0  0  0  0  0  0
   10.1143  -15.2343   19.6494 C   0  0  0  0  0  0  0  0  0  0  0  0
    8.7566  -15.6106   19.1305 C   0  0  0  0  0  0  0  0  0  0  0  0
    7.7417  -15.4621   19.8270 O   0  0  0  0  0  0  0  0  0  0  0  0
   13.0110  -15.6610   20.0659 C   0  0  0  0  0  0  0  0  0  0  0  0
   13.5099  -16.7769   19.6907 O   0  0  0  0  0  0  0  0  0  0  0  0
    8.6369  -16.1333   17.8493 O   0  0  0  0  0  0  0  0  0  0  0  0
   13.0229  -15.4127   21.4436 N   0  0  0  0  0  0  0  0  0  0  0  0
   13.5258  -16.3355   22.3999 C   0  0  1  0  0  0  0  0  0  0  0  0
   15.0007  -16.2550   22.6444 C   0  0  0  0  0  0  0  0  0  0  0  0
   15.6841  -15.0389   22.0856 C   0  0  0  0  0  0  0  0  0  0  0  0
   17.1131  -14.9826   22.3438 C   0  0  0  0  0  0  0  0  0  0  0  0
   17.6226  -14.4596   23.3623 O   0  0  0  0  0  0  0  0  0  0  0  0
   12.7034  -16.4592   23.6265 C   0  0  0  0  0  0  0  0  0  0  0  0
   13.0263  -17.2815   24.5161 O   0  0  0  0  0  0  0  0  0  0  0  0
   17.9910  -15.5399   21.4116 O   0  0  0  0  0  0  0  0  0  0  0  0
   11.5671  -15.7015   23.8588 O   0  0  0  0  0  0  0  0  0  0  0  0
  2  1  1  0
  3  2  2  0
  4  5  1  0
  4  2  1  0
  5  6  1  1
  7  5  1  0
  7  8  2  0
  9  7  1  0
 10  9  1  0
 10 11  1  6
 11 12  1  0
 12 13  1  0
 13 17  1  0
 14 13  2  0
 15 10  1  0
 16 15  2  0
 18 15  1  0
 19 20  1  1
 19 18  1  0
 20 21  1  0
 21 22  1  0
 22 26  1  0
 23 22  2  0
 24 19  1  0
 25 24  2  0
 27 24  1  0
M  END
$$$$
