NEE.pdb
     RDKit          3D

 27 26  0  0  1  0  0  0  0  0999 V2000
    6.7438  -12.3137   18.1011 N   0  0  0  0  0  0  0  0  0  0  0  0
    7.7868  -13.1588   18.5536 C   0  0  0  0  0  0  0  0  0  0  0  0
    8.6071  -13.5533   17.6719 O   0  0  0  0  0  0  0  0  0  0  0  0
    8.0050  -13.6129   19.9200 C   0  0  0  0  0  0  0  0  0  0  0  0
    8.5161  -14.9961   20.0839 C   0  0  2  0  0  0  0  0  0  0  0  0
    8.0610  -15.9488   19.1157 N   0  0  0  0  0  0  0  0  0  0  0  0
    8.3565  -15.5443   21.4355 C   0  0  0  0  0  0  0  0  0  0  0  0
    8.7361  -14.8480   22.4304 O   0  0  0  0  0  0  0  0  0  0  0  0
    7.7936  -16.8207   21.6488 N   0  0  0  0  0  0  0  0  0  0  0  0
    7.8078  -17.3551   23.0179 C   0  0  1  0  0  0  0  0  0  0  0  0
    6.6348  -18.3135   23.1607 C   0  0  0  0  0  0  0  0  0  0  0  0
    6.6941  -19.4336   22.1675 C   0  0  0  0  0  0  0  0  0  0  0  0
    5.5076  -20.3398   22.3267 C   0  0  0  0  0  0  0  0  0  0  0  0
    4.4567  -20.1337   21.7020 O   0  0  0  0  0  0  0  0  0  0  0  0
    9.1157  -17.9517   23.3228 C   0  0  0  0  0  0  0  0  0  0  0  0
    9.7255  -18.5215   22.3541 O   0  0  0  0  0  0  0  0  0  0  0  0
    5.5899  -21.4264   23.1879 O   0  0  0  0  0  0  0  0  0  0  0  0
    9.7749  -17.9628   24.5578 N   0  0  0  0  0  0  0  0  0  0  0  0
   11.1862  -18.0617   24.6896 C   0  0  1  0  0  0  0  0  0  0  0  0
   11.9724  -17.1719   23.7776 C   0  0  0  0  0  0  0  0  0  0  0  0
   13.4665  -17.2826   23.8948 C   0  0  0  0  0  0  0  0  0  0  0  0
   14.2045  -16.4186   22.9889 C   0  0  0  0  0  0  0  0  0  0  0  0
   15.0830  -15.6035   23.3553 O   0  0  0  0  0  0  0  0  0  0  0  0
   11.6722  -18.0937   26.0893 C   0  0  0  0  0  0  0  0  0  0  0  0
   10.9469  -17.6565   27.0137 O   0  0  0  0  0  0  0  0  0  0  0  0
   13.9332  -16.4847   21.6205 O   0  0  0  0  0  0  0  0  0  0  0  0
   12.9136  -18.5908   26.4511 O   0  0  0  0  0  0  0  0  0  0  0  0
  2  1  1  0
  3  2  2  0
  4  5  1  0
  4  2  1  0
  5  6  1  6
  7  5  1  0
  7  8  2  0
  9  7  1  0
 10  9  1  0
 10 11  1  6
 11 12  1  0
 12 13  1  0
 13 17  1  0
 14 13  2  0
 15 10  1  0
 16 15  2  0
 18 15  1  0
 19 20  1  6
 19 18  1  0
 20 21  1  0
 21 22  1  0
 22 26  1  0
 23 22  2  0
 24 19  1  0
 25 24  2  0
 27 24  1  0
M  END
$$$$
