NEE.pdb
     RDKit          3D

 27 26  0  0  1  0  0  0  0  0999 V2000
    8.1351  -14.6853   20.5820 N   0  0  0  0  0  0  0  0  0  0  0  0
    8.1412  -13.2887   20.3446 C   0  0  0  0  0  0  0  0  0  0  0  0
    7.6800  -12.5628   21.2754 O   0  0  0  0  0  0  0  0  0  0  0  0
    8.6213  -12.6140   19.1467 C   0  0  0  0  0  0  0  0  0  0  0  0
    9.0875  -13.4841   18.0389 C   0  0  2  0  0  0  0  0  0  0  0  0
    8.0668  -14.2091   17.3426 N   0  0  0  0  0  0  0  0  0  0  0  0
   10.1834  -14.3900   18.4008 C   0  0  0  0  0  0  0  0  0  0  0  0
    9.9269  -15.6225   18.5858 O   0  0  0  0  0  0  0  0  0  0  0  0
   11.5065  -13.9213   18.5461 N   0  0  0  0  0  0  0  0  0  0  0  0
   12.5665  -14.9174   18.7564 C   0  0  1  0  0  0  0  0  0  0  0  0
   13.5563  -14.8004   17.6068 C   0  0  0  0  0  0  0  0  0  0  0  0
   13.3617  -15.8739   16.5801 C   0  0  0  0  0  0  0  0  0  0  0  0
   14.4250  -15.7889   15.5236 C   0  0  0  0  0  0  0  0  0  0  0  0
   14.1348  -15.8295   14.3189 O   0  0  0  0  0  0  0  0  0  0  0  0
   13.1660  -14.7560   20.0883 C   0  0  0  0  0  0  0  0  0  0  0  0
   13.6300  -13.5986   20.3714 O   0  0  0  0  0  0  0  0  0  0  0  0
   15.7551  -15.6628   15.9032 O   0  0  0  0  0  0  0  0  0  0  0  0
   13.2829  -15.7284   21.0885 N   0  0  0  0  0  0  0  0  0  0  0  0
   13.8720  -15.4781   22.3571 C   0  0  1  0  0  0  0  0  0  0  0  0
   13.3278  -16.3016   23.4828 C   0  0  0  0  0  0  0  0  0  0  0  0
   11.8323  -16.4458   23.5152 C   0  0  0  0  0  0  0  0  0  0  0  0
   11.3338  -17.2802   24.5956 C   0  0  0  0  0  0  0  0  0  0  0  0
   12.0679  -17.8971   25.4025 O   0  0  0  0  0  0  0  0  0  0  0  0
   15.3492  -15.3615   22.3368 C   0  0  0  0  0  0  0  0  0  0  0  0
   15.9904  -15.7096   21.3172 O   0  0  0  0  0  0  0  0  0  0  0  0
    9.9540  -17.4170   24.7626 O   0  0  0  0  0  0  0  0  0  0  0  0
   16.0878  -14.8781   23.4044 O   0  0  0  0  0  0  0  0  0  0  0  0
  2  1  1  0
  3  2  2  0
  4  5  1  0
  4  2  1  0
  5  6  1  1
  7  5  1  0
  7  8  2  0
  9  7  1  0
 10  9  1  0
 10 11  1  6
 11 12  1  0
 12 13  1  0
 13 17  1  0
 14 13  2  0
 15 10  1  0
 16 15  2  0
 18 15  1  0
 19 20  1  1
 19 18  1  0
 20 21  1  0
 21 22  1  0
 22 26  1  0
 23 22  2  0
 24 19  1  0
 25 24  2  0
 27 24  1  0
M  END
$$$$
