NEE.pdb
     RDKit          3D

 27 26  0  0  1  0  0  0  0  0999 V2000
    8.8782  -13.0551   17.2618 N   0  0  0  0  0  0  0  0  0  0  0  0
    7.6998  -13.5227   17.8939 C   0  0  0  0  0  0  0  0  0  0  0  0
    6.6408  -13.4829   17.1990 O   0  0  0  0  0  0  0  0  0  0  0  0
    7.5893  -14.0395   19.2509 C   0  0  0  0  0  0  0  0  0  0  0  0
    8.8156  -13.9787   20.0841 C   0  0  2  0  0  0  0  0  0  0  0  0
   10.0575  -14.0374   19.3724 N   0  0  0  0  0  0  0  0  0  0  0  0
    8.8362  -14.9294   21.2014 C   0  0  0  0  0  0  0  0  0  0  0  0
    7.8304  -14.9870   21.9785 O   0  0  0  0  0  0  0  0  0  0  0  0
    9.9439  -15.7742   21.4268 N   0  0  0  0  0  0  0  0  0  0  0  0
    9.8911  -16.6782   22.5844 C   0  0  1  0  0  0  0  0  0  0  0  0
   10.9549  -17.7491   22.3936 C   0  0  0  0  0  0  0  0  0  0  0  0
   10.9913  -18.7209   23.5332 C   0  0  0  0  0  0  0  0  0  0  0  0
   12.0136  -19.7906   23.2785 C   0  0  0  0  0  0  0  0  0  0  0  0
   13.1905  -19.6508   23.6424 O   0  0  0  0  0  0  0  0  0  0  0  0
   10.0170  -15.9180   23.8358 C   0  0  0  0  0  0  0  0  0  0  0  0
   11.0858  -15.2322   23.9846 O   0  0  0  0  0  0  0  0  0  0  0  0
   11.6333  -20.9555   22.6245 O   0  0  0  0  0  0  0  0  0  0  0  0
    9.0932  -15.8554   24.8858 N   0  0  0  0  0  0  0  0  0  0  0  0
    9.3057  -15.0989   26.0697 C   0  0  1  0  0  0  0  0  0  0  0  0
    8.5379  -13.8160   26.1491 C   0  0  0  0  0  0  0  0  0  0  0  0
    7.0656  -13.9243   25.8679 C   0  0  0  0  0  0  0  0  0  0  0  0
    6.3383  -12.6722   25.9902 C   0  0  0  0  0  0  0  0  0  0  0  0
    6.8711  -11.5762   26.2826 O   0  0  0  0  0  0  0  0  0  0  0  0
    9.3029  -15.8972   27.3183 C   0  0  0  0  0  0  0  0  0  0  0  0
    9.5859  -15.3512   28.4108 O   0  0  0  0  0  0  0  0  0  0  0  0
    4.9588  -12.6676   25.7727 O   0  0  0  0  0  0  0  0  0  0  0  0
    8.9985  -17.2482   27.3554 O   0  0  0  0  0  0  0  0  0  0  0  0
  2  1  1  0
  3  2  2  0
  4  5  1  0
  4  2  1  0
  5  6  1  6
  7  5  1  0
  7  8  2  0
  9  7  1  0
 10  9  1  0
 10 11  1  6
 11 12  1  0
 12 13  1  0
 13 17  1  0
 14 13  2  0
 15 10  1  0
 16 15  2  0
 18 15  1  0
 19 20  1  1
 19 18  1  0
 20 21  1  0
 21 22  1  0
 22 26  1  0
 23 22  2  0
 24 19  1  0
 25 24  2  0
 27 24  1  0
M  END
$$$$
