NEE.pdb
     RDKit          3D

 27 26  0  0  1  0  0  0  0  0999 V2000
    2.8887  -22.3356   21.3661 N   0  0  0  0  0  0  0  0  0  0  0  0
    3.2525  -21.1871   22.1112 C   0  0  0  0  0  0  0  0  0  0  0  0
    2.3350  -20.3350   22.3062 O   0  0  0  0  0  0  0  0  0  0  0  0
    4.5655  -20.8944   22.6691 C   0  0  0  0  0  0  0  0  0  0  0  0
    4.9585  -19.4645   22.7213 C   0  0  2  0  0  0  0  0  0  0  0  0
    4.4071  -18.6277   21.6976 N   0  0  0  0  0  0  0  0  0  0  0  0
    6.4043  -19.2375   22.8253 C   0  0  0  0  0  0  0  0  0  0  0  0
    7.1088  -20.0572   23.4966 O   0  0  0  0  0  0  0  0  0  0  0  0
    7.0217  -18.1342   22.1985 N   0  0  0  0  0  0  0  0  0  0  0  0
    8.4815  -18.0094   22.3145 C   0  0  1  0  0  0  0  0  0  0  0  0
    8.9609  -17.0645   21.2227 C   0  0  0  0  0  0  0  0  0  0  0  0
   10.4301  -16.7873   21.3181 C   0  0  0  0  0  0  0  0  0  0  0  0
   10.8608  -15.8551   20.2228 C   0  0  0  0  0  0  0  0  0  0  0  0
   11.8259  -15.0918   20.3748 O   0  0  0  0  0  0  0  0  0  0  0  0
    8.8554  -17.5992   23.6752 C   0  0  0  0  0  0  0  0  0  0  0  0
    8.0524  -16.8055   24.2754 O   0  0  0  0  0  0  0  0  0  0  0  0
   10.1660  -15.8487   19.0201 O   0  0  0  0  0  0  0  0  0  0  0  0
    9.9933  -17.9843   24.3939 N   0  0  0  0  0  0  0  0  0  0  0  0
   10.2147  -17.6348   25.7533 C   0  0  1  0  0  0  0  0  0  0  0  0
    9.8740  -18.7023   26.7463 C   0  0  0  0  0  0  0  0  0  0  0  0
   10.0518  -18.3242   28.1898 C   0  0  0  0  0  0  0  0  0  0  0  0
    9.7262  -19.3824   29.1311 C   0  0  0  0  0  0  0  0  0  0  0  0
    8.6982  -20.0954   29.0581 O   0  0  0  0  0  0  0  0  0  0  0  0
   11.5001  -16.9429   26.0087 C   0  0  0  0  0  0  0  0  0  0  0  0
   11.5683  -16.0551   26.8913 O   0  0  0  0  0  0  0  0  0  0  0  0
   10.5996  -19.6370   30.1906 O   0  0  0  0  0  0  0  0  0  0  0  0
   12.6650  -17.2234   25.3134 O   0  0  0  0  0  0  0  0  0  0  0  0
  2  1  1  0
  3  2  2  0
  4  5  1  0
  4  2  1  0
  5  6  1  6
  7  5  1  0
  7  8  2  0
  9  7  1  0
 10  9  1  0
 10 11  1  6
 11 12  1  0
 12 13  1  0
 13 17  1  0
 14 13  2  0
 15 10  1  0
 16 15  2  0
 18 15  1  0
 19 20  1  1
 19 18  1  0
 20 21  1  0
 21 22  1  0
 22 26  1  0
 23 22  2  0
 24 19  1  0
 25 24  2  0
 27 24  1  0
M  END
$$$$
