NEE.pdb
     RDKit          3D

 27 26  0  0  1  0  0  0  0  0999 V2000
   12.0903  -12.9319   19.1566 N   0  0  0  0  0  0  0  0  0  0  0  0
   11.1390  -13.9809   19.1229 C   0  0  0  0  0  0  0  0  0  0  0  0
   10.1140  -13.7813   18.4049 O   0  0  0  0  0  0  0  0  0  0  0  0
   11.2244  -15.2531   19.8264 C   0  0  0  0  0  0  0  0  0  0  0  0
   12.3819  -15.4289   20.7379 C   0  0  2  0  0  0  0  0  0  0  0  0
   13.6521  -15.0146   20.2211 N   0  0  0  0  0  0  0  0  0  0  0  0
   12.4949  -16.7703   21.3213 C   0  0  0  0  0  0  0  0  0  0  0  0
   11.5955  -17.1675   22.1289 O   0  0  0  0  0  0  0  0  0  0  0  0
   13.5757  -17.6206   21.0044 N   0  0  0  0  0  0  0  0  0  0  0  0
   13.5948  -18.9589   21.6117 C   0  0  1  0  0  0  0  0  0  0  0  0
   14.4091  -19.8734   20.7086 C   0  0  0  0  0  0  0  0  0  0  0  0
   14.4175  -21.2900   21.1960 C   0  0  0  0  0  0  0  0  0  0  0  0
   15.2402  -22.1540   20.2846 C   0  0  0  0  0  0  0  0  0  0  0  0
   15.0603  -23.3795   20.2298 O   0  0  0  0  0  0  0  0  0  0  0  0
   14.0820  -18.8877   22.9963 C   0  0  0  0  0  0  0  0  0  0  0  0
   14.8224  -17.8882   23.2925 O   0  0  0  0  0  0  0  0  0  0  0  0
   16.2185  -21.5698   19.4903 O   0  0  0  0  0  0  0  0  0  0  0  0
   13.8223  -19.7912   24.0335 N   0  0  0  0  0  0  0  0  0  0  0  0
   14.2567  -19.5912   25.3716 C   0  0  1  0  0  0  0  0  0  0  0  0
   13.3145  -20.0855   26.4249 C   0  0  0  0  0  0  0  0  0  0  0  0
   12.2866  -19.0933   26.8911 C   0  0  0  0  0  0  0  0  0  0  0  0
   11.2946  -19.6408   27.8011 C   0  0  0  0  0  0  0  0  0  0  0  0
   10.3875  -18.9648   28.3405 O   0  0  0  0  0  0  0  0  0  0  0  0
   15.6804  -19.9250   25.6122 C   0  0  0  0  0  0  0  0  0  0  0  0
   16.1882  -19.7237   26.7407 O   0  0  0  0  0  0  0  0  0  0  0  0
   11.3367  -21.0027   28.1073 O   0  0  0  0  0  0  0  0  0  0  0  0
   16.5097  -20.4609   24.6405 O   0  0  0  0  0  0  0  0  0  0  0  0
  2  1  1  0
  3  2  2  0
  4  5  1  0
  4  2  1  0
  5  6  1  6
  7  5  1  0
  7  8  2  0
  9  7  1  0
 10  9  1  0
 10 11  1  6
 11 12  1  0
 12 13  1  0
 13 17  1  0
 14 13  2  0
 15 10  1  0
 16 15  2  0
 18 15  1  0
 19 20  1  1
 19 18  1  0
 20 21  1  0
 21 22  1  0
 22 26  1  0
 23 22  2  0
 24 19  1  0
 25 24  2  0
 27 24  1  0
M  END
$$$$
