NEE.pdb
     RDKit          3D

 27 26  0  0  1  0  0  0  0  0999 V2000
    8.2658  -11.4916   18.5947 N   0  0  0  0  0  0  0  0  0  0  0  0
    7.9398  -12.7225   17.9738 C   0  0  0  0  0  0  0  0  0  0  0  0
    6.7134  -13.0416   17.9780 O   0  0  0  0  0  0  0  0  0  0  0  0
    8.8684  -13.6465   17.3376 C   0  0  0  0  0  0  0  0  0  0  0  0
    9.3100  -14.8059   18.1515 C   0  0  2  0  0  0  0  0  0  0  0  0
    8.9076  -14.7931   19.5263 N   0  0  0  0  0  0  0  0  0  0  0  0
   10.7437  -15.1026   18.0548 C   0  0  0  0  0  0  0  0  0  0  0  0
   11.1406  -15.9421   17.1850 O   0  0  0  0  0  0  0  0  0  0  0  0
   11.6821  -14.4775   18.9033 N   0  0  0  0  0  0  0  0  0  0  0  0
   12.9583  -15.1675   19.1387 C   0  0  1  0  0  0  0  0  0  0  0  0
   14.0143  -14.5161   18.2581 C   0  0  0  0  0  0  0  0  0  0  0  0
   15.3831  -15.0701   18.5109 C   0  0  0  0  0  0  0  0  0  0  0  0
   16.2609  -14.8694   17.3095 C   0  0  0  0  0  0  0  0  0  0  0  0
   17.0512  -15.7503   16.9400 O   0  0  0  0  0  0  0  0  0  0  0  0
   13.2844  -15.1696   20.5716 C   0  0  0  0  0  0  0  0  0  0  0  0
   13.2094  -14.0464   21.1780 O   0  0  0  0  0  0  0  0  0  0  0  0
   16.1853  -13.6770   16.6011 O   0  0  0  0  0  0  0  0  0  0  0  0
   13.6645  -16.2675   21.3526 N   0  0  0  0  0  0  0  0  0  0  0  0
   13.9032  -16.1868   22.7510 C   0  0  1  0  0  0  0  0  0  0  0  0
   13.0125  -17.0427   23.5969 C   0  0  0  0  0  0  0  0  0  0  0  0
   13.3095  -17.0282   25.0700 C   0  0  0  0  0  0  0  0  0  0  0  0
   12.5063  -17.9526   25.8525 C   0  0  0  0  0  0  0  0  0  0  0  0
   11.5450  -18.6114   25.3918 O   0  0  0  0  0  0  0  0  0  0  0  0
   15.3347  -16.2202   23.1333 C   0  0  0  0  0  0  0  0  0  0  0  0
   16.1802  -16.7133   22.3499 O   0  0  0  0  0  0  0  0  0  0  0  0
   12.8075  -18.1327   27.2043 O   0  0  0  0  0  0  0  0  0  0  0  0
   15.8112  -15.7266   24.3368 O   0  0  0  0  0  0  0  0  0  0  0  0
  2  1  1  0
  3  2  2  0
  4  5  1  0
  4  2  1  0
  5  6  1  1
  7  5  1  0
  7  8  2  0
  9  7  1  0
 10  9  1  0
 10 11  1  6
 11 12  1  0
 12 13  1  0
 13 17  1  0
 14 13  2  0
 15 10  1  0
 16 15  2  0
 18 15  1  0
 19 20  1  1
 19 18  1  0
 20 21  1  0
 21 22  1  0
 22 26  1  0
 23 22  2  0
 24 19  1  0
 25 24  2  0
 27 24  1  0
M  END
$$$$
