NEE.pdb
     RDKit          3D

 27 26  0  0  1  0  0  0  0  0999 V2000
    6.0776  -12.2807   17.3717 N   0  0  0  0  0  0  0  0  0  0  0  0
    7.3521  -12.8185   17.6767 C   0  0  0  0  0  0  0  0  0  0  0  0
    8.1726  -12.8895   16.7135 O   0  0  0  0  0  0  0  0  0  0  0  0
    7.8057  -13.2924   18.9769 C   0  0  0  0  0  0  0  0  0  0  0  0
    9.2687  -13.4783   19.1400 C   0  0  2  0  0  0  0  0  0  0  0  0
   10.0556  -13.3078   17.9552 N   0  0  0  0  0  0  0  0  0  0  0  0
    9.6491  -14.7238   19.8158 C   0  0  0  0  0  0  0  0  0  0  0  0
    8.9184  -15.1576   20.7628 O   0  0  0  0  0  0  0  0  0  0  0  0
   10.8025  -15.4429   19.4363 N   0  0  0  0  0  0  0  0  0  0  0  0
   11.1374  -16.6528   20.2006 C   0  0  1  0  0  0  0  0  0  0  0  0
   11.7520  -17.6603   19.2405 C   0  0  0  0  0  0  0  0  0  0  0  0
   12.8681  -17.0681   18.4355 C   0  0  0  0  0  0  0  0  0  0  0  0
   13.4393  -18.0915   17.4972 C   0  0  0  0  0  0  0  0  0  0  0  0
   14.4843  -17.8700   16.8678 O   0  0  0  0  0  0  0  0  0  0  0  0
   11.9898  -16.3152   21.3491 C   0  0  0  0  0  0  0  0  0  0  0  0
   12.8800  -15.4175   21.1577 O   0  0  0  0  0  0  0  0  0  0  0  0
   12.7856  -19.3059   17.3325 O   0  0  0  0  0  0  0  0  0  0  0  0
   11.9343  -16.8638   22.6358 N   0  0  0  0  0  0  0  0  0  0  0  0
   12.7442  -16.4137   23.7131 C   0  0  1  0  0  0  0  0  0  0  0  0
   12.2167  -16.7295   25.0782 C   0  0  0  0  0  0  0  0  0  0  0  0
   12.3861  -18.1546   25.5240 C   0  0  0  0  0  0  0  0  0  0  0  0
   11.8399  -18.4400   26.8401 C   0  0  0  0  0  0  0  0  0  0  0  0
   11.2831  -17.5865   27.5695 O   0  0  0  0  0  0  0  0  0  0  0  0
   14.1942  -16.6654   23.5391 C   0  0  0  0  0  0  0  0  0  0  0  0
   14.5840  -17.5610   22.7531 O   0  0  0  0  0  0  0  0  0  0  0  0
   11.9308  -19.7399   27.3424 O   0  0  0  0  0  0  0  0  0  0  0  0
   15.1747  -15.9527   24.2098 O   0  0  0  0  0  0  0  0  0  0  0  0
  2  1  1  0
  3  2  2  0
  4  5  1  0
  4  2  1  0
  5  6  1  6
  7  5  1  0
  7  8  2  0
  9  7  1  0
 10  9  1  0
 10 11  1  6
 11 12  1  0
 12 13  1  0
 13 17  1  0
 14 13  2  0
 15 10  1  0
 16 15  2  0
 18 15  1  0
 19 20  1  1
 19 18  1  0
 20 21  1  0
 21 22  1  0
 22 26  1  0
 23 22  2  0
 24 19  1  0
 25 24  2  0
 27 24  1  0
M  END
$$$$
