NEE.pdb
     RDKit          3D

 27 26  0  0  1  0  0  0  0  0999 V2000
   12.2860  -20.3398   15.7731 N   0  0  0  0  0  0  0  0  0  0  0  0
   11.1128  -20.0002   15.0554 C   0  0  0  0  0  0  0  0  0  0  0  0
   10.5640  -20.9406   14.4069 O   0  0  0  0  0  0  0  0  0  0  0  0
   10.4833  -18.6885   14.9916 C   0  0  0  0  0  0  0  0  0  0  0  0
   11.1885  -17.5818   15.6840 C   0  0  2  0  0  0  0  0  0  0  0  0
   12.6184  -17.6028   15.5992 N   0  0  0  0  0  0  0  0  0  0  0  0
   10.7749  -17.3780   17.0768 C   0  0  0  0  0  0  0  0  0  0  0  0
   10.1814  -16.2970   17.3902 O   0  0  0  0  0  0  0  0  0  0  0  0
   11.0222  -18.3528   18.0667 N   0  0  0  0  0  0  0  0  0  0  0  0
   10.5516  -18.0773   19.4316 C   0  0  1  0  0  0  0  0  0  0  0  0
    9.7375  -19.2746   19.8989 C   0  0  0  0  0  0  0  0  0  0  0  0
    9.2048  -19.0907   21.2869 C   0  0  0  0  0  0  0  0  0  0  0  0
    8.4854  -20.3277   21.7415 C   0  0  0  0  0  0  0  0  0  0  0  0
    7.3722  -20.2581   22.2829 O   0  0  0  0  0  0  0  0  0  0  0  0
   11.6828  -17.7378   20.3061 C   0  0  0  0  0  0  0  0  0  0  0  0
   12.7174  -18.4843   20.2207 O   0  0  0  0  0  0  0  0  0  0  0  0
    9.0777  -21.5696   21.5518 O   0  0  0  0  0  0  0  0  0  0  0  0
   11.7584  -16.6822   21.2225 N   0  0  0  0  0  0  0  0  0  0  0  0
   12.5488  -16.7265   22.4025 C   0  0  1  0  0  0  0  0  0  0  0  0
   11.9694  -17.5315   23.5241 C   0  0  0  0  0  0  0  0  0  0  0  0
   12.8245  -17.6352   24.7555 C   0  0  0  0  0  0  0  0  0  0  0  0
   12.2735  -18.4844   25.7982 C   0  0  0  0  0  0  0  0  0  0  0  0
   12.9613  -19.2340   26.5299 O   0  0  0  0  0  0  0  0  0  0  0  0
   13.9946  -16.9499   22.1661 C   0  0  0  0  0  0  0  0  0  0  0  0
   14.8318  -16.1079   22.5684 O   0  0  0  0  0  0  0  0  0  0  0  0
   10.8938  -18.4802   26.0147 O   0  0  0  0  0  0  0  0  0  0  0  0
   14.4938  -18.0628   21.5095 O   0  0  0  0  0  0  0  0  0  0  0  0
  2  1  1  0
  3  2  2  0
  4  5  1  0
  4  2  1  0
  5  6  1  1
  7  5  1  0
  7  8  2  0
  9  7  1  0
 10  9  1  0
 10 11  1  1
 11 12  1  0
 12 13  1  0
 13 17  1  0
 14 13  2  0
 15 10  1  0
 16 15  2  0
 18 15  1  0
 19 20  1  1
 19 18  1  0
 20 21  1  0
 21 22  1  0
 22 26  1  0
 23 22  2  0
 24 19  1  0
 25 24  2  0
 27 24  1  0
M  END
$$$$
