YKR.pdb
     RDKit          3D

 33 33  0  0  1  0  0  0  0  0999 V2000
   29.6060  -20.1771   -3.7995 O   0  0  0  0  0  0  0  0  0  0  0  0
   28.8614  -20.0213   -4.9802 C   0  0  0  0  0  0  0  0  0  0  0  0
   29.4372  -19.2604   -5.9886 C   0  0  0  0  0  0  0  0  0  0  0  0
   28.7312  -19.0896   -7.1588 C   0  0  0  0  0  0  0  0  0  0  0  0
   27.4760  -19.6415   -7.3740 C   0  0  0  0  0  0  0  0  0  0  0  0
   26.7907  -19.4127   -8.6513 C   0  0  0  0  0  0  0  0  0  0  0  0
   26.7724  -20.6631   -9.4777 C   0  0  2  0  0  0  0  0  0  0  0  0
   28.0899  -21.2107   -9.5778 N   0  0  0  0  0  0  0  0  0  0  0  0
   26.1720  -20.3822  -10.8322 C   0  0  0  0  0  0  0  0  0  0  0  0
   24.9828  -20.0567  -10.8454 O   0  0  0  0  0  0  0  0  0  0  0  0
   26.9308  -20.3895   -6.3594 C   0  0  0  0  0  0  0  0  0  0  0  0
   27.6315  -20.5704   -5.1731 C   0  0  0  0  0  0  0  0  0  0  0  0
   26.9594  -20.4950  -12.0104 N   0  0  0  0  0  0  0  0  0  0  0  0
   26.5871  -20.0854  -13.3149 C   0  0  1  0  0  0  0  0  0  0  0  0
   27.7290  -19.5418  -14.1786 C   0  0  0  0  0  0  0  0  0  0  0  0
   27.1908  -18.9603  -15.4561 C   0  0  0  0  0  0  0  0  0  0  0  0
   28.2787  -18.3960  -16.3242 C   0  0  0  0  0  0  0  0  0  0  0  0
   27.7889  -17.7044  -17.5405 C   0  0  0  0  0  0  0  0  0  0  0  0
   28.8029  -17.1464  -18.3896 N   0  0  0  0  0  0  0  0  0  0  0  0
   25.6620  -20.8897  -14.0686 C   0  0  0  0  0  0  0  0  0  0  0  0
   25.9989  -22.1077  -14.2911 O   0  0  0  0  0  0  0  0  0  0  0  0
   19.9294  -21.6694  -10.3101 N   0  0  0  0  0  0  0  0  0  0  0  0
   19.0399  -21.3502  -11.3787 C   0  0  0  0  0  0  0  0  0  0  0  0
   17.9865  -20.6313  -11.1234 N   0  0  0  0  0  0  0  0  0  0  0  0
   19.2822  -21.7981  -12.7019 N   0  0  0  0  0  0  0  0  0  0  0  0
   20.5168  -22.4323  -13.0962 C   0  0  0  0  0  0  0  0  0  0  0  0
   21.3068  -21.5670  -14.0887 C   0  0  0  0  0  0  0  0  0  0  0  0
   22.6544  -22.1571  -14.2717 C   0  0  0  0  0  0  0  0  0  0  0  0
   23.5528  -21.4161  -15.2146 C   0  0  2  0  0  0  0  0  0  0  0  0
   24.4161  -20.4772  -14.5925 N   0  0  0  0  0  0  0  0  0  0  0  0
   22.6835  -20.7027  -16.2199 C   0  0  0  0  0  0  0  0  0  0  0  0
   21.9337  -21.4555  -17.0996 O   0  0  0  0  0  0  0  0  0  0  0  0
   22.6186  -19.4591  -16.2835 O   0  0  0  0  0  0  0  0  0  0  0  0
  2  1  1  0
  3  2  2  0
  4  3  1  0
  5 11  1  0
  5  4  2  0
  6  5  1  0
  7  6  1  0
  7  8  1  6
  9 13  1  0
  9  7  1  0
 10  9  2  0
 11 12  2  0
 12  2  1  0
 14 20  1  0
 14 13  1  0
 14 15  1  6
 16 15  1  0
 17 16  1  0
 18 17  1  0
 19 18  1  0
 20 30  1  0
 21 20  2  0
 23 25  1  0
 23 22  1  0
 24 23  2  0
 26 27  1  0
 26 25  1  0
 27 28  1  0
 29 31  1  0
 29 28  1  1
 30 29  1  0
 31 32  1  0
 33 31  2  0
M  END
$$$$
