YKR.pdb
     RDKit          3D

 33 33  0  0  1  0  0  0  0  0999 V2000
   29.6109  -18.5629   -3.2301 O   0  0  0  0  0  0  0  0  0  0  0  0
   28.9276  -19.0901   -4.3381 C   0  0  0  0  0  0  0  0  0  0  0  0
   27.5421  -19.1323   -4.2583 C   0  0  0  0  0  0  0  0  0  0  0  0
   26.8438  -19.6439   -5.3294 C   0  0  0  0  0  0  0  0  0  0  0  0
   27.4600  -20.1169   -6.4797 C   0  0  0  0  0  0  0  0  0  0  0  0
   26.6421  -20.6453   -7.5776 C   0  0  0  0  0  0  0  0  0  0  0  0
   26.5917  -19.6752   -8.7191 C   0  0  2  0  0  0  0  0  0  0  0  0
   26.0004  -18.4431   -8.2971 N   0  0  0  0  0  0  0  0  0  0  0  0
   25.8573  -20.2845   -9.8869 C   0  0  0  0  0  0  0  0  0  0  0  0
   24.6297  -20.1699   -9.8796 O   0  0  0  0  0  0  0  0  0  0  0  0
   28.8313  -20.0630   -6.5311 C   0  0  0  0  0  0  0  0  0  0  0  0
   29.5492  -19.5494   -5.4580 C   0  0  0  0  0  0  0  0  0  0  0  0
   26.5692  -20.9478  -10.9231 N   0  0  0  0  0  0  0  0  0  0  0  0
   26.2152  -20.9905  -12.2946 C   0  0  1  0  0  0  0  0  0  0  0  0
   27.3923  -21.0926  -13.2692 C   0  0  0  0  0  0  0  0  0  0  0  0
   26.9015  -21.0735  -14.6900 C   0  0  0  0  0  0  0  0  0  0  0  0
   28.0273  -21.1658  -15.6795 C   0  0  0  0  0  0  0  0  0  0  0  0
   27.6170  -20.9581  -17.0888 C   0  0  0  0  0  0  0  0  0  0  0  0
   28.6624  -21.0774  -18.0652 N   0  0  0  0  0  0  0  0  0  0  0  0
   25.0890  -21.7857  -12.7070 C   0  0  0  0  0  0  0  0  0  0  0  0
   25.1241  -23.0357  -12.4192 O   0  0  0  0  0  0  0  0  0  0  0  0
   22.6445  -17.2545  -15.0243 N   0  0  0  0  0  0  0  0  0  0  0  0
   21.2624  -17.3726  -15.3571 C   0  0  0  0  0  0  0  0  0  0  0  0
   20.8442  -16.8729  -16.4829 N   0  0  0  0  0  0  0  0  0  0  0  0
   20.3454  -18.0195  -14.4908 N   0  0  0  0  0  0  0  0  0  0  0  0
   20.7580  -18.9788  -13.4949 C   0  0  0  0  0  0  0  0  0  0  0  0
   21.0856  -20.3416  -14.1221 C   0  0  0  0  0  0  0  0  0  0  0  0
   21.5138  -21.2717  -13.0501 C   0  0  0  0  0  0  0  0  0  0  0  0
   22.7375  -22.0798  -13.3576 C   0  0  2  0  0  0  0  0  0  0  0  0
   23.9433  -21.3327  -13.3993 N   0  0  0  0  0  0  0  0  0  0  0  0
   22.5248  -22.7559  -14.6892 C   0  0  0  0  0  0  0  0  0  0  0  0
   21.6115  -23.7864  -14.7704 O   0  0  0  0  0  0  0  0  0  0  0  0
   23.1440  -22.4167  -15.7170 O   0  0  0  0  0  0  0  0  0  0  0  0
  2  1  1  0
  3  2  2  0
  4  3  1  0
  5 11  1  0
  5  4  2  0
  6  5  1  0
  7  6  1  0
  7  8  1  1
  9 13  1  0
  9  7  1  0
 10  9  2  0
 11 12  2  0
 12  2  1  0
 14 20  1  0
 14 13  1  0
 14 15  1  6
 16 15  1  0
 17 16  1  0
 18 17  1  0
 19 18  1  0
 20 30  1  0
 21 20  2  0
 23 25  1  0
 23 22  1  0
 24 23  2  0
 26 27  1  0
 26 25  1  0
 27 28  1  0
 29 31  1  0
 29 28  1  6
 30 29  1  0
 31 32  1  0
 33 31  2  0
M  END
$$$$
