YKR.pdb
     RDKit          3D

 33 33  0  0  1  0  0  0  0  0999 V2000
   19.4386  -22.9811   -7.0725 O   0  0  0  0  0  0  0  0  0  0  0  0
   20.1115  -22.4168   -8.1687 C   0  0  0  0  0  0  0  0  0  0  0  0
   19.8161  -22.9376   -9.4213 C   0  0  0  0  0  0  0  0  0  0  0  0
   20.4600  -22.4048  -10.5160 C   0  0  0  0  0  0  0  0  0  0  0  0
   21.3865  -21.3754  -10.4235 C   0  0  0  0  0  0  0  0  0  0  0  0
   22.0273  -20.8628  -11.6401 C   0  0  0  0  0  0  0  0  0  0  0  0
   23.5063  -21.1036  -11.6053 C   0  0  2  0  0  0  0  0  0  0  0  0
   24.1133  -20.3141  -10.5786 N   0  0  0  0  0  0  0  0  0  0  0  0
   24.1094  -20.8303  -12.9602 C   0  0  0  0  0  0  0  0  0  0  0  0
   23.9692  -19.6869  -13.3996 O   0  0  0  0  0  0  0  0  0  0  0  0
   21.6592  -20.8797   -9.1721 C   0  0  0  0  0  0  0  0  0  0  0  0
   21.0172  -21.4074   -8.0584 C   0  0  0  0  0  0  0  0  0  0  0  0
   24.7957  -21.8551  -13.6670 N   0  0  0  0  0  0  0  0  0  0  0  0
   25.3759  -21.7467  -14.9553 C   0  0  1  0  0  0  0  0  0  0  0  0
   26.6504  -22.5689  -15.1679 C   0  0  0  0  0  0  0  0  0  0  0  0
   27.2471  -22.2743  -16.5159 C   0  0  0  0  0  0  0  0  0  0  0  0
   28.5311  -23.0197  -16.7422 C   0  0  0  0  0  0  0  0  0  0  0  0
   29.2268  -22.6641  -18.0020 C   0  0  0  0  0  0  0  0  0  0  0  0
   30.3873  -23.4490  -18.3147 N   0  0  0  0  0  0  0  0  0  0  0  0
   24.5228  -21.7446  -16.1142 C   0  0  0  0  0  0  0  0  0  0  0  0
   23.5884  -22.6234  -16.1490 O   0  0  0  0  0  0  0  0  0  0  0  0
   20.2450  -19.8624  -22.2279 N   0  0  0  0  0  0  0  0  0  0  0  0
   20.1177  -18.6118  -21.5537 C   0  0  0  0  0  0  0  0  0  0  0  0
   18.9340  -18.0890  -21.4212 N   0  0  0  0  0  0  0  0  0  0  0  0
   21.2481  -17.9352  -21.0297 N   0  0  0  0  0  0  0  0  0  0  0  0
   22.5681  -18.5179  -21.0165 C   0  0  0  0  0  0  0  0  0  0  0  0
   22.5904  -19.8540  -20.2600 C   0  0  0  0  0  0  0  0  0  0  0  0
   23.5615  -19.7565  -19.1441 C   0  0  0  0  0  0  0  0  0  0  0  0
   23.6842  -20.9855  -18.2958 C   0  0  2  0  0  0  0  0  0  0  0  0
   24.6066  -20.8730  -17.2232 N   0  0  0  0  0  0  0  0  0  0  0  0
   24.0980  -22.1275  -19.1902 C   0  0  0  0  0  0  0  0  0  0  0  0
   23.1584  -23.0800  -19.5258 O   0  0  0  0  0  0  0  0  0  0  0  0
   25.2570  -22.2405  -19.6361 O   0  0  0  0  0  0  0  0  0  0  0  0
  2  1  1  0
  3  2  2  0
  4  3  1  0
  5 11  1  0
  5  4  2  0
  6  5  1  0
  7  6  1  0
  7  8  1  1
  9 13  1  0
  9  7  1  0
 10  9  2  0
 11 12  2  0
 12  2  1  0
 14 20  1  0
 14 13  1  0
 14 15  1  6
 16 15  1  0
 17 16  1  0
 18 17  1  0
 19 18  1  0
 20 30  1  0
 21 20  2  0
 23 25  1  0
 23 22  1  0
 24 23  2  0
 26 27  1  0
 26 25  1  0
 27 28  1  0
 29 31  1  0
 29 28  1  6
 30 29  1  0
 31 32  1  0
 33 31  2  0
M  END
$$$$
