YKR.pdb
     RDKit          3D

 33 33  0  0  1  0  0  0  0  0999 V2000
   27.8106  -13.7913  -27.1661 O   0  0  0  0  0  0  0  0  0  0  0  0
   27.3295  -13.2608  -25.9578 C   0  0  0  0  0  0  0  0  0  0  0  0
   28.1152  -12.2979  -25.3390 C   0  0  0  0  0  0  0  0  0  0  0  0
   27.6699  -11.7587  -24.1525 C   0  0  0  0  0  0  0  0  0  0  0  0
   26.4765  -12.1331  -23.5506 C   0  0  0  0  0  0  0  0  0  0  0  0
   26.0732  -11.5082  -22.2856 C   0  0  0  0  0  0  0  0  0  0  0  0
   26.7581  -12.1643  -21.1250 C   0  0  2  0  0  0  0  0  0  0  0  0
   26.2736  -13.4991  -20.9532 N   0  0  0  0  0  0  0  0  0  0  0  0
   26.5805  -11.3333  -19.8791 C   0  0  0  0  0  0  0  0  0  0  0  0
   25.6045  -11.6048  -19.1763 O   0  0  0  0  0  0  0  0  0  0  0  0
   25.7197  -13.0875  -24.1849 C   0  0  0  0  0  0  0  0  0  0  0  0
   26.1563  -13.6405  -25.3826 C   0  0  0  0  0  0  0  0  0  0  0  0
   27.5042  -10.3010  -19.5600 N   0  0  0  0  0  0  0  0  0  0  0  0
   27.3957   -9.3732  -18.4943 C   0  0  1  0  0  0  0  0  0  0  0  0
   28.6895   -8.6352  -18.1379 C   0  0  0  0  0  0  0  0  0  0  0  0
   29.7985   -9.6155  -17.8751 C   0  0  0  0  0  0  0  0  0  0  0  0
   31.1035   -8.9306  -17.5865 C   0  0  0  0  0  0  0  0  0  0  0  0
   32.2514   -9.8540  -17.4210 C   0  0  0  0  0  0  0  0  0  0  0  0
   33.5356   -9.2298  -17.2737 N   0  0  0  0  0  0  0  0  0  0  0  0
   26.2377   -8.5227  -18.4159 C   0  0  0  0  0  0  0  0  0  0  0  0
   25.9527   -7.8322  -19.4592 O   0  0  0  0  0  0  0  0  0  0  0  0
   19.3144   -8.0717  -22.0694 N   0  0  0  0  0  0  0  0  0  0  0  0
   18.9137   -7.4916  -20.8293 C   0  0  0  0  0  0  0  0  0  0  0  0
   17.6524   -7.2418  -20.6330 N   0  0  0  0  0  0  0  0  0  0  0  0
   19.8573   -7.1860  -19.8162 N   0  0  0  0  0  0  0  0  0  0  0  0
   21.1302   -7.8571  -19.7087 C   0  0  0  0  0  0  0  0  0  0  0  0
   21.9618   -7.3109  -18.5391 C   0  0  0  0  0  0  0  0  0  0  0  0
   23.2630   -8.0205  -18.5041 C   0  0  0  0  0  0  0  0  0  0  0  0
   24.1973   -7.5868  -17.4159 C   0  0  2  0  0  0  0  0  0  0  0  0
   25.3777   -8.3668  -17.3055 N   0  0  0  0  0  0  0  0  0  0  0  0
   23.4439   -7.6369  -16.1100 C   0  0  0  0  0  0  0  0  0  0  0  0
   23.8235   -8.5639  -15.1616 O   0  0  0  0  0  0  0  0  0  0  0  0
   22.4924   -6.8715  -15.8580 O   0  0  0  0  0  0  0  0  0  0  0  0
  2  1  1  0
  3  2  2  0
  4  3  1  0
  5 11  1  0
  5  4  2  0
  6  5  1  0
  7  6  1  0
  7  8  1  1
  9 13  1  0
  9  7  1  0
 10  9  2  0
 11 12  2  0
 12  2  1  0
 14 20  1  0
 14 13  1  0
 14 15  1  6
 16 15  1  0
 17 16  1  0
 18 17  1  0
 19 18  1  0
 20 30  1  0
 21 20  2  0
 23 25  1  0
 23 22  1  0
 24 23  2  0
 26 27  1  0
 26 25  1  0
 27 28  1  0
 29 31  1  0
 29 28  1  6
 30 29  1  0
 31 32  1  0
 33 31  2  0
M  END
$$$$
