YKR.pdb
     RDKit          3D

 33 33  0  0  1  0  0  0  0  0999 V2000
   28.3924  -19.7573   -4.3461 O   0  0  0  0  0  0  0  0  0  0  0  0
   28.0569  -19.7273   -5.7097 C   0  0  0  0  0  0  0  0  0  0  0  0
   26.8792  -20.3627   -6.0797 C   0  0  0  0  0  0  0  0  0  0  0  0
   26.5233  -20.3502   -7.4101 C   0  0  0  0  0  0  0  0  0  0  0  0
   27.2855  -19.7338   -8.3928 C   0  0  0  0  0  0  0  0  0  0  0  0
   26.8343  -19.7649   -9.7888 C   0  0  0  0  0  0  0  0  0  0  0  0
   27.0408  -21.1244  -10.3854 C   0  0  2  0  0  0  0  0  0  0  0  0
   28.4378  -21.3970  -10.5264 N   0  0  0  0  0  0  0  0  0  0  0  0
   26.3079  -21.2323  -11.6990 C   0  0  0  0  0  0  0  0  0  0  0  0
   26.8034  -20.6269  -12.6520 O   0  0  0  0  0  0  0  0  0  0  0  0
   28.4453  -19.1131   -7.9981 C   0  0  0  0  0  0  0  0  0  0  0  0
   28.8172  -19.1176   -6.6593 C   0  0  0  0  0  0  0  0  0  0  0  0
   25.1142  -21.9974  -11.8010 N   0  0  0  0  0  0  0  0  0  0  0  0
   24.3580  -22.2260  -12.9774 C   0  0  1  0  0  0  0  0  0  0  0  0
   23.8784  -23.6670  -13.1747 C   0  0  0  0  0  0  0  0  0  0  0  0
   23.6993  -23.9658  -14.6371 C   0  0  0  0  0  0  0  0  0  0  0  0
   24.9374  -24.5539  -15.2509 C   0  0  0  0  0  0  0  0  0  0  0  0
   24.8118  -24.8640  -16.6951 C   0  0  0  0  0  0  0  0  0  0  0  0
   26.0299  -25.2287  -17.3612 N   0  0  0  0  0  0  0  0  0  0  0  0
   23.3724  -21.2580  -13.3805 C   0  0  0  0  0  0  0  0  0  0  0  0
   22.5954  -20.8050  -12.4654 O   0  0  0  0  0  0  0  0  0  0  0  0
   21.7716  -17.0668  -19.9839 N   0  0  0  0  0  0  0  0  0  0  0  0
   20.5879  -17.8337  -19.7704 C   0  0  0  0  0  0  0  0  0  0  0  0
   19.4402  -17.3203  -20.1037 N   0  0  0  0  0  0  0  0  0  0  0  0
   20.6400  -19.1338  -19.2073 N   0  0  0  0  0  0  0  0  0  0  0  0
   21.8723  -19.7462  -18.7731 C   0  0  0  0  0  0  0  0  0  0  0  0
   21.7323  -20.3752  -17.3792 C   0  0  0  0  0  0  0  0  0  0  0  0
   22.0461  -19.3486  -16.3568 C   0  0  0  0  0  0  0  0  0  0  0  0
   22.1051  -19.8503  -14.9461 C   0  0  2  0  0  0  0  0  0  0  0  0
   23.1690  -20.7522  -14.6842 N   0  0  0  0  0  0  0  0  0  0  0  0
   20.7923  -20.5267  -14.6386 C   0  0  0  0  0  0  0  0  0  0  0  0
   19.6740  -19.7437  -14.4418 O   0  0  0  0  0  0  0  0  0  0  0  0
   20.6827  -21.7661  -14.5566 O   0  0  0  0  0  0  0  0  0  0  0  0
  2  1  1  0
  3  2  2  0
  4  3  1  0
  5 11  1  0
  5  4  2  0
  6  5  1  0
  7  6  1  0
  7  8  1  6
  9 13  1  0
  9  7  1  0
 10  9  2  0
 11 12  2  0
 12  2  1  0
 14 20  1  0
 14 13  1  0
 14 15  1  1
 16 15  1  0
 17 16  1  0
 18 17  1  0
 19 18  1  0
 20 30  1  0
 21 20  2  0
 23 25  1  0
 23 22  1  0
 24 23  2  0
 26 27  1  0
 26 25  1  0
 27 28  1  0
 29 31  1  0
 29 28  1  6
 30 29  1  0
 31 32  1  0
 33 31  2  0
M  END
$$$$
