YKR.pdb
     RDKit          3D

 33 33  0  0  1  0  0  0  0  0999 V2000
   15.2320  -22.4022  -12.0783 O   0  0  0  0  0  0  0  0  0  0  0  0
   16.4414  -22.3302  -12.7889 C   0  0  0  0  0  0  0  0  0  0  0  0
   16.7141  -21.1362  -13.4428 C   0  0  0  0  0  0  0  0  0  0  0  0
   17.8927  -21.0349  -14.1481 C   0  0  0  0  0  0  0  0  0  0  0  0
   18.8157  -22.0680  -14.2340 C   0  0  0  0  0  0  0  0  0  0  0  0
   20.0495  -21.8781  -15.0055 C   0  0  0  0  0  0  0  0  0  0  0  0
   21.2560  -22.0947  -14.1429 C   0  0  2  0  0  0  0  0  0  0  0  0
   21.3450  -21.0705  -13.1485 N   0  0  0  0  0  0  0  0  0  0  0  0
   22.4982  -22.1653  -14.9951 C   0  0  0  0  0  0  0  0  0  0  0  0
   23.0917  -21.1013  -15.1843 O   0  0  0  0  0  0  0  0  0  0  0  0
   18.5199  -23.2374  -13.5773 C   0  0  0  0  0  0  0  0  0  0  0  0
   17.3345  -23.3541  -12.8617 C   0  0  0  0  0  0  0  0  0  0  0  0
   22.9353  -23.4051  -15.5360 N   0  0  0  0  0  0  0  0  0  0  0  0
   24.0717  -23.6123  -16.3568 C   0  0  1  0  0  0  0  0  0  0  0  0
   24.4474  -25.0782  -16.5926 C   0  0  0  0  0  0  0  0  0  0  0  0
   25.7096  -25.1734  -17.4036 C   0  0  0  0  0  0  0  0  0  0  0  0
   26.9283  -25.3239  -16.5391 C   0  0  0  0  0  0  0  0  0  0  0  0
   28.2065  -25.3521  -17.2895 C   0  0  0  0  0  0  0  0  0  0  0  0
   29.3891  -25.5368  -16.4971 N   0  0  0  0  0  0  0  0  0  0  0  0
   24.2476  -22.8032  -17.5337 C   0  0  0  0  0  0  0  0  0  0  0  0
   23.2154  -22.6233  -18.2744 O   0  0  0  0  0  0  0  0  0  0  0  0
   28.1717  -15.2039  -19.2964 N   0  0  0  0  0  0  0  0  0  0  0  0
   26.8198  -15.4055  -19.7044 C   0  0  0  0  0  0  0  0  0  0  0  0
   26.0519  -14.3677  -19.8634 N   0  0  0  0  0  0  0  0  0  0  0  0
   26.3034  -16.7050  -19.9381 N   0  0  0  0  0  0  0  0  0  0  0  0
   27.0783  -17.9025  -19.7195 C   0  0  0  0  0  0  0  0  0  0  0  0
   26.2846  -19.1656  -20.0839 C   0  0  0  0  0  0  0  0  0  0  0  0
   26.2109  -20.0451  -18.8928 C   0  0  0  0  0  0  0  0  0  0  0  0
   25.4396  -21.3154  -19.0844 C   0  0  2  0  0  0  0  0  0  0  0  0
   25.4433  -22.1834  -17.9617 N   0  0  0  0  0  0  0  0  0  0  0  0
   26.0225  -22.0376  -20.2736 C   0  0  0  0  0  0  0  0  0  0  0  0
   25.5662  -21.7134  -21.5342 O   0  0  0  0  0  0  0  0  0  0  0  0
   26.9006  -22.9152  -20.1574 O   0  0  0  0  0  0  0  0  0  0  0  0
  2  1  1  0
  3  2  2  0
  4  3  1  0
  5 11  1  0
  5  4  2  0
  6  5  1  0
  7  6  1  0
  7  8  1  1
  9 13  1  0
  9  7  1  0
 10  9  2  0
 11 12  2  0
 12  2  1  0
 14 20  1  0
 14 13  1  0
 14 15  1  6
 16 15  1  0
 17 16  1  0
 18 17  1  0
 19 18  1  0
 20 30  1  0
 21 20  2  0
 23 25  1  0
 23 22  1  0
 24 23  2  0
 26 27  1  0
 26 25  1  0
 27 28  1  0
 29 31  1  0
 29 28  1  1
 30 29  1  0
 31 32  1  0
 33 31  2  0
M  END
$$$$
