YKR.pdb
     RDKit          3D

 33 33  0  0  1  0  0  0  0  0999 V2000
   24.6804  -33.1935  -17.6753 O   0  0  0  0  0  0  0  0  0  0  0  0
   24.3891  -31.9056  -17.1966 C   0  0  0  0  0  0  0  0  0  0  0  0
   24.8102  -30.8368  -17.9764 C   0  0  0  0  0  0  0  0  0  0  0  0
   24.5389  -29.5613  -17.5334 C   0  0  0  0  0  0  0  0  0  0  0  0
   23.8667  -29.2977  -16.3480 C   0  0  0  0  0  0  0  0  0  0  0  0
   23.6161  -27.9081  -15.9482 C   0  0  0  0  0  0  0  0  0  0  0  0
   22.2356  -27.4801  -16.3452 C   0  0  2  0  0  0  0  0  0  0  0  0
   22.1531  -27.3261  -17.7648 N   0  0  0  0  0  0  0  0  0  0  0  0
   21.8532  -26.2167  -15.6159 C   0  0  0  0  0  0  0  0  0  0  0  0
   21.9397  -26.2486  -14.3864 O   0  0  0  0  0  0  0  0  0  0  0  0
   23.4619  -30.3738  -15.5969 C   0  0  0  0  0  0  0  0  0  0  0  0
   23.7285  -31.6665  -16.0313 C   0  0  0  0  0  0  0  0  0  0  0  0
   21.4208  -25.0689  -16.3345 N   0  0  0  0  0  0  0  0  0  0  0  0
   20.9117  -23.8691  -15.7783 C   0  0  1  0  0  0  0  0  0  0  0  0
   21.1458  -22.6101  -16.6183 C   0  0  0  0  0  0  0  0  0  0  0  0
   22.5980  -22.4866  -16.9868 C   0  0  0  0  0  0  0  0  0  0  0  0
   22.8553  -21.3158  -17.8915 C   0  0  0  0  0  0  0  0  0  0  0  0
   24.2839  -21.1116  -18.2304 C   0  0  0  0  0  0  0  0  0  0  0  0
   24.5790  -19.9354  -18.9985 N   0  0  0  0  0  0  0  0  0  0  0  0
   19.6176  -23.8779  -15.1490 C   0  0  0  0  0  0  0  0  0  0  0  0
   18.6507  -24.3931  -15.8168 O   0  0  0  0  0  0  0  0  0  0  0  0
   18.8978  -24.2171   -7.3433 N   0  0  0  0  0  0  0  0  0  0  0  0
   17.9085  -24.9786   -8.0333 C   0  0  0  0  0  0  0  0  0  0  0  0
   17.2578  -25.8973   -7.3817 N   0  0  0  0  0  0  0  0  0  0  0  0
   17.6241  -24.7534   -9.4039 N   0  0  0  0  0  0  0  0  0  0  0  0
   16.5353  -23.9163   -9.8465 C   0  0  0  0  0  0  0  0  0  0  0  0
   16.4832  -23.8168  -11.3780 C   0  0  0  0  0  0  0  0  0  0  0  0
   17.8608  -23.6307  -11.8930 C   0  0  0  0  0  0  0  0  0  0  0  0
   17.9687  -23.4536  -13.3769 C   0  0  2  0  0  0  0  0  0  0  0  0
   19.2982  -23.3760  -13.8672 N   0  0  0  0  0  0  0  0  0  0  0  0
   17.2268  -22.1941  -13.7493 C   0  0  0  0  0  0  0  0  0  0  0  0
   17.9528  -21.0511  -14.0126 O   0  0  0  0  0  0  0  0  0  0  0  0
   15.9832  -22.1498  -13.8276 O   0  0  0  0  0  0  0  0  0  0  0  0
  2  1  1  0
  3  2  2  0
  4  3  1  0
  5 11  1  0
  5  4  2  0
  6  5  1  0
  7  6  1  0
  7  8  1  6
  9 13  1  0
  9  7  1  0
 10  9  2  0
 11 12  2  0
 12  2  1  0
 14 20  1  0
 14 13  1  0
 14 15  1  6
 16 15  1  0
 17 16  1  0
 18 17  1  0
 19 18  1  0
 20 30  1  0
 21 20  2  0
 23 25  1  0
 23 22  1  0
 24 23  2  0
 26 27  1  0
 26 25  1  0
 27 28  1  0
 29 31  1  0
 29 28  1  1
 30 29  1  0
 31 32  1  0
 33 31  2  0
M  END
$$$$
