YKR.pdb
     RDKit          3D

 33 33  0  0  1  0  0  0  0  0999 V2000
   30.8176  -16.4566  -19.0907 O   0  0  0  0  0  0  0  0  0  0  0  0
   29.6688  -16.8497  -18.3847 C   0  0  0  0  0  0  0  0  0  0  0  0
   28.4618  -16.3004  -18.7958 C   0  0  0  0  0  0  0  0  0  0  0  0
   27.3173  -16.6667  -18.1230 C   0  0  0  0  0  0  0  0  0  0  0  0
   27.3165  -17.5562  -17.0575 C   0  0  0  0  0  0  0  0  0  0  0  0
   26.0518  -17.8955  -16.3949 C   0  0  0  0  0  0  0  0  0  0  0  0
   25.8776  -19.3817  -16.3084 C   0  0  2  0  0  0  0  0  0  0  0  0
   25.8021  -19.9493  -17.6191 N   0  0  0  0  0  0  0  0  0  0  0  0
   24.6646  -19.7152  -15.4767 C   0  0  0  0  0  0  0  0  0  0  0  0
   23.6051  -19.8604  -16.0903 O   0  0  0  0  0  0  0  0  0  0  0  0
   28.5245  -18.0840  -16.6724 C   0  0  0  0  0  0  0  0  0  0  0  0
   29.6876  -17.7236  -17.3420 C   0  0  0  0  0  0  0  0  0  0  0  0
   24.7691  -19.8483  -14.0653 N   0  0  0  0  0  0  0  0  0  0  0  0
   23.6984  -20.0264  -13.1543 C   0  0  1  0  0  0  0  0  0  0  0  0
   24.1117  -20.2282  -11.6934 C   0  0  0  0  0  0  0  0  0  0  0  0
   22.9199  -20.6019  -10.8568 C   0  0  0  0  0  0  0  0  0  0  0  0
   23.2978  -20.9022   -9.4348 C   0  0  0  0  0  0  0  0  0  0  0  0
   22.1767  -21.3935   -8.5984 C   0  0  0  0  0  0  0  0  0  0  0  0
   22.4923  -21.6455   -7.2209 N   0  0  0  0  0  0  0  0  0  0  0  0
   22.5194  -19.2118  -13.2849 C   0  0  0  0  0  0  0  0  0  0  0  0
   22.6542  -17.9552  -13.0628 O   0  0  0  0  0  0  0  0  0  0  0  0
   15.1917  -17.6521  -15.4504 N   0  0  0  0  0  0  0  0  0  0  0  0
   15.6608  -16.5150  -16.1728 C   0  0  0  0  0  0  0  0  0  0  0  0
   14.8887  -15.4728  -16.2709 N   0  0  0  0  0  0  0  0  0  0  0  0
   16.9421  -16.5007  -16.7795 N   0  0  0  0  0  0  0  0  0  0  0  0
   17.9091  -17.5536  -16.5831 C   0  0  0  0  0  0  0  0  0  0  0  0
   18.4560  -17.5605  -15.1482 C   0  0  0  0  0  0  0  0  0  0  0  0
   19.5679  -18.5374  -15.0641 C   0  0  0  0  0  0  0  0  0  0  0  0
   20.1444  -18.7316  -13.6948 C   0  0  2  0  0  0  0  0  0  0  0  0
   21.2226  -19.6522  -13.6331 N   0  0  0  0  0  0  0  0  0  0  0  0
   19.0356  -19.2025  -12.7868 C   0  0  0  0  0  0  0  0  0  0  0  0
   18.2737  -18.2599  -12.1282 O   0  0  0  0  0  0  0  0  0  0  0  0
   18.7840  -20.4110  -12.6111 O   0  0  0  0  0  0  0  0  0  0  0  0
  2  1  1  0
  3  2  2  0
  4  3  1  0
  5 11  1  0
  5  4  2  0
  6  5  1  0
  7  6  1  0
  7  8  1  6
  9 13  1  0
  9  7  1  0
 10  9  2  0
 11 12  2  0
 12  2  1  0
 14 20  1  0
 14 13  1  0
 14 15  1  1
 16 15  1  0
 17 16  1  0
 18 17  1  0
 19 18  1  0
 20 30  1  0
 21 20  2  0
 23 25  1  0
 23 22  1  0
 24 23  2  0
 26 27  1  0
 26 25  1  0
 27 28  1  0
 29 31  1  0
 29 28  1  6
 30 29  1  0
 31 32  1  0
 33 31  2  0
M  END
$$$$
