YKR.pdb
     RDKit          3D

 33 33  0  0  1  0  0  0  0  0999 V2000
   25.6215  -11.8109  -18.1200 O   0  0  0  0  0  0  0  0  0  0  0  0
   25.5196  -13.0663  -17.4986 C   0  0  0  0  0  0  0  0  0  0  0  0
   26.4264  -13.3386  -16.4832 C   0  0  0  0  0  0  0  0  0  0  0  0
   26.3515  -14.5617  -15.8545 C   0  0  0  0  0  0  0  0  0  0  0  0
   25.4146  -15.5296  -16.1889 C   0  0  0  0  0  0  0  0  0  0  0  0
   25.4010  -16.8078  -15.4682 C   0  0  0  0  0  0  0  0  0  0  0  0
   26.3820  -17.7688  -16.0691 C   0  0  2  0  0  0  0  0  0  0  0  0
   25.9619  -18.1501  -17.3821 N   0  0  0  0  0  0  0  0  0  0  0  0
   26.5621  -18.9615  -15.1640 C   0  0  0  0  0  0  0  0  0  0  0  0
   25.6352  -19.7742  -15.1409 O   0  0  0  0  0  0  0  0  0  0  0  0
   24.5302  -15.2331  -17.1969 C   0  0  0  0  0  0  0  0  0  0  0  0
   24.5938  -14.0031  -17.8403 C   0  0  0  0  0  0  0  0  0  0  0  0
   27.7466  -19.1124  -14.3927 N   0  0  0  0  0  0  0  0  0  0  0  0
   27.9287  -19.9839  -13.2902 C   0  0  1  0  0  0  0  0  0  0  0  0
   29.3580  -20.0554  -12.7446 C   0  0  0  0  0  0  0  0  0  0  0  0
   29.4575  -21.0986  -11.6667 C   0  0  0  0  0  0  0  0  0  0  0  0
   30.8428  -21.1915  -11.0944 C   0  0  0  0  0  0  0  0  0  0  0  0
   31.0292  -22.3017  -10.1298 C   0  0  0  0  0  0  0  0  0  0  0  0
   32.3654  -22.4796   -9.6366 N   0  0  0  0  0  0  0  0  0  0  0  0
   26.9390  -20.0153  -12.2461 C   0  0  0  0  0  0  0  0  0  0  0  0
   26.7457  -18.9259  -11.5962 O   0  0  0  0  0  0  0  0  0  0  0  0
   19.4657  -20.7230  -13.1954 N   0  0  0  0  0  0  0  0  0  0  0  0
   19.2847  -20.4283  -11.8115 C   0  0  0  0  0  0  0  0  0  0  0  0
   18.2777  -19.6860  -11.4555 N   0  0  0  0  0  0  0  0  0  0  0  0
   20.1744  -20.9263  -10.8264 N   0  0  0  0  0  0  0  0  0  0  0  0
   21.3794  -21.6478  -11.1577 C   0  0  0  0  0  0  0  0  0  0  0  0
   22.6374  -20.8686  -10.7476 C   0  0  0  0  0  0  0  0  0  0  0  0
   23.8331  -21.6067  -11.2200 C   0  0  0  0  0  0  0  0  0  0  0  0
   25.1488  -20.9821  -10.8678 C   0  0  2  0  0  0  0  0  0  0  0  0
   26.1544  -21.1249  -11.8590 N   0  0  0  0  0  0  0  0  0  0  0  0
   25.6280  -21.6041   -9.5798 C   0  0  0  0  0  0  0  0  0  0  0  0
   25.0432  -21.2075   -8.3951 O   0  0  0  0  0  0  0  0  0  0  0  0
   26.5319  -22.4624   -9.5482 O   0  0  0  0  0  0  0  0  0  0  0  0
  2  1  1  0
  3  2  2  0
  4  3  1  0
  5 11  1  0
  5  4  2  0
  6  5  1  0
  7  6  1  0
  7  8  1  6
  9 13  1  0
  9  7  1  0
 10  9  2  0
 11 12  2  0
 12  2  1  0
 14 20  1  0
 14 13  1  0
 14 15  1  1
 16 15  1  0
 17 16  1  0
 18 17  1  0
 19 18  1  0
 20 30  1  0
 21 20  2  0
 23 25  1  0
 23 22  1  0
 24 23  2  0
 26 27  1  0
 26 25  1  0
 27 28  1  0
 29 31  1  0
 29 28  1  6
 30 29  1  0
 31 32  1  0
 33 31  2  0
M  END
$$$$
