YKR.pdb
     RDKit          3D

 33 33  0  0  1  0  0  0  0  0999 V2000
   17.5662  -24.4161  -14.9021 O   0  0  0  0  0  0  0  0  0  0  0  0
   18.5707  -23.5287  -14.4822 C   0  0  0  0  0  0  0  0  0  0  0  0
   19.8435  -24.0571  -14.3136 C   0  0  0  0  0  0  0  0  0  0  0  0
   20.8499  -23.2116  -13.9026 C   0  0  0  0  0  0  0  0  0  0  0  0
   20.6498  -21.8614  -13.6507 C   0  0  0  0  0  0  0  0  0  0  0  0
   21.7771  -21.0281  -13.2169 C   0  0  0  0  0  0  0  0  0  0  0  0
   22.1435  -21.3258  -11.7943 C   0  0  2  0  0  0  0  0  0  0  0  0
   21.0779  -20.9478  -10.9182 N   0  0  0  0  0  0  0  0  0  0  0  0
   23.4392  -20.6418  -11.4372 C   0  0  0  0  0  0  0  0  0  0  0  0
   23.3672  -19.4396  -11.1732 O   0  0  0  0  0  0  0  0  0  0  0  0
   19.3809  -21.3660  -13.8257 C   0  0  0  0  0  0  0  0  0  0  0  0
   18.3554  -22.2072  -14.2400 C   0  0  0  0  0  0  0  0  0  0  0  0
   24.6598  -21.3700  -11.4150 N   0  0  0  0  0  0  0  0  0  0  0  0
   25.9521  -20.8567  -11.6881 C   0  0  1  0  0  0  0  0  0  0  0  0
   27.1149  -21.7065  -11.1673 C   0  0  0  0  0  0  0  0  0  0  0  0
   28.4267  -21.0225  -11.4343 C   0  0  0  0  0  0  0  0  0  0  0  0
   29.5986  -21.8558  -11.0011 C   0  0  0  0  0  0  0  0  0  0  0  0
   30.9169  -21.2188  -11.2338 C   0  0  0  0  0  0  0  0  0  0  0  0
   32.0605  -22.0002  -10.8570 N   0  0  0  0  0  0  0  0  0  0  0  0
   26.2243  -20.2847  -12.9802 C   0  0  0  0  0  0  0  0  0  0  0  0
   25.9690  -21.0150  -14.0040 O   0  0  0  0  0  0  0  0  0  0  0  0
   25.4793  -14.3825  -18.2640 N   0  0  0  0  0  0  0  0  0  0  0  0
   25.0844  -13.8752  -16.9906 C   0  0  0  0  0  0  0  0  0  0  0  0
   24.0011  -13.1599  -16.9097 N   0  0  0  0  0  0  0  0  0  0  0  0
   25.8446  -14.1352  -15.8224 N   0  0  0  0  0  0  0  0  0  0  0  0
   27.0946  -14.8555  -15.8502 C   0  0  0  0  0  0  0  0  0  0  0  0
   26.8731  -16.3709  -15.9619 C   0  0  0  0  0  0  0  0  0  0  0  0
   26.8714  -16.9564  -14.5999 C   0  0  0  0  0  0  0  0  0  0  0  0
   26.6590  -18.4385  -14.5427 C   0  0  2  0  0  0  0  0  0  0  0  0
   26.7461  -18.9977  -13.2414 N   0  0  0  0  0  0  0  0  0  0  0  0
   27.6873  -19.0896  -15.4339 C   0  0  0  0  0  0  0  0  0  0  0  0
   27.3431  -19.3840  -16.7368 O   0  0  0  0  0  0  0  0  0  0  0  0
   28.8349  -19.3701  -15.0353 O   0  0  0  0  0  0  0  0  0  0  0  0
  2  1  1  0
  3  2  2  0
  4  3  1  0
  5 11  1  0
  5  4  2  0
  6  5  1  0
  7  6  1  0
  7  8  1  1
  9 13  1  0
  9  7  1  0
 10  9  2  0
 11 12  2  0
 12  2  1  0
 14 20  1  0
 14 13  1  0
 14 15  1  6
 16 15  1  0
 17 16  1  0
 18 17  1  0
 19 18  1  0
 20 30  1  0
 21 20  2  0
 23 25  1  0
 23 22  1  0
 24 23  2  0
 26 27  1  0
 26 25  1  0
 27 28  1  0
 29 31  1  0
 29 28  1  1
 30 29  1  0
 31 32  1  0
 33 31  2  0
M  END
$$$$
