YKR.pdb
     RDKit          3D

 33 33  0  0  1  0  0  0  0  0999 V2000
   30.6524  -16.0764  -19.4745 O   0  0  0  0  0  0  0  0  0  0  0  0
   29.6825  -16.7075  -18.6785 C   0  0  0  0  0  0  0  0  0  0  0  0
   28.5643  -17.2081  -19.3318 C   0  0  0  0  0  0  0  0  0  0  0  0
   27.5955  -17.8326  -18.5781 C   0  0  0  0  0  0  0  0  0  0  0  0
   27.6864  -17.9834  -17.2014 C   0  0  0  0  0  0  0  0  0  0  0  0
   26.6099  -18.6635  -16.4720 C   0  0  0  0  0  0  0  0  0  0  0  0
   27.0709  -19.9951  -15.9611 C   0  0  2  0  0  0  0  0  0  0  0  0
   27.4274  -20.8485  -17.0522 N   0  0  0  0  0  0  0  0  0  0  0  0
   26.0098  -20.6112  -15.0844 C   0  0  0  0  0  0  0  0  0  0  0  0
   25.1795  -21.3247  -15.6515 O   0  0  0  0  0  0  0  0  0  0  0  0
   28.8033  -17.4787  -16.5816 C   0  0  0  0  0  0  0  0  0  0  0  0
   29.7890  -16.8460  -17.3292 C   0  0  0  0  0  0  0  0  0  0  0  0
   25.9944  -20.3640  -13.6846 N   0  0  0  0  0  0  0  0  0  0  0  0
   24.9947  -20.7739  -12.7677 C   0  0  1  0  0  0  0  0  0  0  0  0
   25.3146  -20.5107  -11.2932 C   0  0  0  0  0  0  0  0  0  0  0  0
   24.2045  -21.0184  -10.4158 C   0  0  0  0  0  0  0  0  0  0  0  0
   24.4727  -20.7659   -8.9599 C   0  0  0  0  0  0  0  0  0  0  0  0
   23.4187  -21.2750   -8.0502 C   0  0  0  0  0  0  0  0  0  0  0  0
   23.5919  -20.9613   -6.6602 N   0  0  0  0  0  0  0  0  0  0  0  0
   23.6107  -20.5356  -13.0814 C   0  0  0  0  0  0  0  0  0  0  0  0
   23.2639  -19.3180  -13.2900 O   0  0  0  0  0  0  0  0  0  0  0  0
   17.0588  -24.7471  -17.3905 N   0  0  0  0  0  0  0  0  0  0  0  0
   16.5869  -23.4375  -17.0789 C   0  0  0  0  0  0  0  0  0  0  0  0
   15.4369  -23.0568  -17.5526 N   0  0  0  0  0  0  0  0  0  0  0  0
   17.3420  -22.5520  -16.2690 N   0  0  0  0  0  0  0  0  0  0  0  0
   18.6171  -22.9135  -15.6985 C   0  0  0  0  0  0  0  0  0  0  0  0
   19.1992  -21.7768  -14.8457 C   0  0  0  0  0  0  0  0  0  0  0  0
   20.5489  -22.1723  -14.3773 C   0  0  0  0  0  0  0  0  0  0  0  0
   21.2805  -21.1308  -13.5867 C   0  0  2  0  0  0  0  0  0  0  0  0
   22.5885  -21.5060  -13.1837 N   0  0  0  0  0  0  0  0  0  0  0  0
   20.4559  -20.8114  -12.3646 C   0  0  0  0  0  0  0  0  0  0  0  0
   19.4912  -19.8296  -12.4548 O   0  0  0  0  0  0  0  0  0  0  0  0
   20.6151  -21.4024  -11.2783 O   0  0  0  0  0  0  0  0  0  0  0  0
  2  1  1  0
  3  2  2  0
  4  3  1  0
  5 11  1  0
  5  4  2  0
  6  5  1  0
  7  6  1  0
  7  8  1  6
  9 13  1  0
  9  7  1  0
 10  9  2  0
 11 12  2  0
 12  2  1  0
 14 20  1  0
 14 13  1  0
 14 15  1  1
 16 15  1  0
 17 16  1  0
 18 17  1  0
 19 18  1  0
 20 30  1  0
 21 20  2  0
 23 25  1  0
 23 22  1  0
 24 23  2  0
 26 27  1  0
 26 25  1  0
 27 28  1  0
 29 31  1  0
 29 28  1  1
 30 29  1  0
 31 32  1  0
 33 31  2  0
M  END
$$$$
