YKR.pdb
     RDKit          3D

 33 33  0  0  1  0  0  0  0  0999 V2000
   21.7334   -2.2317  -13.4311 O   0  0  0  0  0  0  0  0  0  0  0  0
   21.9682   -3.3263  -14.2794 C   0  0  0  0  0  0  0  0  0  0  0  0
   22.0930   -4.5709  -13.6768 C   0  0  0  0  0  0  0  0  0  0  0  0
   22.3236   -5.6638  -14.4825 C   0  0  0  0  0  0  0  0  0  0  0  0
   22.4362   -5.5772  -15.8632 C   0  0  0  0  0  0  0  0  0  0  0  0
   22.6810   -6.7915  -16.6500 C   0  0  0  0  0  0  0  0  0  0  0  0
   24.1503   -7.0651  -16.7643 C   0  0  2  0  0  0  0  0  0  0  0  0
   24.7888   -6.0359  -17.5252 N   0  0  0  0  0  0  0  0  0  0  0  0
   24.3797   -8.4324  -17.3578 C   0  0  0  0  0  0  0  0  0  0  0  0
   24.2785   -8.5196  -18.5835 O   0  0  0  0  0  0  0  0  0  0  0  0
   22.3085   -4.3337  -16.4321 C   0  0  0  0  0  0  0  0  0  0  0  0
   22.0756   -3.2219  -15.6318 C   0  0  0  0  0  0  0  0  0  0  0  0
   24.6937   -9.5400  -16.5238 N   0  0  0  0  0  0  0  0  0  0  0  0
   24.8641  -10.8845  -16.9376 C   0  0  1  0  0  0  0  0  0  0  0  0
   25.7427  -11.7423  -16.0222 C   0  0  0  0  0  0  0  0  0  0  0  0
   25.9773  -13.0947  -16.6352 C   0  0  0  0  0  0  0  0  0  0  0  0
   26.9707  -13.9061  -15.8542 C   0  0  0  0  0  0  0  0  0  0  0  0
   27.3673  -15.1760  -16.5084 C   0  0  0  0  0  0  0  0  0  0  0  0
   28.3719  -15.9404  -15.8252 N   0  0  0  0  0  0  0  0  0  0  0  0
   23.7347  -11.6110  -17.4548 C   0  0  0  0  0  0  0  0  0  0  0  0
   22.6763  -11.6318  -16.7298 O   0  0  0  0  0  0  0  0  0  0  0  0
   20.7640  -14.6858  -25.3514 N   0  0  0  0  0  0  0  0  0  0  0  0
   19.7700  -14.9956  -24.3763 C   0  0  0  0  0  0  0  0  0  0  0  0
   18.6460  -15.5175  -24.7714 N   0  0  0  0  0  0  0  0  0  0  0  0
   19.9840  -14.7476  -22.9969 N   0  0  0  0  0  0  0  0  0  0  0  0
   21.2151  -14.1945  -22.4863 C   0  0  0  0  0  0  0  0  0  0  0  0
   21.1310  -13.9215  -20.9775 C   0  0  0  0  0  0  0  0  0  0  0  0
   22.4226  -13.3550  -20.5206 C   0  0  0  0  0  0  0  0  0  0  0  0
   22.4681  -12.9525  -19.0780 C   0  0  2  0  0  0  0  0  0  0  0  0
   23.6687  -12.3075  -18.6825 N   0  0  0  0  0  0  0  0  0  0  0  0
   22.2718  -14.1936  -18.2434 C   0  0  0  0  0  0  0  0  0  0  0  0
   21.0044  -14.4919  -17.7880 O   0  0  0  0  0  0  0  0  0  0  0  0
   23.2128  -14.9579  -17.9514 O   0  0  0  0  0  0  0  0  0  0  0  0
  2  1  1  0
  3  2  2  0
  4  3  1  0
  5 11  1  0
  5  4  2  0
  6  5  1  0
  7  6  1  0
  7  8  1  6
  9 13  1  0
  9  7  1  0
 10  9  2  0
 11 12  2  0
 12  2  1  0
 14 20  1  0
 14 13  1  0
 14 15  1  1
 16 15  1  0
 17 16  1  0
 18 17  1  0
 19 18  1  0
 20 30  1  0
 21 20  2  0
 23 25  1  0
 23 22  1  0
 24 23  2  0
 26 27  1  0
 26 25  1  0
 27 28  1  0
 29 31  1  0
 29 28  1  6
 30 29  1  0
 31 32  1  0
 33 31  2  0
M  END
$$$$
