YKR.pdb
     RDKit          3D

 33 33  0  0  1  0  0  0  0  0999 V2000
   23.9333  -21.5981   -8.1422 O   0  0  0  0  0  0  0  0  0  0  0  0
   24.3431  -21.1845   -9.4204 C   0  0  0  0  0  0  0  0  0  0  0  0
   23.3999  -20.5272  -10.1990 C   0  0  0  0  0  0  0  0  0  0  0  0
   23.7720  -20.1092  -11.4574 C   0  0  0  0  0  0  0  0  0  0  0  0
   25.0415  -20.3147  -11.9797 C   0  0  0  0  0  0  0  0  0  0  0  0
   25.3579  -19.8361  -13.3303 C   0  0  0  0  0  0  0  0  0  0  0  0
   24.4481  -20.4617  -14.3441 C   0  0  2  0  0  0  0  0  0  0  0  0
   24.5758  -21.8860  -14.3129 N   0  0  0  0  0  0  0  0  0  0  0  0
   24.7308  -19.8982  -15.7141 C   0  0  0  0  0  0  0  0  0  0  0  0
   24.8498  -18.6732  -15.7865 O   0  0  0  0  0  0  0  0  0  0  0  0
   25.9540  -20.9674  -11.1875 C   0  0  0  0  0  0  0  0  0  0  0  0
   25.5928  -21.3948   -9.9157 C   0  0  0  0  0  0  0  0  0  0  0  0
   24.8481  -20.7578  -16.8401 N   0  0  0  0  0  0  0  0  0  0  0  0
   25.0645  -20.3617  -18.1834 C   0  0  1  0  0  0  0  0  0  0  0  0
   25.9154  -21.3236  -19.0179 C   0  0  0  0  0  0  0  0  0  0  0  0
   27.2370  -20.6943  -19.3603 C   0  0  0  0  0  0  0  0  0  0  0  0
   27.3946  -20.4758  -20.8377 C   0  0  0  0  0  0  0  0  0  0  0  0
   28.7236  -19.9542  -21.2370 C   0  0  0  0  0  0  0  0  0  0  0  0
   28.9361  -19.8087  -22.6492 N   0  0  0  0  0  0  0  0  0  0  0  0
   23.9756  -19.7966  -18.9354 C   0  0  0  0  0  0  0  0  0  0  0  0
   22.9245  -20.5204  -19.0685 O   0  0  0  0  0  0  0  0  0  0  0  0
   18.2417  -15.1411  -16.3919 N   0  0  0  0  0  0  0  0  0  0  0  0
   19.0338  -16.3272  -16.3704 C   0  0  0  0  0  0  0  0  0  0  0  0
   19.0358  -17.0598  -15.2956 N   0  0  0  0  0  0  0  0  0  0  0  0
   19.8112  -16.7183  -17.4897 N   0  0  0  0  0  0  0  0  0  0  0  0
   19.8304  -15.9717  -18.7243 C   0  0  0  0  0  0  0  0  0  0  0  0
   20.6399  -16.6940  -19.8110 C   0  0  0  0  0  0  0  0  0  0  0  0
   21.8571  -17.2746  -19.1952 C   0  0  0  0  0  0  0  0  0  0  0  0
   22.7434  -18.0385  -20.1312 C   0  0  2  0  0  0  0  0  0  0  0  0
   23.9422  -18.5227  -19.5461 N   0  0  0  0  0  0  0  0  0  0  0  0
   23.0849  -17.1340  -21.2891 C   0  0  0  0  0  0  0  0  0  0  0  0
   22.0563  -16.5656  -22.0113 O   0  0  0  0  0  0  0  0  0  0  0  0
   24.2617  -16.8823  -21.6156 O   0  0  0  0  0  0  0  0  0  0  0  0
  2  1  1  0
  3  2  2  0
  4  3  1  0
  5 11  1  0
  5  4  2  0
  6  5  1  0
  7  6  1  0
  7  8  1  6
  9 13  1  0
  9  7  1  0
 10  9  2  0
 11 12  2  0
 12  2  1  0
 14 20  1  0
 14 13  1  0
 14 15  1  6
 16 15  1  0
 17 16  1  0
 18 17  1  0
 19 18  1  0
 20 30  1  0
 21 20  2  0
 23 25  1  0
 23 22  1  0
 24 23  2  0
 26 27  1  0
 26 25  1  0
 27 28  1  0
 29 31  1  0
 29 28  1  1
 30 29  1  0
 31 32  1  0
 33 31  2  0
M  END
$$$$
