MAL.pdb
     RDKit          3D

 22 21  0  0  1  0  0  0  0  0999 V2000
    8.4527  -19.6800   26.3487 C   0  0  0  0  0  0  0  0  0  0  0  0
    8.6379  -20.9480   25.1017 S   0  0  0  0  0  0  0  0  0  0  0  0
    8.7376  -20.4178   23.4243 C   0  0  0  0  0  0  0  0  0  0  0  0
    8.1604  -19.1010   23.1158 C   0  0  0  0  0  0  0  0  0  0  0  0
    8.1773  -18.6385   21.7199 C   0  0  2  0  0  0  0  0  0  0  0  0
    9.0683  -19.3980   20.8894 N   0  0  0  0  0  0  0  0  0  0  0  0
    8.5638  -17.1842   21.6073 C   0  0  0  0  0  0  0  0  0  0  0  0
    9.7725  -16.8805   21.5971 O   0  0  0  0  0  0  0  0  0  0  0  0
    6.6817  -14.0336   20.9342 C   0  0  0  0  0  0  0  0  0  0  0  0
    7.9339  -14.7433   21.4181 C   0  0  2  0  0  0  0  0  0  0  0  0
    7.6128  -16.1450   21.5120 N   0  0  0  0  0  0  0  0  0  0  0  0
    8.3070  -14.1452   22.7017 C   0  0  0  0  0  0  0  0  0  0  0  0
    8.7907  -12.9965   22.7438 O   0  0  0  0  0  0  0  0  0  0  0  0
    8.1959  -11.4373   26.0571 C   0  0  0  0  0  0  0  0  0  0  0  0
    7.0670  -12.3523   25.6066 C   0  0  2  0  0  0  0  0  0  0  0  0
    5.8467  -11.8732   26.3753 C   0  0  0  0  0  0  0  0  0  0  0  0
    7.4220  -13.7509   25.9648 C   0  0  0  0  0  0  0  0  0  0  0  0
    8.5341  -14.3659   25.1913 C   0  0  2  0  0  0  0  0  0  0  0  0
    8.1170  -14.8764   23.8992 N   0  0  0  0  0  0  0  0  0  0  0  0
    9.3359  -15.3602   25.8708 C   0  0  0  0  0  0  0  0  0  0  0  0
    9.7932  -15.0917   27.0135 O   0  0  0  0  0  0  0  0  0  0  0  0
    9.6758  -16.6157   25.4054 O   0  0  0  0  0  0  0  0  0  0  0  0
  2  1  1  0
  3  4  1  0
  3  2  1  0
  4  5  1  0
  5  6  1  6
  7  5  1  0
  7 11  1  0
  8  7  2  0
 10  9  1  1
 10 11  1  0
 10 12  1  0
 12 19  1  0
 13 12  2  0
 15 14  1  1
 16 15  1  0
 17 15  1  0
 18 17  1  1
 19 18  1  0
 20 18  1  0
 20 22  1  0
 21 20  2  0
M  END
$$$$
