MAL.pdb
     RDKit          3D

 22 21  0  0  1  0  0  0  0  0999 V2000
    7.1997  -12.7145   19.7116 C   0  0  0  0  0  0  0  0  0  0  0  0
    7.9067  -13.3596   18.2012 S   0  0  0  0  0  0  0  0  0  0  0  0
    8.2274  -15.0910   18.1388 C   0  0  0  0  0  0  0  0  0  0  0  0
    7.1974  -15.9713   18.7102 C   0  0  0  0  0  0  0  0  0  0  0  0
    7.0381  -16.0064   20.1717 C   0  0  2  0  0  0  0  0  0  0  0  0
    6.8094  -14.7087   20.7410 N   0  0  0  0  0  0  0  0  0  0  0  0
    8.2374  -16.6107   20.8601 C   0  0  0  0  0  0  0  0  0  0  0  0
    8.3873  -17.8477   20.8350 O   0  0  0  0  0  0  0  0  0  0  0  0
   11.5029  -15.7169   22.1344 C   0  0  0  0  0  0  0  0  0  0  0  0
   10.1666  -16.3537   22.4732 C   0  0  2  0  0  0  0  0  0  0  0  0
    9.2036  -15.8340   21.5356 N   0  0  0  0  0  0  0  0  0  0  0  0
    9.8624  -16.0170   23.8656 C   0  0  0  0  0  0  0  0  0  0  0  0
   10.6730  -16.2948   24.7718 O   0  0  0  0  0  0  0  0  0  0  0  0
    5.8210  -12.3517   26.7673 C   0  0  0  0  0  0  0  0  0  0  0  0
    7.0565  -13.2295   26.8989 C   0  0  2  0  0  0  0  0  0  0  0  0
    8.1389  -12.3024   27.4266 C   0  0  0  0  0  0  0  0  0  0  0  0
    7.4026  -13.7614   25.5544 C   0  0  0  0  0  0  0  0  0  0  0  0
    8.3301  -14.9242   25.5259 C   0  0  2  0  0  0  0  0  0  0  0  0
    8.6416  -15.3733   24.1822 N   0  0  0  0  0  0  0  0  0  0  0  0
    7.9835  -16.0616   26.3501 C   0  0  0  0  0  0  0  0  0  0  0  0
    7.0846  -16.8481   25.9498 O   0  0  0  0  0  0  0  0  0  0  0  0
    8.5364  -16.4064   27.5683 O   0  0  0  0  0  0  0  0  0  0  0  0
  2  1  1  0
  3  4  1  0
  3  2  1  0
  4  5  1  0
  5  6  1  1
  7  5  1  0
  7 11  1  0
  8  7  2  0
 10  9  1  6
 10 11  1  0
 10 12  1  0
 12 19  1  0
 13 12  2  0
 15 14  1  6
 16 15  1  0
 17 15  1  0
 18 17  1  6
 19 18  1  0
 20 18  1  0
 20 22  1  0
 21 20  2  0
M  END
$$$$
