MAL.pdb
     RDKit          3D

 22 21  0  0  1  0  0  0  0  0999 V2000
    8.5875  -12.1281   20.6448 C   0  0  0  0  0  0  0  0  0  0  0  0
    7.9281  -12.9094   19.1778 S   0  0  0  0  0  0  0  0  0  0  0  0
    7.2421  -14.5215   19.3645 C   0  0  0  0  0  0  0  0  0  0  0  0
    8.1524  -15.5715   19.8455 C   0  0  0  0  0  0  0  0  0  0  0  0
    7.6230  -16.9327   20.0172 C   0  0  2  0  0  0  0  0  0  0  0  0
    6.7961  -17.3539   18.9222 N   0  0  0  0  0  0  0  0  0  0  0  0
    6.8198  -17.0746   21.2869 C   0  0  0  0  0  0  0  0  0  0  0  0
    5.6131  -16.7632   21.2752 O   0  0  0  0  0  0  0  0  0  0  0  0
    7.0957  -19.0681   24.3028 C   0  0  0  0  0  0  0  0  0  0  0  0
    6.6395  -17.7429   23.7182 C   0  0  2  0  0  0  0  0  0  0  0  0
    7.3763  -17.5471   22.4954 N   0  0  0  0  0  0  0  0  0  0  0  0
    6.8970  -16.7098   24.7237 C   0  0  0  0  0  0  0  0  0  0  0  0
    6.3690  -16.7835   25.8512 O   0  0  0  0  0  0  0  0  0  0  0  0
    5.5348  -12.1447   27.0283 C   0  0  0  0  0  0  0  0  0  0  0  0
    6.9125  -12.7021   26.7035 C   0  0  2  0  0  0  0  0  0  0  0  0
    7.6911  -11.5197   26.1509 C   0  0  0  0  0  0  0  0  0  0  0  0
    6.7591  -13.7763   25.6871 C   0  0  0  0  0  0  0  0  0  0  0  0
    7.9903  -14.5375   25.3437 C   0  0  2  0  0  0  0  0  0  0  0  0
    7.7493  -15.6230   24.4120 N   0  0  0  0  0  0  0  0  0  0  0  0
    8.7975  -15.0135   26.4459 C   0  0  0  0  0  0  0  0  0  0  0  0
    9.9553  -14.5406   26.5972 O   0  0  0  0  0  0  0  0  0  0  0  0
    8.4438  -15.9583   27.3897 O   0  0  0  0  0  0  0  0  0  0  0  0
  2  1  1  0
  3  4  1  0
  3  2  1  0
  4  5  1  0
  5  6  1  6
  7  5  1  0
  7 11  1  0
  8  7  2  0
 10  9  1  1
 10 11  1  0
 10 12  1  0
 12 19  1  0
 13 12  2  0
 15 14  1  6
 16 15  1  0
 17 15  1  0
 18 17  1  1
 19 18  1  0
 20 18  1  0
 20 22  1  0
 21 20  2  0
M  END
$$$$
