MAL.pdb
     RDKit          3D

 22 21  0  0  1  0  0  0  0  0999 V2000
    8.2653  -12.5083   17.4903 C   0  0  0  0  0  0  0  0  0  0  0  0
    7.9962  -12.2357   19.2369 S   0  0  0  0  0  0  0  0  0  0  0  0
    7.3322  -13.5766   20.1672 C   0  0  0  0  0  0  0  0  0  0  0  0
    7.0938  -14.8298   19.4356 C   0  0  0  0  0  0  0  0  0  0  0  0
    7.6764  -16.0717   19.9652 C   0  0  2  0  0  0  0  0  0  0  0  0
    7.2953  -17.2337   19.2135 N   0  0  0  0  0  0  0  0  0  0  0  0
    7.2990  -16.3073   21.4072 C   0  0  0  0  0  0  0  0  0  0  0  0
    6.2110  -16.8585   21.6636 O   0  0  0  0  0  0  0  0  0  0  0  0
    7.8238  -17.5911   24.1615 C   0  0  0  0  0  0  0  0  0  0  0  0
    7.7931  -16.0996   23.8777 C   0  0  2  0  0  0  0  0  0  0  0  0
    8.1274  -15.9296   22.4863 N   0  0  0  0  0  0  0  0  0  0  0  0
    8.7477  -15.4618   24.7869 C   0  0  0  0  0  0  0  0  0  0  0  0
    9.3481  -14.4244   24.4424 O   0  0  0  0  0  0  0  0  0  0  0  0
    9.1655  -12.2274   27.1283 C   0  0  0  0  0  0  0  0  0  0  0  0
    7.9678  -13.0286   26.6407 C   0  0  2  0  0  0  0  0  0  0  0  0
    6.7658  -12.1411   26.9187 C   0  0  0  0  0  0  0  0  0  0  0  0
    7.9005  -14.2954   27.4159 C   0  0  0  0  0  0  0  0  0  0  0  0
    9.0559  -15.2205   27.2658 C   0  0  2  0  0  0  0  0  0  0  0  0
    8.9887  -16.0275   26.0623 N   0  0  0  0  0  0  0  0  0  0  0  0
    9.3748  -16.0626   28.3982 C   0  0  0  0  0  0  0  0  0  0  0  0
    8.8464  -17.2039   28.4722 O   0  0  0  0  0  0  0  0  0  0  0  0
   10.2189  -15.7602   29.4492 O   0  0  0  0  0  0  0  0  0  0  0  0
  2  1  1  0
  3  4  1  0
  3  2  1  0
  4  5  1  0
  5  6  1  6
  7  5  1  0
  7 11  1  0
  8  7  2  0
 10  9  1  1
 10 11  1  0
 10 12  1  0
 12 19  1  0
 13 12  2  0
 15 14  1  1
 16 15  1  0
 17 15  1  0
 18 17  1  1
 19 18  1  0
 20 18  1  0
 20 22  1  0
 21 20  2  0
M  END
$$$$
