MAL.pdb
     RDKit          3D

 22 21  0  0  1  0  0  0  0  0999 V2000
    8.2609  -11.6364   19.4620 C   0  0  0  0  0  0  0  0  0  0  0  0
    8.1289  -12.5923   17.9567 S   0  0  0  0  0  0  0  0  0  0  0  0
    8.0924  -14.3464   18.1187 C   0  0  0  0  0  0  0  0  0  0  0  0
    8.0399  -14.8792   19.4883 C   0  0  0  0  0  0  0  0  0  0  0  0
    8.0996  -16.3365   19.6757 C   0  0  2  0  0  0  0  0  0  0  0  0
    7.0490  -17.0326   18.9885 N   0  0  0  0  0  0  0  0  0  0  0  0
    8.0388  -16.7255   21.1325 C   0  0  0  0  0  0  0  0  0  0  0  0
    6.9448  -16.6682   21.7269 O   0  0  0  0  0  0  0  0  0  0  0  0
   10.4090  -18.2822   23.5477 C   0  0  0  0  0  0  0  0  0  0  0  0
    9.1883  -17.4215   23.2736 C   0  0  2  0  0  0  0  0  0  0  0  0
    9.1717  -17.1544   21.8577 N   0  0  0  0  0  0  0  0  0  0  0  0
    9.3128  -16.2132   24.0917 C   0  0  0  0  0  0  0  0  0  0  0  0
   10.0089  -15.2559   23.6983 O   0  0  0  0  0  0  0  0  0  0  0  0
    5.9491  -12.6000   27.3609 C   0  0  0  0  0  0  0  0  0  0  0  0
    7.3904  -13.0590   27.1981 C   0  0  2  0  0  0  0  0  0  0  0  0
    8.1084  -11.8745   26.5729 C   0  0  0  0  0  0  0  0  0  0  0  0
    7.4095  -14.2436   26.3000 C   0  0  0  0  0  0  0  0  0  0  0  0
    8.7100  -14.9558   26.1783 C   0  0  2  0  0  0  0  0  0  0  0  0
    8.6393  -16.1336   25.3345 N   0  0  0  0  0  0  0  0  0  0  0  0
    9.3994  -15.2799   27.4082 C   0  0  0  0  0  0  0  0  0  0  0  0
    9.3059  -16.4504   27.8646 O   0  0  0  0  0  0  0  0  0  0  0  0
   10.1775  -14.4338   28.1745 O   0  0  0  0  0  0  0  0  0  0  0  0
  2  1  1  0
  3  4  1  0
  3  2  1  0
  4  5  1  0
  5  6  1  6
  7  5  1  0
  7 11  1  0
  8  7  2  0
 10  9  1  6
 10 11  1  0
 10 12  1  0
 12 19  1  0
 13 12  2  0
 15 14  1  6
 16 15  1  0
 17 15  1  0
 18 17  1  1
 19 18  1  0
 20 18  1  0
 20 22  1  0
 21 20  2  0
M  END
$$$$
