MAL.pdb
     RDKit          3D

 22 21  0  0  1  0  0  0  0  0999 V2000
    8.5623  -11.8288   20.6668 C   0  0  0  0  0  0  0  0  0  0  0  0
    6.9907  -12.5262   20.1758 S   0  0  0  0  0  0  0  0  0  0  0  0
    6.8310  -14.2794   20.2483 C   0  0  0  0  0  0  0  0  0  0  0  0
    7.5577  -14.9614   21.3296 C   0  0  0  0  0  0  0  0  0  0  0  0
    7.5573  -16.4317   21.3549 C   0  0  2  0  0  0  0  0  0  0  0  0
    6.2393  -16.9892   21.4659 N   0  0  0  0  0  0  0  0  0  0  0  0
    8.3907  -16.9813   22.4867 C   0  0  0  0  0  0  0  0  0  0  0  0
    7.8269  -17.6228   23.3944 O   0  0  0  0  0  0  0  0  0  0  0  0
   12.0621  -17.2985   23.0580 C   0  0  0  0  0  0  0  0  0  0  0  0
   10.6368  -17.3803   23.5756 C   0  0  2  0  0  0  0  0  0  0  0  0
    9.7888  -16.8009   22.5648 N   0  0  0  0  0  0  0  0  0  0  0  0
   10.5933  -16.6632   24.8518 C   0  0  0  0  0  0  0  0  0  0  0  0
   11.6461  -16.4285   25.4779 O   0  0  0  0  0  0  0  0  0  0  0  0
    8.6034  -12.5417   26.2104 C   0  0  0  0  0  0  0  0  0  0  0  0
    7.6803  -13.6987   25.8588 C   0  0  2  0  0  0  0  0  0  0  0  0
    6.2763  -13.1442   26.0335 C   0  0  0  0  0  0  0  0  0  0  0  0
    7.9456  -14.8171   26.8017 C   0  0  0  0  0  0  0  0  0  0  0  0
    9.2440  -15.5240   26.6351 C   0  0  2  0  0  0  0  0  0  0  0  0
    9.3492  -16.2355   25.3753 N   0  0  0  0  0  0  0  0  0  0  0  0
    9.6661  -16.3867   27.7170 C   0  0  0  0  0  0  0  0  0  0  0  0
    9.4081  -17.6177   27.6460 O   0  0  0  0  0  0  0  0  0  0  0  0
   10.3430  -16.0151   28.8626 O   0  0  0  0  0  0  0  0  0  0  0  0
  2  1  1  0
  3  4  1  0
  3  2  1  0
  4  5  1  0
  5  6  1  1
  7  5  1  0
  7 11  1  0
  8  7  2  0
 10  9  1  6
 10 11  1  0
 10 12  1  0
 12 19  1  0
 13 12  2  0
 15 14  1  1
 16 15  1  0
 17 15  1  0
 18 17  1  1
 19 18  1  0
 20 18  1  0
 20 22  1  0
 21 20  2  0
M  END
$$$$
