MAL.pdb
     RDKit          3D

 22 21  0  0  1  0  0  0  0  0999 V2000
    7.9972  -11.3946   21.0727 C   0  0  0  0  0  0  0  0  0  0  0  0
    7.2598  -12.3194   19.7317 S   0  0  0  0  0  0  0  0  0  0  0  0
    7.2319  -14.0745   19.8852 C   0  0  0  0  0  0  0  0  0  0  0  0
    7.8558  -14.6389   21.0912 C   0  0  0  0  0  0  0  0  0  0  0  0
    7.8826  -16.1008   21.2472 C   0  0  2  0  0  0  0  0  0  0  0  0
    6.5826  -16.6993   21.1372 N   0  0  0  0  0  0  0  0  0  0  0  0
    8.4768  -16.5210   22.5692 C   0  0  0  0  0  0  0  0  0  0  0  0
    7.7379  -17.0515   23.4212 O   0  0  0  0  0  0  0  0  0  0  0  0
   12.0077  -17.1766   23.3986 C   0  0  0  0  0  0  0  0  0  0  0  0
   10.5649  -17.1084   23.8674 C   0  0  2  0  0  0  0  0  0  0  0  0
    9.8404  -16.3397   22.8872 N   0  0  0  0  0  0  0  0  0  0  0  0
   10.5663  -16.4988   25.1989 C   0  0  0  0  0  0  0  0  0  0  0  0
   11.2255  -17.0115   26.1251 O   0  0  0  0  0  0  0  0  0  0  0  0
    8.1946  -12.2051   26.2531 C   0  0  0  0  0  0  0  0  0  0  0  0
    7.4874  -13.5181   25.9524 C   0  0  2  0  0  0  0  0  0  0  0  0
    6.0139  -13.2300   26.1878 C   0  0  0  0  0  0  0  0  0  0  0  0
    7.9966  -14.5535   26.8899 C   0  0  0  0  0  0  0  0  0  0  0  0
    9.4388  -14.8981   26.7691 C   0  0  2  0  0  0  0  0  0  0  0  0
    9.8147  -15.3220   25.4336 N   0  0  0  0  0  0  0  0  0  0  0  0
    9.9770  -15.8238   27.7421 C   0  0  0  0  0  0  0  0  0  0  0  0
    9.8756  -17.0601   27.5226 O   0  0  0  0  0  0  0  0  0  0  0  0
   10.6128  -15.5093   28.9276 O   0  0  0  0  0  0  0  0  0  0  0  0
  2  1  1  0
  3  4  1  0
  3  2  1  0
  4  5  1  0
  5  6  1  1
  7  5  1  0
  7 11  1  0
  8  7  2  0
 10  9  1  6
 10 11  1  0
 10 12  1  0
 12 19  1  0
 13 12  2  0
 15 14  1  1
 16 15  1  0
 17 15  1  0
 18 17  1  6
 19 18  1  0
 20 18  1  0
 20 22  1  0
 21 20  2  0
M  END
$$$$
