MAL.pdb
     RDKit          3D

 22 21  0  0  1  0  0  0  0  0999 V2000
    8.6575  -11.5849   19.7372 C   0  0  0  0  0  0  0  0  0  0  0  0
    7.8925  -12.4896   18.3980 S   0  0  0  0  0  0  0  0  0  0  0  0
    7.5507  -14.1962   18.6724 C   0  0  0  0  0  0  0  0  0  0  0  0
    7.8572  -14.7209   20.0115 C   0  0  0  0  0  0  0  0  0  0  0  0
    7.6697  -16.1580   20.2604 C   0  0  2  0  0  0  0  0  0  0  0  0
    6.3282  -16.6000   20.0046 N   0  0  0  0  0  0  0  0  0  0  0  0
    8.0224  -16.5407   21.6769 C   0  0  0  0  0  0  0  0  0  0  0  0
    7.1603  -16.4148   22.5681 O   0  0  0  0  0  0  0  0  0  0  0  0
   11.1782  -17.7076   23.3277 C   0  0  0  0  0  0  0  0  0  0  0  0
    9.7216  -17.2836   23.3948 C   0  0  2  0  0  0  0  0  0  0  0  0
    9.2926  -17.0381   22.0412 N   0  0  0  0  0  0  0  0  0  0  0  0
    9.6505  -16.0977   24.2511 C   0  0  0  0  0  0  0  0  0  0  0  0
   10.0152  -14.9863   23.8184 O   0  0  0  0  0  0  0  0  0  0  0  0
    6.0094  -12.7360   26.9080 C   0  0  0  0  0  0  0  0  0  0  0  0
    7.4350  -13.2110   27.1450 C   0  0  2  0  0  0  0  0  0  0  0  0
    8.3069  -12.0150   26.7999 C   0  0  0  0  0  0  0  0  0  0  0  0
    7.7053  -14.3608   26.2422 C   0  0  0  0  0  0  0  0  0  0  0  0
    8.9998  -15.0656   26.4442 C   0  0  2  0  0  0  0  0  0  0  0  0
    9.1654  -16.2158   25.5760 N   0  0  0  0  0  0  0  0  0  0  0  0
    9.3462  -15.4275   27.8015 C   0  0  0  0  0  0  0  0  0  0  0  0
    9.5402  -14.5097   28.6423 O   0  0  0  0  0  0  0  0  0  0  0  0
    9.4964  -16.7030   28.3106 O   0  0  0  0  0  0  0  0  0  0  0  0
  2  1  1  0
  3  4  1  0
  3  2  1  0
  4  5  1  0
  5  6  1  1
  7  5  1  0
  7 11  1  0
  8  7  2  0
 10  9  1  6
 10 11  1  0
 10 12  1  0
 12 19  1  0
 13 12  2  0
 15 14  1  6
 16 15  1  0
 17 15  1  0
 18 17  1  1
 19 18  1  0
 20 18  1  0
 20 22  1  0
 21 20  2  0
M  END
$$$$
