MAL.pdb
     RDKit          3D

 22 21  0  0  1  0  0  0  0  0999 V2000
   12.6098  -20.4966   18.7942 C   0  0  0  0  0  0  0  0  0  0  0  0
   11.0982  -21.3724   19.1753 S   0  0  0  0  0  0  0  0  0  0  0  0
   10.0045  -20.6218   20.3350 C   0  0  0  0  0  0  0  0  0  0  0  0
   10.5948  -19.6356   21.2522 C   0  0  0  0  0  0  0  0  0  0  0  0
    9.7104  -18.9472   22.2042 C   0  0  2  0  0  0  0  0  0  0  0  0
    8.3357  -19.3398   22.0755 N   0  0  0  0  0  0  0  0  0  0  0  0
    9.7799  -17.4464   22.0620 C   0  0  0  0  0  0  0  0  0  0  0  0
   10.8962  -16.8924   22.0544 O   0  0  0  0  0  0  0  0  0  0  0  0
    7.2298  -14.8078   21.3410 C   0  0  0  0  0  0  0  0  0  0  0  0
    8.6494  -15.2156   21.6937 C   0  0  2  0  0  0  0  0  0  0  0  0
    8.6307  -16.6359   21.9363 N   0  0  0  0  0  0  0  0  0  0  0  0
    9.0517  -14.4315   22.8634 C   0  0  0  0  0  0  0  0  0  0  0  0
    9.2584  -13.2060   22.7587 O   0  0  0  0  0  0  0  0  0  0  0  0
    5.7964  -12.3414   26.3151 C   0  0  0  0  0  0  0  0  0  0  0  0
    7.1259  -13.0350   26.5713 C   0  0  2  0  0  0  0  0  0  0  0  0
    8.0746  -11.9205   26.9804 C   0  0  0  0  0  0  0  0  0  0  0  0
    7.5664  -13.6904   25.3116 C   0  0  0  0  0  0  0  0  0  0  0  0
    8.8650  -14.4142   25.3661 C   0  0  2  0  0  0  0  0  0  0  0  0
    9.2062  -15.0697   24.1178 N   0  0  0  0  0  0  0  0  0  0  0  0
    9.0595  -15.3333   26.4664 C   0  0  0  0  0  0  0  0  0  0  0  0
    8.1526  -15.4394   27.3343 O   0  0  0  0  0  0  0  0  0  0  0  0
   10.1576  -16.1403   26.6931 O   0  0  0  0  0  0  0  0  0  0  0  0
  2  1  1  0
  3  4  1  0
  3  2  1  0
  4  5  1  0
  5  6  1  6
  7  5  1  0
  7 11  1  0
  8  7  2  0
 10  9  1  1
 10 11  1  0
 10 12  1  0
 12 19  1  0
 13 12  2  0
 15 14  1  6
 16 15  1  0
 17 15  1  0
 18 17  1  6
 19 18  1  0
 20 18  1  0
 20 22  1  0
 21 20  2  0
M  END
$$$$
