MAL.pdb
     RDKit          3D

 22 21  0  0  1  0  0  0  0  0999 V2000
    8.0032  -18.6378   28.0712 C   0  0  0  0  0  0  0  0  0  0  0  0
    7.1791  -20.1163   27.4948 S   0  0  0  0  0  0  0  0  0  0  0  0
    6.6255  -20.1282   25.8221 C   0  0  0  0  0  0  0  0  0  0  0  0
    7.1080  -19.0372   24.9623 C   0  0  0  0  0  0  0  0  0  0  0  0
    6.6443  -18.9872   23.5677 C   0  0  2  0  0  0  0  0  0  0  0  0
    6.8085  -20.2354   22.8782 N   0  0  0  0  0  0  0  0  0  0  0  0
    7.3531  -17.9197   22.7706 C   0  0  0  0  0  0  0  0  0  0  0  0
    8.5190  -18.1302   22.3836 O   0  0  0  0  0  0  0  0  0  0  0  0
    6.4285  -14.5251   21.4990 C   0  0  0  0  0  0  0  0  0  0  0  0
    7.4667  -15.5171   21.9928 C   0  0  2  0  0  0  0  0  0  0  0  0
    6.7520  -16.6855   22.4407 N   0  0  0  0  0  0  0  0  0  0  0  0
    8.2292  -14.8591   23.0559 C   0  0  0  0  0  0  0  0  0  0  0  0
    9.0909  -14.0024   22.7746 O   0  0  0  0  0  0  0  0  0  0  0  0
    7.5744  -11.6252   25.8296 C   0  0  0  0  0  0  0  0  0  0  0  0
    6.8154  -12.9305   26.0151 C   0  0  2  0  0  0  0  0  0  0  0  0
    5.7431  -12.6149   27.0447 C   0  0  0  0  0  0  0  0  0  0  0  0
    7.7639  -13.9607   26.5145 C   0  0  0  0  0  0  0  0  0  0  0  0
    8.6822  -14.5537   25.5054 C   0  0  2  0  0  0  0  0  0  0  0  0
    7.9856  -15.1988   24.4087 N   0  0  0  0  0  0  0  0  0  0  0  0
    9.7254  -15.4263   25.9988 C   0  0  0  0  0  0  0  0  0  0  0  0
    9.7294  -16.6320   25.6338 O   0  0  0  0  0  0  0  0  0  0  0  0
   10.7577  -15.0897   26.8530 O   0  0  0  0  0  0  0  0  0  0  0  0
  2  1  1  0
  3  4  1  0
  3  2  1  0
  4  5  1  0
  5  6  1  6
  7  5  1  0
  7 11  1  0
  8  7  2  0
 10  9  1  1
 10 11  1  0
 10 12  1  0
 12 19  1  0
 13 12  2  0
 15 14  1  1
 16 15  1  0
 17 15  1  0
 18 17  1  1
 19 18  1  0
 20 18  1  0
 20 22  1  0
 21 20  2  0
M  END
$$$$
