MAL.pdb
     RDKit          3D

 22 21  0  0  1  0  0  0  0  0999 V2000
    8.3643  -11.8198   21.0657 C   0  0  0  0  0  0  0  0  0  0  0  0
    7.6121  -12.4727   19.5807 S   0  0  0  0  0  0  0  0  0  0  0  0
    7.5839  -14.2248   19.3970 C   0  0  0  0  0  0  0  0  0  0  0  0
    8.3738  -15.0000   20.3653 C   0  0  0  0  0  0  0  0  0  0  0  0
    8.3885  -16.4654   20.2437 C   0  0  2  0  0  0  0  0  0  0  0  0
    7.1424  -17.0006   19.7735 N   0  0  0  0  0  0  0  0  0  0  0  0
    8.7201  -17.1413   21.5516 C   0  0  0  0  0  0  0  0  0  0  0  0
    8.4946  -18.3609   21.6744 O   0  0  0  0  0  0  0  0  0  0  0  0
   11.4889  -17.3002   22.8710 C   0  0  0  0  0  0  0  0  0  0  0  0
   10.1885  -17.0275   23.6062 C   0  0  2  0  0  0  0  0  0  0  0  0
    9.2779  -16.4510   22.6497 N   0  0  0  0  0  0  0  0  0  0  0  0
   10.4979  -16.1349   24.7252 C   0  0  0  0  0  0  0  0  0  0  0  0
   11.5886  -16.2294   25.3226 O   0  0  0  0  0  0  0  0  0  0  0  0
    7.9411  -12.0088   26.1969 C   0  0  0  0  0  0  0  0  0  0  0  0
    7.3923  -13.3693   25.7941 C   0  0  2  0  0  0  0  0  0  0  0  0
    5.8821  -13.2201   25.8755 C   0  0  0  0  0  0  0  0  0  0  0  0
    7.8923  -14.3840   26.7589 C   0  0  0  0  0  0  0  0  0  0  0  0
    9.2722  -14.8890   26.5263 C   0  0  2  0  0  0  0  0  0  0  0  0
    9.5527  -15.1612   25.1293 N   0  0  0  0  0  0  0  0  0  0  0  0
    9.7084  -16.0058   27.3360 C   0  0  0  0  0  0  0  0  0  0  0  0
    9.3406  -17.1670   27.0147 O   0  0  0  0  0  0  0  0  0  0  0  0
   10.5088  -15.9561   28.4609 O   0  0  0  0  0  0  0  0  0  0  0  0
  2  1  1  0
  3  4  1  0
  3  2  1  0
  4  5  1  0
  5  6  1  1
  7  5  1  0
  7 11  1  0
  8  7  2  0
 10  9  1  6
 10 11  1  0
 10 12  1  0
 12 19  1  0
 13 12  2  0
 15 14  1  1
 16 15  1  0
 17 15  1  0
 18 17  1  6
 19 18  1  0
 20 18  1  0
 20 22  1  0
 21 20  2  0
M  END
$$$$
