MAL.pdb
     RDKit          3D

 22 21  0  0  1  0  0  0  0  0999 V2000
    8.1408  -17.9921   28.8487 C   0  0  0  0  0  0  0  0  0  0  0  0
    6.8911  -19.1934   28.4103 S   0  0  0  0  0  0  0  0  0  0  0  0
    6.8346  -19.7181   26.7292 C   0  0  0  0  0  0  0  0  0  0  0  0
    6.3579  -18.7316   25.7484 C   0  0  0  0  0  0  0  0  0  0  0  0
    6.2831  -19.1293   24.3346 C   0  0  2  0  0  0  0  0  0  0  0  0
    6.7501  -20.4669   24.1041 N   0  0  0  0  0  0  0  0  0  0  0  0
    7.0697  -18.2023   23.4406 C   0  0  0  0  0  0  0  0  0  0  0  0
    8.2580  -18.4766   23.1838 O   0  0  0  0  0  0  0  0  0  0  0  0
    6.2561  -15.1443   21.4530 C   0  0  0  0  0  0  0  0  0  0  0  0
    7.2663  -16.0352   22.1541 C   0  0  2  0  0  0  0  0  0  0  0  0
    6.5175  -17.0311   22.8780 N   0  0  0  0  0  0  0  0  0  0  0  0
    8.0799  -15.1776   23.0186 C   0  0  0  0  0  0  0  0  0  0  0  0
    8.8470  -14.3293   22.5212 O   0  0  0  0  0  0  0  0  0  0  0  0
    7.0451  -11.7022   25.3713 C   0  0  0  0  0  0  0  0  0  0  0  0
    6.6139  -13.0874   25.8291 C   0  0  2  0  0  0  0  0  0  0  0  0
    5.5930  -12.8352   26.9262 C   0  0  0  0  0  0  0  0  0  0  0  0
    7.8074  -13.8048   26.3500 C   0  0  0  0  0  0  0  0  0  0  0  0
    8.6968  -14.4270   25.3326 C   0  0  2  0  0  0  0  0  0  0  0  0
    7.9936  -15.3139   24.4252 N   0  0  0  0  0  0  0  0  0  0  0  0
    9.8948  -15.0777   25.8169 C   0  0  0  0  0  0  0  0  0  0  0  0
   10.0043  -16.3251   25.6793 O   0  0  0  0  0  0  0  0  0  0  0  0
   10.9754  -14.4791   26.4353 O   0  0  0  0  0  0  0  0  0  0  0  0
  2  1  1  0
  3  4  1  0
  3  2  1  0
  4  5  1  0
  5  6  1  1
  7  5  1  0
  7 11  1  0
  8  7  2  0
 10  9  1  1
 10 11  1  0
 10 12  1  0
 12 19  1  0
 13 12  2  0
 15 14  1  1
 16 15  1  0
 17 15  1  0
 18 17  1  1
 19 18  1  0
 20 18  1  0
 20 22  1  0
 21 20  2  0
M  END
$$$$
