MAL.pdb
     RDKit          3D

 22 21  0  0  1  0  0  0  0  0999 V2000
    5.9795  -11.9552   26.8493 C   0  0  0  0  0  0  0  0  0  0  0  0
    6.5230  -12.6574   25.2973 S   0  0  0  0  0  0  0  0  0  0  0  0
    5.4706  -13.8523   24.5429 C   0  0  0  0  0  0  0  0  0  0  0  0
    6.1329  -14.9679   23.8507 C   0  0  0  0  0  0  0  0  0  0  0  0
    6.9461  -15.9010   24.6446 C   0  0  2  0  0  0  0  0  0  0  0  0
    7.5022  -15.2967   25.8219 N   0  0  0  0  0  0  0  0  0  0  0  0
    8.0821  -16.4888   23.8437 C   0  0  0  0  0  0  0  0  0  0  0  0
    7.8700  -17.5028   23.1508 O   0  0  0  0  0  0  0  0  0  0  0  0
   11.5379  -15.8037   22.8458 C   0  0  0  0  0  0  0  0  0  0  0  0
   10.5931  -16.6924   23.6355 C   0  0  2  0  0  0  0  0  0  0  0  0
    9.3825  -15.9390   23.8432 N   0  0  0  0  0  0  0  0  0  0  0  0
   11.2727  -17.0553   24.8809 C   0  0  0  0  0  0  0  0  0  0  0  0
   12.3840  -17.6206   24.8498 O   0  0  0  0  0  0  0  0  0  0  0  0
   11.5799  -14.0243   27.5960 C   0  0  0  0  0  0  0  0  0  0  0  0
   10.4050  -14.8501   28.0978 C   0  0  2  0  0  0  0  0  0  0  0  0
    9.8673  -14.0781   29.2912 C   0  0  0  0  0  0  0  0  0  0  0  0
   10.9076  -16.1909   28.4979 C   0  0  0  0  0  0  0  0  0  0  0  0
   11.2820  -17.1105   27.3900 C   0  0  2  0  0  0  0  0  0  0  0  0
   10.6635  -16.7621   26.1249 N   0  0  0  0  0  0  0  0  0  0  0  0
   11.1274  -18.5284   27.6323 C   0  0  0  0  0  0  0  0  0  0  0  0
   11.8672  -19.0806   28.4895 O   0  0  0  0  0  0  0  0  0  0  0  0
   10.2354  -19.3857   27.0175 O   0  0  0  0  0  0  0  0  0  0  0  0
  2  1  1  0
  3  4  1  0
  3  2  1  0
  4  5  1  0
  5  6  1  1
  7  5  1  0
  7 11  1  0
  8  7  2  0
 10  9  1  6
 10 11  1  0
 10 12  1  0
 12 19  1  0
 13 12  2  0
 15 14  1  1
 16 15  1  0
 17 15  1  0
 18 17  1  1
 19 18  1  0
 20 18  1  0
 20 22  1  0
 21 20  2  0
M  END
$$$$
