MAL.pdb
     RDKit          3D

 22 21  0  0  1  0  0  0  0  0999 V2000
    6.9772  -12.0029   25.5458 C   0  0  0  0  0  0  0  0  0  0  0  0
    6.3201  -13.3881   26.4661 S   0  0  0  0  0  0  0  0  0  0  0  0
    6.7381  -15.0024   25.8971 C   0  0  0  0  0  0  0  0  0  0  0  0
    6.8569  -15.1761   24.4417 C   0  0  0  0  0  0  0  0  0  0  0  0
    7.0141  -16.5378   23.9094 C   0  0  2  0  0  0  0  0  0  0  0  0
    6.1903  -17.5008   24.5835 N   0  0  0  0  0  0  0  0  0  0  0  0
    8.4434  -17.0162   23.9840 C   0  0  0  0  0  0  0  0  0  0  0  0
    8.7296  -17.9411   24.7689 O   0  0  0  0  0  0  0  0  0  0  0  0
   11.5869  -16.0882   22.1645 C   0  0  0  0  0  0  0  0  0  0  0  0
   10.8347  -16.9451   23.1675 C   0  0  2  0  0  0  0  0  0  0  0  0
    9.4780  -16.4606   23.2002 N   0  0  0  0  0  0  0  0  0  0  0  0
   11.5266  -16.8231   24.4524 C   0  0  0  0  0  0  0  0  0  0  0  0
   12.6953  -17.2394   24.5799 O   0  0  0  0  0  0  0  0  0  0  0  0
    9.3534  -13.1306   27.4493 C   0  0  0  0  0  0  0  0  0  0  0  0
    9.8629  -14.4749   27.9468 C   0  0  2  0  0  0  0  0  0  0  0  0
    9.8588  -14.3569   29.4619 C   0  0  0  0  0  0  0  0  0  0  0  0
   11.2376  -14.6826   27.4202 C   0  0  0  0  0  0  0  0  0  0  0  0
   11.5210  -16.0182   26.8295 C   0  0  2  0  0  0  0  0  0  0  0  0
   10.8637  -16.2296   25.5538 N   0  0  0  0  0  0  0  0  0  0  0  0
   11.3133  -17.1702   27.6798 C   0  0  0  0  0  0  0  0  0  0  0  0
   11.9350  -17.2357   28.7735 O   0  0  0  0  0  0  0  0  0  0  0  0
   10.4864  -18.2490   27.4330 O   0  0  0  0  0  0  0  0  0  0  0  0
  2  1  1  0
  3  4  1  0
  3  2  1  0
  4  5  1  0
  5  6  1  1
  7  5  1  0
  7 11  1  0
  8  7  2  0
 10  9  1  6
 10 11  1  0
 10 12  1  0
 12 19  1  0
 13 12  2  0
 15 14  1  6
 16 15  1  0
 17 15  1  0
 18 17  1  1
 19 18  1  0
 20 18  1  0
 20 22  1  0
 21 20  2  0
M  END
$$$$
