KRQ.pdb
     RDKit          3D

 30 29  0  0  1  0  0  0  0  0999 V2000
    8.1289  -21.4518   18.9735 N   0  0  0  0  0  0  0  0  0  0  0  0
    7.7353  -20.7871   20.1999 C   0  0  1  0  0  0  0  0  0  0  0  0
    7.8963  -21.7156   21.3652 C   0  0  0  0  0  0  0  0  0  0  0  0
    8.2346  -23.1263   20.9385 C   0  0  0  0  0  0  0  0  0  0  0  0
    8.4231  -24.0486   22.1144 C   0  0  0  0  0  0  0  0  0  0  0  0
    8.8963  -25.3789   21.5641 C   0  0  0  0  0  0  0  0  0  0  0  0
    9.2398  -26.2361   22.6805 N   0  0  0  0  0  0  0  0  0  0  0  0
    8.6007  -19.5942   20.4433 C   0  0  0  0  0  0  0  0  0  0  0  0
    9.8371  -19.6191   20.3479 O   0  0  0  0  0  0  0  0  0  0  0  0
    8.6995  -11.8947   19.1125 N   0  0  0  0  0  0  0  0  0  0  0  0
    7.7131  -12.8179   18.6650 C   0  0  0  0  0  0  0  0  0  0  0  0
    7.3940  -12.9165   17.4321 N   0  0  0  0  0  0  0  0  0  0  0  0
    7.0569  -13.6594   19.6008 N   0  0  0  0  0  0  0  0  0  0  0  0
    7.4697  -13.6222   20.9776 C   0  0  0  0  0  0  0  0  0  0  0  0
    8.5532  -14.6728   21.1676 C   0  0  0  0  0  0  0  0  0  0  0  0
    7.8986  -16.0040   20.9467 C   0  0  0  0  0  0  0  0  0  0  0  0
    8.8263  -17.1897   21.0275 C   0  0  2  0  0  0  0  0  0  0  0  0
    7.9877  -18.3625   20.8031 N   0  0  0  0  0  0  0  0  0  0  0  0
    9.4558  -17.2289   22.3611 C   0  0  0  0  0  0  0  0  0  0  0  0
    8.9009  -17.5936   23.4229 O   0  0  0  0  0  0  0  0  0  0  0  0
    6.6811  -13.5190   17.0114 N   0  0  0  0  0  0  0  0  0  0  0  0
   10.9874  -20.8769   26.1869 C   0  0  0  0  0  0  0  0  0  0  0  0
   12.1355  -20.4628   25.4218 O   0  0  0  0  0  0  0  0  0  0  0  0
   12.9577  -21.3196   25.0160 C   0  0  0  0  0  0  0  0  0  0  0  0
   12.2765  -19.0321   25.1591 C   0  0  0  0  0  0  0  0  0  0  0  0
   11.5398  -18.5677   23.9600 C   0  0  1  0  0  0  0  0  0  0  0  0
   11.5698  -17.0988   23.6884 N   0  0  0  0  0  0  0  0  0  0  0  0
   10.8135  -16.8197   22.4717 C   0  0  0  0  0  0  0  0  0  0  0  0
   12.9525  -16.5732   23.5658 O   0  0  0  0  0  0  0  0  0  0  0  0
   13.8225  -16.4845   24.6383 O   0  0  0  0  0  0  0  0  0  0  0  0
  2  3  1  0
  2  1  1  6
  3  4  1  0
  4  5  1  0
  5  6  1  0
  6  7  1  0
  8  9  2  0
  8  2  1  0
 10 11  1  0
 11 13  1  0
 11 12  2  0
 13 14  1  0
 15 16  1  0
 15 14  1  0
 17 16  1  1
 17 18  1  0
 18  8  1  0
 19 17  1  0
 19 27  1  0
 20 19  2  0
 22 21  1  0
 22 24  1  0
 23 22  2  0
 26 25  1  1
 25 24  1  0
 26 27  1  0
 26 28  1  0
 28 30  2  0
 28 29  1  0
M  END
$$$$
