KRQ.pdb
     RDKit          3D

 30 29  0  0  1  0  0  0  0  0999 V2000
    9.5289  -15.9249   19.1812 N   0  0  0  0  0  0  0  0  0  0  0  0
    8.8918  -14.9039   19.9890 C   0  0  1  0  0  0  0  0  0  0  0  0
    7.7788  -14.2578   19.2211 C   0  0  0  0  0  0  0  0  0  0  0  0
    8.2461  -13.6712   17.9081 C   0  0  0  0  0  0  0  0  0  0  0  0
    7.1496  -12.9255   17.1936 C   0  0  0  0  0  0  0  0  0  0  0  0
    7.5320  -12.8698   15.7282 C   0  0  0  0  0  0  0  0  0  0  0  0
    7.2825  -14.1718   15.1438 N   0  0  0  0  0  0  0  0  0  0  0  0
    8.3047  -15.5100   21.2215 C   0  0  0  0  0  0  0  0  0  0  0  0
    7.2515  -16.1652   21.2228 O   0  0  0  0  0  0  0  0  0  0  0  0
   12.7361  -14.9831   19.8570 N   0  0  0  0  0  0  0  0  0  0  0  0
   13.8475  -15.2574   20.7025 C   0  0  0  0  0  0  0  0  0  0  0  0
   14.7444  -14.3797   20.9408 N   0  0  0  0  0  0  0  0  0  0  0  0
   13.9779  -16.5357   21.3053 N   0  0  0  0  0  0  0  0  0  0  0  0
   12.9708  -17.5299   21.0511 C   0  0  0  0  0  0  0  0  0  0  0  0
   12.0079  -17.5293   22.2286 C   0  0  0  0  0  0  0  0  0  0  0  0
   10.9212  -16.5528   21.8891 C   0  0  0  0  0  0  0  0  0  0  0  0
    9.8606  -16.3887   22.9480 C   0  0  2  0  0  0  0  0  0  0  0  0
    8.9778  -15.3337   22.4617 N   0  0  0  0  0  0  0  0  0  0  0  0
   10.4968  -16.0089   24.2236 C   0  0  0  0  0  0  0  0  0  0  0  0
   11.2584  -16.7317   24.9063 O   0  0  0  0  0  0  0  0  0  0  0  0
   15.5674  -14.4665   21.5435 N   0  0  0  0  0  0  0  0  0  0  0  0
    6.4687  -11.8020   25.1420 C   0  0  0  0  0  0  0  0  0  0  0  0
    6.2815  -12.5238   26.3745 O   0  0  0  0  0  0  0  0  0  0  0  0
    5.4726  -12.0950   27.2326 C   0  0  0  0  0  0  0  0  0  0  0  0
    7.0670  -13.7429   26.5548 C   0  0  0  0  0  0  0  0  0  0  0  0
    8.0646  -13.9767   25.4841 C   0  0  1  0  0  0  0  0  0  0  0  0
    9.3791  -14.5434   25.9119 N   0  0  0  0  0  0  0  0  0  0  0  0
   10.2343  -14.7104   24.7411 C   0  0  0  0  0  0  0  0  0  0  0  0
    9.2332  -15.8343   26.6299 O   0  0  0  0  0  0  0  0  0  0  0  0
    9.1046  -17.0484   25.9783 O   0  0  0  0  0  0  0  0  0  0  0  0
  2  3  1  0
  2  1  1  6
  3  4  1  0
  4  5  1  0
  5  6  1  0
  6  7  1  0
  8  9  2  0
  8  2  1  0
 10 11  1  0
 11 13  1  0
 11 12  2  0
 13 14  1  0
 15 16  1  0
 15 14  1  0
 17 16  1  6
 17 18  1  0
 18  8  1  0
 19 17  1  0
 19 27  1  0
 20 19  2  0
 22 21  1  0
 22 24  1  0
 23 22  2  0
 26 25  1  1
 25 24  1  0
 26 27  1  0
 26 28  1  0
 28 30  2  0
 28 29  1  0
M  END
$$$$
