KRQ.pdb
     RDKit          3D

 30 29  0  0  1  0  0  0  0  0999 V2000
    5.4718  -15.6632   19.4972 N   0  0  0  0  0  0  0  0  0  0  0  0
    6.8627  -15.5477   19.8882 C   0  0  1  0  0  0  0  0  0  0  0  0
    7.4577  -14.2968   19.3161 C   0  0  0  0  0  0  0  0  0  0  0  0
    7.5770  -14.3492   17.8096 C   0  0  0  0  0  0  0  0  0  0  0  0
    8.1558  -13.0814   17.2384 C   0  0  0  0  0  0  0  0  0  0  0  0
    8.2642  -13.2784   15.7397 C   0  0  0  0  0  0  0  0  0  0  0  0
    8.7048  -12.0314   15.1481 N   0  0  0  0  0  0  0  0  0  0  0  0
    6.9780  -15.4696   21.3753 C   0  0  0  0  0  0  0  0  0  0  0  0
    6.4407  -14.5816   22.0543 O   0  0  0  0  0  0  0  0  0  0  0  0
    9.2856  -20.9686   24.0084 N   0  0  0  0  0  0  0  0  0  0  0  0
    8.0253  -21.6198   24.1225 C   0  0  0  0  0  0  0  0  0  0  0  0
    7.9013  -22.8798   23.9531 N   0  0  0  0  0  0  0  0  0  0  0  0
    6.8650  -20.8636   24.4325 N   0  0  0  0  0  0  0  0  0  0  0  0
    7.0084  -19.4678   24.7460 C   0  0  0  0  0  0  0  0  0  0  0  0
    6.5411  -18.6688   23.5388 C   0  0  0  0  0  0  0  0  0  0  0  0
    6.5522  -17.2272   23.9526 C   0  0  0  0  0  0  0  0  0  0  0  0
    7.7687  -16.4503   23.5171 C   0  0  2  0  0  0  0  0  0  0  0  0
    7.7397  -16.4575   22.0583 N   0  0  0  0  0  0  0  0  0  0  0  0
    8.9825  -17.1123   24.0317 C   0  0  0  0  0  0  0  0  0  0  0  0
    9.2641  -18.3261   23.9065 O   0  0  0  0  0  0  0  0  0  0  0  0
    7.0398  -23.4328   23.9410 N   0  0  0  0  0  0  0  0  0  0  0  0
    9.3731  -13.4803   28.8977 C   0  0  0  0  0  0  0  0  0  0  0  0
   10.0027  -14.7195   29.2760 O   0  0  0  0  0  0  0  0  0  0  0  0
   10.7883  -14.7478   30.2540 C   0  0  0  0  0  0  0  0  0  0  0  0
    9.6798  -15.8987   28.4753 C   0  0  0  0  0  0  0  0  0  0  0  0
    9.5999  -15.6310   27.0199 C   0  0  1  0  0  0  0  0  0  0  0  0
   10.2618  -16.6261   26.1232 N   0  0  0  0  0  0  0  0  0  0  0  0
    9.9295  -16.3183   24.7358 C   0  0  0  0  0  0  0  0  0  0  0  0
    9.8779  -18.0231   26.4458 O   0  0  0  0  0  0  0  0  0  0  0  0
   10.7927  -19.0592   26.5138 O   0  0  0  0  0  0  0  0  0  0  0  0
  2  3  1  0
  2  1  1  1
  3  4  1  0
  4  5  1  0
  5  6  1  0
  6  7  1  0
  8  9  2  0
  8  2  1  0
 10 11  1  0
 11 13  1  0
 11 12  2  0
 13 14  1  0
 15 16  1  0
 15 14  1  0
 17 16  1  1
 17 18  1  0
 18  8  1  0
 19 17  1  0
 19 27  1  0
 20 19  2  0
 22 21  1  0
 22 24  1  0
 23 22  2  0
 26 25  1  6
 25 24  1  0
 26 27  1  0
 26 28  1  0
 28 30  2  0
 28 29  1  0
M  END
$$$$
