KRQ.pdb
     RDKit          3D

 30 29  0  0  1  0  0  0  0  0999 V2000
    4.3642  -19.1345   24.5401 N   0  0  0  0  0  0  0  0  0  0  0  0
    5.1544  -19.9747   23.6624 C   0  0  1  0  0  0  0  0  0  0  0  0
    4.2886  -20.5550   22.5856 C   0  0  0  0  0  0  0  0  0  0  0  0
    3.3590  -19.5302   21.9754 C   0  0  0  0  0  0  0  0  0  0  0  0
    2.5221  -20.1085   20.8646 C   0  0  0  0  0  0  0  0  0  0  0  0
    1.0818  -19.7362   21.1535 C   0  0  0  0  0  0  0  0  0  0  0  0
    0.2510  -20.2829   20.0999 N   0  0  0  0  0  0  0  0  0  0  0  0
    6.2266  -19.1708   23.0027 C   0  0  0  0  0  0  0  0  0  0  0  0
    7.0810  -19.6627   22.2500 O   0  0  0  0  0  0  0  0  0  0  0  0
    9.9284  -13.0296   19.8605 N   0  0  0  0  0  0  0  0  0  0  0  0
    8.7163  -12.8097   19.1478 C   0  0  0  0  0  0  0  0  0  0  0  0
    8.5470  -11.7811   18.4095 N   0  0  0  0  0  0  0  0  0  0  0  0
    7.6571  -13.7490   19.2489 N   0  0  0  0  0  0  0  0  0  0  0  0
    7.0062  -13.9285   20.5182 C   0  0  0  0  0  0  0  0  0  0  0  0
    7.8129  -14.9413   21.3164 C   0  0  0  0  0  0  0  0  0  0  0  0
    6.8193  -15.8243   22.0112 C   0  0  0  0  0  0  0  0  0  0  0  0
    7.4152  -17.0053   22.7345 C   0  0  2  0  0  0  0  0  0  0  0  0
    6.2810  -17.7701   23.2421 N   0  0  0  0  0  0  0  0  0  0  0  0
    8.2721  -16.5243   23.8348 C   0  0  0  0  0  0  0  0  0  0  0  0
    7.8754  -15.9528   24.8762 O   0  0  0  0  0  0  0  0  0  0  0  0
    7.6960  -11.4883   17.9214 N   0  0  0  0  0  0  0  0  0  0  0  0
   11.5451  -18.9377   28.5954 C   0  0  0  0  0  0  0  0  0  0  0  0
   10.6202  -18.9708   27.4916 O   0  0  0  0  0  0  0  0  0  0  0  0
    9.5357  -19.5919   27.6040 C   0  0  0  0  0  0  0  0  0  0  0  0
   11.0128  -18.2610   26.2759 C   0  0  0  0  0  0  0  0  0  0  0  0
   10.2537  -17.0101   26.0410 C   0  0  1  0  0  0  0  0  0  0  0  0
   10.5697  -16.2664   24.7843 N   0  0  0  0  0  0  0  0  0  0  0  0
    9.6766  -16.7172   23.7216 C   0  0  0  0  0  0  0  0  0  0  0  0
   11.9855  -16.4300   24.3695 O   0  0  0  0  0  0  0  0  0  0  0  0
   13.0497  -15.9684   25.1240 O   0  0  0  0  0  0  0  0  0  0  0  0
  2  3  1  0
  2  1  1  1
  3  4  1  0
  4  5  1  0
  5  6  1  0
  6  7  1  0
  8  9  2  0
  8  2  1  0
 10 11  1  0
 11 13  1  0
 11 12  2  0
 13 14  1  0
 15 16  1  0
 15 14  1  0
 17 16  1  1
 17 18  1  0
 18  8  1  0
 19 17  1  0
 19 27  1  0
 20 19  2  0
 22 21  1  0
 22 24  1  0
 23 22  2  0
 26 25  1  1
 25 24  1  0
 26 27  1  0
 26 28  1  0
 28 30  2  0
 28 29  1  0
M  END
$$$$
