KRQ.pdb
     RDKit          3D

 30 29  0  0  1  0  0  0  0  0999 V2000
    8.3510  -15.7404   21.6557 N   0  0  0  0  0  0  0  0  0  0  0  0
    8.5862  -16.8091   20.7052 C   0  0  1  0  0  0  0  0  0  0  0  0
    8.4194  -16.3010   19.3052 C   0  0  0  0  0  0  0  0  0  0  0  0
    9.0004  -14.9174   19.1186 C   0  0  0  0  0  0  0  0  0  0  0  0
    8.1854  -14.0793   18.1689 C   0  0  0  0  0  0  0  0  0  0  0  0
    9.0472  -12.8998   17.7656 C   0  0  0  0  0  0  0  0  0  0  0  0
    8.3278  -12.1305   16.7708 N   0  0  0  0  0  0  0  0  0  0  0  0
    9.9813  -17.3250   20.8406 C   0  0  0  0  0  0  0  0  0  0  0  0
   10.3972  -18.3288   20.2424 O   0  0  0  0  0  0  0  0  0  0  0  0
   14.2250  -13.3947   17.1809 N   0  0  0  0  0  0  0  0  0  0  0  0
   15.3839  -13.9304   17.8099 C   0  0  0  0  0  0  0  0  0  0  0  0
   16.5280  -13.3735   17.6986 N   0  0  0  0  0  0  0  0  0  0  0  0
   15.2828  -15.1146   18.5857 N   0  0  0  0  0  0  0  0  0  0  0  0
   14.0178  -15.7944   18.6547 C   0  0  0  0  0  0  0  0  0  0  0  0
   13.5101  -15.6899   20.0848 C   0  0  0  0  0  0  0  0  0  0  0  0
   12.8275  -16.9901   20.3901 C   0  0  0  0  0  0  0  0  0  0  0  0
   12.2684  -17.1020   21.7858 C   0  0  2  0  0  0  0  0  0  0  0  0
   10.8876  -16.6395   21.6957 N   0  0  0  0  0  0  0  0  0  0  0  0
   13.0584  -16.2547   22.6992 C   0  0  0  0  0  0  0  0  0  0  0  0
   14.0283  -15.5324   22.3736 O   0  0  0  0  0  0  0  0  0  0  0  0
   17.4257  -13.6971   18.0695 N   0  0  0  0  0  0  0  0  0  0  0  0
   10.9994  -20.6219   25.4470 C   0  0  0  0  0  0  0  0  0  0  0  0
   11.4971  -20.0612   26.6770 O   0  0  0  0  0  0  0  0  0  0  0  0
   11.2578  -20.6351   27.7669 C   0  0  0  0  0  0  0  0  0  0  0  0
   12.2699  -18.8248   26.5772 C   0  0  0  0  0  0  0  0  0  0  0  0
   12.4971  -18.3711   25.1847 C   0  0  2  0  0  0  0  0  0  0  0  0
   13.3509  -17.1573   25.0116 N   0  0  0  0  0  0  0  0  0  0  0  0
   12.7027  -16.2434   24.0762 C   0  0  0  0  0  0  0  0  0  0  0  0
   14.7190  -17.4890   24.5411 O   0  0  0  0  0  0  0  0  0  0  0  0
   14.9714  -18.0829   23.3169 O   0  0  0  0  0  0  0  0  0  0  0  0
  2  3  1  0
  2  1  1  1
  3  4  1  0
  4  5  1  0
  5  6  1  0
  6  7  1  0
  8  9  2  0
  8  2  1  0
 10 11  1  0
 11 13  1  0
 11 12  2  0
 13 14  1  0
 15 16  1  0
 15 14  1  0
 17 16  1  6
 17 18  1  0
 18  8  1  0
 19 17  1  0
 19 27  1  0
 20 19  2  0
 22 21  1  0
 22 24  1  0
 23 22  2  0
 26 25  1  1
 25 24  1  0
 26 27  1  0
 26 28  1  0
 28 30  2  0
 28 29  1  0
M  END
$$$$
