KRQ.pdb
     RDKit          3D

 30 29  0  0  1  0  0  0  0  0999 V2000
   13.3059  -13.6047   17.7708 N   0  0  0  0  0  0  0  0  0  0  0  0
   13.1540  -14.9601   18.2613 C   0  0  1  0  0  0  0  0  0  0  0  0
   14.4964  -15.6107   18.4052 C   0  0  0  0  0  0  0  0  0  0  0  0
   15.5616  -14.6430   18.8693 C   0  0  0  0  0  0  0  0  0  0  0  0
   16.9057  -15.3049   19.0245 C   0  0  0  0  0  0  0  0  0  0  0  0
   17.8869  -14.2266   19.4380 C   0  0  0  0  0  0  0  0  0  0  0  0
   19.2022  -14.8250   19.5427 N   0  0  0  0  0  0  0  0  0  0  0  0
   12.5026  -14.9547   19.6054 C   0  0  0  0  0  0  0  0  0  0  0  0
   12.9408  -14.3126   20.5719 O   0  0  0  0  0  0  0  0  0  0  0  0
    8.0191  -13.4662   17.4449 N   0  0  0  0  0  0  0  0  0  0  0  0
    7.8136  -12.8744   18.7228 C   0  0  0  0  0  0  0  0  0  0  0  0
    8.2392  -11.7017   18.9974 N   0  0  0  0  0  0  0  0  0  0  0  0
    7.1187  -13.5928   19.7304 N   0  0  0  0  0  0  0  0  0  0  0  0
    7.8729  -14.3777   20.6697 C   0  0  0  0  0  0  0  0  0  0  0  0
    8.4705  -15.5571   19.9175 C   0  0  0  0  0  0  0  0  0  0  0  0
    9.3141  -16.3079   20.9045 C   0  0  0  0  0  0  0  0  0  0  0  0
   10.6961  -15.7443   21.1178 C   0  0  2  0  0  0  0  0  0  0  0  0
   11.3200  -15.7205   19.7990 N   0  0  0  0  0  0  0  0  0  0  0  0
   11.4416  -16.6142   22.0472 C   0  0  0  0  0  0  0  0  0  0  0  0
   12.0696  -17.6519   21.7352 O   0  0  0  0  0  0  0  0  0  0  0  0
    8.2214  -11.2198   19.9006 N   0  0  0  0  0  0  0  0  0  0  0  0
   15.7236  -15.6411   22.7711 C   0  0  0  0  0  0  0  0  0  0  0  0
   16.0118  -16.4392   23.9352 O   0  0  0  0  0  0  0  0  0  0  0  0
   17.1938  -16.7812   24.1809 C   0  0  0  0  0  0  0  0  0  0  0  0
   14.8794  -16.8123   24.7803 C   0  0  0  0  0  0  0  0  0  0  0  0
   13.6279  -16.0859   24.4599 C   0  0  2  0  0  0  0  0  0  0  0  0
   12.3902  -16.9142   24.3401 N   0  0  0  0  0  0  0  0  0  0  0  0
   11.4609  -16.2599   23.4245 C   0  0  0  0  0  0  0  0  0  0  0  0
   11.7376  -17.1513   25.6520 O   0  0  0  0  0  0  0  0  0  0  0  0
   12.1775  -18.1074   26.5505 O   0  0  0  0  0  0  0  0  0  0  0  0
  2  3  1  0
  2  1  1  1
  3  4  1  0
  4  5  1  0
  5  6  1  0
  6  7  1  0
  8  9  2  0
  8  2  1  0
 10 11  1  0
 11 13  1  0
 11 12  2  0
 13 14  1  0
 15 16  1  0
 15 14  1  0
 17 16  1  6
 17 18  1  0
 18  8  1  0
 19 17  1  0
 19 27  1  0
 20 19  2  0
 22 21  1  0
 22 24  1  0
 23 22  2  0
 26 25  1  6
 25 24  1  0
 26 27  1  0
 26 28  1  0
 28 30  2  0
 28 29  1  0
M  END
$$$$
