KRQ.pdb
     RDKit          3D

 30 29  0  0  1  0  0  0  0  0999 V2000
    5.6137  -16.6222   19.5835 N   0  0  0  0  0  0  0  0  0  0  0  0
    6.8548  -16.3257   20.2709 C   0  0  1  0  0  0  0  0  0  0  0  0
    7.2028  -14.8773   20.1067 C   0  0  0  0  0  0  0  0  0  0  0  0
    7.6036  -14.5356   18.6893 C   0  0  0  0  0  0  0  0  0  0  0  0
    7.9714  -13.0832   18.5345 C   0  0  0  0  0  0  0  0  0  0  0  0
    8.1744  -12.8317   17.0539 C   0  0  0  0  0  0  0  0  0  0  0  0
    9.1600  -13.7739   16.5639 N   0  0  0  0  0  0  0  0  0  0  0  0
    6.7154  -16.5991   21.7327 C   0  0  0  0  0  0  0  0  0  0  0  0
    5.6936  -16.3286   22.3817 O   0  0  0  0  0  0  0  0  0  0  0  0
    7.2120  -21.9176   26.6864 N   0  0  0  0  0  0  0  0  0  0  0  0
    8.3323  -21.5530   27.4847 C   0  0  0  0  0  0  0  0  0  0  0  0
    8.3606  -21.7697   28.7433 N   0  0  0  0  0  0  0  0  0  0  0  0
    9.4568  -20.9313   26.8820 N   0  0  0  0  0  0  0  0  0  0  0  0
    9.3561  -20.4836   25.5195 C   0  0  0  0  0  0  0  0  0  0  0  0
    8.5205  -19.2125   25.5073 C   0  0  0  0  0  0  0  0  0  0  0  0
    8.4659  -18.7529   24.0806 C   0  0  0  0  0  0  0  0  0  0  0  0
    7.6600  -17.5003   23.8469 C   0  0  2  0  0  0  0  0  0  0  0  0
    7.8022  -17.1993   22.4263 N   0  0  0  0  0  0  0  0  0  0  0  0
    8.1974  -16.4093   24.6818 C   0  0  0  0  0  0  0  0  0  0  0  0
    9.2553  -15.7746   24.4660 O   0  0  0  0  0  0  0  0  0  0  0  0
    9.0977  -21.5225   29.4094 N   0  0  0  0  0  0  0  0  0  0  0  0
    6.2288  -11.7342   25.2955 C   0  0  0  0  0  0  0  0  0  0  0  0
    6.6636  -11.5837   26.6605 O   0  0  0  0  0  0  0  0  0  0  0  0
    7.0897  -10.4737   27.0614 C   0  0  0  0  0  0  0  0  0  0  0  0
    6.5804  -12.7649   27.5170 C   0  0  0  0  0  0  0  0  0  0  0  0
    6.4756  -14.0405   26.7697 C   0  0  1  0  0  0  0  0  0  0  0  0
    7.7548  -14.7694   26.5153 N   0  0  0  0  0  0  0  0  0  0  0  0
    7.4635  -16.0297   25.8394 C   0  0  0  0  0  0  0  0  0  0  0  0
    8.5219  -15.0198   27.7611 O   0  0  0  0  0  0  0  0  0  0  0  0
    9.2799  -14.0463   28.3878 O   0  0  0  0  0  0  0  0  0  0  0  0
  2  3  1  0
  2  1  1  6
  3  4  1  0
  4  5  1  0
  5  6  1  0
  6  7  1  0
  8  9  2  0
  8  2  1  0
 10 11  1  0
 11 13  1  0
 11 12  2  0
 13 14  1  0
 15 16  1  0
 15 14  1  0
 17 16  1  6
 17 18  1  0
 18  8  1  0
 19 17  1  0
 19 27  1  0
 20 19  2  0
 22 21  1  0
 22 24  1  0
 23 22  2  0
 26 25  1  6
 25 24  1  0
 26 27  1  0
 26 28  1  0
 28 30  2  0
 28 29  1  0
M  END
$$$$
