KRQ.pdb
     RDKit          3D

 30 29  0  0  1  0  0  0  0  0999 V2000
   12.2525  -16.0130   14.0468 N   0  0  0  0  0  0  0  0  0  0  0  0
   11.8462  -16.7308   15.2386 C   0  0  1  0  0  0  0  0  0  0  0  0
   12.3351  -18.1463   15.1808 C   0  0  0  0  0  0  0  0  0  0  0  0
   13.8129  -18.2360   14.8733 C   0  0  0  0  0  0  0  0  0  0  0  0
   14.2867  -19.6612   14.7591 C   0  0  0  0  0  0  0  0  0  0  0  0
   15.7853  -19.6148   14.5381 C   0  0  0  0  0  0  0  0  0  0  0  0
   16.2773  -20.9759   14.4730 N   0  0  0  0  0  0  0  0  0  0  0  0
   12.4362  -16.0931   16.4537 C   0  0  0  0  0  0  0  0  0  0  0  0
   13.4490  -15.3778   16.4236 O   0  0  0  0  0  0  0  0  0  0  0  0
    6.5749  -12.4865   20.4020 N   0  0  0  0  0  0  0  0  0  0  0  0
    7.5205  -13.2233   19.6350 C   0  0  0  0  0  0  0  0  0  0  0  0
    8.0635  -12.7350   18.5870 N   0  0  0  0  0  0  0  0  0  0  0  0
    7.8812  -14.5375   20.0315 N   0  0  0  0  0  0  0  0  0  0  0  0
    9.1464  -14.7444   20.6822 C   0  0  0  0  0  0  0  0  0  0  0  0
   10.2409  -14.5611   19.6418 C   0  0  0  0  0  0  0  0  0  0  0  0
   11.2646  -15.6243   19.9093 C   0  0  0  0  0  0  0  0  0  0  0  0
   12.3874  -15.6923   18.9054 C   0  0  2  0  0  0  0  0  0  0  0  0
   11.8143  -16.3098   17.7141 N   0  0  0  0  0  0  0  0  0  0  0  0
   13.4869  -16.5080   19.4551 C   0  0  0  0  0  0  0  0  0  0  0  0
   13.8995  -17.5933   18.9856 O   0  0  0  0  0  0  0  0  0  0  0  0
    8.6320  -13.2197   17.8870 N   0  0  0  0  0  0  0  0  0  0  0  0
   18.9793  -16.7622   17.8943 C   0  0  0  0  0  0  0  0  0  0  0  0
   18.2154  -15.5605   18.1125 O   0  0  0  0  0  0  0  0  0  0  0  0
   18.0427  -14.7505   17.1699 C   0  0  0  0  0  0  0  0  0  0  0  0
   17.6751  -15.3527   19.4544 C   0  0  0  0  0  0  0  0  0  0  0  0
   16.1954  -15.4058   19.5192 C   0  0  1  0  0  0  0  0  0  0  0  0
   15.6059  -16.0861   20.7117 N   0  0  0  0  0  0  0  0  0  0  0  0
   14.1500  -16.0371   20.6218 C   0  0  0  0  0  0  0  0  0  0  0  0
   16.0623  -15.4856   21.9901 O   0  0  0  0  0  0  0  0  0  0  0  0
   15.4075  -14.4322   22.6038 O   0  0  0  0  0  0  0  0  0  0  0  0
  2  3  1  0
  2  1  1  6
  3  4  1  0
  4  5  1  0
  5  6  1  0
  6  7  1  0
  8  9  2  0
  8  2  1  0
 10 11  1  0
 11 13  1  0
 11 12  2  0
 13 14  1  0
 15 16  1  0
 15 14  1  0
 17 16  1  1
 17 18  1  0
 18  8  1  0
 19 17  1  0
 19 27  1  0
 20 19  2  0
 22 21  1  0
 22 24  1  0
 23 22  2  0
 26 25  1  6
 25 24  1  0
 26 27  1  0
 26 28  1  0
 28 30  2  0
 28 29  1  0
M  END
$$$$
