KRQ.pdb
     RDKit          3D

 30 29  0  0  1  0  0  0  0  0999 V2000
   15.0309  -13.5059   18.3315 N   0  0  0  0  0  0  0  0  0  0  0  0
   13.9286  -14.4390   18.2084 C   0  0  1  0  0  0  0  0  0  0  0  0
   14.4493  -15.8355   18.0519 C   0  0  0  0  0  0  0  0  0  0  0  0
   14.9304  -16.1197   16.6468 C   0  0  0  0  0  0  0  0  0  0  0  0
   16.4296  -16.2450   16.5712 C   0  0  0  0  0  0  0  0  0  0  0  0
   16.7694  -16.6648   15.1552 C   0  0  0  0  0  0  0  0  0  0  0  0
   18.2044  -16.8430   15.0661 N   0  0  0  0  0  0  0  0  0  0  0  0
   13.0798  -14.4029   19.4369 C   0  0  0  0  0  0  0  0  0  0  0  0
   13.5447  -14.3141   20.5834 O   0  0  0  0  0  0  0  0  0  0  0  0
    7.5563  -15.6704   17.8414 N   0  0  0  0  0  0  0  0  0  0  0  0
    7.7768  -14.4796   17.0939 C   0  0  0  0  0  0  0  0  0  0  0  0
    7.9905  -14.5054   15.8348 N   0  0  0  0  0  0  0  0  0  0  0  0
    7.7619  -13.2210   17.7497 N   0  0  0  0  0  0  0  0  0  0  0  0
    7.5314  -13.1792   19.1683 C   0  0  0  0  0  0  0  0  0  0  0  0
    8.8822  -13.0545   19.8563 C   0  0  0  0  0  0  0  0  0  0  0  0
    9.4117  -14.4494   20.0100 C   0  0  0  0  0  0  0  0  0  0  0  0
   10.8362  -14.5385   20.4960 C   0  0  2  0  0  0  0  0  0  0  0  0
   11.6663  -14.4735   19.2978 N   0  0  0  0  0  0  0  0  0  0  0  0
   11.0301  -15.8130   21.2131 C   0  0  0  0  0  0  0  0  0  0  0  0
   11.5349  -16.8541   20.7337 O   0  0  0  0  0  0  0  0  0  0  0  0
    8.2376  -13.7243   15.2209 N   0  0  0  0  0  0  0  0  0  0  0  0
   15.7242  -17.5354   21.9895 C   0  0  0  0  0  0  0  0  0  0  0  0
   14.9169  -17.5291   23.1825 O   0  0  0  0  0  0  0  0  0  0  0  0
   15.4516  -17.3145   24.2972 C   0  0  0  0  0  0  0  0  0  0  0  0
   13.4869  -17.7810   23.0167 C   0  0  0  0  0  0  0  0  0  0  0  0
   12.6218  -16.7275   23.5981 C   0  0  2  0  0  0  0  0  0  0  0  0
   11.1476  -16.9209   23.4506 N   0  0  0  0  0  0  0  0  0  0  0  0
   10.6130  -15.8863   22.5709 C   0  0  0  0  0  0  0  0  0  0  0  0
   10.4401  -16.9021   24.7552 O   0  0  0  0  0  0  0  0  0  0  0  0
   10.5581  -17.9148   25.6909 O   0  0  0  0  0  0  0  0  0  0  0  0
  2  3  1  0
  2  1  1  1
  3  4  1  0
  4  5  1  0
  5  6  1  0
  6  7  1  0
  8  9  2  0
  8  2  1  0
 10 11  1  0
 11 13  1  0
 11 12  2  0
 13 14  1  0
 15 16  1  0
 15 14  1  0
 17 16  1  6
 17 18  1  0
 18  8  1  0
 19 17  1  0
 19 27  1  0
 20 19  2  0
 22 21  1  0
 22 24  1  0
 23 22  2  0
 26 25  1  6
 25 24  1  0
 26 27  1  0
 26 28  1  0
 28 30  2  0
 28 29  1  0
M  END
$$$$
