KRQ.pdb
     RDKit          3D

 30 29  0  0  1  0  0  0  0  0999 V2000
    9.4566  -21.2728   21.7459 N   0  0  0  0  0  0  0  0  0  0  0  0
   10.6426  -21.2914   20.9129 C   0  0  1  0  0  0  0  0  0  0  0  0
   10.3494  -21.9759   19.6123 C   0  0  0  0  0  0  0  0  0  0  0  0
    9.4444  -23.1756   19.7809 C   0  0  0  0  0  0  0  0  0  0  0  0
    9.1772  -23.8770   18.4750 C   0  0  0  0  0  0  0  0  0  0  0  0
    8.2782  -25.0580   18.7810 C   0  0  0  0  0  0  0  0  0  0  0  0
    8.0005  -25.7513   17.5395 N   0  0  0  0  0  0  0  0  0  0  0  0
   11.0822  -19.8972   20.6063 C   0  0  0  0  0  0  0  0  0  0  0  0
   12.0633  -19.6335   19.8948 O   0  0  0  0  0  0  0  0  0  0  0  0
    7.6683  -12.6048   20.7481 N   0  0  0  0  0  0  0  0  0  0  0  0
    8.1759  -12.8461   19.4406 C   0  0  0  0  0  0  0  0  0  0  0  0
    7.4429  -12.7256   18.4015 N   0  0  0  0  0  0  0  0  0  0  0  0
    9.5311  -13.2314   19.2689 N   0  0  0  0  0  0  0  0  0  0  0  0
    9.8438  -14.6274   19.1254 C   0  0  0  0  0  0  0  0  0  0  0  0
    9.4361  -15.3307   20.4110 C   0  0  0  0  0  0  0  0  0  0  0  0
    9.5902  -16.8012   20.1588 C   0  0  0  0  0  0  0  0  0  0  0  0
   10.7659  -17.4447   20.8493 C   0  0  2  0  0  0  0  0  0  0  0  0
   10.3470  -18.8092   21.1521 N   0  0  0  0  0  0  0  0  0  0  0  0
   11.0808  -16.6956   22.0806 C   0  0  0  0  0  0  0  0  0  0  0  0
   10.2470  -16.1537   22.8419 O   0  0  0  0  0  0  0  0  0  0  0  0
    7.7045  -12.8799   17.4237 N   0  0  0  0  0  0  0  0  0  0  0  0
   12.3837  -17.1120   27.4848 C   0  0  0  0  0  0  0  0  0  0  0  0
   12.7070  -18.1919   26.5880 O   0  0  0  0  0  0  0  0  0  0  0  0
   13.0817  -19.2967   27.0502 C   0  0  0  0  0  0  0  0  0  0  0  0
   12.5762  -17.9269   25.1567 C   0  0  0  0  0  0  0  0  0  0  0  0
   12.1339  -16.5482   24.8407 C   0  0  1  0  0  0  0  0  0  0  0  0
   12.8114  -15.8798   23.6889 N   0  0  0  0  0  0  0  0  0  0  0  0
   12.4472  -16.5660   22.4533 C   0  0  0  0  0  0  0  0  0  0  0  0
   14.2874  -15.8455   23.8417 O   0  0  0  0  0  0  0  0  0  0  0  0
   15.1473  -16.5401   23.0092 O   0  0  0  0  0  0  0  0  0  0  0  0
  2  3  1  0
  2  1  1  1
  3  4  1  0
  4  5  1  0
  5  6  1  0
  6  7  1  0
  8  9  2  0
  8  2  1  0
 10 11  1  0
 11 13  1  0
 11 12  2  0
 13 14  1  0
 15 16  1  0
 15 14  1  0
 17 16  1  1
 17 18  1  0
 18  8  1  0
 19 17  1  0
 19 27  1  0
 20 19  2  0
 22 21  1  0
 22 24  1  0
 23 22  2  0
 26 25  1  6
 25 24  1  0
 26 27  1  0
 26 28  1  0
 28 30  2  0
 28 29  1  0
M  END
$$$$
