KRQ.pdb
     RDKit          3D

 30 29  0  0  1  0  0  0  0  0999 V2000
   11.1731  -20.1446   18.6603 N   0  0  0  0  0  0  0  0  0  0  0  0
   12.2366  -19.1650   18.7618 C   0  0  1  0  0  0  0  0  0  0  0  0
   12.4351  -18.4799   17.4437 C   0  0  0  0  0  0  0  0  0  0  0  0
   13.5161  -19.1308   16.6103 C   0  0  0  0  0  0  0  0  0  0  0  0
   14.5373  -18.1367   16.1229 C   0  0  0  0  0  0  0  0  0  0  0  0
   15.4969  -18.8902   15.2239 C   0  0  0  0  0  0  0  0  0  0  0  0
   16.5827  -17.9987   14.8698 N   0  0  0  0  0  0  0  0  0  0  0  0
   11.8850  -18.1213   19.7707 C   0  0  0  0  0  0  0  0  0  0  0  0
   12.6836  -17.2571   20.1631 O   0  0  0  0  0  0  0  0  0  0  0  0
    8.0710  -12.5243   21.8735 N   0  0  0  0  0  0  0  0  0  0  0  0
    7.6812  -12.9261   20.5650 C   0  0  0  0  0  0  0  0  0  0  0  0
    7.7135  -12.1189   19.5757 N   0  0  0  0  0  0  0  0  0  0  0  0
    7.2424  -14.2563   20.3360 N   0  0  0  0  0  0  0  0  0  0  0  0
    7.0312  -15.1224   21.4640 C   0  0  0  0  0  0  0  0  0  0  0  0
    8.3950  -15.5496   21.9852 C   0  0  0  0  0  0  0  0  0  0  0  0
    8.9282  -16.5547   21.0079 C   0  0  0  0  0  0  0  0  0  0  0  0
   10.2549  -17.1646   21.3836 C   0  0  2  0  0  0  0  0  0  0  0  0
   10.5718  -18.1075   20.3162 N   0  0  0  0  0  0  0  0  0  0  0  0
   10.1280  -17.8503   22.6836 C   0  0  0  0  0  0  0  0  0  0  0  0
    9.4126  -18.8514   22.9171 O   0  0  0  0  0  0  0  0  0  0  0  0
    7.4298  -12.2955   18.6079 N   0  0  0  0  0  0  0  0  0  0  0  0
   14.8075  -20.4110   27.4028 C   0  0  0  0  0  0  0  0  0  0  0  0
   14.2248  -19.9600   26.1651 O   0  0  0  0  0  0  0  0  0  0  0  0
   14.8794  -20.0477   25.0982 C   0  0  0  0  0  0  0  0  0  0  0  0
   12.8713  -19.4126   26.2301 C   0  0  0  0  0  0  0  0  0  0  0  0
   12.4769  -18.6457   25.0248 C   0  0  1  0  0  0  0  0  0  0  0  0
   11.0659  -18.1564   24.9801 N   0  0  0  0  0  0  0  0  0  0  0  0
   10.8766  -17.3446   23.7821 C   0  0  0  0  0  0  0  0  0  0  0  0
   10.6964  -17.3804   26.1902 O   0  0  0  0  0  0  0  0  0  0  0  0
   10.5795  -17.9520   27.4451 O   0  0  0  0  0  0  0  0  0  0  0  0
  2  3  1  0
  2  1  1  6
  3  4  1  0
  4  5  1  0
  5  6  1  0
  6  7  1  0
  8  9  2  0
  8  2  1  0
 10 11  1  0
 11 13  1  0
 11 12  2  0
 13 14  1  0
 15 16  1  0
 15 14  1  0
 17 16  1  6
 17 18  1  0
 18  8  1  0
 19 17  1  0
 19 27  1  0
 20 19  2  0
 22 21  1  0
 22 24  1  0
 23 22  2  0
 26 25  1  6
 25 24  1  0
 26 27  1  0
 26 28  1  0
 28 30  2  0
 28 29  1  0
M  END
$$$$
