KRQ.pdb
     RDKit          3D

 30 29  0  0  1  0  0  0  0  0999 V2000
    5.9136  -26.0212   17.9249 N   0  0  0  0  0  0  0  0  0  0  0  0
    6.1351  -25.5429   19.2751 C   0  0  1  0  0  0  0  0  0  0  0  0
    6.5361  -26.6792   20.1661 C   0  0  0  0  0  0  0  0  0  0  0  0
    5.6418  -27.8874   20.0012 C   0  0  0  0  0  0  0  0  0  0  0  0
    6.0590  -29.0316   20.8875 C   0  0  0  0  0  0  0  0  0  0  0  0
    5.0295  -30.1294   20.7097 C   0  0  0  0  0  0  0  0  0  0  0  0
    5.4558  -31.2809   21.4788 N   0  0  0  0  0  0  0  0  0  0  0  0
    7.2386  -24.5365   19.2936 C   0  0  0  0  0  0  0  0  0  0  0  0
    8.4269  -24.8250   19.0860 O   0  0  0  0  0  0  0  0  0  0  0  0
    4.6298  -19.8012   15.5909 N   0  0  0  0  0  0  0  0  0  0  0  0
    5.8702  -19.2519   16.0212 C   0  0  0  0  0  0  0  0  0  0  0  0
    6.6465  -18.6324   15.2180 N   0  0  0  0  0  0  0  0  0  0  0  0
    6.2703  -19.3869   17.3763 N   0  0  0  0  0  0  0  0  0  0  0  0
    7.5027  -18.7801   17.8007 C   0  0  0  0  0  0  0  0  0  0  0  0
    8.2710  -19.8079   18.6175 C   0  0  0  0  0  0  0  0  0  0  0  0
    7.3907  -21.0185   18.7145 C   0  0  0  0  0  0  0  0  0  0  0  0
    7.9800  -22.1727   19.4850 C   0  0  2  0  0  0  0  0  0  0  0  0
    6.9233  -23.1759   19.5617 N   0  0  0  0  0  0  0  0  0  0  0  0
    8.3792  -21.7117   20.8283 C   0  0  0  0  0  0  0  0  0  0  0  0
    7.6001  -21.3663   21.7460 O   0  0  0  0  0  0  0  0  0  0  0  0
    7.5933  -18.2865   15.3969 N   0  0  0  0  0  0  0  0  0  0  0  0
   13.7043  -23.6033   22.6549 C   0  0  0  0  0  0  0  0  0  0  0  0
   12.5426  -24.2199   23.2424 O   0  0  0  0  0  0  0  0  0  0  0  0
   12.5949  -25.4142   23.6236 C   0  0  0  0  0  0  0  0  0  0  0  0
   11.3422  -23.3947   23.3605 C   0  0  0  0  0  0  0  0  0  0  0  0
   11.4840  -22.0429   22.7697 C   0  0  2  0  0  0  0  0  0  0  0  0
   10.2161  -21.3096   22.4749 N   0  0  0  0  0  0  0  0  0  0  0  0
    9.7681  -21.6467   21.1274 C   0  0  0  0  0  0  0  0  0  0  0  0
   10.3662  -19.8394   22.6137 O   0  0  0  0  0  0  0  0  0  0  0  0
   10.5562  -19.2132   23.8330 O   0  0  0  0  0  0  0  0  0  0  0  0
  2  3  1  0
  2  1  1  6
  3  4  1  0
  4  5  1  0
  5  6  1  0
  6  7  1  0
  8  9  2  0
  8  2  1  0
 10 11  1  0
 11 13  1  0
 11 12  2  0
 13 14  1  0
 15 16  1  0
 15 14  1  0
 17 16  1  6
 17 18  1  0
 18  8  1  0
 19 17  1  0
 19 27  1  0
 20 19  2  0
 22 21  1  0
 22 24  1  0
 23 22  2  0
 26 25  1  1
 25 24  1  0
 26 27  1  0
 26 28  1  0
 28 30  2  0
 28 29  1  0
M  END
$$$$
