KRQ.pdb
     RDKit          3D

 30 29  0  0  1  0  0  0  0  0999 V2000
    6.2758  -21.7929   23.3083 N   0  0  0  0  0  0  0  0  0  0  0  0
    6.2478  -20.4951   23.9531 C   0  0  1  0  0  0  0  0  0  0  0  0
    6.5104  -20.6422   25.4212 C   0  0  0  0  0  0  0  0  0  0  0  0
    7.2783  -21.9032   25.7482 C   0  0  0  0  0  0  0  0  0  0  0  0
    7.6458  -21.9857   27.2066 C   0  0  0  0  0  0  0  0  0  0  0  0
    8.3490  -23.3122   27.4131 C   0  0  0  0  0  0  0  0  0  0  0  0
    8.9773  -23.2950   28.7185 N   0  0  0  0  0  0  0  0  0  0  0  0
    7.3099  -19.6116   23.3854 C   0  0  0  0  0  0  0  0  0  0  0  0
    8.3885  -20.0390   22.9466 O   0  0  0  0  0  0  0  0  0  0  0  0
    6.8312  -13.3411   18.0479 N   0  0  0  0  0  0  0  0  0  0  0  0
    7.7676  -12.7051   18.9106 C   0  0  0  0  0  0  0  0  0  0  0  0
    8.1549  -11.5038   18.7144 N   0  0  0  0  0  0  0  0  0  0  0  0
    8.2948  -13.4103   20.0237 N   0  0  0  0  0  0  0  0  0  0  0  0
    7.4489  -14.3406   20.7210 C   0  0  0  0  0  0  0  0  0  0  0  0
    8.2800  -14.9984   21.8121 C   0  0  0  0  0  0  0  0  0  0  0  0
    7.4086  -16.0473   22.4367 C   0  0  0  0  0  0  0  0  0  0  0  0
    8.1082  -17.3419   22.7649 C   0  0  2  0  0  0  0  0  0  0  0  0
    7.0848  -18.2082   23.3405 N   0  0  0  0  0  0  0  0  0  0  0  0
    9.1934  -17.0811   23.7296 C   0  0  0  0  0  0  0  0  0  0  0  0
    9.0466  -16.6784   24.9064 O   0  0  0  0  0  0  0  0  0  0  0  0
    8.8510  -10.9712   19.2435 N   0  0  0  0  0  0  0  0  0  0  0  0
   11.6185  -21.0877   27.0297 C   0  0  0  0  0  0  0  0  0  0  0  0
   12.2817  -20.2515   26.0622 O   0  0  0  0  0  0  0  0  0  0  0  0
   13.3671  -20.6240   25.5546 C   0  0  0  0  0  0  0  0  0  0  0  0
   11.6329  -18.9867   25.7233 C   0  0  0  0  0  0  0  0  0  0  0  0
   12.3065  -18.2408   24.6341 C   0  0  2  0  0  0  0  0  0  0  0  0
   11.6482  -16.9759   24.1881 N   0  0  0  0  0  0  0  0  0  0  0  0
   10.5328  -17.3005   23.3045 C   0  0  0  0  0  0  0  0  0  0  0  0
   12.5923  -16.0552   23.5068 O   0  0  0  0  0  0  0  0  0  0  0  0
   13.6369  -15.4271   24.1619 O   0  0  0  0  0  0  0  0  0  0  0  0
  2  3  1  0
  2  1  1  6
  3  4  1  0
  4  5  1  0
  5  6  1  0
  6  7  1  0
  8  9  2  0
  8  2  1  0
 10 11  1  0
 11 13  1  0
 11 12  2  0
 13 14  1  0
 15 16  1  0
 15 14  1  0
 17 16  1  1
 17 18  1  0
 18  8  1  0
 19 17  1  0
 19 27  1  0
 20 19  2  0
 22 21  1  0
 22 24  1  0
 23 22  2  0
 26 25  1  1
 25 24  1  0
 26 27  1  0
 26 28  1  0
 28 30  2  0
 28 29  1  0
M  END
$$$$
