KRQ.pdb
     RDKit          3D

 30 29  0  0  1  0  0  0  0  0999 V2000
    6.9131  -19.6362   20.3477 N   0  0  0  0  0  0  0  0  0  0  0  0
    8.1771  -19.2455   19.7556 C   0  0  1  0  0  0  0  0  0  0  0  0
    7.9737  -18.8342   18.3289 C   0  0  0  0  0  0  0  0  0  0  0  0
    6.7286  -19.4420   17.7233 C   0  0  0  0  0  0  0  0  0  0  0  0
    6.9483  -20.8620   17.2716 C   0  0  0  0  0  0  0  0  0  0  0  0
    5.6932  -21.2948   16.5407 C   0  0  0  0  0  0  0  0  0  0  0  0
    5.7712  -22.7231   16.3105 N   0  0  0  0  0  0  0  0  0  0  0  0
    8.7544  -18.0796   20.4893 C   0  0  0  0  0  0  0  0  0  0  0  0
    9.8201  -17.5326   20.1677 O   0  0  0  0  0  0  0  0  0  0  0  0
    9.5971  -12.5697   18.1199 N   0  0  0  0  0  0  0  0  0  0  0  0
    8.8157  -12.4332   19.3015 C   0  0  0  0  0  0  0  0  0  0  0  0
    8.7344  -11.3241   19.9300 N   0  0  0  0  0  0  0  0  0  0  0  0
    8.1009  -13.5496   19.8085 N   0  0  0  0  0  0  0  0  0  0  0  0
    7.8037  -13.6045   21.2141 C   0  0  0  0  0  0  0  0  0  0  0  0
    6.9981  -14.8690   21.4709 C   0  0  0  0  0  0  0  0  0  0  0  0
    7.5890  -15.5094   22.6917 C   0  0  0  0  0  0  0  0  0  0  0  0
    8.6788  -16.5146   22.4178 C   0  0  2  0  0  0  0  0  0  0  0  0
    8.0564  -17.5619   21.6150 N   0  0  0  0  0  0  0  0  0  0  0  0
    9.1846  -17.0492   23.6963 C   0  0  0  0  0  0  0  0  0  0  0  0
    8.4832  -17.5031   24.6293 O   0  0  0  0  0  0  0  0  0  0  0  0
    8.2363  -11.1289   20.8029 N   0  0  0  0  0  0  0  0  0  0  0  0
   12.6318  -20.4914   22.7661 C   0  0  0  0  0  0  0  0  0  0  0  0
   12.3258  -21.0076   24.0757 O   0  0  0  0  0  0  0  0  0  0  0  0
   12.2617  -22.2472   24.2590 C   0  0  0  0  0  0  0  0  0  0  0  0
   12.1016  -20.0295   25.1382 C   0  0  0  0  0  0  0  0  0  0  0  0
   12.2437  -18.6220   24.6964 C   0  0  2  0  0  0  0  0  0  0  0  0
   11.1524  -17.6848   25.1002 N   0  0  0  0  0  0  0  0  0  0  0  0
   10.5911  -17.0585   23.9074 C   0  0  0  0  0  0  0  0  0  0  0  0
   11.6199  -16.6475   26.0535 O   0  0  0  0  0  0  0  0  0  0  0  0
   12.0725  -16.9440   27.3272 O   0  0  0  0  0  0  0  0  0  0  0  0
  2  3  1  0
  2  1  1  1
  3  4  1  0
  4  5  1  0
  5  6  1  0
  6  7  1  0
  8  9  2  0
  8  2  1  0
 10 11  1  0
 11 13  1  0
 11 12  2  0
 13 14  1  0
 15 16  1  0
 15 14  1  0
 17 16  1  1
 17 18  1  0
 18  8  1  0
 19 17  1  0
 19 27  1  0
 20 19  2  0
 22 21  1  0
 22 24  1  0
 23 22  2  0
 26 25  1  6
 25 24  1  0
 26 27  1  0
 26 28  1  0
 28 30  2  0
 28 29  1  0
M  END
$$$$
