KRQ.pdb
     RDKit          3D

 30 29  0  0  1  0  0  0  0  0999 V2000
   11.1402  -19.8585   16.9884 N   0  0  0  0  0  0  0  0  0  0  0  0
   12.3239  -19.5933   17.7818 C   0  0  1  0  0  0  0  0  0  0  0  0
   13.3682  -18.9216   16.9426 C   0  0  0  0  0  0  0  0  0  0  0  0
   13.5227  -19.5679   15.5843 C   0  0  0  0  0  0  0  0  0  0  0  0
   12.7600  -18.8339   14.5128 C   0  0  0  0  0  0  0  0  0  0  0  0
   13.1230  -19.4770   13.1894 C   0  0  0  0  0  0  0  0  0  0  0  0
   12.4675  -18.7375   12.1299 N   0  0  0  0  0  0  0  0  0  0  0  0
   11.9929  -18.6801   18.9165 C   0  0  0  0  0  0  0  0  0  0  0  0
   12.8356  -18.2711   19.7295 O   0  0  0  0  0  0  0  0  0  0  0  0
    7.9612  -12.9235   21.3152 N   0  0  0  0  0  0  0  0  0  0  0  0
    7.6780  -13.1180   19.9340 C   0  0  0  0  0  0  0  0  0  0  0  0
    7.7798  -12.1681   19.0861 N   0  0  0  0  0  0  0  0  0  0  0  0
    7.2706  -14.3958   19.4696 N   0  0  0  0  0  0  0  0  0  0  0  0
    7.0336  -15.4406   20.4284 C   0  0  0  0  0  0  0  0  0  0  0  0
    8.3837  -15.9126   20.9464 C   0  0  0  0  0  0  0  0  0  0  0  0
    8.9592  -16.8025   19.8851 C   0  0  0  0  0  0  0  0  0  0  0  0
   10.3113  -17.3857   20.2090 C   0  0  2  0  0  0  0  0  0  0  0  0
   10.6474  -18.2512   19.0835 N   0  0  0  0  0  0  0  0  0  0  0  0
   10.2254  -18.1520   21.4667 C   0  0  0  0  0  0  0  0  0  0  0  0
    9.4994  -19.1526   21.6669 O   0  0  0  0  0  0  0  0  0  0  0  0
    7.5058  -12.1712   18.0997 N   0  0  0  0  0  0  0  0  0  0  0  0
   14.8971  -19.5774   24.8847 C   0  0  0  0  0  0  0  0  0  0  0  0
   13.8666  -20.0342   25.7815 O   0  0  0  0  0  0  0  0  0  0  0  0
   14.1670  -20.7591   26.7606 C   0  0  0  0  0  0  0  0  0  0  0  0
   12.4978  -19.6149   25.4873 C   0  0  0  0  0  0  0  0  0  0  0  0
   12.3679  -18.8275   24.2385 C   0  0  2  0  0  0  0  0  0  0  0  0
   10.9806  -18.4517   23.8305 N   0  0  0  0  0  0  0  0  0  0  0  0
   11.0311  -17.7328   22.5613 C   0  0  0  0  0  0  0  0  0  0  0  0
   10.2899  -17.6326   24.8577 O   0  0  0  0  0  0  0  0  0  0  0  0
    9.6739  -18.1806   25.9691 O   0  0  0  0  0  0  0  0  0  0  0  0
  2  3  1  0
  2  1  1  6
  3  4  1  0
  4  5  1  0
  5  6  1  0
  6  7  1  0
  8  9  2  0
  8  2  1  0
 10 11  1  0
 11 13  1  0
 11 12  2  0
 13 14  1  0
 15 16  1  0
 15 14  1  0
 17 16  1  6
 17 18  1  0
 18  8  1  0
 19 17  1  0
 19 27  1  0
 20 19  2  0
 22 21  1  0
 22 24  1  0
 23 22  2  0
 26 25  1  6
 25 24  1  0
 26 27  1  0
 26 28  1  0
 28 30  2  0
 28 29  1  0
M  END
$$$$
