KRQ.pdb
     RDKit          3D

 30 29  0  0  1  0  0  0  0  0999 V2000
    4.8252  -18.9008   23.7106 N   0  0  0  0  0  0  0  0  0  0  0  0
    6.0868  -19.5225   23.3601 C   0  0  1  0  0  0  0  0  0  0  0  0
    5.8737  -20.5620   22.3018 C   0  0  0  0  0  0  0  0  0  0  0  0
    4.6636  -21.4266   22.5752 C   0  0  0  0  0  0  0  0  0  0  0  0
    3.3836  -20.7784   22.1166 C   0  0  0  0  0  0  0  0  0  0  0  0
    2.2695  -21.7777   22.3546 C   0  0  0  0  0  0  0  0  0  0  0  0
    1.0074  -21.1297   22.0606 N   0  0  0  0  0  0  0  0  0  0  0  0
    7.0328  -18.5031   22.8152 C   0  0  0  0  0  0  0  0  0  0  0  0
    8.1657  -18.7819   22.3941 O   0  0  0  0  0  0  0  0  0  0  0  0
    7.9451  -15.1445   17.8247 N   0  0  0  0  0  0  0  0  0  0  0  0
    7.9310  -13.7497   18.1075 C   0  0  0  0  0  0  0  0  0  0  0  0
    7.5708  -12.8899   17.2343 N   0  0  0  0  0  0  0  0  0  0  0  0
    8.3244  -13.2849   19.3895 N   0  0  0  0  0  0  0  0  0  0  0  0
    8.3948  -14.2225   20.4772 C   0  0  0  0  0  0  0  0  0  0  0  0
    7.5248  -13.6920   21.6066 C   0  0  0  0  0  0  0  0  0  0  0  0
    6.7607  -14.8661   22.1426 C   0  0  0  0  0  0  0  0  0  0  0  0
    7.5642  -16.1332   22.2909 C   0  0  2  0  0  0  0  0  0  0  0  0
    6.6255  -17.1413   22.7720 N   0  0  0  0  0  0  0  0  0  0  0  0
    8.6545  -15.9111   23.2595 C   0  0  0  0  0  0  0  0  0  0  0  0
    8.5119  -15.6596   24.4781 O   0  0  0  0  0  0  0  0  0  0  0  0
    7.4637  -11.8785   17.3518 N   0  0  0  0  0  0  0  0  0  0  0  0
   10.7801  -19.5407   26.0938 C   0  0  0  0  0  0  0  0  0  0  0  0
   11.8083  -18.6051   26.4708 O   0  0  0  0  0  0  0  0  0  0  0  0
   12.4330  -18.7640   27.5474 C   0  0  0  0  0  0  0  0  0  0  0  0
   12.0668  -17.4981   25.5524 C   0  0  0  0  0  0  0  0  0  0  0  0
   10.9448  -17.2130   24.6270 C   0  0  1  0  0  0  0  0  0  0  0  0
   11.1063  -16.0284   23.7309 N   0  0  0  0  0  0  0  0  0  0  0  0
    9.9939  -15.9848   22.7870 C   0  0  0  0  0  0  0  0  0  0  0  0
   12.3989  -16.0415   23.0015 O   0  0  0  0  0  0  0  0  0  0  0  0
   13.6129  -15.7871   23.6151 O   0  0  0  0  0  0  0  0  0  0  0  0
  2  3  1  0
  2  1  1  6
  3  4  1  0
  4  5  1  0
  5  6  1  0
  6  7  1  0
  8  9  2  0
  8  2  1  0
 10 11  1  0
 11 13  1  0
 11 12  2  0
 13 14  1  0
 15 16  1  0
 15 14  1  0
 17 16  1  1
 17 18  1  0
 18  8  1  0
 19 17  1  0
 19 27  1  0
 20 19  2  0
 22 21  1  0
 22 24  1  0
 23 22  2  0
 26 25  1  1
 25 24  1  0
 26 27  1  0
 26 28  1  0
 28 30  2  0
 28 29  1  0
M  END
$$$$
