NFS.pdb
     RDKit          3D

 26 26  0  0  1  0  0  0  0  0999 V2000
   10.7736  -17.2300   17.4370 N   0  0  0  0  0  0  0  0  0  0  0  0
    9.8599  -16.7431   18.3894 C   0  0  0  0  0  0  0  0  0  0  0  0
    8.6334  -16.9121   18.1497 O   0  0  0  0  0  0  0  0  0  0  0  0
   10.3182  -16.0584   19.6261 C   0  0  0  0  0  0  0  0  0  0  0  0
    9.9746  -16.9001   20.8280 C   0  0  2  0  0  0  0  0  0  0  0  0
    8.5475  -17.1328   20.8490 N   0  0  0  0  0  0  0  0  0  0  0  0
   10.4011  -16.2971   22.0963 C   0  0  0  0  0  0  0  0  0  0  0  0
   11.6088  -15.9048   22.2453 O   0  0  0  0  0  0  0  0  0  0  0  0
    9.5792  -16.0975   23.2164 N   0  0  0  0  0  0  0  0  0  0  0  0
   10.0375  -15.7648   24.5466 C   0  0  1  0  0  0  0  0  0  0  0  0
    8.9909  -15.1956   25.4315 C   0  0  0  0  0  0  0  0  0  0  0  0
    9.4289  -14.7711   26.7559 C   0  0  0  0  0  0  0  0  0  0  0  0
    9.8867  -13.5340   27.1154 C   0  0  0  0  0  0  0  0  0  0  0  0
   10.2755  -13.2427   28.3974 C   0  0  0  0  0  0  0  0  0  0  0  0
   10.2277  -14.1911   29.4141 C   0  0  0  0  0  0  0  0  0  0  0  0
    9.7662  -15.4394   29.0533 C   0  0  0  0  0  0  0  0  0  0  0  0
    9.3737  -15.7412   27.7688 C   0  0  0  0  0  0  0  0  0  0  0  0
   10.8470  -16.8514   25.1347 C   0  0  0  0  0  0  0  0  0  0  0  0
   10.3622  -18.0016   25.2636 O   0  0  0  0  0  0  0  0  0  0  0  0
   14.8826  -16.6971   25.1118 O   0  0  0  0  0  0  0  0  0  0  0  0
   14.2220  -17.9313   25.1291 C   0  0  0  0  0  0  0  0  0  0  0  0
   12.9922  -17.7743   26.0199 C   0  0  2  0  0  0  0  0  0  0  0  0
   12.1824  -16.6554   25.5710 N   0  0  0  0  0  0  0  0  0  0  0  0
   13.3646  -17.5742   27.4228 C   0  0  0  0  0  0  0  0  0  0  0  0
   14.0927  -18.5292   28.0935 O   0  0  0  0  0  0  0  0  0  0  0  0
   13.0239  -16.5331   28.0262 O   0  0  0  0  0  0  0  0  0  0  0  0
  1  2  1  0
  2  3  2  0
  4  2  1  0
  4  5  1  0
  5  6  1  1
  7  5  1  0
  7  8  2  0
  9  7  1  0
 10  9  1  0
 10 11  1  1
 12 17  2  0
 12 11  1  0
 13 12  1  0
 14 15  1  0
 14 13  2  0
 15 16  2  0
 16 17  1  0
 18 10  1  0
 19 18  2  0
 21 20  1  0
 22 21  1  6
 22 23  1  0
 23 18  1  0
 24 25  1  0
 24 22  1  0
 26 24  2  0
M  END
$$$$
