NFS.pdb
     RDKit          3D

 26 26  0  0  1  0  0  0  0  0999 V2000
    8.5013  -16.9200   14.5748 N   0  0  0  0  0  0  0  0  0  0  0  0
    9.6020  -16.9341   15.4507 C   0  0  0  0  0  0  0  0  0  0  0  0
   10.6567  -17.4912   15.0414 O   0  0  0  0  0  0  0  0  0  0  0  0
    9.5274  -16.3191   16.8015 C   0  0  0  0  0  0  0  0  0  0  0  0
    9.9042  -17.3399   17.8442 C   0  0  2  0  0  0  0  0  0  0  0  0
    8.8510  -18.3260   17.9416 N   0  0  0  0  0  0  0  0  0  0  0  0
   10.1600  -16.7503   19.1637 C   0  0  0  0  0  0  0  0  0  0  0  0
   11.1713  -15.9880   19.3399 O   0  0  0  0  0  0  0  0  0  0  0  0
    9.3701  -16.9471   20.3070 N   0  0  0  0  0  0  0  0  0  0  0  0
    9.6273  -16.3840   21.6135 C   0  0  1  0  0  0  0  0  0  0  0  0
    8.4684  -15.6807   22.2173 C   0  0  0  0  0  0  0  0  0  0  0  0
    7.8565  -14.6346   21.4064 C   0  0  0  0  0  0  0  0  0  0  0  0
    6.7377  -14.7434   20.6283 C   0  0  0  0  0  0  0  0  0  0  0  0
    6.2472  -13.6890   19.9020 C   0  0  0  0  0  0  0  0  0  0  0  0
    6.8600  -12.4401   19.9127 C   0  0  0  0  0  0  0  0  0  0  0  0
    7.9886  -12.3286   20.6970 C   0  0  0  0  0  0  0  0  0  0  0  0
    8.4884  -13.3815   21.4296 C   0  0  0  0  0  0  0  0  0  0  0  0
   10.3208  -17.3437   22.4966 C   0  0  0  0  0  0  0  0  0  0  0  0
    9.7978  -18.4544   22.7569 O   0  0  0  0  0  0  0  0  0  0  0  0
   14.2373  -16.7585   23.8789 O   0  0  0  0  0  0  0  0  0  0  0  0
   13.7740  -18.0416   23.5648 C   0  0  0  0  0  0  0  0  0  0  0  0
   12.2780  -18.0697   23.8676 C   0  0  2  0  0  0  0  0  0  0  0  0
   11.5838  -17.0665   23.0795 N   0  0  0  0  0  0  0  0  0  0  0  0
   12.0113  -17.8419   25.2902 C   0  0  0  0  0  0  0  0  0  0  0  0
   12.5453  -18.6790   26.2420 O   0  0  0  0  0  0  0  0  0  0  0  0
   11.2947  -16.8840   25.6548 O   0  0  0  0  0  0  0  0  0  0  0  0
  1  2  1  0
  2  3  2  0
  4  2  1  0
  4  5  1  0
  5  6  1  1
  7  5  1  0
  7  8  2  0
  9  7  1  0
 10  9  1  0
 10 11  1  1
 12 17  2  0
 12 11  1  0
 13 12  1  0
 14 15  1  0
 14 13  2  0
 15 16  2  0
 16 17  1  0
 18 10  1  0
 19 18  2  0
 21 20  1  0
 22 21  1  1
 22 23  1  0
 23 18  1  0
 24 25  1  0
 24 22  1  0
 26 24  2  0
M  END
$$$$
