NFS.pdb
     RDKit          3D

 26 26  0  0  1  0  0  0  0  0999 V2000
    9.4562  -16.7282   17.9789 N   0  0  0  0  0  0  0  0  0  0  0  0
    8.6501  -15.7283   18.5529 C   0  0  0  0  0  0  0  0  0  0  0  0
    7.6692  -15.3192   17.8741 O   0  0  0  0  0  0  0  0  0  0  0  0
    8.9402  -15.1763   19.9017 C   0  0  0  0  0  0  0  0  0  0  0  0
    8.5329  -16.1736   20.9555 C   0  0  2  0  0  0  0  0  0  0  0  0
    7.1006  -16.3640   20.8969 N   0  0  0  0  0  0  0  0  0  0  0  0
    8.9287  -15.7752   22.3115 C   0  0  0  0  0  0  0  0  0  0  0  0
   10.0987  -15.3062   22.5258 O   0  0  0  0  0  0  0  0  0  0  0  0
    8.1152  -15.8605   23.4520 N   0  0  0  0  0  0  0  0  0  0  0  0
    8.5807  -15.8347   24.8204 C   0  0  1  0  0  0  0  0  0  0  0  0
    7.5344  -15.5000   25.8182 C   0  0  0  0  0  0  0  0  0  0  0  0
    7.1223  -14.1025   25.8746 C   0  0  0  0  0  0  0  0  0  0  0  0
    5.8431  -13.6205   25.8939 C   0  0  0  0  0  0  0  0  0  0  0  0
    5.5684  -12.2783   25.9473 C   0  0  0  0  0  0  0  0  0  0  0  0
    6.5779  -11.3219   25.9851 C   0  0  0  0  0  0  0  0  0  0  0  0
    7.8688  -11.8061   25.9657 C   0  0  0  0  0  0  0  0  0  0  0  0
    8.1543  -13.1518   25.9122 C   0  0  0  0  0  0  0  0  0  0  0  0
    9.4106  -17.0144   25.1389 C   0  0  0  0  0  0  0  0  0  0  0  0
    8.8892  -18.1538   25.2069 O   0  0  0  0  0  0  0  0  0  0  0  0
   13.6175  -16.9325   25.2913 O   0  0  0  0  0  0  0  0  0  0  0  0
   12.9079  -18.0458   24.8258 C   0  0  0  0  0  0  0  0  0  0  0  0
   11.6025  -18.1130   25.6145 C   0  0  2  0  0  0  0  0  0  0  0  0
   10.8060  -16.9221   25.3761 N   0  0  0  0  0  0  0  0  0  0  0  0
   11.8476  -18.2553   27.0520 C   0  0  0  0  0  0  0  0  0  0  0  0
   12.5585  -19.3294   27.5347 O   0  0  0  0  0  0  0  0  0  0  0  0
   11.4127  -17.4020   27.8562 O   0  0  0  0  0  0  0  0  0  0  0  0
  1  2  1  0
  2  3  2  0
  4  2  1  0
  4  5  1  0
  5  6  1  1
  7  5  1  0
  7  8  2  0
  9  7  1  0
 10  9  1  0
 10 11  1  1
 12 17  2  0
 12 11  1  0
 13 12  1  0
 14 15  1  0
 14 13  2  0
 15 16  2  0
 16 17  1  0
 18 10  1  0
 19 18  2  0
 21 20  1  0
 22 21  1  6
 22 23  1  0
 23 18  1  0
 24 25  1  0
 24 22  1  0
 26 24  2  0
M  END
$$$$
