NFS.pdb
     RDKit          3D

 26 26  0  0  1  0  0  0  0  0999 V2000
   11.2444  -16.3533   17.2244 N   0  0  0  0  0  0  0  0  0  0  0  0
   11.2253  -17.0711   18.4341 C   0  0  0  0  0  0  0  0  0  0  0  0
   11.1794  -18.3289   18.3567 O   0  0  0  0  0  0  0  0  0  0  0  0
   11.2579  -16.3787   19.7486 C   0  0  0  0  0  0  0  0  0  0  0  0
   10.2309  -16.9881   20.6677 C   0  0  2  0  0  0  0  0  0  0  0  0
    8.9701  -17.0884   19.9664 N   0  0  0  0  0  0  0  0  0  0  0  0
   10.0507  -16.2336   21.9136 C   0  0  0  0  0  0  0  0  0  0  0  0
   11.0619  -15.9495   22.6427 O   0  0  0  0  0  0  0  0  0  0  0  0
    8.8229  -15.7697   22.4107 N   0  0  0  0  0  0  0  0  0  0  0  0
    8.6207  -15.1383   23.6954 C   0  0  1  0  0  0  0  0  0  0  0  0
    7.5499  -14.1111   23.7124 C   0  0  0  0  0  0  0  0  0  0  0  0
    7.2802  -13.4835   25.0006 C   0  0  0  0  0  0  0  0  0  0  0  0
    6.3154  -13.8355   25.9031 C   0  0  0  0  0  0  0  0  0  0  0  0
    6.1488  -13.1717   27.0911 C   0  0  0  0  0  0  0  0  0  0  0  0
    6.9539  -12.0961   27.4519 C   0  0  0  0  0  0  0  0  0  0  0  0
    7.9275  -11.7397   26.5429 C   0  0  0  0  0  0  0  0  0  0  0  0
    8.1023  -12.4001   25.3477 C   0  0  0  0  0  0  0  0  0  0  0  0
    8.5712  -16.1282   24.7906 C   0  0  0  0  0  0  0  0  0  0  0  0
    7.5683  -16.8701   24.9267 O   0  0  0  0  0  0  0  0  0  0  0  0
   11.4862  -18.2911   25.8439 O   0  0  0  0  0  0  0  0  0  0  0  0
   10.1965  -18.5983   26.2935 C   0  0  0  0  0  0  0  0  0  0  0  0
    9.5590  -17.2941   26.7660 C   0  0  2  0  0  0  0  0  0  0  0  0
    9.6303  -16.2886   25.7204 N   0  0  0  0  0  0  0  0  0  0  0  0
   10.2077  -16.7845   27.9769 C   0  0  0  0  0  0  0  0  0  0  0  0
   10.2797  -17.5625   29.1090 O   0  0  0  0  0  0  0  0  0  0  0  0
   10.7028  -15.6361   27.9948 O   0  0  0  0  0  0  0  0  0  0  0  0
  1  2  1  0
  2  3  2  0
  4  2  1  0
  4  5  1  0
  5  6  1  6
  7  5  1  0
  7  8  2  0
  9  7  1  0
 10  9  1  0
 10 11  1  6
 12 17  2  0
 12 11  1  0
 13 12  1  0
 14 15  1  0
 14 13  2  0
 15 16  2  0
 16 17  1  0
 18 10  1  0
 19 18  2  0
 21 20  1  0
 22 21  1  6
 22 23  1  0
 23 18  1  0
 24 25  1  0
 24 22  1  0
 26 24  2  0
M  END
$$$$
