NFS.pdb
     RDKit          3D

 26 26  0  0  1  0  0  0  0  0999 V2000
   10.9199  -18.3309   17.2226 N   0  0  0  0  0  0  0  0  0  0  0  0
   10.0666  -18.4111   18.3381 C   0  0  0  0  0  0  0  0  0  0  0  0
    9.0932  -19.2092   18.2624 O   0  0  0  0  0  0  0  0  0  0  0  0
   10.3004  -17.5910   19.5552 C   0  0  0  0  0  0  0  0  0  0  0  0
    8.9946  -17.0099   20.0328 C   0  0  2  0  0  0  0  0  0  0  0  0
    8.4205  -16.2069   18.9760 N   0  0  0  0  0  0  0  0  0  0  0  0
    9.1323  -16.2054   21.2527 C   0  0  0  0  0  0  0  0  0  0  0  0
   10.2821  -15.7756   21.6105 O   0  0  0  0  0  0  0  0  0  0  0  0
    8.0804  -15.8421   22.1078 N   0  0  0  0  0  0  0  0  0  0  0  0
    8.2183  -15.1050   23.3438 C   0  0  1  0  0  0  0  0  0  0  0  0
    7.1114  -14.1555   23.6185 C   0  0  0  0  0  0  0  0  0  0  0  0
    7.1683  -13.4523   24.8947 C   0  0  0  0  0  0  0  0  0  0  0  0
    7.9753  -12.3975   25.2193 C   0  0  0  0  0  0  0  0  0  0  0  0
    7.9467  -11.8093   26.4574 C   0  0  0  0  0  0  0  0  0  0  0  0
    7.0920  -12.2513   27.4622 C   0  0  0  0  0  0  0  0  0  0  0  0
    6.2773  -13.3150   27.1365 C   0  0  0  0  0  0  0  0  0  0  0  0
    6.2990  -13.9120   25.8963 C   0  0  0  0  0  0  0  0  0  0  0  0
    8.5954  -15.9860   24.4678 C   0  0  0  0  0  0  0  0  0  0  0  0
    7.8435  -16.9307   24.8099 O   0  0  0  0  0  0  0  0  0  0  0  0
   12.4502  -16.1468   25.7439 O   0  0  0  0  0  0  0  0  0  0  0  0
   11.6410  -17.2836   25.8570 C   0  0  0  0  0  0  0  0  0  0  0  0
   10.2268  -16.8033   26.1731 C   0  0  2  0  0  0  0  0  0  0  0  0
    9.7990  -15.8149   25.1986 N   0  0  0  0  0  0  0  0  0  0  0  0
   10.1402  -16.2300   27.5187 C   0  0  0  0  0  0  0  0  0  0  0  0
   10.4702  -16.9847   28.6203 O   0  0  0  0  0  0  0  0  0  0  0  0
    9.7647  -15.0481   27.6806 O   0  0  0  0  0  0  0  0  0  0  0  0
  1  2  1  0
  2  3  2  0
  4  2  1  0
  4  5  1  0
  5  6  1  6
  7  5  1  0
  7  8  2  0
  9  7  1  0
 10  9  1  0
 10 11  1  1
 12 17  2  0
 12 11  1  0
 13 12  1  0
 14 15  1  0
 14 13  2  0
 15 16  2  0
 16 17  1  0
 18 10  1  0
 19 18  2  0
 21 20  1  0
 22 21  1  6
 22 23  1  0
 23 18  1  0
 24 25  1  0
 24 22  1  0
 26 24  2  0
M  END
$$$$
