NFS.pdb
     RDKit          3D

 26 26  0  0  1  0  0  0  0  0999 V2000
    8.4633  -13.7589   16.9349 N   0  0  0  0  0  0  0  0  0  0  0  0
    8.0138  -14.6023   17.9671 C   0  0  0  0  0  0  0  0  0  0  0  0
    6.9877  -15.2982   17.7365 O   0  0  0  0  0  0  0  0  0  0  0  0
    8.7167  -14.6720   19.2745 C   0  0  0  0  0  0  0  0  0  0  0  0
    7.8258  -14.1219   20.3584 C   0  0  2  0  0  0  0  0  0  0  0  0
    7.6523  -12.7012   20.1512 N   0  0  0  0  0  0  0  0  0  0  0  0
    8.3403  -14.3703   21.7104 C   0  0  0  0  0  0  0  0  0  0  0  0
    9.4890  -13.9238   22.0510 O   0  0  0  0  0  0  0  0  0  0  0  0
    7.6681  -15.0821   22.7160 N   0  0  0  0  0  0  0  0  0  0  0  0
    8.1728  -15.3358   24.0468 C   0  0  1  0  0  0  0  0  0  0  0  0
    7.1775  -15.1346   25.1290 C   0  0  0  0  0  0  0  0  0  0  0  0
    6.9744  -13.7595   25.5692 C   0  0  0  0  0  0  0  0  0  0  0  0
    5.8373  -13.0117   25.4388 C   0  0  0  0  0  0  0  0  0  0  0  0
    5.7561  -11.7199   25.8908 C   0  0  0  0  0  0  0  0  0  0  0  0
    6.8294  -11.0891   26.5118 C   0  0  0  0  0  0  0  0  0  0  0  0
    7.9771  -11.8417   26.6442 C   0  0  0  0  0  0  0  0  0  0  0  0
    8.0679  -13.1393   26.1935 C   0  0  0  0  0  0  0  0  0  0  0  0
    8.9374  -16.5980   24.1111 C   0  0  0  0  0  0  0  0  0  0  0  0
    8.3636  -17.6953   23.9078 O   0  0  0  0  0  0  0  0  0  0  0  0
   13.0552  -16.6699   24.4477 O   0  0  0  0  0  0  0  0  0  0  0  0
   12.4239  -17.7602   23.8373 C   0  0  0  0  0  0  0  0  0  0  0  0
   11.0411  -17.8952   24.4700 C   0  0  2  0  0  0  0  0  0  0  0  0
   10.3263  -16.6330   24.3969 N   0  0  0  0  0  0  0  0  0  0  0  0
   11.1274  -18.3259   25.8678 C   0  0  0  0  0  0  0  0  0  0  0  0
   11.8434  -19.4502   26.2076 O   0  0  0  0  0  0  0  0  0  0  0  0
   10.5505  -17.6764   26.7674 O   0  0  0  0  0  0  0  0  0  0  0  0
  1  2  1  0
  2  3  2  0
  4  2  1  0
  4  5  1  0
  5  6  1  6
  7  5  1  0
  7  8  2  0
  9  7  1  0
 10  9  1  0
 10 11  1  1
 12 17  2  0
 12 11  1  0
 13 12  1  0
 14 15  1  0
 14 13  2  0
 15 16  2  0
 16 17  1  0
 18 10  1  0
 19 18  2  0
 21 20  1  0
 22 21  1  1
 22 23  1  0
 23 18  1  0
 24 25  1  0
 24 22  1  0
 26 24  2  0
M  END
$$$$
