NFS.pdb
     RDKit          3D

 26 26  0  0  1  0  0  0  0  0999 V2000
   11.3496  -15.1057   19.2525 N   0  0  0  0  0  0  0  0  0  0  0  0
   10.0527  -15.2443   19.7797 C   0  0  0  0  0  0  0  0  0  0  0  0
    9.1417  -15.5971   18.9824 O   0  0  0  0  0  0  0  0  0  0  0  0
    9.7663  -14.9866   21.2149 C   0  0  0  0  0  0  0  0  0  0  0  0
    9.6445  -16.2964   21.9502 C   0  0  2  0  0  0  0  0  0  0  0  0
    8.4505  -16.9793   21.5036 N   0  0  0  0  0  0  0  0  0  0  0  0
    9.6137  -16.1390   23.4091 C   0  0  0  0  0  0  0  0  0  0  0  0
   10.6178  -15.6365   24.0208 O   0  0  0  0  0  0  0  0  0  0  0  0
    8.5434  -16.5012   24.2416 N   0  0  0  0  0  0  0  0  0  0  0  0
    8.5500  -16.4562   25.6866 C   0  0  1  0  0  0  0  0  0  0  0  0
    7.3491  -15.8230   26.2861 C   0  0  0  0  0  0  0  0  0  0  0  0
    7.2520  -14.3740   26.1545 C   0  0  0  0  0  0  0  0  0  0  0  0
    6.4796  -13.6769   25.2678 C   0  0  0  0  0  0  0  0  0  0  0  0
    6.4657  -12.3064   25.2305 C   0  0  0  0  0  0  0  0  0  0  0  0
    7.2392  -11.5391   26.0956 C   0  0  0  0  0  0  0  0  0  0  0  0
    8.0189  -12.2406   26.9907 C   0  0  0  0  0  0  0  0  0  0  0  0
    8.0394  -13.6164   27.0356 C   0  0  0  0  0  0  0  0  0  0  0  0
    8.9464  -17.7525   26.2732 C   0  0  0  0  0  0  0  0  0  0  0  0
    8.1464  -18.7193   26.2681 O   0  0  0  0  0  0  0  0  0  0  0  0
   12.6634  -19.1423   26.3389 O   0  0  0  0  0  0  0  0  0  0  0  0
   11.5606  -19.9856   26.5188 C   0  0  0  0  0  0  0  0  0  0  0  0
   10.5747  -19.2545   27.4266 C   0  0  2  0  0  0  0  0  0  0  0  0
   10.2218  -17.9663   26.8560 N   0  0  0  0  0  0  0  0  0  0  0  0
   11.1233  -19.0580   28.7709 C   0  0  0  0  0  0  0  0  0  0  0  0
   11.3013  -17.7896   29.2724 O   0  0  0  0  0  0  0  0  0  0  0  0
   11.4363  -20.0415   29.4772 O   0  0  0  0  0  0  0  0  0  0  0  0
  1  2  1  0
  2  3  2  0
  4  2  1  0
  4  5  1  0
  5  6  1  6
  7  5  1  0
  7  8  2  0
  9  7  1  0
 10  9  1  0
 10 11  1  1
 12 17  2  0
 12 11  1  0
 13 12  1  0
 14 15  1  0
 14 13  2  0
 15 16  2  0
 16 17  1  0
 18 10  1  0
 19 18  2  0
 21 20  1  0
 22 21  1  6
 22 23  1  0
 23 18  1  0
 24 25  1  0
 24 22  1  0
 26 24  2  0
M  END
$$$$
