NFS.pdb
     RDKit          3D

 26 26  0  0  1  0  0  0  0  0999 V2000
   12.5581  -18.2724   18.3642 N   0  0  0  0  0  0  0  0  0  0  0  0
   11.3862  -17.5099   18.5197 C   0  0  0  0  0  0  0  0  0  0  0  0
   10.4812  -17.6619   17.6548 O   0  0  0  0  0  0  0  0  0  0  0  0
   11.2195  -16.5648   19.6544 C   0  0  0  0  0  0  0  0  0  0  0  0
   10.1516  -17.0761   20.5867 C   0  0  2  0  0  0  0  0  0  0  0  0
    8.8865  -17.1015   19.8867 N   0  0  0  0  0  0  0  0  0  0  0  0
   10.0275  -16.2810   21.8141 C   0  0  0  0  0  0  0  0  0  0  0  0
   11.0702  -15.9765   22.4886 O   0  0  0  0  0  0  0  0  0  0  0  0
    8.8234  -15.7975   22.3491 N   0  0  0  0  0  0  0  0  0  0  0  0
    8.6769  -15.1350   23.6256 C   0  0  1  0  0  0  0  0  0  0  0  0
    7.6193  -14.0944   23.6589 C   0  0  0  0  0  0  0  0  0  0  0  0
    7.4399  -13.3993   24.9281 C   0  0  0  0  0  0  0  0  0  0  0  0
    8.3163  -12.5379   25.5271 C   0  0  0  0  0  0  0  0  0  0  0  0
    8.0445  -11.9372   26.7292 C   0  0  0  0  0  0  0  0  0  0  0  0
    6.8563  -12.1684   27.4149 C   0  0  0  0  0  0  0  0  0  0  0  0
    5.9711  -13.0370   26.8122 C   0  0  0  0  0  0  0  0  0  0  0  0
    6.2353  -13.6448   25.6056 C   0  0  0  0  0  0  0  0  0  0  0  0
    8.6570  -16.0994   24.7442 C   0  0  0  0  0  0  0  0  0  0  0  0
    7.6508  -16.8246   24.9352 O   0  0  0  0  0  0  0  0  0  0  0  0
   11.7578  -18.1200   25.8353 O   0  0  0  0  0  0  0  0  0  0  0  0
   10.4698  -18.5185   26.2122 C   0  0  0  0  0  0  0  0  0  0  0  0
    9.7261  -17.2683   26.6750 C   0  0  2  0  0  0  0  0  0  0  0  0
    9.7488  -16.2531   25.6365 N   0  0  0  0  0  0  0  0  0  0  0  0
   10.3052  -16.7205   27.9044 C   0  0  0  0  0  0  0  0  0  0  0  0
   10.4249  -17.5048   29.0280 O   0  0  0  0  0  0  0  0  0  0  0  0
   10.6966  -15.5333   27.9459 O   0  0  0  0  0  0  0  0  0  0  0  0
  1  2  1  0
  2  3  2  0
  4  2  1  0
  4  5  1  0
  5  6  1  6
  7  5  1  0
  7  8  2  0
  9  7  1  0
 10  9  1  0
 10 11  1  6
 12 17  2  0
 12 11  1  0
 13 12  1  0
 14 15  1  0
 14 13  2  0
 15 16  2  0
 16 17  1  0
 18 10  1  0
 19 18  2  0
 21 20  1  0
 22 21  1  6
 22 23  1  0
 23 18  1  0
 24 25  1  0
 24 22  1  0
 26 24  2  0
M  END
$$$$
