NFS.pdb
     RDKit          3D

 26 26  0  0  1  0  0  0  0  0999 V2000
    7.7498  -19.4779   18.9200 N   0  0  0  0  0  0  0  0  0  0  0  0
    9.0772  -19.2719   19.3378 C   0  0  0  0  0  0  0  0  0  0  0  0
    9.9919  -19.6914   18.5777 O   0  0  0  0  0  0  0  0  0  0  0  0
    9.3907  -18.5893   20.6200 C   0  0  0  0  0  0  0  0  0  0  0  0
    9.4074  -17.0973   20.4085 C   0  0  2  0  0  0  0  0  0  0  0  0
   10.5457  -16.7496   19.5872 N   0  0  0  0  0  0  0  0  0  0  0  0
    9.4458  -16.3365   21.6631 C   0  0  0  0  0  0  0  0  0  0  0  0
   10.5387  -16.2373   22.3192 O   0  0  0  0  0  0  0  0  0  0  0  0
    8.3529  -15.6750   22.2443 N   0  0  0  0  0  0  0  0  0  0  0  0
    8.3564  -15.0168   23.5314 C   0  0  1  0  0  0  0  0  0  0  0  0
    7.3070  -13.9800   23.6931 C   0  0  0  0  0  0  0  0  0  0  0  0
    7.1836  -13.3906   25.0211 C   0  0  0  0  0  0  0  0  0  0  0  0
    6.2947  -13.7410   25.9990 C   0  0  0  0  0  0  0  0  0  0  0  0
    6.2658  -13.1155   27.2187 C   0  0  0  0  0  0  0  0  0  0  0  0
    7.1420  -12.0828   27.5367 C   0  0  0  0  0  0  0  0  0  0  0  0
    8.0393  -11.7281   26.5516 C   0  0  0  0  0  0  0  0  0  0  0  0
    8.0758  -12.3503   25.3241 C   0  0  0  0  0  0  0  0  0  0  0  0
    8.4719  -15.9846   24.6412 C   0  0  0  0  0  0  0  0  0  0  0  0
    7.5869  -16.8577   24.8127 O   0  0  0  0  0  0  0  0  0  0  0  0
   11.7682  -17.5633   25.6679 O   0  0  0  0  0  0  0  0  0  0  0  0
   10.5725  -18.1305   26.1246 C   0  0  0  0  0  0  0  0  0  0  0  0
    9.6757  -16.9850   26.5874 C   0  0  2  0  0  0  0  0  0  0  0  0
    9.5639  -15.9783   25.5465 N   0  0  0  0  0  0  0  0  0  0  0  0
   10.1838  -16.3638   27.8132 C   0  0  0  0  0  0  0  0  0  0  0  0
   10.3952  -17.1208   28.9421 O   0  0  0  0  0  0  0  0  0  0  0  0
   10.4303  -15.1382   27.8470 O   0  0  0  0  0  0  0  0  0  0  0  0
  1  2  1  0
  2  3  2  0
  4  2  1  0
  4  5  1  0
  5  6  1  6
  7  5  1  0
  7  8  2  0
  9  7  1  0
 10  9  1  0
 10 11  1  1
 12 17  2  0
 12 11  1  0
 13 12  1  0
 14 15  1  0
 14 13  2  0
 15 16  2  0
 16 17  1  0
 18 10  1  0
 19 18  2  0
 21 20  1  0
 22 21  1  6
 22 23  1  0
 23 18  1  0
 24 25  1  0
 24 22  1  0
 26 24  2  0
M  END
$$$$
