NFS.pdb
     RDKit          3D

 26 26  0  0  1  0  0  0  0  0999 V2000
   10.5377  -18.7691   18.7611 N   0  0  0  0  0  0  0  0  0  0  0  0
   11.1909  -17.5236   18.7262 C   0  0  0  0  0  0  0  0  0  0  0  0
   11.9291  -17.2882   17.7313 O   0  0  0  0  0  0  0  0  0  0  0  0
   11.0198  -16.5262   19.8144 C   0  0  0  0  0  0  0  0  0  0  0  0
   10.1902  -17.1226   20.9221 C   0  0  2  0  0  0  0  0  0  0  0  0
    8.8852  -17.4661   20.4021 N   0  0  0  0  0  0  0  0  0  0  0  0
   10.0478  -16.2326   22.0804 C   0  0  0  0  0  0  0  0  0  0  0  0
   11.0758  -15.6552   22.5752 O   0  0  0  0  0  0  0  0  0  0  0  0
    8.8406  -15.9360   22.7320 N   0  0  0  0  0  0  0  0  0  0  0  0
    8.7063  -15.1406   23.9318 C   0  0  1  0  0  0  0  0  0  0  0  0
    7.4872  -14.2955   23.9742 C   0  0  0  0  0  0  0  0  0  0  0  0
    7.2450  -13.5773   25.2199 C   0  0  0  0  0  0  0  0  0  0  0  0
    6.4359  -13.9655   26.2513 C   0  0  0  0  0  0  0  0  0  0  0  0
    6.2800  -13.2076   27.3831 C   0  0  0  0  0  0  0  0  0  0  0  0
    6.9376  -11.9933   27.5516 C   0  0  0  0  0  0  0  0  0  0  0  0
    7.7540  -11.6001   26.5123 C   0  0  0  0  0  0  0  0  0  0  0  0
    7.9168  -12.3543   25.3722 C   0  0  0  0  0  0  0  0  0  0  0  0
    8.9736  -15.9348   25.1481 C   0  0  0  0  0  0  0  0  0  0  0  0
    8.2083  -16.8763   25.4687 O   0  0  0  0  0  0  0  0  0  0  0  0
   12.6854  -16.2972   26.4834 O   0  0  0  0  0  0  0  0  0  0  0  0
   11.7471  -17.2923   26.7821 C   0  0  0  0  0  0  0  0  0  0  0  0
   10.4220  -16.5926   27.0735 C   0  0  2  0  0  0  0  0  0  0  0  0
   10.0834  -15.6814   25.9943 N   0  0  0  0  0  0  0  0  0  0  0  0
   10.4689  -15.8539   28.3380 C   0  0  0  0  0  0  0  0  0  0  0  0
   10.7542  -16.5053   29.5154 O   0  0  0  0  0  0  0  0  0  0  0  0
   10.2494  -14.6228   28.3609 O   0  0  0  0  0  0  0  0  0  0  0  0
  1  2  1  0
  2  3  2  0
  4  2  1  0
  4  5  1  0
  5  6  1  6
  7  5  1  0
  7  8  2  0
  9  7  1  0
 10  9  1  0
 10 11  1  1
 12 17  2  0
 12 11  1  0
 13 12  1  0
 14 15  1  0
 14 13  2  0
 15 16  2  0
 16 17  1  0
 18 10  1  0
 19 18  2  0
 21 20  1  0
 22 21  1  6
 22 23  1  0
 23 18  1  0
 24 25  1  0
 24 22  1  0
 26 24  2  0
M  END
$$$$
