NFS.pdb
     RDKit          3D

 26 26  0  0  1  0  0  0  0  0999 V2000
    8.5807  -19.8163   19.0009 N   0  0  0  0  0  0  0  0  0  0  0  0
    9.7770  -19.1369   19.2949 C   0  0  0  0  0  0  0  0  0  0  0  0
   10.6767  -19.1463   18.4114 O   0  0  0  0  0  0  0  0  0  0  0  0
    9.9743  -18.4372   20.5910 C   0  0  0  0  0  0  0  0  0  0  0  0
    9.7983  -16.9531   20.3972 C   0  0  2  0  0  0  0  0  0  0  0  0
   10.8523  -16.4609   19.5381 N   0  0  0  0  0  0  0  0  0  0  0  0
    9.7909  -16.2028   21.6586 C   0  0  0  0  0  0  0  0  0  0  0  0
   10.8802  -16.0222   22.3032 O   0  0  0  0  0  0  0  0  0  0  0  0
    8.6557  -15.6360   22.2586 N   0  0  0  0  0  0  0  0  0  0  0  0
    8.6221  -14.9912   23.5521 C   0  0  1  0  0  0  0  0  0  0  0  0
    7.4712  -14.0759   23.7516 C   0  0  0  0  0  0  0  0  0  0  0  0
    7.4071  -13.3933   25.0384 C   0  0  0  0  0  0  0  0  0  0  0  0
    8.2797  -12.4570   25.5191 C   0  0  0  0  0  0  0  0  0  0  0  0
    8.1233  -11.8766   26.7514 C   0  0  0  0  0  0  0  0  0  0  0  0
    7.0638  -12.2062   27.5905 C   0  0  0  0  0  0  0  0  0  0  0  0
    6.1827  -13.1503   27.1074 C   0  0  0  0  0  0  0  0  0  0  0  0
    6.3315  -13.7384   25.8716 C   0  0  0  0  0  0  0  0  0  0  0  0
    8.8716  -15.9492   24.6483 C   0  0  0  0  0  0  0  0  0  0  0  0
    8.2546  -17.0414   24.6854 O   0  0  0  0  0  0  0  0  0  0  0  0
   12.0064  -18.3046   26.9433 O   0  0  0  0  0  0  0  0  0  0  0  0
   11.6292  -17.2670   26.0824 C   0  0  0  0  0  0  0  0  0  0  0  0
   10.2684  -16.7600   26.5533 C   0  0  2  0  0  0  0  0  0  0  0  0
    9.8005  -15.6909   25.6887 N   0  0  0  0  0  0  0  0  0  0  0  0
   10.3210  -16.2800   27.9366 C   0  0  0  0  0  0  0  0  0  0  0  0
   10.7368  -17.1141   28.9483 O   0  0  0  0  0  0  0  0  0  0  0  0
    9.9879  -15.1066   28.2130 O   0  0  0  0  0  0  0  0  0  0  0  0
  1  2  1  0
  2  3  2  0
  4  2  1  0
  4  5  1  0
  5  6  1  6
  7  5  1  0
  7  8  2  0
  9  7  1  0
 10  9  1  0
 10 11  1  1
 12 17  2  0
 12 11  1  0
 13 12  1  0
 14 15  1  0
 14 13  2  0
 15 16  2  0
 16 17  1  0
 18 10  1  0
 19 18  2  0
 21 20  1  0
 22 21  1  6
 22 23  1  0
 23 18  1  0
 24 25  1  0
 24 22  1  0
 26 24  2  0
M  END
$$$$
