NFS.pdb
     RDKit          3D

 26 26  0  0  1  0  0  0  0  0999 V2000
   11.7735  -17.9818   17.7098 N   0  0  0  0  0  0  0  0  0  0  0  0
   10.5695  -17.3051   17.9774 C   0  0  0  0  0  0  0  0  0  0  0  0
    9.5944  -17.5409   17.2134 O   0  0  0  0  0  0  0  0  0  0  0  0
   10.4496  -16.3525   19.1116 C   0  0  0  0  0  0  0  0  0  0  0  0
    9.8578  -17.0577   20.3047 C   0  0  2  0  0  0  0  0  0  0  0  0
    8.5528  -17.5704   19.9508 N   0  0  0  0  0  0  0  0  0  0  0  0
    9.7522  -16.1982   21.4898 C   0  0  0  0  0  0  0  0  0  0  0  0
   10.7937  -15.6251   21.9607 O   0  0  0  0  0  0  0  0  0  0  0  0
    8.5679  -15.9280   22.1929 N   0  0  0  0  0  0  0  0  0  0  0  0
    8.4812  -15.2324   23.4572 C   0  0  1  0  0  0  0  0  0  0  0  0
    7.2835  -14.3680   23.6009 C   0  0  0  0  0  0  0  0  0  0  0  0
    7.1267  -13.6935   24.8841 C   0  0  0  0  0  0  0  0  0  0  0  0
    6.4613  -14.1588   25.9840 C   0  0  0  0  0  0  0  0  0  0  0  0
    6.3751  -13.4363   27.1460 C   0  0  0  0  0  0  0  0  0  0  0  0
    6.9614  -12.1816   27.2772 C   0  0  0  0  0  0  0  0  0  0  0  0
    7.6329  -11.7106   26.1689 C   0  0  0  0  0  0  0  0  0  0  0  0
    7.7248  -12.4287   24.9980 C   0  0  0  0  0  0  0  0  0  0  0  0
    8.7591  -16.1304   24.5966 C   0  0  0  0  0  0  0  0  0  0  0  0
    7.9625  -17.0582   24.8786 O   0  0  0  0  0  0  0  0  0  0  0  0
   12.5088  -16.6002   25.8442 O   0  0  0  0  0  0  0  0  0  0  0  0
   11.5993  -17.6410   26.0662 C   0  0  0  0  0  0  0  0  0  0  0  0
   10.2528  -17.0029   26.3980 C   0  0  2  0  0  0  0  0  0  0  0  0
    9.9138  -15.9946   25.4090 N   0  0  0  0  0  0  0  0  0  0  0  0
   10.2580  -16.3952   27.7312 C   0  0  0  0  0  0  0  0  0  0  0  0
   10.5215  -17.1592   28.8442 O   0  0  0  0  0  0  0  0  0  0  0  0
   10.0222  -15.1750   27.8720 O   0  0  0  0  0  0  0  0  0  0  0  0
  1  2  1  0
  2  3  2  0
  4  2  1  0
  4  5  1  0
  5  6  1  6
  7  5  1  0
  7  8  2  0
  9  7  1  0
 10  9  1  0
 10 11  1  1
 12 17  2  0
 12 11  1  0
 13 12  1  0
 14 15  1  0
 14 13  2  0
 15 16  2  0
 16 17  1  0
 18 10  1  0
 19 18  2  0
 21 20  1  0
 22 21  1  6
 22 23  1  0
 23 18  1  0
 24 25  1  0
 24 22  1  0
 26 24  2  0
M  END
$$$$
