QRR.pdb
     RDKit          3D

 32 31  0  0  1  0  0  0  0  0999 V2000
   10.1376  -23.4266   20.5536 N   0  0  0  0  0  0  0  0  0  0  0  0
   10.5201  -23.4129   19.1981 C   0  0  0  0  0  0  0  0  0  0  0  0
   11.6457  -23.8800   18.8711 O   0  0  0  0  0  0  0  0  0  0  0  0
    9.5827  -22.8485   18.1989 C   0  0  0  0  0  0  0  0  0  0  0  0
    8.2559  -22.4957   18.8008 C   0  0  0  0  0  0  0  0  0  0  0  0
    7.7397  -21.2509   18.0630 C   0  0  2  0  0  0  0  0  0  0  0  0
    7.9500  -21.3993   16.6366 N   0  0  0  0  0  0  0  0  0  0  0  0
    8.4631  -20.0478   18.5224 C   0  0  0  0  0  0  0  0  0  0  0  0
    9.6885  -19.9482   18.3099 O   0  0  0  0  0  0  0  0  0  0  0  0
    9.4637  -12.8901   20.7645 N   0  0  0  0  0  0  0  0  0  0  0  0
    8.3236  -12.3622   20.1148 C   0  0  0  0  0  0  0  0  0  0  0  0
    8.3222  -11.1736   19.6196 N   0  0  0  0  0  0  0  0  0  0  0  0
    7.1062  -13.1581   20.0031 N   0  0  0  0  0  0  0  0  0  0  0  0
    7.0172  -14.3734   20.7367 C   0  0  0  0  0  0  0  0  0  0  0  0
    8.0242  -15.4045   20.4024 C   0  0  0  0  0  0  0  0  0  0  0  0
    7.4711  -16.7111   19.9879 C   0  0  0  0  0  0  0  0  0  0  0  0
    8.4167  -17.7715   19.6198 C   0  0  2  0  0  0  0  0  0  0  0  0
    7.7755  -19.0069   19.2035 N   0  0  0  0  0  0  0  0  0  0  0  0
    9.2079  -18.0917   20.8796 C   0  0  0  0  0  0  0  0  0  0  0  0
    8.6858  -18.7328   21.7936 O   0  0  0  0  0  0  0  0  0  0  0  0
    7.4975  -10.7440   19.1574 N   0  0  0  0  0  0  0  0  0  0  0  0
   14.9770  -23.3411   21.5303 C   0  0  0  0  0  0  0  0  0  0  0  0
   15.6546  -22.1229   21.8187 N   0  0  0  0  0  0  0  0  0  0  0  0
   16.8015  -22.1463   22.4445 N   0  0  0  0  0  0  0  0  0  0  0  0
   15.1439  -20.8565   21.4520 C   0  0  0  0  0  0  0  0  0  0  0  0
   13.7617  -20.5399   21.5509 C   0  0  0  0  0  0  0  0  0  0  0  0
   13.4239  -19.3516   22.4008 C   0  0  0  0  0  0  0  0  0  0  0  0
   12.6993  -18.3118   21.5796 C   0  0  2  0  0  0  0  0  0  0  0  0
   11.3794  -17.8829   22.1200 N   0  0  0  0  0  0  0  0  0  0  0  0
   10.5276  -17.6311   20.9437 C   0  0  0  0  0  0  0  0  0  0  0  0
   11.5253  -16.6161   22.8939 O   0  0  0  0  0  0  0  0  0  0  0  0
   11.2246  -15.5015   22.4182 O   0  0  0  0  0  0  0  0  0  0  0  0
  2  1  1  0
  3  2  2  0
  4  2  1  0
  5  4  1  0
  6  5  1  0
  6  7  1  6
  8  9  2  0
  8  6  1  0
 10 11  1  0
 11 12  2  0
 13 11  1  0
 14 13  1  0
 15 14  1  0
 15 16  1  0
 17 16  1  1
 17 18  1  0
 18  8  1  0
 19 20  2  0
 19 17  1  0
 21 22  1  0
 22 24  1  0
 23 22  2  0
 24 25  1  0
 26 27  1  0
 26 25  1  0
 28 29  1  0
 28 27  1  1
 29 19  1  0
 30 28  1  0
 31 30  2  0
 32 30  1  0
M  END
$$$$
