QRR.pdb
     RDKit          3D

 32 31  0  0  1  0  0  0  0  0999 V2000
   11.4882  -15.9833   14.9506 N   0  0  0  0  0  0  0  0  0  0  0  0
   11.8898  -17.3240   14.7921 C   0  0  0  0  0  0  0  0  0  0  0  0
   11.7097  -17.8937   13.6808 O   0  0  0  0  0  0  0  0  0  0  0  0
   12.5133  -18.0216   15.9412 C   0  0  0  0  0  0  0  0  0  0  0  0
   12.5130  -17.1822   17.1832 C   0  0  0  0  0  0  0  0  0  0  0  0
   11.8719  -18.0223   18.2984 C   0  0  2  0  0  0  0  0  0  0  0  0
   10.5744  -18.5055   17.8692 N   0  0  0  0  0  0  0  0  0  0  0  0
   11.6903  -17.2040   19.5146 C   0  0  0  0  0  0  0  0  0  0  0  0
   12.6901  -16.7370   20.0968 O   0  0  0  0  0  0  0  0  0  0  0  0
    7.6751  -13.1682   16.6979 N   0  0  0  0  0  0  0  0  0  0  0  0
    7.6047  -12.8460   18.0732 C   0  0  0  0  0  0  0  0  0  0  0  0
    8.4240  -12.0106   18.6107 N   0  0  0  0  0  0  0  0  0  0  0  0
    6.5989  -13.4715   18.9248 N   0  0  0  0  0  0  0  0  0  0  0  0
    7.0299  -14.1777   20.0818 C   0  0  0  0  0  0  0  0  0  0  0  0
    8.4118  -14.7043   20.0392 C   0  0  0  0  0  0  0  0  0  0  0  0
    8.8162  -15.5022   21.2160 C   0  0  0  0  0  0  0  0  0  0  0  0
   10.1444  -16.1264   21.1990 C   0  0  2  0  0  0  0  0  0  0  0  0
   10.3890  -16.9468   20.0251 N   0  0  0  0  0  0  0  0  0  0  0  0
   10.1921  -17.0575   22.4016 C   0  0  0  0  0  0  0  0  0  0  0  0
    9.4738  -18.0583   22.4399 O   0  0  0  0  0  0  0  0  0  0  0  0
    8.4990  -11.8564   19.6349 N   0  0  0  0  0  0  0  0  0  0  0  0
   16.4372  -21.5098   21.2578 C   0  0  0  0  0  0  0  0  0  0  0  0
   16.0219  -22.0152   22.5220 N   0  0  0  0  0  0  0  0  0  0  0  0
   16.4533  -23.1779   22.9337 N   0  0  0  0  0  0  0  0  0  0  0  0
   15.1492  -21.3083   23.3809 C   0  0  0  0  0  0  0  0  0  0  0  0
   14.2784  -20.2906   22.9048 C   0  0  0  0  0  0  0  0  0  0  0  0
   13.5020  -19.5528   23.9544 C   0  0  0  0  0  0  0  0  0  0  0  0
   12.6274  -18.5015   23.3140 C   0  0  1  0  0  0  0  0  0  0  0  0
   11.7373  -17.7600   24.2500 N   0  0  0  0  0  0  0  0  0  0  0  0
   11.0734  -16.7255   23.4365 C   0  0  0  0  0  0  0  0  0  0  0  0
   12.5452  -17.0965   25.3141 O   0  0  0  0  0  0  0  0  0  0  0  0
   12.8254  -15.8802   25.2826 O   0  0  0  0  0  0  0  0  0  0  0  0
  2  1  1  0
  3  2  2  0
  4  2  1  0
  5  4  1  0
  6  5  1  0
  6  7  1  6
  8  9  2  0
  8  6  1  0
 10 11  1  0
 11 12  2  0
 13 11  1  0
 14 13  1  0
 15 14  1  0
 15 16  1  0
 17 16  1  6
 17 18  1  0
 18  8  1  0
 19 20  2  0
 19 17  1  0
 21 22  1  0
 22 24  1  0
 23 22  2  0
 24 25  1  0
 26 27  1  0
 26 25  1  0
 28 29  1  0
 28 27  1  6
 29 19  1  0
 30 28  1  0
 31 30  2  0
 32 30  1  0
M  END
$$$$
