QRR.pdb
     RDKit          3D

 32 31  0  0  1  0  0  0  0  0999 V2000
    7.4444  -21.1788   17.1048 N   0  0  0  0  0  0  0  0  0  0  0  0
    6.8857  -20.0031   16.5667 C   0  0  0  0  0  0  0  0  0  0  0  0
    6.1787  -20.0783   15.5244 O   0  0  0  0  0  0  0  0  0  0  0  0
    7.1484  -18.7133   17.2472 C   0  0  0  0  0  0  0  0  0  0  0  0
    8.1364  -18.8525   18.3660 C   0  0  0  0  0  0  0  0  0  0  0  0
    7.8525  -17.7205   19.3652 C   0  0  2  0  0  0  0  0  0  0  0  0
    7.7105  -16.4624   18.6594 N   0  0  0  0  0  0  0  0  0  0  0  0
    8.9664  -17.5967   20.3274 C   0  0  0  0  0  0  0  0  0  0  0  0
    9.3196  -18.5925   20.9910 O   0  0  0  0  0  0  0  0  0  0  0  0
   14.5522  -13.0069   18.5907 N   0  0  0  0  0  0  0  0  0  0  0  0
   15.1533  -14.2349   18.9529 C   0  0  0  0  0  0  0  0  0  0  0  0
   16.3215  -14.5641   18.5229 N   0  0  0  0  0  0  0  0  0  0  0  0
   14.4478  -15.1716   19.8207 N   0  0  0  0  0  0  0  0  0  0  0  0
   13.1359  -15.5824   19.4556 C   0  0  0  0  0  0  0  0  0  0  0  0
   12.0388  -14.6786   19.8658 C   0  0  0  0  0  0  0  0  0  0  0  0
   11.4900  -14.9296   21.2153 C   0  0  0  0  0  0  0  0  0  0  0  0
   10.7382  -16.1715   21.4308 C   0  0  2  0  0  0  0  0  0  0  0  0
    9.6357  -16.3552   20.5026 N   0  0  0  0  0  0  0  0  0  0  0  0
   10.1274  -16.0630   22.8203 C   0  0  0  0  0  0  0  0  0  0  0  0
    9.3193  -15.1678   23.0743 O   0  0  0  0  0  0  0  0  0  0  0  0
   16.7751  -15.4750   18.7300 N   0  0  0  0  0  0  0  0  0  0  0  0
    5.6224  -21.5162   25.7677 C   0  0  0  0  0  0  0  0  0  0  0  0
    6.4956  -21.2677   24.6715 N   0  0  0  0  0  0  0  0  0  0  0  0
    6.6423  -22.1688   23.7365 N   0  0  0  0  0  0  0  0  0  0  0  0
    7.2286  -20.0667   24.5325 C   0  0  0  0  0  0  0  0  0  0  0  0
    6.7890  -18.8410   25.1027 C   0  0  0  0  0  0  0  0  0  0  0  0
    7.6967  -17.6647   24.9003 C   0  0  0  0  0  0  0  0  0  0  0  0
    9.0919  -17.9947   25.3746 C   0  0  2  0  0  0  0  0  0  0  0  0
   10.1002  -16.9158   25.1803 N   0  0  0  0  0  0  0  0  0  0  0  0
   10.5219  -17.0107   23.7712 C   0  0  0  0  0  0  0  0  0  0  0  0
   11.2832  -17.1505   26.0581 O   0  0  0  0  0  0  0  0  0  0  0  0
   12.3866  -17.5255   25.6099 O   0  0  0  0  0  0  0  0  0  0  0  0
  2  1  1  0
  3  2  2  0
  4  2  1  0
  5  4  1  0
  6  5  1  0
  6  7  1  6
  8  9  2  0
  8  6  1  0
 10 11  1  0
 11 12  2  0
 13 11  1  0
 14 13  1  0
 15 14  1  0
 15 16  1  0
 17 16  1  6
 17 18  1  0
 18  8  1  0
 19 20  2  0
 19 17  1  0
 21 22  1  0
 22 24  1  0
 23 22  2  0
 24 25  1  0
 26 27  1  0
 26 25  1  0
 28 29  1  0
 28 27  1  6
 29 19  1  0
 30 28  1  0
 31 30  2  0
 32 30  1  0
M  END
$$$$
