QRR.pdb
     RDKit          3D

 32 31  0  0  1  0  0  0  0  0999 V2000
   12.2713  -14.1606   15.9816 N   0  0  0  0  0  0  0  0  0  0  0  0
   11.4427  -15.2312   15.5929 C   0  0  0  0  0  0  0  0  0  0  0  0
   11.9456  -16.2024   14.9639 O   0  0  0  0  0  0  0  0  0  0  0  0
   10.0027  -15.1795   15.9385 C   0  0  0  0  0  0  0  0  0  0  0  0
    9.7757  -15.1252   17.4193 C   0  0  0  0  0  0  0  0  0  0  0  0
    8.2579  -15.0444   17.6429 C   0  0  2  0  0  0  0  0  0  0  0  0
    7.7728  -13.7303   17.2702 N   0  0  0  0  0  0  0  0  0  0  0  0
    7.9377  -15.2778   19.0659 C   0  0  0  0  0  0  0  0  0  0  0  0
    7.9537  -14.3199   19.8652 O   0  0  0  0  0  0  0  0  0  0  0  0
    4.9295  -22.6204   23.1367 N   0  0  0  0  0  0  0  0  0  0  0  0
    5.1742  -21.7628   24.2345 C   0  0  0  0  0  0  0  0  0  0  0  0
    4.8378  -22.0923   25.4330 N   0  0  0  0  0  0  0  0  0  0  0  0
    5.8081  -20.4653   24.0274 N   0  0  0  0  0  0  0  0  0  0  0  0
    6.1131  -20.0607   22.6984 C   0  0  0  0  0  0  0  0  0  0  0  0
    6.6128  -18.6768   22.5435 C   0  0  0  0  0  0  0  0  0  0  0  0
    6.8681  -18.2538   21.1503 C   0  0  0  0  0  0  0  0  0  0  0  0
    7.3461  -16.8846   20.9250 C   0  0  2  0  0  0  0  0  0  0  0  0
    7.6138  -16.5817   19.5295 N   0  0  0  0  0  0  0  0  0  0  0  0
    8.6737  -16.7714   21.6601 C   0  0  0  0  0  0  0  0  0  0  0  0
    9.7070  -17.2012   21.1439 O   0  0  0  0  0  0  0  0  0  0  0  0
    5.0949  -21.5412   26.2748 N   0  0  0  0  0  0  0  0  0  0  0  0
   10.6001  -16.1644   30.5153 C   0  0  0  0  0  0  0  0  0  0  0  0
   10.5702  -14.9842   29.7201 N   0  0  0  0  0  0  0  0  0  0  0  0
   10.1669  -13.8559   30.2415 N   0  0  0  0  0  0  0  0  0  0  0  0
   10.9673  -14.9640   28.3633 C   0  0  0  0  0  0  0  0  0  0  0  0
   10.0284  -15.0370   27.2985 C   0  0  0  0  0  0  0  0  0  0  0  0
   10.6047  -14.9749   25.9154 C   0  0  0  0  0  0  0  0  0  0  0  0
    9.5165  -15.1735   24.8874 C   0  0  1  0  0  0  0  0  0  0  0  0
    9.8833  -16.0418   23.7343 N   0  0  0  0  0  0  0  0  0  0  0  0
    8.6596  -16.1679   22.9225 C   0  0  0  0  0  0  0  0  0  0  0  0
   10.2886  -17.3945   24.2149 O   0  0  0  0  0  0  0  0  0  0  0  0
    9.4578  -18.2852   24.4894 O   0  0  0  0  0  0  0  0  0  0  0  0
  2  1  1  0
  3  2  2  0
  4  2  1  0
  5  4  1  0
  6  5  1  0
  6  7  1  1
  8  9  2  0
  8  6  1  0
 10 11  1  0
 11 12  2  0
 13 11  1  0
 14 13  1  0
 15 14  1  0
 15 16  1  0
 17 16  1  6
 17 18  1  0
 18  8  1  0
 19 20  2  0
 19 17  1  0
 21 22  1  0
 22 24  1  0
 23 22  2  0
 24 25  1  0
 26 27  1  0
 26 25  1  0
 28 29  1  0
 28 27  1  6
 29 19  1  0
 30 28  1  0
 31 30  2  0
 32 30  1  0
M  END
$$$$
