QRR.pdb
     RDKit          3D

 32 31  0  0  1  0  0  0  0  0999 V2000
    6.1449  -22.1549   16.7714 N   0  0  0  0  0  0  0  0  0  0  0  0
    5.5404  -22.6354   17.9493 C   0  0  0  0  0  0  0  0  0  0  0  0
    4.8087  -23.6617   17.8917 O   0  0  0  0  0  0  0  0  0  0  0  0
    5.7865  -21.9157   19.2211 C   0  0  0  0  0  0  0  0  0  0  0  0
    6.6025  -20.6741   19.0222 C   0  0  0  0  0  0  0  0  0  0  0  0
    7.0807  -20.2185   20.4093 C   0  0  2  0  0  0  0  0  0  0  0  0
    5.9406  -19.9926   21.2755 N   0  0  0  0  0  0  0  0  0  0  0  0
    7.8440  -18.9588   20.2986 C   0  0  0  0  0  0  0  0  0  0  0  0
    8.9668  -18.9657   19.7545 O   0  0  0  0  0  0  0  0  0  0  0  0
    8.1666  -12.2452   16.5202 N   0  0  0  0  0  0  0  0  0  0  0  0
    8.5621  -13.5768   16.7863 C   0  0  0  0  0  0  0  0  0  0  0  0
    8.9577  -14.3614   15.8450 N   0  0  0  0  0  0  0  0  0  0  0  0
    8.5162  -14.0999   18.1473 N   0  0  0  0  0  0  0  0  0  0  0  0
    7.7477  -13.4018   19.1196 C   0  0  0  0  0  0  0  0  0  0  0  0
    7.7531  -13.9783   20.4821 C   0  0  0  0  0  0  0  0  0  0  0  0
    7.1301  -15.3135   20.6013 C   0  0  0  0  0  0  0  0  0  0  0  0
    8.0166  -16.4754   20.7358 C   0  0  2  0  0  0  0  0  0  0  0  0
    7.3108  -17.7433   20.8068 N   0  0  0  0  0  0  0  0  0  0  0  0
    8.7438  -16.3043   22.0616 C   0  0  0  0  0  0  0  0  0  0  0  0
    8.1273  -15.9392   23.0644 O   0  0  0  0  0  0  0  0  0  0  0  0
    9.2316  -15.3513   15.9982 N   0  0  0  0  0  0  0  0  0  0  0  0
   12.5334  -20.6962   29.0012 C   0  0  0  0  0  0  0  0  0  0  0  0
   12.7472  -20.5666   27.5999 N   0  0  0  0  0  0  0  0  0  0  0  0
   13.0122  -21.6242   26.8795 N   0  0  0  0  0  0  0  0  0  0  0  0
   12.6827  -19.3251   26.9263 C   0  0  0  0  0  0  0  0  0  0  0  0
   11.9461  -19.1542   25.7226 C   0  0  0  0  0  0  0  0  0  0  0  0
   11.8807  -17.7535   25.1912 C   0  0  0  0  0  0  0  0  0  0  0  0
   11.0318  -17.7081   23.9431 C   0  0  1  0  0  0  0  0  0  0  0  0
   10.9289  -16.3717   23.2937 N   0  0  0  0  0  0  0  0  0  0  0  0
   10.1160  -16.5770   22.0814 C   0  0  0  0  0  0  0  0  0  0  0  0
   12.2817  -15.8861   22.8946 O   0  0  0  0  0  0  0  0  0  0  0  0
   12.7326  -16.0320   21.7395 O   0  0  0  0  0  0  0  0  0  0  0  0
  2  1  1  0
  3  2  2  0
  4  2  1  0
  5  4  1  0
  6  5  1  0
  6  7  1  1
  8  9  2  0
  8  6  1  0
 10 11  1  0
 11 12  2  0
 13 11  1  0
 14 13  1  0
 15 14  1  0
 15 16  1  0
 17 16  1  1
 17 18  1  0
 18  8  1  0
 19 20  2  0
 19 17  1  0
 21 22  1  0
 22 24  1  0
 23 22  2  0
 24 25  1  0
 26 27  1  0
 26 25  1  0
 28 29  1  0
 28 27  1  1
 29 19  1  0
 30 28  1  0
 31 30  2  0
 32 30  1  0
M  END
$$$$
