QRR.pdb
     RDKit          3D

 32 31  0  0  1  0  0  0  0  0999 V2000
    7.4572  -14.8359   16.5052 N   0  0  0  0  0  0  0  0  0  0  0  0
    7.6380  -13.4567   16.2842 C   0  0  0  0  0  0  0  0  0  0  0  0
    7.8033  -13.0383   15.1054 O   0  0  0  0  0  0  0  0  0  0  0  0
    7.6271  -12.5411   17.4492 C   0  0  0  0  0  0  0  0  0  0  0  0
    7.2993  -13.2523   18.7274 C   0  0  0  0  0  0  0  0  0  0  0  0
    8.6284  -13.5269   19.4475 C   0  0  2  0  0  0  0  0  0  0  0  0
    9.6345  -13.9374   18.4881 N   0  0  0  0  0  0  0  0  0  0  0  0
    8.4579  -14.6064   20.4411 C   0  0  0  0  0  0  0  0  0  0  0  0
    7.6730  -14.4440   21.3973 O   0  0  0  0  0  0  0  0  0  0  0  0
    8.9021  -21.1539   17.0544 N   0  0  0  0  0  0  0  0  0  0  0  0
    7.6266  -20.5427   17.0520 C   0  0  0  0  0  0  0  0  0  0  0  0
    6.9953  -20.3092   15.9543 N   0  0  0  0  0  0  0  0  0  0  0  0
    6.9982  -20.1468   18.3075 N   0  0  0  0  0  0  0  0  0  0  0  0
    7.8293  -19.8795   19.4305 C   0  0  0  0  0  0  0  0  0  0  0  0
    8.4587  -18.5410   19.4637 C   0  0  0  0  0  0  0  0  0  0  0  0
    9.2307  -18.2405   20.6879 C   0  0  0  0  0  0  0  0  0  0  0  0
    9.0847  -16.9062   21.2815 C   0  0  2  0  0  0  0  0  0  0  0  0
    9.1801  -15.8242   20.3167 N   0  0  0  0  0  0  0  0  0  0  0  0
   10.2518  -16.7389   22.2437 C   0  0  0  0  0  0  0  0  0  0  0  0
   11.3854  -16.5215   21.8118 O   0  0  0  0  0  0  0  0  0  0  0  0
    6.0907  -19.8013   15.9078 N   0  0  0  0  0  0  0  0  0  0  0  0
    8.9888  -13.8505   30.2475 C   0  0  0  0  0  0  0  0  0  0  0  0
   10.0630  -14.7633   30.4447 N   0  0  0  0  0  0  0  0  0  0  0  0
   10.4846  -15.0236   31.6539 N   0  0  0  0  0  0  0  0  0  0  0  0
   10.7128  -15.4245   29.3772 C   0  0  0  0  0  0  0  0  0  0  0  0
   10.5717  -15.0024   28.0271 C   0  0  0  0  0  0  0  0  0  0  0  0
   11.2706  -15.8463   27.0034 C   0  0  0  0  0  0  0  0  0  0  0  0
   10.3761  -16.0617   25.8060 C   0  0  1  0  0  0  0  0  0  0  0  0
   11.0334  -16.6929   24.6280 N   0  0  0  0  0  0  0  0  0  0  0  0
    9.9763  -16.8423   23.6117 C   0  0  0  0  0  0  0  0  0  0  0  0
   11.5539  -18.0434   24.9892 O   0  0  0  0  0  0  0  0  0  0  0  0
   10.8896  -19.0862   24.8158 O   0  0  0  0  0  0  0  0  0  0  0  0
  2  1  1  0
  3  2  2  0
  4  2  1  0
  5  4  1  0
  6  5  1  0
  6  7  1  6
  8  9  2  0
  8  6  1  0
 10 11  1  0
 11 12  2  0
 13 11  1  0
 14 13  1  0
 15 14  1  0
 15 16  1  0
 17 16  1  6
 17 18  1  0
 18  8  1  0
 19 20  2  0
 19 17  1  0
 21 22  1  0
 22 24  1  0
 23 22  2  0
 24 25  1  0
 26 27  1  0
 26 25  1  0
 28 29  1  0
 28 27  1  6
 29 19  1  0
 30 28  1  0
 31 30  2  0
 32 30  1  0
M  END
$$$$
