QRR.pdb
     RDKit          3D

 32 31  0  0  1  0  0  0  0  0999 V2000
   15.2351  -15.1452   19.0294 N   0  0  0  0  0  0  0  0  0  0  0  0
   14.3834  -14.0249   18.9712 C   0  0  0  0  0  0  0  0  0  0  0  0
   14.8592  -12.9064   18.6326 O   0  0  0  0  0  0  0  0  0  0  0  0
   12.9517  -14.1999   19.3108 C   0  0  0  0  0  0  0  0  0  0  0  0
   12.2411  -15.0886   18.3347 C   0  0  0  0  0  0  0  0  0  0  0  0
   10.8296  -14.5134   18.1419 C   0  0  2  0  0  0  0  0  0  0  0  0
   10.8883  -13.0659   18.0930 N   0  0  0  0  0  0  0  0  0  0  0  0
    9.9578  -14.9109   19.2660 C   0  0  0  0  0  0  0  0  0  0  0  0
    9.8627  -14.1676   20.2636 O   0  0  0  0  0  0  0  0  0  0  0  0
    6.5525  -21.9472   18.2444 N   0  0  0  0  0  0  0  0  0  0  0  0
    7.9475  -21.9261   18.0124 C   0  0  0  0  0  0  0  0  0  0  0  0
    8.6417  -23.0104   17.9893 N   0  0  0  0  0  0  0  0  0  0  0  0
    8.6398  -20.6587   17.8056 N   0  0  0  0  0  0  0  0  0  0  0  0
    7.9826  -19.4545   18.1811 C   0  0  0  0  0  0  0  0  0  0  0  0
    8.2322  -18.9865   19.5622 C   0  0  0  0  0  0  0  0  0  0  0  0
    7.5338  -17.7391   19.9382 C   0  0  0  0  0  0  0  0  0  0  0  0
    8.3526  -16.5730   20.2903 C   0  0  2  0  0  0  0  0  0  0  0  0
    9.2297  -16.1307   19.2199 N   0  0  0  0  0  0  0  0  0  0  0  0
    9.2499  -17.0143   21.4374 C   0  0  0  0  0  0  0  0  0  0  0  0
   10.3571  -17.5034   21.2059 O   0  0  0  0  0  0  0  0  0  0  0  0
    9.6720  -23.0313   17.8616 N   0  0  0  0  0  0  0  0  0  0  0  0
    9.7034  -14.0215   30.1555 C   0  0  0  0  0  0  0  0  0  0  0  0
   10.7296  -14.4976   29.2917 N   0  0  0  0  0  0  0  0  0  0  0  0
   11.8130  -15.0271   29.7952 N   0  0  0  0  0  0  0  0  0  0  0  0
   10.6370  -14.4316   27.8824 C   0  0  0  0  0  0  0  0  0  0  0  0
    9.7517  -15.2616   27.1421 C   0  0  0  0  0  0  0  0  0  0  0  0
   10.1935  -15.6101   25.7521 C   0  0  0  0  0  0  0  0  0  0  0  0
    9.0948  -16.3481   25.0251 C   0  0  2  0  0  0  0  0  0  0  0  0
    9.5502  -17.2356   23.9191 N   0  0  0  0  0  0  0  0  0  0  0  0
    8.7630  -16.8394   22.7376 C   0  0  0  0  0  0  0  0  0  0  0  0
    9.2532  -18.6606   24.2448 O   0  0  0  0  0  0  0  0  0  0  0  0
    8.2349  -19.2467   23.8223 O   0  0  0  0  0  0  0  0  0  0  0  0
  2  1  1  0
  3  2  2  0
  4  2  1  0
  5  4  1  0
  6  5  1  0
  6  7  1  1
  8  9  2  0
  8  6  1  0
 10 11  1  0
 11 12  2  0
 13 11  1  0
 14 13  1  0
 15 14  1  0
 15 16  1  0
 17 16  1  6
 17 18  1  0
 18  8  1  0
 19 20  2  0
 19 17  1  0
 21 22  1  0
 22 24  1  0
 23 22  2  0
 24 25  1  0
 26 27  1  0
 26 25  1  0
 28 29  1  0
 28 27  1  6
 29 19  1  0
 30 28  1  0
 31 30  2  0
 32 30  1  0
M  END
$$$$
