QRR.pdb
     RDKit          3D

 32 31  0  0  1  0  0  0  0  0999 V2000
    6.1822  -13.0709   16.9714 N   0  0  0  0  0  0  0  0  0  0  0  0
    7.1157  -13.9921   16.4577 C   0  0  0  0  0  0  0  0  0  0  0  0
    6.8836  -14.5519   15.3511 O   0  0  0  0  0  0  0  0  0  0  0  0
    8.3437  -14.2723   17.2383 C   0  0  0  0  0  0  0  0  0  0  0  0
    8.3614  -13.5455   18.5493 C   0  0  0  0  0  0  0  0  0  0  0  0
    9.6459  -13.9625   19.2818 C   0  0  2  0  0  0  0  0  0  0  0  0
   10.5757  -14.5631   18.3459 N   0  0  0  0  0  0  0  0  0  0  0  0
    9.3357  -14.9499   20.3356 C   0  0  0  0  0  0  0  0  0  0  0  0
    8.4897  -14.6718   21.2095 O   0  0  0  0  0  0  0  0  0  0  0  0
   15.4324  -20.0379   19.7450 N   0  0  0  0  0  0  0  0  0  0  0  0
   15.0648  -20.0555   21.1106 C   0  0  0  0  0  0  0  0  0  0  0  0
   15.9078  -20.3765   22.0296 N   0  0  0  0  0  0  0  0  0  0  0  0
   13.7025  -19.7198   21.5102 N   0  0  0  0  0  0  0  0  0  0  0  0
   12.7472  -19.4310   20.4968 C   0  0  0  0  0  0  0  0  0  0  0  0
   11.9595  -18.1931   20.6861 C   0  0  0  0  0  0  0  0  0  0  0  0
   10.6212  -18.3856   21.2837 C   0  0  0  0  0  0  0  0  0  0  0  0
    9.7355  -17.2189   21.3748 C   0  0  2  0  0  0  0  0  0  0  0  0
    9.9928  -16.2099   20.3617 N   0  0  0  0  0  0  0  0  0  0  0  0
   10.0232  -16.5708   22.7213 C   0  0  0  0  0  0  0  0  0  0  0  0
   11.0868  -15.9772   22.9091 O   0  0  0  0  0  0  0  0  0  0  0  0
   15.6774  -20.3909   23.0421 N   0  0  0  0  0  0  0  0  0  0  0  0
    6.7700  -10.3628   24.9754 C   0  0  0  0  0  0  0  0  0  0  0  0
    6.6017  -11.3613   25.9758 N   0  0  0  0  0  0  0  0  0  0  0  0
    6.5520  -11.0205   27.2364 N   0  0  0  0  0  0  0  0  0  0  0  0
    6.4777  -12.7368   25.6727 C   0  0  0  0  0  0  0  0  0  0  0  0
    6.6209  -13.7463   26.6632 C   0  0  0  0  0  0  0  0  0  0  0  0
    7.8785  -14.5596   26.5884 C   0  0  0  0  0  0  0  0  0  0  0  0
    8.0288  -15.1627   25.2122 C   0  0  1  0  0  0  0  0  0  0  0  0
    9.2036  -16.0615   25.0378 N   0  0  0  0  0  0  0  0  0  0  0  0
    9.0400  -16.6816   23.7106 C   0  0  0  0  0  0  0  0  0  0  0  0
    9.1945  -17.1308   26.0778 O   0  0  0  0  0  0  0  0  0  0  0  0
    8.8398  -18.3023   25.8316 O   0  0  0  0  0  0  0  0  0  0  0  0
  2  1  1  0
  3  2  2  0
  4  2  1  0
  5  4  1  0
  6  5  1  0
  6  7  1  6
  8  9  2  0
  8  6  1  0
 10 11  1  0
 11 12  2  0
 13 11  1  0
 14 13  1  0
 15 14  1  0
 15 16  1  0
 17 16  1  6
 17 18  1  0
 18  8  1  0
 19 20  2  0
 19 17  1  0
 21 22  1  0
 22 24  1  0
 23 22  2  0
 24 25  1  0
 26 27  1  0
 26 25  1  0
 28 29  1  0
 28 27  1  6
 29 19  1  0
 30 28  1  0
 31 30  2  0
 32 30  1  0
M  END
$$$$
