QRR.pdb
     RDKit          3D

 32 31  0  0  1  0  0  0  0  0999 V2000
   13.2456  -15.9683   15.5456 N   0  0  0  0  0  0  0  0  0  0  0  0
   11.8953  -16.3351   15.7070 C   0  0  0  0  0  0  0  0  0  0  0  0
   11.0551  -15.9932   14.8300 O   0  0  0  0  0  0  0  0  0  0  0  0
   11.5071  -17.1139   16.9064 C   0  0  0  0  0  0  0  0  0  0  0  0
   12.6885  -17.4768   17.7547 C   0  0  0  0  0  0  0  0  0  0  0  0
   12.1667  -18.3393   18.9140 C   0  0  2  0  0  0  0  0  0  0  0  0
   10.9080  -18.9556   18.5438 N   0  0  0  0  0  0  0  0  0  0  0  0
   11.9472  -17.5053   20.1131 C   0  0  0  0  0  0  0  0  0  0  0  0
   12.9214  -16.9593   20.6695 O   0  0  0  0  0  0  0  0  0  0  0  0
    7.8603  -12.2159   18.7210 N   0  0  0  0  0  0  0  0  0  0  0  0
    7.6735  -13.3963   17.9646 C   0  0  0  0  0  0  0  0  0  0  0  0
    7.6712  -13.3763   16.6771 N   0  0  0  0  0  0  0  0  0  0  0  0
    7.4630  -14.6744   18.6355 N   0  0  0  0  0  0  0  0  0  0  0  0
    7.5436  -14.7199   20.0549 C   0  0  0  0  0  0  0  0  0  0  0  0
    8.9079  -14.7966   20.6219 C   0  0  0  0  0  0  0  0  0  0  0  0
    9.0794  -15.7773   21.7145 C   0  0  0  0  0  0  0  0  0  0  0  0
   10.3563  -16.4960   21.7980 C   0  0  2  0  0  0  0  0  0  0  0  0
   10.6385  -17.3219   20.6365 N   0  0  0  0  0  0  0  0  0  0  0  0
   10.2368  -17.4385   22.9867 C   0  0  0  0  0  0  0  0  0  0  0  0
    9.3358  -18.2787   23.0239 O   0  0  0  0  0  0  0  0  0  0  0  0
    7.5428  -14.2224   16.0888 N   0  0  0  0  0  0  0  0  0  0  0  0
   11.4672  -23.4424   22.7188 C   0  0  0  0  0  0  0  0  0  0  0  0
   12.5418  -22.5123   22.6387 N   0  0  0  0  0  0  0  0  0  0  0  0
   13.2513  -22.4273   21.5446 N   0  0  0  0  0  0  0  0  0  0  0  0
   12.8899  -21.6499   23.7037 C   0  0  0  0  0  0  0  0  0  0  0  0
   11.9339  -21.1931   24.6514 C   0  0  0  0  0  0  0  0  0  0  0  0
   12.4594  -20.2832   25.7212 C   0  0  0  0  0  0  0  0  0  0  0  0
   12.4828  -18.8563   25.2274 C   0  0  2  0  0  0  0  0  0  0  0  0
   11.1604  -18.1716   25.2020 N   0  0  0  0  0  0  0  0  0  0  0  0
   11.1812  -17.3042   24.0104 C   0  0  0  0  0  0  0  0  0  0  0  0
   10.9948  -17.3230   26.4175 O   0  0  0  0  0  0  0  0  0  0  0  0
   11.2481  -16.1004   26.4211 O   0  0  0  0  0  0  0  0  0  0  0  0
  2  1  1  0
  3  2  2  0
  4  2  1  0
  5  4  1  0
  6  5  1  0
  6  7  1  6
  8  9  2  0
  8  6  1  0
 10 11  1  0
 11 12  2  0
 13 11  1  0
 14 13  1  0
 15 14  1  0
 15 16  1  0
 17 16  1  6
 17 18  1  0
 18  8  1  0
 19 20  2  0
 19 17  1  0
 21 22  1  0
 22 24  1  0
 23 22  2  0
 24 25  1  0
 26 27  1  0
 26 25  1  0
 28 29  1  0
 28 27  1  6
 29 19  1  0
 30 28  1  0
 31 30  2  0
 32 30  1  0
M  END
$$$$
