LGR.pdb
     RDKit          3D

 24 23  0  0  1  0  0  0  0  0999 V2000
    5.4203  -11.8958   26.3272 C   0  0  0  0  0  0  0  0  0  0  0  0
    6.5700  -12.4098   27.1238 C   0  0  2  0  0  0  0  0  0  0  0  0
    7.2681  -11.2185   27.7933 C   0  0  0  0  0  0  0  0  0  0  0  0
    7.6121  -13.1549   26.3746 C   0  0  0  0  0  0  0  0  0  0  0  0
    7.1585  -14.3800   25.6469 C   0  0  2  0  0  0  0  0  0  0  0  0
    6.1680  -15.1652   26.2975 N   0  0  0  0  0  0  0  0  0  0  0  0
    8.2898  -15.2503   25.2382 C   0  0  0  0  0  0  0  0  0  0  0  0
    9.2902  -14.7575   24.6256 O   0  0  0  0  0  0  0  0  0  0  0  0
    8.3072  -16.6381   25.5045 N   0  0  0  0  0  0  0  0  0  0  0  0
    9.4403  -17.4858   25.2244 C   0  0  0  0  0  0  0  0  0  0  0  0
    9.6925  -17.7275   23.8013 C   0  0  0  0  0  0  0  0  0  0  0  0
    9.2159  -18.7825   23.2547 O   0  0  0  0  0  0  0  0  0  0  0  0
    7.1733  -13.0951   17.8804 N   0  0  0  0  0  0  0  0  0  0  0  0
    8.3146  -13.8662   17.4866 C   0  0  0  0  0  0  0  0  0  0  0  0
    8.5804  -14.0277   16.2406 N   0  0  0  0  0  0  0  0  0  0  0  0
    9.1325  -14.4394   18.5008 N   0  0  0  0  0  0  0  0  0  0  0  0
    8.7372  -14.3082   19.8882 C   0  0  0  0  0  0  0  0  0  0  0  0
    9.7770  -15.0114   20.7600 C   0  0  0  0  0  0  0  0  0  0  0  0
    9.6571  -16.5038   20.6439 C   0  0  0  0  0  0  0  0  0  0  0  0
   10.6402  -17.1948   21.5065 C   0  0  2  0  0  0  0  0  0  0  0  0
   10.4271  -16.9002   22.9221 N   0  0  0  0  0  0  0  0  0  0  0  0
   12.0185  -16.8103   21.1735 C   0  0  0  0  0  0  0  0  0  0  0  0
   12.9212  -16.1768   22.0069 O   0  0  0  0  0  0  0  0  0  0  0  0
   12.4714  -17.0666   20.0011 O   0  0  0  0  0  0  0  0  0  0  0  0
  2  1  1  6
  2  4  1  0
  3  2  1  0
  4  5  1  0
  5  6  1  1
  7  5  1  0
  7  9  1  0
  8  7  2  0
  9 10  1  0
 11 12  2  0
 11 10  1  0
 13 14  1  0
 14 15  2  0
 16 14  1  0
 16 17  1  0
 17 18  1  0
 19 18  1  0
 20 19  1  6
 20 22  1  0
 20 21  1  0
 21 11  1  0
 22 23  1  0
 24 22  2  0
M  END
$$$$
