LGR.pdb
     RDKit          3D

 24 23  0  0  1  0  0  0  0  0999 V2000
    8.0615  -13.4737   18.4163 C   0  0  0  0  0  0  0  0  0  0  0  0
    7.7898  -13.5674   19.8785 C   0  0  2  0  0  0  0  0  0  0  0  0
    7.4556  -12.1639   20.4013 C   0  0  0  0  0  0  0  0  0  0  0  0
    8.8922  -14.0910   20.7229 C   0  0  0  0  0  0  0  0  0  0  0  0
    9.3325  -15.4929   20.4456 C   0  0  2  0  0  0  0  0  0  0  0  0
    8.3005  -16.4647   20.3383 N   0  0  0  0  0  0  0  0  0  0  0  0
   10.3601  -15.9668   21.4068 C   0  0  0  0  0  0  0  0  0  0  0  0
   11.4427  -15.3165   21.5617 O   0  0  0  0  0  0  0  0  0  0  0  0
   10.1874  -17.1387   22.1776 N   0  0  0  0  0  0  0  0  0  0  0  0
   11.0826  -17.5295   23.2391 C   0  0  0  0  0  0  0  0  0  0  0  0
   10.9498  -16.7528   24.4746 C   0  0  0  0  0  0  0  0  0  0  0  0
   11.4911  -15.5946   24.5434 O   0  0  0  0  0  0  0  0  0  0  0  0
   12.9583  -21.0908   31.6084 N   0  0  0  0  0  0  0  0  0  0  0  0
   13.9711  -20.3722   30.8940 C   0  0  0  0  0  0  0  0  0  0  0  0
   15.0974  -20.1212   31.4574 N   0  0  0  0  0  0  0  0  0  0  0  0
   13.6967  -19.9510   29.5623 N   0  0  0  0  0  0  0  0  0  0  0  0
   12.3440  -20.0480   29.0530 C   0  0  0  0  0  0  0  0  0  0  0  0
   11.8449  -18.6414   28.7241 C   0  0  0  0  0  0  0  0  0  0  0  0
   11.3001  -18.5760   27.3262 C   0  0  0  0  0  0  0  0  0  0  0  0
   10.8792  -17.2027   26.9727 C   0  0  2  0  0  0  0  0  0  0  0  0
   10.2654  -17.1436   25.6476 N   0  0  0  0  0  0  0  0  0  0  0  0
   12.0134  -16.2689   26.9809 C   0  0  0  0  0  0  0  0  0  0  0  0
   13.1863  -16.3912   26.2598 O   0  0  0  0  0  0  0  0  0  0  0  0
   11.9537  -15.2219   27.7193 O   0  0  0  0  0  0  0  0  0  0  0  0
  2  1  1  6
  2  4  1  0
  3  2  1  0
  4  5  1  0
  5  6  1  1
  7  5  1  0
  7  9  1  0
  8  7  2  0
  9 10  1  0
 11 12  2  0
 11 10  1  0
 13 14  1  0
 14 15  2  0
 16 14  1  0
 16 17  1  0
 17 18  1  0
 19 18  1  0
 20 19  1  6
 20 22  1  0
 20 21  1  0
 21 11  1  0
 22 23  1  0
 24 22  2  0
M  END
$$$$
