LGR.pdb
     RDKit          3D

 24 23  0  0  1  0  0  0  0  0999 V2000
    0.9773  -21.4520   22.3886 C   0  0  0  0  0  0  0  0  0  0  0  0
    1.5564  -20.0867   22.5347 C   0  0  2  0  0  0  0  0  0  0  0  0
    0.4907  -19.0609   22.1267 C   0  0  0  0  0  0  0  0  0  0  0  0
    2.7680  -19.7936   21.7294 C   0  0  0  0  0  0  0  0  0  0  0  0
    3.9793  -20.6181   22.0280 C   0  0  2  0  0  0  0  0  0  0  0  0
    4.1095  -21.0794   23.3664 N   0  0  0  0  0  0  0  0  0  0  0  0
    5.2382  -19.9512   21.6100 C   0  0  0  0  0  0  0  0  0  0  0  0
    5.4548  -19.7009   20.3815 O   0  0  0  0  0  0  0  0  0  0  0  0
    6.2343  -19.5723   22.5381 N   0  0  0  0  0  0  0  0  0  0  0  0
    7.4701  -18.9321   22.1589 C   0  0  0  0  0  0  0  0  0  0  0  0
    8.3174  -18.5151   23.2793 C   0  0  0  0  0  0  0  0  0  0  0  0
    8.3638  -19.2447   24.3303 O   0  0  0  0  0  0  0  0  0  0  0  0
    6.8944  -13.0917   19.2732 N   0  0  0  0  0  0  0  0  0  0  0  0
    8.2333  -12.9114   19.7500 C   0  0  0  0  0  0  0  0  0  0  0  0
    9.1663  -12.5813   18.9317 N   0  0  0  0  0  0  0  0  0  0  0  0
    8.4952  -13.1062   21.1355 N   0  0  0  0  0  0  0  0  0  0  0  0
    7.9293  -14.2574   21.8086 C   0  0  0  0  0  0  0  0  0  0  0  0
    8.2832  -14.1767   23.2932 C   0  0  0  0  0  0  0  0  0  0  0  0
    7.8300  -15.4085   24.0229 C   0  0  0  0  0  0  0  0  0  0  0  0
    8.9672  -16.3004   24.3382 C   0  0  2  0  0  0  0  0  0  0  0  0
    9.1253  -17.3572   23.3410 N   0  0  0  0  0  0  0  0  0  0  0  0
    8.8041  -16.9444   25.6486 C   0  0  0  0  0  0  0  0  0  0  0  0
    9.6843  -16.8819   26.7124 O   0  0  0  0  0  0  0  0  0  0  0  0
    7.7548  -17.6477   25.8713 O   0  0  0  0  0  0  0  0  0  0  0  0
  2  1  1  6
  2  4  1  0
  3  2  1  0
  4  5  1  0
  5  6  1  1
  7  5  1  0
  7  9  1  0
  8  7  2  0
  9 10  1  0
 11 12  2  0
 11 10  1  0
 13 14  1  0
 14 15  2  0
 16 14  1  0
 16 17  1  0
 17 18  1  0
 19 18  1  0
 20 19  1  6
 20 22  1  0
 20 21  1  0
 21 11  1  0
 22 23  1  0
 24 22  2  0
M  END
$$$$
