LGR.pdb
     RDKit          3D

 24 23  0  0  1  0  0  0  0  0999 V2000
    9.4040  -12.8542   20.3997 C   0  0  0  0  0  0  0  0  0  0  0  0
    8.1532  -13.4019   19.8029 C   0  0  2  0  0  0  0  0  0  0  0  0
    7.3341  -12.2346   19.2360 C   0  0  0  0  0  0  0  0  0  0  0  0
    7.2582  -14.1524   20.7183 C   0  0  0  0  0  0  0  0  0  0  0  0
    7.8690  -15.3082   21.4443 C   0  0  2  0  0  0  0  0  0  0  0  0
    8.5440  -16.2674   20.6409 N   0  0  0  0  0  0  0  0  0  0  0  0
    6.8991  -15.9998   22.3304 C   0  0  0  0  0  0  0  0  0  0  0  0
    6.2660  -15.3486   23.2214 O   0  0  0  0  0  0  0  0  0  0  0  0
    6.6403  -17.3854   22.2282 N   0  0  0  0  0  0  0  0  0  0  0  0
    5.7644  -18.0975   23.1261 C   0  0  0  0  0  0  0  0  0  0  0  0
    6.3881  -18.5349   24.3779 C   0  0  0  0  0  0  0  0  0  0  0  0
    6.0437  -19.6584   24.8861 O   0  0  0  0  0  0  0  0  0  0  0  0
   12.3594  -17.7017   28.6481 N   0  0  0  0  0  0  0  0  0  0  0  0
   13.1987  -18.7842   28.2283 C   0  0  0  0  0  0  0  0  0  0  0  0
   14.0323  -19.3066   29.0537 N   0  0  0  0  0  0  0  0  0  0  0  0
   13.0836  -19.2563   26.8904 N   0  0  0  0  0  0  0  0  0  0  0  0
   12.1644  -18.5994   25.9838 C   0  0  0  0  0  0  0  0  0  0  0  0
   10.7373  -18.8518   26.4688 C   0  0  0  0  0  0  0  0  0  0  0  0
    9.7335  -18.2635   25.5195 C   0  0  0  0  0  0  0  0  0  0  0  0
    8.3487  -18.4833   25.9908 C   0  0  2  0  0  0  0  0  0  0  0  0
    7.3669  -17.8378   25.1216 N   0  0  0  0  0  0  0  0  0  0  0  0
    8.1500  -17.9641   27.3507 C   0  0  0  0  0  0  0  0  0  0  0  0
    8.3277  -18.6594   28.5321 O   0  0  0  0  0  0  0  0  0  0  0  0
    7.7710  -16.7484   27.5048 O   0  0  0  0  0  0  0  0  0  0  0  0
  2  1  1  1
  2  4  1  0
  3  2  1  0
  4  5  1  0
  5  6  1  6
  7  5  1  0
  7  9  1  0
  8  7  2  0
  9 10  1  0
 11 12  2  0
 11 10  1  0
 13 14  1  0
 14 15  2  0
 16 14  1  0
 16 17  1  0
 17 18  1  0
 19 18  1  0
 20 19  1  6
 20 22  1  0
 20 21  1  0
 21 11  1  0
 22 23  1  0
 24 22  2  0
M  END
$$$$
