LGR.pdb
     RDKit          3D

 24 23  0  0  1  0  0  0  0  0999 V2000
    6.7048  -14.2317   17.5872 C   0  0  0  0  0  0  0  0  0  0  0  0
    7.6747  -13.1689   17.9751 C   0  0  2  0  0  0  0  0  0  0  0  0
    7.5520  -12.0112   16.9754 C   0  0  0  0  0  0  0  0  0  0  0  0
    9.1058  -13.5607   18.0078 C   0  0  0  0  0  0  0  0  0  0  0  0
    9.4710  -14.6630   18.9499 C   0  0  2  0  0  0  0  0  0  0  0  0
    8.8126  -14.6550   20.2098 N   0  0  0  0  0  0  0  0  0  0  0  0
   10.9370  -14.7703   19.1586 C   0  0  0  0  0  0  0  0  0  0  0  0
   11.6719  -15.3238   18.2797 O   0  0  0  0  0  0  0  0  0  0  0  0
   11.5711  -14.2736   20.3199 N   0  0  0  0  0  0  0  0  0  0  0  0
   12.9503  -14.5412   20.6470 C   0  0  0  0  0  0  0  0  0  0  0  0
   13.1536  -15.3146   21.8750 C   0  0  0  0  0  0  0  0  0  0  0  0
   14.3226  -15.3622   22.3947 O   0  0  0  0  0  0  0  0  0  0  0  0
   10.5866  -14.1262   29.0777 N   0  0  0  0  0  0  0  0  0  0  0  0
   10.9835  -15.4642   29.4009 C   0  0  0  0  0  0  0  0  0  0  0  0
   11.2232  -15.7849   30.6210 N   0  0  0  0  0  0  0  0  0  0  0  0
   11.1027  -16.4131   28.3465 N   0  0  0  0  0  0  0  0  0  0  0  0
   11.0035  -15.9626   26.9733 C   0  0  0  0  0  0  0  0  0  0  0  0
   11.2020  -17.1644   26.0504 C   0  0  0  0  0  0  0  0  0  0  0  0
   11.0301  -16.7727   24.6109 C   0  0  0  0  0  0  0  0  0  0  0  0
   12.3325  -16.5019   23.9641 C   0  0  2  0  0  0  0  0  0  0  0  0
   12.1729  -16.0428   22.5857 N   0  0  0  0  0  0  0  0  0  0  0  0
   13.1851  -17.6981   23.9398 C   0  0  0  0  0  0  0  0  0  0  0  0
   13.1682  -18.7025   22.9904 O   0  0  0  0  0  0  0  0  0  0  0  0
   14.0448  -17.8702   24.8760 O   0  0  0  0  0  0  0  0  0  0  0  0
  2  1  1  6
  2  4  1  0
  3  2  1  0
  4  5  1  0
  5  6  1  1
  7  5  1  0
  7  9  1  0
  8  7  2  0
  9 10  1  0
 11 12  2  0
 11 10  1  0
 13 14  1  0
 14 15  2  0
 16 14  1  0
 16 17  1  0
 17 18  1  0
 19 18  1  0
 20 19  1  6
 20 22  1  0
 20 21  1  0
 21 11  1  0
 22 23  1  0
 24 22  2  0
M  END
$$$$
