LGR.pdb
     RDKit          3D

 24 23  0  0  1  0  0  0  0  0999 V2000
    8.8216  -12.4111   18.9458 C   0  0  0  0  0  0  0  0  0  0  0  0
    7.8109  -13.4605   19.2588 C   0  0  2  0  0  0  0  0  0  0  0  0
    6.6092  -12.7901   19.9379 C   0  0  0  0  0  0  0  0  0  0  0  0
    8.2544  -14.5588   20.1530 C   0  0  0  0  0  0  0  0  0  0  0  0
    9.4979  -15.2837   19.7479 C   0  0  2  0  0  0  0  0  0  0  0  0
    9.5219  -15.7948   18.4216 N   0  0  0  0  0  0  0  0  0  0  0  0
    9.8631  -16.3625   20.7004 C   0  0  0  0  0  0  0  0  0  0  0  0
    9.9278  -16.1225   21.9482 O   0  0  0  0  0  0  0  0  0  0  0  0
   10.1508  -17.6788   20.2738 N   0  0  0  0  0  0  0  0  0  0  0  0
   10.4045  -18.7699   21.1826 C   0  0  0  0  0  0  0  0  0  0  0  0
   11.3412  -18.4638   22.2671 C   0  0  0  0  0  0  0  0  0  0  0  0
   12.5039  -18.0130   21.9772 O   0  0  0  0  0  0  0  0  0  0  0  0
   10.4473  -14.7634   29.5797 N   0  0  0  0  0  0  0  0  0  0  0  0
    9.7552  -14.3231   28.4051 C   0  0  0  0  0  0  0  0  0  0  0  0
    9.4102  -13.0918   28.2878 N   0  0  0  0  0  0  0  0  0  0  0  0
    9.4653  -15.2757   27.3879 N   0  0  0  0  0  0  0  0  0  0  0  0
   10.1303  -16.5624   27.4117 C   0  0  0  0  0  0  0  0  0  0  0  0
   10.8751  -16.7508   26.0906 C   0  0  0  0  0  0  0  0  0  0  0  0
   11.4897  -18.1185   26.0086 C   0  0  0  0  0  0  0  0  0  0  0  0
   12.1072  -18.3565   24.6857 C   0  0  2  0  0  0  0  0  0  0  0  0
   11.1048  -18.6099   23.6526 N   0  0  0  0  0  0  0  0  0  0  0  0
   13.0205  -19.5069   24.7127 C   0  0  0  0  0  0  0  0  0  0  0  0
   14.3701  -19.4805   25.0099 O   0  0  0  0  0  0  0  0  0  0  0  0
   12.5629  -20.6729   24.4365 O   0  0  0  0  0  0  0  0  0  0  0  0
  2  1  1  1
  2  4  1  0
  3  2  1  0
  4  5  1  0
  5  6  1  6
  7  5  1  0
  7  9  1  0
  8  7  2  0
  9 10  1  0
 11 12  2  0
 11 10  1  0
 13 14  1  0
 14 15  2  0
 16 14  1  0
 16 17  1  0
 17 18  1  0
 19 18  1  0
 20 19  1  1
 20 22  1  0
 20 21  1  0
 21 11  1  0
 22 23  1  0
 24 22  2  0
M  END
$$$$
