LGR.pdb
     RDKit          3D

 24 23  0  0  1  0  0  0  0  0999 V2000
    6.1524  -12.2627   27.8357 C   0  0  0  0  0  0  0  0  0  0  0  0
    7.3215  -12.6159   26.9818 C   0  0  2  0  0  0  0  0  0  0  0  0
    7.9854  -11.3169   26.5058 C   0  0  0  0  0  0  0  0  0  0  0  0
    7.0344  -13.4228   25.7699 C   0  0  0  0  0  0  0  0  0  0  0  0
    6.4595  -14.7840   25.9993 C   0  0  2  0  0  0  0  0  0  0  0  0
    6.9461  -15.4870   27.1351 N   0  0  0  0  0  0  0  0  0  0  0  0
    6.5592  -15.6530   24.7997 C   0  0  0  0  0  0  0  0  0  0  0  0
    6.2369  -15.2046   23.6534 O   0  0  0  0  0  0  0  0  0  0  0  0
    7.0066  -16.9916   24.8739 N   0  0  0  0  0  0  0  0  0  0  0  0
    7.1936  -17.8312   23.7160 C   0  0  0  0  0  0  0  0  0  0  0  0
    8.4905  -17.6830   23.0502 C   0  0  0  0  0  0  0  0  0  0  0  0
    8.8320  -18.5326   22.1555 O   0  0  0  0  0  0  0  0  0  0  0  0
    6.9429  -13.7898   20.0253 N   0  0  0  0  0  0  0  0  0  0  0  0
    7.9611  -13.8974   19.0234 C   0  0  0  0  0  0  0  0  0  0  0  0
    7.6871  -13.6250   17.7988 N   0  0  0  0  0  0  0  0  0  0  0  0
    9.2652  -14.3089   19.4188 N   0  0  0  0  0  0  0  0  0  0  0  0
    9.5029  -14.6813   20.7984 C   0  0  0  0  0  0  0  0  0  0  0  0
   10.9725  -15.0717   20.9517 C   0  0  0  0  0  0  0  0  0  0  0  0
   11.3038  -15.3710   22.3856 C   0  0  0  0  0  0  0  0  0  0  0  0
   10.8214  -16.7112   22.7845 C   0  0  2  0  0  0  0  0  0  0  0  0
    9.4487  -16.6711   23.2848 N   0  0  0  0  0  0  0  0  0  0  0  0
   11.6623  -17.2994   23.8359 C   0  0  0  0  0  0  0  0  0  0  0  0
   11.2950  -17.5386   25.1468 O   0  0  0  0  0  0  0  0  0  0  0  0
   12.8670  -17.6378   23.5543 O   0  0  0  0  0  0  0  0  0  0  0  0
  2  1  1  6
  2  4  1  0
  3  2  1  0
  4  5  1  0
  5  6  1  1
  7  5  1  0
  7  9  1  0
  8  7  2  0
  9 10  1  0
 11 12  2  0
 11 10  1  0
 13 14  1  0
 14 15  2  0
 16 14  1  0
 16 17  1  0
 17 18  1  0
 19 18  1  0
 20 19  1  1
 20 22  1  0
 20 21  1  0
 21 11  1  0
 22 23  1  0
 24 22  2  0
M  END
$$$$
