LGR.pdb
     RDKit          3D

 24 23  0  0  1  0  0  0  0  0999 V2000
    8.5688  -12.8098   18.5625 C   0  0  0  0  0  0  0  0  0  0  0  0
    7.4661  -13.4972   19.2921 C   0  0  2  0  0  0  0  0  0  0  0  0
    6.2348  -12.5814   19.2858 C   0  0  0  0  0  0  0  0  0  0  0  0
    7.7320  -13.8528   20.7082 C   0  0  0  0  0  0  0  0  0  0  0  0
    8.9195  -14.7254   20.9619 C   0  0  2  0  0  0  0  0  0  0  0  0
    8.9279  -15.9819   20.2969 N   0  0  0  0  0  0  0  0  0  0  0  0
    9.1755  -14.9304   22.4099 C   0  0  0  0  0  0  0  0  0  0  0  0
    9.3224  -13.9311   23.1837 O   0  0  0  0  0  0  0  0  0  0  0  0
    9.2671  -16.2186   22.9839 N   0  0  0  0  0  0  0  0  0  0  0  0
    9.5740  -16.4477   24.3746 C   0  0  0  0  0  0  0  0  0  0  0  0
   11.0013  -16.5870   24.6760 C   0  0  0  0  0  0  0  0  0  0  0  0
   11.3624  -16.8377   25.8785 O   0  0  0  0  0  0  0  0  0  0  0  0
   13.5703  -21.0468   28.3896 N   0  0  0  0  0  0  0  0  0  0  0  0
   14.7688  -20.2622   28.3718 C   0  0  0  0  0  0  0  0  0  0  0  0
   15.2275  -19.7672   29.4643 N   0  0  0  0  0  0  0  0  0  0  0  0
   15.4260  -20.0503   27.1270 N   0  0  0  0  0  0  0  0  0  0  0  0
   14.6337  -19.9104   25.9223 C   0  0  0  0  0  0  0  0  0  0  0  0
   14.5176  -18.4244   25.5850 C   0  0  0  0  0  0  0  0  0  0  0  0
   13.6709  -18.2138   24.3626 C   0  0  0  0  0  0  0  0  0  0  0  0
   13.4645  -16.7750   24.0882 C   0  0  2  0  0  0  0  0  0  0  0  0
   12.0719  -16.4758   23.7603 N   0  0  0  0  0  0  0  0  0  0  0  0
   14.2956  -16.3118   22.9687 C   0  0  0  0  0  0  0  0  0  0  0  0
   15.6176  -15.9136   23.0339 O   0  0  0  0  0  0  0  0  0  0  0  0
   13.7830  -16.2526   21.7944 O   0  0  0  0  0  0  0  0  0  0  0  0
  2  1  1  1
  2  4  1  0
  3  2  1  0
  4  5  1  0
  5  6  1  6
  7  5  1  0
  7  9  1  0
  8  7  2  0
  9 10  1  0
 11 12  2  0
 11 10  1  0
 13 14  1  0
 14 15  2  0
 16 14  1  0
 16 17  1  0
 17 18  1  0
 19 18  1  0
 20 19  1  6
 20 22  1  0
 20 21  1  0
 21 11  1  0
 22 23  1  0
 24 22  2  0
M  END
$$$$
