LGR.pdb
     RDKit          3D

 24 23  0  0  1  0  0  0  0  0999 V2000
    6.6060  -13.9608   18.5637 C   0  0  0  0  0  0  0  0  0  0  0  0
    7.7292  -13.0768   18.9851 C   0  0  2  0  0  0  0  0  0  0  0  0
    7.6051  -11.7434   18.2358 C   0  0  0  0  0  0  0  0  0  0  0  0
    9.1004  -13.5863   18.7347 C   0  0  0  0  0  0  0  0  0  0  0  0
    9.4971  -14.8196   19.4815 C   0  0  2  0  0  0  0  0  0  0  0  0
    8.9494  -14.9667   20.7850 N   0  0  0  0  0  0  0  0  0  0  0  0
   10.9697  -14.9995   19.5405 C   0  0  0  0  0  0  0  0  0  0  0  0
   11.5345  -15.9026   18.8448 O   0  0  0  0  0  0  0  0  0  0  0  0
   11.7952  -14.1932   20.3564 N   0  0  0  0  0  0  0  0  0  0  0  0
   13.2229  -14.3703   20.4615 C   0  0  0  0  0  0  0  0  0  0  0  0
   13.6585  -15.2189   21.5738 C   0  0  0  0  0  0  0  0  0  0  0  0
   14.9084  -15.3089   21.8362 O   0  0  0  0  0  0  0  0  0  0  0  0
   11.6941  -15.6595   28.5679 N   0  0  0  0  0  0  0  0  0  0  0  0
   10.6750  -14.8108   28.0260 C   0  0  0  0  0  0  0  0  0  0  0  0
   10.3710  -13.7139   28.6205 N   0  0  0  0  0  0  0  0  0  0  0  0
   10.0192  -15.2129   26.8283 N   0  0  0  0  0  0  0  0  0  0  0  0
   10.4927  -16.3846   26.1202 C   0  0  0  0  0  0  0  0  0  0  0  0
   11.7554  -16.0088   25.3456 C   0  0  0  0  0  0  0  0  0  0  0  0
   12.2145  -17.1461   24.4789 C   0  0  0  0  0  0  0  0  0  0  0  0
   13.3168  -16.7336   23.5831 C   0  0  2  0  0  0  0  0  0  0  0  0
   12.8301  -15.9799   22.4293 N   0  0  0  0  0  0  0  0  0  0  0  0
   14.0654  -17.8915   23.0758 C   0  0  0  0  0  0  0  0  0  0  0  0
   15.2791  -18.3576   23.5450 O   0  0  0  0  0  0  0  0  0  0  0  0
   13.5826  -18.5662   22.0976 O   0  0  0  0  0  0  0  0  0  0  0  0
  2  1  1  6
  2  4  1  0
  3  2  1  0
  4  5  1  0
  5  6  1  1
  7  5  1  0
  7  9  1  0
  8  7  2  0
  9 10  1  0
 11 12  2  0
 11 10  1  0
 13 14  1  0
 14 15  2  0
 16 14  1  0
 16 17  1  0
 17 18  1  0
 19 18  1  0
 20 19  1  6
 20 22  1  0
 20 21  1  0
 21 11  1  0
 22 23  1  0
 24 22  2  0
M  END
$$$$
