LGR.pdb
     RDKit          3D

 24 23  0  0  1  0  0  0  0  0999 V2000
    7.6407  -11.8435   26.6727 C   0  0  0  0  0  0  0  0  0  0  0  0
    6.5116  -12.3546   25.8452 C   0  0  2  0  0  0  0  0  0  0  0  0
    5.3128  -11.4137   26.0252 C   0  0  0  0  0  0  0  0  0  0  0  0
    6.0342  -13.7254   26.1540 C   0  0  0  0  0  0  0  0  0  0  0  0
    6.9794  -14.8427   25.8467 C   0  0  2  0  0  0  0  0  0  0  0  0
    8.2279  -14.8125   26.5261 N   0  0  0  0  0  0  0  0  0  0  0  0
    7.2130  -15.0054   24.3896 C   0  0  0  0  0  0  0  0  0  0  0  0
    6.5262  -15.8401   23.7185 O   0  0  0  0  0  0  0  0  0  0  0  0
    8.1899  -14.2568   23.6949 N   0  0  0  0  0  0  0  0  0  0  0  0
    8.4254  -14.3816   22.2772 C   0  0  0  0  0  0  0  0  0  0  0  0
    9.3378  -15.4633   21.8968 C   0  0  0  0  0  0  0  0  0  0  0  0
    9.7439  -15.5383   20.6850 O   0  0  0  0  0  0  0  0  0  0  0  0
   11.0982  -17.2514   29.0693 N   0  0  0  0  0  0  0  0  0  0  0  0
   11.1746  -16.0081   28.3617 C   0  0  0  0  0  0  0  0  0  0  0  0
   10.4551  -15.0123   28.7354 N   0  0  0  0  0  0  0  0  0  0  0  0
   12.0575  -15.9103   27.2494 N   0  0  0  0  0  0  0  0  0  0  0  0
   12.1133  -16.9956   26.2915 C   0  0  0  0  0  0  0  0  0  0  0  0
   11.7052  -16.4573   24.9206 C   0  0  0  0  0  0  0  0  0  0  0  0
   11.7094  -17.5493   23.8897 C   0  0  0  0  0  0  0  0  0  0  0  0
   11.1713  -17.0750   22.5961 C   0  0  2  0  0  0  0  0  0  0  0  0
    9.8468  -16.4745   22.7427 N   0  0  0  0  0  0  0  0  0  0  0  0
   11.0597  -18.1686   21.6215 C   0  0  0  0  0  0  0  0  0  0  0  0
    9.8918  -18.7552   21.1717 O   0  0  0  0  0  0  0  0  0  0  0  0
   12.1289  -18.6615   21.1123 O   0  0  0  0  0  0  0  0  0  0  0  0
  2  1  1  1
  2  4  1  0
  3  2  1  0
  4  5  1  0
  5  6  1  1
  7  5  1  0
  7  9  1  0
  8  7  2  0
  9 10  1  0
 11 12  2  0
 11 10  1  0
 13 14  1  0
 14 15  2  0
 16 14  1  0
 16 17  1  0
 17 18  1  0
 19 18  1  0
 20 19  1  1
 20 22  1  0
 20 21  1  0
 21 11  1  0
 22 23  1  0
 24 22  2  0
M  END
$$$$
