LGR.pdb
     RDKit          3D

 24 23  0  0  1  0  0  0  0  0999 V2000
    7.3249  -13.3149   18.1026 C   0  0  0  0  0  0  0  0  0  0  0  0
    7.9275  -13.1563   19.4562 C   0  0  2  0  0  0  0  0  0  0  0  0
    8.0516  -11.6572   19.7599 C   0  0  0  0  0  0  0  0  0  0  0  0
    9.2736  -13.7492   19.6536 C   0  0  0  0  0  0  0  0  0  0  0  0
    9.3787  -15.2306   19.4786 C   0  0  2  0  0  0  0  0  0  0  0  0
    8.2779  -15.9972   19.9491 N   0  0  0  0  0  0  0  0  0  0  0  0
   10.6395  -15.7810   20.0370 C   0  0  0  0  0  0  0  0  0  0  0  0
   11.6977  -15.8052   19.3310 O   0  0  0  0  0  0  0  0  0  0  0  0
   10.7207  -16.2941   21.3513 N   0  0  0  0  0  0  0  0  0  0  0  0
   11.9529  -16.7392   21.9548 C   0  0  0  0  0  0  0  0  0  0  0  0
   11.8463  -17.1185   23.3662 C   0  0  0  0  0  0  0  0  0  0  0  0
   12.9023  -17.4728   23.9974 O   0  0  0  0  0  0  0  0  0  0  0  0
    8.5014  -13.6462   26.7495 N   0  0  0  0  0  0  0  0  0  0  0  0
    7.2974  -13.6068   25.9741 C   0  0  0  0  0  0  0  0  0  0  0  0
    6.8503  -12.4837   25.5407 N   0  0  0  0  0  0  0  0  0  0  0  0
    6.6214  -14.8298   25.7026 N   0  0  0  0  0  0  0  0  0  0  0  0
    7.1889  -16.0742   26.1801 C   0  0  0  0  0  0  0  0  0  0  0  0
    8.6363  -16.1665   25.6982 C   0  0  0  0  0  0  0  0  0  0  0  0
    9.2584  -17.4706   26.1074 C   0  0  0  0  0  0  0  0  0  0  0  0
   10.6064  -17.6351   25.5212 C   0  0  2  0  0  0  0  0  0  0  0  0
   10.6692  -17.1387   24.1479 N   0  0  0  0  0  0  0  0  0  0  0  0
   11.0227  -19.0440   25.5056 C   0  0  0  0  0  0  0  0  0  0  0  0
   11.6747  -19.7216   26.5186 O   0  0  0  0  0  0  0  0  0  0  0  0
   10.7789  -19.7546   24.4659 O   0  0  0  0  0  0  0  0  0  0  0  0
  2  1  1  6
  2  4  1  0
  3  2  1  0
  4  5  1  0
  5  6  1  1
  7  5  1  0
  7  9  1  0
  8  7  2  0
  9 10  1  0
 11 12  2  0
 11 10  1  0
 13 14  1  0
 14 15  2  0
 16 14  1  0
 16 17  1  0
 17 18  1  0
 19 18  1  0
 20 19  1  6
 20 22  1  0
 20 21  1  0
 21 11  1  0
 22 23  1  0
 24 22  2  0
M  END
$$$$
