LGR.pdb
     RDKit          3D

 24 23  0  0  1  0  0  0  0  0999 V2000
    7.4802  -14.2049   18.0968 C   0  0  0  0  0  0  0  0  0  0  0  0
    7.4755  -13.5876   19.4531 C   0  0  2  0  0  0  0  0  0  0  0  0
    7.3553  -12.0661   19.2937 C   0  0  0  0  0  0  0  0  0  0  0  0
    8.6695  -13.8398   20.2977 C   0  0  0  0  0  0  0  0  0  0  0  0
    8.9057  -15.2586   20.7068 C   0  0  2  0  0  0  0  0  0  0  0  0
    7.8187  -15.9167   21.3442 N   0  0  0  0  0  0  0  0  0  0  0  0
   10.1310  -15.4165   21.5302 C   0  0  0  0  0  0  0  0  0  0  0  0
   11.2762  -15.4516   20.9770 O   0  0  0  0  0  0  0  0  0  0  0  0
   10.0829  -15.5337   22.9378 N   0  0  0  0  0  0  0  0  0  0  0  0
   11.2564  -15.6933   23.7614 C   0  0  0  0  0  0  0  0  0  0  0  0
   11.2157  -16.8362   24.6776 C   0  0  0  0  0  0  0  0  0  0  0  0
   11.8964  -17.8836   24.3975 O   0  0  0  0  0  0  0  0  0  0  0  0
   11.4770  -21.0165   30.2338 N   0  0  0  0  0  0  0  0  0  0  0  0
   12.3524  -20.4374   31.2089 C   0  0  0  0  0  0  0  0  0  0  0  0
   12.4873  -20.9920   32.3592 N   0  0  0  0  0  0  0  0  0  0  0  0
   13.0571  -19.2478   30.8707 N   0  0  0  0  0  0  0  0  0  0  0  0
   12.3461  -18.1612   30.2288 C   0  0  0  0  0  0  0  0  0  0  0  0
   11.7411  -18.6780   28.9240 C   0  0  0  0  0  0  0  0  0  0  0  0
   11.0788  -17.5676   28.1601 C   0  0  0  0  0  0  0  0  0  0  0  0
   10.6069  -18.0277   26.8358 C   0  0  2  0  0  0  0  0  0  0  0  0
   10.4867  -16.9241   25.8851 N   0  0  0  0  0  0  0  0  0  0  0  0
    9.2955  -18.6839   26.9254 C   0  0  0  0  0  0  0  0  0  0  0  0
    8.0974  -18.2011   26.4335 O   0  0  0  0  0  0  0  0  0  0  0  0
    9.2059  -19.8204   27.5133 O   0  0  0  0  0  0  0  0  0  0  0  0
  2  1  1  6
  2  4  1  0
  3  2  1  0
  4  5  1  0
  5  6  1  1
  7  5  1  0
  7  9  1  0
  8  7  2  0
  9 10  1  0
 11 12  2  0
 11 10  1  0
 13 14  1  0
 14 15  2  0
 16 14  1  0
 16 17  1  0
 17 18  1  0
 19 18  1  0
 20 19  1  1
 20 22  1  0
 20 21  1  0
 21 11  1  0
 22 23  1  0
 24 22  2  0
M  END
$$$$
