PKE.pdb
     RDKit          3D

 26 26  0  0  1  0  0  0  0  0999 V2000
   26.0361  -11.8905  -15.5582 N   0  0  0  0  0  0  0  0  0  0  0  0
   27.4300  -12.3355  -15.6814 C   0  0  0  0  0  0  0  0  0  0  0  0
   27.7675  -12.1854  -17.1481 C   0  0  0  0  0  0  0  0  0  0  0  0
   26.6143  -11.4151  -17.7219 C   0  0  0  0  0  0  0  0  0  0  0  0
   26.0162  -10.7778  -16.4617 C   0  0  1  0  0  0  0  0  0  0  0  0
   24.6352  -10.3545  -16.8147 C   0  0  0  0  0  0  0  0  0  0  0  0
   24.4647   -9.3730  -17.5889 O   0  0  0  0  0  0  0  0  0  0  0  0
   23.4865  -11.0100  -16.3167 N   0  0  0  0  0  0  0  0  0  0  0  0
   22.1414  -10.6623  -16.6515 C   0  0  1  0  0  0  0  0  0  0  0  0
   21.2090  -11.8620  -16.5647 C   0  0  0  0  0  0  0  0  0  0  0  0
   19.8141  -11.5673  -17.0133 C   0  0  0  0  0  0  0  0  0  0  0  0
   19.0441  -12.8742  -16.9405 C   0  0  0  0  0  0  0  0  0  0  0  0
   17.6211  -12.6694  -17.4274 C   0  0  0  0  0  0  0  0  0  0  0  0
   16.8278  -13.8530  -17.1988 N   0  0  0  0  0  0  0  0  0  0  0  0
   21.6530   -9.6839  -15.6015 C   0  0  0  0  0  0  0  0  0  0  0  0
   21.7950   -9.9426  -14.3842 O   0  0  0  0  0  0  0  0  0  0  0  0
   21.0342   -8.4750  -15.9792 N   0  0  0  0  0  0  0  0  0  0  0  0
   20.6473   -7.4018  -15.1184 C   0  0  1  0  0  0  0  0  0  0  0  0
   21.7085   -6.3391  -14.9008 C   0  0  0  0  0  0  0  0  0  0  0  0
   21.2449   -5.3898  -13.8333 C   0  0  0  0  0  0  0  0  0  0  0  0
   22.2297   -4.2640  -13.6423 C   0  0  0  0  0  0  0  0  0  0  0  0
   23.4226   -4.4550  -13.3056 O   0  0  0  0  0  0  0  0  0  0  0  0
   19.3076   -6.8634  -15.4015 C   0  0  0  0  0  0  0  0  0  0  0  0
   18.6985   -6.9801  -16.6474 O   0  0  0  0  0  0  0  0  0  0  0  0
   21.7710   -2.9767  -13.8536 O   0  0  0  0  0  0  0  0  0  0  0  0
   18.6458   -6.2648  -14.5138 O   0  0  0  0  0  0  0  0  0  0  0  0
  1  5  1  0
  1  2  1  0
  2  3  1  0
  4  3  1  0
  5  4  1  0
  6  7  2  0
  5  6  1  6
  8  6  1  0
  9 10  1  1
  9  8  1  0
 11 10  1  0
 11 12  1  0
 13 14  1  0
 13 12  1  0
 15  9  1  0
 16 15  2  0
 17 15  1  0
 18 17  1  0
 19 20  1  0
 18 19  1  6
 21 25  1  0
 21 20  1  0
 22 21  2  0
 23 24  1  0
 23 18  1  0
 26 23  2  0
M  END
$$$$
