PKE.pdb
     RDKit          3D

 26 26  0  0  1  0  0  0  0  0999 V2000
   16.8817  -12.9901  -14.2208 N   0  0  0  0  0  0  0  0  0  0  0  0
   16.8182  -14.0077  -15.2776 C   0  0  0  0  0  0  0  0  0  0  0  0
   15.8134  -13.4807  -16.2777 C   0  0  0  0  0  0  0  0  0  0  0  0
   15.5620  -12.0652  -15.8472 C   0  0  0  0  0  0  0  0  0  0  0  0
   16.8015  -11.7827  -14.9893 C   0  0  1  0  0  0  0  0  0  0  0  0
   16.4781  -10.5957  -14.1542 C   0  0  0  0  0  0  0  0  0  0  0  0
   16.4243   -9.4547  -14.6902 O   0  0  0  0  0  0  0  0  0  0  0  0
   16.2238  -10.6863  -12.7670 N   0  0  0  0  0  0  0  0  0  0  0  0
   15.7725   -9.6044  -11.9498 C   0  0  1  0  0  0  0  0  0  0  0  0
   14.9252  -10.0921  -10.7834 C   0  0  0  0  0  0  0  0  0  0  0  0
   13.4739   -9.7628  -10.9214 C   0  0  0  0  0  0  0  0  0  0  0  0
   12.7742  -10.3438   -9.7052 C   0  0  0  0  0  0  0  0  0  0  0  0
   11.2975   -9.9939   -9.7360 C   0  0  0  0  0  0  0  0  0  0  0  0
   10.5921  -10.6623   -8.6691 N   0  0  0  0  0  0  0  0  0  0  0  0
   16.9990   -8.9648  -11.3291 C   0  0  0  0  0  0  0  0  0  0  0  0
   17.8689   -9.6762  -10.7756 O   0  0  0  0  0  0  0  0  0  0  0  0
   17.1761   -7.5669  -11.3657 N   0  0  0  0  0  0  0  0  0  0  0  0
   18.2591   -6.8227  -10.8039 C   0  0  1  0  0  0  0  0  0  0  0  0
   19.2905   -6.3357  -11.8049 C   0  0  0  0  0  0  0  0  0  0  0  0
   20.4192   -5.6734  -11.0680 C   0  0  0  0  0  0  0  0  0  0  0  0
   21.5022   -5.2293  -12.0186 C   0  0  0  0  0  0  0  0  0  0  0  0
   21.4511   -4.1458  -12.6480 O   0  0  0  0  0  0  0  0  0  0  0  0
   17.8401   -5.8032   -9.8294 C   0  0  0  0  0  0  0  0  0  0  0  0
   16.5944   -5.1845   -9.8774 O   0  0  0  0  0  0  0  0  0  0  0  0
   22.5857   -6.0723  -12.1848 O   0  0  0  0  0  0  0  0  0  0  0  0
   18.6037   -5.4421   -8.8962 O   0  0  0  0  0  0  0  0  0  0  0  0
  1  5  1  0
  1  2  1  0
  2  3  1  0
  4  3  1  0
  5  4  1  0
  6  7  2  0
  5  6  1  1
  8  6  1  0
  9 10  1  1
  9  8  1  0
 11 10  1  0
 11 12  1  0
 13 14  1  0
 13 12  1  0
 15  9  1  0
 16 15  2  0
 17 15  1  0
 18 17  1  0
 19 20  1  0
 18 19  1  6
 21 25  1  0
 21 20  1  0
 22 21  2  0
 23 24  1  0
 23 18  1  0
 26 23  2  0
M  END
$$$$
