PKE.pdb
     RDKit          3D

 26 26  0  0  1  0  0  0  0  0999 V2000
   23.3876  -11.6203  -15.5279 N   0  0  0  0  0  0  0  0  0  0  0  0
   24.4914  -12.5217  -15.8821 C   0  0  0  0  0  0  0  0  0  0  0  0
   24.2315  -12.9246  -17.3165 C   0  0  0  0  0  0  0  0  0  0  0  0
   23.1274  -12.0140  -17.7683 C   0  0  0  0  0  0  0  0  0  0  0  0
   23.2312  -10.8774  -16.7438 C   0  0  1  0  0  0  0  0  0  0  0  0
   21.9424  -10.1378  -16.7985 C   0  0  0  0  0  0  0  0  0  0  0  0
   21.7434   -9.3034  -17.7237 O   0  0  0  0  0  0  0  0  0  0  0  0
   20.9136  -10.3283  -15.8485 N   0  0  0  0  0  0  0  0  0  0  0  0
   19.6263   -9.7108  -15.9079 C   0  0  1  0  0  0  0  0  0  0  0  0
   18.5105  -10.6988  -15.5991 C   0  0  0  0  0  0  0  0  0  0  0  0
   17.9373  -11.3509  -16.8156 C   0  0  0  0  0  0  0  0  0  0  0  0
   16.8855  -12.3340  -16.3325 C   0  0  0  0  0  0  0  0  0  0  0  0
   16.2804  -13.0726  -17.5124 C   0  0  0  0  0  0  0  0  0  0  0  0
   15.2646  -13.9971  -17.0696 N   0  0  0  0  0  0  0  0  0  0  0  0
   19.5726   -8.6710  -14.8059 C   0  0  0  0  0  0  0  0  0  0  0  0
   20.2441   -8.8260  -13.7599 O   0  0  0  0  0  0  0  0  0  0  0  0
   18.7693   -7.5209  -14.9425 N   0  0  0  0  0  0  0  0  0  0  0  0
   19.0613   -6.2065  -14.4633 C   0  0  1  0  0  0  0  0  0  0  0  0
   20.5236   -5.8071  -14.5361 C   0  0  0  0  0  0  0  0  0  0  0  0
   20.7256   -4.5315  -13.7694 C   0  0  0  0  0  0  0  0  0  0  0  0
   22.1807   -4.1367  -13.7455 C   0  0  0  0  0  0  0  0  0  0  0  0
   22.5603   -2.9511  -13.5939 O   0  0  0  0  0  0  0  0  0  0  0  0
   18.1321   -5.1744  -14.9491 C   0  0  0  0  0  0  0  0  0  0  0  0
   17.5868   -4.2019  -14.1162 O   0  0  0  0  0  0  0  0  0  0  0  0
   23.1145   -5.1448  -13.9002 O   0  0  0  0  0  0  0  0  0  0  0  0
   17.7858   -5.1275  -16.1583 O   0  0  0  0  0  0  0  0  0  0  0  0
  1  5  1  0
  1  2  1  0
  2  3  1  0
  4  3  1  0
  5  4  1  0
  6  7  2  0
  5  6  1  1
  8  6  1  0
  9 10  1  1
  9  8  1  0
 11 10  1  0
 11 12  1  0
 13 14  1  0
 13 12  1  0
 15  9  1  0
 16 15  2  0
 17 15  1  0
 18 17  1  0
 19 20  1  0
 18 19  1  6
 21 25  1  0
 21 20  1  0
 22 21  2  0
 23 24  1  0
 23 18  1  0
 26 23  2  0
M  END
$$$$
