PKE.pdb
     RDKit          3D

 26 26  0  0  1  0  0  0  0  0999 V2000
   29.4545  -21.6700  -12.5926 N   0  0  0  0  0  0  0  0  0  0  0  0
   30.4454  -22.2205  -11.6590 C   0  0  0  0  0  0  0  0  0  0  0  0
   30.5644  -21.1943  -10.5544 C   0  0  0  0  0  0  0  0  0  0  0  0
   29.4333  -20.2402  -10.8044 C   0  0  0  0  0  0  0  0  0  0  0  0
   28.5084  -21.0883  -11.6863 C   0  0  1  0  0  0  0  0  0  0  0  0
   27.5801  -20.1425  -12.3604 C   0  0  0  0  0  0  0  0  0  0  0  0
   26.7526  -19.4858  -11.6706 O   0  0  0  0  0  0  0  0  0  0  0  0
   27.5808  -19.9408  -13.7592 N   0  0  0  0  0  0  0  0  0  0  0  0
   26.7857  -18.9694  -14.4420 C   0  0  1  0  0  0  0  0  0  0  0  0
   27.4913  -18.4282  -15.6771 C   0  0  0  0  0  0  0  0  0  0  0  0
   26.6520  -17.4874  -16.4796 C   0  0  0  0  0  0  0  0  0  0  0  0
   27.4894  -17.0602  -17.6723 C   0  0  0  0  0  0  0  0  0  0  0  0
   26.7121  -16.0793  -18.5312 C   0  0  0  0  0  0  0  0  0  0  0  0
   27.5031  -15.6502  -19.6593 N   0  0  0  0  0  0  0  0  0  0  0  0
   25.5465  -19.6780  -14.9526 C   0  0  0  0  0  0  0  0  0  0  0  0
   25.6535  -20.6461  -15.7404 O   0  0  0  0  0  0  0  0  0  0  0  0
   24.2624  -19.2585  -14.5502 N   0  0  0  0  0  0  0  0  0  0  0  0
   23.0163  -19.8844  -14.8631 C   0  0  1  0  0  0  0  0  0  0  0  0
   21.9773  -19.8334  -13.7582 C   0  0  0  0  0  0  0  0  0  0  0  0
   20.7752  -20.6323  -14.1736 C   0  0  0  0  0  0  0  0  0  0  0  0
   19.6923  -20.5689  -13.1263 C   0  0  0  0  0  0  0  0  0  0  0  0
   19.8058  -19.9000  -12.0716 O   0  0  0  0  0  0  0  0  0  0  0  0
   22.4939  -19.5408  -16.1949 C   0  0  0  0  0  0  0  0  0  0  0  0
   21.8898  -20.4761  -17.0297 O   0  0  0  0  0  0  0  0  0  0  0  0
   18.5360  -21.2890  -13.3646 O   0  0  0  0  0  0  0  0  0  0  0  0
   22.5732  -18.3668  -16.6420 O   0  0  0  0  0  0  0  0  0  0  0  0
  1  5  1  0
  1  2  1  0
  2  3  1  0
  4  3  1  0
  5  4  1  0
  6  7  2  0
  5  6  1  6
  8  6  1  0
  9 10  1  6
  9  8  1  0
 11 10  1  0
 11 12  1  0
 13 14  1  0
 13 12  1  0
 15  9  1  0
 16 15  2  0
 17 15  1  0
 18 17  1  0
 19 20  1  0
 18 19  1  1
 21 25  1  0
 21 20  1  0
 22 21  2  0
 23 24  1  0
 23 18  1  0
 26 23  2  0
M  END
$$$$
