PKE.pdb
     RDKit          3D

 26 26  0  0  1  0  0  0  0  0999 V2000
   23.9092  -12.2801  -15.3377 N   0  0  0  0  0  0  0  0  0  0  0  0
   25.0687  -13.1423  -15.5996 C   0  0  0  0  0  0  0  0  0  0  0  0
   24.9616  -13.5204  -17.0601 C   0  0  0  0  0  0  0  0  0  0  0  0
   23.8800  -12.6311  -17.6001 C   0  0  0  0  0  0  0  0  0  0  0  0
   23.8497  -11.5151  -16.5485 C   0  0  1  0  0  0  0  0  0  0  0  0
   22.5508  -10.8106  -16.7147 C   0  0  0  0  0  0  0  0  0  0  0  0
   22.4088   -9.9826  -17.6561 O   0  0  0  0  0  0  0  0  0  0  0  0
   21.4505  -11.0281  -15.8550 N   0  0  0  0  0  0  0  0  0  0  0  0
   20.1490  -10.4681  -16.0410 C   0  0  1  0  0  0  0  0  0  0  0  0
   19.0519  -11.4949  -15.7994 C   0  0  0  0  0  0  0  0  0  0  0  0
   17.6752  -10.9648  -16.0390 C   0  0  0  0  0  0  0  0  0  0  0  0
   16.7203  -12.1349  -15.8801 C   0  0  0  0  0  0  0  0  0  0  0  0
   15.3097  -11.7107  -16.2463 C   0  0  0  0  0  0  0  0  0  0  0  0
   14.4323  -12.8548  -16.3083 N   0  0  0  0  0  0  0  0  0  0  0  0
   19.9588   -9.4039  -14.9781 C   0  0  0  0  0  0  0  0  0  0  0  0
   20.6123   -9.4554  -13.9106 O   0  0  0  0  0  0  0  0  0  0  0  0
   19.0474   -8.3469  -15.1754 N   0  0  0  0  0  0  0  0  0  0  0  0
   19.1647   -7.0086  -14.6879 C   0  0  1  0  0  0  0  0  0  0  0  0
   20.5749   -6.4479  -14.6851 C   0  0  0  0  0  0  0  0  0  0  0  0
   20.5634   -5.0860  -14.0519 C   0  0  0  0  0  0  0  0  0  0  0  0
   21.9580   -4.5215  -13.9521 C   0  0  0  0  0  0  0  0  0  0  0  0
   22.5485   -3.9943  -14.9248 O   0  0  0  0  0  0  0  0  0  0  0  0
   18.1530   -6.0865  -15.2274 C   0  0  0  0  0  0  0  0  0  0  0  0
   17.5854   -5.0665  -14.4697 O   0  0  0  0  0  0  0  0  0  0  0  0
   22.5891   -4.6024  -12.7243 O   0  0  0  0  0  0  0  0  0  0  0  0
   17.7521   -6.1837  -16.4166 O   0  0  0  0  0  0  0  0  0  0  0  0
  1  5  1  0
  1  2  1  0
  2  3  1  0
  4  3  1  0
  5  4  1  0
  6  7  2  0
  5  6  1  1
  8  6  1  0
  9 10  1  1
  9  8  1  0
 11 10  1  0
 11 12  1  0
 13 14  1  0
 13 12  1  0
 15  9  1  0
 16 15  2  0
 17 15  1  0
 18 17  1  0
 19 20  1  0
 18 19  1  6
 21 25  1  0
 21 20  1  0
 22 21  2  0
 23 24  1  0
 23 18  1  0
 26 23  2  0
M  END
$$$$
