PKE.pdb
     RDKit          3D

 26 26  0  0  1  0  0  0  0  0999 V2000
   25.4892  -15.5949  -15.8552 N   0  0  0  0  0  0  0  0  0  0  0  0
   26.5456  -14.5876  -15.6953 C   0  0  0  0  0  0  0  0  0  0  0  0
   27.7925  -15.2242  -16.2675 C   0  0  0  0  0  0  0  0  0  0  0  0
   27.2997  -16.4641  -16.9547 C   0  0  0  0  0  0  0  0  0  0  0  0
   25.8127  -16.1385  -17.1416 C   0  0  1  0  0  0  0  0  0  0  0  0
   25.1251  -17.4305  -17.4040 C   0  0  0  0  0  0  0  0  0  0  0  0
   24.4200  -17.5596  -18.4423 O   0  0  0  0  0  0  0  0  0  0  0  0
   25.2257  -18.5382  -16.5322 N   0  0  0  0  0  0  0  0  0  0  0  0
   24.6749  -19.8310  -16.7916 C   0  0  1  0  0  0  0  0  0  0  0  0
   25.6661  -20.9418  -16.4755 C   0  0  0  0  0  0  0  0  0  0  0  0
   25.1324  -22.3118  -16.7435 C   0  0  0  0  0  0  0  0  0  0  0  0
   26.2537  -23.2881  -16.4340 C   0  0  0  0  0  0  0  0  0  0  0  0
   25.7765  -24.7139  -16.6419 C   0  0  0  0  0  0  0  0  0  0  0  0
   26.8194  -25.6549  -16.3110 N   0  0  0  0  0  0  0  0  0  0  0  0
   23.5157  -20.0285  -15.8347 C   0  0  0  0  0  0  0  0  0  0  0  0
   23.6848  -19.8856  -14.6017 O   0  0  0  0  0  0  0  0  0  0  0  0
   22.2374  -20.3748  -16.3172 N   0  0  0  0  0  0  0  0  0  0  0  0
   21.0404  -20.5232  -15.5506 C   0  0  1  0  0  0  0  0  0  0  0  0
   19.7643  -20.1274  -16.2702 C   0  0  0  0  0  0  0  0  0  0  0  0
   18.6022  -20.2711  -15.3296 C   0  0  0  0  0  0  0  0  0  0  0  0
   17.3192  -19.8154  -15.9775 C   0  0  0  0  0  0  0  0  0  0  0  0
   17.0721  -18.6102  -16.2211 O   0  0  0  0  0  0  0  0  0  0  0  0
   20.9501  -21.8011  -14.8271 C   0  0  0  0  0  0  0  0  0  0  0  0
   20.5287  -21.8874  -13.5036 O   0  0  0  0  0  0  0  0  0  0  0  0
   16.3935  -20.7887  -16.3059 O   0  0  0  0  0  0  0  0  0  0  0  0
   21.2554  -22.8876  -15.3845 O   0  0  0  0  0  0  0  0  0  0  0  0
  1  5  1  0
  1  2  1  0
  2  3  1  0
  4  3  1  0
  5  4  1  0
  6  7  2  0
  5  6  1  1
  8  6  1  0
  9 10  1  1
  9  8  1  0
 11 10  1  0
 11 12  1  0
 13 14  1  0
 13 12  1  0
 15  9  1  0
 16 15  2  0
 17 15  1  0
 18 17  1  0
 19 20  1  0
 18 19  1  6
 21 25  1  0
 21 20  1  0
 22 21  2  0
 23 24  1  0
 23 18  1  0
 26 23  2  0
M  END
$$$$
