PKE.pdb
     RDKit          3D

 26 26  0  0  1  0  0  0  0  0999 V2000
   19.1423  -12.9183  -18.7855 N   0  0  0  0  0  0  0  0  0  0  0  0
   18.1160  -13.8605  -19.2495 C   0  0  0  0  0  0  0  0  0  0  0  0
   17.8112  -14.7369  -18.0551 C   0  0  0  0  0  0  0  0  0  0  0  0
   18.5044  -14.0623  -16.9076 C   0  0  0  0  0  0  0  0  0  0  0  0
   18.6872  -12.6413  -17.4547 C   0  0  1  0  0  0  0  0  0  0  0  0
   19.7326  -11.9954  -16.6174 C   0  0  0  0  0  0  0  0  0  0  0  0
   19.4712  -11.6926  -15.4208 O   0  0  0  0  0  0  0  0  0  0  0  0
   21.0254  -11.7002  -17.1060 N   0  0  0  0  0  0  0  0  0  0  0  0
   22.0591  -11.0715  -16.3454 C   0  0  1  0  0  0  0  0  0  0  0  0
   23.4437  -11.4593  -16.8444 C   0  0  0  0  0  0  0  0  0  0  0  0
   24.5548  -10.7981  -16.0949 C   0  0  0  0  0  0  0  0  0  0  0  0
   25.8526  -11.3645  -16.6436 C   0  0  0  0  0  0  0  0  0  0  0  0
   27.0266  -10.8782  -15.8135 C   0  0  0  0  0  0  0  0  0  0  0  0
   28.2674  -11.4108  -16.3226 N   0  0  0  0  0  0  0  0  0  0  0  0
   21.9425   -9.5772  -16.5732 C   0  0  0  0  0  0  0  0  0  0  0  0
   22.1107   -9.0992  -17.7188 O   0  0  0  0  0  0  0  0  0  0  0  0
   21.6451   -8.7089  -15.5034 N   0  0  0  0  0  0  0  0  0  0  0  0
   21.3994   -7.3032  -15.5801 C   0  0  1  0  0  0  0  0  0  0  0  0
   20.0888   -6.9158  -16.2398 C   0  0  0  0  0  0  0  0  0  0  0  0
   20.0059   -5.4190  -16.3318 C   0  0  0  0  0  0  0  0  0  0  0  0
   18.6843   -4.9828  -16.9121 C   0  0  0  0  0  0  0  0  0  0  0  0
   17.8274   -5.7946  -17.3358 O   0  0  0  0  0  0  0  0  0  0  0  0
   21.6791   -6.5797  -14.3299 C   0  0  0  0  0  0  0  0  0  0  0  0
   21.8314   -5.1973  -14.2793 O   0  0  0  0  0  0  0  0  0  0  0  0
   18.4331   -3.6241  -16.9678 O   0  0  0  0  0  0  0  0  0  0  0  0
   21.7944   -7.1913  -13.2358 O   0  0  0  0  0  0  0  0  0  0  0  0
  1  5  1  0
  1  2  1  0
  2  3  1  0
  4  3  1  0
  5  4  1  0
  6  7  2  0
  5  6  1  1
  8  6  1  0
  9 10  1  6
  9  8  1  0
 11 10  1  0
 11 12  1  0
 13 14  1  0
 13 12  1  0
 15  9  1  0
 16 15  2  0
 17 15  1  0
 18 17  1  0
 19 20  1  0
 18 19  1  1
 21 25  1  0
 21 20  1  0
 22 21  2  0
 23 24  1  0
 23 18  1  0
 26 23  2  0
M  END
$$$$
