PKE.pdb
     RDKit          3D

 26 26  0  0  1  0  0  0  0  0999 V2000
   21.7396  -12.2640  -17.0174 N   0  0  0  0  0  0  0  0  0  0  0  0
   21.9075  -13.5495  -17.7071 C   0  0  0  0  0  0  0  0  0  0  0  0
   20.8087  -13.5904  -18.7456 C   0  0  0  0  0  0  0  0  0  0  0  0
   20.2434  -12.2002  -18.7494 C   0  0  0  0  0  0  0  0  0  0  0  0
   21.3873  -11.4042  -18.1090 C   0  0  1  0  0  0  0  0  0  0  0  0
   20.8040  -10.1144  -17.6539 C   0  0  0  0  0  0  0  0  0  0  0  0
   20.4390   -9.2612  -18.5087 O   0  0  0  0  0  0  0  0  0  0  0  0
   20.6362   -9.7939  -16.2877 N   0  0  0  0  0  0  0  0  0  0  0  0
   19.9763   -8.6234  -15.8013 C   0  0  1  0  0  0  0  0  0  0  0  0
   18.8397   -8.9692  -14.8500 C   0  0  0  0  0  0  0  0  0  0  0  0
   17.5806   -9.3732  -15.5465 C   0  0  0  0  0  0  0  0  0  0  0  0
   16.5363   -9.6022  -14.4680 C   0  0  0  0  0  0  0  0  0  0  0  0
   15.2566  -10.1358  -15.0857 C   0  0  0  0  0  0  0  0  0  0  0  0
   14.2462  -10.3351  -14.0748 N   0  0  0  0  0  0  0  0  0  0  0  0
   20.9833   -7.8474  -14.9754 C   0  0  0  0  0  0  0  0  0  0  0  0
   21.6462   -8.4254  -14.0835 O   0  0  0  0  0  0  0  0  0  0  0  0
   21.1859   -6.4704  -15.1985 N   0  0  0  0  0  0  0  0  0  0  0  0
   22.1889   -5.6422  -14.6064 C   0  0  1  0  0  0  0  0  0  0  0  0
   22.3894   -4.2968  -15.2792 C   0  0  0  0  0  0  0  0  0  0  0  0
   21.3552   -3.3326  -14.7729 C   0  0  0  0  0  0  0  0  0  0  0  0
   20.8013   -2.4912  -15.8949 C   0  0  0  0  0  0  0  0  0  0  0  0
   19.5723   -2.3051  -16.0614 O   0  0  0  0  0  0  0  0  0  0  0  0
   22.1165   -5.5746  -13.1385 C   0  0  0  0  0  0  0  0  0  0  0  0
   23.2049   -5.2183  -12.3478 O   0  0  0  0  0  0  0  0  0  0  0  0
   21.7096   -1.9127  -16.7624 O   0  0  0  0  0  0  0  0  0  0  0  0
   21.0492   -5.8408  -12.5266 O   0  0  0  0  0  0  0  0  0  0  0  0
  1  5  1  0
  1  2  1  0
  2  3  1  0
  4  3  1  0
  5  4  1  0
  6  7  2  0
  5  6  1  1
  8  6  1  0
  9 10  1  1
  9  8  1  0
 11 10  1  0
 11 12  1  0
 13 14  1  0
 13 12  1  0
 15  9  1  0
 16 15  2  0
 17 15  1  0
 18 17  1  0
 19 20  1  0
 18 19  1  6
 21 25  1  0
 21 20  1  0
 22 21  2  0
 23 24  1  0
 23 18  1  0
 26 23  2  0
M  END
$$$$
