PKE.pdb
     RDKit          3D

 26 26  0  0  1  0  0  0  0  0999 V2000
   20.2068  -18.7383  -19.8015 N   0  0  0  0  0  0  0  0  0  0  0  0
   20.2631  -20.2036  -19.8795 C   0  0  0  0  0  0  0  0  0  0  0  0
   21.6678  -20.5710  -19.4558 C   0  0  0  0  0  0  0  0  0  0  0  0
   22.2421  -19.2952  -18.9130 C   0  0  0  0  0  0  0  0  0  0  0  0
   20.9707  -18.4913  -18.6139 C   0  0  1  0  0  0  0  0  0  0  0  0
   21.3871  -17.0694  -18.4891 C   0  0  0  0  0  0  0  0  0  0  0  0
   22.0725  -16.7075  -17.4935 O   0  0  0  0  0  0  0  0  0  0  0  0
   21.0464  -16.0886  -19.4479 N   0  0  0  0  0  0  0  0  0  0  0  0
   21.4688  -14.7242  -19.4022 C   0  0  1  0  0  0  0  0  0  0  0  0
   22.0249  -14.2593  -20.7404 C   0  0  0  0  0  0  0  0  0  0  0  0
   23.4221  -14.7221  -20.9992 C   0  0  0  0  0  0  0  0  0  0  0  0
   23.8213  -14.1750  -22.3585 C   0  0  0  0  0  0  0  0  0  0  0  0
   25.2213  -14.6390  -22.7172 C   0  0  0  0  0  0  0  0  0  0  0  0
   25.5480  -14.2740  -24.0747 N   0  0  0  0  0  0  0  0  0  0  0  0
   20.2361  -13.8779  -19.1517 C   0  0  0  0  0  0  0  0  0  0  0  0
   19.1753  -14.1089  -19.7764 O   0  0  0  0  0  0  0  0  0  0  0  0
   20.2671  -12.8234  -18.2168 N   0  0  0  0  0  0  0  0  0  0  0  0
   19.1966  -11.9363  -17.8859 C   0  0  1  0  0  0  0  0  0  0  0  0
   18.5155  -12.2190  -16.5596 C   0  0  0  0  0  0  0  0  0  0  0  0
   17.2918  -11.3565  -16.4393 C   0  0  0  0  0  0  0  0  0  0  0  0
   16.5085  -11.6952  -15.1962 C   0  0  0  0  0  0  0  0  0  0  0  0
   16.0478  -10.8207  -14.4243 O   0  0  0  0  0  0  0  0  0  0  0  0
   19.5080  -10.5159  -18.1102 C   0  0  0  0  0  0  0  0  0  0  0  0
   18.5365   -9.5770  -18.4439 O   0  0  0  0  0  0  0  0  0  0  0  0
   16.3048  -13.0347  -14.9197 O   0  0  0  0  0  0  0  0  0  0  0  0
   20.6859  -10.0839  -18.0080 O   0  0  0  0  0  0  0  0  0  0  0  0
  1  5  1  0
  1  2  1  0
  2  3  1  0
  4  3  1  0
  5  4  1  0
  6  7  2  0
  5  6  1  6
  8  6  1  0
  9 10  1  6
  9  8  1  0
 11 10  1  0
 11 12  1  0
 13 14  1  0
 13 12  1  0
 15  9  1  0
 16 15  2  0
 17 15  1  0
 18 17  1  0
 19 20  1  0
 18 19  1  1
 21 25  1  0
 21 20  1  0
 22 21  2  0
 23 24  1  0
 23 18  1  0
 26 23  2  0
M  END
$$$$
