PKE.pdb
     RDKit          3D

 26 26  0  0  1  0  0  0  0  0999 V2000
   16.6937  -12.4525  -13.3626 N   0  0  0  0  0  0  0  0  0  0  0  0
   16.7559  -13.4553  -14.4336 C   0  0  0  0  0  0  0  0  0  0  0  0
   15.8092  -12.9556  -15.5020 C   0  0  0  0  0  0  0  0  0  0  0  0
   15.4643  -11.5589  -15.0749 C   0  0  0  0  0  0  0  0  0  0  0  0
   16.6207  -11.2377  -14.1201 C   0  0  1  0  0  0  0  0  0  0  0  0
   16.1829  -10.0785  -13.2981 C   0  0  0  0  0  0  0  0  0  0  0  0
   16.0894   -8.9387  -13.8309 O   0  0  0  0  0  0  0  0  0  0  0  0
   15.8613  -10.1949  -11.9269 N   0  0  0  0  0  0  0  0  0  0  0  0
   15.3982   -9.1212  -11.1054 C   0  0  1  0  0  0  0  0  0  0  0  0
   14.5612   -9.6231   -9.9376 C   0  0  0  0  0  0  0  0  0  0  0  0
   13.1220   -9.8329  -10.2816 C   0  0  0  0  0  0  0  0  0  0  0  0
   12.4575  -10.4225   -9.0499 C   0  0  0  0  0  0  0  0  0  0  0  0
   11.0073  -10.7565   -9.3487 C   0  0  0  0  0  0  0  0  0  0  0  0
   10.3923  -11.4151   -8.2215 N   0  0  0  0  0  0  0  0  0  0  0  0
   16.6181   -8.4670  -10.4870 C   0  0  0  0  0  0  0  0  0  0  0  0
   17.5904   -9.1663  -10.1200 O   0  0  0  0  0  0  0  0  0  0  0  0
   16.6742   -7.0689  -10.3166 N   0  0  0  0  0  0  0  0  0  0  0  0
   17.8491   -6.2639  -10.1982 C   0  0  1  0  0  0  0  0  0  0  0  0
   18.9609   -6.6039  -11.1736 C   0  0  0  0  0  0  0  0  0  0  0  0
   20.1656   -5.7628  -10.8617 C   0  0  0  0  0  0  0  0  0  0  0  0
   21.3019   -6.0710  -11.8037 C   0  0  0  0  0  0  0  0  0  0  0  0
   22.0240   -5.1800  -12.3113 O   0  0  0  0  0  0  0  0  0  0  0  0
   17.5755   -4.8233  -10.0782 C   0  0  0  0  0  0  0  0  0  0  0  0
   18.3690   -3.9681   -9.3193 O   0  0  0  0  0  0  0  0  0  0  0  0
   21.5350   -7.4006  -12.1036 O   0  0  0  0  0  0  0  0  0  0  0  0
   16.5959   -4.2956  -10.6667 O   0  0  0  0  0  0  0  0  0  0  0  0
  1  5  1  0
  1  2  1  0
  2  3  1  0
  4  3  1  0
  5  4  1  0
  6  7  2  0
  5  6  1  1
  8  6  1  0
  9 10  1  1
  9  8  1  0
 11 10  1  0
 11 12  1  0
 13 14  1  0
 13 12  1  0
 15  9  1  0
 16 15  2  0
 17 15  1  0
 18 17  1  0
 19 20  1  0
 18 19  1  6
 21 25  1  0
 21 20  1  0
 22 21  2  0
 23 24  1  0
 23 18  1  0
 26 23  2  0
M  END
$$$$
