PKE.pdb
     RDKit          3D

 26 26  0  0  1  0  0  0  0  0999 V2000
   23.0871  -14.2573  -18.4530 N   0  0  0  0  0  0  0  0  0  0  0  0
   23.6946  -15.3847  -19.1714 C   0  0  0  0  0  0  0  0  0  0  0  0
   22.9187  -15.4970  -20.4648 C   0  0  0  0  0  0  0  0  0  0  0  0
   22.0820  -14.2520  -20.5102 C   0  0  0  0  0  0  0  0  0  0  0  0
   22.8330  -13.3441  -19.5284 C   0  0  1  0  0  0  0  0  0  0  0  0
   21.8893  -12.2606  -19.1455 C   0  0  0  0  0  0  0  0  0  0  0  0
   21.5831  -11.3755  -19.9908 O   0  0  0  0  0  0  0  0  0  0  0  0
   21.3098  -12.1741  -17.8594 N   0  0  0  0  0  0  0  0  0  0  0  0
   20.3516  -11.1909  -17.4629 C   0  0  1  0  0  0  0  0  0  0  0  0
   19.0967  -11.8264  -16.8817 C   0  0  0  0  0  0  0  0  0  0  0  0
   18.1000  -10.8309  -16.3825 C   0  0  0  0  0  0  0  0  0  0  0  0
   16.8958  -11.6197  -15.8990 C   0  0  0  0  0  0  0  0  0  0  0  0
   15.8797  -10.6859  -15.2670 C   0  0  0  0  0  0  0  0  0  0  0  0
   14.7456  -11.4267  -14.7694 N   0  0  0  0  0  0  0  0  0  0  0  0
   20.9681  -10.3888  -16.3337 C   0  0  0  0  0  0  0  0  0  0  0  0
   21.5383  -10.9732  -15.3836 O   0  0  0  0  0  0  0  0  0  0  0  0
   20.9078   -8.9806  -16.3370 N   0  0  0  0  0  0  0  0  0  0  0  0
   21.3807   -8.0976  -15.3177 C   0  0  1  0  0  0  0  0  0  0  0  0
   21.6311   -6.6708  -15.7700 C   0  0  0  0  0  0  0  0  0  0  0  0
   22.1245   -5.8627  -14.6042 C   0  0  0  0  0  0  0  0  0  0  0  0
   22.3123   -4.4162  -14.9864 C   0  0  0  0  0  0  0  0  0  0  0  0
   22.1060   -3.9881  -16.1470 O   0  0  0  0  0  0  0  0  0  0  0  0
   20.6456   -8.2045  -14.0477 C   0  0  0  0  0  0  0  0  0  0  0  0
   21.2843   -8.2845  -12.8139 O   0  0  0  0  0  0  0  0  0  0  0  0
   22.7307   -3.5470  -13.9956 O   0  0  0  0  0  0  0  0  0  0  0  0
   19.3873   -8.2286  -14.0241 O   0  0  0  0  0  0  0  0  0  0  0  0
  1  5  1  0
  1  2  1  0
  2  3  1  0
  4  3  1  0
  5  4  1  0
  6  7  2  0
  5  6  1  1
  8  6  1  0
  9 10  1  1
  9  8  1  0
 11 10  1  0
 11 12  1  0
 13 14  1  0
 13 12  1  0
 15  9  1  0
 16 15  2  0
 17 15  1  0
 18 17  1  0
 19 20  1  0
 18 19  1  6
 21 25  1  0
 21 20  1  0
 22 21  2  0
 23 24  1  0
 23 18  1  0
 26 23  2  0
M  END
$$$$
