PRI.pdb
     RDKit          3D

 27 27  0  0  1  0  0  0  0  0999 V2000
    8.7865  -14.8444   18.6430 N   0  0  0  0  0  0  0  0  0  0  0  0
    8.7171  -14.1091   17.3943 C   0  0  0  0  0  0  0  0  0  0  0  0
    7.5264  -13.1915   17.5313 C   0  0  0  0  0  0  0  0  0  0  0  0
    7.2191  -13.2038   19.0066 C   0  0  0  0  0  0  0  0  0  0  0  0
    8.4690  -13.8478   19.6201 C   0  0  1  0  0  0  0  0  0  0  0  0
    8.0476  -14.4244   20.9201 C   0  0  0  0  0  0  0  0  0  0  0  0
    7.6220  -13.5802   21.7793 O   0  0  0  0  0  0  0  0  0  0  0  0
    5.3611  -20.2565   25.6874 N   0  0  0  0  0  0  0  0  0  0  0  0
    6.6464  -20.2567   26.2907 C   0  0  0  0  0  0  0  0  0  0  0  0
    6.7402  -20.4428   27.5748 N   0  0  0  0  0  0  0  0  0  0  0  0
    7.8413  -20.0639   25.5674 N   0  0  0  0  0  0  0  0  0  0  0  0
    7.8360  -19.6765   24.1843 C   0  0  0  0  0  0  0  0  0  0  0  0
    7.6272  -18.1566   24.1441 C   0  0  0  0  0  0  0  0  0  0  0  0
    7.7950  -17.7361   22.7200 C   0  0  0  0  0  0  0  0  0  0  0  0
    7.6555  -16.2566   22.5048 C   0  0  2  0  0  0  0  0  0  0  0  0
    8.0957  -15.8062   21.2319 N   0  0  0  0  0  0  0  0  0  0  0  0
    8.4789  -15.5684   23.5609 C   0  0  0  0  0  0  0  0  0  0  0  0
    9.7154  -15.4011   23.4244 O   0  0  0  0  0  0  0  0  0  0  0  0
    7.6213  -20.5131   28.0903 C   0  0  0  0  0  0  0  0  0  0  0  0
    5.8828  -12.2785   27.5910 C   0  0  0  0  0  0  0  0  0  0  0  0
    6.6138  -13.4580   27.0628 C   0  0  2  0  0  0  0  0  0  0  0  0
    7.7917  -13.2032   26.2030 C   0  0  0  0  0  0  0  0  0  0  0  0
    7.5346  -12.1634   25.1226 C   0  0  1  0  0  0  0  0  0  0  0  0
    8.5949  -14.3697   25.7498 N   0  0  0  0  0  0  0  0  0  0  0  0
    7.8330  -15.1105   24.7162 C   0  0  0  0  0  0  0  0  0  0  0  0
    8.9829  -15.3470   26.7705 O   0  0  0  0  0  0  0  0  0  0  0  0
    9.8325  -15.1236   27.8375 O   0  0  0  0  0  0  0  0  0  0  0  0
  1  2  1  0
  3  2  1  0
  4  5  1  0
  4  3  1  0
  5  1  1  0
  5  6  1  1
  7  6  2  0
  9 11  1  0
  9  8  1  0
 10  9  2  0
 12 11  1  0
 13 14  1  0
 13 12  1  0
 15 14  1  6
 15 16  1  0
 16  6  1  0
 17 24  1  0
 17 15  1  0
 18 17  2  0
 20 19  1  0
 20 21  1  0
 21 22  1  1
 23 21  1  0
 23 25  1  0
 23 24  1  6
 25 26  1  0
 27 25  2  0
M  END
$$$$
