PRI.pdb
     RDKit          3D

 27 27  0  0  1  0  0  0  0  0999 V2000
    8.3787  -15.2493   18.6540 N   0  0  0  0  0  0  0  0  0  0  0  0
    8.5329  -14.6217   17.3551 C   0  0  0  0  0  0  0  0  0  0  0  0
    7.6853  -13.3738   17.4061 C   0  0  0  0  0  0  0  0  0  0  0  0
    7.3977  -13.1829   18.8731 C   0  0  0  0  0  0  0  0  0  0  0  0
    8.3907  -14.1350   19.5521 C   0  0  1  0  0  0  0  0  0  0  0  0
    7.8191  -14.4568   20.8824 C   0  0  0  0  0  0  0  0  0  0  0  0
    7.7674  -13.4805   21.7049 O   0  0  0  0  0  0  0  0  0  0  0  0
    5.5702  -21.1741   25.0854 N   0  0  0  0  0  0  0  0  0  0  0  0
    6.9501  -21.1166   24.7562 C   0  0  0  0  0  0  0  0  0  0  0  0
    7.8088  -21.7104   25.5323 N   0  0  0  0  0  0  0  0  0  0  0  0
    7.4481  -20.4438   23.6215 N   0  0  0  0  0  0  0  0  0  0  0  0
    6.5835  -19.7312   22.7228 C   0  0  0  0  0  0  0  0  0  0  0  0
    7.2534  -18.3817   22.4300 C   0  0  0  0  0  0  0  0  0  0  0  0
    6.2635  -17.3220   22.7906 C   0  0  0  0  0  0  0  0  0  0  0  0
    6.7505  -15.9252   22.5327 C   0  0  2  0  0  0  0  0  0  0  0  0
    7.3510  -15.7405   21.2591 N   0  0  0  0  0  0  0  0  0  0  0  0
    7.7734  -15.6027   23.5894 C   0  0  0  0  0  0  0  0  0  0  0  0
    9.0037  -15.7201   23.3702 O   0  0  0  0  0  0  0  0  0  0  0  0
    8.8060  -21.8132   25.3267 C   0  0  0  0  0  0  0  0  0  0  0  0
    6.0405  -11.8451   27.5241 C   0  0  0  0  0  0  0  0  0  0  0  0
    6.4624  -13.1521   26.9599 C   0  0  2  0  0  0  0  0  0  0  0  0
    7.7175  -13.1847   26.1757 C   0  0  0  0  0  0  0  0  0  0  0  0
    7.7667  -12.1359   25.0747 C   0  0  1  0  0  0  0  0  0  0  0  0
    8.2644  -14.5102   25.7819 N   0  0  0  0  0  0  0  0  0  0  0  0
    7.3233  -15.1625   24.8405 C   0  0  0  0  0  0  0  0  0  0  0  0
    8.5192  -15.4711   26.8586 O   0  0  0  0  0  0  0  0  0  0  0  0
    9.4769  -15.3572   27.8487 O   0  0  0  0  0  0  0  0  0  0  0  0
  1  2  1  0
  3  2  1  0
  4  5  1  0
  4  3  1  0
  5  1  1  0
  5  6  1  1
  7  6  2  0
  9 11  1  0
  9  8  1  0
 10  9  2  0
 12 11  1  0
 13 14  1  0
 13 12  1  0
 15 14  1  1
 15 16  1  0
 16  6  1  0
 17 24  1  0
 17 15  1  0
 18 17  2  0
 20 19  1  0
 20 21  1  0
 21 22  1  1
 23 21  1  0
 23 25  1  0
 23 24  1  6
 25 26  1  0
 27 25  2  0
M  END
$$$$
