PRI.pdb
     RDKit          3D

 27 27  0  0  1  0  0  0  0  0999 V2000
    8.8999  -14.6618   18.6670 N   0  0  0  0  0  0  0  0  0  0  0  0
    8.8182  -13.9614   17.3991 C   0  0  0  0  0  0  0  0  0  0  0  0
    7.5733  -13.1124   17.4860 C   0  0  0  0  0  0  0  0  0  0  0  0
    7.2314  -13.1080   18.9537 C   0  0  0  0  0  0  0  0  0  0  0  0
    8.5014  -13.6630   19.6115 C   0  0  1  0  0  0  0  0  0  0  0  0
    8.0827  -14.2326   20.9154 C   0  0  0  0  0  0  0  0  0  0  0  0
    7.5786  -13.3967   21.7397 O   0  0  0  0  0  0  0  0  0  0  0  0
   11.9803  -20.6358   21.9891 N   0  0  0  0  0  0  0  0  0  0  0  0
   10.9143  -20.0874   21.2282 C   0  0  0  0  0  0  0  0  0  0  0  0
   11.1849  -19.4818   20.1091 N   0  0  0  0  0  0  0  0  0  0  0  0
    9.5626  -20.1631   21.6222 N   0  0  0  0  0  0  0  0  0  0  0  0
    9.0989  -19.5882   22.8540 C   0  0  0  0  0  0  0  0  0  0  0  0
    9.1879  -18.0637   22.7001 C   0  0  0  0  0  0  0  0  0  0  0  0
    7.7853  -17.5482   22.6981 C   0  0  0  0  0  0  0  0  0  0  0  0
    7.6861  -16.0629   22.5012 C   0  0  2  0  0  0  0  0  0  0  0  0
    8.2128  -15.5997   21.2663 N   0  0  0  0  0  0  0  0  0  0  0  0
    8.4544  -15.4084   23.6185 C   0  0  0  0  0  0  0  0  0  0  0  0
    9.6662  -15.1061   23.4934 O   0  0  0  0  0  0  0  0  0  0  0  0
   10.4861  -19.0648   19.4887 C   0  0  0  0  0  0  0  0  0  0  0  0
    5.5239  -11.8029   26.1854 C   0  0  0  0  0  0  0  0  0  0  0  0
    6.5718  -12.6551   25.5688 C   0  0  2  0  0  0  0  0  0  0  0  0
    7.4625  -13.4094   26.4794 C   0  0  0  0  0  0  0  0  0  0  0  0
    8.0129  -12.5649   27.6189 C   0  0  2  0  0  0  0  0  0  0  0  0
    8.4507  -14.3443   25.8789 N   0  0  0  0  0  0  0  0  0  0  0  0
    7.7848  -15.1377   24.8184 C   0  0  0  0  0  0  0  0  0  0  0  0
    9.0945  -15.3019   26.7821 O   0  0  0  0  0  0  0  0  0  0  0  0
   10.2342  -15.0817   27.5324 O   0  0  0  0  0  0  0  0  0  0  0  0
  1  2  1  0
  3  2  1  0
  4  5  1  0
  4  3  1  0
  5  1  1  0
  5  6  1  1
  7  6  2  0
  9 11  1  0
  9  8  1  0
 10  9  2  0
 12 11  1  0
 13 14  1  0
 13 12  1  0
 15 14  1  6
 15 16  1  0
 16  6  1  0
 17 24  1  0
 17 15  1  0
 18 17  2  0
 20 19  1  0
 20 21  1  0
 21 22  1  1
 23 21  1  0
 23 25  1  0
 23 24  1  6
 25 26  1  0
 27 25  2  0
M  END
$$$$
