PRI.pdb
     RDKit          3D

 27 27  0  0  1  0  0  0  0  0999 V2000
    8.9098  -14.8387   18.4700 N   0  0  0  0  0  0  0  0  0  0  0  0
    8.9232  -14.1116   17.2146 C   0  0  0  0  0  0  0  0  0  0  0  0
    7.8076  -13.1006   17.3213 C   0  0  0  0  0  0  0  0  0  0  0  0
    7.4724  -13.0747   18.7903 C   0  0  0  0  0  0  0  0  0  0  0  0
    8.6549  -13.8111   19.4331 C   0  0  1  0  0  0  0  0  0  0  0  0
    8.1640  -14.3401   20.7289 C   0  0  0  0  0  0  0  0  0  0  0  0
    7.8165  -13.4559   21.5831 O   0  0  0  0  0  0  0  0  0  0  0  0
   10.2315  -19.5343   19.9624 N   0  0  0  0  0  0  0  0  0  0  0  0
    9.2111  -20.4931   19.7267 C   0  0  0  0  0  0  0  0  0  0  0  0
    9.2877  -21.2487   18.6705 N   0  0  0  0  0  0  0  0  0  0  0  0
    8.1059  -20.6743   20.5834 N   0  0  0  0  0  0  0  0  0  0  0  0
    7.9247  -19.8787   21.7654 C   0  0  0  0  0  0  0  0  0  0  0  0
    7.8597  -18.4130   21.3150 C   0  0  0  0  0  0  0  0  0  0  0  0
    7.5526  -17.6016   22.5316 C   0  0  0  0  0  0  0  0  0  0  0  0
    7.4909  -16.1235   22.2743 C   0  0  2  0  0  0  0  0  0  0  0  0
    8.0697  -15.7192   21.0421 N   0  0  0  0  0  0  0  0  0  0  0  0
    8.2332  -15.4406   23.3922 C   0  0  0  0  0  0  0  0  0  0  0  0
    9.4729  -15.2515   23.3383 O   0  0  0  0  0  0  0  0  0  0  0  0
    8.5547  -21.8916   18.3598 C   0  0  0  0  0  0  0  0  0  0  0  0
    6.9249  -11.2529   27.6765 C   0  0  0  0  0  0  0  0  0  0  0  0
    7.8625  -12.2397   27.0834 C   0  0  2  0  0  0  0  0  0  0  0  0
    7.3202  -13.1757   26.0727 C   0  0  0  0  0  0  0  0  0  0  0  0
    5.8778  -13.5795   26.3390 C   0  0  2  0  0  0  0  0  0  0  0  0
    8.1907  -14.2883   25.6086 N   0  0  0  0  0  0  0  0  0  0  0  0
    7.5070  -15.0128   24.5107 C   0  0  0  0  0  0  0  0  0  0  0  0
    8.5735  -15.2931   26.6041 O   0  0  0  0  0  0  0  0  0  0  0  0
    9.5243  -15.1428   27.5960 O   0  0  0  0  0  0  0  0  0  0  0  0
  1  2  1  0
  3  2  1  0
  4  5  1  0
  4  3  1  0
  5  1  1  0
  5  6  1  1
  7  6  2  0
  9 11  1  0
  9  8  1  0
 10  9  2  0
 12 11  1  0
 13 14  1  0
 13 12  1  0
 15 14  1  1
 15 16  1  0
 16  6  1  0
 17 24  1  0
 17 15  1  0
 18 17  2  0
 20 19  1  0
 20 21  1  0
 21 22  1  6
 23 21  1  0
 23 25  1  0
 23 24  1  1
 25 26  1  0
 27 25  2  0
M  END
$$$$
