PRI.pdb
     RDKit          3D

 27 27  0  0  1  0  0  0  0  0999 V2000
    7.7733  -14.9922   18.5443 N   0  0  0  0  0  0  0  0  0  0  0  0
    7.9124  -14.0113   17.4844 C   0  0  0  0  0  0  0  0  0  0  0  0
    7.8440  -12.6667   18.1667 C   0  0  0  0  0  0  0  0  0  0  0  0
    8.0436  -12.9831   19.6265 C   0  0  0  0  0  0  0  0  0  0  0  0
    8.5522  -14.4303   19.6055 C   0  0  1  0  0  0  0  0  0  0  0  0
    8.2261  -15.0079   20.9322 C   0  0  0  0  0  0  0  0  0  0  0  0
    7.0181  -14.8466   21.3157 O   0  0  0  0  0  0  0  0  0  0  0  0
   11.5754  -20.0309   20.1730 N   0  0  0  0  0  0  0  0  0  0  0  0
   10.4636  -20.8839   20.4016 C   0  0  0  0  0  0  0  0  0  0  0  0
   10.1489  -21.7654   19.4981 N   0  0  0  0  0  0  0  0  0  0  0  0
    9.6716  -20.8283   21.5668 N   0  0  0  0  0  0  0  0  0  0  0  0
    9.8986  -19.8477   22.5915 C   0  0  0  0  0  0  0  0  0  0  0  0
    9.1024  -18.5955   22.1994 C   0  0  0  0  0  0  0  0  0  0  0  0
    9.2970  -17.6001   23.2968 C   0  0  0  0  0  0  0  0  0  0  0  0
    8.7305  -16.2434   22.9915 C   0  0  2  0  0  0  0  0  0  0  0  0
    9.1550  -15.6975   21.7511 N   0  0  0  0  0  0  0  0  0  0  0  0
    9.1691  -15.3143   24.0922 C   0  0  0  0  0  0  0  0  0  0  0  0
   10.3268  -14.8300   24.1207 O   0  0  0  0  0  0  0  0  0  0  0  0
    9.3222  -22.3672   19.5346 C   0  0  0  0  0  0  0  0  0  0  0  0
    5.5225  -11.9646   26.9883 C   0  0  0  0  0  0  0  0  0  0  0  0
    6.3536  -13.1666   26.7255 C   0  0  2  0  0  0  0  0  0  0  0  0
    7.7519  -12.9489   26.2909 C   0  0  0  0  0  0  0  0  0  0  0  0
    7.8733  -12.0034   25.1052 C   0  0  1  0  0  0  0  0  0  0  0  0
    8.6587  -14.1257   26.2296 N   0  0  0  0  0  0  0  0  0  0  0  0
    8.2503  -14.9939   25.0995 C   0  0  0  0  0  0  0  0  0  0  0  0
    8.7207  -14.9804   27.4183 O   0  0  0  0  0  0  0  0  0  0  0  0
    9.2868  -14.6511   28.6355 O   0  0  0  0  0  0  0  0  0  0  0  0
  1  2  1  0
  3  2  1  0
  4  5  1  0
  4  3  1  0
  5  1  1  0
  5  6  1  1
  7  6  2  0
  9 11  1  0
  9  8  1  0
 10  9  2  0
 12 11  1  0
 13 14  1  0
 13 12  1  0
 15 14  1  1
 15 16  1  0
 16  6  1  0
 17 24  1  0
 17 15  1  0
 18 17  2  0
 20 19  1  0
 20 21  1  0
 21 22  1  1
 23 21  1  0
 23 25  1  0
 23 24  1  6
 25 26  1  0
 27 25  2  0
M  END
$$$$
