PRI.pdb
     RDKit          3D

 27 27  0  0  1  0  0  0  0  0999 V2000
    9.0468  -14.6978   18.5997 N   0  0  0  0  0  0  0  0  0  0  0  0
    8.9431  -13.9825   17.3417 C   0  0  0  0  0  0  0  0  0  0  0  0
    7.6020  -13.2910   17.3794 C   0  0  0  0  0  0  0  0  0  0  0  0
    7.1908  -13.3621   18.8275 C   0  0  0  0  0  0  0  0  0  0  0  0
    8.4849  -13.7764   19.5398 C   0  0  1  0  0  0  0  0  0  0  0  0
    8.0749  -14.4226   20.8103 C   0  0  0  0  0  0  0  0  0  0  0  0
    7.3801  -13.6919   21.5950 O   0  0  0  0  0  0  0  0  0  0  0  0
    9.1468  -22.8889   21.9308 N   0  0  0  0  0  0  0  0  0  0  0  0
    8.5819  -22.2437   20.7991 C   0  0  0  0  0  0  0  0  0  0  0  0
    8.3079  -22.9505   19.7419 N   0  0  0  0  0  0  0  0  0  0  0  0
    8.2980  -20.8633   20.7562 N   0  0  0  0  0  0  0  0  0  0  0  0
    8.5737  -19.9978   21.8689 C   0  0  0  0  0  0  0  0  0  0  0  0
    8.0611  -18.6016   21.4901 C   0  0  0  0  0  0  0  0  0  0  0  0
    8.3437  -17.7084   22.6543 C   0  0  0  0  0  0  0  0  0  0  0  0
    7.9735  -16.2722   22.4198 C   0  0  2  0  0  0  0  0  0  0  0  0
    8.4065  -15.7526   21.1710 N   0  0  0  0  0  0  0  0  0  0  0  0
    8.6082  -15.4589   23.5164 C   0  0  0  0  0  0  0  0  0  0  0  0
    9.8232  -15.1455   23.4827 O   0  0  0  0  0  0  0  0  0  0  0  0
    7.9097  -22.5750   18.8773 C   0  0  0  0  0  0  0  0  0  0  0  0
    6.9545  -10.8391   27.0459 C   0  0  0  0  0  0  0  0  0  0  0  0
    7.8889  -11.9697   26.8152 C   0  0  2  0  0  0  0  0  0  0  0  0
    7.4711  -13.0168   25.8558 C   0  0  0  0  0  0  0  0  0  0  0  0
    5.9978  -13.3803   25.9655 C   0  0  2  0  0  0  0  0  0  0  0  0
    8.3739  -14.1802   25.6499 N   0  0  0  0  0  0  0  0  0  0  0  0
    7.8088  -15.0509   24.5915 C   0  0  0  0  0  0  0  0  0  0  0  0
    8.6296  -15.0374   26.8106 O   0  0  0  0  0  0  0  0  0  0  0  0
    9.5055  -14.7736   27.8468 O   0  0  0  0  0  0  0  0  0  0  0  0
  1  2  1  0
  3  2  1  0
  4  5  1  0
  4  3  1  0
  5  1  1  0
  5  6  1  1
  7  6  2  0
  9 11  1  0
  9  8  1  0
 10  9  2  0
 12 11  1  0
 13 14  1  0
 13 12  1  0
 15 14  1  1
 15 16  1  0
 16  6  1  0
 17 24  1  0
 17 15  1  0
 18 17  2  0
 20 19  1  0
 20 21  1  0
 21 22  1  6
 23 21  1  0
 23 25  1  0
 23 24  1  1
 25 26  1  0
 27 25  2  0
M  END
$$$$
