PRI.pdb
     RDKit          3D

 27 27  0  0  1  0  0  0  0  0999 V2000
    8.8795  -14.8128   18.4133 N   0  0  0  0  0  0  0  0  0  0  0  0
    8.8856  -14.0712   17.1664 C   0  0  0  0  0  0  0  0  0  0  0  0
    7.7377  -13.0968   17.2702 C   0  0  0  0  0  0  0  0  0  0  0  0
    7.3837  -13.0983   18.7351 C   0  0  0  0  0  0  0  0  0  0  0  0
    8.5806  -13.8049   19.3845 C   0  0  1  0  0  0  0  0  0  0  0  0
    8.0907  -14.3640   20.6680 C   0  0  0  0  0  0  0  0  0  0  0  0
    7.6085  -13.5099   21.4867 O   0  0  0  0  0  0  0  0  0  0  0  0
    9.3724  -19.8227   19.3354 N   0  0  0  0  0  0  0  0  0  0  0  0
    9.9477  -20.0905   20.6056 C   0  0  0  0  0  0  0  0  0  0  0  0
   11.2223  -20.3396   20.6806 N   0  0  0  0  0  0  0  0  0  0  0  0
    9.2060  -20.1020   21.8047 N   0  0  0  0  0  0  0  0  0  0  0  0
    7.7762  -19.9657   21.8129 C   0  0  0  0  0  0  0  0  0  0  0  0
    7.4589  -18.5316   21.3678 C   0  0  0  0  0  0  0  0  0  0  0  0
    7.7857  -17.6401   22.5216 C   0  0  0  0  0  0  0  0  0  0  0  0
    7.5790  -16.1803   22.2367 C   0  0  2  0  0  0  0  0  0  0  0  0
    8.1337  -15.7398   21.0058 N   0  0  0  0  0  0  0  0  0  0  0  0
    8.2301  -15.4072   23.3527 C   0  0  0  0  0  0  0  0  0  0  0  0
    9.4536  -15.1274   23.3313 O   0  0  0  0  0  0  0  0  0  0  0  0
   11.7268  -20.5388   21.5483 C   0  0  0  0  0  0  0  0  0  0  0  0
    6.5496  -11.1827   27.4533 C   0  0  0  0  0  0  0  0  0  0  0  0
    7.4980  -12.2568   27.0637 C   0  0  2  0  0  0  0  0  0  0  0  0
    7.0742  -13.1874   25.9933 C   0  0  0  0  0  0  0  0  0  0  0  0
    5.6465  -13.6862   26.1598 C   0  0  2  0  0  0  0  0  0  0  0  0
    8.0373  -14.2287   25.5472 N   0  0  0  0  0  0  0  0  0  0  0  0
    7.4365  -14.9987   24.4319 C   0  0  0  0  0  0  0  0  0  0  0  0
    8.4722  -15.2057   26.5492 O   0  0  0  0  0  0  0  0  0  0  0  0
    8.2174  -16.5641   26.5335 O   0  0  0  0  0  0  0  0  0  0  0  0
  1  2  1  0
  3  2  1  0
  4  5  1  0
  4  3  1  0
  5  1  1  0
  5  6  1  1
  7  6  2  0
  9 11  1  0
  9  8  1  0
 10  9  2  0
 12 11  1  0
 13 14  1  0
 13 12  1  0
 15 14  1  1
 15 16  1  0
 16  6  1  0
 17 24  1  0
 17 15  1  0
 18 17  2  0
 20 19  1  0
 20 21  1  0
 21 22  1  6
 23 21  1  0
 23 25  1  0
 23 24  1  1
 25 26  1  0
 27 25  2  0
M  END
$$$$
