PRI.pdb
     RDKit          3D

 27 27  0  0  1  0  0  0  0  0999 V2000
    8.6698  -15.0295   18.6113 N   0  0  0  0  0  0  0  0  0  0  0  0
    8.7375  -14.3233   17.3458 C   0  0  0  0  0  0  0  0  0  0  0  0
    7.6930  -13.2371   17.4328 C   0  0  0  0  0  0  0  0  0  0  0  0
    7.3548  -13.1672   18.8997 C   0  0  0  0  0  0  0  0  0  0  0  0
    8.4818  -13.9731   19.5585 C   0  0  1  0  0  0  0  0  0  0  0  0
    7.9511  -14.4487   20.8593 C   0  0  0  0  0  0  0  0  0  0  0  0
    7.6616  -13.5305   21.6992 O   0  0  0  0  0  0  0  0  0  0  0  0
    7.0159  -19.7165   26.7179 N   0  0  0  0  0  0  0  0  0  0  0  0
    7.8187  -20.1117   25.6154 C   0  0  0  0  0  0  0  0  0  0  0  0
    9.0174  -20.5650   25.8387 N   0  0  0  0  0  0  0  0  0  0  0  0
    7.3843  -20.0392   24.2759 N   0  0  0  0  0  0  0  0  0  0  0  0
    6.0983  -19.5050   23.9240 C   0  0  0  0  0  0  0  0  0  0  0  0
    6.2389  -17.9770   23.8954 C   0  0  0  0  0  0  0  0  0  0  0  0
    6.9407  -17.6326   22.6220 C   0  0  0  0  0  0  0  0  0  0  0  0
    7.1620  -16.1597   22.4314 C   0  0  2  0  0  0  0  0  0  0  0  0
    7.7616  -15.8135   21.1914 N   0  0  0  0  0  0  0  0  0  0  0  0
    8.0664  -15.6930   23.5410 C   0  0  0  0  0  0  0  0  0  0  0  0
    9.3153  -15.6968   23.4160 O   0  0  0  0  0  0  0  0  0  0  0  0
    9.6521  -20.9142   25.1159 C   0  0  0  0  0  0  0  0  0  0  0  0
    7.0310  -10.8688   26.9968 C   0  0  0  0  0  0  0  0  0  0  0  0
    7.9398  -11.9813   26.6212 C   0  0  2  0  0  0  0  0  0  0  0  0
    7.3604  -13.1085   25.8562 C   0  0  0  0  0  0  0  0  0  0  0  0
    5.9291  -13.4344   26.2558 C   0  0  2  0  0  0  0  0  0  0  0  0
    8.2133  -14.3016   25.6108 N   0  0  0  0  0  0  0  0  0  0  0  0
    7.4828  -15.2473   24.7336 C   0  0  0  0  0  0  0  0  0  0  0  0
    8.6459  -15.0631   26.7858 O   0  0  0  0  0  0  0  0  0  0  0  0
    9.6164  -14.6858   27.6947 O   0  0  0  0  0  0  0  0  0  0  0  0
  1  2  1  0
  3  2  1  0
  4  5  1  0
  4  3  1  0
  5  1  1  0
  5  6  1  1
  7  6  2  0
  9 11  1  0
  9  8  1  0
 10  9  2  0
 12 11  1  0
 13 14  1  0
 13 12  1  0
 15 14  1  6
 15 16  1  0
 16  6  1  0
 17 24  1  0
 17 15  1  0
 18 17  2  0
 20 19  1  0
 20 21  1  0
 21 22  1  6
 23 21  1  0
 23 25  1  0
 23 24  1  1
 25 26  1  0
 27 25  2  0
M  END
$$$$
