PRI.pdb
     RDKit          3D

 27 27  0  0  1  0  0  0  0  0999 V2000
    8.4025  -15.4187   19.0314 N   0  0  0  0  0  0  0  0  0  0  0  0
    8.6114  -14.8576   17.7099 C   0  0  0  0  0  0  0  0  0  0  0  0
    7.7956  -13.5882   17.6763 C   0  0  0  0  0  0  0  0  0  0  0  0
    7.4698  -13.3206   19.1231 C   0  0  0  0  0  0  0  0  0  0  0  0
    8.4170  -14.2635   19.8763 C   0  0  1  0  0  0  0  0  0  0  0  0
    7.7980  -14.5074   21.2019 C   0  0  0  0  0  0  0  0  0  0  0  0
    7.7467  -13.4919   21.9755 O   0  0  0  0  0  0  0  0  0  0  0  0
    8.5120  -20.7001   25.4350 N   0  0  0  0  0  0  0  0  0  0  0  0
    7.2472  -20.2657   25.9122 C   0  0  0  0  0  0  0  0  0  0  0  0
    6.9660  -20.4098   27.1742 N   0  0  0  0  0  0  0  0  0  0  0  0
    6.2669  -19.6802   25.0850 N   0  0  0  0  0  0  0  0  0  0  0  0
    6.4236  -19.6069   23.6591 C   0  0  0  0  0  0  0  0  0  0  0  0
    7.1628  -18.2967   23.3550 C   0  0  0  0  0  0  0  0  0  0  0  0
    6.1186  -17.2394   23.1980 C   0  0  0  0  0  0  0  0  0  0  0  0
    6.6758  -15.8770   22.9009 C   0  0  2  0  0  0  0  0  0  0  0  0
    7.2863  -15.7600   21.6241 N   0  0  0  0  0  0  0  0  0  0  0  0
    7.7126  -15.5761   23.9505 C   0  0  0  0  0  0  0  0  0  0  0  0
    8.9402  -15.6797   23.7099 O   0  0  0  0  0  0  0  0  0  0  0  0
    6.0865  -20.1227   27.6114 C   0  0  0  0  0  0  0  0  0  0  0  0
    5.7086  -11.5868   26.9346 C   0  0  0  0  0  0  0  0  0  0  0  0
    6.5816  -12.4938   26.1473 C   0  0  2  0  0  0  0  0  0  0  0  0
    7.4395  -13.4383   26.8980 C   0  0  0  0  0  0  0  0  0  0  0  0
    8.2300  -12.7752   28.0160 C   0  0  2  0  0  0  0  0  0  0  0  0
    8.2045  -14.4548   26.1282 N   0  0  0  0  0  0  0  0  0  0  0  0
    7.2788  -15.1722   25.2194 C   0  0  0  0  0  0  0  0  0  0  0  0
    8.9158  -15.4772   26.9002 O   0  0  0  0  0  0  0  0  0  0  0  0
   10.1520  -15.3367   27.5023 O   0  0  0  0  0  0  0  0  0  0  0  0
  1  2  1  0
  3  2  1  0
  4  5  1  0
  4  3  1  0
  5  1  1  0
  5  6  1  1
  7  6  2  0
  9 11  1  0
  9  8  1  0
 10  9  2  0
 12 11  1  0
 13 14  1  0
 13 12  1  0
 15 14  1  1
 15 16  1  0
 16  6  1  0
 17 24  1  0
 17 15  1  0
 18 17  2  0
 20 19  1  0
 20 21  1  0
 21 22  1  1
 23 21  1  0
 23 25  1  0
 23 24  1  6
 25 26  1  0
 27 25  2  0
M  END
$$$$
