PRI.pdb
     RDKit          3D

 27 27  0  0  1  0  0  0  0  0999 V2000
    8.4391  -15.3822   18.5381 N   0  0  0  0  0  0  0  0  0  0  0  0
    8.6566  -14.7003   17.2762 C   0  0  0  0  0  0  0  0  0  0  0  0
    7.9047  -13.3962   17.3867 C   0  0  0  0  0  0  0  0  0  0  0  0
    7.6137  -13.2618   18.8592 C   0  0  0  0  0  0  0  0  0  0  0  0
    8.5234  -14.3210   19.4949 C   0  0  1  0  0  0  0  0  0  0  0  0
    7.9123  -14.6684   20.8009 C   0  0  0  0  0  0  0  0  0  0  0  0
    7.9326  -13.7391   21.6774 O   0  0  0  0  0  0  0  0  0  0  0  0
    5.3921  -21.7406   25.3199 N   0  0  0  0  0  0  0  0  0  0  0  0
    6.7625  -21.4922   25.0439 C   0  0  0  0  0  0  0  0  0  0  0  0
    7.6674  -22.0361   25.8039 N   0  0  0  0  0  0  0  0  0  0  0  0
    7.2031  -20.6790   23.9796 N   0  0  0  0  0  0  0  0  0  0  0  0
    6.3145  -19.7854   23.2904 C   0  0  0  0  0  0  0  0  0  0  0  0
    6.9581  -18.3927   23.3299 C   0  0  0  0  0  0  0  0  0  0  0  0
    6.0830  -17.4905   22.5217 C   0  0  0  0  0  0  0  0  0  0  0  0
    6.6470  -16.1123   22.3293 C   0  0  2  0  0  0  0  0  0  0  0  0
    7.3352  -15.9277   21.1008 N   0  0  0  0  0  0  0  0  0  0  0  0
    7.6138  -15.8602   23.4557 C   0  0  0  0  0  0  0  0  0  0  0  0
    8.8325  -16.1421   23.3508 O   0  0  0  0  0  0  0  0  0  0  0  0
    8.6770  -21.9488   25.6615 C   0  0  0  0  0  0  0  0  0  0  0  0
    7.6263  -11.1010   27.2156 C   0  0  0  0  0  0  0  0  0  0  0  0
    8.2281  -12.4088   26.8523 C   0  0  2  0  0  0  0  0  0  0  0  0
    7.4736  -13.2715   25.9153 C   0  0  0  0  0  0  0  0  0  0  0  0
    5.9762  -13.2867   26.1841 C   0  0  2  0  0  0  0  0  0  0  0  0
    8.0459  -14.5995   25.5689 N   0  0  0  0  0  0  0  0  0  0  0  0
    7.1242  -15.2973   24.6409 C   0  0  0  0  0  0  0  0  0  0  0  0
    8.3069  -15.5212   26.6779 O   0  0  0  0  0  0  0  0  0  0  0  0
    7.6744  -16.7288   26.9056 O   0  0  0  0  0  0  0  0  0  0  0  0
  1  2  1  0
  3  2  1  0
  4  5  1  0
  4  3  1  0
  5  1  1  0
  5  6  1  1
  7  6  2  0
  9 11  1  0
  9  8  1  0
 10  9  2  0
 12 11  1  0
 13 14  1  0
 13 12  1  0
 15 14  1  6
 15 16  1  0
 16  6  1  0
 17 24  1  0
 17 15  1  0
 18 17  2  0
 20 19  1  0
 20 21  1  0
 21 22  1  6
 23 21  1  0
 23 25  1  0
 23 24  1  1
 25 26  1  0
 27 25  2  0
M  END
$$$$
