PRI.pdb
     RDKit          3D

 27 27  0  0  1  0  0  0  0  0999 V2000
    8.7412  -14.7164   18.6639 N   0  0  0  0  0  0  0  0  0  0  0  0
    8.7493  -13.9308   17.4443 C   0  0  0  0  0  0  0  0  0  0  0  0
    7.6885  -12.8745   17.6370 C   0  0  0  0  0  0  0  0  0  0  0  0
    7.4028  -12.9041   19.1164 C   0  0  0  0  0  0  0  0  0  0  0  0
    8.5681  -13.7259   19.6824 C   0  0  1  0  0  0  0  0  0  0  0  0
    8.0943  -14.2934   20.9682 C   0  0  0  0  0  0  0  0  0  0  0  0
    7.7827  -13.4352   21.8619 O   0  0  0  0  0  0  0  0  0  0  0  0
    9.9448  -22.0935   21.4460 N   0  0  0  0  0  0  0  0  0  0  0  0
    8.6240  -21.6166   21.6559 C   0  0  0  0  0  0  0  0  0  0  0  0
    7.6895  -22.4656   21.9693 N   0  0  0  0  0  0  0  0  0  0  0  0
    8.2640  -20.2581   21.5422 N   0  0  0  0  0  0  0  0  0  0  0  0
    6.9053  -19.8186   21.6968 C   0  0  0  0  0  0  0  0  0  0  0  0
    6.8806  -18.3162   21.3842 C   0  0  0  0  0  0  0  0  0  0  0  0
    7.3543  -17.6123   22.6143 C   0  0  0  0  0  0  0  0  0  0  0  0
    7.4309  -16.1199   22.4667 C   0  0  2  0  0  0  0  0  0  0  0  0
    7.9791  -15.6812   21.2323 N   0  0  0  0  0  0  0  0  0  0  0  0
    8.3002  -15.6014   23.5814 C   0  0  0  0  0  0  0  0  0  0  0  0
    9.5523  -15.6006   23.4920 O   0  0  0  0  0  0  0  0  0  0  0  0
    6.6956  -22.2351   22.0479 C   0  0  0  0  0  0  0  0  0  0  0  0
    6.1265  -11.7002   27.1497 C   0  0  0  0  0  0  0  0  0  0  0  0
    6.6038  -13.0436   26.7348 C   0  0  2  0  0  0  0  0  0  0  0  0
    7.9372  -13.1282   26.0971 C   0  0  0  0  0  0  0  0  0  0  0  0
    8.1354  -12.1149   24.9798 C   0  0  1  0  0  0  0  0  0  0  0  0
    8.4904  -14.4770   25.8043 N   0  0  0  0  0  0  0  0  0  0  0  0
    7.6799  -15.1121   24.7378 C   0  0  0  0  0  0  0  0  0  0  0  0
    8.5457  -15.4292   26.9169 O   0  0  0  0  0  0  0  0  0  0  0  0
    7.8867  -16.6419   26.9908 O   0  0  0  0  0  0  0  0  0  0  0  0
  1  2  1  0
  3  2  1  0
  4  5  1  0
  4  3  1  0
  5  1  1  0
  5  6  1  1
  7  6  2  0
  9 11  1  0
  9  8  1  0
 10  9  2  0
 12 11  1  0
 13 14  1  0
 13 12  1  0
 15 14  1  6
 15 16  1  0
 16  6  1  0
 17 24  1  0
 17 15  1  0
 18 17  2  0
 20 19  1  0
 20 21  1  0
 21 22  1  1
 23 21  1  0
 23 25  1  0
 23 24  1  6
 25 26  1  0
 27 25  2  0
M  END
$$$$
