PRI.pdb
     RDKit          3D

 27 27  0  0  1  0  0  0  0  0999 V2000
    8.5344  -15.3258   18.6526 N   0  0  0  0  0  0  0  0  0  0  0  0
    8.4784  -14.6593   17.3652 C   0  0  0  0  0  0  0  0  0  0  0  0
    7.5424  -13.4906   17.5556 C   0  0  0  0  0  0  0  0  0  0  0  0
    7.4187  -13.3569   19.0515 C   0  0  0  0  0  0  0  0  0  0  0  0
    8.5619  -14.2343   19.5780 C   0  0  1  0  0  0  0  0  0  0  0  0
    8.1833  -14.6328   20.9556 C   0  0  0  0  0  0  0  0  0  0  0  0
    8.1105  -13.6766   21.7998 O   0  0  0  0  0  0  0  0  0  0  0  0
    8.5475  -20.5593   26.8408 N   0  0  0  0  0  0  0  0  0  0  0  0
    7.1844  -20.1974   27.0047 C   0  0  0  0  0  0  0  0  0  0  0  0
    6.6285  -20.3458   28.1714 N   0  0  0  0  0  0  0  0  0  0  0  0
    6.3897  -19.6802   25.9611 N   0  0  0  0  0  0  0  0  0  0  0  0
    6.9258  -19.4316   24.6519 C   0  0  0  0  0  0  0  0  0  0  0  0
    6.8660  -17.9153   24.4223 C   0  0  0  0  0  0  0  0  0  0  0  0
    7.3803  -17.6681   23.0412 C   0  0  0  0  0  0  0  0  0  0  0  0
    7.3735  -16.2204   22.6424 C   0  0  2  0  0  0  0  0  0  0  0  0
    7.9124  -15.9659   21.3533 N   0  0  0  0  0  0  0  0  0  0  0  0
    8.1967  -15.4705   23.6558 C   0  0  0  0  0  0  0  0  0  0  0  0
    9.4492  -15.5506   23.6738 O   0  0  0  0  0  0  0  0  0  0  0  0
    5.6668  -20.0782   28.3967 C   0  0  0  0  0  0  0  0  0  0  0  0
    5.8785  -11.4322   27.3290 C   0  0  0  0  0  0  0  0  0  0  0  0
    6.3385  -12.6744   26.6581 C   0  0  2  0  0  0  0  0  0  0  0  0
    7.5615  -12.5901   25.8283 C   0  0  0  0  0  0  0  0  0  0  0  0
    7.4098  -11.6729   24.6240 C   0  0  1  0  0  0  0  0  0  0  0  0
    8.3084  -13.8454   25.5502 N   0  0  0  0  0  0  0  0  0  0  0  0
    7.5322  -14.6692   24.5928 C   0  0  0  0  0  0  0  0  0  0  0  0
    8.6142  -14.7054   26.6966 O   0  0  0  0  0  0  0  0  0  0  0  0
    9.5355  -14.4448   27.6935 O   0  0  0  0  0  0  0  0  0  0  0  0
  1  2  1  0
  3  2  1  0
  4  5  1  0
  4  3  1  0
  5  1  1  0
  5  6  1  1
  7  6  2  0
  9 11  1  0
  9  8  1  0
 10  9  2  0
 12 11  1  0
 13 14  1  0
 13 12  1  0
 15 14  1  1
 15 16  1  0
 16  6  1  0
 17 24  1  0
 17 15  1  0
 18 17  2  0
 20 19  1  0
 20 21  1  0
 21 22  1  1
 23 21  1  0
 23 25  1  0
 23 24  1  6
 25 26  1  0
 27 25  2  0
M  END
$$$$
