PRI.pdb
     RDKit          3D

 27 27  0  0  1  0  0  0  0  0999 V2000
    8.3363  -15.1988   19.0172 N   0  0  0  0  0  0  0  0  0  0  0  0
    8.3516  -14.4784   17.7580 C   0  0  0  0  0  0  0  0  0  0  0  0
    7.5287  -13.2352   17.9937 C   0  0  0  0  0  0  0  0  0  0  0  0
    7.4086  -13.1511   19.4935 C   0  0  0  0  0  0  0  0  0  0  0  0
    8.4606  -14.1531   19.9865 C   0  0  1  0  0  0  0  0  0  0  0  0
    8.0373  -14.5696   21.3457 C   0  0  0  0  0  0  0  0  0  0  0  0
    7.9964  -13.6344   22.2151 O   0  0  0  0  0  0  0  0  0  0  0  0
    7.2978  -21.4229   19.1465 N   0  0  0  0  0  0  0  0  0  0  0  0
    7.6093  -20.8130   20.3903 C   0  0  0  0  0  0  0  0  0  0  0  0
    8.8223  -20.3924   20.6001 N   0  0  0  0  0  0  0  0  0  0  0  0
    6.6663  -20.6356   21.4235 N   0  0  0  0  0  0  0  0  0  0  0  0
    6.9987  -19.9565   22.6448 C   0  0  0  0  0  0  0  0  0  0  0  0
    7.4498  -18.5401   22.2629 C   0  0  0  0  0  0  0  0  0  0  0  0
    6.7746  -17.6027   23.2106 C   0  0  0  0  0  0  0  0  0  0  0  0
    7.0919  -16.1564   22.9613 C   0  0  2  0  0  0  0  0  0  0  0  0
    7.6934  -15.8979   21.7011 N   0  0  0  0  0  0  0  0  0  0  0  0
    8.0438  -15.7119   24.0399 C   0  0  0  0  0  0  0  0  0  0  0  0
    9.2829  -15.8817   23.9334 O   0  0  0  0  0  0  0  0  0  0  0  0
    9.1540  -19.9856   21.4785 C   0  0  0  0  0  0  0  0  0  0  0  0
    6.0580  -11.4762   26.7732 C   0  0  0  0  0  0  0  0  0  0  0  0
    6.8965  -12.4709   26.0576 C   0  0  2  0  0  0  0  0  0  0  0  0
    7.7231  -13.3845   26.8782 C   0  0  0  0  0  0  0  0  0  0  0  0
    8.5661  -12.6625   27.9188 C   0  0  2  0  0  0  0  0  0  0  0  0
    8.4238  -14.5028   26.1929 N   0  0  0  0  0  0  0  0  0  0  0  0
    7.5163  -15.0962   25.1819 C   0  0  0  0  0  0  0  0  0  0  0  0
    8.8984  -15.6051   27.0337 O   0  0  0  0  0  0  0  0  0  0  0  0
   10.1089  -15.6661   27.6981 O   0  0  0  0  0  0  0  0  0  0  0  0
  1  2  1  0
  3  2  1  0
  4  5  1  0
  4  3  1  0
  5  1  1  0
  5  6  1  1
  7  6  2  0
  9 11  1  0
  9  8  1  0
 10  9  2  0
 12 11  1  0
 13 14  1  0
 13 12  1  0
 15 14  1  1
 15 16  1  0
 16  6  1  0
 17 24  1  0
 17 15  1  0
 18 17  2  0
 20 19  1  0
 20 21  1  0
 21 22  1  1
 23 21  1  0
 23 25  1  0
 23 24  1  6
 25 26  1  0
 27 25  2  0
M  END
$$$$
