PRI.pdb
     RDKit          3D

 27 27  0  0  1  0  0  0  0  0999 V2000
    8.8880  -14.7490   18.7611 N   0  0  0  0  0  0  0  0  0  0  0  0
    8.9096  -14.0145   17.5101 C   0  0  0  0  0  0  0  0  0  0  0  0
    7.6786  -13.1415   17.5328 C   0  0  0  0  0  0  0  0  0  0  0  0
    7.2342  -13.1676   18.9725 C   0  0  0  0  0  0  0  0  0  0  0  0
    8.4436  -13.7665   19.7022 C   0  0  1  0  0  0  0  0  0  0  0  0
    7.9229  -14.3604   20.9576 C   0  0  0  0  0  0  0  0  0  0  0  0
    7.3763  -13.5357   21.7659 O   0  0  0  0  0  0  0  0  0  0  0  0
    7.3111  -20.5523   19.1470 N   0  0  0  0  0  0  0  0  0  0  0  0
    8.3001  -20.6595   20.1602 C   0  0  0  0  0  0  0  0  0  0  0  0
    9.4484  -21.1956   19.8661 N   0  0  0  0  0  0  0  0  0  0  0  0
    8.1052  -20.2124   21.4831 N   0  0  0  0  0  0  0  0  0  0  0  0
    6.7963  -19.9280   22.0019 C   0  0  0  0  0  0  0  0  0  0  0  0
    6.5431  -18.4297   21.7860 C   0  0  0  0  0  0  0  0  0  0  0  0
    7.5008  -17.6991   22.6703 C   0  0  0  0  0  0  0  0  0  0  0  0
    7.4597  -16.2071   22.5058 C   0  0  2  0  0  0  0  0  0  0  0  0
    8.0034  -15.7382   21.2806 N   0  0  0  0  0  0  0  0  0  0  0  0
    8.2536  -15.6075   23.6360 C   0  0  0  0  0  0  0  0  0  0  0  0
    9.4985  -15.4652   23.5612 O   0  0  0  0  0  0  0  0  0  0  0  0
   10.2325  -21.2866   20.5173 C   0  0  0  0  0  0  0  0  0  0  0  0
    5.8036  -11.6659   26.3781 C   0  0  0  0  0  0  0  0  0  0  0  0
    6.7138  -12.6321   25.7128 C   0  0  2  0  0  0  0  0  0  0  0  0
    7.4556  -13.5782   26.5766 C   0  0  0  0  0  0  0  0  0  0  0  0
    8.0888  -12.9151   27.7907 C   0  0  2  0  0  0  0  0  0  0  0  0
    8.3137  -14.6009   25.9218 N   0  0  0  0  0  0  0  0  0  0  0  0
    7.5703  -15.2047   24.7902 C   0  0  0  0  0  0  0  0  0  0  0  0
    8.7838  -15.7089   26.7578 O   0  0  0  0  0  0  0  0  0  0  0  0
    9.9268  -15.7210   27.5349 O   0  0  0  0  0  0  0  0  0  0  0  0
  1  2  1  0
  3  2  1  0
  4  5  1  0
  4  3  1  0
  5  1  1  0
  5  6  1  1
  7  6  2  0
  9 11  1  0
  9  8  1  0
 10  9  2  0
 12 11  1  0
 13 14  1  0
 13 12  1  0
 15 14  1  6
 15 16  1  0
 16  6  1  0
 17 24  1  0
 17 15  1  0
 18 17  2  0
 20 19  1  0
 20 21  1  0
 21 22  1  1
 23 21  1  0
 23 25  1  0
 23 24  1  6
 25 26  1  0
 27 25  2  0
M  END
$$$$
