WAQ.pdb
     RDKit          3D

 29 30  0  0  1  0  0  0  0  0999 V2000
    6.7060  -16.7845   23.3357 N   0  0  0  0  0  0  0  0  0  0  0  0
    7.3549  -15.5072   22.9811 C   0  0  1  0  0  0  0  0  0  0  0  0
    8.4760  -15.3598   23.9531 C   0  0  0  0  0  0  0  0  0  0  0  0
    8.0943  -14.8332   25.2741 C   0  0  0  0  0  0  0  0  0  0  0  0
    7.9487  -15.6143   26.4264 C   0  0  0  0  0  0  0  0  0  0  0  0
    7.6131  -14.8236   27.4462 N   0  0  0  0  0  0  0  0  0  0  0  0
    7.5275  -13.5420   27.0225 C   0  0  0  0  0  0  0  0  0  0  0  0
    7.2183  -12.3464   27.6510 C   0  0  0  0  0  0  0  0  0  0  0  0
    7.1971  -11.1589   26.9774 C   0  0  0  0  0  0  0  0  0  0  0  0
    7.4911  -11.1436   25.6322 C   0  0  0  0  0  0  0  0  0  0  0  0
    7.7984  -12.3271   25.0051 C   0  0  0  0  0  0  0  0  0  0  0  0
    7.8295  -13.5429   25.6551 C   0  0  0  0  0  0  0  0  0  0  0  0
    7.6628  -15.5324   21.5721 C   0  0  0  0  0  0  0  0  0  0  0  0
    7.7282  -16.6333   20.9281 O   0  0  0  0  0  0  0  0  0  0  0  0
    8.1208  -13.0988   18.6931 C   0  0  0  0  0  0  0  0  0  0  0  0
    8.2834  -14.4514   19.3866 C   0  0  2  0  0  0  0  0  0  0  0  0
    7.9140  -14.3518   20.7813 N   0  0  0  0  0  0  0  0  0  0  0  0
    9.6841  -14.9291   19.2184 C   0  0  0  0  0  0  0  0  0  0  0  0
   10.1545  -15.0971   18.0396 O   0  0  0  0  0  0  0  0  0  0  0  0
   16.0242  -13.8161   19.2113 N   0  0  0  0  0  0  0  0  0  0  0  0
   14.7897  -13.5031   18.5933 C   0  0  0  0  0  0  0  0  0  0  0  0
   14.6994  -12.3716   17.9995 O   0  0  0  0  0  0  0  0  0  0  0  0
   13.6413  -14.4149   18.6051 C   0  0  0  0  0  0  0  0  0  0  0  0
   12.7514  -14.3673   19.7834 C   0  0  0  0  0  0  0  0  0  0  0  0
   11.9730  -15.6059   20.0444 C   0  0  2  0  0  0  0  0  0  0  0  0
   10.5545  -15.2152   20.2920 N   0  0  0  0  0  0  0  0  0  0  0  0
   12.4321  -16.4309   21.1323 C   0  0  0  0  0  0  0  0  0  0  0  0
   11.6775  -16.7375   22.2488 O   0  0  0  0  0  0  0  0  0  0  0  0
   13.6103  -16.9202   21.1021 O   0  0  0  0  0  0  0  0  0  0  0  0
  2  1  1  1
  2  3  1  0
  2 13  1  0
  3  4  1  0
  4 12  1  0
  5  4  2  0
  5  6  1  0
  6  7  1  0
  7  8  1  0
  8  9  2  0
 10  9  1  0
 11 10  2  0
 12  7  2  0
 12 11  1  0
 13 17  1  0
 13 14  2  0
 16 15  1  1
 17 16  1  0
 18 16  1  0
 18 26  1  0
 19 18  2  0
 21 20  1  0
 22 21  2  0
 23 21  1  0
 25 24  1  1
 24 23  1  0
 25 26  1  0
 27 25  1  0
 28 27  1  0
 29 27  2  0
M  END
$$$$
