WAQ.pdb
     RDKit          3D

 29 30  0  0  1  0  0  0  0  0999 V2000
    8.0869  -16.9498   25.1718 N   0  0  0  0  0  0  0  0  0  0  0  0
    8.2461  -16.5197   23.7690 C   0  0  1  0  0  0  0  0  0  0  0  0
    8.2098  -15.0297   23.8147 C   0  0  0  0  0  0  0  0  0  0  0  0
    7.3168  -14.4561   24.8352 C   0  0  0  0  0  0  0  0  0  0  0  0
    6.3153  -15.1701   25.5031 C   0  0  0  0  0  0  0  0  0  0  0  0
    5.7079  -14.3578   26.3686 N   0  0  0  0  0  0  0  0  0  0  0  0
    6.2632  -13.1260   26.3070 C   0  0  0  0  0  0  0  0  0  0  0  0
    6.0195  -11.9337   26.9697 C   0  0  0  0  0  0  0  0  0  0  0  0
    6.7392  -10.8024   26.7124 C   0  0  0  0  0  0  0  0  0  0  0  0
    7.7389  -10.8421   25.7661 C   0  0  0  0  0  0  0  0  0  0  0  0
    7.9839  -12.0226   25.1067 C   0  0  0  0  0  0  0  0  0  0  0  0
    7.2768  -13.1827   25.3425 C   0  0  0  0  0  0  0  0  0  0  0  0
    9.4177  -17.1646   23.2285 C   0  0  0  0  0  0  0  0  0  0  0  0
   10.5832  -16.6708   23.3985 O   0  0  0  0  0  0  0  0  0  0  0  0
   10.3744  -17.5810   20.3901 C   0  0  0  0  0  0  0  0  0  0  0  0
   10.3777  -18.6737   21.4591 C   0  0  2  0  0  0  0  0  0  0  0  0
    9.3843  -18.3928   22.4719 N   0  0  0  0  0  0  0  0  0  0  0  0
   11.7432  -18.7924   22.0419 C   0  0  0  0  0  0  0  0  0  0  0  0
   12.7241  -19.1174   21.2862 O   0  0  0  0  0  0  0  0  0  0  0  0
   14.3884  -14.5591   21.5420 N   0  0  0  0  0  0  0  0  0  0  0  0
   14.3971  -15.3221   22.7343 C   0  0  0  0  0  0  0  0  0  0  0  0
   14.4252  -14.6808   23.8429 O   0  0  0  0  0  0  0  0  0  0  0  0
   14.3683  -16.7882   22.7399 C   0  0  0  0  0  0  0  0  0  0  0  0
   14.0880  -17.4547   24.0282 C   0  0  0  0  0  0  0  0  0  0  0  0
   13.4225  -18.7796   23.9287 C   0  0  2  0  0  0  0  0  0  0  0  0
   12.0432  -18.5640   23.4020 N   0  0  0  0  0  0  0  0  0  0  0  0
   13.3488  -19.5498   25.1437 C   0  0  0  0  0  0  0  0  0  0  0  0
   14.4453  -19.9144   25.9017 O   0  0  0  0  0  0  0  0  0  0  0  0
   12.2148  -19.9466   25.5737 O   0  0  0  0  0  0  0  0  0  0  0  0
  2  1  1  1
  2  3  1  0
  2 13  1  0
  3  4  1  0
  4 12  1  0
  5  4  2  0
  5  6  1  0
  6  7  1  0
  7  8  1  0
  8  9  2  0
 10  9  1  0
 11 10  2  0
 12  7  2  0
 12 11  1  0
 13 17  1  0
 13 14  2  0
 16 15  1  6
 17 16  1  0
 18 16  1  0
 18 26  1  0
 19 18  2  0
 21 20  1  0
 22 21  2  0
 23 21  1  0
 25 24  1  1
 24 23  1  0
 25 26  1  0
 27 25  1  0
 28 27  1  0
 29 27  2  0
M  END
$$$$
