WAQ.pdb
     RDKit          3D

 29 30  0  0  1  0  0  0  0  0999 V2000
    8.4984  -16.1812   23.3957 N   0  0  0  0  0  0  0  0  0  0  0  0
    9.4651  -16.3920   24.4909 C   0  0  1  0  0  0  0  0  0  0  0  0
    8.6310  -16.5712   25.7139 C   0  0  0  0  0  0  0  0  0  0  0  0
    7.6075  -15.5353   25.9313 C   0  0  0  0  0  0  0  0  0  0  0  0
    6.2726  -15.7974   26.2605 C   0  0  0  0  0  0  0  0  0  0  0  0
    5.6257  -14.6399   26.4005 N   0  0  0  0  0  0  0  0  0  0  0  0
    6.4750  -13.6112   26.1776 C   0  0  0  0  0  0  0  0  0  0  0  0
    6.3304  -12.2332   26.1883 C   0  0  0  0  0  0  0  0  0  0  0  0
    7.3727  -11.3939   25.9173 C   0  0  0  0  0  0  0  0  0  0  0  0
    8.6074  -11.9283   25.6235 C   0  0  0  0  0  0  0  0  0  0  0  0
    8.7551  -13.2944   25.6120 C   0  0  0  0  0  0  0  0  0  0  0  0
    7.7244  -14.1699   25.8814 C   0  0  0  0  0  0  0  0  0  0  0  0
   10.3606  -17.4549   24.1052 C   0  0  0  0  0  0  0  0  0  0  0  0
   11.2042  -17.9425   24.9310 O   0  0  0  0  0  0  0  0  0  0  0  0
   10.7892  -19.8909   21.2341 C   0  0  0  0  0  0  0  0  0  0  0  0
   11.2634  -19.1594   22.4898 C   0  0  2  0  0  0  0  0  0  0  0  0
   10.3839  -18.0517   22.7917 N   0  0  0  0  0  0  0  0  0  0  0  0
   12.6713  -18.7118   22.3004 C   0  0  0  0  0  0  0  0  0  0  0  0
   13.6256  -19.5489   22.4663 O   0  0  0  0  0  0  0  0  0  0  0  0
   12.8055  -14.1482   18.1742 N   0  0  0  0  0  0  0  0  0  0  0  0
   13.9208  -14.2742   19.0368 C   0  0  0  0  0  0  0  0  0  0  0  0
   15.0078  -13.6973   18.6810 O   0  0  0  0  0  0  0  0  0  0  0  0
   13.8697  -15.0204   20.2982 C   0  0  0  0  0  0  0  0  0  0  0  0
   14.4879  -16.3621   20.3163 C   0  0  0  0  0  0  0  0  0  0  0  0
   14.4592  -17.0591   21.6284 C   0  0  2  0  0  0  0  0  0  0  0  0
   13.0398  -17.3981   21.9391 N   0  0  0  0  0  0  0  0  0  0  0  0
   15.0290  -16.3458   22.7427 C   0  0  0  0  0  0  0  0  0  0  0  0
   16.3635  -16.0016   22.8460 O   0  0  0  0  0  0  0  0  0  0  0  0
   14.2852  -16.0013   23.7205 O   0  0  0  0  0  0  0  0  0  0  0  0
  2  1  1  6
  2  3  1  0
  2 13  1  0
  3  4  1  0
  4 12  1  0
  5  4  2  0
  5  6  1  0
  6  7  1  0
  7  8  1  0
  8  9  2  0
 10  9  1  0
 11 10  2  0
 12  7  2  0
 12 11  1  0
 13 17  1  0
 13 14  2  0
 16 15  1  6
 17 16  1  0
 18 16  1  0
 18 26  1  0
 19 18  2  0
 21 20  1  0
 22 21  2  0
 23 21  1  0
 25 24  1  6
 24 23  1  0
 25 26  1  0
 27 25  1  0
 28 27  1  0
 29 27  2  0
M  END
$$$$
