WAQ.pdb
     RDKit          3D

 29 30  0  0  1  0  0  0  0  0999 V2000
    8.2795  -16.7051   25.4708 N   0  0  0  0  0  0  0  0  0  0  0  0
    7.7681  -17.1050   24.1453 C   0  0  1  0  0  0  0  0  0  0  0  0
    6.4951  -16.3472   23.9769 C   0  0  0  0  0  0  0  0  0  0  0  0
    6.2903  -15.2467   24.9333 C   0  0  0  0  0  0  0  0  0  0  0  0
    5.3911  -15.2857   26.0052 C   0  0  0  0  0  0  0  0  0  0  0  0
    5.4679  -14.1366   26.6772 N   0  0  0  0  0  0  0  0  0  0  0  0
    6.3838  -13.3278   26.0973 C   0  0  0  0  0  0  0  0  0  0  0  0
    6.8458  -12.0519   26.3777 C   0  0  0  0  0  0  0  0  0  0  0  0
    7.7987  -11.4427   25.6129 C   0  0  0  0  0  0  0  0  0  0  0  0
    8.3198  -12.1126   24.5284 C   0  0  0  0  0  0  0  0  0  0  0  0
    7.8646  -13.3782   24.2469 C   0  0  0  0  0  0  0  0  0  0  0  0
    6.9044  -14.0223   24.9984 C   0  0  0  0  0  0  0  0  0  0  0  0
    8.8198  -16.9101   23.1774 C   0  0  0  0  0  0  0  0  0  0  0  0
    8.6290  -17.1431   21.9362 O   0  0  0  0  0  0  0  0  0  0  0  0
   10.6930  -15.7393   21.2350 C   0  0  0  0  0  0  0  0  0  0  0  0
   11.1943  -16.4057   22.5162 C   0  0  2  0  0  0  0  0  0  0  0  0
   10.1442  -16.4438   23.5099 N   0  0  0  0  0  0  0  0  0  0  0  0
   12.3987  -15.6831   23.0119 C   0  0  0  0  0  0  0  0  0  0  0  0
   13.4443  -15.6233   22.2756 O   0  0  0  0  0  0  0  0  0  0  0  0
   11.6792  -16.7398   29.1084 N   0  0  0  0  0  0  0  0  0  0  0  0
   11.0361  -15.7042   28.3888 C   0  0  0  0  0  0  0  0  0  0  0  0
   10.2240  -14.9544   29.0364 O   0  0  0  0  0  0  0  0  0  0  0  0
   11.2705  -15.4642   26.9613 C   0  0  0  0  0  0  0  0  0  0  0  0
   12.2369  -16.3470   26.2763 C   0  0  0  0  0  0  0  0  0  0  0  0
   13.2197  -15.6577   25.4004 C   0  0  2  0  0  0  0  0  0  0  0  0
   12.4725  -15.0402   24.2662 N   0  0  0  0  0  0  0  0  0  0  0  0
   14.2871  -16.4704   24.8757 C   0  0  0  0  0  0  0  0  0  0  0  0
   14.0969  -17.6276   24.1445 O   0  0  0  0  0  0  0  0  0  0  0  0
   15.5001  -16.1360   25.0881 O   0  0  0  0  0  0  0  0  0  0  0  0
  2  1  1  1
  2  3  1  0
  2 13  1  0
  3  4  1  0
  4 12  1  0
  5  4  2  0
  5  6  1  0
  6  7  1  0
  7  8  1  0
  8  9  2  0
 10  9  1  0
 11 10  2  0
 12  7  2  0
 12 11  1  0
 13 17  1  0
 13 14  2  0
 16 15  1  6
 17 16  1  0
 18 16  1  0
 18 26  1  0
 19 18  2  0
 21 20  1  0
 22 21  2  0
 23 21  1  0
 25 24  1  6
 24 23  1  0
 25 26  1  0
 27 25  1  0
 28 27  1  0
 29 27  2  0
M  END
$$$$
