WAQ.pdb
     RDKit          3D

 29 30  0  0  1  0  0  0  0  0999 V2000
    8.4919  -17.3191   23.6955 N   0  0  0  0  0  0  0  0  0  0  0  0
    9.7261  -16.8447   23.0398 C   0  0  1  0  0  0  0  0  0  0  0  0
    9.7993  -15.3900   23.3590 C   0  0  0  0  0  0  0  0  0  0  0  0
    8.7754  -14.5543   22.7100 C   0  0  0  0  0  0  0  0  0  0  0  0
    7.6226  -14.0780   23.3449 C   0  0  0  0  0  0  0  0  0  0  0  0
    6.9233  -13.3434   22.4792 N   0  0  0  0  0  0  0  0  0  0  0  0
    7.5624  -13.3088   21.2877 C   0  0  0  0  0  0  0  0  0  0  0  0
    7.2827  -12.7088   20.0704 C   0  0  0  0  0  0  0  0  0  0  0  0
    8.1122  -12.8356   18.9934 C   0  0  0  0  0  0  0  0  0  0  0  0
    9.2632  -13.5817   19.1153 C   0  0  0  0  0  0  0  0  0  0  0  0
    9.5444  -14.1783   20.3209 C   0  0  0  0  0  0  0  0  0  0  0  0
    8.7293  -14.0700   21.4279 C   0  0  0  0  0  0  0  0  0  0  0  0
   10.8140  -17.6969   23.4533 C   0  0  0  0  0  0  0  0  0  0  0  0
   11.1811  -17.7563   24.6752 O   0  0  0  0  0  0  0  0  0  0  0  0
   12.7190  -20.6927   22.4987 C   0  0  0  0  0  0  0  0  0  0  0  0
   12.7416  -19.2493   23.0017 C   0  0  2  0  0  0  0  0  0  0  0  0
   11.5640  -18.5396   22.5536 N   0  0  0  0  0  0  0  0  0  0  0  0
   13.9944  -18.5853   22.5455 C   0  0  0  0  0  0  0  0  0  0  0  0
   15.1263  -19.0530   22.9182 O   0  0  0  0  0  0  0  0  0  0  0  0
   14.6642  -13.6688   18.3158 N   0  0  0  0  0  0  0  0  0  0  0  0
   15.9654  -14.0786   18.6936 C   0  0  0  0  0  0  0  0  0  0  0  0
   16.9542  -13.4723   18.1498 O   0  0  0  0  0  0  0  0  0  0  0  0
   16.2107  -15.1449   19.6699 C   0  0  0  0  0  0  0  0  0  0  0  0
   15.0306  -15.8390   20.2250 C   0  0  0  0  0  0  0  0  0  0  0  0
   15.3227  -16.8632   21.2613 C   0  0  2  0  0  0  0  0  0  0  0  0
   14.0256  -17.4497   21.7080 N   0  0  0  0  0  0  0  0  0  0  0  0
   16.0590  -16.4124   22.4144 C   0  0  0  0  0  0  0  0  0  0  0  0
   17.4379  -16.3468   22.4805 O   0  0  0  0  0  0  0  0  0  0  0  0
   15.4310  -16.0512   23.4648 O   0  0  0  0  0  0  0  0  0  0  0  0
  2  1  1  1
  2  3  1  0
  2 13  1  0
  3  4  1  0
  4 12  1  0
  5  4  2  0
  5  6  1  0
  6  7  1  0
  7  8  1  0
  8  9  2  0
 10  9  1  0
 11 10  2  0
 12  7  2  0
 12 11  1  0
 13 17  1  0
 13 14  2  0
 16 15  1  6
 17 16  1  0
 18 16  1  0
 18 26  1  0
 19 18  2  0
 21 20  1  0
 22 21  2  0
 23 21  1  0
 25 24  1  6
 24 23  1  0
 25 26  1  0
 27 25  1  0
 28 27  1  0
 29 27  2  0
M  END
$$$$
