WAQ.pdb
     RDKit          3D

 29 30  0  0  1  0  0  0  0  0999 V2000
    7.2298  -17.5025   23.5899 N   0  0  0  0  0  0  0  0  0  0  0  0
    8.1753  -16.3907   23.3705 C   0  0  1  0  0  0  0  0  0  0  0  0
    8.5015  -15.8852   24.7348 C   0  0  0  0  0  0  0  0  0  0  0  0
    7.4442  -15.0858   25.3757 C   0  0  0  0  0  0  0  0  0  0  0  0
    6.3271  -15.6245   26.0247 C   0  0  0  0  0  0  0  0  0  0  0  0
    5.5822  -14.6279   26.5041 N   0  0  0  0  0  0  0  0  0  0  0  0
    6.1563  -13.4412   26.2016 C   0  0  0  0  0  0  0  0  0  0  0  0
    5.8114  -12.1222   26.4493 C   0  0  0  0  0  0  0  0  0  0  0  0
    6.5817  -11.0798   26.0200 C   0  0  0  0  0  0  0  0  0  0  0  0
    7.7376  -11.3420   25.3190 C   0  0  0  0  0  0  0  0  0  0  0  0
    8.0834  -12.6487   25.0715 C   0  0  0  0  0  0  0  0  0  0  0  0
    7.3291  -13.7242   25.4908 C   0  0  0  0  0  0  0  0  0  0  0  0
    9.2509  -16.8698   22.5373 C   0  0  0  0  0  0  0  0  0  0  0  0
    9.7901  -18.0094   22.7421 O   0  0  0  0  0  0  0  0  0  0  0  0
   11.4436  -15.5326   19.7195 C   0  0  0  0  0  0  0  0  0  0  0  0
   11.0285  -16.5455   20.7866 C   0  0  2  0  0  0  0  0  0  0  0  0
    9.7992  -16.1310   21.4256 N   0  0  0  0  0  0  0  0  0  0  0  0
   12.1348  -16.7102   21.7702 C   0  0  0  0  0  0  0  0  0  0  0  0
   12.4033  -17.8760   22.2261 O   0  0  0  0  0  0  0  0  0  0  0  0
   13.2769  -19.5762   25.4748 N   0  0  0  0  0  0  0  0  0  0  0  0
   14.4228  -18.7812   25.7170 C   0  0  0  0  0  0  0  0  0  0  0  0
   15.2712  -19.2173   26.5721 O   0  0  0  0  0  0  0  0  0  0  0  0
   14.6668  -17.5085   25.0308 C   0  0  0  0  0  0  0  0  0  0  0  0
   13.6378  -17.0458   24.0770 C   0  0  0  0  0  0  0  0  0  0  0  0
   14.0309  -15.8933   23.2252 C   0  0  2  0  0  0  0  0  0  0  0  0
   12.9315  -15.6472   22.2470 N   0  0  0  0  0  0  0  0  0  0  0  0
   15.2765  -16.0215   22.5130 C   0  0  0  0  0  0  0  0  0  0  0  0
   16.5167  -15.7501   23.0591 O   0  0  0  0  0  0  0  0  0  0  0  0
   15.2726  -16.3987   21.2941 O   0  0  0  0  0  0  0  0  0  0  0  0
  2  1  1  1
  2  3  1  0
  2 13  1  0
  3  4  1  0
  4 12  1  0
  5  4  2  0
  5  6  1  0
  6  7  1  0
  7  8  1  0
  8  9  2  0
 10  9  1  0
 11 10  2  0
 12  7  2  0
 12 11  1  0
 13 17  1  0
 13 14  2  0
 16 15  1  6
 17 16  1  0
 18 16  1  0
 18 26  1  0
 19 18  2  0
 21 20  1  0
 22 21  2  0
 23 21  1  0
 25 24  1  6
 24 23  1  0
 25 26  1  0
 27 25  1  0
 28 27  1  0
 29 27  2  0
M  END
$$$$
