WAQ.pdb
     RDKit          3D

 29 30  0  0  1  0  0  0  0  0999 V2000
    8.7112  -16.4684   23.4314 N   0  0  0  0  0  0  0  0  0  0  0  0
    7.7584  -15.4351   22.9814 C   0  0  1  0  0  0  0  0  0  0  0  0
    8.1156  -14.2142   23.7594 C   0  0  0  0  0  0  0  0  0  0  0  0
    7.5081  -14.1245   25.0976 C   0  0  0  0  0  0  0  0  0  0  0  0
    7.1993  -15.2268   25.9030 C   0  0  0  0  0  0  0  0  0  0  0  0
    6.6786  -14.7922   27.0510 N   0  0  0  0  0  0  0  0  0  0  0  0
    6.6259  -13.4407   27.0469 C   0  0  0  0  0  0  0  0  0  0  0  0
    6.1833  -12.4989   27.9618 C   0  0  0  0  0  0  0  0  0  0  0  0
    6.2376  -11.1591   27.7051 C   0  0  0  0  0  0  0  0  0  0  0  0
    6.7467  -10.7252   26.5014 C   0  0  0  0  0  0  0  0  0  0  0  0
    7.1868  -11.6559   25.5912 C   0  0  0  0  0  0  0  0  0  0  0  0
    7.1469  -13.0154   25.8187 C   0  0  0  0  0  0  0  0  0  0  0  0
    7.8055  -15.3731   21.5410 C   0  0  0  0  0  0  0  0  0  0  0  0
    7.0414  -16.1008   20.8215 O   0  0  0  0  0  0  0  0  0  0  0  0
    8.5586  -13.1357   18.7817 C   0  0  0  0  0  0  0  0  0  0  0  0
    8.7341  -14.5417   19.3555 C   0  0  2  0  0  0  0  0  0  0  0  0
    8.6905  -14.5066   20.8006 N   0  0  0  0  0  0  0  0  0  0  0  0
   10.0095  -15.1255   18.8548 C   0  0  0  0  0  0  0  0  0  0  0  0
   10.1979  -15.2380   17.5935 O   0  0  0  0  0  0  0  0  0  0  0  0
   16.0896  -14.2547   19.1655 N   0  0  0  0  0  0  0  0  0  0  0  0
   14.9217  -13.6242   18.6732 C   0  0  0  0  0  0  0  0  0  0  0  0
   15.0780  -12.5788   17.9497 O   0  0  0  0  0  0  0  0  0  0  0  0
   13.5713  -14.1228   18.9529 C   0  0  0  0  0  0  0  0  0  0  0  0
   13.4565  -15.4758   19.5351 C   0  0  0  0  0  0  0  0  0  0  0  0
   12.2565  -16.2481   19.1206 C   0  0  2  0  0  0  0  0  0  0  0  0
   11.0544  -15.5732   19.6913 N   0  0  0  0  0  0  0  0  0  0  0  0
   12.2353  -17.6406   19.4883 C   0  0  0  0  0  0  0  0  0  0  0  0
   13.1715  -18.5692   19.0745 O   0  0  0  0  0  0  0  0  0  0  0  0
   11.3011  -18.0835   20.2362 O   0  0  0  0  0  0  0  0  0  0  0  0
  2  1  1  1
  2  3  1  0
  2 13  1  0
  3  4  1  0
  4 12  1  0
  5  4  2  0
  5  6  1  0
  6  7  1  0
  7  8  1  0
  8  9  2  0
 10  9  1  0
 11 10  2  0
 12  7  2  0
 12 11  1  0
 13 17  1  0
 13 14  2  0
 16 15  1  6
 17 16  1  0
 18 16  1  0
 18 26  1  0
 19 18  2  0
 21 20  1  0
 22 21  2  0
 23 21  1  0
 25 24  1  1
 24 23  1  0
 25 26  1  0
 27 25  1  0
 28 27  1  0
 29 27  2  0
M  END
$$$$
