WAQ.pdb
     RDKit          3D

 29 30  0  0  1  0  0  0  0  0999 V2000
    9.9556  -15.4776   23.2218 N   0  0  0  0  0  0  0  0  0  0  0  0
    9.0637  -16.1597   24.1797 C   0  0  1  0  0  0  0  0  0  0  0  0
    7.6900  -15.9708   23.6314 C   0  0  0  0  0  0  0  0  0  0  0  0
    7.2831  -14.5701   23.4305 C   0  0  0  0  0  0  0  0  0  0  0  0
    7.0514  -13.9839   22.1808 C   0  0  0  0  0  0  0  0  0  0  0  0
    6.6845  -12.7145   22.3591 N   0  0  0  0  0  0  0  0  0  0  0  0
    6.6614  -12.4262   23.6804 C   0  0  0  0  0  0  0  0  0  0  0  0
    6.3609  -11.2833   24.4039 C   0  0  0  0  0  0  0  0  0  0  0  0
    6.4201  -11.2534   25.7676 C   0  0  0  0  0  0  0  0  0  0  0  0
    6.7894  -12.3913   26.4496 C   0  0  0  0  0  0  0  0  0  0  0  0
    7.0881  -13.5270   25.7359 C   0  0  0  0  0  0  0  0  0  0  0  0
    7.0378  -13.5915   24.3593 C   0  0  0  0  0  0  0  0  0  0  0  0
    9.5504  -17.5039   24.3723 C   0  0  0  0  0  0  0  0  0  0  0  0
    8.8340  -18.3916   24.9467 O   0  0  0  0  0  0  0  0  0  0  0  0
   12.5320  -19.6427   23.3856 C   0  0  0  0  0  0  0  0  0  0  0  0
   11.3049  -19.3015   24.2310 C   0  0  2  0  0  0  0  0  0  0  0  0
   10.8509  -17.9588   23.9436 N   0  0  0  0  0  0  0  0  0  0  0  0
   11.6325  -19.4776   25.6732 C   0  0  0  0  0  0  0  0  0  0  0  0
   12.2053  -20.5546   26.0617 O   0  0  0  0  0  0  0  0  0  0  0  0
   11.1683  -14.8586   30.0899 N   0  0  0  0  0  0  0  0  0  0  0  0
   10.3221  -15.3096   29.0486 C   0  0  0  0  0  0  0  0  0  0  0  0
    9.3443  -14.5519   28.7154 O   0  0  0  0  0  0  0  0  0  0  0  0
   10.5291  -16.5828   28.3512 C   0  0  0  0  0  0  0  0  0  0  0  0
   11.6673  -17.4168   28.7888 C   0  0  0  0  0  0  0  0  0  0  0  0
   11.8231  -18.7090   28.0717 C   0  0  2  0  0  0  0  0  0  0  0  0
   11.3524  -18.5172   26.6689 N   0  0  0  0  0  0  0  0  0  0  0  0
   11.1459  -19.8434   28.6459 C   0  0  0  0  0  0  0  0  0  0  0  0
   11.4887  -20.4261   29.8513 O   0  0  0  0  0  0  0  0  0  0  0  0
   10.1672  -20.3770   28.0250 O   0  0  0  0  0  0  0  0  0  0  0  0
  2  1  1  6
  2  3  1  0
  2 13  1  0
  3  4  1  0
  4 12  1  0
  5  4  2  0
  5  6  1  0
  6  7  1  0
  7  8  1  0
  8  9  2  0
 10  9  1  0
 11 10  2  0
 12  7  2  0
 12 11  1  0
 13 17  1  0
 13 14  2  0
 16 15  1  6
 17 16  1  0
 18 16  1  0
 18 26  1  0
 19 18  2  0
 21 20  1  0
 22 21  2  0
 23 21  1  0
 25 24  1  1
 24 23  1  0
 25 26  1  0
 27 25  1  0
 28 27  1  0
 29 27  2  0
M  END
$$$$
