WAQ.pdb
     RDKit          3D

 29 30  0  0  1  0  0  0  0  0999 V2000
    6.6351  -18.1875   24.7994 N   0  0  0  0  0  0  0  0  0  0  0  0
    6.9809  -16.8369   24.3149 C   0  0  1  0  0  0  0  0  0  0  0  0
    7.5711  -16.1419   25.4947 C   0  0  0  0  0  0  0  0  0  0  0  0
    6.7750  -15.0226   26.0249 C   0  0  0  0  0  0  0  0  0  0  0  0
    5.5101  -15.1568   26.6089 C   0  0  0  0  0  0  0  0  0  0  0  0
    5.0810  -13.9545   26.9940 N   0  0  0  0  0  0  0  0  0  0  0  0
    6.0091  -13.0186   26.6906 C   0  0  0  0  0  0  0  0  0  0  0  0
    6.0727  -11.6451   26.8621 C   0  0  0  0  0  0  0  0  0  0  0  0
    7.1502  -10.9136   26.4524 C   0  0  0  0  0  0  0  0  0  0  0  0
    8.2088  -11.5557   25.8495 C   0  0  0  0  0  0  0  0  0  0  0  0
    8.1498  -12.9178   25.6776 C   0  0  0  0  0  0  0  0  0  0  0  0
    7.0778  -13.6862   26.0799 C   0  0  0  0  0  0  0  0  0  0  0  0
    7.7829  -16.9755   23.1240 C   0  0  0  0  0  0  0  0  0  0  0  0
    8.7091  -17.8516   23.0475 O   0  0  0  0  0  0  0  0  0  0  0  0
    8.3237  -15.0938   19.8621 C   0  0  0  0  0  0  0  0  0  0  0  0
    8.5560  -16.2411   20.8451 C   0  0  2  0  0  0  0  0  0  0  0  0
    7.6164  -16.1649   21.9419 N   0  0  0  0  0  0  0  0  0  0  0  0
    9.9666  -16.2067   21.3222 C   0  0  0  0  0  0  0  0  0  0  0  0
   10.3633  -15.2265   22.0438 O   0  0  0  0  0  0  0  0  0  0  0  0
   11.4133  -20.0511   24.9376 N   0  0  0  0  0  0  0  0  0  0  0  0
   12.2214  -18.8896   24.8966 C   0  0  0  0  0  0  0  0  0  0  0  0
   13.1282  -18.7719   25.7938 O   0  0  0  0  0  0  0  0  0  0  0  0
   12.0617  -17.8456   23.8793 C   0  0  0  0  0  0  0  0  0  0  0  0
   12.5668  -18.1398   22.5225 C   0  0  0  0  0  0  0  0  0  0  0  0
   12.3299  -17.0779   21.5103 C   0  0  2  0  0  0  0  0  0  0  0  0
   10.9224  -17.2037   21.0313 N   0  0  0  0  0  0  0  0  0  0  0  0
   13.2160  -17.0696   20.3746 C   0  0  0  0  0  0  0  0  0  0  0  0
   14.4721  -16.4933   20.3718 O   0  0  0  0  0  0  0  0  0  0  0  0
   12.8472  -17.6121   19.2801 O   0  0  0  0  0  0  0  0  0  0  0  0
  2  1  1  1
  2  3  1  0
  2 13  1  0
  3  4  1  0
  4 12  1  0
  5  4  2  0
  5  6  1  0
  6  7  1  0
  7  8  1  0
  8  9  2  0
 10  9  1  0
 11 10  2  0
 12  7  2  0
 12 11  1  0
 13 17  1  0
 13 14  2  0
 16 15  1  6
 17 16  1  0
 18 16  1  0
 18 26  1  0
 19 18  2  0
 21 20  1  0
 22 21  2  0
 23 21  1  0
 25 24  1  1
 24 23  1  0
 25 26  1  0
 27 25  1  0
 28 27  1  0
 29 27  2  0
M  END
$$$$
