WAQ.pdb
     RDKit          3D

 29 30  0  0  1  0  0  0  0  0999 V2000
    6.9625  -17.0841   23.3239 N   0  0  0  0  0  0  0  0  0  0  0  0
    7.2608  -15.6804   22.9793 C   0  0  1  0  0  0  0  0  0  0  0  0
    8.1859  -15.2075   24.0489 C   0  0  0  0  0  0  0  0  0  0  0  0
    7.5308  -14.7426   25.2828 C   0  0  0  0  0  0  0  0  0  0  0  0
    7.0360  -15.5869   26.2835 C   0  0  0  0  0  0  0  0  0  0  0  0
    6.5230  -14.8426   27.2637 N   0  0  0  0  0  0  0  0  0  0  0  0
    6.6541  -13.5314   26.9591 C   0  0  0  0  0  0  0  0  0  0  0  0
    6.2986  -12.3595   27.6075 C   0  0  0  0  0  0  0  0  0  0  0  0
    6.5466  -11.1300   27.0682 C   0  0  0  0  0  0  0  0  0  0  0  0
    7.1686  -11.0465   25.8424 C   0  0  0  0  0  0  0  0  0  0  0  0
    7.5230  -12.2062   25.1961 C   0  0  0  0  0  0  0  0  0  0  0  0
    7.2881  -13.4631   25.7124 C   0  0  0  0  0  0  0  0  0  0  0  0
    7.7111  -15.6370   21.6096 C   0  0  0  0  0  0  0  0  0  0  0  0
    7.9084  -16.7086   20.9431 O   0  0  0  0  0  0  0  0  0  0  0  0
    8.5201  -13.0221   18.9545 C   0  0  0  0  0  0  0  0  0  0  0  0
    8.3930  -14.4436   19.5023 C   0  0  2  0  0  0  0  0  0  0  0  0
    7.9689  -14.4163   20.8846 N   0  0  0  0  0  0  0  0  0  0  0  0
    9.6902  -15.1564   19.3359 C   0  0  0  0  0  0  0  0  0  0  0  0
   10.0678  -15.5111   18.1652 O   0  0  0  0  0  0  0  0  0  0  0  0
   14.8614  -14.0345   17.3037 N   0  0  0  0  0  0  0  0  0  0  0  0
   14.3780  -14.1089   18.6321 C   0  0  0  0  0  0  0  0  0  0  0  0
   15.1500  -13.6875   19.5634 O   0  0  0  0  0  0  0  0  0  0  0  0
   13.0502  -14.6339   18.9665 C   0  0  0  0  0  0  0  0  0  0  0  0
   12.9516  -15.5288   20.1378 C   0  0  0  0  0  0  0  0  0  0  0  0
   11.7305  -16.3738   20.1931 C   0  0  2  0  0  0  0  0  0  0  0  0
   10.5577  -15.4755   20.4025 N   0  0  0  0  0  0  0  0  0  0  0  0
   11.7161  -17.4100   21.1937 C   0  0  0  0  0  0  0  0  0  0  0  0
   10.7704  -17.5104   22.1965 O   0  0  0  0  0  0  0  0  0  0  0  0
   12.6253  -18.3052   21.1908 O   0  0  0  0  0  0  0  0  0  0  0  0
  2  1  1  1
  2  3  1  0
  2 13  1  0
  3  4  1  0
  4 12  1  0
  5  4  2  0
  5  6  1  0
  6  7  1  0
  7  8  1  0
  8  9  2  0
 10  9  1  0
 11 10  2  0
 12  7  2  0
 12 11  1  0
 13 17  1  0
 13 14  2  0
 16 15  1  1
 17 16  1  0
 18 16  1  0
 18 26  1  0
 19 18  2  0
 21 20  1  0
 22 21  2  0
 23 21  1  0
 25 24  1  1
 24 23  1  0
 25 26  1  0
 27 25  1  0
 28 27  1  0
 29 27  2  0
M  END
$$$$
