WAQ.pdb
     RDKit          3D

 29 30  0  0  1  0  0  0  0  0999 V2000
    6.8766  -17.6638   23.1795 N   0  0  0  0  0  0  0  0  0  0  0  0
    7.8752  -16.5809   23.2718 C   0  0  1  0  0  0  0  0  0  0  0  0
    7.9879  -16.2815   24.7281 C   0  0  0  0  0  0  0  0  0  0  0  0
    7.0155  -15.3033   25.2434 C   0  0  0  0  0  0  0  0  0  0  0  0
    5.8231  -15.6393   25.8948 C   0  0  0  0  0  0  0  0  0  0  0  0
    5.1892  -14.5192   26.2432 N   0  0  0  0  0  0  0  0  0  0  0  0
    5.9103  -13.4444   25.8504 C   0  0  0  0  0  0  0  0  0  0  0  0
    5.7189  -12.0758   25.9534 C   0  0  0  0  0  0  0  0  0  0  0  0
    6.6211  -11.1794   25.4568 C   0  0  0  0  0  0  0  0  0  0  0  0
    7.7576  -11.6445   24.8334 C   0  0  0  0  0  0  0  0  0  0  0  0
    7.9513  -13.0009   24.7294 C   0  0  0  0  0  0  0  0  0  0  0  0
    7.0612  -13.9329   25.2200 C   0  0  0  0  0  0  0  0  0  0  0  0
    9.0590  -16.9956   22.5595 C   0  0  0  0  0  0  0  0  0  0  0  0
    9.4645  -18.2061   22.5973 O   0  0  0  0  0  0  0  0  0  0  0  0
   11.8777  -15.3177   20.6138 C   0  0  0  0  0  0  0  0  0  0  0  0
   11.2453  -16.4298   21.4504 C   0  0  2  0  0  0  0  0  0  0  0  0
    9.8690  -16.1098   21.7587 N   0  0  0  0  0  0  0  0  0  0  0  0
   12.0530  -16.6424   22.6836 C   0  0  0  0  0  0  0  0  0  0  0  0
   13.3048  -16.8902   22.5812 O   0  0  0  0  0  0  0  0  0  0  0  0
   10.2929  -15.3029   28.7981 N   0  0  0  0  0  0  0  0  0  0  0  0
   11.5924  -15.8611   28.8576 C   0  0  0  0  0  0  0  0  0  0  0  0
   12.1218  -15.9969   30.0162 O   0  0  0  0  0  0  0  0  0  0  0  0
   12.3307  -16.2852   27.6637 C   0  0  0  0  0  0  0  0  0  0  0  0
   11.6283  -16.1976   26.3670 C   0  0  0  0  0  0  0  0  0  0  0  0
   12.4257  -16.6063   25.1815 C   0  0  2  0  0  0  0  0  0  0  0  0
   11.5257  -16.5864   23.9916 N   0  0  0  0  0  0  0  0  0  0  0  0
   13.0752  -17.8897   25.2607 C   0  0  0  0  0  0  0  0  0  0  0  0
   12.4759  -19.0875   24.9204 O   0  0  0  0  0  0  0  0  0  0  0  0
   14.2792  -17.9650   25.6767 O   0  0  0  0  0  0  0  0  0  0  0  0
  2  1  1  1
  2  3  1  0
  2 13  1  0
  3  4  1  0
  4 12  1  0
  5  4  2  0
  5  6  1  0
  6  7  1  0
  7  8  1  0
  8  9  2  0
 10  9  1  0
 11 10  2  0
 12  7  2  0
 12 11  1  0
 13 17  1  0
 13 14  2  0
 16 15  1  1
 17 16  1  0
 18 16  1  0
 18 26  1  0
 19 18  2  0
 21 20  1  0
 22 21  2  0
 23 21  1  0
 25 24  1  1
 24 23  1  0
 25 26  1  0
 27 25  1  0
 28 27  1  0
 29 27  2  0
M  END
$$$$
