WAQ.pdb
     RDKit          3D

 29 30  0  0  1  0  0  0  0  0999 V2000
    5.9205  -18.3147   23.8105 N   0  0  0  0  0  0  0  0  0  0  0  0
    6.3603  -16.9072   23.7473 C   0  0  1  0  0  0  0  0  0  0  0  0
    6.8922  -16.6066   25.1074 C   0  0  0  0  0  0  0  0  0  0  0  0
    6.4062  -15.3526   25.7068 C   0  0  0  0  0  0  0  0  0  0  0  0
    5.0801  -15.1190   26.0888 C   0  0  0  0  0  0  0  0  0  0  0  0
    4.9882  -13.8944   26.6084 N   0  0  0  0  0  0  0  0  0  0  0  0
    6.2017  -13.2972   26.5894 C   0  0  0  0  0  0  0  0  0  0  0  0
    6.6613  -12.0541   26.9937 C   0  0  0  0  0  0  0  0  0  0  0  0
    7.9689  -11.6861   26.8566 C   0  0  0  0  0  0  0  0  0  0  0  0
    8.8624  -12.5739   26.3000 C   0  0  0  0  0  0  0  0  0  0  0  0
    8.4108  -13.8079   25.8980 C   0  0  0  0  0  0  0  0  0  0  0  0
    7.0980  -14.2114   26.0224 C   0  0  0  0  0  0  0  0  0  0  0  0
    7.2407  -16.7591   22.6143 C   0  0  0  0  0  0  0  0  0  0  0  0
    7.9891  -17.7190   22.2273 O   0  0  0  0  0  0  0  0  0  0  0  0
    8.3496  -13.9879   20.2411 C   0  0  0  0  0  0  0  0  0  0  0  0
    8.4166  -15.3799   20.8693 C   0  0  2  0  0  0  0  0  0  0  0  0
    7.3521  -15.5510   21.8332 N   0  0  0  0  0  0  0  0  0  0  0  0
    9.7577  -15.5815   21.4851 C   0  0  0  0  0  0  0  0  0  0  0  0
   10.8085  -15.4174   20.7725 O   0  0  0  0  0  0  0  0  0  0  0  0
   12.2528  -14.1534   27.8995 N   0  0  0  0  0  0  0  0  0  0  0  0
   12.1273  -15.3863   27.2154 C   0  0  0  0  0  0  0  0  0  0  0  0
   11.8478  -16.4218   27.9158 O   0  0  0  0  0  0  0  0  0  0  0  0
   12.2960  -15.5108   25.7640 C   0  0  0  0  0  0  0  0  0  0  0  0
   11.0710  -15.6452   24.9493 C   0  0  0  0  0  0  0  0  0  0  0  0
   11.2900  -15.7656   23.4845 C   0  0  2  0  0  0  0  0  0  0  0  0
    9.9600  -15.9474   22.8331 N   0  0  0  0  0  0  0  0  0  0  0  0
   12.1736  -16.8195   23.0558 C   0  0  0  0  0  0  0  0  0  0  0  0
   11.7490  -18.0435   22.5746 O   0  0  0  0  0  0  0  0  0  0  0  0
   13.4368  -16.6511   23.1188 O   0  0  0  0  0  0  0  0  0  0  0  0
  2  1  1  1
  2  3  1  0
  2 13  1  0
  3  4  1  0
  4 12  1  0
  5  4  2  0
  5  6  1  0
  6  7  1  0
  7  8  1  0
  8  9  2  0
 10  9  1  0
 11 10  2  0
 12  7  2  0
 12 11  1  0
 13 17  1  0
 13 14  2  0
 16 15  1  1
 17 16  1  0
 18 16  1  0
 18 26  1  0
 19 18  2  0
 21 20  1  0
 22 21  2  0
 23 21  1  0
 25 24  1  1
 24 23  1  0
 25 26  1  0
 27 25  1  0
 28 27  1  0
 29 27  2  0
M  END
$$$$
