WAQ.pdb
     RDKit          3D

 29 30  0  0  1  0  0  0  0  0999 V2000
    6.5038  -18.6414   24.8324 N   0  0  0  0  0  0  0  0  0  0  0  0
    6.6382  -17.1913   24.5929 C   0  0  1  0  0  0  0  0  0  0  0  0
    7.1732  -16.6362   25.8692 C   0  0  0  0  0  0  0  0  0  0  0  0
    6.7195  -15.2749   26.1990 C   0  0  0  0  0  0  0  0  0  0  0  0
    5.3777  -14.8835   26.2742 C   0  0  0  0  0  0  0  0  0  0  0  0
    5.3206  -13.5942   26.6094 N   0  0  0  0  0  0  0  0  0  0  0  0
    6.5725  -13.1053   26.7617 C   0  0  0  0  0  0  0  0  0  0  0  0
    7.0774  -11.8583   27.0936 C   0  0  0  0  0  0  0  0  0  0  0  0
    8.4191  -11.6199   27.1784 C   0  0  0  0  0  0  0  0  0  0  0  0
    9.3017  -12.6467   26.9271 C   0  0  0  0  0  0  0  0  0  0  0  0
    8.8050  -13.8849   26.5978 C   0  0  0  0  0  0  0  0  0  0  0  0
    7.4570  -14.1598   26.5041 C   0  0  0  0  0  0  0  0  0  0  0  0
    7.4026  -17.0016   23.3845 C   0  0  0  0  0  0  0  0  0  0  0  0
    8.1654  -17.9208   22.9322 O   0  0  0  0  0  0  0  0  0  0  0  0
    7.8982  -14.3357   20.7049 C   0  0  0  0  0  0  0  0  0  0  0  0
    8.2131  -15.6464   21.4257 C   0  0  2  0  0  0  0  0  0  0  0  0
    7.3750  -15.7940   22.5950 N   0  0  0  0  0  0  0  0  0  0  0  0
    9.6606  -15.6845   21.7747 C   0  0  0  0  0  0  0  0  0  0  0  0
   10.5349  -15.5451   20.8499 O   0  0  0  0  0  0  0  0  0  0  0  0
   12.8631  -15.7624   27.5131 N   0  0  0  0  0  0  0  0  0  0  0  0
   11.8397  -16.6230   27.0484 C   0  0  0  0  0  0  0  0  0  0  0  0
   11.4830  -17.5824   27.8188 O   0  0  0  0  0  0  0  0  0  0  0  0
   11.1860  -16.4504   25.7472 C   0  0  0  0  0  0  0  0  0  0  0  0
   11.7678  -15.4543   24.8243 C   0  0  0  0  0  0  0  0  0  0  0  0
   11.6109  -15.7576   23.3780 C   0  0  2  0  0  0  0  0  0  0  0  0
   10.1518  -15.8652   23.0855 N   0  0  0  0  0  0  0  0  0  0  0  0
   12.2771  -16.9413   22.8982 C   0  0  0  0  0  0  0  0  0  0  0  0
   13.6492  -17.0804   22.8100 O   0  0  0  0  0  0  0  0  0  0  0  0
   11.5875  -17.9431   22.5121 O   0  0  0  0  0  0  0  0  0  0  0  0
  2  1  1  1
  2  3  1  0
  2 13  1  0
  3  4  1  0
  4 12  1  0
  5  4  2  0
  5  6  1  0
  6  7  1  0
  7  8  1  0
  8  9  2  0
 10  9  1  0
 11 10  2  0
 12  7  2  0
 12 11  1  0
 13 17  1  0
 13 14  2  0
 16 15  1  1
 17 16  1  0
 18 16  1  0
 18 26  1  0
 19 18  2  0
 21 20  1  0
 22 21  2  0
 23 21  1  0
 25 24  1  1
 24 23  1  0
 25 26  1  0
 27 25  1  0
 28 27  1  0
 29 27  2  0
M  END
$$$$
