WAQ.pdb
     RDKit          3D

 29 30  0  0  1  0  0  0  0  0999 V2000
    6.5864  -17.7697   24.2013 N   0  0  0  0  0  0  0  0  0  0  0  0
    7.5272  -16.7316   23.7371 C   0  0  1  0  0  0  0  0  0  0  0  0
    7.9983  -16.0532   24.9786 C   0  0  0  0  0  0  0  0  0  0  0  0
    7.0810  -15.0390   25.5244 C   0  0  0  0  0  0  0  0  0  0  0  0
    5.8621  -15.3275   26.1489 C   0  0  0  0  0  0  0  0  0  0  0  0
    5.2935  -14.1857   26.5375 N   0  0  0  0  0  0  0  0  0  0  0  0
    6.0838  -13.1421   26.1975 C   0  0  0  0  0  0  0  0  0  0  0  0
    5.9752  -11.7698   26.3559 C   0  0  0  0  0  0  0  0  0  0  0  0
    6.9368  -10.9110   25.9066 C   0  0  0  0  0  0  0  0  0  0  0  0
    8.0506  -11.4191   25.2760 C   0  0  0  0  0  0  0  0  0  0  0  0
    8.1623  -12.7795   25.1170 C   0  0  0  0  0  0  0  0  0  0  0  0
    7.2107  -13.6743   25.5590 C   0  0  0  0  0  0  0  0  0  0  0  0
    8.5044  -17.3576   22.8804 C   0  0  0  0  0  0  0  0  0  0  0  0
    9.0363  -18.4768   23.1898 O   0  0  0  0  0  0  0  0  0  0  0  0
   10.3620  -16.5730   19.6433 C   0  0  0  0  0  0  0  0  0  0  0  0
   10.1369  -17.3043   20.9667 C   0  0  2  0  0  0  0  0  0  0  0  0
    8.9557  -16.7973   21.6295 N   0  0  0  0  0  0  0  0  0  0  0  0
   11.3504  -17.1696   21.8198 C   0  0  0  0  0  0  0  0  0  0  0  0
   11.5829  -16.0590   22.4127 O   0  0  0  0  0  0  0  0  0  0  0  0
   12.9715  -20.9825   25.9873 N   0  0  0  0  0  0  0  0  0  0  0  0
   12.2964  -19.7389   26.0287 C   0  0  0  0  0  0  0  0  0  0  0  0
   11.4833  -19.5431   26.9990 O   0  0  0  0  0  0  0  0  0  0  0  0
   12.4994  -18.6905   25.0238 C   0  0  0  0  0  0  0  0  0  0  0  0
   13.5043  -18.9469   23.9716 C   0  0  0  0  0  0  0  0  0  0  0  0
   13.5125  -17.9747   22.8478 C   0  0  2  0  0  0  0  0  0  0  0  0
   12.2859  -18.2052   22.0301 N   0  0  0  0  0  0  0  0  0  0  0  0
   14.6666  -18.0045   21.9864 C   0  0  0  0  0  0  0  0  0  0  0  0
   15.9315  -17.5969   22.3656 O   0  0  0  0  0  0  0  0  0  0  0  0
   14.5494  -18.4195   20.7855 O   0  0  0  0  0  0  0  0  0  0  0  0
  2  1  1  1
  2  3  1  0
  2 13  1  0
  3  4  1  0
  4 12  1  0
  5  4  2  0
  5  6  1  0
  6  7  1  0
  7  8  1  0
  8  9  2  0
 10  9  1  0
 11 10  2  0
 12  7  2  0
 12 11  1  0
 13 17  1  0
 13 14  2  0
 16 15  1  6
 17 16  1  0
 18 16  1  0
 18 26  1  0
 19 18  2  0
 21 20  1  0
 22 21  2  0
 23 21  1  0
 25 24  1  1
 24 23  1  0
 25 26  1  0
 27 25  1  0
 28 27  1  0
 29 27  2  0
M  END
$$$$
