WAQ.pdb
     RDKit          3D

 29 30  0  0  1  0  0  0  0  0999 V2000
    6.0450  -17.7001   23.9367 N   0  0  0  0  0  0  0  0  0  0  0  0
    6.6081  -16.3466   23.7660 C   0  0  1  0  0  0  0  0  0  0  0  0
    7.4758  -16.1350   24.9601 C   0  0  0  0  0  0  0  0  0  0  0  0
    6.9358  -15.2102   25.9705 C   0  0  0  0  0  0  0  0  0  0  0  0
    6.0736  -15.5852   27.0073 C   0  0  0  0  0  0  0  0  0  0  0  0
    5.7920  -14.5117   27.7463 N   0  0  0  0  0  0  0  0  0  0  0  0
    6.4319  -13.4306   27.2451 C   0  0  0  0  0  0  0  0  0  0  0  0
    6.4855  -12.0960   27.6138 C   0  0  0  0  0  0  0  0  0  0  0  0
    7.2234  -11.1820   26.9179 C   0  0  0  0  0  0  0  0  0  0  0  0
    7.9378  -11.5940   25.8151 C   0  0  0  0  0  0  0  0  0  0  0  0
    7.8875  -12.9167   25.4462 C   0  0  0  0  0  0  0  0  0  0  0  0
    7.1534  -13.8653   26.1265 C   0  0  0  0  0  0  0  0  0  0  0  0
    7.2068  -16.2679   22.4560 C   0  0  0  0  0  0  0  0  0  0  0  0
    7.7658  -17.2841   21.9212 O   0  0  0  0  0  0  0  0  0  0  0  0
    7.7862  -13.6566   19.7372 C   0  0  0  0  0  0  0  0  0  0  0  0
    7.9492  -15.0253   20.3981 C   0  0  2  0  0  0  0  0  0  0  0  0
    7.2262  -15.0713   21.6498 N   0  0  0  0  0  0  0  0  0  0  0  0
    9.3980  -15.3155   20.5856 C   0  0  0  0  0  0  0  0  0  0  0  0
   10.1811  -15.2908   19.5730 O   0  0  0  0  0  0  0  0  0  0  0  0
   13.1348  -15.1405   25.8978 N   0  0  0  0  0  0  0  0  0  0  0  0
   11.8740  -15.7581   25.7170 C   0  0  0  0  0  0  0  0  0  0  0  0
   11.3545  -16.3427   26.7316 O   0  0  0  0  0  0  0  0  0  0  0  0
   11.1579  -15.7435   24.4374 C   0  0  0  0  0  0  0  0  0  0  0  0
   11.8968  -15.2578   23.2539 C   0  0  0  0  0  0  0  0  0  0  0  0
   11.4597  -15.8263   21.9524 C   0  0  2  0  0  0  0  0  0  0  0  0
    9.9868  -15.6213   21.8313 N   0  0  0  0  0  0  0  0  0  0  0  0
   11.7626  -17.2169   21.7294 C   0  0  0  0  0  0  0  0  0  0  0  0
   13.0404  -17.7195   21.5721 O   0  0  0  0  0  0  0  0  0  0  0  0
   10.8142  -18.0675   21.6572 O   0  0  0  0  0  0  0  0  0  0  0  0
  2  1  1  1
  2  3  1  0
  2 13  1  0
  3  4  1  0
  4 12  1  0
  5  4  2  0
  5  6  1  0
  6  7  1  0
  7  8  1  0
  8  9  2  0
 10  9  1  0
 11 10  2  0
 12  7  2  0
 12 11  1  0
 13 17  1  0
 13 14  2  0
 16 15  1  1
 17 16  1  0
 18 16  1  0
 18 26  1  0
 19 18  2  0
 21 20  1  0
 22 21  2  0
 23 21  1  0
 25 24  1  1
 24 23  1  0
 25 26  1  0
 27 25  1  0
 28 27  1  0
 29 27  2  0
M  END
$$$$
