WAQ.pdb
     RDKit          3D

 29 30  0  0  1  0  0  0  0  0999 V2000
    7.5194  -18.0065   26.1018 N   0  0  0  0  0  0  0  0  0  0  0  0
    7.9321  -17.6704   24.7252 C   0  0  1  0  0  0  0  0  0  0  0  0
    8.3355  -16.2360   24.7815 C   0  0  0  0  0  0  0  0  0  0  0  0
    7.3275  -15.3238   25.3470 C   0  0  0  0  0  0  0  0  0  0  0  0
    5.9739  -15.6411   25.5086 C   0  0  0  0  0  0  0  0  0  0  0  0
    5.3482  -14.6013   26.0611 N   0  0  0  0  0  0  0  0  0  0  0  0
    6.2298  -13.5983   26.2761 C   0  0  0  0  0  0  0  0  0  0  0  0
    6.1166  -12.3245   26.8097 C   0  0  0  0  0  0  0  0  0  0  0  0
    7.1886  -11.4855   26.9138 C   0  0  0  0  0  0  0  0  0  0  0  0
    8.4223  -11.9134   26.4766 C   0  0  0  0  0  0  0  0  0  0  0  0
    8.5390  -13.1760   25.9470 C   0  0  0  0  0  0  0  0  0  0  0  0
    7.4777  -14.0484   25.8279 C   0  0  0  0  0  0  0  0  0  0  0  0
    8.9055  -18.6440   24.2947 C   0  0  0  0  0  0  0  0  0  0  0  0
    9.7733  -19.1156   25.1044 O   0  0  0  0  0  0  0  0  0  0  0  0
    9.6922  -20.7811   21.2607 C   0  0  0  0  0  0  0  0  0  0  0  0
   10.0534  -20.0550   22.5565 C   0  0  2  0  0  0  0  0  0  0  0  0
    8.9850  -19.1636   22.9508 N   0  0  0  0  0  0  0  0  0  0  0  0
   11.3409  -19.3285   22.3749 C   0  0  0  0  0  0  0  0  0  0  0  0
   12.4024  -19.9885   22.0983 O   0  0  0  0  0  0  0  0  0  0  0  0
   14.3040  -13.5311   19.1047 N   0  0  0  0  0  0  0  0  0  0  0  0
   13.4092  -14.5736   19.4460 C   0  0  0  0  0  0  0  0  0  0  0  0
   12.4003  -14.7578   18.6783 O   0  0  0  0  0  0  0  0  0  0  0  0
   13.6005  -15.4331   20.6186 C   0  0  0  0  0  0  0  0  0  0  0  0
   12.4771  -16.3116   21.0043 C   0  0  0  0  0  0  0  0  0  0  0  0
   12.7585  -17.2538   22.1184 C   0  0  2  0  0  0  0  0  0  0  0  0
   11.4793  -17.9283   22.4857 N   0  0  0  0  0  0  0  0  0  0  0  0
   13.3486  -16.6841   23.3025 C   0  0  0  0  0  0  0  0  0  0  0  0
   14.6505  -16.2269   23.3804 O   0  0  0  0  0  0  0  0  0  0  0  0
   12.6573  -16.5878   24.3706 O   0  0  0  0  0  0  0  0  0  0  0  0
  2  1  1  1
  2  3  1  0
  2 13  1  0
  3  4  1  0
  4 12  1  0
  5  4  2  0
  5  6  1  0
  6  7  1  0
  7  8  1  0
  8  9  2  0
 10  9  1  0
 11 10  2  0
 12  7  2  0
 12 11  1  0
 13 17  1  0
 13 14  2  0
 16 15  1  6
 17 16  1  0
 18 16  1  0
 18 26  1  0
 19 18  2  0
 21 20  1  0
 22 21  2  0
 23 21  1  0
 25 24  1  6
 24 23  1  0
 25 26  1  0
 27 25  1  0
 28 27  1  0
 29 27  2  0
M  END
$$$$
