MDK.pdb
     RDKit          3D

 26 25  0  0  1  0  0  0  0  0999 V2000
   25.3457  -20.8622   -9.2785 C   0  0  0  0  0  0  0  0  0  0  0  0
   26.8204  -21.4077  -10.1808 S   0  0  0  0  0  0  0  0  0  0  0  0
   27.3997  -20.0904  -11.2698 C   0  0  0  0  0  0  0  0  0  0  0  0
   26.4964  -19.9329  -12.4813 C   0  0  0  0  0  0  0  0  0  0  0  0
   26.5554  -21.1485  -13.3724 C   0  0  2  0  0  0  0  0  0  0  0  0
   27.7584  -21.0140  -14.1728 N   0  0  0  0  0  0  0  0  0  0  0  0
   25.3539  -21.3397  -14.1826 C   0  0  0  0  0  0  0  0  0  0  0  0
   25.2458  -20.6913  -15.2537 O   0  0  0  0  0  0  0  0  0  0  0  0
   24.2941  -22.2163  -13.8394 N   0  0  0  0  0  0  0  0  0  0  0  0
   23.1137  -22.4285  -14.6464 C   0  0  1  0  0  0  0  0  0  0  0  0
   22.8524  -23.9364  -14.6994 C   0  0  0  0  0  0  0  0  0  0  0  0
   23.8518  -24.6595  -15.4836 C   0  0  0  0  0  0  0  0  0  0  0  0
   24.4116  -24.2781  -16.5267 O   0  0  0  0  0  0  0  0  0  0  0  0
   21.9249  -21.7238  -14.0784 C   0  0  0  0  0  0  0  0  0  0  0  0
   21.7118  -21.6343  -12.8560 O   0  0  0  0  0  0  0  0  0  0  0  0
   24.2251  -25.9215  -15.0141 O   0  0  0  0  0  0  0  0  0  0  0  0
   21.0283  -21.1473  -15.0180 N   0  0  0  0  0  0  0  0  0  0  0  0
   19.8357  -20.4033  -14.6918 C   0  0  1  0  0  0  0  0  0  0  0  0
   19.3800  -19.7212  -15.9270 C   0  0  0  0  0  0  0  0  0  0  0  0
   20.2160  -18.6161  -16.4482 C   0  0  0  0  0  0  0  0  0  0  0  0
   19.7663  -18.0502  -17.7621 C   0  0  0  0  0  0  0  0  0  0  0  0
   20.7604  -16.9613  -18.1690 C   0  0  0  0  0  0  0  0  0  0  0  0
   20.2824  -16.3837  -19.4116 N   0  0  0  0  0  0  0  0  0  0  0  0
   18.7879  -21.2166  -14.0145 C   0  0  0  0  0  0  0  0  0  0  0  0
   17.9237  -20.6189  -13.1115 O   0  0  0  0  0  0  0  0  0  0  0  0
   18.6650  -22.4231  -14.2358 O   0  0  0  0  0  0  0  0  0  0  0  0
  2  1  1  0
  3  2  1  0
  4  3  1  0
  4  5  1  0
  5  6  1  6
  5  7  1  0
  7  8  2  0
  9  7  1  0
  9 10  1  0
 10 11  1  1
 11 12  1  0
 12 13  2  0
 14 10  1  0
 14 15  2  0
 16 12  1  0
 17 14  1  0
 18 17  1  0
 18 24  1  0
 18 19  1  6
 20 19  1  0
 21 20  1  0
 22 21  1  0
 23 22  1  0
 24 26  2  0
 24 25  1  0
M  END
$$$$
