MDK.pdb
     RDKit          3D

 26 25  0  0  1  0  0  0  0  0999 V2000
   27.9310  -21.1207   -4.0474 C   0  0  0  0  0  0  0  0  0  0  0  0
   28.5623  -20.2226   -5.4901 S   0  0  0  0  0  0  0  0  0  0  0  0
   27.1874  -19.5904   -6.4734 C   0  0  0  0  0  0  0  0  0  0  0  0
   26.8140  -20.5512   -7.5896 C   0  0  0  0  0  0  0  0  0  0  0  0
   27.2151  -20.0089   -8.9387 C   0  0  2  0  0  0  0  0  0  0  0  0
   26.6173  -18.6909   -9.0465 N   0  0  0  0  0  0  0  0  0  0  0  0
   26.8585  -20.8860  -10.0523 C   0  0  0  0  0  0  0  0  0  0  0  0
   27.0818  -22.1175   -9.9383 O   0  0  0  0  0  0  0  0  0  0  0  0
   26.2710  -20.4375  -11.2617 N   0  0  0  0  0  0  0  0  0  0  0  0
   24.9578  -20.8238  -11.7263 C   0  0  1  0  0  0  0  0  0  0  0  0
   23.9805  -20.6392  -10.5621 C   0  0  0  0  0  0  0  0  0  0  0  0
   22.5947  -20.9198  -10.9329 C   0  0  0  0  0  0  0  0  0  0  0  0
   22.1949  -21.6440  -11.8616 O   0  0  0  0  0  0  0  0  0  0  0  0
   24.5228  -19.9994  -12.8940 C   0  0  0  0  0  0  0  0  0  0  0  0
   23.9786  -18.8873  -12.7718 O   0  0  0  0  0  0  0  0  0  0  0  0
   21.6026  -20.3097  -10.1610 O   0  0  0  0  0  0  0  0  0  0  0  0
   24.7638  -20.5548  -14.1796 N   0  0  0  0  0  0  0  0  0  0  0  0
   23.9146  -20.3943  -15.3351 C   0  0  1  0  0  0  0  0  0  0  0  0
   23.4344  -21.7405  -15.7299 C   0  0  0  0  0  0  0  0  0  0  0  0
   22.5027  -21.8269  -16.8771 C   0  0  0  0  0  0  0  0  0  0  0  0
   22.0335  -23.2127  -17.2060 C   0  0  0  0  0  0  0  0  0  0  0  0
   21.0157  -23.1063  -18.3428 C   0  0  0  0  0  0  0  0  0  0  0  0
   20.5693  -24.4527  -18.6493 N   0  0  0  0  0  0  0  0  0  0  0  0
   22.8356  -19.3844  -15.1510 C   0  0  0  0  0  0  0  0  0  0  0  0
   21.7846  -19.6440  -14.2865 O   0  0  0  0  0  0  0  0  0  0  0  0
   22.8494  -18.3091  -15.7538 O   0  0  0  0  0  0  0  0  0  0  0  0
  2  1  1  0
  3  2  1  0
  4  3  1  0
  4  5  1  0
  5  6  1  6
  5  7  1  0
  7  8  2  0
  9  7  1  0
  9 10  1  0
 10 11  1  1
 11 12  1  0
 12 13  2  0
 14 10  1  0
 14 15  2  0
 16 12  1  0
 17 14  1  0
 18 17  1  0
 18 24  1  0
 18 19  1  1
 20 19  1  0
 21 20  1  0
 22 21  1  0
 23 22  1  0
 24 26  2  0
 24 25  1  0
M  END
$$$$
