MDK.pdb
     RDKit          3D

 26 25  0  0  1  0  0  0  0  0999 V2000
   28.4222  -12.8506  -16.6888 C   0  0  0  0  0  0  0  0  0  0  0  0
   27.8037  -11.2301  -16.1618 S   0  0  0  0  0  0  0  0  0  0  0  0
   26.0607  -11.3522  -15.7100 C   0  0  0  0  0  0  0  0  0  0  0  0
   25.5015  -10.0056  -15.2827 C   0  0  0  0  0  0  0  0  0  0  0  0
   24.0056  -10.0655  -15.0979 C   0  0  2  0  0  0  0  0  0  0  0  0
   23.4624  -10.6295  -16.3197 N   0  0  0  0  0  0  0  0  0  0  0  0
   23.4061   -8.7780  -14.7523 C   0  0  0  0  0  0  0  0  0  0  0  0
   23.8436   -8.1661  -13.7455 O   0  0  0  0  0  0  0  0  0  0  0  0
   22.3568   -8.1671  -15.4836 N   0  0  0  0  0  0  0  0  0  0  0  0
   21.7670   -6.8886  -15.1557 C   0  0  1  0  0  0  0  0  0  0  0  0
   22.8951   -5.8541  -15.1137 C   0  0  0  0  0  0  0  0  0  0  0  0
   22.4378   -4.5307  -14.6937 C   0  0  0  0  0  0  0  0  0  0  0  0
   22.0826   -4.1828  -13.5537 O   0  0  0  0  0  0  0  0  0  0  0  0
   20.7390   -6.4830  -16.1612 C   0  0  0  0  0  0  0  0  0  0  0  0
   20.9720   -6.4266  -17.3820 O   0  0  0  0  0  0  0  0  0  0  0  0
   22.3926   -3.5405  -15.6785 O   0  0  0  0  0  0  0  0  0  0  0  0
   19.4542   -6.1569  -15.6494 N   0  0  0  0  0  0  0  0  0  0  0  0
   18.3218   -5.7303  -16.4354 C   0  0  1  0  0  0  0  0  0  0  0  0
   17.1737   -6.5972  -16.0763 C   0  0  0  0  0  0  0  0  0  0  0  0
   15.9177   -6.4231  -16.8403 C   0  0  0  0  0  0  0  0  0  0  0  0
   14.8136   -7.3650  -16.4628 C   0  0  0  0  0  0  0  0  0  0  0  0
   13.6810   -7.1909  -17.4760 C   0  0  0  0  0  0  0  0  0  0  0  0
   12.6875   -8.2097  -17.1913 N   0  0  0  0  0  0  0  0  0  0  0  0
   18.0440   -4.2700  -16.3437 C   0  0  0  0  0  0  0  0  0  0  0  0
   17.7187   -3.5542  -17.4843 O   0  0  0  0  0  0  0  0  0  0  0  0
   18.0960   -3.6703  -15.2679 O   0  0  0  0  0  0  0  0  0  0  0  0
  2  1  1  0
  3  2  1  0
  4  3  1  0
  4  5  1  0
  5  6  1  6
  5  7  1  0
  7  8  2  0
  9  7  1  0
  9 10  1  0
 10 11  1  6
 11 12  1  0
 12 13  2  0
 14 10  1  0
 14 15  2  0
 16 12  1  0
 17 14  1  0
 18 17  1  0
 18 24  1  0
 18 19  1  1
 20 19  1  0
 21 20  1  0
 22 21  1  0
 23 22  1  0
 24 26  2  0
 24 25  1  0
M  END
$$$$
