MDK.pdb
     RDKit          3D

 26 25  0  0  1  0  0  0  0  0999 V2000
   23.5068  -21.1146   -8.4387 C   0  0  0  0  0  0  0  0  0  0  0  0
   24.5567  -21.4801   -9.8707 S   0  0  0  0  0  0  0  0  0  0  0  0
   25.9503  -20.3345   -9.9223 C   0  0  0  0  0  0  0  0  0  0  0  0
   26.7731  -20.5165  -11.1866 C   0  0  0  0  0  0  0  0  0  0  0  0
   25.9440  -20.2693  -12.4222 C   0  0  2  0  0  0  0  0  0  0  0  0
   24.9766  -21.3489  -12.4913 N   0  0  0  0  0  0  0  0  0  0  0  0
   26.7368  -20.1393  -13.6433 C   0  0  0  0  0  0  0  0  0  0  0  0
   27.5342  -19.1726  -13.7381 O   0  0  0  0  0  0  0  0  0  0  0  0
   26.6676  -21.0391  -14.7363 N   0  0  0  0  0  0  0  0  0  0  0  0
   27.3746  -20.8657  -15.9852 C   0  0  1  0  0  0  0  0  0  0  0  0
   28.3597  -22.0294  -16.1266 C   0  0  0  0  0  0  0  0  0  0  0  0
   29.1829  -21.9346  -17.3308 C   0  0  0  0  0  0  0  0  0  0  0  0
   29.5320  -20.8995  -17.9254 O   0  0  0  0  0  0  0  0  0  0  0  0
   26.4381  -20.8449  -17.1492 C   0  0  0  0  0  0  0  0  0  0  0  0
   25.9663  -21.8783  -17.6565 O   0  0  0  0  0  0  0  0  0  0  0  0
   29.6318  -23.1381  -17.8806 O   0  0  0  0  0  0  0  0  0  0  0  0
   26.1026  -19.5631  -17.6627 N   0  0  0  0  0  0  0  0  0  0  0  0
   24.7693  -19.1059  -17.9713 C   0  0  1  0  0  0  0  0  0  0  0  0
   23.9203  -19.3629  -16.7831 C   0  0  0  0  0  0  0  0  0  0  0  0
   22.4763  -19.0554  -16.8927 C   0  0  0  0  0  0  0  0  0  0  0  0
   21.6651  -19.3931  -15.6775 C   0  0  0  0  0  0  0  0  0  0  0  0
   20.2073  -19.0362  -15.9722 C   0  0  0  0  0  0  0  0  0  0  0  0
   19.4558  -19.2477  -14.7488 N   0  0  0  0  0  0  0  0  0  0  0  0
   24.7169  -17.7054  -18.4750 C   0  0  0  0  0  0  0  0  0  0  0  0
   25.0480  -17.4304  -19.7918 O   0  0  0  0  0  0  0  0  0  0  0  0
   24.3835  -16.7698  -17.7448 O   0  0  0  0  0  0  0  0  0  0  0  0
  2  1  1  0
  3  2  1  0
  4  3  1  0
  4  5  1  0
  5  6  1  6
  5  7  1  0
  7  8  2  0
  9  7  1  0
  9 10  1  0
 10 11  1  6
 11 12  1  0
 12 13  2  0
 14 10  1  0
 14 15  2  0
 16 12  1  0
 17 14  1  0
 18 17  1  0
 18 24  1  0
 18 19  1  1
 20 19  1  0
 21 20  1  0
 22 21  1  0
 23 22  1  0
 24 26  2  0
 24 25  1  0
M  END
$$$$
