MDK.pdb
     RDKit          3D

 26 25  0  0  1  0  0  0  0  0999 V2000
  -26.7301  -71.3386  -58.3282 C   0  0  0  0  0  0  0  0  0  0  0  0
  -25.1038  -70.8553  -57.6895 S   0  0  0  0  0  0  0  0  0  0  0  0
  -23.9277  -70.7011  -59.0496 C   0  0  0  0  0  0  0  0  0  0  0  0
  -22.8779  -71.7984  -59.0039 C   0  0  0  0  0  0  0  0  0  0  0  0
  -22.2602  -72.0249  -60.3613 C   0  0  2  0  0  0  0  0  0  0  0  0
  -22.4068  -73.4398  -60.6491 N   0  0  0  0  0  0  0  0  0  0  0  0
  -20.8756  -71.5671  -60.4586 C   0  0  0  0  0  0  0  0  0  0  0  0
  -20.5024  -70.6286  -59.7107 O   0  0  0  0  0  0  0  0  0  0  0  0
  -19.9165  -72.1163  -61.3461 N   0  0  0  0  0  0  0  0  0  0  0  0
  -19.6995  -73.5320  -61.5426 C   0  0  1  0  0  0  0  0  0  0  0  0
  -18.5655  -73.6911  -62.5592 C   0  0  0  0  0  0  0  0  0  0  0  0
  -17.6306  -72.5674  -62.5488 C   0  0  0  0  0  0  0  0  0  0  0  0
  -16.6268  -72.4289  -61.8278 O   0  0  0  0  0  0  0  0  0  0  0  0
  -19.3391  -74.2160  -60.2641 C   0  0  0  0  0  0  0  0  0  0  0  0
  -18.2664  -74.0136  -59.6675 O   0  0  0  0  0  0  0  0  0  0  0  0
  -17.8873  -71.5291  -63.4479 O   0  0  0  0  0  0  0  0  0  0  0  0
  -20.2982  -75.1289  -59.7482 N   0  0  0  0  0  0  0  0  0  0  0  0
  -20.1281  -75.9490  -58.5732 C   0  0  1  0  0  0  0  0  0  0  0  0
  -21.1900  -76.9838  -58.5904 C   0  0  0  0  0  0  0  0  0  0  0  0
  -22.0889  -77.0243  -59.7659 C   0  0  0  0  0  0  0  0  0  0  0  0
  -23.5528  -76.9876  -59.4426 C   0  0  0  0  0  0  0  0  0  0  0  0
  -23.8196  -78.0294  -58.3550 C   0  0  0  0  0  0  0  0  0  0  0  0
  -23.7904  -79.3336  -58.9909 N   0  0  0  0  0  0  0  0  0  0  0  0
  -18.7481  -76.4845  -58.4100 C   0  0  0  0  0  0  0  0  0  0  0  0
  -18.3261  -76.9456  -57.1737 O   0  0  0  0  0  0  0  0  0  0  0  0
  -17.9583  -76.5299  -59.3555 O   0  0  0  0  0  0  0  0  0  0  0  0
  2  1  1  0
  3  2  1  0
  4  3  1  0
  4  5  1  0
  5  6  1  1
  5  7  1  0
  7  8  2  0
  9  7  1  0
  9 10  1  0
 10 11  1  6
 11 12  1  0
 12 13  2  0
 14 10  1  0
 14 15  2  0
 16 12  1  0
 17 14  1  0
 18 17  1  0
 18 24  1  0
 18 19  1  6
 20 19  1  0
 21 20  1  0
 22 21  1  0
 23 22  1  0
 24 26  2  0
 24 25  1  0
M  END
$$$$
