MDK.pdb
     RDKit          3D

 26 25  0  0  1  0  0  0  0  0999 V2000
   10.0945  -13.8849  -12.6289 C   0  0  0  0  0  0  0  0  0  0  0  0
   11.6232  -13.0204  -12.1791 S   0  0  0  0  0  0  0  0  0  0  0  0
   12.1512  -11.9543  -13.5361 C   0  0  0  0  0  0  0  0  0  0  0  0
   13.3813  -11.1452  -13.1612 C   0  0  0  0  0  0  0  0  0  0  0  0
   13.9033  -10.3611  -14.3394 C   0  0  2  0  0  0  0  0  0  0  0  0
   14.1916  -11.3283  -15.3822 N   0  0  0  0  0  0  0  0  0  0  0  0
   15.0510   -9.5151  -14.0178 C   0  0  0  0  0  0  0  0  0  0  0  0
   14.9294   -8.6669  -13.0983 O   0  0  0  0  0  0  0  0  0  0  0  0
   16.3034   -9.5887  -14.6775 N   0  0  0  0  0  0  0  0  0  0  0  0
   17.3706   -8.6268  -14.5175 C   0  0  1  0  0  0  0  0  0  0  0  0
   18.6954   -9.3619  -14.7395 C   0  0  0  0  0  0  0  0  0  0  0  0
   19.8601   -8.4896  -14.6001 C   0  0  0  0  0  0  0  0  0  0  0  0
   19.8646   -7.2766  -14.3257 O   0  0  0  0  0  0  0  0  0  0  0  0
   17.2438   -7.4981  -15.4884 C   0  0  0  0  0  0  0  0  0  0  0  0
   17.0447   -7.6706  -16.7042 O   0  0  0  0  0  0  0  0  0  0  0  0
   21.1121   -9.0784  -14.7952 O   0  0  0  0  0  0  0  0  0  0  0  0
   17.3637   -6.1890  -14.9487 N   0  0  0  0  0  0  0  0  0  0  0  0
   17.2989   -4.9613  -15.7041 C   0  0  1  0  0  0  0  0  0  0  0  0
   15.9454   -4.3870  -15.5124 C   0  0  0  0  0  0  0  0  0  0  0  0
   15.6363   -3.1147  -16.2032 C   0  0  0  0  0  0  0  0  0  0  0  0
   14.2595   -2.5771  -15.9495 C   0  0  0  0  0  0  0  0  0  0  0  0
   14.1304   -1.2471  -16.6937 C   0  0  0  0  0  0  0  0  0  0  0  0
   12.7966   -0.7365  -16.4360 N   0  0  0  0  0  0  0  0  0  0  0  0
   18.4151   -4.0190  -15.4141 C   0  0  0  0  0  0  0  0  0  0  0  0
   18.9416   -3.2361  -16.4286 O   0  0  0  0  0  0  0  0  0  0  0  0
   18.8920   -3.9135  -14.2822 O   0  0  0  0  0  0  0  0  0  0  0  0
  2  1  1  0
  3  2  1  0
  4  3  1  0
  4  5  1  0
  5  6  1  6
  5  7  1  0
  7  8  2  0
  9  7  1  0
  9 10  1  0
 10 11  1  6
 11 12  1  0
 12 13  2  0
 14 10  1  0
 14 15  2  0
 16 12  1  0
 17 14  1  0
 18 17  1  0
 18 24  1  0
 18 19  1  1
 20 19  1  0
 21 20  1  0
 22 21  1  0
 23 22  1  0
 24 26  2  0
 24 25  1  0
M  END
$$$$
