MDK.pdb
     RDKit          3D

 26 25  0  0  1  0  0  0  0  0999 V2000
   29.8528  -19.7879   -7.4215 C   0  0  0  0  0  0  0  0  0  0  0  0
   28.2162  -19.1158   -7.0263 S   0  0  0  0  0  0  0  0  0  0  0  0
   26.9376  -20.0680   -7.8721 C   0  0  0  0  0  0  0  0  0  0  0  0
   26.9336  -19.7897   -9.3657 C   0  0  0  0  0  0  0  0  0  0  0  0
   25.9037  -20.6302  -10.0786 C   0  0  2  0  0  0  0  0  0  0  0  0
   26.3358  -22.0093   -9.9472 N   0  0  0  0  0  0  0  0  0  0  0  0
   25.6850  -20.2345  -11.4685 C   0  0  0  0  0  0  0  0  0  0  0  0
   25.3257  -19.0535  -11.7043 O   0  0  0  0  0  0  0  0  0  0  0  0
   25.8540  -21.1001  -12.5782 N   0  0  0  0  0  0  0  0  0  0  0  0
   25.4875  -20.7700  -13.9370 C   0  0  1  0  0  0  0  0  0  0  0  0
   26.6279  -21.2288  -14.8500 C   0  0  0  0  0  0  0  0  0  0  0  0
   27.8661  -20.4831  -14.6319 C   0  0  0  0  0  0  0  0  0  0  0  0
   28.9513  -20.9285  -14.2186 O   0  0  0  0  0  0  0  0  0  0  0  0
   24.2116  -21.4352  -14.3398 C   0  0  0  0  0  0  0  0  0  0  0  0
   24.1481  -22.6327  -14.6707 O   0  0  0  0  0  0  0  0  0  0  0  0
   27.8342  -19.1160  -14.9186 O   0  0  0  0  0  0  0  0  0  0  0  0
   23.0475  -20.6203  -14.3278 N   0  0  0  0  0  0  0  0  0  0  0  0
   21.6925  -21.0913  -14.4838 C   0  0  1  0  0  0  0  0  0  0  0  0
   21.1308  -21.3001  -13.1276 C   0  0  0  0  0  0  0  0  0  0  0  0
   19.7367  -21.7889  -13.0306 C   0  0  0  0  0  0  0  0  0  0  0  0
   19.4674  -22.7027  -11.8725 C   0  0  0  0  0  0  0  0  0  0  0  0
   18.0433  -23.2407  -12.0204 C   0  0  0  0  0  0  0  0  0  0  0  0
   17.8571  -24.2541  -10.9985 N   0  0  0  0  0  0  0  0  0  0  0  0
   20.8582  -20.2345  -15.3714 C   0  0  0  0  0  0  0  0  0  0  0  0
   21.0523  -18.8629  -15.3916 O   0  0  0  0  0  0  0  0  0  0  0  0
   19.9871  -20.7159  -16.0988 O   0  0  0  0  0  0  0  0  0  0  0  0
  2  1  1  0
  3  2  1  0
  4  3  1  0
  4  5  1  0
  5  6  1  6
  5  7  1  0
  7  8  2  0
  9  7  1  0
  9 10  1  0
 10 11  1  6
 11 12  1  0
 12 13  2  0
 14 10  1  0
 14 15  2  0
 16 12  1  0
 17 14  1  0
 18 17  1  0
 18 24  1  0
 18 19  1  1
 20 19  1  0
 21 20  1  0
 22 21  1  0
 23 22  1  0
 24 26  2  0
 24 25  1  0
M  END
$$$$
