MDK.pdb
     RDKit          3D

 26 25  0  0  1  0  0  0  0  0999 V2000
   27.7466  -19.2159   -6.6235 C   0  0  0  0  0  0  0  0  0  0  0  0
   26.6970  -19.6307   -8.0423 S   0  0  0  0  0  0  0  0  0  0  0  0
   27.3050  -21.1299   -8.8420 C   0  0  0  0  0  0  0  0  0  0  0  0
   26.5611  -21.4102  -10.1368 C   0  0  0  0  0  0  0  0  0  0  0  0
   25.6473  -20.2676  -10.5039 C   0  0  2  0  0  0  0  0  0  0  0  0
   24.4822  -20.3807   -9.6462 N   0  0  0  0  0  0  0  0  0  0  0  0
   25.3040  -20.2251  -11.9240 C   0  0  0  0  0  0  0  0  0  0  0  0
   26.2379  -20.2253  -12.7650 O   0  0  0  0  0  0  0  0  0  0  0  0
   23.9771  -20.1853  -12.4209 N   0  0  0  0  0  0  0  0  0  0  0  0
   23.6298  -20.1006  -13.8216 C   0  0  1  0  0  0  0  0  0  0  0  0
   22.2309  -20.6999  -13.9902 C   0  0  0  0  0  0  0  0  0  0  0  0
   22.1854  -22.1304  -13.6930 C   0  0  0  0  0  0  0  0  0  0  0  0
   22.8019  -23.0409  -14.2742 O   0  0  0  0  0  0  0  0  0  0  0  0
   23.6421  -18.6875  -14.3069 C   0  0  0  0  0  0  0  0  0  0  0  0
   22.8438  -17.8251  -13.8989 O   0  0  0  0  0  0  0  0  0  0  0  0
   21.3588  -22.5263  -12.6383 O   0  0  0  0  0  0  0  0  0  0  0  0
   24.6287  -18.3654  -15.2775 N   0  0  0  0  0  0  0  0  0  0  0  0
   24.7931  -17.0796  -15.9115 C   0  0  1  0  0  0  0  0  0  0  0  0
   26.0902  -17.0956  -16.6297 C   0  0  0  0  0  0  0  0  0  0  0  0
   26.4458  -15.9018  -17.4298 C   0  0  0  0  0  0  0  0  0  0  0  0
   27.7302  -16.0149  -18.1955 C   0  0  0  0  0  0  0  0  0  0  0  0
   27.9458  -14.7004  -18.9472 C   0  0  0  0  0  0  0  0  0  0  0  0
   29.1045  -14.8781  -19.8028 N   0  0  0  0  0  0  0  0  0  0  0  0
   23.6307  -16.6701  -16.7475 C   0  0  0  0  0  0  0  0  0  0  0  0
   23.1064  -17.5482  -17.6821 O   0  0  0  0  0  0  0  0  0  0  0  0
   23.1137  -15.5569  -16.6317 O   0  0  0  0  0  0  0  0  0  0  0  0
  2  1  1  0
  3  2  1  0
  4  3  1  0
  4  5  1  0
  5  6  1  1
  5  7  1  0
  7  8  2  0
  9  7  1  0
  9 10  1  0
 10 11  1  1
 11 12  1  0
 12 13  2  0
 14 10  1  0
 14 15  2  0
 16 12  1  0
 17 14  1  0
 18 17  1  0
 18 24  1  0
 18 19  1  6
 20 19  1  0
 21 20  1  0
 22 21  1  0
 23 22  1  0
 24 26  2  0
 24 25  1  0
M  END
$$$$
