MDK.pdb
     RDKit          3D

 26 25  0  0  1  0  0  0  0  0999 V2000
   18.9006  -11.8819  -20.2460 C   0  0  0  0  0  0  0  0  0  0  0  0
   20.5724  -11.4240  -20.7771 S   0  0  0  0  0  0  0  0  0  0  0  0
   21.5211  -10.8123  -19.3691 C   0  0  0  0  0  0  0  0  0  0  0  0
   20.8697   -9.5873  -18.7498 C   0  0  0  0  0  0  0  0  0  0  0  0
   21.6414   -9.1031  -17.5476 C   0  0  2  0  0  0  0  0  0  0  0  0
   21.7006  -10.2180  -16.6204 N   0  0  0  0  0  0  0  0  0  0  0  0
   21.0871   -7.8927  -16.9442 C   0  0  0  0  0  0  0  0  0  0  0  0
   19.8884   -7.9079  -16.5671 O   0  0  0  0  0  0  0  0  0  0  0  0
   21.8174   -6.6931  -16.7525 N   0  0  0  0  0  0  0  0  0  0  0  0
   21.2586   -5.4709  -16.2198 C   0  0  1  0  0  0  0  0  0  0  0  0
   22.1226   -5.0456  -15.0293 C   0  0  0  0  0  0  0  0  0  0  0  0
   21.7147   -5.6777  -13.7760 C   0  0  0  0  0  0  0  0  0  0  0  0
   20.7980   -6.5018  -13.6110 O   0  0  0  0  0  0  0  0  0  0  0  0
   21.2325   -4.3850  -17.2458 C   0  0  0  0  0  0  0  0  0  0  0  0
   22.2127   -4.1036  -17.9582 O   0  0  0  0  0  0  0  0  0  0  0  0
   22.4312   -5.3207  -12.6308 O   0  0  0  0  0  0  0  0  0  0  0  0
   20.0102   -3.6718  -17.3743 N   0  0  0  0  0  0  0  0  0  0  0  0
   19.7486   -2.6210  -18.3281 C   0  0  1  0  0  0  0  0  0  0  0  0
   18.2794   -2.4334  -18.3978 C   0  0  0  0  0  0  0  0  0  0  0  0
   17.7562   -1.4881  -19.4099 C   0  0  0  0  0  0  0  0  0  0  0  0
   16.2624   -1.3599  -19.4411 C   0  0  0  0  0  0  0  0  0  0  0  0
   15.9002   -0.3562  -20.5369 C   0  0  0  0  0  0  0  0  0  0  0  0
   14.4565   -0.3795  -20.6827 N   0  0  0  0  0  0  0  0  0  0  0  0
   20.5181   -1.3722  -18.0708 C   0  0  0  0  0  0  0  0  0  0  0  0
   20.8716   -1.0313  -16.7753 O   0  0  0  0  0  0  0  0  0  0  0  0
   20.8543   -0.6214  -18.9889 O   0  0  0  0  0  0  0  0  0  0  0  0
  2  1  1  0
  3  2  1  0
  4  3  1  0
  4  5  1  0
  5  6  1  1
  5  7  1  0
  7  8  2  0
  9  7  1  0
  9 10  1  0
 10 11  1  1
 11 12  1  0
 12 13  2  0
 14 10  1  0
 14 15  2  0
 16 12  1  0
 17 14  1  0
 18 17  1  0
 18 24  1  0
 18 19  1  1
 20 19  1  0
 21 20  1  0
 22 21  1  0
 23 22  1  0
 24 26  2  0
 24 25  1  0
M  END
$$$$
