MDK.pdb
     RDKit          3D

 26 25  0  0  1  0  0  0  0  0999 V2000
   17.3341  -17.9947  -16.0091 C   0  0  0  0  0  0  0  0  0  0  0  0
   18.1224  -16.5697  -15.2125 S   0  0  0  0  0  0  0  0  0  0  0  0
   17.5779  -15.0416  -16.0032 C   0  0  0  0  0  0  0  0  0  0  0  0
   18.1888  -13.8215  -15.3350 C   0  0  0  0  0  0  0  0  0  0  0  0
   17.6728  -12.5433  -15.9477 C   0  0  2  0  0  0  0  0  0  0  0  0
   18.0325  -12.5862  -17.3530 N   0  0  0  0  0  0  0  0  0  0  0  0
   18.1522  -11.3367  -15.2763 C   0  0  0  0  0  0  0  0  0  0  0  0
   17.8804  -11.1821  -14.0590 O   0  0  0  0  0  0  0  0  0  0  0  0
   18.9110  -10.3214  -15.9107 N   0  0  0  0  0  0  0  0  0  0  0  0
   19.3233   -9.0900  -15.2755 C   0  0  1  0  0  0  0  0  0  0  0  0
   20.1096   -8.2762  -16.3069 C   0  0  0  0  0  0  0  0  0  0  0  0
   21.1445   -7.4395  -15.7021 C   0  0  0  0  0  0  0  0  0  0  0  0
   20.9847   -6.3733  -15.0822 O   0  0  0  0  0  0  0  0  0  0  0  0
   18.1504   -8.3022  -14.7897 C   0  0  0  0  0  0  0  0  0  0  0  0
   17.1036   -8.1711  -15.4489 O   0  0  0  0  0  0  0  0  0  0  0  0
   22.4637   -7.8817  -15.8307 O   0  0  0  0  0  0  0  0  0  0  0  0
   18.2871   -7.6954  -13.5120 N   0  0  0  0  0  0  0  0  0  0  0  0
   17.3435   -6.7839  -12.9112 C   0  0  1  0  0  0  0  0  0  0  0  0
   17.0340   -7.2893  -11.5520 C   0  0  0  0  0  0  0  0  0  0  0  0
   16.0656   -6.5199  -10.7384 C   0  0  0  0  0  0  0  0  0  0  0  0
   15.8286   -7.0613   -9.3602 C   0  0  0  0  0  0  0  0  0  0  0  0
   14.7934   -6.1669   -8.6761 C   0  0  0  0  0  0  0  0  0  0  0  0
   14.3724   -6.8443   -7.4637 N   0  0  0  0  0  0  0  0  0  0  0  0
   17.7744   -5.3590  -12.9557 C   0  0  0  0  0  0  0  0  0  0  0  0
   16.8264   -4.3487  -12.9543 O   0  0  0  0  0  0  0  0  0  0  0  0
   18.9664   -5.0469  -12.9948 O   0  0  0  0  0  0  0  0  0  0  0  0
  2  1  1  0
  3  2  1  0
  4  3  1  0
  4  5  1  0
  5  6  1  6
  5  7  1  0
  7  8  2  0
  9  7  1  0
  9 10  1  0
 10 11  1  6
 11 12  1  0
 12 13  2  0
 14 10  1  0
 14 15  2  0
 16 12  1  0
 17 14  1  0
 18 17  1  0
 18 24  1  0
 18 19  1  1
 20 19  1  0
 21 20  1  0
 22 21  1  0
 23 22  1  0
 24 26  2  0
 24 25  1  0
M  END
$$$$
