MDK.pdb
     RDKit          3D

 26 25  0  0  1  0  0  0  0  0999 V2000
   10.3690  -11.3158   -7.5242 C   0  0  0  0  0  0  0  0  0  0  0  0
   10.2741  -12.2177   -9.0939 S   0  0  0  0  0  0  0  0  0  0  0  0
   11.8782  -12.1884   -9.9202 C   0  0  0  0  0  0  0  0  0  0  0  0
   12.2705  -10.7769  -10.3228 C   0  0  0  0  0  0  0  0  0  0  0  0
   13.6660  -10.7361  -10.8939 C   0  0  2  0  0  0  0  0  0  0  0  0
   14.4877  -11.5655  -10.0319 N   0  0  0  0  0  0  0  0  0  0  0  0
   14.1954   -9.3828  -11.0510 C   0  0  0  0  0  0  0  0  0  0  0  0
   13.5989   -8.5939  -11.8266 O   0  0  0  0  0  0  0  0  0  0  0  0
   15.3451   -8.8954  -10.3803 N   0  0  0  0  0  0  0  0  0  0  0  0
   15.8805   -7.5618  -10.5376 C   0  0  1  0  0  0  0  0  0  0  0  0
   16.6419   -7.2131   -9.2556 C   0  0  0  0  0  0  0  0  0  0  0  0
   17.1438   -5.8402   -9.2479 C   0  0  0  0  0  0  0  0  0  0  0  0
   16.9987   -4.9797  -10.1341 O   0  0  0  0  0  0  0  0  0  0  0  0
   16.7953   -7.4717  -11.7155 C   0  0  0  0  0  0  0  0  0  0  0  0
   17.8372   -8.1440  -11.8160 O   0  0  0  0  0  0  0  0  0  0  0  0
   17.8683   -5.4432   -8.1211 O   0  0  0  0  0  0  0  0  0  0  0  0
   16.4135   -6.5631  -12.7392 N   0  0  0  0  0  0  0  0  0  0  0  0
   17.1677   -6.2845  -13.9374 C   0  0  1  0  0  0  0  0  0  0  0  0
   16.2984   -6.5957  -15.0977 C   0  0  0  0  0  0  0  0  0  0  0  0
   16.7072   -7.7111  -15.9811 C   0  0  0  0  0  0  0  0  0  0  0  0
   15.7938   -7.9628  -17.1435 C   0  0  0  0  0  0  0  0  0  0  0  0
   16.3660   -9.1331  -17.9451 C   0  0  0  0  0  0  0  0  0  0  0  0
   15.5278   -9.3032  -19.1175 N   0  0  0  0  0  0  0  0  0  0  0  0
   17.7682   -4.9220  -13.9649 C   0  0  0  0  0  0  0  0  0  0  0  0
   19.0450   -4.7382  -14.4700 O   0  0  0  0  0  0  0  0  0  0  0  0
   17.1546   -3.9385  -13.5452 O   0  0  0  0  0  0  0  0  0  0  0  0
  2  1  1  0
  3  2  1  0
  4  3  1  0
  4  5  1  0
  5  6  1  1
  5  7  1  0
  7  8  2  0
  9  7  1  0
  9 10  1  0
 10 11  1  1
 11 12  1  0
 12 13  2  0
 14 10  1  0
 14 15  2  0
 16 12  1  0
 17 14  1  0
 18 17  1  0
 18 24  1  0
 18 19  1  6
 20 19  1  0
 21 20  1  0
 22 21  1  0
 23 22  1  0
 24 26  2  0
 24 25  1  0
M  END
$$$$
