MDK.pdb
     RDKit          3D

 26 25  0  0  1  0  0  0  0  0999 V2000
   18.2030  -28.1270  -15.8760 C   0  0  0  0  0  0  0  0  0  0  0  0
   19.4023  -27.0880  -14.9992 S   0  0  0  0  0  0  0  0  0  0  0  0
   19.1112  -25.3494  -15.3857 C   0  0  0  0  0  0  0  0  0  0  0  0
   20.2222  -24.4659  -14.8440 C   0  0  0  0  0  0  0  0  0  0  0  0
   19.8270  -23.8255  -13.5366 C   0  0  2  0  0  0  0  0  0  0  0  0
   20.6913  -22.6724  -13.3655 N   0  0  0  0  0  0  0  0  0  0  0  0
   19.8719  -24.7416  -12.3985 C   0  0  0  0  0  0  0  0  0  0  0  0
   20.8207  -25.5629  -12.3294 O   0  0  0  0  0  0  0  0  0  0  0  0
   18.9101  -24.7649  -11.3576 N   0  0  0  0  0  0  0  0  0  0  0  0
   18.9217  -25.6976  -10.2533 C   0  0  1  0  0  0  0  0  0  0  0  0
   18.8317  -24.8853   -8.9584 C   0  0  0  0  0  0  0  0  0  0  0  0
   18.8603  -25.7211   -7.7595 C   0  0  0  0  0  0  0  0  0  0  0  0
   19.0261  -26.9525   -7.7031 O   0  0  0  0  0  0  0  0  0  0  0  0
   17.7808  -26.6591  -10.3333 C   0  0  0  0  0  0  0  0  0  0  0  0
   16.5909  -26.3055  -10.2509 O   0  0  0  0  0  0  0  0  0  0  0  0
   18.6826  -25.0700   -6.5361 O   0  0  0  0  0  0  0  0  0  0  0  0
   18.1232  -28.0266  -10.5118 N   0  0  0  0  0  0  0  0  0  0  0  0
   17.1948  -29.1312  -10.5071 C   0  0  1  0  0  0  0  0  0  0  0  0
   17.2884  -29.7909   -9.1825 C   0  0  0  0  0  0  0  0  0  0  0  0
   18.5022  -30.5896   -8.8985 C   0  0  0  0  0  0  0  0  0  0  0  0
   18.4994  -31.2926   -7.5739 C   0  0  0  0  0  0  0  0  0  0  0  0
   19.7872  -32.1120   -7.4747 C   0  0  0  0  0  0  0  0  0  0  0  0
   19.7871  -32.7596   -6.1760 N   0  0  0  0  0  0  0  0  0  0  0  0
   15.8120  -28.7542  -10.9116 C   0  0  0  0  0  0  0  0  0  0  0  0
   15.2999  -29.1951  -12.1210 O   0  0  0  0  0  0  0  0  0  0  0  0
   15.0991  -28.0510  -10.1925 O   0  0  0  0  0  0  0  0  0  0  0  0
  2  1  1  0
  3  2  1  0
  4  3  1  0
  4  5  1  0
  5  6  1  1
  5  7  1  0
  7  8  2  0
  9  7  1  0
  9 10  1  0
 10 11  1  1
 11 12  1  0
 12 13  2  0
 14 10  1  0
 14 15  2  0
 16 12  1  0
 17 14  1  0
 18 17  1  0
 18 24  1  0
 18 19  1  1
 20 19  1  0
 21 20  1  0
 22 21  1  0
 23 22  1  0
 24 26  2  0
 24 25  1  0
M  END
$$$$
