MDK.pdb
     RDKit          3D

 26 25  0  0  1  0  0  0  0  0999 V2000
   27.1292  -20.9892  -10.4961 C   0  0  0  0  0  0  0  0  0  0  0  0
   25.9570  -20.3356  -11.7148 S   0  0  0  0  0  0  0  0  0  0  0  0
   25.0583  -21.6920  -12.4955 C   0  0  0  0  0  0  0  0  0  0  0  0
   24.1411  -21.1896  -13.5977 C   0  0  0  0  0  0  0  0  0  0  0  0
   23.1838  -20.1442  -13.0822 C   0  0  2  0  0  0  0  0  0  0  0  0
   22.5714  -20.6996  -11.8894 N   0  0  0  0  0  0  0  0  0  0  0  0
   22.2019  -19.7092  -14.0736 C   0  0  0  0  0  0  0  0  0  0  0  0
   22.6161  -19.3240  -15.1959 O   0  0  0  0  0  0  0  0  0  0  0  0
   20.8017  -19.6942  -13.8533 N   0  0  0  0  0  0  0  0  0  0  0  0
   19.8230  -19.2858  -14.8356 C   0  0  1  0  0  0  0  0  0  0  0  0
   18.5218  -20.0345  -14.5338 C   0  0  0  0  0  0  0  0  0  0  0  0
   18.6125  -21.4669  -14.8108 C   0  0  0  0  0  0  0  0  0  0  0  0
   18.2659  -22.4017  -14.0673 O   0  0  0  0  0  0  0  0  0  0  0  0
   19.5851  -17.8112  -14.7950 C   0  0  0  0  0  0  0  0  0  0  0  0
   19.4765  -17.1725  -13.7330 O   0  0  0  0  0  0  0  0  0  0  0  0
   19.1473  -21.8342  -16.0483 O   0  0  0  0  0  0  0  0  0  0  0  0
   19.4859  -17.1562  -16.0521 N   0  0  0  0  0  0  0  0  0  0  0  0
   19.3310  -15.7349  -16.2473 C   0  0  1  0  0  0  0  0  0  0  0  0
   19.6753  -15.4352  -17.6580 C   0  0  0  0  0  0  0  0  0  0  0  0
   19.6180  -14.0211  -18.0923 C   0  0  0  0  0  0  0  0  0  0  0  0
   19.9292  -13.7927  -19.5413 C   0  0  0  0  0  0  0  0  0  0  0  0
   19.8643  -12.2873  -19.8039 C   0  0  0  0  0  0  0  0  0  0  0  0
   20.3504  -12.0636  -21.1528 N   0  0  0  0  0  0  0  0  0  0  0  0
   18.0072  -15.2103  -15.8111 C   0  0  0  0  0  0  0  0  0  0  0  0
   17.9326  -14.0223  -15.1022 O   0  0  0  0  0  0  0  0  0  0  0  0
   16.9606  -15.8103  -16.0649 O   0  0  0  0  0  0  0  0  0  0  0  0
  2  1  1  0
  3  2  1  0
  4  3  1  0
  4  5  1  0
  5  6  1  1
  5  7  1  0
  7  8  2  0
  9  7  1  0
  9 10  1  0
 10 11  1  1
 11 12  1  0
 12 13  2  0
 14 10  1  0
 14 15  2  0
 16 12  1  0
 17 14  1  0
 18 17  1  0
 18 24  1  0
 18 19  1  6
 20 19  1  0
 21 20  1  0
 22 21  1  0
 23 22  1  0
 24 26  2  0
 24 25  1  0
M  END
$$$$
