PQH.pdb
     RDKit          3D

 27 28  0  0  1  0  0  0  0  0999 V2000
    7.6141  -14.9115   18.4060 N   0  0  0  0  0  0  0  0  0  0  0  0
    6.6714  -14.0640   17.7434 C   0  0  0  0  0  0  0  0  0  0  0  0
    6.7349  -12.7080   18.3730 C   0  0  0  0  0  0  0  0  0  0  0  0
    8.1106  -12.6667   18.9672 C   0  0  0  0  0  0  0  0  0  0  0  0
    8.6457  -14.0874   18.9692 C   0  0  1  0  0  0  0  0  0  0  0  0
    8.9737  -14.4603   20.3660 C   0  0  0  0  0  0  0  0  0  0  0  0
    9.9726  -13.9033   20.8881 O   0  0  0  0  0  0  0  0  0  0  0  0
    6.4299  -18.8177   24.3139 N   0  0  0  0  0  0  0  0  0  0  0  0
    6.2999  -18.7212   22.9022 C   0  0  0  0  0  0  0  0  0  0  0  0
    5.6472  -19.6171   22.3254 O   0  0  0  0  0  0  0  0  0  0  0  0
    6.9401  -17.5839   22.2398 C   0  0  0  0  0  0  0  0  0  0  0  0
    7.5585  -16.5656   23.1473 C   0  0  0  0  0  0  0  0  0  0  0  0
    8.6456  -15.8164   22.4863 C   0  0  2  0  0  0  0  0  0  0  0  0
    8.2577  -15.3788   21.1373 N   0  0  0  0  0  0  0  0  0  0  0  0
    9.9454  -16.5298   22.4248 C   0  0  0  0  0  0  0  0  0  0  0  0
   10.1668  -17.5758   21.7752 O   0  0  0  0  0  0  0  0  0  0  0  0
   11.0892  -16.0282   23.1513 N   0  0  0  0  0  0  0  0  0  0  0  0
   12.3073  -16.8519   23.2681 C   0  0  1  0  0  0  0  0  0  0  0  0
   13.4727  -15.9278   22.9898 C   0  0  0  0  0  0  0  0  0  0  0  0
   13.7453  -15.7260   21.5627 C   0  0  0  0  0  0  0  0  0  0  0  0
   13.0136  -16.4038   20.5757 C   0  0  0  0  0  0  0  0  0  0  0  0
   13.4591  -16.0420   19.3762 N   0  0  0  0  0  0  0  0  0  0  0  0
   14.4543  -15.1524   19.5706 C   0  0  0  0  0  0  0  0  0  0  0  0
   14.6211  -14.9668   20.8969 N   0  0  0  0  0  0  0  0  0  0  0  0
   12.4016  -17.3395   24.6747 C   0  0  0  0  0  0  0  0  0  0  0  0
   11.3574  -16.9563   25.5429 O   0  0  0  0  0  0  0  0  0  0  0  0
   13.3403  -18.0546   25.1096 O   0  0  0  0  0  0  0  0  0  0  0  0
  1  2  1  0
  3  2  1  0
  4  3  1  0
  5  4  1  0
  5  1  1  0
  5  6  1  1
  7  6  2  0
  9  8  1  0
  9 10  2  0
 11 12  1  0
 11  9  1  0
 13 12  1  6
 13 14  1  0
 14  6  1  0
 15 17  1  0
 15 13  1  0
 16 15  2  0
 18 25  1  0
 18 17  1  0
 18 19  1  1
 20 19  1  0
 21 20  2  0
 22 21  1  0
 23 22  1  0
 23 24  2  0
 24 20  1  0
 25 26  1  0
 27 25  2  0
M  END
$$$$
