PQH.pdb
     RDKit          3D

 27 28  0  0  1  0  0  0  0  0999 V2000
    7.5698  -13.5971   20.6089 N   0  0  0  0  0  0  0  0  0  0  0  0
    7.3927  -12.8397   19.4085 C   0  0  0  0  0  0  0  0  0  0  0  0
    7.9235  -13.6432   18.2631 C   0  0  0  0  0  0  0  0  0  0  0  0
    7.8435  -15.0540   18.7640 C   0  0  0  0  0  0  0  0  0  0  0  0
    7.6123  -14.9897   20.2630 C   0  0  1  0  0  0  0  0  0  0  0  0
    8.7187  -15.7105   20.9369 C   0  0  0  0  0  0  0  0  0  0  0  0
    8.8245  -16.9418   20.7063 O   0  0  0  0  0  0  0  0  0  0  0  0
   14.4660  -14.2110   21.2895 N   0  0  0  0  0  0  0  0  0  0  0  0
   13.7273  -14.9381   20.3174 C   0  0  0  0  0  0  0  0  0  0  0  0
   14.2149  -15.0166   19.1695 O   0  0  0  0  0  0  0  0  0  0  0  0
   12.4584  -15.5337   20.7380 C   0  0  0  0  0  0  0  0  0  0  0  0
   12.0516  -15.2668   22.1545 C   0  0  0  0  0  0  0  0  0  0  0  0
   10.7330  -15.8484   22.4751 C   0  0  2  0  0  0  0  0  0  0  0  0
    9.6447  -15.1238   21.8027 N   0  0  0  0  0  0  0  0  0  0  0  0
   10.4373  -15.9591   23.9251 C   0  0  0  0  0  0  0  0  0  0  0  0
   11.2926  -15.9941   24.8375 O   0  0  0  0  0  0  0  0  0  0  0  0
    9.0709  -16.0366   24.3884 N   0  0  0  0  0  0  0  0  0  0  0  0
    8.7887  -16.2169   25.8249 C   0  0  1  0  0  0  0  0  0  0  0  0
    7.3196  -15.9064   26.0111 C   0  0  0  0  0  0  0  0  0  0  0  0
    7.0006  -14.4760   25.9492 C   0  0  0  0  0  0  0  0  0  0  0  0
    8.0105  -13.5034   25.8954 C   0  0  0  0  0  0  0  0  0  0  0  0
    7.4531  -12.2972   25.8460 N   0  0  0  0  0  0  0  0  0  0  0  0
    6.1158  -12.4733   25.8668 C   0  0  0  0  0  0  0  0  0  0  0  0
    5.8505  -13.7951   25.9293 N   0  0  0  0  0  0  0  0  0  0  0  0
    9.0276  -17.6493   26.1660 C   0  0  0  0  0  0  0  0  0  0  0  0
    9.0150  -17.9780   27.5381 O   0  0  0  0  0  0  0  0  0  0  0  0
    9.2334  -18.5504   25.3131 O   0  0  0  0  0  0  0  0  0  0  0  0
  1  2  1  0
  3  2  1  0
  4  3  1  0
  5  4  1  0
  5  1  1  0
  5  6  1  1
  7  6  2  0
  9  8  1  0
  9 10  2  0
 11 12  1  0
 11  9  1  0
 13 12  1  1
 13 14  1  0
 14  6  1  0
 15 17  1  0
 15 13  1  0
 16 15  2  0
 18 25  1  0
 18 17  1  0
 18 19  1  6
 20 19  1  0
 21 20  2  0
 22 21  1  0
 23 22  1  0
 23 24  2  0
 24 20  1  0
 25 26  1  0
 27 25  2  0
M  END
$$$$
