PQH.pdb
     RDKit          3D

 27 28  0  0  1  0  0  0  0  0999 V2000
    9.6030  -14.4566   18.0924 N   0  0  0  0  0  0  0  0  0  0  0  0
    8.9950  -14.0667   16.8577 C   0  0  0  0  0  0  0  0  0  0  0  0
    7.5504  -13.7747   17.1168 C   0  0  0  0  0  0  0  0  0  0  0  0
    7.5220  -13.4394   18.5778 C   0  0  0  0  0  0  0  0  0  0  0  0
    8.8479  -13.8825   19.1697 C   0  0  1  0  0  0  0  0  0  0  0  0
    8.5727  -14.8551   20.2542 C   0  0  0  0  0  0  0  0  0  0  0  0
    7.6269  -14.5869   21.0379 O   0  0  0  0  0  0  0  0  0  0  0  0
   11.6705  -20.2714   21.1717 N   0  0  0  0  0  0  0  0  0  0  0  0
   10.5101  -20.1845   20.3562 C   0  0  0  0  0  0  0  0  0  0  0  0
   10.2968  -21.1261   19.5629 O   0  0  0  0  0  0  0  0  0  0  0  0
    9.6616  -19.0020   20.5103 C   0  0  0  0  0  0  0  0  0  0  0  0
   10.0599  -18.0521   21.5976 C   0  0  0  0  0  0  0  0  0  0  0  0
    9.1672  -16.8781   21.6671 C   0  0  2  0  0  0  0  0  0  0  0  0
    9.2835  -16.0389   20.4655 N   0  0  0  0  0  0  0  0  0  0  0  0
    9.3352  -16.0393   22.8796 C   0  0  0  0  0  0  0  0  0  0  0  0
   10.2601  -15.2185   23.0694 O   0  0  0  0  0  0  0  0  0  0  0  0
    8.3881  -16.1289   23.9671 N   0  0  0  0  0  0  0  0  0  0  0  0
    8.3895  -15.1082   25.0319 C   0  0  1  0  0  0  0  0  0  0  0  0
    6.9948  -14.5220   25.0598 C   0  0  0  0  0  0  0  0  0  0  0  0
    6.8067  -13.4800   26.0749 C   0  0  0  0  0  0  0  0  0  0  0  0
    7.8834  -12.9951   26.8330 C   0  0  0  0  0  0  0  0  0  0  0  0
    7.4416  -12.0639   27.6731 N   0  0  0  0  0  0  0  0  0  0  0  0
    6.1134  -11.9413   27.4721 C   0  0  0  0  0  0  0  0  0  0  0  0
    5.7373  -12.8021   26.5030 N   0  0  0  0  0  0  0  0  0  0  0  0
    8.6516  -15.7953   26.3297 C   0  0  0  0  0  0  0  0  0  0  0  0
    9.2453  -15.0147   27.3441 O   0  0  0  0  0  0  0  0  0  0  0  0
    8.3762  -17.0017   26.5549 O   0  0  0  0  0  0  0  0  0  0  0  0
  1  2  1  0
  3  2  1  0
  4  3  1  0
  5  4  1  0
  5  1  1  0
  5  6  1  1
  7  6  2  0
  9  8  1  0
  9 10  2  0
 11 12  1  0
 11  9  1  0
 13 12  1  6
 13 14  1  0
 14  6  1  0
 15 17  1  0
 15 13  1  0
 16 15  2  0
 18 25  1  0
 18 17  1  0
 18 19  1  1
 20 19  1  0
 21 20  2  0
 22 21  1  0
 23 22  1  0
 23 24  2  0
 24 20  1  0
 25 26  1  0
 27 25  2  0
M  END
$$$$
