PQH.pdb
     RDKit          3D

 27 28  0  0  1  0  0  0  0  0999 V2000
    8.2327  -15.0584   17.7495 N   0  0  0  0  0  0  0  0  0  0  0  0
    7.3698  -14.2235   16.9719 C   0  0  0  0  0  0  0  0  0  0  0  0
    6.9264  -13.0791   17.8280 C   0  0  0  0  0  0  0  0  0  0  0  0
    8.0073  -12.9819   18.8624 C   0  0  0  0  0  0  0  0  0  0  0  0
    8.8259  -14.2579   18.7829 C   0  0  1  0  0  0  0  0  0  0  0  0
    8.7879  -14.9198   20.1088 C   0  0  0  0  0  0  0  0  0  0  0  0
    9.3294  -14.3132   21.0677 O   0  0  0  0  0  0  0  0  0  0  0  0
    5.1920  -19.8344   22.1035 N   0  0  0  0  0  0  0  0  0  0  0  0
    5.9001  -19.4364   23.2695 C   0  0  0  0  0  0  0  0  0  0  0  0
    5.5691  -19.9701   24.3498 O   0  0  0  0  0  0  0  0  0  0  0  0
    6.9562  -18.4356   23.1112 C   0  0  0  0  0  0  0  0  0  0  0  0
    7.0316  -17.7753   21.7691 C   0  0  0  0  0  0  0  0  0  0  0  0
    8.1287  -16.7900   21.6931 C   0  0  2  0  0  0  0  0  0  0  0  0
    8.1977  -16.1593   20.3668 N   0  0  0  0  0  0  0  0  0  0  0  0
    9.4652  -17.3166   22.0654 C   0  0  0  0  0  0  0  0  0  0  0  0
   10.0421  -18.2808   21.5152 O   0  0  0  0  0  0  0  0  0  0  0  0
   10.2148  -16.7116   23.1423 N   0  0  0  0  0  0  0  0  0  0  0  0
   11.5684  -17.2015   23.4643 C   0  0  1  0  0  0  0  0  0  0  0  0
   12.4776  -15.9926   23.4259 C   0  0  0  0  0  0  0  0  0  0  0  0
   12.7759  -15.5144   22.0717 C   0  0  0  0  0  0  0  0  0  0  0  0
   12.2262  -16.1349   20.9396 C   0  0  0  0  0  0  0  0  0  0  0  0
   12.6548  -15.5094   19.8473 N   0  0  0  0  0  0  0  0  0  0  0  0
   13.4625  -14.5073   20.2510 C   0  0  0  0  0  0  0  0  0  0  0  0
   13.5303  -14.5174   21.5989 N   0  0  0  0  0  0  0  0  0  0  0  0
   11.5443  -17.7449   24.8533 C   0  0  0  0  0  0  0  0  0  0  0  0
   12.7314  -18.3572   25.3080 O   0  0  0  0  0  0  0  0  0  0  0  0
   10.5452  -17.6846   25.6148 O   0  0  0  0  0  0  0  0  0  0  0  0
  1  2  1  0
  3  2  1  0
  4  3  1  0
  5  4  1  0
  5  1  1  0
  5  6  1  1
  7  6  2  0
  9  8  1  0
  9 10  2  0
 11 12  1  0
 11  9  1  0
 13 12  1  6
 13 14  1  0
 14  6  1  0
 15 17  1  0
 15 13  1  0
 16 15  2  0
 18 25  1  0
 18 17  1  0
 18 19  1  1
 20 19  1  0
 21 20  2  0
 22 21  1  0
 23 22  1  0
 23 24  2  0
 24 20  1  0
 25 26  1  0
 27 25  2  0
M  END
$$$$
