PQH.pdb
     RDKit          3D

 27 28  0  0  1  0  0  0  0  0999 V2000
   10.1488  -18.1922   17.5439 N   0  0  0  0  0  0  0  0  0  0  0  0
    9.2579  -18.7434   16.5699 C   0  0  0  0  0  0  0  0  0  0  0  0
    8.9682  -17.6894   15.5480 C   0  0  0  0  0  0  0  0  0  0  0  0
   10.1532  -16.7764   15.6475 C   0  0  0  0  0  0  0  0  0  0  0  0
   10.8880  -17.1264   16.9290 C   0  0  1  0  0  0  0  0  0  0  0  0
   10.9499  -15.9125   17.7776 C   0  0  0  0  0  0  0  0  0  0  0  0
   11.6705  -14.9657   17.3714 O   0  0  0  0  0  0  0  0  0  0  0  0
    8.6894  -12.1953   18.2376 N   0  0  0  0  0  0  0  0  0  0  0  0
    8.0594  -13.4567   18.0613 C   0  0  0  0  0  0  0  0  0  0  0  0
    7.6595  -13.7406   16.9120 O   0  0  0  0  0  0  0  0  0  0  0  0
    7.9293  -14.3183   19.2372 C   0  0  0  0  0  0  0  0  0  0  0  0
    8.9787  -14.1442   20.2913 C   0  0  0  0  0  0  0  0  0  0  0  0
   10.3206  -14.5310   19.8118 C   0  0  2  0  0  0  0  0  0  0  0  0
   10.2698  -15.7467   18.9864 N   0  0  0  0  0  0  0  0  0  0  0  0
   11.3396  -14.6942   20.8782 C   0  0  0  0  0  0  0  0  0  0  0  0
   11.5883  -13.8588   21.7755 O   0  0  0  0  0  0  0  0  0  0  0  0
   12.1444  -15.8925   20.9424 N   0  0  0  0  0  0  0  0  0  0  0  0
   13.0601  -16.1053   22.0790 C   0  0  1  0  0  0  0  0  0  0  0  0
   12.8983  -17.5528   22.4892 C   0  0  0  0  0  0  0  0  0  0  0  0
   11.6604  -17.8282   23.2263 C   0  0  0  0  0  0  0  0  0  0  0  0
   10.8502  -16.7891   23.7088 C   0  0  0  0  0  0  0  0  0  0  0  0
    9.7990  -17.3097   24.3348 N   0  0  0  0  0  0  0  0  0  0  0  0
    9.9160  -18.6518   24.2652 C   0  0  0  0  0  0  0  0  0  0  0  0
   11.0455  -18.9571   23.5925 N   0  0  0  0  0  0  0  0  0  0  0  0
   14.4548  -15.8928   21.5943 C   0  0  0  0  0  0  0  0  0  0  0  0
   15.4832  -16.0748   22.5430 O   0  0  0  0  0  0  0  0  0  0  0  0
   14.7476  -15.5687   20.4149 O   0  0  0  0  0  0  0  0  0  0  0  0
  1  2  1  0
  3  2  1  0
  4  3  1  0
  5  4  1  0
  5  1  1  0
  5  6  1  1
  7  6  2  0
  9  8  1  0
  9 10  2  0
 11 12  1  0
 11  9  1  0
 13 12  1  1
 13 14  1  0
 14  6  1  0
 15 17  1  0
 15 13  1  0
 16 15  2  0
 18 25  1  0
 18 17  1  0
 18 19  1  6
 20 19  1  0
 21 20  2  0
 22 21  1  0
 23 22  1  0
 23 24  2  0
 24 20  1  0
 25 26  1  0
 27 25  2  0
M  END
$$$$
