PQH.pdb
     RDKit          3D

 27 28  0  0  1  0  0  0  0  0999 V2000
    9.5413  -14.3853   18.3480 N   0  0  0  0  0  0  0  0  0  0  0  0
    8.8220  -13.8644   17.2267 C   0  0  0  0  0  0  0  0  0  0  0  0
    7.4920  -13.3754   17.7074 C   0  0  0  0  0  0  0  0  0  0  0  0
    7.7312  -13.0953   19.1607 C   0  0  0  0  0  0  0  0  0  0  0  0
    9.0489  -13.7487   19.5367 C   0  0  1  0  0  0  0  0  0  0  0  0
    8.7954  -14.7114   20.6351 C   0  0  0  0  0  0  0  0  0  0  0  0
    8.1054  -14.3056   21.6046 O   0  0  0  0  0  0  0  0  0  0  0  0
    8.4579  -20.5339   18.6053 N   0  0  0  0  0  0  0  0  0  0  0  0
    8.9020  -20.2170   19.9174 C   0  0  0  0  0  0  0  0  0  0  0  0
    9.5859  -21.0766   20.5129 O   0  0  0  0  0  0  0  0  0  0  0  0
    8.5225  -18.9134   20.4638 C   0  0  0  0  0  0  0  0  0  0  0  0
    9.4734  -18.3226   21.4587 C   0  0  0  0  0  0  0  0  0  0  0  0
    9.1161  -16.9352   21.8159 C   0  0  2  0  0  0  0  0  0  0  0  0
    9.2645  -16.0267   20.6695 N   0  0  0  0  0  0  0  0  0  0  0  0
    9.8459  -16.3859   22.9855 C   0  0  0  0  0  0  0  0  0  0  0  0
   10.9551  -15.8091   22.9407 O   0  0  0  0  0  0  0  0  0  0  0  0
    9.2848  -16.4927   24.3127 N   0  0  0  0  0  0  0  0  0  0  0  0
   10.0387  -15.9855   25.4746 C   0  0  1  0  0  0  0  0  0  0  0  0
    9.0303  -15.2937   26.3658 C   0  0  0  0  0  0  0  0  0  0  0  0
    9.5636  -14.8982   27.6737 C   0  0  0  0  0  0  0  0  0  0  0  0
   10.9082  -15.1154   28.0110 C   0  0  0  0  0  0  0  0  0  0  0  0
   11.1270  -14.6677   29.2437 N   0  0  0  0  0  0  0  0  0  0  0  0
    9.9596  -14.1711   29.7022 C   0  0  0  0  0  0  0  0  0  0  0  0
    9.0185  -14.3146   28.7456 N   0  0  0  0  0  0  0  0  0  0  0  0
   10.6058  -17.1567   26.2040 C   0  0  0  0  0  0  0  0  0  0  0  0
   11.6580  -16.8857   27.1041 O   0  0  0  0  0  0  0  0  0  0  0  0
   10.2018  -18.3387   26.0581 O   0  0  0  0  0  0  0  0  0  0  0  0
  1  2  1  0
  3  2  1  0
  4  3  1  0
  5  4  1  0
  5  1  1  0
  5  6  1  1
  7  6  2  0
  9  8  1  0
  9 10  2  0
 11 12  1  0
 11  9  1  0
 13 12  1  6
 13 14  1  0
 14  6  1  0
 15 17  1  0
 15 13  1  0
 16 15  2  0
 18 25  1  0
 18 17  1  0
 18 19  1  1
 20 19  1  0
 21 20  2  0
 22 21  1  0
 23 22  1  0
 23 24  2  0
 24 20  1  0
 25 26  1  0
 27 25  2  0
M  END
$$$$
