PQH.pdb
     RDKit          3D

 27 28  0  0  1  0  0  0  0  0999 V2000
    7.9684  -15.0010   18.5662 N   0  0  0  0  0  0  0  0  0  0  0  0
    7.1027  -14.1110   17.8558 C   0  0  0  0  0  0  0  0  0  0  0  0
    6.7066  -13.0030   18.7802 C   0  0  0  0  0  0  0  0  0  0  0  0
    7.8166  -12.9796   19.7876 C   0  0  0  0  0  0  0  0  0  0  0  0
    8.6058  -14.2658   19.6214 C   0  0  1  0  0  0  0  0  0  0  0  0
    8.5895  -14.9932   20.9130 C   0  0  0  0  0  0  0  0  0  0  0  0
    9.1868  -14.4565   21.8804 O   0  0  0  0  0  0  0  0  0  0  0  0
    5.3296  -20.2823   22.5490 N   0  0  0  0  0  0  0  0  0  0  0  0
    5.9878  -19.9150   23.7536 C   0  0  0  0  0  0  0  0  0  0  0  0
    5.7545  -20.6078   24.7670 O   0  0  0  0  0  0  0  0  0  0  0  0
    6.8825  -18.7575   23.7101 C   0  0  0  0  0  0  0  0  0  0  0  0
    6.9049  -18.0001   22.4183 C   0  0  0  0  0  0  0  0  0  0  0  0
    7.8978  -16.9074   22.4296 C   0  0  2  0  0  0  0  0  0  0  0  0
    7.9625  -16.2224   21.1303 N   0  0  0  0  0  0  0  0  0  0  0  0
    9.2628  -17.3109   22.8494 C   0  0  0  0  0  0  0  0  0  0  0  0
   10.0535  -18.0035   22.1710 O   0  0  0  0  0  0  0  0  0  0  0  0
    9.7822  -16.9038   24.1347 N   0  0  0  0  0  0  0  0  0  0  0  0
   11.0984  -17.3931   24.5865 C   0  0  1  0  0  0  0  0  0  0  0  0
   12.0378  -16.2089   24.5180 C   0  0  0  0  0  0  0  0  0  0  0  0
   12.5936  -15.9659   23.1825 C   0  0  0  0  0  0  0  0  0  0  0  0
   12.2015  -16.7351   22.0764 C   0  0  0  0  0  0  0  0  0  0  0  0
   12.8512  -16.3105   20.9968 N   0  0  0  0  0  0  0  0  0  0  0  0
   13.6468  -15.2920   21.3833 C   0  0  0  0  0  0  0  0  0  0  0  0
   13.4847  -15.0899   22.7078 N   0  0  0  0  0  0  0  0  0  0  0  0
   10.9671  -17.8251   26.0082 C   0  0  0  0  0  0  0  0  0  0  0  0
    9.6902  -17.6834   26.5916 O   0  0  0  0  0  0  0  0  0  0  0  0
   11.9132  -18.2955   26.6904 O   0  0  0  0  0  0  0  0  0  0  0  0
  1  2  1  0
  3  2  1  0
  4  3  1  0
  5  4  1  0
  5  1  1  0
  5  6  1  1
  7  6  2  0
  9  8  1  0
  9 10  2  0
 11 12  1  0
 11  9  1  0
 13 12  1  6
 13 14  1  0
 14  6  1  0
 15 17  1  0
 15 13  1  0
 16 15  2  0
 18 25  1  0
 18 17  1  0
 18 19  1  1
 20 19  1  0
 21 20  2  0
 22 21  1  0
 23 22  1  0
 23 24  2  0
 24 20  1  0
 25 26  1  0
 27 25  2  0
M  END
$$$$
