PQH.pdb
     RDKit          3D

 27 28  0  0  1  0  0  0  0  0999 V2000
    8.2253  -14.1221   17.9559 N   0  0  0  0  0  0  0  0  0  0  0  0
    7.0602  -13.6973   18.6688 C   0  0  0  0  0  0  0  0  0  0  0  0
    7.4906  -13.1714   20.0020 C   0  0  0  0  0  0  0  0  0  0  0  0
    8.9169  -12.7709   19.7715 C   0  0  0  0  0  0  0  0  0  0  0  0
    9.3538  -13.3893   18.4558 C   0  0  1  0  0  0  0  0  0  0  0  0
   10.5271  -14.2573   18.7152 C   0  0  0  0  0  0  0  0  0  0  0  0
   10.3154  -15.3435   19.3120 O   0  0  0  0  0  0  0  0  0  0  0  0
   16.2179  -14.4223   15.8765 N   0  0  0  0  0  0  0  0  0  0  0  0
   16.4206  -15.2532   17.0113 C   0  0  0  0  0  0  0  0  0  0  0  0
   17.5327  -15.8127   17.1191 O   0  0  0  0  0  0  0  0  0  0  0  0
   15.3131  -15.3868   17.9587 C   0  0  0  0  0  0  0  0  0  0  0  0
   14.1087  -14.5429   17.6755 C   0  0  0  0  0  0  0  0  0  0  0  0
   12.9988  -14.8244   18.6077 C   0  0  2  0  0  0  0  0  0  0  0  0
   11.8407  -13.9571   18.3467 N   0  0  0  0  0  0  0  0  0  0  0  0
   13.3604  -14.7547   20.0453 C   0  0  0  0  0  0  0  0  0  0  0  0
   13.5861  -13.7033   20.6846 O   0  0  0  0  0  0  0  0  0  0  0  0
   13.4780  -15.9631   20.8286 N   0  0  0  0  0  0  0  0  0  0  0  0
   13.8638  -15.8855   22.2502 C   0  0  1  0  0  0  0  0  0  0  0  0
   13.2891  -17.1180   22.9138 C   0  0  0  0  0  0  0  0  0  0  0  0
   11.8504  -17.0318   23.1862 C   0  0  0  0  0  0  0  0  0  0  0  0
   11.1244  -15.8614   22.9181 C   0  0  0  0  0  0  0  0  0  0  0  0
    9.8519  -16.0502   23.2545 N   0  0  0  0  0  0  0  0  0  0  0  0
    9.7459  -17.3082   23.7296 C   0  0  0  0  0  0  0  0  0  0  0  0
   10.9603  -17.8954   23.6848 N   0  0  0  0  0  0  0  0  0  0  0  0
   15.3523  -15.9433   22.3284 C   0  0  0  0  0  0  0  0  0  0  0  0
   15.9175  -15.8352   23.6167 O   0  0  0  0  0  0  0  0  0  0  0  0
   16.1042  -16.0798   21.3295 O   0  0  0  0  0  0  0  0  0  0  0  0
  1  2  1  0
  3  2  1  0
  4  3  1  0
  5  4  1  0
  5  1  1  0
  5  6  1  1
  7  6  2  0
  9  8  1  0
  9 10  2  0
 11 12  1  0
 11  9  1  0
 13 12  1  6
 13 14  1  0
 14  6  1  0
 15 17  1  0
 15 13  1  0
 16 15  2  0
 18 25  1  0
 18 17  1  0
 18 19  1  1
 20 19  1  0
 21 20  2  0
 22 21  1  0
 23 22  1  0
 23 24  2  0
 24 20  1  0
 25 26  1  0
 27 25  2  0
M  END
$$$$
