PQH.pdb
     RDKit          3D

 27 28  0  0  1  0  0  0  0  0999 V2000
   10.9549  -16.9530   20.0466 N   0  0  0  0  0  0  0  0  0  0  0  0
   10.7950  -17.1482   18.6386 C   0  0  0  0  0  0  0  0  0  0  0  0
    9.3827  -17.5697   18.3799 C   0  0  0  0  0  0  0  0  0  0  0  0
    8.6390  -17.0334   19.5660 C   0  0  0  0  0  0  0  0  0  0  0  0
    9.6709  -16.6442   20.6092 C   0  0  1  0  0  0  0  0  0  0  0  0
    9.3930  -17.4092   21.8482 C   0  0  0  0  0  0  0  0  0  0  0  0
    8.2606  -17.2580   22.3730 O   0  0  0  0  0  0  0  0  0  0  0  0
   10.8733  -23.0714   22.4036 N   0  0  0  0  0  0  0  0  0  0  0  0
    9.5059  -22.6846   22.4059 C   0  0  0  0  0  0  0  0  0  0  0  0
    8.6785  -23.5058   21.9561 O   0  0  0  0  0  0  0  0  0  0  0  0
    9.1786  -21.3590   22.9326 C   0  0  0  0  0  0  0  0  0  0  0  0
   10.3422  -20.5347   23.3904 C   0  0  0  0  0  0  0  0  0  0  0  0
    9.9690  -19.1259   23.6270 C   0  0  2  0  0  0  0  0  0  0  0  0
   10.2922  -18.2794   22.4691 N   0  0  0  0  0  0  0  0  0  0  0  0
   10.5432  -18.5280   24.8578 C   0  0  0  0  0  0  0  0  0  0  0  0
   10.5243  -19.0520   25.9937 O   0  0  0  0  0  0  0  0  0  0  0  0
   11.1912  -17.2375   24.8095 N   0  0  0  0  0  0  0  0  0  0  0  0
   11.4035  -16.4723   26.0526 C   0  0  1  0  0  0  0  0  0  0  0  0
   10.1452  -15.6612   26.2719 C   0  0  0  0  0  0  0  0  0  0  0  0
   10.1335  -14.9084   27.5308 C   0  0  0  0  0  0  0  0  0  0  0  0
   10.6952  -15.4362   28.7034 C   0  0  0  0  0  0  0  0  0  0  0  0
   10.5514  -14.5571   29.6906 N   0  0  0  0  0  0  0  0  0  0  0  0
    9.9138  -13.4834   29.1805 C   0  0  0  0  0  0  0  0  0  0  0  0
    9.6645  -13.7043   27.8726 N   0  0  0  0  0  0  0  0  0  0  0  0
   11.5537  -17.4451   27.1735 C   0  0  0  0  0  0  0  0  0  0  0  0
   12.4979  -17.1147   28.1685 O   0  0  0  0  0  0  0  0  0  0  0  0
   10.8976  -18.5137   27.2698 O   0  0  0  0  0  0  0  0  0  0  0  0
  1  2  1  0
  3  2  1  0
  4  3  1  0
  5  4  1  0
  5  1  1  0
  5  6  1  1
  7  6  2  0
  9  8  1  0
  9 10  2  0
 11 12  1  0
 11  9  1  0
 13 12  1  6
 13 14  1  0
 14  6  1  0
 15 17  1  0
 15 13  1  0
 16 15  2  0
 18 25  1  0
 18 17  1  0
 18 19  1  1
 20 19  1  0
 21 20  2  0
 22 21  1  0
 23 22  1  0
 23 24  2  0
 24 20  1  0
 25 26  1  0
 27 25  2  0
M  END
$$$$
