PQH.pdb
     RDKit          3D

 27 28  0  0  1  0  0  0  0  0999 V2000
    8.3095  -14.6108   17.7789 N   0  0  0  0  0  0  0  0  0  0  0  0
    7.7679  -13.4425   17.1561 C   0  0  0  0  0  0  0  0  0  0  0  0
    7.4515  -12.4440   18.2247 C   0  0  0  0  0  0  0  0  0  0  0  0
    8.3611  -12.8404   19.3486 C   0  0  0  0  0  0  0  0  0  0  0  0
    8.8958  -14.2253   19.0311 C   0  0  1  0  0  0  0  0  0  0  0  0
    8.5212  -15.1354   20.1397 C   0  0  0  0  0  0  0  0  0  0  0  0
    7.2962  -15.2486   20.3989 O   0  0  0  0  0  0  0  0  0  0  0  0
    8.2502  -20.8616   21.4054 N   0  0  0  0  0  0  0  0  0  0  0  0
    7.5697  -19.9733   20.5296 C   0  0  0  0  0  0  0  0  0  0  0  0
    6.6352  -20.4463   19.8480 O   0  0  0  0  0  0  0  0  0  0  0  0
    8.0178  -18.5805   20.4961 C   0  0  0  0  0  0  0  0  0  0  0  0
    9.1424  -18.2359   21.4231 C   0  0  0  0  0  0  0  0  0  0  0  0
    9.0410  -16.8542   21.9336 C   0  0  2  0  0  0  0  0  0  0  0  0
    9.4249  -15.8705   20.9106 N   0  0  0  0  0  0  0  0  0  0  0  0
    9.7977  -16.5952   23.1836 C   0  0  0  0  0  0  0  0  0  0  0  0
   11.0126  -16.8378   23.3575 O   0  0  0  0  0  0  0  0  0  0  0  0
    9.1371  -16.0169   24.3311 N   0  0  0  0  0  0  0  0  0  0  0  0
    9.9047  -15.7341   25.5586 C   0  0  1  0  0  0  0  0  0  0  0  0
    8.9883  -14.9323   26.4569 C   0  0  0  0  0  0  0  0  0  0  0  0
    9.5414  -14.6695   27.7899 C   0  0  0  0  0  0  0  0  0  0  0  0
   10.8226  -15.1139   28.1504 C   0  0  0  0  0  0  0  0  0  0  0  0
   11.0761  -14.7458   29.4027 N   0  0  0  0  0  0  0  0  0  0  0  0
    9.9925  -14.0792   29.8510 C   0  0  0  0  0  0  0  0  0  0  0  0
    9.0682  -14.0375   28.8685 N   0  0  0  0  0  0  0  0  0  0  0  0
   10.2136  -17.0350   26.2198 C   0  0  0  0  0  0  0  0  0  0  0  0
    9.2722  -18.0702   26.0383 O   0  0  0  0  0  0  0  0  0  0  0  0
   11.2432  -17.2457   26.9108 O   0  0  0  0  0  0  0  0  0  0  0  0
  1  2  1  0
  3  2  1  0
  4  3  1  0
  5  4  1  0
  5  1  1  0
  5  6  1  1
  7  6  2  0
  9  8  1  0
  9 10  2  0
 11 12  1  0
 11  9  1  0
 13 12  1  6
 13 14  1  0
 14  6  1  0
 15 17  1  0
 15 13  1  0
 16 15  2  0
 18 25  1  0
 18 17  1  0
 18 19  1  1
 20 19  1  0
 21 20  2  0
 22 21  1  0
 23 22  1  0
 23 24  2  0
 24 20  1  0
 25 26  1  0
 27 25  2  0
M  END
$$$$
