NNG.pdb
     RDKit          3D

 21 20  0  0  1  0  0  0  0  0999 V2000
    5.7967  -18.1311   12.3081 N   0  0  0  0  0  0  0  0  0  0  0  0
    5.2872  -19.1407   13.1587 C   0  0  0  0  0  0  0  0  0  0  0  0
    5.1936  -20.3103   12.6507 O   0  0  0  0  0  0  0  0  0  0  0  0
    4.8688  -18.9373   14.5508 C   0  0  0  0  0  0  0  0  0  0  0  0
    5.9049  -19.5204   15.4812 C   0  0  2  0  0  0  0  0  0  0  0  0
    6.2752  -20.8618   15.1254 N   0  0  0  0  0  0  0  0  0  0  0  0
    5.3890  -19.5355   16.8903 C   0  0  0  0  0  0  0  0  0  0  0  0
    5.1489  -18.4646   17.4969 O   0  0  0  0  0  0  0  0  0  0  0  0
    1.7461  -21.2963   17.2803 N   0  0  0  0  0  0  0  0  0  0  0  0
    2.2961  -20.8133   18.4986 C   0  0  0  0  0  0  0  0  0  0  0  0
    1.7629  -19.7874   18.9888 O   0  0  0  0  0  0  0  0  0  0  0  0
    3.4172  -21.4505   19.1676 C   0  0  0  0  0  0  0  0  0  0  0  0
    4.7719  -20.9093   18.9203 C   0  0  2  0  0  0  0  0  0  0  0  0
    5.1666  -20.7675   17.5502 N   0  0  0  0  0  0  0  0  0  0  0  0
    5.8349  -21.4259   19.8246 C   0  0  0  0  0  0  0  0  0  0  0  0
    5.9405  -22.6742   19.9194 O   0  0  0  0  0  0  0  0  0  0  0  0
    6.7180  -20.6274   20.5780 N   0  0  0  0  0  0  0  0  0  0  0  0
    7.7915  -21.2391   21.3796 C   0  0  0  0  0  0  0  0  0  0  0  0
    9.1093  -20.7933   20.9480 C   0  0  0  0  0  0  0  0  0  0  0  0
    9.6639  -21.3301   19.9693 O   0  0  0  0  0  0  0  0  0  0  0  0
    9.7666  -19.7749   21.6086 O   0  0  0  0  0  0  0  0  0  0  0  0
  2  3  2  0
  2  1  1  0
  4  2  1  0
  5  6  1  6
  5  4  1  0
  7  5  1  0
  7  8  2  0
  9 10  1  0
 10 12  1  0
 11 10  2  0
 13 12  1  6
 13 14  1  0
 13 15  1  0
 14  7  1  0
 15 16  2  0
 15 17  1  0
 17 18  1  0
 19 21  1  0
 19 18  1  0
 20 19  2  0
M  END
$$$$
