NNG.pdb
     RDKit          3D

 21 20  0  0  1  0  0  0  0  0999 V2000
    4.5544  -19.9851   15.1074 N   0  0  0  0  0  0  0  0  0  0  0  0
    5.1628  -19.3386   16.2094 C   0  0  0  0  0  0  0  0  0  0  0  0
    6.3085  -18.8145   15.9921 O   0  0  0  0  0  0  0  0  0  0  0  0
    4.5789  -19.2342   17.5520 C   0  0  0  0  0  0  0  0  0  0  0  0
    5.6505  -19.4671   18.5897 C   0  0  2  0  0  0  0  0  0  0  0  0
    6.2749  -20.7540   18.4604 N   0  0  0  0  0  0  0  0  0  0  0  0
    5.0692  -19.3653   19.9694 C   0  0  0  0  0  0  0  0  0  0  0  0
    4.4354  -18.3433   20.3247 O   0  0  0  0  0  0  0  0  0  0  0  0
    2.6350  -22.9977   21.0222 N   0  0  0  0  0  0  0  0  0  0  0  0
    2.7351  -21.7754   21.7404 C   0  0  0  0  0  0  0  0  0  0  0  0
    1.8150  -20.9400   21.5598 O   0  0  0  0  0  0  0  0  0  0  0  0
    3.8324  -21.4770   22.6444 C   0  0  0  0  0  0  0  0  0  0  0  0
    4.7890  -20.4194   22.2496 C   0  0  2  0  0  0  0  0  0  0  0  0
    5.2321  -20.4303   20.8871 N   0  0  0  0  0  0  0  0  0  0  0  0
    5.8518  -20.1222   23.2480 C   0  0  0  0  0  0  0  0  0  0  0  0
    5.4940  -20.0436   24.4497 O   0  0  0  0  0  0  0  0  0  0  0  0
    7.2133  -19.9193   22.9477 N   0  0  0  0  0  0  0  0  0  0  0  0
    8.1898  -19.6485   24.0164 C   0  0  0  0  0  0  0  0  0  0  0  0
    9.1367  -20.7441   24.1736 C   0  0  0  0  0  0  0  0  0  0  0  0
    9.0335  -21.7684   23.4710 O   0  0  0  0  0  0  0  0  0  0  0  0
   10.1603  -20.6717   25.0970 O   0  0  0  0  0  0  0  0  0  0  0  0
  2  3  2  0
  2  1  1  0
  4  2  1  0
  5  6  1  6
  5  4  1  0
  7  5  1  0
  7  8  2  0
  9 10  1  0
 10 12  1  0
 11 10  2  0
 13 12  1  1
 13 14  1  0
 13 15  1  0
 14  7  1  0
 15 16  2  0
 15 17  1  0
 17 18  1  0
 19 21  1  0
 19 18  1  0
 20 19  2  0
M  END
$$$$
