NNG.pdb
     RDKit          3D

 21 20  0  0  1  0  0  0  0  0999 V2000
    6.9413  -12.3384   17.5916 N   0  0  0  0  0  0  0  0  0  0  0  0
    7.6102  -13.5779   17.7264 C   0  0  0  0  0  0  0  0  0  0  0  0
    7.9468  -14.1573   16.6375 O   0  0  0  0  0  0  0  0  0  0  0  0
    7.9338  -14.2258   19.0031 C   0  0  0  0  0  0  0  0  0  0  0  0
    9.3183  -13.8147   19.4430 C   0  0  2  0  0  0  0  0  0  0  0  0
   10.3363  -14.2182   18.5136 N   0  0  0  0  0  0  0  0  0  0  0  0
    9.6395  -14.4167   20.7795 C   0  0  0  0  0  0  0  0  0  0  0  0
    8.7765  -14.4588   21.6882 O   0  0  0  0  0  0  0  0  0  0  0  0
   10.9920  -16.9171   25.2397 N   0  0  0  0  0  0  0  0  0  0  0  0
   10.6485  -17.3649   23.9354 C   0  0  0  0  0  0  0  0  0  0  0  0
   10.7001  -18.6034   23.7341 O   0  0  0  0  0  0  0  0  0  0  0  0
   10.2538  -16.4621   22.8678 C   0  0  0  0  0  0  0  0  0  0  0  0
   11.3112  -15.6685   22.2035 C   0  0  2  0  0  0  0  0  0  0  0  0
   10.9284  -14.9464   21.0265 N   0  0  0  0  0  0  0  0  0  0  0  0
   12.6426  -16.3285   22.1240 C   0  0  0  0  0  0  0  0  0  0  0  0
   12.7583  -17.2734   21.3041 O   0  0  0  0  0  0  0  0  0  0  0  0
   13.7686  -15.9795   22.8956 N   0  0  0  0  0  0  0  0  0  0  0  0
   14.9752  -15.4221   22.2610 C   0  0  0  0  0  0  0  0  0  0  0  0
   15.9628  -15.0079   23.2482 C   0  0  0  0  0  0  0  0  0  0  0  0
   15.6890  -15.0450   24.4636 O   0  0  0  0  0  0  0  0  0  0  0  0
   17.2132  -14.5689   22.8615 O   0  0  0  0  0  0  0  0  0  0  0  0
  2  3  2  0
  2  1  1  0
  4  2  1  0
  5  6  1  6
  5  4  1  0
  7  5  1  0
  7  8  2  0
  9 10  1  0
 10 12  1  0
 11 10  2  0
 13 12  1  6
 13 14  1  0
 13 15  1  0
 14  7  1  0
 15 16  2  0
 15 17  1  0
 17 18  1  0
 19 21  1  0
 19 18  1  0
 20 19  2  0
M  END
$$$$
