NNG.pdb
     RDKit          3D

 21 20  0  0  1  0  0  0  0  0999 V2000
   15.1384  -16.4193   15.6561 N   0  0  0  0  0  0  0  0  0  0  0  0
   14.7810  -17.1400   16.8202 C   0  0  0  0  0  0  0  0  0  0  0  0
   15.0759  -18.3841   16.8246 O   0  0  0  0  0  0  0  0  0  0  0  0
   14.1099  -16.5667   17.9929 C   0  0  0  0  0  0  0  0  0  0  0  0
   13.7869  -15.1152   17.7322 C   0  0  2  0  0  0  0  0  0  0  0  0
   14.9389  -14.2643   17.8405 N   0  0  0  0  0  0  0  0  0  0  0  0
   12.7530  -14.6295   18.7054 C   0  0  0  0  0  0  0  0  0  0  0  0
   13.0679  -14.3390   19.8839 O   0  0  0  0  0  0  0  0  0  0  0  0
    7.8159  -12.0435   19.9990 N   0  0  0  0  0  0  0  0  0  0  0  0
    7.9506  -13.2657   19.2863 C   0  0  0  0  0  0  0  0  0  0  0  0
    7.0074  -14.0876   19.3958 O   0  0  0  0  0  0  0  0  0  0  0  0
    9.1073  -13.5787   18.4649 C   0  0  0  0  0  0  0  0  0  0  0  0
   10.3265  -14.0728   19.1423 C   0  0  2  0  0  0  0  0  0  0  0  0
   11.4047  -14.4935   18.2976 N   0  0  0  0  0  0  0  0  0  0  0  0
   10.0851  -14.9436   20.3247 C   0  0  0  0  0  0  0  0  0  0  0  0
    9.2668  -14.5231   21.1802 O   0  0  0  0  0  0  0  0  0  0  0  0
   10.7037  -16.1882   20.5554 N   0  0  0  0  0  0  0  0  0  0  0  0
   10.3731  -16.9858   21.7487 C   0  0  0  0  0  0  0  0  0  0  0  0
   11.4432  -16.9499   22.7362 C   0  0  0  0  0  0  0  0  0  0  0  0
   12.6092  -17.2448   22.4090 O   0  0  0  0  0  0  0  0  0  0  0  0
   11.1906  -16.5914   24.0451 O   0  0  0  0  0  0  0  0  0  0  0  0
  2  3  2  0
  2  1  1  0
  4  2  1  0
  5  6  1  1
  5  4  1  0
  7  5  1  0
  7  8  2  0
  9 10  1  0
 10 12  1  0
 11 10  2  0
 13 12  1  6
 13 14  1  0
 13 15  1  0
 14  7  1  0
 15 16  2  0
 15 17  1  0
 17 18  1  0
 19 21  1  0
 19 18  1  0
 20 19  2  0
M  END
$$$$
