NNG.pdb
     RDKit          3D

 21 20  0  0  1  0  0  0  0  0999 V2000
   10.4985  -19.0140   17.5980 N   0  0  0  0  0  0  0  0  0  0  0  0
    9.7318  -19.1319   18.7815 C   0  0  0  0  0  0  0  0  0  0  0  0
    8.8671  -20.0736   18.8004 O   0  0  0  0  0  0  0  0  0  0  0  0
    9.8609  -18.2647   19.9586 C   0  0  0  0  0  0  0  0  0  0  0  0
   10.9205  -17.2198   19.7040 C   0  0  2  0  0  0  0  0  0  0  0  0
   12.2386  -17.7817   19.6050 N   0  0  0  0  0  0  0  0  0  0  0  0
   10.9262  -16.2048   20.8092 C   0  0  0  0  0  0  0  0  0  0  0  0
    9.9433  -15.4473   20.9895 O   0  0  0  0  0  0  0  0  0  0  0  0
   11.2000  -17.1584   26.2811 N   0  0  0  0  0  0  0  0  0  0  0  0
   10.7689  -16.3030   25.2313 C   0  0  0  0  0  0  0  0  0  0  0  0
   10.2041  -15.2345   25.5725 O   0  0  0  0  0  0  0  0  0  0  0  0
   10.9568  -16.6192   23.8259 C   0  0  0  0  0  0  0  0  0  0  0  0
   11.9896  -15.8691   23.0776 C   0  0  2  0  0  0  0  0  0  0  0  0
   12.0488  -16.0942   21.6638 N   0  0  0  0  0  0  0  0  0  0  0  0
   13.3141  -15.7738   23.7493 C   0  0  0  0  0  0  0  0  0  0  0  0
   13.3203  -15.8535   25.0031 O   0  0  0  0  0  0  0  0  0  0  0  0
   14.5470  -15.5971   23.0907 N   0  0  0  0  0  0  0  0  0  0  0  0
   15.6943  -16.4711   23.3893 C   0  0  0  0  0  0  0  0  0  0  0  0
   16.4447  -16.0015   24.5460 C   0  0  0  0  0  0  0  0  0  0  0  0
   17.2506  -15.0578   24.4302 O   0  0  0  0  0  0  0  0  0  0  0  0
   16.2805  -16.5873   25.7851 O   0  0  0  0  0  0  0  0  0  0  0  0
  2  3  2  0
  2  1  1  0
  4  2  1  0
  5  6  1  1
  5  4  1  0
  7  5  1  0
  7  8  2  0
  9 10  1  0
 10 12  1  0
 11 10  2  0
 13 12  1  1
 13 14  1  0
 13 15  1  0
 14  7  1  0
 15 16  2  0
 15 17  1  0
 17 18  1  0
 19 21  1  0
 19 18  1  0
 20 19  2  0
M  END
$$$$
