NNG.pdb
     RDKit          3D

 21 20  0  0  1  0  0  0  0  0999 V2000
    7.0412  -13.2549   16.4552 N   0  0  0  0  0  0  0  0  0  0  0  0
    8.0370  -13.7262   17.3432 C   0  0  0  0  0  0  0  0  0  0  0  0
    8.8337  -14.6109   16.8771 O   0  0  0  0  0  0  0  0  0  0  0  0
    8.2098  -13.2772   18.7299 C   0  0  0  0  0  0  0  0  0  0  0  0
    8.4444  -14.4713   19.6233 C   0  0  2  0  0  0  0  0  0  0  0  0
    7.3806  -15.4336   19.5509 N   0  0  0  0  0  0  0  0  0  0  0  0
    8.5826  -14.0330   21.0518 C   0  0  0  0  0  0  0  0  0  0  0  0
    9.4971  -13.2470   21.3960 O   0  0  0  0  0  0  0  0  0  0  0  0
    6.6468  -12.1751   25.8699 N   0  0  0  0  0  0  0  0  0  0  0  0
    6.4194  -13.5215   25.4756 C   0  0  0  0  0  0  0  0  0  0  0  0
    6.2203  -14.3513   26.3969 O   0  0  0  0  0  0  0  0  0  0  0  0
    6.4112  -13.9482   24.0870 C   0  0  0  0  0  0  0  0  0  0  0  0
    7.7139  -14.1706   23.4215 C   0  0  2  0  0  0  0  0  0  0  0  0
    7.6747  -14.5059   22.0289 N   0  0  0  0  0  0  0  0  0  0  0  0
    8.7097  -14.9368   24.2190 C   0  0  0  0  0  0  0  0  0  0  0  0
    8.8868  -14.5697   25.4073 O   0  0  0  0  0  0  0  0  0  0  0  0
    9.4639  -16.0276   23.7432 N   0  0  0  0  0  0  0  0  0  0  0  0
   10.4515  -16.6965   24.6072 C   0  0  0  0  0  0  0  0  0  0  0  0
   11.7552  -16.7915   23.9648 C   0  0  0  0  0  0  0  0  0  0  0  0
   12.7956  -16.6083   24.6262 O   0  0  0  0  0  0  0  0  0  0  0  0
   11.8651  -17.0842   22.6202 O   0  0  0  0  0  0  0  0  0  0  0  0
  2  3  2  0
  2  1  1  0
  4  2  1  0
  5  6  1  1
  5  4  1  0
  7  5  1  0
  7  8  2  0
  9 10  1  0
 10 12  1  0
 11 10  2  0
 13 12  1  1
 13 14  1  0
 13 15  1  0
 14  7  1  0
 15 16  2  0
 15 17  1  0
 17 18  1  0
 19 21  1  0
 19 18  1  0
 20 19  2  0
M  END
$$$$
