NNG.pdb
     RDKit          3D

 21 20  0  0  1  0  0  0  0  0999 V2000
   10.5033  -24.9712   27.4263 N   0  0  0  0  0  0  0  0  0  0  0  0
   11.6737  -24.1957   27.6026 C   0  0  0  0  0  0  0  0  0  0  0  0
   12.4266  -24.0718   26.5767 O   0  0  0  0  0  0  0  0  0  0  0  0
   12.0698  -23.5415   28.8554 C   0  0  0  0  0  0  0  0  0  0  0  0
   10.8884  -22.8026   29.4364 C   0  0  2  0  0  0  0  0  0  0  0  0
   10.0766  -22.1787   28.4290 N   0  0  0  0  0  0  0  0  0  0  0  0
   11.3561  -21.7386   30.3857 C   0  0  0  0  0  0  0  0  0  0  0  0
   10.6037  -20.7874   30.7043 O   0  0  0  0  0  0  0  0  0  0  0  0
   15.3445  -22.9126   33.8591 N   0  0  0  0  0  0  0  0  0  0  0  0
   14.0107  -22.7230   33.4064 C   0  0  0  0  0  0  0  0  0  0  0  0
   13.3597  -23.7593   33.1245 O   0  0  0  0  0  0  0  0  0  0  0  0
   13.4022  -21.4114   33.2659 C   0  0  0  0  0  0  0  0  0  0  0  0
   13.1928  -20.8861   31.8986 C   0  0  2  0  0  0  0  0  0  0  0  0
   12.6594  -21.8014   30.9337 N   0  0  0  0  0  0  0  0  0  0  0  0
   14.2755  -20.0025   31.3870 C   0  0  0  0  0  0  0  0  0  0  0  0
   14.6662  -19.0851   32.1511 O   0  0  0  0  0  0  0  0  0  0  0  0
   14.8839  -20.1144   30.1212 N   0  0  0  0  0  0  0  0  0  0  0  0
   15.9674  -19.2005   29.7210 C   0  0  0  0  0  0  0  0  0  0  0  0
   17.1273  -19.9245   29.2189 C   0  0  0  0  0  0  0  0  0  0  0  0
   17.1412  -21.1708   29.2276 O   0  0  0  0  0  0  0  0  0  0  0  0
   18.2270  -19.2508   28.7267 O   0  0  0  0  0  0  0  0  0  0  0  0
  2  3  2  0
  2  1  1  0
  4  2  1  0
  5  6  1  6
  5  4  1  0
  7  5  1  0
  7  8  2  0
  9 10  1  0
 10 12  1  0
 11 10  2  0
 13 12  1  1
 13 14  1  0
 13 15  1  0
 14  7  1  0
 15 16  2  0
 15 17  1  0
 17 18  1  0
 19 21  1  0
 19 18  1  0
 20 19  2  0
M  END
$$$$
