NNG.pdb
     RDKit          3D

 21 20  0  0  1  0  0  0  0  0999 V2000
    8.3470  -15.1362   14.4998 N   0  0  0  0  0  0  0  0  0  0  0  0
    7.6250  -14.0518   15.0521 C   0  0  0  0  0  0  0  0  0  0  0  0
    6.8686  -13.4101   14.2454 O   0  0  0  0  0  0  0  0  0  0  0  0
    7.6872  -13.6261   16.4554 C   0  0  0  0  0  0  0  0  0  0  0  0
    8.6547  -14.5065   17.2092 C   0  0  2  0  0  0  0  0  0  0  0  0
    8.2578  -15.8869   17.2138 N   0  0  0  0  0  0  0  0  0  0  0  0
    8.7731  -14.0487   18.6334 C   0  0  0  0  0  0  0  0  0  0  0  0
    9.1869  -12.8965   18.9046 O   0  0  0  0  0  0  0  0  0  0  0  0
    7.3508  -12.6816   23.9108 N   0  0  0  0  0  0  0  0  0  0  0  0
    7.5850  -13.9221   23.2580 C   0  0  0  0  0  0  0  0  0  0  0  0
    7.9166  -14.8883   23.9885 O   0  0  0  0  0  0  0  0  0  0  0  0
    7.4562  -14.0965   21.8215 C   0  0  0  0  0  0  0  0  0  0  0  0
    8.6124  -14.6507   21.0831 C   0  0  2  0  0  0  0  0  0  0  0  0
    8.4153  -14.9200   19.6896 N   0  0  0  0  0  0  0  0  0  0  0  0
    9.3928  -15.6862   21.8135 C   0  0  0  0  0  0  0  0  0  0  0  0
    8.8602  -16.8179   21.9319 O   0  0  0  0  0  0  0  0  0  0  0  0
   10.6679  -15.4916   22.3802 N   0  0  0  0  0  0  0  0  0  0  0  0
   11.4126  -16.6182   22.9680 C   0  0  0  0  0  0  0  0  0  0  0  0
   12.7239  -16.2063   23.4500 C   0  0  0  0  0  0  0  0  0  0  0  0
   13.6014  -15.8382   22.6449 O   0  0  0  0  0  0  0  0  0  0  0  0
   13.0203  -16.2150   24.7983 O   0  0  0  0  0  0  0  0  0  0  0  0
  2  3  2  0
  2  1  1  0
  4  2  1  0
  5  6  1  1
  5  4  1  0
  7  5  1  0
  7  8  2  0
  9 10  1  0
 10 12  1  0
 11 10  2  0
 13 12  1  1
 13 14  1  0
 13 15  1  0
 14  7  1  0
 15 16  2  0
 15 17  1  0
 17 18  1  0
 19 21  1  0
 19 18  1  0
 20 19  2  0
M  END
$$$$
