NNG.pdb
     RDKit          3D

 21 20  0  0  1  0  0  0  0  0999 V2000
   13.2189  -19.2772   16.7182 N   0  0  0  0  0  0  0  0  0  0  0  0
   12.7862  -17.9539   16.4652 C   0  0  0  0  0  0  0  0  0  0  0  0
   12.9872  -17.5125   15.2822 O   0  0  0  0  0  0  0  0  0  0  0  0
   12.1389  -17.0770   17.4482 C   0  0  0  0  0  0  0  0  0  0  0  0
   11.9418  -17.8270   18.7436 C   0  0  2  0  0  0  0  0  0  0  0  0
   10.8973  -18.8093   18.6603 N   0  0  0  0  0  0  0  0  0  0  0  0
   11.5999  -16.8728   19.8502 C   0  0  0  0  0  0  0  0  0  0  0  0
   12.3653  -15.9217   20.1365 O   0  0  0  0  0  0  0  0  0  0  0  0
    7.5585  -17.9282   20.6678 N   0  0  0  0  0  0  0  0  0  0  0  0
    7.5466  -16.8836   21.6315 C   0  0  0  0  0  0  0  0  0  0  0  0
    6.6303  -16.9203   22.4895 O   0  0  0  0  0  0  0  0  0  0  0  0
    8.5294  -15.8140   21.6504 C   0  0  0  0  0  0  0  0  0  0  0  0
    9.9613  -16.1868   21.6484 C   0  0  2  0  0  0  0  0  0  0  0  0
   10.4015  -17.0394   20.5842 N   0  0  0  0  0  0  0  0  0  0  0  0
   10.5330  -16.5112   22.9836 C   0  0  0  0  0  0  0  0  0  0  0  0
   10.3381  -15.6756   23.9012 O   0  0  0  0  0  0  0  0  0  0  0  0
   11.2731  -17.6704   23.2894 N   0  0  0  0  0  0  0  0  0  0  0  0
   11.9150  -17.8308   24.6052 C   0  0  0  0  0  0  0  0  0  0  0  0
   12.5635  -19.1285   24.7356 C   0  0  0  0  0  0  0  0  0  0  0  0
   13.0664  -19.6817   23.7383 O   0  0  0  0  0  0  0  0  0  0  0  0
   12.6344  -19.7679   25.9569 O   0  0  0  0  0  0  0  0  0  0  0  0
  2  3  2  0
  2  1  1  0
  4  2  1  0
  5  6  1  6
  5  4  1  0
  7  5  1  0
  7  8  2  0
  9 10  1  0
 10 12  1  0
 11 10  2  0
 13 12  1  1
 13 14  1  0
 13 15  1  0
 14  7  1  0
 15 16  2  0
 15 17  1  0
 17 18  1  0
 19 21  1  0
 19 18  1  0
 20 19  2  0
M  END
$$$$
