NNG.pdb
     RDKit          3D

 21 20  0  0  1  0  0  0  0  0999 V2000
    9.0496  -15.9451   14.5109 N   0  0  0  0  0  0  0  0  0  0  0  0
    8.6228  -14.6476   14.8803 C   0  0  0  0  0  0  0  0  0  0  0  0
    8.1565  -13.9191   13.9386 O   0  0  0  0  0  0  0  0  0  0  0  0
    8.6800  -14.0972   16.2398 C   0  0  0  0  0  0  0  0  0  0  0  0
    9.3614  -15.0838   17.1572 C   0  0  2  0  0  0  0  0  0  0  0  0
    8.6851  -16.3499   17.2079 N   0  0  0  0  0  0  0  0  0  0  0  0
    9.4315  -14.5344   18.5519 C   0  0  0  0  0  0  0  0  0  0  0  0
   10.0024  -13.4422   18.7831 O   0  0  0  0  0  0  0  0  0  0  0  0
    6.6642  -13.0350   20.5527 N   0  0  0  0  0  0  0  0  0  0  0  0
    6.5548  -14.1093   21.4766 C   0  0  0  0  0  0  0  0  0  0  0  0
    5.4389  -14.2621   22.0319 O   0  0  0  0  0  0  0  0  0  0  0  0
    7.6582  -15.0026   21.7849 C   0  0  0  0  0  0  0  0  0  0  0  0
    8.9061  -14.8600   21.0028 C   0  0  2  0  0  0  0  0  0  0  0  0
    8.8486  -15.2495   19.6250 N   0  0  0  0  0  0  0  0  0  0  0  0
   10.1488  -15.2663   21.7136 C   0  0  0  0  0  0  0  0  0  0  0  0
   10.3178  -14.8025   22.8689 O   0  0  0  0  0  0  0  0  0  0  0  0
   11.1410  -16.1187   21.1903 N   0  0  0  0  0  0  0  0  0  0  0  0
   12.2973  -16.5225   22.0084 C   0  0  0  0  0  0  0  0  0  0  0  0
   13.2306  -17.3484   21.2545 C   0  0  0  0  0  0  0  0  0  0  0  0
   12.9974  -17.6314   20.0633 O   0  0  0  0  0  0  0  0  0  0  0  0
   14.3842  -17.8315   21.8390 O   0  0  0  0  0  0  0  0  0  0  0  0
  2  3  2  0
  2  1  1  0
  4  2  1  0
  5  6  1  1
  5  4  1  0
  7  5  1  0
  7  8  2  0
  9 10  1  0
 10 12  1  0
 11 10  2  0
 13 12  1  1
 13 14  1  0
 13 15  1  0
 14  7  1  0
 15 16  2  0
 15 17  1  0
 17 18  1  0
 19 21  1  0
 19 18  1  0
 20 19  2  0
M  END
$$$$
