NNG.pdb
     RDKit          3D

 21 20  0  0  1  0  0  0  0  0999 V2000
    7.0018  -14.4757   15.7382 N   0  0  0  0  0  0  0  0  0  0  0  0
    8.1517  -13.7649   16.1562 C   0  0  0  0  0  0  0  0  0  0  0  0
    9.0801  -13.6353   15.2868 O   0  0  0  0  0  0  0  0  0  0  0  0
    8.3432  -13.1821   17.4896 C   0  0  0  0  0  0  0  0  0  0  0  0
    8.2074  -14.2602   18.5377 C   0  0  2  0  0  0  0  0  0  0  0  0
    7.0348  -14.0962   19.3509 N   0  0  0  0  0  0  0  0  0  0  0  0
    9.4063  -14.2623   19.4402 C   0  0  0  0  0  0  0  0  0  0  0  0
    9.5600  -13.3670   20.3046 O   0  0  0  0  0  0  0  0  0  0  0  0
   12.8753  -14.8516   22.6428 N   0  0  0  0  0  0  0  0  0  0  0  0
   12.3783  -16.1396   22.3050 C   0  0  0  0  0  0  0  0  0  0  0  0
   12.4939  -17.0339   23.1790 O   0  0  0  0  0  0  0  0  0  0  0  0
   11.7631  -16.4387   21.0234 C   0  0  0  0  0  0  0  0  0  0  0  0
   11.6127  -15.3338   20.0509 C   0  0  2  0  0  0  0  0  0  0  0  0
   10.3798  -15.2827   19.3225 N   0  0  0  0  0  0  0  0  0  0  0  0
   12.8259  -15.0308   19.2441 C   0  0  0  0  0  0  0  0  0  0  0  0
   13.0303  -15.7521   18.2360 O   0  0  0  0  0  0  0  0  0  0  0  0
   13.7546  -14.0099   19.5275 N   0  0  0  0  0  0  0  0  0  0  0  0
   14.8364  -13.6895   18.5808 C   0  0  0  0  0  0  0  0  0  0  0  0
   16.0376  -14.4686   18.8489 C   0  0  0  0  0  0  0  0  0  0  0  0
   16.0702  -15.2607   19.8108 O   0  0  0  0  0  0  0  0  0  0  0  0
   17.1564  -14.3472   18.0494 O   0  0  0  0  0  0  0  0  0  0  0  0
  2  3  2  0
  2  1  1  0
  4  2  1  0
  5  6  1  1
  5  4  1  0
  7  5  1  0
  7  8  2  0
  9 10  1  0
 10 12  1  0
 11 10  2  0
 13 12  1  6
 13 14  1  0
 13 15  1  0
 14  7  1  0
 15 16  2  0
 15 17  1  0
 17 18  1  0
 19 21  1  0
 19 18  1  0
 20 19  2  0
M  END
$$$$
