NSQ.pdb
     RDKit          3D

 24 23  0  0  1  0  0  0  0  0999 V2000
   -1.4438  -19.5701   24.0064 N   0  0  0  0  0  0  0  0  0  0  0  0
   -2.0417  -20.5736   23.1807 C   0  0  0  0  0  0  0  0  0  0  0  0
   -1.9688  -20.4248   21.9396 O   0  0  0  0  0  0  0  0  0  0  0  0
   -2.7289  -21.7565   23.7351 C   0  0  0  0  0  0  0  0  0  0  0  0
   -2.7003  -21.7031   25.2250 C   0  0  2  0  0  0  0  0  0  0  0  0
   -1.3787  -21.7843   25.7684 N   0  0  0  0  0  0  0  0  0  0  0  0
   -3.6169  -22.7264   25.8389 C   0  0  0  0  0  0  0  0  0  0  0  0
   -4.8429  -22.7447   25.5738 O   0  0  0  0  0  0  0  0  0  0  0  0
   -2.1678  -25.2083   28.7546 O   0  0  0  0  0  0  0  0  0  0  0  0
   -3.1531  -25.8015   27.9916 C   0  0  0  0  0  0  0  0  0  0  0  0
   -4.0004  -24.6797   27.3731 C   0  0  2  0  0  0  0  0  0  0  0  0
   -3.1399  -23.7070   26.7367 N   0  0  0  0  0  0  0  0  0  0  0  0
   -4.8795  -24.0563   28.3916 C   0  0  0  0  0  0  0  0  0  0  0  0
   -4.4597  -22.9810   28.9449 O   0  0  0  0  0  0  0  0  0  0  0  0
  -11.0949  -24.5525   28.7418 N   0  0  0  0  0  0  0  0  0  0  0  0
  -10.7842  -23.7512   29.8722 C   0  0  0  0  0  0  0  0  0  0  0  0
  -11.7854  -23.2554   30.5001 O   0  0  0  0  0  0  0  0  0  0  0  0
   -9.3954  -23.4955   30.3206 C   0  0  0  0  0  0  0  0  0  0  0  0
   -8.3320  -24.0999   29.4959 C   0  0  0  0  0  0  0  0  0  0  0  0
   -6.9061  -23.8458   29.8835 C   0  0  2  0  0  0  0  0  0  0  0  0
   -6.1268  -24.5220   28.8130 N   0  0  0  0  0  0  0  0  0  0  0  0
   -6.4653  -24.1910   31.2062 C   0  0  0  0  0  0  0  0  0  0  0  0
   -6.5447  -23.3145   32.2756 O   0  0  0  0  0  0  0  0  0  0  0  0
   -5.9659  -25.3340   31.4659 O   0  0  0  0  0  0  0  0  0  0  0  0
  2  1  1  0
  2  3  2  0
  4  2  1  0
  5  4  1  0
  5  6  1  1
  7  8  2  0
  7  5  1  0
  9 10  1  0
 11 10  1  1
 11 12  1  0
 12  7  1  0
 13 11  1  0
 13 21  1  0
 14 13  2  0
 16 17  2  0
 16 15  1  0
 18 16  1  0
 20 19  1  1
 19 18  1  0
 20 21  1  0
 20 22  1  0
 22 23  1  0
 24 22  2  0
M  END
$$$$
