NSQ.pdb
     RDKit          3D

 24 23  0  0  1  0  0  0  0  0999 V2000
    9.4052  -18.9296   16.0751 N   0  0  0  0  0  0  0  0  0  0  0  0
    9.4497  -17.5075   15.9268 C   0  0  0  0  0  0  0  0  0  0  0  0
    9.6391  -17.0483   14.7774 O   0  0  0  0  0  0  0  0  0  0  0  0
    9.2824  -16.5818   17.0643 C   0  0  0  0  0  0  0  0  0  0  0  0
    9.1482  -17.3587   18.3300 C   0  0  2  0  0  0  0  0  0  0  0  0
    7.8758  -17.9997   18.4676 N   0  0  0  0  0  0  0  0  0  0  0  0
    9.4828  -16.5242   19.5365 C   0  0  0  0  0  0  0  0  0  0  0  0
   10.6336  -16.0535   19.7038 O   0  0  0  0  0  0  0  0  0  0  0  0
    6.8732  -16.2778   22.8035 O   0  0  0  0  0  0  0  0  0  0  0  0
    7.5341  -15.1153   22.4620 C   0  0  0  0  0  0  0  0  0  0  0  0
    8.8320  -15.5127   21.7432 C   0  0  2  0  0  0  0  0  0  0  0  0
    8.5208  -16.2351   20.5296 N   0  0  0  0  0  0  0  0  0  0  0  0
    9.7165  -16.2950   22.6400 C   0  0  0  0  0  0  0  0  0  0  0  0
    9.7803  -17.5578   22.4399 O   0  0  0  0  0  0  0  0  0  0  0  0
   15.4091  -15.4165   23.4541 N   0  0  0  0  0  0  0  0  0  0  0  0
   14.8498  -16.5985   22.9008 C   0  0  0  0  0  0  0  0  0  0  0  0
   15.5792  -17.2182   22.0485 O   0  0  0  0  0  0  0  0  0  0  0  0
   13.5095  -17.1069   23.2756 C   0  0  0  0  0  0  0  0  0  0  0  0
   12.7361  -16.2584   24.2020 C   0  0  0  0  0  0  0  0  0  0  0  0
   11.3359  -16.6745   24.5402 C   0  0  2  0  0  0  0  0  0  0  0  0
   10.4938  -15.7951   23.6870 N   0  0  0  0  0  0  0  0  0  0  0  0
   10.9208  -16.6921   25.9152 C   0  0  0  0  0  0  0  0  0  0  0  0
    9.8627  -15.9343   26.3887 O   0  0  0  0  0  0  0  0  0  0  0  0
   11.5167  -17.4100   26.7828 O   0  0  0  0  0  0  0  0  0  0  0  0
  2  1  1  0
  2  3  2  0
  4  2  1  0
  5  4  1  0
  5  6  1  1
  7  8  2  0
  7  5  1  0
  9 10  1  0
 11 10  1  1
 11 12  1  0
 12  7  1  0
 13 11  1  0
 13 21  1  0
 14 13  2  0
 16 17  2  0
 16 15  1  0
 18 16  1  0
 20 19  1  1
 19 18  1  0
 20 21  1  0
 20 22  1  0
 22 23  1  0
 24 22  2  0
M  END
$$$$
