NSQ.pdb
     RDKit          3D

 24 23  0  0  1  0  0  0  0  0999 V2000
    7.9338  -18.6202   11.1149 N   0  0  0  0  0  0  0  0  0  0  0  0
    7.9023  -17.2444   11.5054 C   0  0  0  0  0  0  0  0  0  0  0  0
    7.7043  -16.3905   10.6112 O   0  0  0  0  0  0  0  0  0  0  0  0
    8.0922  -16.8078   12.9025 C   0  0  0  0  0  0  0  0  0  0  0  0
    8.3122  -17.9963   13.7759 C   0  0  2  0  0  0  0  0  0  0  0  0
    7.1046  -18.6966   14.0922 N   0  0  0  0  0  0  0  0  0  0  0  0
    9.0901  -17.6437   15.0147 C   0  0  0  0  0  0  0  0  0  0  0  0
   10.1992  -17.0617   14.9434 O   0  0  0  0  0  0  0  0  0  0  0  0
    7.7821  -18.8595   18.7882 O   0  0  0  0  0  0  0  0  0  0  0  0
    8.3637  -17.6101   18.7119 C   0  0  0  0  0  0  0  0  0  0  0  0
    9.3280  -17.6187   17.5164 C   0  0  2  0  0  0  0  0  0  0  0  0
    8.6086  -17.9508   16.3066 N   0  0  0  0  0  0  0  0  0  0  0  0
   10.4616  -18.5439   17.7563 C   0  0  0  0  0  0  0  0  0  0  0  0
   10.2669  -19.7833   17.5016 O   0  0  0  0  0  0  0  0  0  0  0  0
   15.3153  -21.2834   15.3243 N   0  0  0  0  0  0  0  0  0  0  0  0
   14.7889  -19.9674   15.4089 C   0  0  0  0  0  0  0  0  0  0  0  0
   15.4285  -19.0650   14.7616 O   0  0  0  0  0  0  0  0  0  0  0  0
   13.5722  -19.6353   16.1867 C   0  0  0  0  0  0  0  0  0  0  0  0
   13.8020  -19.0351   17.5145 C   0  0  0  0  0  0  0  0  0  0  0  0
   12.7530  -19.2271   18.5685 C   0  0  2  0  0  0  0  0  0  0  0  0
   11.7289  -18.2027   18.2335 N   0  0  0  0  0  0  0  0  0  0  0  0
   13.1364  -19.2104   19.9526 C   0  0  0  0  0  0  0  0  0  0  0  0
   13.7074  -20.3018   20.5858 O   0  0  0  0  0  0  0  0  0  0  0  0
   12.9625  -18.1793   20.6806 O   0  0  0  0  0  0  0  0  0  0  0  0
  2  1  1  0
  2  3  2  0
  4  2  1  0
  5  4  1  0
  5  6  1  1
  7  8  2  0
  7  5  1  0
  9 10  1  0
 11 10  1  1
 11 12  1  0
 12  7  1  0
 13 11  1  0
 13 21  1  0
 14 13  2  0
 16 17  2  0
 16 15  1  0
 18 16  1  0
 20 19  1  6
 19 18  1  0
 20 21  1  0
 20 22  1  0
 22 23  1  0
 24 22  2  0
M  END
$$$$
