NSQ.pdb
     RDKit          3D

 24 23  0  0  1  0  0  0  0  0999 V2000
    7.8593  -15.8673   13.9480 N   0  0  0  0  0  0  0  0  0  0  0  0
    8.2460  -14.4940   14.0517 C   0  0  0  0  0  0  0  0  0  0  0  0
    8.3452  -13.8362   12.9909 O   0  0  0  0  0  0  0  0  0  0  0  0
    8.5264  -13.8403   15.3450 C   0  0  0  0  0  0  0  0  0  0  0  0
    8.4709  -14.8493   16.4416 C   0  0  2  0  0  0  0  0  0  0  0  0
    7.2020  -15.5036   16.5441 N   0  0  0  0  0  0  0  0  0  0  0  0
    8.9032  -14.2668   17.7599 C   0  0  0  0  0  0  0  0  0  0  0  0
   10.0605  -13.8104   17.9219 O   0  0  0  0  0  0  0  0  0  0  0  0
    6.6536  -15.0232   21.2664 O   0  0  0  0  0  0  0  0  0  0  0  0
    7.2791  -13.7980   21.1552 C   0  0  0  0  0  0  0  0  0  0  0  0
    8.4852  -13.9751   20.2209 C   0  0  2  0  0  0  0  0  0  0  0  0
    8.0295  -14.2083   18.8683 N   0  0  0  0  0  0  0  0  0  0  0  0
    9.3719  -15.0626   20.7000 C   0  0  0  0  0  0  0  0  0  0  0  0
    9.6440  -16.0006   19.8724 O   0  0  0  0  0  0  0  0  0  0  0  0
   15.0947  -15.7897   19.1069 N   0  0  0  0  0  0  0  0  0  0  0  0
   14.3851  -14.9979   20.0480 C   0  0  0  0  0  0  0  0  0  0  0  0
   14.4787  -13.7287   19.8967 O   0  0  0  0  0  0  0  0  0  0  0  0
   13.5745  -15.5814   21.1425 C   0  0  0  0  0  0  0  0  0  0  0  0
   12.1533  -15.1870   21.1704 C   0  0  0  0  0  0  0  0  0  0  0  0
   11.2611  -15.8291   22.1901 C   0  0  2  0  0  0  0  0  0  0  0  0
    9.9463  -15.1715   21.9683 N   0  0  0  0  0  0  0  0  0  0  0  0
   11.6625  -15.8373   23.5692 C   0  0  0  0  0  0  0  0  0  0  0  0
   10.9592  -15.1707   24.5588 O   0  0  0  0  0  0  0  0  0  0  0  0
   12.7036  -16.4608   23.9573 O   0  0  0  0  0  0  0  0  0  0  0  0
  2  1  1  0
  2  3  2  0
  4  2  1  0
  5  4  1  0
  5  6  1  1
  7  8  2  0
  7  5  1  0
  9 10  1  0
 11 10  1  1
 11 12  1  0
 12  7  1  0
 13 11  1  0
 13 21  1  0
 14 13  2  0
 16 17  2  0
 16 15  1  0
 18 16  1  0
 20 19  1  6
 19 18  1  0
 20 21  1  0
 20 22  1  0
 22 23  1  0
 24 22  2  0
M  END
$$$$
