NSQ.pdb
     RDKit          3D

 24 23  0  0  1  0  0  0  0  0999 V2000
    7.1384  -13.3028   16.4492 N   0  0  0  0  0  0  0  0  0  0  0  0
    8.3230  -13.4312   17.2405 C   0  0  0  0  0  0  0  0  0  0  0  0
    9.4261  -13.3484   16.6538 O   0  0  0  0  0  0  0  0  0  0  0  0
    8.2870  -13.6539   18.6992 C   0  0  0  0  0  0  0  0  0  0  0  0
    9.0066  -14.9164   19.0337 C   0  0  2  0  0  0  0  0  0  0  0  0
    8.7900  -15.9606   18.0789 N   0  0  0  0  0  0  0  0  0  0  0  0
    8.7087  -15.3754   20.4353 C   0  0  0  0  0  0  0  0  0  0  0  0
    8.1563  -14.6147   21.2660 O   0  0  0  0  0  0  0  0  0  0  0  0
    9.7661  -19.2132   21.6979 O   0  0  0  0  0  0  0  0  0  0  0  0
    8.5713  -18.7004   22.1607 C   0  0  0  0  0  0  0  0  0  0  0  0
    8.7040  -17.1706   22.1942 C   0  0  2  0  0  0  0  0  0  0  0  0
    9.0364  -16.6768   20.8761 N   0  0  0  0  0  0  0  0  0  0  0  0
    9.6982  -16.7468   23.2093 C   0  0  0  0  0  0  0  0  0  0  0  0
   10.9154  -16.6444   22.8265 O   0  0  0  0  0  0  0  0  0  0  0  0
   10.5243  -13.5319   29.8941 N   0  0  0  0  0  0  0  0  0  0  0  0
    9.9460  -13.9533   28.6676 C   0  0  0  0  0  0  0  0  0  0  0  0
    8.7659  -13.5164   28.4248 O   0  0  0  0  0  0  0  0  0  0  0  0
   10.6478  -14.8385   27.7088 C   0  0  0  0  0  0  0  0  0  0  0  0
    9.8536  -15.2891   26.5502 C   0  0  0  0  0  0  0  0  0  0  0  0
   10.5325  -16.1315   25.5120 C   0  0  2  0  0  0  0  0  0  0  0  0
    9.4440  -16.4444   24.5488 N   0  0  0  0  0  0  0  0  0  0  0  0
   11.2733  -17.2914   25.9229 C   0  0  0  0  0  0  0  0  0  0  0  0
   10.6958  -18.5439   26.0494 O   0  0  0  0  0  0  0  0  0  0  0  0
   12.5147  -17.2257   26.2023 O   0  0  0  0  0  0  0  0  0  0  0  0
  2  1  1  0
  2  3  2  0
  4  2  1  0
  5  4  1  0
  5  6  1  6
  7  8  2  0
  7  5  1  0
  9 10  1  0
 11 10  1  6
 11 12  1  0
 12  7  1  0
 13 11  1  0
 13 21  1  0
 14 13  2  0
 16 17  2  0
 16 15  1  0
 18 16  1  0
 20 19  1  1
 19 18  1  0
 20 21  1  0
 20 22  1  0
 22 23  1  0
 24 22  2  0
M  END
$$$$
