NSQ.pdb
     RDKit          3D

 24 23  0  0  1  0  0  0  0  0999 V2000
    7.8337  -15.7928   13.7702 N   0  0  0  0  0  0  0  0  0  0  0  0
    8.6743  -14.6363   13.8150 C   0  0  0  0  0  0  0  0  0  0  0  0
    8.8904  -14.0323   12.7397 O   0  0  0  0  0  0  0  0  0  0  0  0
    9.2834  -14.1416   15.0652 C   0  0  0  0  0  0  0  0  0  0  0  0
    8.9628  -15.0733   16.1845 C   0  0  2  0  0  0  0  0  0  0  0  0
    7.5937  -15.4905   16.1983 N   0  0  0  0  0  0  0  0  0  0  0  0
    9.3865  -14.5148   17.5159 C   0  0  0  0  0  0  0  0  0  0  0  0
   10.5931  -14.2866   17.7721 O   0  0  0  0  0  0  0  0  0  0  0  0
    6.7323  -14.6399   20.8560 O   0  0  0  0  0  0  0  0  0  0  0  0
    7.6026  -13.5764   20.7283 C   0  0  0  0  0  0  0  0  0  0  0  0
    8.8154  -14.0627   19.9212 C   0  0  2  0  0  0  0  0  0  0  0  0
    8.4489  -14.2240   18.5316 N   0  0  0  0  0  0  0  0  0  0  0  0
    9.3673  -15.3134   20.4954 C   0  0  0  0  0  0  0  0  0  0  0  0
    9.2818  -16.3712   19.7796 O   0  0  0  0  0  0  0  0  0  0  0  0
   13.9267  -14.0334   18.7259 N   0  0  0  0  0  0  0  0  0  0  0  0
   14.2439  -15.1367   19.5615 C   0  0  0  0  0  0  0  0  0  0  0  0
   15.1191  -15.9534   19.1036 O   0  0  0  0  0  0  0  0  0  0  0  0
   13.6188  -15.3478   20.8881 C   0  0  0  0  0  0  0  0  0  0  0  0
   12.1613  -15.1295   20.9541 C   0  0  0  0  0  0  0  0  0  0  0  0
   11.3609  -15.9788   21.8954 C   0  0  2  0  0  0  0  0  0  0  0  0
    9.9761  -15.4594   21.7437 N   0  0  0  0  0  0  0  0  0  0  0  0
   11.7750  -16.0900   23.2663 C   0  0  0  0  0  0  0  0  0  0  0  0
   12.1392  -14.9940   24.0308 O   0  0  0  0  0  0  0  0  0  0  0  0
   11.8358  -17.2180   23.8554 O   0  0  0  0  0  0  0  0  0  0  0  0
  2  1  1  0
  2  3  2  0
  4  2  1  0
  5  4  1  0
  5  6  1  1
  7  8  2  0
  7  5  1  0
  9 10  1  0
 11 10  1  1
 11 12  1  0
 12  7  1  0
 13 11  1  0
 13 21  1  0
 14 13  2  0
 16 17  2  0
 16 15  1  0
 18 16  1  0
 20 19  1  6
 19 18  1  0
 20 21  1  0
 20 22  1  0
 22 23  1  0
 24 22  2  0
M  END
$$$$
