NSQ.pdb
     RDKit          3D

 24 23  0  0  1  0  0  0  0  0999 V2000
   14.9443  -13.3957   19.9182 N   0  0  0  0  0  0  0  0  0  0  0  0
   13.8098  -13.9323   19.2320 C   0  0  0  0  0  0  0  0  0  0  0  0
   13.9175  -14.1363   18.0012 O   0  0  0  0  0  0  0  0  0  0  0  0
   12.5401  -14.2472   19.9157 C   0  0  0  0  0  0  0  0  0  0  0  0
   12.6678  -15.5428   20.6429 C   0  0  2  0  0  0  0  0  0  0  0  0
   12.8325  -16.6664   19.7716 N   0  0  0  0  0  0  0  0  0  0  0  0
   11.5369  -15.7535   21.6128 C   0  0  0  0  0  0  0  0  0  0  0  0
   10.5931  -14.9318   21.7010 O   0  0  0  0  0  0  0  0  0  0  0  0
   10.9861  -19.3798   23.4976 O   0  0  0  0  0  0  0  0  0  0  0  0
    9.9116  -18.5292   23.3340 C   0  0  0  0  0  0  0  0  0  0  0  0
   10.4385  -17.0901   23.4358 C   0  0  2  0  0  0  0  0  0  0  0  0
   11.4879  -16.8805   22.4630 N   0  0  0  0  0  0  0  0  0  0  0  0
   10.8950  -16.7889   24.8140 C   0  0  0  0  0  0  0  0  0  0  0  0
   12.1446  -16.9234   25.0569 O   0  0  0  0  0  0  0  0  0  0  0  0
    7.2240  -13.6521   27.9301 N   0  0  0  0  0  0  0  0  0  0  0  0
    8.4913  -13.0425   27.7336 C   0  0  0  0  0  0  0  0  0  0  0  0
    8.4821  -11.7723   27.5638 O   0  0  0  0  0  0  0  0  0  0  0  0
    9.7604  -13.8073   27.7276 C   0  0  0  0  0  0  0  0  0  0  0  0
    9.6322  -15.2667   27.9005 C   0  0  0  0  0  0  0  0  0  0  0  0
   10.6521  -16.1487   27.2447 C   0  0  2  0  0  0  0  0  0  0  0  0
   10.0993  -16.3699   25.8824 N   0  0  0  0  0  0  0  0  0  0  0  0
   11.0520  -17.3649   27.8959 C   0  0  0  0  0  0  0  0  0  0  0  0
   11.9423  -17.3899   28.9565 O   0  0  0  0  0  0  0  0  0  0  0  0
   10.6076  -18.4990   27.5221 O   0  0  0  0  0  0  0  0  0  0  0  0
  2  1  1  0
  2  3  2  0
  4  2  1  0
  5  4  1  0
  5  6  1  6
  7  8  2  0
  7  5  1  0
  9 10  1  0
 11 10  1  1
 11 12  1  0
 12  7  1  0
 13 11  1  0
 13 21  1  0
 14 13  2  0
 16 17  2  0
 16 15  1  0
 18 16  1  0
 20 19  1  1
 19 18  1  0
 20 21  1  0
 20 22  1  0
 22 23  1  0
 24 22  2  0
M  END
$$$$
