NSQ.pdb
     RDKit          3D

 24 23  0  0  1  0  0  0  0  0999 V2000
   19.0994  -13.9865   16.7530 N   0  0  0  0  0  0  0  0  0  0  0  0
   18.1366  -12.9442   16.9344 C   0  0  0  0  0  0  0  0  0  0  0  0
   18.4374  -11.7979   16.5302 O   0  0  0  0  0  0  0  0  0  0  0  0
   16.8246  -13.1729   17.5708 C   0  0  0  0  0  0  0  0  0  0  0  0
   15.9702  -14.0068   16.6774 C   0  0  2  0  0  0  0  0  0  0  0  0
   15.6906  -13.3837   15.4195 N   0  0  0  0  0  0  0  0  0  0  0  0
   14.7102  -14.4548   17.3672 C   0  0  0  0  0  0  0  0  0  0  0  0
   13.6739  -13.7478   17.3539 O   0  0  0  0  0  0  0  0  0  0  0  0
   14.1826  -18.3593   18.6670 O   0  0  0  0  0  0  0  0  0  0  0  0
   13.1008  -17.5566   18.3667 C   0  0  0  0  0  0  0  0  0  0  0  0
   13.4605  -16.1202   18.7747 C   0  0  2  0  0  0  0  0  0  0  0  0
   14.6384  -15.6853   18.0570 N   0  0  0  0  0  0  0  0  0  0  0  0
   13.6384  -16.0149   20.2430 C   0  0  0  0  0  0  0  0  0  0  0  0
   14.8376  -15.9142   20.6795 O   0  0  0  0  0  0  0  0  0  0  0  0
    8.9617  -16.3730   24.5392 N   0  0  0  0  0  0  0  0  0  0  0  0
    9.2407  -15.2795   23.6774 C   0  0  0  0  0  0  0  0  0  0  0  0
    8.2781  -14.4546   23.4887 O   0  0  0  0  0  0  0  0  0  0  0  0
   10.5585  -15.0806   23.0299 C   0  0  0  0  0  0  0  0  0  0  0  0
   11.5704  -16.1197   23.2991 C   0  0  0  0  0  0  0  0  0  0  0  0
   12.9206  -15.9734   22.6637 C   0  0  2  0  0  0  0  0  0  0  0  0
   12.6277  -16.0131   21.2066 N   0  0  0  0  0  0  0  0  0  0  0  0
   13.9795  -16.8631   23.0511 C   0  0  0  0  0  0  0  0  0  0  0  0
   15.0082  -16.4813   23.8962 O   0  0  0  0  0  0  0  0  0  0  0  0
   14.0315  -18.0632   22.6263 O   0  0  0  0  0  0  0  0  0  0  0  0
  2  1  1  0
  2  3  2  0
  4  2  1  0
  5  4  1  0
  5  6  1  6
  7  8  2  0
  7  5  1  0
  9 10  1  0
 11 10  1  1
 11 12  1  0
 12  7  1  0
 13 11  1  0
 13 21  1  0
 14 13  2  0
 16 17  2  0
 16 15  1  0
 18 16  1  0
 20 19  1  1
 19 18  1  0
 20 21  1  0
 20 22  1  0
 22 23  1  0
 24 22  2  0
M  END
$$$$
