NSQ.pdb
     RDKit          3D

 24 23  0  0  1  0  0  0  0  0999 V2000
    7.4233  -16.1014   12.7503 N   0  0  0  0  0  0  0  0  0  0  0  0
    7.9050  -16.9796   13.7716 C   0  0  0  0  0  0  0  0  0  0  0  0
    7.6851  -18.2048   13.6364 O   0  0  0  0  0  0  0  0  0  0  0  0
    8.6393  -16.4963   14.9573 C   0  0  0  0  0  0  0  0  0  0  0  0
    8.6831  -15.0057   14.9493 C   0  0  2  0  0  0  0  0  0  0  0  0
    9.3583  -14.4661   13.8084 N   0  0  0  0  0  0  0  0  0  0  0  0
    9.2389  -14.4557   16.2349 C   0  0  0  0  0  0  0  0  0  0  0  0
   10.4758  -14.3908   16.4345 O   0  0  0  0  0  0  0  0  0  0  0  0
    6.8741  -14.1156   19.6809 O   0  0  0  0  0  0  0  0  0  0  0  0
    7.7322  -13.0646   19.4284 C   0  0  0  0  0  0  0  0  0  0  0  0
    8.8884  -13.6039   18.5732 C   0  0  2  0  0  0  0  0  0  0  0  0
    8.3969  -13.9901   17.2690 N   0  0  0  0  0  0  0  0  0  0  0  0
    9.5765  -14.7246   19.2580 C   0  0  0  0  0  0  0  0  0  0  0  0
    9.9693  -15.7007   18.5289 O   0  0  0  0  0  0  0  0  0  0  0  0
   14.4545  -14.0615   18.9246 N   0  0  0  0  0  0  0  0  0  0  0  0
   14.6378  -14.9819   19.9901 C   0  0  0  0  0  0  0  0  0  0  0  0
   15.8526  -15.2719   20.2777 O   0  0  0  0  0  0  0  0  0  0  0  0
   13.5089  -15.5784   20.7420 C   0  0  0  0  0  0  0  0  0  0  0  0
   12.1679  -15.0672   20.4008 C   0  0  0  0  0  0  0  0  0  0  0  0
   10.9907  -15.6133   21.1520 C   0  0  2  0  0  0  0  0  0  0  0  0
    9.8441  -14.8274   20.6248 N   0  0  0  0  0  0  0  0  0  0  0  0
   11.0322  -15.6577   22.5871 C   0  0  0  0  0  0  0  0  0  0  0  0
   11.7073  -16.6435   23.2875 O   0  0  0  0  0  0  0  0  0  0  0  0
   10.4368  -14.7848   23.2990 O   0  0  0  0  0  0  0  0  0  0  0  0
  2  1  1  0
  2  3  2  0
  4  2  1  0
  5  4  1  0
  5  6  1  6
  7  8  2  0
  7  5  1  0
  9 10  1  0
 11 10  1  1
 11 12  1  0
 12  7  1  0
 13 11  1  0
 13 21  1  0
 14 13  2  0
 16 17  2  0
 16 15  1  0
 18 16  1  0
 20 19  1  1
 19 18  1  0
 20 21  1  0
 20 22  1  0
 22 23  1  0
 24 22  2  0
M  END
$$$$
