NSQ.pdb
     RDKit          3D

 24 23  0  0  1  0  0  0  0  0999 V2000
    8.7136  -19.0297   16.1407 N   0  0  0  0  0  0  0  0  0  0  0  0
    9.7854  -18.1811   15.7195 C   0  0  0  0  0  0  0  0  0  0  0  0
   10.3228  -18.4273   14.6157 O   0  0  0  0  0  0  0  0  0  0  0  0
   10.2688  -17.0458   16.5296 C   0  0  0  0  0  0  0  0  0  0  0  0
    9.4273  -15.8436   16.2643 C   0  0  2  0  0  0  0  0  0  0  0  0
    9.6359  -15.2834   14.9638 N   0  0  0  0  0  0  0  0  0  0  0  0
    9.5755  -14.8076   17.3454 C   0  0  0  0  0  0  0  0  0  0  0  0
   10.7015  -14.3558   17.6642 O   0  0  0  0  0  0  0  0  0  0  0  0
    6.3962  -14.0354   19.9052 O   0  0  0  0  0  0  0  0  0  0  0  0
    7.1928  -12.9421   19.6316 C   0  0  0  0  0  0  0  0  0  0  0  0
    8.5770  -13.4666   19.2218 C   0  0  2  0  0  0  0  0  0  0  0  0
    8.4588  -14.3002   18.0458 N   0  0  0  0  0  0  0  0  0  0  0  0
    9.2255  -14.1852   20.3450 C   0  0  0  0  0  0  0  0  0  0  0  0
    9.4488  -13.5168   21.4137 O   0  0  0  0  0  0  0  0  0  0  0  0
    9.4960  -20.4418   20.9414 N   0  0  0  0  0  0  0  0  0  0  0  0
   10.1550  -19.9929   22.1163 C   0  0  0  0  0  0  0  0  0  0  0  0
   10.5294  -20.9067   22.9331 O   0  0  0  0  0  0  0  0  0  0  0  0
   10.4108  -18.5610   22.3987 C   0  0  0  0  0  0  0  0  0  0  0  0
    9.8579  -17.6043   21.4213 C   0  0  0  0  0  0  0  0  0  0  0  0
   10.2314  -16.1586   21.5579 C   0  0  2  0  0  0  0  0  0  0  0  0
    9.6202  -15.5247   20.3599 N   0  0  0  0  0  0  0  0  0  0  0  0
   11.6109  -15.8037   21.7423 C   0  0  0  0  0  0  0  0  0  0  0  0
   12.0076  -14.5890   22.2764 O   0  0  0  0  0  0  0  0  0  0  0  0
   12.5532  -16.5957   21.4136 O   0  0  0  0  0  0  0  0  0  0  0  0
  2  1  1  0
  2  3  2  0
  4  2  1  0
  5  4  1  0
  5  6  1  6
  7  8  2  0
  7  5  1  0
  9 10  1  0
 11 10  1  1
 11 12  1  0
 12  7  1  0
 13 11  1  0
 13 21  1  0
 14 13  2  0
 16 17  2  0
 16 15  1  0
 18 16  1  0
 20 19  1  6
 19 18  1  0
 20 21  1  0
 20 22  1  0
 22 23  1  0
 24 22  2  0
M  END
$$$$
