NSQ.pdb
     RDKit          3D

 24 23  0  0  1  0  0  0  0  0999 V2000
   11.2030  -20.3775   16.9873 N   0  0  0  0  0  0  0  0  0  0  0  0
    9.8386  -19.9623   17.0986 C   0  0  0  0  0  0  0  0  0  0  0  0
    9.0905  -20.1528   16.1127 O   0  0  0  0  0  0  0  0  0  0  0  0
    9.2950  -19.3285   18.3158 C   0  0  0  0  0  0  0  0  0  0  0  0
    8.7947  -17.9618   17.9911 C   0  0  2  0  0  0  0  0  0  0  0  0
    9.3400  -17.4335   16.7777 N   0  0  0  0  0  0  0  0  0  0  0  0
    8.9785  -17.0108   19.1426 C   0  0  0  0  0  0  0  0  0  0  0  0
   10.1202  -16.7344   19.5830 O   0  0  0  0  0  0  0  0  0  0  0  0
    5.8180  -15.9861   21.6477 O   0  0  0  0  0  0  0  0  0  0  0  0
    6.6494  -14.9386   21.3066 C   0  0  0  0  0  0  0  0  0  0  0  0
    8.0156  -15.5324   20.9324 C   0  0  2  0  0  0  0  0  0  0  0  0
    7.8791  -16.3899   19.7758 N   0  0  0  0  0  0  0  0  0  0  0  0
    8.6152  -16.2494   22.0835 C   0  0  0  0  0  0  0  0  0  0  0  0
    8.9442  -17.4730   21.9013 O   0  0  0  0  0  0  0  0  0  0  0  0
   13.9521  -15.4953   22.4969 N   0  0  0  0  0  0  0  0  0  0  0  0
   13.5982  -16.6776   23.1993 C   0  0  0  0  0  0  0  0  0  0  0  0
   14.3990  -17.6694   23.0667 O   0  0  0  0  0  0  0  0  0  0  0  0
   12.3856  -16.7794   24.0446 C   0  0  0  0  0  0  0  0  0  0  0  0
   11.1244  -16.3450   23.4146 C   0  0  0  0  0  0  0  0  0  0  0  0
    9.8892  -16.2989   24.2633 C   0  0  2  0  0  0  0  0  0  0  0  0
    8.8615  -15.7258   23.3545 N   0  0  0  0  0  0  0  0  0  0  0  0
    9.9391  -15.6461   25.5417 C   0  0  0  0  0  0  0  0  0  0  0  0
    9.1468  -14.5550   25.8580 O   0  0  0  0  0  0  0  0  0  0  0  0
   10.7299  -16.0382   26.4606 O   0  0  0  0  0  0  0  0  0  0  0  0
  2  1  1  0
  2  3  2  0
  4  2  1  0
  5  4  1  0
  5  6  1  6
  7  8  2  0
  7  5  1  0
  9 10  1  0
 11 10  1  1
 11 12  1  0
 12  7  1  0
 13 11  1  0
 13 21  1  0
 14 13  2  0
 16 17  2  0
 16 15  1  0
 18 16  1  0
 20 19  1  6
 19 18  1  0
 20 21  1  0
 20 22  1  0
 22 23  1  0
 24 22  2  0
M  END
$$$$
