NSQ.pdb
     RDKit          3D

 24 23  0  0  1  0  0  0  0  0999 V2000
    8.2323  -20.2355   18.7863 N   0  0  0  0  0  0  0  0  0  0  0  0
    7.8003  -19.9400   20.1176 C   0  0  0  0  0  0  0  0  0  0  0  0
    6.9961  -20.7334   20.6576 O   0  0  0  0  0  0  0  0  0  0  0  0
    8.2636  -18.7518   20.8607 C   0  0  0  0  0  0  0  0  0  0  0  0
    8.9618  -17.8176   19.9316 C   0  0  2  0  0  0  0  0  0  0  0  0
   10.0595  -18.4228   19.2405 N   0  0  0  0  0  0  0  0  0  0  0  0
    9.3740  -16.5459   20.6224 C   0  0  0  0  0  0  0  0  0  0  0  0
   10.0715  -15.6833   20.0365 O   0  0  0  0  0  0  0  0  0  0  0  0
    7.0342  -14.1498   21.9376 O   0  0  0  0  0  0  0  0  0  0  0  0
    8.3816  -13.9137   21.7540 C   0  0  0  0  0  0  0  0  0  0  0  0
    9.1525  -14.9663   22.5645 C   0  0  2  0  0  0  0  0  0  0  0  0
    8.9958  -16.2683   21.9547 N   0  0  0  0  0  0  0  0  0  0  0  0
    8.7195  -14.9651   23.9826 C   0  0  0  0  0  0  0  0  0  0  0  0
    7.5114  -15.3128   24.2239 O   0  0  0  0  0  0  0  0  0  0  0  0
   12.1041  -16.7733   28.7360 N   0  0  0  0  0  0  0  0  0  0  0  0
   10.9750  -16.2350   29.4079 C   0  0  0  0  0  0  0  0  0  0  0  0
   10.9503  -16.3948   30.6793 O   0  0  0  0  0  0  0  0  0  0  0  0
    9.8832  -15.5226   28.7038 C   0  0  0  0  0  0  0  0  0  0  0  0
   10.0549  -15.3618   27.2475 C   0  0  0  0  0  0  0  0  0  0  0  0
    8.9667  -14.6739   26.4788 C   0  0  2  0  0  0  0  0  0  0  0  0
    9.4973  -14.6231   25.0909 N   0  0  0  0  0  0  0  0  0  0  0  0
    8.4730  -13.4068   26.9411 C   0  0  0  0  0  0  0  0  0  0  0  0
    8.8221  -12.2047   26.3485 O   0  0  0  0  0  0  0  0  0  0  0  0
    7.6835  -13.3217   27.9374 O   0  0  0  0  0  0  0  0  0  0  0  0
  2  1  1  0
  2  3  2  0
  4  2  1  0
  5  4  1  0
  5  6  1  1
  7  8  2  0
  7  5  1  0
  9 10  1  0
 11 10  1  6
 11 12  1  0
 12  7  1  0
 13 11  1  0
 13 21  1  0
 14 13  2  0
 16 17  2  0
 16 15  1  0
 18 16  1  0
 20 19  1  1
 19 18  1  0
 20 21  1  0
 20 22  1  0
 22 23  1  0
 24 22  2  0
M  END
$$$$
