NSQ.pdb
     RDKit          3D

 24 23  0  0  1  0  0  0  0  0999 V2000
    9.8241  -14.8677   16.4116 N   0  0  0  0  0  0  0  0  0  0  0  0
   10.7724  -14.4404   17.3935 C   0  0  0  0  0  0  0  0  0  0  0  0
   11.9869  -14.5044   17.0956 O   0  0  0  0  0  0  0  0  0  0  0  0
   10.3723  -13.9360   18.7218 C   0  0  0  0  0  0  0  0  0  0  0  0
    8.8988  -14.0866   18.8945 C   0  0  2  0  0  0  0  0  0  0  0  0
    8.1446  -13.0668   18.2312 N   0  0  0  0  0  0  0  0  0  0  0  0
    8.5151  -14.2065   20.3445 C   0  0  0  0  0  0  0  0  0  0  0  0
    8.5404  -13.2122   21.1091 O   0  0  0  0  0  0  0  0  0  0  0  0
    7.3384  -17.8950   22.0584 O   0  0  0  0  0  0  0  0  0  0  0  0
    6.7064  -16.7264   22.4321 C   0  0  0  0  0  0  0  0  0  0  0  0
    7.7225  -15.5832   22.2919 C   0  0  2  0  0  0  0  0  0  0  0  0
    8.1113  -15.4378   20.9065 N   0  0  0  0  0  0  0  0  0  0  0  0
    8.8938  -15.8039   23.1738 C   0  0  0  0  0  0  0  0  0  0  0  0
   10.0098  -16.0693   22.6058 O   0  0  0  0  0  0  0  0  0  0  0  0
   10.7995  -15.0370   30.2868 N   0  0  0  0  0  0  0  0  0  0  0  0
   10.4401  -14.6702   28.9629 C   0  0  0  0  0  0  0  0  0  0  0  0
    9.8654  -13.5321   28.8330 O   0  0  0  0  0  0  0  0  0  0  0  0
   10.7090  -15.5316   27.7877 C   0  0  0  0  0  0  0  0  0  0  0  0
   10.0332  -15.1405   26.5361 C   0  0  0  0  0  0  0  0  0  0  0  0
   10.1234  -16.0706   25.3634 C   0  0  2  0  0  0  0  0  0  0  0  0
    8.9077  -15.7511   24.5693 N   0  0  0  0  0  0  0  0  0  0  0  0
   10.2930  -17.4780   25.5943 C   0  0  0  0  0  0  0  0  0  0  0  0
   11.5306  -18.0566   25.8222 O   0  0  0  0  0  0  0  0  0  0  0  0
    9.3016  -18.2782   25.5947 O   0  0  0  0  0  0  0  0  0  0  0  0
  2  1  1  0
  2  3  2  0
  4  2  1  0
  5  4  1  0
  5  6  1  1
  7  8  2  0
  7  5  1  0
  9 10  1  0
 11 10  1  6
 11 12  1  0
 12  7  1  0
 13 11  1  0
 13 21  1  0
 14 13  2  0
 16 17  2  0
 16 15  1  0
 18 16  1  0
 20 19  1  1
 19 18  1  0
 20 21  1  0
 20 22  1  0
 22 23  1  0
 24 22  2  0
M  END
$$$$
