NSQ.pdb
     RDKit          3D

 24 23  0  0  1  0  0  0  0  0999 V2000
    8.0778  -13.4604   13.3684 N   0  0  0  0  0  0  0  0  0  0  0  0
    7.3118  -13.7976   14.5285 C   0  0  0  0  0  0  0  0  0  0  0  0
    6.2630  -14.4606   14.3604 O   0  0  0  0  0  0  0  0  0  0  0  0
    7.7111  -13.3962   15.8917 C   0  0  0  0  0  0  0  0  0  0  0  0
    8.2397  -14.5789   16.6302 C   0  0  2  0  0  0  0  0  0  0  0  0
    7.3157  -15.6707   16.6847 N   0  0  0  0  0  0  0  0  0  0  0  0
    8.7394  -14.2056   17.9995 C   0  0  0  0  0  0  0  0  0  0  0  0
    9.8674  -13.6806   18.1603 O   0  0  0  0  0  0  0  0  0  0  0  0
    6.8373  -15.5731   21.5455 O   0  0  0  0  0  0  0  0  0  0  0  0
    7.3236  -14.2820   21.5107 C   0  0  0  0  0  0  0  0  0  0  0  0
    8.4786  -14.2476   20.4988 C   0  0  2  0  0  0  0  0  0  0  0  0
    7.9644  -14.4287   19.1592 N   0  0  0  0  0  0  0  0  0  0  0  0
    9.5092  -15.2589   20.8360 C   0  0  0  0  0  0  0  0  0  0  0  0
    9.6994  -16.2018   19.9914 O   0  0  0  0  0  0  0  0  0  0  0  0
   13.6627  -13.8912   18.7003 N   0  0  0  0  0  0  0  0  0  0  0  0
   14.1302  -14.5096   19.8900 C   0  0  0  0  0  0  0  0  0  0  0  0
   15.3663  -14.8480   19.8975 O   0  0  0  0  0  0  0  0  0  0  0  0
   13.2618  -14.7532   21.0655 C   0  0  0  0  0  0  0  0  0  0  0  0
   12.3194  -15.8817   20.9458 C   0  0  0  0  0  0  0  0  0  0  0  0
   11.4583  -16.2124   22.1279 C   0  0  2  0  0  0  0  0  0  0  0  0
   10.3005  -15.2904   21.9862 N   0  0  0  0  0  0  0  0  0  0  0  0
   12.0346  -16.1967   23.4434 C   0  0  0  0  0  0  0  0  0  0  0  0
   11.5566  -15.3890   24.4618 O   0  0  0  0  0  0  0  0  0  0  0  0
   13.0327  -16.9297   23.7432 O   0  0  0  0  0  0  0  0  0  0  0  0
  2  1  1  0
  2  3  2  0
  4  2  1  0
  5  4  1  0
  5  6  1  1
  7  8  2  0
  7  5  1  0
  9 10  1  0
 11 10  1  1
 11 12  1  0
 12  7  1  0
 13 11  1  0
 13 21  1  0
 14 13  2  0
 16 17  2  0
 16 15  1  0
 18 16  1  0
 20 19  1  6
 19 18  1  0
 20 21  1  0
 20 22  1  0
 22 23  1  0
 24 22  2  0
M  END
$$$$
