NSQ.pdb
     RDKit          3D

 24 23  0  0  1  0  0  0  0  0999 V2000
    7.3374  -16.2927   16.9391 N   0  0  0  0  0  0  0  0  0  0  0  0
    7.3182  -17.2763   17.9775 C   0  0  0  0  0  0  0  0  0  0  0  0
    7.0838  -18.4622   17.6510 O   0  0  0  0  0  0  0  0  0  0  0  0
    7.5614  -16.9439   19.3949 C   0  0  0  0  0  0  0  0  0  0  0  0
    7.6870  -15.4662   19.5511 C   0  0  2  0  0  0  0  0  0  0  0  0
    8.1925  -14.8150   18.3810 N   0  0  0  0  0  0  0  0  0  0  0  0
    8.4788  -15.0987   20.7767 C   0  0  0  0  0  0  0  0  0  0  0  0
    9.6754  -14.7313   20.6929 O   0  0  0  0  0  0  0  0  0  0  0  0
    6.6218  -14.7349   24.4586 O   0  0  0  0  0  0  0  0  0  0  0  0
    7.7680  -14.0038   24.2203 C   0  0  0  0  0  0  0  0  0  0  0  0
    8.6523  -14.8232   23.2687 C   0  0  2  0  0  0  0  0  0  0  0  0
    7.9128  -15.1508   22.0698 N   0  0  0  0  0  0  0  0  0  0  0  0
    9.1757  -16.0354   23.9432 C   0  0  0  0  0  0  0  0  0  0  0  0
    8.4650  -17.0975   23.8679 O   0  0  0  0  0  0  0  0  0  0  0  0
   11.7663  -20.2939   24.0164 N   0  0  0  0  0  0  0  0  0  0  0  0
   12.2123  -19.2674   23.1425 C   0  0  0  0  0  0  0  0  0  0  0  0
   12.3756  -19.6059   21.9173 O   0  0  0  0  0  0  0  0  0  0  0  0
   12.4731  -17.8811   23.5959 C   0  0  0  0  0  0  0  0  0  0  0  0
   12.1742  -17.6013   25.0131 C   0  0  0  0  0  0  0  0  0  0  0  0
   10.7445  -17.3721   25.4024 C   0  0  2  0  0  0  0  0  0  0  0  0
   10.3717  -16.1413   24.6562 N   0  0  0  0  0  0  0  0  0  0  0  0
   10.3958  -17.3155   26.7946 C   0  0  0  0  0  0  0  0  0  0  0  0
   10.5206  -18.4027   27.6436 O   0  0  0  0  0  0  0  0  0  0  0  0
    9.9414  -16.2503   27.3257 O   0  0  0  0  0  0  0  0  0  0  0  0
  2  1  1  0
  2  3  2  0
  4  2  1  0
  5  4  1  0
  5  6  1  6
  7  8  2  0
  7  5  1  0
  9 10  1  0
 11 10  1  1
 11 12  1  0
 12  7  1  0
 13 11  1  0
 13 21  1  0
 14 13  2  0
 16 17  2  0
 16 15  1  0
 18 16  1  0
 20 19  1  1
 19 18  1  0
 20 21  1  0
 20 22  1  0
 22 23  1  0
 24 22  2  0
M  END
$$$$
