NSQ.pdb
     RDKit          3D

 24 23  0  0  1  0  0  0  0  0999 V2000
    6.5563  -17.3535   14.0407 N   0  0  0  0  0  0  0  0  0  0  0  0
    7.9828  -17.3857   14.1422 C   0  0  0  0  0  0  0  0  0  0  0  0
    8.6218  -17.8986   13.1954 O   0  0  0  0  0  0  0  0  0  0  0  0
    8.7115  -16.8437   15.3058 C   0  0  0  0  0  0  0  0  0  0  0  0
    8.5428  -15.3631   15.3604 C   0  0  2  0  0  0  0  0  0  0  0  0
    9.0875  -14.6896   14.2209 N   0  0  0  0  0  0  0  0  0  0  0  0
    9.0666  -14.7876   16.6483 C   0  0  0  0  0  0  0  0  0  0  0  0
   10.2958  -14.7626   16.8978 O   0  0  0  0  0  0  0  0  0  0  0  0
    6.6034  -14.3238   19.9595 O   0  0  0  0  0  0  0  0  0  0  0  0
    7.4737  -13.2746   19.7440 C   0  0  0  0  0  0  0  0  0  0  0  0
    8.6586  -13.8135   18.9288 C   0  0  2  0  0  0  0  0  0  0  0  0
    8.2019  -14.2526   17.6287 N   0  0  0  0  0  0  0  0  0  0  0  0
    9.3585  -14.8953   19.6624 C   0  0  0  0  0  0  0  0  0  0  0  0
    9.7820  -15.8878   18.9737 O   0  0  0  0  0  0  0  0  0  0  0  0
   14.1347  -14.1611   19.1449 N   0  0  0  0  0  0  0  0  0  0  0  0
   14.0512  -15.5350   19.4935 C   0  0  0  0  0  0  0  0  0  0  0  0
   15.0084  -16.2783   19.0770 O   0  0  0  0  0  0  0  0  0  0  0  0
   12.9381  -16.0961   20.2946 C   0  0  0  0  0  0  0  0  0  0  0  0
   11.9311  -15.1257   20.7641 C   0  0  0  0  0  0  0  0  0  0  0  0
   10.7966  -15.6337   21.6025 C   0  0  2  0  0  0  0  0  0  0  0  0
    9.6070  -14.9451   21.0357 N   0  0  0  0  0  0  0  0  0  0  0  0
   10.8794  -15.5319   23.0328 C   0  0  0  0  0  0  0  0  0  0  0  0
   11.6635  -16.3770   23.8005 O   0  0  0  0  0  0  0  0  0  0  0  0
   10.2222  -14.6517   23.6782 O   0  0  0  0  0  0  0  0  0  0  0  0
  2  1  1  0
  2  3  2  0
  4  2  1  0
  5  4  1  0
  5  6  1  6
  7  8  2  0
  7  5  1  0
  9 10  1  0
 11 10  1  1
 11 12  1  0
 12  7  1  0
 13 11  1  0
 13 21  1  0
 14 13  2  0
 16 17  2  0
 16 15  1  0
 18 16  1  0
 20 19  1  6
 19 18  1  0
 20 21  1  0
 20 22  1  0
 22 23  1  0
 24 22  2  0
M  END
$$$$
