DEQ.pdb
     RDKit          3D

 27 26  0  0  1  0  0  0  0  0999 V2000
    7.2272  -15.8182   18.4328 N   0  0  0  0  0  0  0  0  0  0  0  0
    6.6444  -17.0013   19.0070 C   0  0  1  0  0  0  0  0  0  0  0  0
    7.2318  -18.1904   18.2537 C   0  0  0  0  0  0  0  0  0  0  0  0
    8.6982  -18.1047   18.2667 C   0  0  0  0  0  0  0  0  0  0  0  0
    9.2614  -17.1505   18.8511 O   0  0  0  0  0  0  0  0  0  0  0  0
    6.8237  -17.1165   20.4535 C   0  0  0  0  0  0  0  0  0  0  0  0
    6.5463  -16.1300   21.1705 O   0  0  0  0  0  0  0  0  0  0  0  0
    9.5232  -19.0466   17.6515 O   0  0  0  0  0  0  0  0  0  0  0  0
    7.2931  -18.2885   21.0587 N   0  0  0  0  0  0  0  0  0  0  0  0
    7.4775  -18.4462   22.5082 C   0  0  1  0  0  0  0  0  0  0  0  0
    7.4830  -19.8675   22.9022 C   0  0  0  0  0  0  0  0  0  0  0  0
    6.1093  -20.4554   22.9533 C   0  0  0  0  0  0  0  0  0  0  0  0
    6.0630  -21.8877   23.3263 C   0  0  0  0  0  0  0  0  0  0  0  0
    5.9300  -22.2824   24.4952 O   0  0  0  0  0  0  0  0  0  0  0  0
    8.7325  -17.7629   22.8912 C   0  0  0  0  0  0  0  0  0  0  0  0
    9.5153  -17.2244   22.0708 O   0  0  0  0  0  0  0  0  0  0  0  0
    6.1717  -22.8903   22.3383 O   0  0  0  0  0  0  0  0  0  0  0  0
    6.0095  -13.8745   24.3733 N   0  0  0  0  0  0  0  0  0  0  0  0
    7.1435  -13.3309   25.0257 C   0  0  0  0  0  0  0  0  0  0  0  0
    7.1671  -12.1560   25.4348 O   0  0  0  0  0  0  0  0  0  0  0  0
    8.3545  -14.1769   25.2375 C   0  0  0  0  0  0  0  0  0  0  0  0
    8.1553  -15.5567   24.7048 C   0  0  0  0  0  0  0  0  0  0  0  0
    9.3799  -16.3907   24.8762 C   0  0  2  0  0  0  0  0  0  0  0  0
    9.1062  -17.6935   24.2673 N   0  0  0  0  0  0  0  0  0  0  0  0
    9.8304  -16.5737   26.2685 C   0  0  0  0  0  0  0  0  0  0  0  0
    9.5715  -17.8133   26.8974 O   0  0  0  0  0  0  0  0  0  0  0  0
   10.4298  -15.7089   26.9430 O   0  0  0  0  0  0  0  0  0  0  0  0
  2  1  1  6
  3  2  1  0
  4  3  1  0
  5  4  2  0
  6  7  2  0
  6  2  1  0
  8  4  1  0
  9  6  1  0
 10 11  1  6
 10  9  1  0
 11 12  1  0
 13 17  1  0
 13 12  1  0
 14 13  2  0
 15 10  1  0
 15 16  2  0
 19 18  1  0
 20 19  2  0
 21 19  1  0
 22 21  1  0
 23 22  1  1
 23 24  1  0
 24 15  1  0
 25 23  1  0
 26 25  1  0
 27 25  2  0
M  END
$$$$
