DEQ.pdb
     RDKit          3D

 27 26  0  0  1  0  0  0  0  0999 V2000
   13.4759  -19.2104   20.3689 N   0  0  0  0  0  0  0  0  0  0  0  0
   13.2650  -17.8314   20.7191 C   0  0  1  0  0  0  0  0  0  0  0  0
   13.0024  -17.0825   19.4167 C   0  0  0  0  0  0  0  0  0  0  0  0
   14.2419  -17.0127   18.6314 C   0  0  0  0  0  0  0  0  0  0  0  0
   14.7386  -18.0600   18.1568 O   0  0  0  0  0  0  0  0  0  0  0  0
   12.2069  -17.6184   21.7055 C   0  0  0  0  0  0  0  0  0  0  0  0
   11.9604  -16.4491   22.0745 O   0  0  0  0  0  0  0  0  0  0  0  0
   14.9169  -15.8188   18.3754 O   0  0  0  0  0  0  0  0  0  0  0  0
   11.4650  -18.6748   22.2473 N   0  0  0  0  0  0  0  0  0  0  0  0
   10.4004  -18.5023   23.2458 C   0  0  1  0  0  0  0  0  0  0  0  0
    9.5595  -19.7091   23.3553 C   0  0  0  0  0  0  0  0  0  0  0  0
   10.3509  -20.9333   23.6868 C   0  0  0  0  0  0  0  0  0  0  0  0
    9.5383  -22.1436   23.9462 C   0  0  0  0  0  0  0  0  0  0  0  0
    9.3019  -23.0025   23.0822 O   0  0  0  0  0  0  0  0  0  0  0  0
   11.0309  -18.1505   24.5370 C   0  0  0  0  0  0  0  0  0  0  0  0
   12.2067  -18.4597   24.8497 O   0  0  0  0  0  0  0  0  0  0  0  0
    8.9838  -22.3755   25.2237 O   0  0  0  0  0  0  0  0  0  0  0  0
    9.5045  -13.1962   27.9296 N   0  0  0  0  0  0  0  0  0  0  0  0
   10.2723  -13.9287   28.8681 C   0  0  0  0  0  0  0  0  0  0  0  0
   10.4960  -13.4987   30.0142 O   0  0  0  0  0  0  0  0  0  0  0  0
   10.8378  -15.2569   28.4894 C   0  0  0  0  0  0  0  0  0  0  0  0
   10.3619  -15.6875   27.1420 C   0  0  0  0  0  0  0  0  0  0  0  0
   10.9321  -17.0112   26.7585 C   0  0  2  0  0  0  0  0  0  0  0  0
   10.2862  -17.4160   25.5087 N   0  0  0  0  0  0  0  0  0  0  0  0
   10.7861  -18.0784   27.7658 C   0  0  0  0  0  0  0  0  0  0  0  0
    9.6884  -18.9619   27.6494 O   0  0  0  0  0  0  0  0  0  0  0  0
   11.5657  -18.2644   28.7249 O   0  0  0  0  0  0  0  0  0  0  0  0
  2  1  1  6
  3  2  1  0
  4  3  1  0
  5  4  2  0
  6  7  2  0
  6  2  1  0
  8  4  1  0
  9  6  1  0
 10 11  1  1
 10  9  1  0
 11 12  1  0
 13 17  1  0
 13 12  1  0
 14 13  2  0
 15 10  1  0
 15 16  2  0
 19 18  1  0
 20 19  2  0
 21 19  1  0
 22 21  1  0
 23 22  1  1
 23 24  1  0
 24 15  1  0
 25 23  1  0
 26 25  1  0
 27 25  2  0
M  END
$$$$
