DEQ.pdb
     RDKit          3D

 27 26  0  0  1  0  0  0  0  0999 V2000
    9.0275  -16.3212   19.8598 N   0  0  0  0  0  0  0  0  0  0  0  0
    8.8175  -17.7276   20.0763 C   0  0  1  0  0  0  0  0  0  0  0  0
   10.1854  -18.3956   19.9834 C   0  0  0  0  0  0  0  0  0  0  0  0
   10.7923  -18.0938   18.6802 C   0  0  0  0  0  0  0  0  0  0  0  0
   11.5194  -17.0821   18.5508 O   0  0  0  0  0  0  0  0  0  0  0  0
    8.1276  -18.0455   21.3257 C   0  0  0  0  0  0  0  0  0  0  0  0
    8.1505  -17.2051   22.2515 O   0  0  0  0  0  0  0  0  0  0  0  0
   10.6027  -18.8867   17.5480 O   0  0  0  0  0  0  0  0  0  0  0  0
    7.4462  -19.2532   21.5181 N   0  0  0  0  0  0  0  0  0  0  0  0
    6.6504  -19.5647   22.7139 C   0  0  1  0  0  0  0  0  0  0  0  0
    5.7293  -20.6913   22.4735 C   0  0  0  0  0  0  0  0  0  0  0  0
    4.9055  -21.0270   23.6750 C   0  0  0  0  0  0  0  0  0  0  0  0
    3.9951  -22.1813   23.4978 C   0  0  0  0  0  0  0  0  0  0  0  0
    3.7704  -23.0138   24.3902 O   0  0  0  0  0  0  0  0  0  0  0  0
    7.5820  -19.8424   23.8291 C   0  0  0  0  0  0  0  0  0  0  0  0
    8.6707  -20.4532   23.6968 O   0  0  0  0  0  0  0  0  0  0  0  0
    3.3273  -22.3868   22.2711 O   0  0  0  0  0  0  0  0  0  0  0  0
   10.1662  -18.3772   29.9832 N   0  0  0  0  0  0  0  0  0  0  0  0
    9.6689  -17.6548   28.8707 C   0  0  0  0  0  0  0  0  0  0  0  0
   10.2247  -16.6220   28.4549 O   0  0  0  0  0  0  0  0  0  0  0  0
    8.4439  -18.1310   28.1639 C   0  0  0  0  0  0  0  0  0  0  0  0
    8.7005  -18.3388   26.7085 C   0  0  0  0  0  0  0  0  0  0  0  0
    8.1870  -19.6606   26.2464 C   0  0  2  0  0  0  0  0  0  0  0  0
    7.2545  -19.4038   25.1476 N   0  0  0  0  0  0  0  0  0  0  0  0
    7.5282  -20.4797   27.2808 C   0  0  0  0  0  0  0  0  0  0  0  0
    6.1150  -20.5171   27.3042 O   0  0  0  0  0  0  0  0  0  0  0  0
    8.1285  -21.1506   28.1478 O   0  0  0  0  0  0  0  0  0  0  0  0
  2  1  1  1
  3  2  1  0
  4  3  1  0
  5  4  2  0
  6  7  2  0
  6  2  1  0
  8  4  1  0
  9  6  1  0
 10 11  1  6
 10  9  1  0
 11 12  1  0
 13 17  1  0
 13 12  1  0
 14 13  2  0
 15 10  1  0
 15 16  2  0
 19 18  1  0
 20 19  2  0
 21 19  1  0
 22 21  1  0
 23 22  1  1
 23 24  1  0
 24 15  1  0
 25 23  1  0
 26 25  1  0
 27 25  2  0
M  END
$$$$
