DEQ.pdb
     RDKit          3D

 27 26  0  0  1  0  0  0  0  0999 V2000
   10.1781  -17.2459   17.6137 N   0  0  0  0  0  0  0  0  0  0  0  0
    9.9739  -18.3516   18.5108 C   0  0  1  0  0  0  0  0  0  0  0  0
   10.0855  -19.6222   17.6745 C   0  0  0  0  0  0  0  0  0  0  0  0
   10.3214  -19.2664   16.2690 C   0  0  0  0  0  0  0  0  0  0  0  0
   10.0121  -20.0727   15.3617 O   0  0  0  0  0  0  0  0  0  0  0  0
   10.8747  -18.3635   19.6624 C   0  0  0  0  0  0  0  0  0  0  0  0
   10.8201  -19.3302   20.4539 O   0  0  0  0  0  0  0  0  0  0  0  0
   10.8837  -18.0525   15.8731 O   0  0  0  0  0  0  0  0  0  0  0  0
   11.7913  -17.3337   19.9065 N   0  0  0  0  0  0  0  0  0  0  0  0
   12.6810  -17.2872   21.0754 C   0  0  1  0  0  0  0  0  0  0  0  0
   13.8188  -16.3752   20.8543 C   0  0  0  0  0  0  0  0  0  0  0  0
   14.7176  -16.2778   22.0451 C   0  0  0  0  0  0  0  0  0  0  0  0
   15.8754  -15.3710   21.8735 C   0  0  0  0  0  0  0  0  0  0  0  0
   16.6180  -15.0315   22.8079 O   0  0  0  0  0  0  0  0  0  0  0  0
   11.8770  -16.8907   22.2522 C   0  0  0  0  0  0  0  0  0  0  0  0
   11.2843  -15.7890   22.3567 O   0  0  0  0  0  0  0  0  0  0  0  0
   16.1898  -14.8410   20.6034 O   0  0  0  0  0  0  0  0  0  0  0  0
   12.8659  -21.1941   26.3228 N   0  0  0  0  0  0  0  0  0  0  0  0
   11.6411  -20.4995   26.4788 C   0  0  0  0  0  0  0  0  0  0  0  0
   10.5961  -21.0782   26.8275 O   0  0  0  0  0  0  0  0  0  0  0  0
   11.5828  -19.0306   26.2219 C   0  0  0  0  0  0  0  0  0  0  0  0
   10.5491  -18.6970   25.1985 C   0  0  0  0  0  0  0  0  0  0  0  0
   10.8809  -17.4338   24.4783 C   0  0  2  0  0  0  0  0  0  0  0  0
   11.7463  -17.7906   23.3529 N   0  0  0  0  0  0  0  0  0  0  0  0
   11.5279  -16.3910   25.2962 C   0  0  0  0  0  0  0  0  0  0  0  0
   10.7075  -15.5693   26.1030 O   0  0  0  0  0  0  0  0  0  0  0  0
   12.7584  -16.1747   25.3319 O   0  0  0  0  0  0  0  0  0  0  0  0
  2  1  1  6
  3  2  1  0
  4  3  1  0
  5  4  2  0
  6  7  2  0
  6  2  1  0
  8  4  1  0
  9  6  1  0
 10 11  1  6
 10  9  1  0
 11 12  1  0
 13 17  1  0
 13 12  1  0
 14 13  2  0
 15 10  1  0
 15 16  2  0
 19 18  1  0
 20 19  2  0
 21 19  1  0
 22 21  1  0
 23 22  1  1
 23 24  1  0
 24 15  1  0
 25 23  1  0
 26 25  1  0
 27 25  2  0
M  END
$$$$
