DEQ.pdb
     RDKit          3D

 27 26  0  0  1  0  0  0  0  0999 V2000
    9.7494  -15.1150   18.3364 N   0  0  0  0  0  0  0  0  0  0  0  0
    8.7058  -14.3403   18.9527 C   0  0  1  0  0  0  0  0  0  0  0  0
    7.5930  -14.2013   17.9190 C   0  0  0  0  0  0  0  0  0  0  0  0
    8.1769  -14.1522   16.5720 C   0  0  0  0  0  0  0  0  0  0  0  0
    9.0812  -13.3245   16.3146 O   0  0  0  0  0  0  0  0  0  0  0  0
    8.2221  -14.8868   20.2197 C   0  0  0  0  0  0  0  0  0  0  0  0
    7.3081  -14.2814   20.8216 O   0  0  0  0  0  0  0  0  0  0  0  0
    7.7745  -14.9939   15.5347 O   0  0  0  0  0  0  0  0  0  0  0  0
    8.7457  -16.0591   20.7779 N   0  0  0  0  0  0  0  0  0  0  0  0
    8.2728  -16.6504   22.0375 C   0  0  1  0  0  0  0  0  0  0  0  0
    8.6510  -18.0720   22.1444 C   0  0  0  0  0  0  0  0  0  0  0  0
   10.1273  -18.2836   22.0400 C   0  0  0  0  0  0  0  0  0  0  0  0
   10.5525  -19.7017   22.0696 C   0  0  0  0  0  0  0  0  0  0  0  0
   11.2883  -20.1731   22.9506 O   0  0  0  0  0  0  0  0  0  0  0  0
    8.8161  -15.8495   23.1564 C   0  0  0  0  0  0  0  0  0  0  0  0
    9.9812  -15.3827   23.1826 O   0  0  0  0  0  0  0  0  0  0  0  0
   10.1253  -20.5999   21.0677 O   0  0  0  0  0  0  0  0  0  0  0  0
    5.2736  -11.9101   26.1492 N   0  0  0  0  0  0  0  0  0  0  0  0
    6.5178  -11.6948   26.7914 C   0  0  0  0  0  0  0  0  0  0  0  0
    6.7145  -10.7158   27.5340 O   0  0  0  0  0  0  0  0  0  0  0  0
    7.6373  -12.6595   26.5835 C   0  0  0  0  0  0  0  0  0  0  0  0
    7.3071  -13.6573   25.5239 C   0  0  0  0  0  0  0  0  0  0  0  0
    8.4410  -14.5961   25.2850 C   0  0  2  0  0  0  0  0  0  0  0  0
    7.9937  -15.5722   24.2899 N   0  0  0  0  0  0  0  0  0  0  0  0
    8.9451  -15.2960   26.4811 C   0  0  0  0  0  0  0  0  0  0  0  0
    9.7788  -14.5816   27.3720 O   0  0  0  0  0  0  0  0  0  0  0  0
    8.6899  -16.4846   26.7717 O   0  0  0  0  0  0  0  0  0  0  0  0
  2  1  1  6
  3  2  1  0
  4  3  1  0
  5  4  2  0
  6  7  2  0
  6  2  1  0
  8  4  1  0
  9  6  1  0
 10 11  1  1
 10  9  1  0
 11 12  1  0
 13 17  1  0
 13 12  1  0
 14 13  2  0
 15 10  1  0
 15 16  2  0
 19 18  1  0
 20 19  2  0
 21 19  1  0
 22 21  1  0
 23 22  1  1
 23 24  1  0
 24 15  1  0
 25 23  1  0
 26 25  1  0
 27 25  2  0
M  END
$$$$
