DEQ.pdb
     RDKit          3D

 27 26  0  0  1  0  0  0  0  0999 V2000
    9.6465  -16.3970   18.9822 N   0  0  0  0  0  0  0  0  0  0  0  0
    8.4876  -16.7372   19.7635 C   0  0  1  0  0  0  0  0  0  0  0  0
    7.5796  -17.5688   18.8634 C   0  0  0  0  0  0  0  0  0  0  0  0
    7.6682  -17.0733   17.4834 C   0  0  0  0  0  0  0  0  0  0  0  0
    8.4380  -16.1236   17.2106 O   0  0  0  0  0  0  0  0  0  0  0  0
    8.7915  -17.4137   21.0235 C   0  0  0  0  0  0  0  0  0  0  0  0
    8.4319  -18.6031   21.1651 O   0  0  0  0  0  0  0  0  0  0  0  0
    6.9271  -17.6107   16.4306 O   0  0  0  0  0  0  0  0  0  0  0  0
    9.4681  -16.7770   22.0708 N   0  0  0  0  0  0  0  0  0  0  0  0
   10.4802  -17.4316   22.9118 C   0  0  1  0  0  0  0  0  0  0  0  0
   11.6256  -17.9047   22.1120 C   0  0  0  0  0  0  0  0  0  0  0  0
   12.6527  -18.6090   22.9391 C   0  0  0  0  0  0  0  0  0  0  0  0
   13.8359  -19.0819   22.1849 C   0  0  0  0  0  0  0  0  0  0  0  0
   14.6465  -18.3160   21.6406 O   0  0  0  0  0  0  0  0  0  0  0  0
   10.8974  -16.4757   23.9609 C   0  0  0  0  0  0  0  0  0  0  0  0
   11.7440  -16.7371   24.8501 O   0  0  0  0  0  0  0  0  0  0  0  0
   14.0966  -20.4629   22.0510 O   0  0  0  0  0  0  0  0  0  0  0  0
    6.0039  -12.8710   24.5166 N   0  0  0  0  0  0  0  0  0  0  0  0
    6.4360  -12.9654   25.8625 C   0  0  0  0  0  0  0  0  0  0  0  0
    5.7539  -12.5243   26.8052 O   0  0  0  0  0  0  0  0  0  0  0  0
    7.7447  -13.6093   26.1785 C   0  0  0  0  0  0  0  0  0  0  0  0
    8.4565  -14.0346   24.9376 C   0  0  0  0  0  0  0  0  0  0  0  0
    9.7780  -14.6513   25.2499 C   0  0  2  0  0  0  0  0  0  0  0  0
   10.3227  -15.1692   23.9937 N   0  0  0  0  0  0  0  0  0  0  0  0
    9.7523  -15.7223   26.2634 C   0  0  0  0  0  0  0  0  0  0  0  0
   10.3205  -15.4572   27.5307 O   0  0  0  0  0  0  0  0  0  0  0  0
    9.2619  -16.8584   26.0872 O   0  0  0  0  0  0  0  0  0  0  0  0
  2  1  1  6
  3  2  1  0
  4  3  1  0
  5  4  2  0
  6  7  2  0
  6  2  1  0
  8  4  1  0
  9  6  1  0
 10 11  1  6
 10  9  1  0
 11 12  1  0
 13 17  1  0
 13 12  1  0
 14 13  2  0
 15 10  1  0
 15 16  2  0
 19 18  1  0
 20 19  2  0
 21 19  1  0
 22 21  1  0
 23 22  1  6
 23 24  1  0
 24 15  1  0
 25 23  1  0
 26 25  1  0
 27 25  2  0
M  END
$$$$
