DEQ.pdb
     RDKit          3D

 27 26  0  0  1  0  0  0  0  0999 V2000
    8.0126  -18.0679   19.2486 N   0  0  0  0  0  0  0  0  0  0  0  0
    9.0826  -17.4848   20.0129 C   0  0  1  0  0  0  0  0  0  0  0  0
    9.3860  -16.1300   19.3815 C   0  0  0  0  0  0  0  0  0  0  0  0
    9.9881  -16.3291   18.0565 C   0  0  0  0  0  0  0  0  0  0  0  0
    9.5170  -15.7312   17.0617 O   0  0  0  0  0  0  0  0  0  0  0  0
    8.8090  -17.3814   21.4454 C   0  0  0  0  0  0  0  0  0  0  0  0
    7.6996  -16.9346   21.8112 O   0  0  0  0  0  0  0  0  0  0  0  0
   11.0820  -17.1659   17.8333 O   0  0  0  0  0  0  0  0  0  0  0  0
    9.7431  -17.7640   22.4155 N   0  0  0  0  0  0  0  0  0  0  0  0
    9.4550  -17.8180   23.8557 C   0  0  1  0  0  0  0  0  0  0  0  0
   10.3030  -18.8113   24.5410 C   0  0  0  0  0  0  0  0  0  0  0  0
   10.0753  -18.8403   26.0183 C   0  0  0  0  0  0  0  0  0  0  0  0
   10.9811  -19.7419   26.7661 C   0  0  0  0  0  0  0  0  0  0  0  0
   11.8096  -20.4836   26.2154 O   0  0  0  0  0  0  0  0  0  0  0  0
    9.6355  -16.4599   24.4140 C   0  0  0  0  0  0  0  0  0  0  0  0
   10.6267  -15.7288   24.1713 O   0  0  0  0  0  0  0  0  0  0  0  0
   10.9370  -19.7953   28.1762 O   0  0  0  0  0  0  0  0  0  0  0  0
    5.0922  -12.5699   25.9146 N   0  0  0  0  0  0  0  0  0  0  0  0
    6.2156  -11.8883   26.4441 C   0  0  0  0  0  0  0  0  0  0  0  0
    6.1302  -10.7333   26.8993 O   0  0  0  0  0  0  0  0  0  0  0  0
    7.5486  -12.5588   26.4651 C   0  0  0  0  0  0  0  0  0  0  0  0
    7.4869  -13.9138   25.8425 C   0  0  0  0  0  0  0  0  0  0  0  0
    8.8239  -14.5747   25.8388 C   0  0  2  0  0  0  0  0  0  0  0  0
    8.6424  -15.9174   25.2844 N   0  0  0  0  0  0  0  0  0  0  0  0
    9.4902  -14.6611   27.1516 C   0  0  0  0  0  0  0  0  0  0  0  0
   10.1856  -13.5245   27.6244 O   0  0  0  0  0  0  0  0  0  0  0  0
    9.4879  -15.6721   27.8866 O   0  0  0  0  0  0  0  0  0  0  0  0
  2  1  1  6
  3  2  1  0
  4  3  1  0
  5  4  2  0
  6  7  2  0
  6  2  1  0
  8  4  1  0
  9  6  1  0
 10 11  1  1
 10  9  1  0
 11 12  1  0
 13 17  1  0
 13 12  1  0
 14 13  2  0
 15 10  1  0
 15 16  2  0
 19 18  1  0
 20 19  2  0
 21 19  1  0
 22 21  1  0
 23 22  1  1
 23 24  1  0
 24 15  1  0
 25 23  1  0
 26 25  1  0
 27 25  2  0
M  END
$$$$
