DEQ.pdb
     RDKit          3D

 27 26  0  0  1  0  0  0  0  0999 V2000
    8.7697  -15.5667   19.3192 N   0  0  0  0  0  0  0  0  0  0  0  0
    7.7054  -16.0335   20.1667 C   0  0  1  0  0  0  0  0  0  0  0  0
    6.9248  -17.0678   19.3624 C   0  0  0  0  0  0  0  0  0  0  0  0
    7.1117  -16.8174   17.9271 C   0  0  0  0  0  0  0  0  0  0  0  0
    7.9182  -15.9372   17.5480 O   0  0  0  0  0  0  0  0  0  0  0  0
    8.1519  -16.5550   21.4577 C   0  0  0  0  0  0  0  0  0  0  0  0
    7.2921  -16.9808   22.2599 O   0  0  0  0  0  0  0  0  0  0  0  0
    6.4270  -17.5191   16.9345 O   0  0  0  0  0  0  0  0  0  0  0  0
    9.5029  -16.5929   21.8229 N   0  0  0  0  0  0  0  0  0  0  0  0
    9.9902  -17.1030   23.1123 C   0  0  1  0  0  0  0  0  0  0  0  0
   11.2288  -17.8874   22.9514 C   0  0  0  0  0  0  0  0  0  0  0  0
   12.2190  -17.2206   22.0514 C   0  0  0  0  0  0  0  0  0  0  0  0
   13.4776  -17.9743   21.8503 C   0  0  0  0  0  0  0  0  0  0  0  0
   14.0514  -18.0600   20.7534 O   0  0  0  0  0  0  0  0  0  0  0  0
   10.1805  -15.9522   24.0221 C   0  0  0  0  0  0  0  0  0  0  0  0
   10.5701  -14.8194   23.6467 O   0  0  0  0  0  0  0  0  0  0  0  0
   14.0927  -18.6449   22.9296 O   0  0  0  0  0  0  0  0  0  0  0  0
    7.0631  -11.9657   25.5198 N   0  0  0  0  0  0  0  0  0  0  0  0
    6.7233  -12.9917   26.4356 C   0  0  0  0  0  0  0  0  0  0  0  0
    5.6761  -12.9546   27.1067 O   0  0  0  0  0  0  0  0  0  0  0  0
    7.6356  -14.1592   26.6144 C   0  0  0  0  0  0  0  0  0  0  0  0
    8.8918  -13.9949   25.8256 C   0  0  0  0  0  0  0  0  0  0  0  0
    9.9556  -14.9308   26.2912 C   0  0  2  0  0  0  0  0  0  0  0  0
    9.9145  -16.1039   25.4165 N   0  0  0  0  0  0  0  0  0  0  0  0
    9.8535  -15.3534   27.7004 C   0  0  0  0  0  0  0  0  0  0  0  0
   10.3450  -14.4798   28.6976 O   0  0  0  0  0  0  0  0  0  0  0  0
    9.3609  -16.4355   28.0859 O   0  0  0  0  0  0  0  0  0  0  0  0
  2  1  1  6
  3  2  1  0
  4  3  1  0
  5  4  2  0
  6  7  2  0
  6  2  1  0
  8  4  1  0
  9  6  1  0
 10 11  1  6
 10  9  1  0
 11 12  1  0
 13 17  1  0
 13 12  1  0
 14 13  2  0
 15 10  1  0
 15 16  2  0
 19 18  1  0
 20 19  2  0
 21 19  1  0
 22 21  1  0
 23 22  1  6
 23 24  1  0
 24 15  1  0
 25 23  1  0
 26 25  1  0
 27 25  2  0
M  END
$$$$
