DEQ.pdb
     RDKit          3D

 27 26  0  0  1  0  0  0  0  0999 V2000
    9.6633  -16.2059   19.8462 N   0  0  0  0  0  0  0  0  0  0  0  0
    8.4487  -16.3298   20.6066 C   0  0  1  0  0  0  0  0  0  0  0  0
    7.5743  -17.3436   19.8759 C   0  0  0  0  0  0  0  0  0  0  0  0
    7.6219  -17.0827   18.4311 C   0  0  0  0  0  0  0  0  0  0  0  0
    8.3961  -16.2067   17.9813 O   0  0  0  0  0  0  0  0  0  0  0  0
    8.6536  -16.6827   22.0106 C   0  0  0  0  0  0  0  0  0  0  0  0
    7.6555  -16.7547   22.7606 O   0  0  0  0  0  0  0  0  0  0  0  0
    6.8363  -17.7697   17.5052 O   0  0  0  0  0  0  0  0  0  0  0  0
    9.9238  -16.9411   22.5398 N   0  0  0  0  0  0  0  0  0  0  0  0
   10.1748  -17.2600   23.9523 C   0  0  1  0  0  0  0  0  0  0  0  0
   11.4115  -18.0462   24.1188 C   0  0  0  0  0  0  0  0  0  0  0  0
   12.6358  -17.1894   24.1654 C   0  0  0  0  0  0  0  0  0  0  0  0
   13.9079  -17.9353   24.2990 C   0  0  0  0  0  0  0  0  0  0  0  0
   14.5628  -17.9804   25.3520 O   0  0  0  0  0  0  0  0  0  0  0  0
   10.2218  -15.9908   24.7110 C   0  0  0  0  0  0  0  0  0  0  0  0
   10.5584  -14.8889   24.2126 O   0  0  0  0  0  0  0  0  0  0  0  0
   14.4421  -18.6452   23.2018 O   0  0  0  0  0  0  0  0  0  0  0  0
    7.3334  -11.8025   24.9592 N   0  0  0  0  0  0  0  0  0  0  0  0
    6.8025  -12.4801   26.0843 C   0  0  0  0  0  0  0  0  0  0  0  0
    5.7106  -12.1620   26.5894 O   0  0  0  0  0  0  0  0  0  0  0  0
    7.5605  -13.6110   26.6955 C   0  0  0  0  0  0  0  0  0  0  0  0
    8.8667  -13.8269   26.0066 C   0  0  0  0  0  0  0  0  0  0  0  0
    9.7670  -14.7073   26.8058 C   0  0  2  0  0  0  0  0  0  0  0  0
    9.8699  -15.9826   26.0945 N   0  0  0  0  0  0  0  0  0  0  0  0
    9.3461  -14.9439   28.1992 C   0  0  0  0  0  0  0  0  0  0  0  0
    9.0377  -16.2676   28.5888 O   0  0  0  0  0  0  0  0  0  0  0  0
    9.2396  -14.0556   29.0720 O   0  0  0  0  0  0  0  0  0  0  0  0
  2  1  1  6
  3  2  1  0
  4  3  1  0
  5  4  2  0
  6  7  2  0
  6  2  1  0
  8  4  1  0
  9  6  1  0
 10 11  1  6
 10  9  1  0
 11 12  1  0
 13 17  1  0
 13 12  1  0
 14 13  2  0
 15 10  1  0
 15 16  2  0
 19 18  1  0
 20 19  2  0
 21 19  1  0
 22 21  1  0
 23 22  1  6
 23 24  1  0
 24 15  1  0
 25 23  1  0
 26 25  1  0
 27 25  2  0
M  END
$$$$
