DEQ.pdb
     RDKit          3D

 27 26  0  0  1  0  0  0  0  0999 V2000
   11.3269  -18.3844   21.3688 N   0  0  0  0  0  0  0  0  0  0  0  0
   10.7282  -17.0776   21.4216 C   0  0  1  0  0  0  0  0  0  0  0  0
    9.8753  -16.9340   20.1654 C   0  0  0  0  0  0  0  0  0  0  0  0
   10.7459  -16.8846   18.9833 C   0  0  0  0  0  0  0  0  0  0  0  0
   11.9890  -16.9518   19.1217 O   0  0  0  0  0  0  0  0  0  0  0  0
    9.9677  -16.8154   22.6425 C   0  0  0  0  0  0  0  0  0  0  0  0
    9.3030  -15.7587   22.7173 O   0  0  0  0  0  0  0  0  0  0  0  0
   10.2590  -16.7643   17.6814 O   0  0  0  0  0  0  0  0  0  0  0  0
    9.9595  -17.7038   23.7246 N   0  0  0  0  0  0  0  0  0  0  0  0
    9.1642  -17.5038   24.9443 C   0  0  1  0  0  0  0  0  0  0  0  0
    8.9307  -18.7758   25.6535 C   0  0  0  0  0  0  0  0  0  0  0  0
    7.8957  -19.6242   24.9869 C   0  0  0  0  0  0  0  0  0  0  0  0
    7.6331  -20.9189   25.6556 C   0  0  0  0  0  0  0  0  0  0  0  0
    6.7568  -21.0724   26.5208 O   0  0  0  0  0  0  0  0  0  0  0  0
    9.8651  -16.5180   25.7961 C   0  0  0  0  0  0  0  0  0  0  0  0
   11.1109  -16.4825   25.9465 O   0  0  0  0  0  0  0  0  0  0  0  0
    8.3911  -22.0635   25.3263 O   0  0  0  0  0  0  0  0  0  0  0  0
    7.0120  -11.3835   27.5927 N   0  0  0  0  0  0  0  0  0  0  0  0
    7.0901  -12.0889   26.3667 C   0  0  0  0  0  0  0  0  0  0  0  0
    6.3333  -11.8351   25.4120 O   0  0  0  0  0  0  0  0  0  0  0  0
    8.1032  -13.1714   26.1964 C   0  0  0  0  0  0  0  0  0  0  0  0
    8.9210  -13.3516   27.4317 C   0  0  0  0  0  0  0  0  0  0  0  0
    9.8065  -14.5475   27.3311 C   0  0  2  0  0  0  0  0  0  0  0  0
    9.1103  -15.5344   26.5038 N   0  0  0  0  0  0  0  0  0  0  0  0
   10.1946  -15.1567   28.6168 C   0  0  0  0  0  0  0  0  0  0  0  0
    9.7499  -16.4695   28.8958 O   0  0  0  0  0  0  0  0  0  0  0  0
   10.8938  -14.5966   29.4884 O   0  0  0  0  0  0  0  0  0  0  0  0
  2  1  1  1
  3  2  1  0
  4  3  1  0
  5  4  2  0
  6  7  2  0
  6  2  1  0
  8  4  1  0
  9  6  1  0
 10 11  1  1
 10  9  1  0
 11 12  1  0
 13 17  1  0
 13 12  1  0
 14 13  2  0
 15 10  1  0
 15 16  2  0
 19 18  1  0
 20 19  2  0
 21 19  1  0
 22 21  1  0
 23 22  1  1
 23 24  1  0
 24 15  1  0
 25 23  1  0
 26 25  1  0
 27 25  2  0
M  END
$$$$
