DEQ.pdb
     RDKit          3D

 27 26  0  0  1  0  0  0  0  0999 V2000
    8.0910  -21.8087   20.5511 N   0  0  0  0  0  0  0  0  0  0  0  0
    7.2239  -20.8295   21.1495 C   0  0  1  0  0  0  0  0  0  0  0  0
    6.5694  -21.4993   22.3534 C   0  0  0  0  0  0  0  0  0  0  0  0
    5.9841  -22.7828   21.9436 C   0  0  0  0  0  0  0  0  0  0  0  0
    4.9584  -22.7988   21.2249 O   0  0  0  0  0  0  0  0  0  0  0  0
    7.8890  -19.5767   21.5043 C   0  0  0  0  0  0  0  0  0  0  0  0
    8.9162  -19.6261   22.2159 O   0  0  0  0  0  0  0  0  0  0  0  0
    6.5158  -24.0176   22.3164 O   0  0  0  0  0  0  0  0  0  0  0  0
    7.4161  -18.3306   21.0757 N   0  0  0  0  0  0  0  0  0  0  0  0
    8.0983  -17.0570   21.3455 C   0  0  1  0  0  0  0  0  0  0  0  0
    7.9942  -16.1334   20.2003 C   0  0  0  0  0  0  0  0  0  0  0  0
    7.0187  -15.0263   20.4412 C   0  0  0  0  0  0  0  0  0  0  0  0
    6.8276  -14.1099   19.2940 C   0  0  0  0  0  0  0  0  0  0  0  0
    6.1068  -13.1009   19.3419 O   0  0  0  0  0  0  0  0  0  0  0  0
    7.5208  -16.4757   22.5772 C   0  0  0  0  0  0  0  0  0  0  0  0
    6.3027  -16.5338   22.8748 O   0  0  0  0  0  0  0  0  0  0  0  0
    7.4763  -14.3547   18.0642 O   0  0  0  0  0  0  0  0  0  0  0  0
    8.0539  -20.1487   25.7858 N   0  0  0  0  0  0  0  0  0  0  0  0
    7.9731  -19.2528   26.8802 C   0  0  0  0  0  0  0  0  0  0  0  0
    7.8830  -19.6547   28.0544 O   0  0  0  0  0  0  0  0  0  0  0  0
    7.9952  -17.7805   26.6374 C   0  0  0  0  0  0  0  0  0  0  0  0
    8.1479  -17.4699   25.1857 C   0  0  0  0  0  0  0  0  0  0  0  0
    8.1731  -15.9988   24.9414 C   0  0  2  0  0  0  0  0  0  0  0  0
    8.3711  -15.8010   23.5046 N   0  0  0  0  0  0  0  0  0  0  0  0
    9.1958  -15.2501   25.6953 C   0  0  0  0  0  0  0  0  0  0  0  0
    8.9121  -14.8933   27.0337 O   0  0  0  0  0  0  0  0  0  0  0  0
   10.3060  -14.9026   25.2380 O   0  0  0  0  0  0  0  0  0  0  0  0
  2  1  1  1
  3  2  1  0
  4  3  1  0
  5  4  2  0
  6  7  2  0
  6  2  1  0
  8  4  1  0
  9  6  1  0
 10 11  1  6
 10  9  1  0
 11 12  1  0
 13 17  1  0
 13 12  1  0
 14 13  2  0
 15 10  1  0
 15 16  2  0
 19 18  1  0
 20 19  2  0
 21 19  1  0
 22 21  1  0
 23 22  1  6
 23 24  1  0
 24 15  1  0
 25 23  1  0
 26 25  1  0
 27 25  2  0
M  END
$$$$
