DEQ.pdb
     RDKit          3D

 27 26  0  0  1  0  0  0  0  0999 V2000
   13.0851  -15.8614   18.2614 N   0  0  0  0  0  0  0  0  0  0  0  0
   13.4640  -15.5057   19.6026 C   0  0  1  0  0  0  0  0  0  0  0  0
   13.9912  -14.0757   19.5455 C   0  0  0  0  0  0  0  0  0  0  0  0
   15.2855  -14.0564   18.8511 C   0  0  0  0  0  0  0  0  0  0  0  0
   16.2922  -14.5659   19.3952 O   0  0  0  0  0  0  0  0  0  0  0  0
   12.3970  -15.6654   20.5894 C   0  0  0  0  0  0  0  0  0  0  0  0
   11.3440  -15.0068   20.4429 O   0  0  0  0  0  0  0  0  0  0  0  0
   15.4660  -13.4903   17.5888 O   0  0  0  0  0  0  0  0  0  0  0  0
   12.5150  -16.5269   21.6867 N   0  0  0  0  0  0  0  0  0  0  0  0
   11.4492  -16.7487   22.6740 C   0  0  1  0  0  0  0  0  0  0  0  0
   10.7356  -18.0154   22.4257 C   0  0  0  0  0  0  0  0  0  0  0  0
   11.6646  -19.1715   22.2375 C   0  0  0  0  0  0  0  0  0  0  0  0
   10.9959  -20.4836   22.0839 C   0  0  0  0  0  0  0  0  0  0  0  0
   10.2543  -20.9747   22.9492 O   0  0  0  0  0  0  0  0  0  0  0  0
   12.0547  -16.7122   24.0233 C   0  0  0  0  0  0  0  0  0  0  0  0
   13.2686  -16.9353   24.2526 O   0  0  0  0  0  0  0  0  0  0  0  0
   11.1807  -21.2505   20.9132 O   0  0  0  0  0  0  0  0  0  0  0  0
   10.6491  -12.9579   28.6464 N   0  0  0  0  0  0  0  0  0  0  0  0
    9.6287  -13.8146   28.1649 C   0  0  0  0  0  0  0  0  0  0  0  0
    8.4221  -13.5545   28.3227 O   0  0  0  0  0  0  0  0  0  0  0  0
    9.9921  -15.0702   27.4448 C   0  0  0  0  0  0  0  0  0  0  0  0
   11.4532  -15.1233   27.1455 C   0  0  0  0  0  0  0  0  0  0  0  0
   11.8310  -16.4103   26.4934 C   0  0  2  0  0  0  0  0  0  0  0  0
   11.2387  -16.4085   25.1547 N   0  0  0  0  0  0  0  0  0  0  0  0
   11.4259  -17.6291   27.2182 C   0  0  0  0  0  0  0  0  0  0  0  0
   10.4459  -18.4618   26.6305 O   0  0  0  0  0  0  0  0  0  0  0  0
   11.8866  -17.9871   28.3236 O   0  0  0  0  0  0  0  0  0  0  0  0
  2  1  1  6
  3  2  1  0
  4  3  1  0
  5  4  2  0
  6  7  2  0
  6  2  1  0
  8  4  1  0
  9  6  1  0
 10 11  1  6
 10  9  1  0
 11 12  1  0
 13 17  1  0
 13 12  1  0
 14 13  2  0
 15 10  1  0
 15 16  2  0
 19 18  1  0
 20 19  2  0
 21 19  1  0
 22 21  1  0
 23 22  1  1
 23 24  1  0
 24 15  1  0
 25 23  1  0
 26 25  1  0
 27 25  2  0
M  END
$$$$
