DEQ.pdb
     RDKit          3D

 27 26  0  0  1  0  0  0  0  0999 V2000
    8.1423  -16.3099   18.1542 N   0  0  0  0  0  0  0  0  0  0  0  0
    8.6187  -15.4335   19.1906 C   0  0  1  0  0  0  0  0  0  0  0  0
    7.8089  -14.1456   19.0836 C   0  0  0  0  0  0  0  0  0  0  0  0
    7.9691  -13.5745   17.7397 C   0  0  0  0  0  0  0  0  0  0  0  0
    9.0929  -13.5885   17.1867 O   0  0  0  0  0  0  0  0  0  0  0  0
    8.5700  -16.0106   20.5331 C   0  0  0  0  0  0  0  0  0  0  0  0
    7.4677  -16.4017   20.9758 O   0  0  0  0  0  0  0  0  0  0  0  0
    6.9174  -13.0025   17.0233 O   0  0  0  0  0  0  0  0  0  0  0  0
    9.7107  -16.1389   21.3346 N   0  0  0  0  0  0  0  0  0  0  0  0
    9.7264  -16.8216   22.6360 C   0  0  1  0  0  0  0  0  0  0  0  0
   10.8275  -17.7992   22.7218 C   0  0  0  0  0  0  0  0  0  0  0  0
   10.5957  -19.0030   21.8659 C   0  0  0  0  0  0  0  0  0  0  0  0
   11.6546  -20.0346   21.9498 C   0  0  0  0  0  0  0  0  0  0  0  0
   11.4158  -21.2495   22.0317 O   0  0  0  0  0  0  0  0  0  0  0  0
    9.8180  -15.7935   23.6958 C   0  0  0  0  0  0  0  0  0  0  0  0
   10.3105  -14.6517   23.5233 O   0  0  0  0  0  0  0  0  0  0  0  0
   13.0175  -19.6665   21.9396 O   0  0  0  0  0  0  0  0  0  0  0  0
    7.4764  -11.3526   25.5692 N   0  0  0  0  0  0  0  0  0  0  0  0
    6.6628  -12.3974   26.0725 C   0  0  0  0  0  0  0  0  0  0  0  0
    5.5296  -12.1824   26.5396 O   0  0  0  0  0  0  0  0  0  0  0  0
    7.1623  -13.8035   26.0503 C   0  0  0  0  0  0  0  0  0  0  0  0
    8.5261  -13.8879   25.4500 C   0  0  0  0  0  0  0  0  0  0  0  0
    9.3034  -15.0272   26.0175 C   0  0  2  0  0  0  0  0  0  0  0  0
    9.3269  -16.0837   25.0045 N   0  0  0  0  0  0  0  0  0  0  0  0
    8.7944  -15.5672   27.2920 C   0  0  0  0  0  0  0  0  0  0  0  0
    9.1527  -14.9055   28.4890 O   0  0  0  0  0  0  0  0  0  0  0  0
    8.0631  -16.5753   27.3973 O   0  0  0  0  0  0  0  0  0  0  0  0
  2  1  1  6
  3  2  1  0
  4  3  1  0
  5  4  2  0
  6  7  2  0
  6  2  1  0
  8  4  1  0
  9  6  1  0
 10 11  1  6
 10  9  1  0
 11 12  1  0
 13 17  1  0
 13 12  1  0
 14 13  2  0
 15 10  1  0
 15 16  2  0
 19 18  1  0
 20 19  2  0
 21 19  1  0
 22 21  1  0
 23 22  1  6
 23 24  1  0
 24 15  1  0
 25 23  1  0
 26 25  1  0
 27 25  2  0
M  END
$$$$
