DEQ.pdb
     RDKit          3D

 27 26  0  0  1  0  0  0  0  0999 V2000
   12.0031  -17.8195   16.7092 N   0  0  0  0  0  0  0  0  0  0  0  0
   12.2163  -19.0041   17.4967 C   0  0  1  0  0  0  0  0  0  0  0  0
   12.2975  -20.1725   16.5197 C   0  0  0  0  0  0  0  0  0  0  0  0
   11.2870  -20.0039   15.4669 C   0  0  0  0  0  0  0  0  0  0  0  0
   10.7066  -18.9023   15.3311 O   0  0  0  0  0  0  0  0  0  0  0  0
   13.3801  -18.9360   18.3792 C   0  0  0  0  0  0  0  0  0  0  0  0
   13.6029  -19.8955   19.1497 O   0  0  0  0  0  0  0  0  0  0  0  0
   10.9252  -21.0235   14.5860 O   0  0  0  0  0  0  0  0  0  0  0  0
   14.2482  -17.8376   18.3897 N   0  0  0  0  0  0  0  0  0  0  0  0
   15.4383  -17.7407   19.2467 C   0  0  1  0  0  0  0  0  0  0  0  0
   16.6297  -17.3384   18.4759 C   0  0  0  0  0  0  0  0  0  0  0  0
   17.8647  -17.2775   19.3163 C   0  0  0  0  0  0  0  0  0  0  0  0
   19.0877  -16.8669   18.5895 C   0  0  0  0  0  0  0  0  0  0  0  0
   19.8164  -17.6645   17.9790 O   0  0  0  0  0  0  0  0  0  0  0  0
   15.1429  -16.7904   20.3414 C   0  0  0  0  0  0  0  0  0  0  0  0
   15.0955  -15.5447   20.1938 O   0  0  0  0  0  0  0  0  0  0  0  0
   19.4851  -15.5126   18.5614 O   0  0  0  0  0  0  0  0  0  0  0  0
   10.4050  -17.1468   23.6718 N   0  0  0  0  0  0  0  0  0  0  0  0
   11.1032  -16.2159   24.4797 C   0  0  0  0  0  0  0  0  0  0  0  0
   10.5504  -15.6144   25.4184 O   0  0  0  0  0  0  0  0  0  0  0  0
   12.5443  -15.9352   24.2124 C   0  0  0  0  0  0  0  0  0  0  0  0
   13.0581  -16.7567   23.0773 C   0  0  0  0  0  0  0  0  0  0  0  0
   14.4470  -16.3632   22.7027 C   0  0  2  0  0  0  0  0  0  0  0  0
   14.8920  -17.2856   21.6567 N   0  0  0  0  0  0  0  0  0  0  0  0
   15.4217  -16.3536   23.8093 C   0  0  0  0  0  0  0  0  0  0  0  0
   16.3371  -17.4271   23.9032 O   0  0  0  0  0  0  0  0  0  0  0  0
   15.5023  -15.4606   24.6802 O   0  0  0  0  0  0  0  0  0  0  0  0
  2  1  1  6
  3  2  1  0
  4  3  1  0
  5  4  2  0
  6  7  2  0
  6  2  1  0
  8  4  1  0
  9  6  1  0
 10 11  1  6
 10  9  1  0
 11 12  1  0
 13 17  1  0
 13 12  1  0
 14 13  2  0
 15 10  1  0
 15 16  2  0
 19 18  1  0
 20 19  2  0
 21 19  1  0
 22 21  1  0
 23 22  1  1
 23 24  1  0
 24 15  1  0
 25 23  1  0
 26 25  1  0
 27 25  2  0
M  END
$$$$
