NNY.pdb
     RDKit          3D

 29 29  0  0  1  0  0  0  0  0999 V2000
    9.7421  -19.7028   14.2908 N   0  0  0  0  0  0  0  0  0  0  0  0
    9.9041  -19.8905   15.6751 C   0  0  0  0  0  0  0  0  0  0  0  0
    8.9971  -20.4278   16.3380 O   0  0  0  0  0  0  0  0  0  0  0  0
   11.1377  -19.4566   16.3474 C   0  0  0  0  0  0  0  0  0  0  0  0
   10.7829  -18.7680   17.6206 C   0  0  2  0  0  0  0  0  0  0  0  0
    9.6089  -17.9720   17.4081 N   0  0  0  0  0  0  0  0  0  0  0  0
   11.8907  -18.0269   18.2344 C   0  0  0  0  0  0  0  0  0  0  0  0
   12.9084  -18.6509   18.6283 O   0  0  0  0  0  0  0  0  0  0  0  0
   14.8852  -16.3584   17.0336 N   0  0  0  0  0  0  0  0  0  0  0  0
   14.4296  -15.0119   17.1327 C   0  0  0  0  0  0  0  0  0  0  0  0
   14.8684  -14.1167   16.3725 O   0  0  0  0  0  0  0  0  0  0  0  0
   13.4261  -14.6936   18.1541 C   0  0  0  0  0  0  0  0  0  0  0  0
   12.9956  -15.8851   18.9703 C   0  0  2  0  0  0  0  0  0  0  0  0
   11.8907  -16.5992   18.4205 N   0  0  0  0  0  0  0  0  0  0  0  0
   12.6789  -15.4513   20.3503 C   0  0  0  0  0  0  0  0  0  0  0  0
   13.5107  -14.7308   20.9524 O   0  0  0  0  0  0  0  0  0  0  0  0
    7.7758  -12.4709   17.6743 O   0  0  0  0  0  0  0  0  0  0  0  0
    8.2511  -13.0923   18.8257 C   0  0  0  0  0  0  0  0  0  0  0  0
    7.5488  -14.1569   19.3361 C   0  0  0  0  0  0  0  0  0  0  0  0
    8.0417  -14.7614   20.4856 C   0  0  0  0  0  0  0  0  0  0  0  0
    9.1949  -14.3151   21.0996 C   0  0  0  0  0  0  0  0  0  0  0  0
    9.6654  -14.9860   22.3111 C   0  0  0  0  0  0  0  0  0  0  0  0
   11.1541  -15.2607   22.3263 C   0  0  2  0  0  0  0  0  0  0  0  0
   11.4899  -15.7999   21.0378 N   0  0  0  0  0  0  0  0  0  0  0  0
   11.5422  -16.2632   23.3437 C   0  0  0  0  0  0  0  0  0  0  0  0
   12.0162  -17.3972   23.0368 O   0  0  0  0  0  0  0  0  0  0  0  0
    9.8794  -13.2397   20.5604 C   0  0  0  0  0  0  0  0  0  0  0  0
    9.4078  -12.6201   19.4144 C   0  0  0  0  0  0  0  0  0  0  0  0
   11.4028  -16.0013   24.6929 O   0  0  0  0  0  0  0  0  0  0  0  0
  2  3  2  0
  2  1  1  0
  4  2  1  0
  5  4  1  0
  5  6  1  6
  7  8  2  0
  7  5  1  0
 10  9  1  0
 10 12  1  0
 11 10  2  0
 13 12  1  6
 13 14  1  0
 14  7  1  0
 15 13  1  0
 16 15  2  0
 18 17  1  0
 18 28  2  0
 19 18  1  0
 20 19  2  0
 20 21  1  0
 21 27  2  0
 22 21  1  0
 23 22  1  6
 23 24  1  0
 24 15  1  0
 25 23  1  0
 26 25  2  0
 27 28  1  0
 29 25  1  0
M  END
$$$$
