NNY.pdb
     RDKit          3D

 29 29  0  0  1  0  0  0  0  0999 V2000
    7.0116  -14.4105   18.2322 N   0  0  0  0  0  0  0  0  0  0  0  0
    8.1434  -13.5758   18.2412 C   0  0  0  0  0  0  0  0  0  0  0  0
    8.0115  -12.3509   18.0600 O   0  0  0  0  0  0  0  0  0  0  0  0
    9.4835  -14.1386   18.4634 C   0  0  0  0  0  0  0  0  0  0  0  0
    9.3637  -15.6056   18.6973 C   0  0  2  0  0  0  0  0  0  0  0  0
    8.6328  -16.1921   17.6115 N   0  0  0  0  0  0  0  0  0  0  0  0
    8.8382  -15.9645   20.0195 C   0  0  0  0  0  0  0  0  0  0  0  0
    7.6490  -15.6791   20.3101 O   0  0  0  0  0  0  0  0  0  0  0  0
   10.5180  -19.6038   20.8730 N   0  0  0  0  0  0  0  0  0  0  0  0
   10.0771  -19.3351   22.2011 C   0  0  0  0  0  0  0  0  0  0  0  0
   10.7138  -19.7526   23.1972 O   0  0  0  0  0  0  0  0  0  0  0  0
    8.8498  -18.5517   22.3784 C   0  0  0  0  0  0  0  0  0  0  0  0
    9.0629  -17.0633   22.2761 C   0  0  2  0  0  0  0  0  0  0  0  0
    9.6112  -16.6376   21.0306 N   0  0  0  0  0  0  0  0  0  0  0  0
    9.9279  -16.6095   23.3890 C   0  0  0  0  0  0  0  0  0  0  0  0
   11.1716  -16.6769   23.2407 O   0  0  0  0  0  0  0  0  0  0  0  0
    4.8844  -12.4544   26.0783 O   0  0  0  0  0  0  0  0  0  0  0  0
    6.1966  -12.9181   26.0525 C   0  0  0  0  0  0  0  0  0  0  0  0
    6.7472  -13.3991   27.2156 C   0  0  0  0  0  0  0  0  0  0  0  0
    8.0578  -13.8566   27.1663 C   0  0  0  0  0  0  0  0  0  0  0  0
    8.7884  -13.8327   25.9951 C   0  0  0  0  0  0  0  0  0  0  0  0
   10.1666  -14.3223   26.0020 C   0  0  0  0  0  0  0  0  0  0  0  0
   10.2961  -15.8061   25.7310 C   0  0  2  0  0  0  0  0  0  0  0  0
    9.4377  -16.1013   24.6175 N   0  0  0  0  0  0  0  0  0  0  0  0
    9.8500  -16.6386   26.8705 C   0  0  0  0  0  0  0  0  0  0  0  0
    8.8425  -17.4034   26.8023 O   0  0  0  0  0  0  0  0  0  0  0  0
    8.2048  -13.3417   24.8400 C   0  0  0  0  0  0  0  0  0  0  0  0
    6.8988  -12.8796   24.8638 C   0  0  0  0  0  0  0  0  0  0  0  0
   10.5239  -16.6177   28.0763 O   0  0  0  0  0  0  0  0  0  0  0  0
  2  3  2  0
  2  1  1  0
  4  2  1  0
  5  4  1  0
  5  6  1  6
  7  8  2  0
  7  5  1  0
 10  9  1  0
 10 12  1  0
 11 10  2  0
 13 12  1  6
 13 14  1  0
 14  7  1  0
 15 13  1  0
 16 15  2  0
 18 17  1  0
 18 28  2  0
 19 18  1  0
 20 19  2  0
 20 21  1  0
 21 27  2  0
 22 21  1  0
 23 22  1  1
 23 24  1  0
 24 15  1  0
 25 23  1  0
 26 25  2  0
 27 28  1  0
 29 25  1  0
M  END
$$$$
