NNY.pdb
     RDKit          3D

 29 29  0  0  1  0  0  0  0  0999 V2000
    6.9781  -13.7879   16.6051 N   0  0  0  0  0  0  0  0  0  0  0  0
    7.9235  -13.9281   17.6368 C   0  0  0  0  0  0  0  0  0  0  0  0
    8.7803  -13.0426   17.8167 O   0  0  0  0  0  0  0  0  0  0  0  0
    7.9083  -15.1137   18.5064 C   0  0  0  0  0  0  0  0  0  0  0  0
    7.6959  -14.6813   19.9168 C   0  0  2  0  0  0  0  0  0  0  0  0
    8.6119  -13.6206   20.2216 N   0  0  0  0  0  0  0  0  0  0  0  0
    7.7204  -15.7762   20.8934 C   0  0  0  0  0  0  0  0  0  0  0  0
    7.0028  -16.7905   20.7027 O   0  0  0  0  0  0  0  0  0  0  0  0
   11.2888  -19.1015   21.8290 N   0  0  0  0  0  0  0  0  0  0  0  0
   11.6869  -17.7553   21.5847 C   0  0  0  0  0  0  0  0  0  0  0  0
   12.8941  -17.4177   21.6051 O   0  0  0  0  0  0  0  0  0  0  0  0
   10.6424  -16.7637   21.3061 C   0  0  0  0  0  0  0  0  0  0  0  0
    9.5479  -16.7318   22.3415 C   0  0  2  0  0  0  0  0  0  0  0  0
    8.5303  -15.7669   22.0838 N   0  0  0  0  0  0  0  0  0  0  0  0
   10.1385  -16.4965   23.6789 C   0  0  0  0  0  0  0  0  0  0  0  0
   11.0030  -15.5953   23.7966 O   0  0  0  0  0  0  0  0  0  0  0  0
    6.6541  -10.7868   26.5403 O   0  0  0  0  0  0  0  0  0  0  0  0
    6.9529  -12.1310   26.3363 C   0  0  0  0  0  0  0  0  0  0  0  0
    6.2784  -12.8127   25.3526 C   0  0  0  0  0  0  0  0  0  0  0  0
    6.5931  -14.1529   25.1668 C   0  0  0  0  0  0  0  0  0  0  0  0
    7.5478  -14.7851   25.9380 C   0  0  0  0  0  0  0  0  0  0  0  0
    7.8353  -16.1997   25.7024 C   0  0  0  0  0  0  0  0  0  0  0  0
    9.2598  -16.6017   26.0204 C   0  0  2  0  0  0  0  0  0  0  0  0
    9.7876  -17.2284   24.8404 N   0  0  0  0  0  0  0  0  0  0  0  0
    9.3459  -17.5848   27.1235 C   0  0  0  0  0  0  0  0  0  0  0  0
    9.2516  -18.8334   26.9323 O   0  0  0  0  0  0  0  0  0  0  0  0
    8.2097  -14.0703   26.9213 C   0  0  0  0  0  0  0  0  0  0  0  0
    7.9135  -12.7323   27.1258 C   0  0  0  0  0  0  0  0  0  0  0  0
    9.5365  -17.1768   28.4295 O   0  0  0  0  0  0  0  0  0  0  0  0
  2  3  2  0
  2  1  1  0
  4  2  1  0
  5  4  1  0
  5  6  1  1
  7  8  2  0
  7  5  1  0
 10  9  1  0
 10 12  1  0
 11 10  2  0
 13 12  1  6
 13 14  1  0
 14  7  1  0
 15 13  1  0
 16 15  2  0
 18 17  1  0
 18 28  2  0
 19 18  1  0
 20 19  2  0
 20 21  1  0
 21 27  2  0
 22 21  1  0
 23 22  1  6
 23 24  1  0
 24 15  1  0
 25 23  1  0
 26 25  2  0
 27 28  1  0
 29 25  1  0
M  END
$$$$
