NNY.pdb
     RDKit          3D

 29 29  0  0  1  0  0  0  0  0999 V2000
   13.0132  -20.4715   17.5332 N   0  0  0  0  0  0  0  0  0  0  0  0
   12.3327  -19.9238   18.6353 C   0  0  0  0  0  0  0  0  0  0  0  0
   11.8046  -20.6773   19.4744 O   0  0  0  0  0  0  0  0  0  0  0  0
   12.2395  -18.4663   18.8052 C   0  0  0  0  0  0  0  0  0  0  0  0
   10.8446  -18.1083   19.1890 C   0  0  2  0  0  0  0  0  0  0  0  0
   10.0008  -18.2194   18.0345 N   0  0  0  0  0  0  0  0  0  0  0  0
   10.7215  -16.8216   19.8835 C   0  0  0  0  0  0  0  0  0  0  0  0
   11.5088  -15.8853   19.5940 O   0  0  0  0  0  0  0  0  0  0  0  0
    8.7105  -13.7597   19.3130 N   0  0  0  0  0  0  0  0  0  0  0  0
    7.7062  -14.0520   20.2808 C   0  0  0  0  0  0  0  0  0  0  0  0
    6.5207  -13.6749   20.1255 O   0  0  0  0  0  0  0  0  0  0  0  0
    8.0944  -14.8114   21.4743 C   0  0  0  0  0  0  0  0  0  0  0  0
    9.5332  -15.2595   21.4639 C   0  0  2  0  0  0  0  0  0  0  0  0
    9.7365  -16.5526   20.8986 N   0  0  0  0  0  0  0  0  0  0  0  0
   10.0733  -15.2214   22.8422 C   0  0  0  0  0  0  0  0  0  0  0  0
   11.3007  -15.4221   23.0053 O   0  0  0  0  0  0  0  0  0  0  0  0
    6.4035  -10.5382   27.4448 O   0  0  0  0  0  0  0  0  0  0  0  0
    6.8477  -11.8074   27.0849 C   0  0  0  0  0  0  0  0  0  0  0  0
    8.1651  -12.1297   27.3037 C   0  0  0  0  0  0  0  0  0  0  0  0
    8.5860  -13.4017   26.9368 C   0  0  0  0  0  0  0  0  0  0  0  0
    7.7188  -14.3154   26.3720 C   0  0  0  0  0  0  0  0  0  0  0  0
    8.2174  -15.6391   26.0000 C   0  0  0  0  0  0  0  0  0  0  0  0
    9.5350  -15.6156   25.2548 C   0  0  2  0  0  0  0  0  0  0  0  0
    9.2879  -14.9713   23.9948 N   0  0  0  0  0  0  0  0  0  0  0  0
   10.0560  -16.9709   24.9676 C   0  0  0  0  0  0  0  0  0  0  0  0
    9.4359  -17.7983   24.2357 O   0  0  0  0  0  0  0  0  0  0  0  0
    6.3973  -13.9597   26.1645 C   0  0  0  0  0  0  0  0  0  0  0  0
    5.9535  -12.6969   26.5222 C   0  0  0  0  0  0  0  0  0  0  0  0
   11.2600  -17.3985   25.4928 O   0  0  0  0  0  0  0  0  0  0  0  0
  2  3  2  0
  2  1  1  0
  4  2  1  0
  5  4  1  0
  5  6  1  6
  7  8  2  0
  7  5  1  0
 10  9  1  0
 10 12  1  0
 11 10  2  0
 13 12  1  1
 13 14  1  0
 14  7  1  0
 15 13  1  0
 16 15  2  0
 18 17  1  0
 18 28  2  0
 19 18  1  0
 20 19  2  0
 20 21  1  0
 21 27  2  0
 22 21  1  0
 23 22  1  6
 23 24  1  0
 24 15  1  0
 25 23  1  0
 26 25  2  0
 27 28  1  0
 29 25  1  0
M  END
$$$$
