NNY.pdb
     RDKit          3D

 29 29  0  0  1  0  0  0  0  0999 V2000
    6.9179  -14.1467   15.2321 N   0  0  0  0  0  0  0  0  0  0  0  0
    7.8473  -13.8464   16.2440 C   0  0  0  0  0  0  0  0  0  0  0  0
    8.9901  -13.4564   15.9398 O   0  0  0  0  0  0  0  0  0  0  0  0
    7.4799  -13.9893   17.6605 C   0  0  0  0  0  0  0  0  0  0  0  0
    8.7175  -14.1826   18.4682 C   0  0  2  0  0  0  0  0  0  0  0  0
    9.7509  -14.7014   17.6197 N   0  0  0  0  0  0  0  0  0  0  0  0
    8.5207  -14.9614   19.6961 C   0  0  0  0  0  0  0  0  0  0  0  0
    7.6646  -14.5851   20.5360 O   0  0  0  0  0  0  0  0  0  0  0  0
   11.1497  -17.4391   19.4920 N   0  0  0  0  0  0  0  0  0  0  0  0
   10.6531  -18.5431   20.2438 C   0  0  0  0  0  0  0  0  0  0  0  0
   11.1394  -19.6915   20.1157 O   0  0  0  0  0  0  0  0  0  0  0  0
    9.5495  -18.3034   21.1799 C   0  0  0  0  0  0  0  0  0  0  0  0
    9.1108  -16.8629   21.2408 C   0  0  2  0  0  0  0  0  0  0  0  0
    9.2598  -16.1562   20.0114 N   0  0  0  0  0  0  0  0  0  0  0  0
    9.8517  -16.1650   22.3164 C   0  0  0  0  0  0  0  0  0  0  0  0
   10.6931  -15.2938   21.9898 O   0  0  0  0  0  0  0  0  0  0  0  0
    5.4932  -11.0807   27.4297 O   0  0  0  0  0  0  0  0  0  0  0  0
    6.0985  -12.0185   26.5980 C   0  0  0  0  0  0  0  0  0  0  0  0
    5.6732  -13.3234   26.6590 C   0  0  0  0  0  0  0  0  0  0  0  0
    6.2914  -14.2417   25.8199 C   0  0  0  0  0  0  0  0  0  0  0  0
    7.2978  -13.8657   24.9528 C   0  0  0  0  0  0  0  0  0  0  0  0
    7.9173  -14.8758   24.0955 C   0  0  0  0  0  0  0  0  0  0  0  0
    9.2332  -15.4090   24.6211 C   0  0  2  0  0  0  0  0  0  0  0  0
    9.6699  -16.4198   23.6984 N   0  0  0  0  0  0  0  0  0  0  0  0
    9.1042  -16.0456   25.9511 C   0  0  0  0  0  0  0  0  0  0  0  0
    9.4670  -15.4705   27.0198 O   0  0  0  0  0  0  0  0  0  0  0  0
    7.7037  -12.5429   24.9155 C   0  0  0  0  0  0  0  0  0  0  0  0
    7.1023  -11.6082   25.7426 C   0  0  0  0  0  0  0  0  0  0  0  0
    8.5736  -17.3139   26.0864 O   0  0  0  0  0  0  0  0  0  0  0  0
  2  3  2  0
  2  1  1  0
  4  2  1  0
  5  4  1  0
  5  6  1  6
  7  8  2  0
  7  5  1  0
 10  9  1  0
 10 12  1  0
 11 10  2  0
 13 12  1  6
 13 14  1  0
 14  7  1  0
 15 13  1  0
 16 15  2  0
 18 17  1  0
 18 28  2  0
 19 18  1  0
 20 19  2  0
 20 21  1  0
 21 27  2  0
 22 21  1  0
 23 22  1  6
 23 24  1  0
 24 15  1  0
 25 23  1  0
 26 25  2  0
 27 28  1  0
 29 25  1  0
M  END
$$$$
