NNY.pdb
     RDKit          3D

 29 29  0  0  1  0  0  0  0  0999 V2000
    7.1360  -12.9053   15.9978 N   0  0  0  0  0  0  0  0  0  0  0  0
    7.8004  -14.1445   16.0266 C   0  0  0  0  0  0  0  0  0  0  0  0
    8.4741  -14.5093   15.0449 O   0  0  0  0  0  0  0  0  0  0  0  0
    7.7059  -15.0142   17.2083 C   0  0  0  0  0  0  0  0  0  0  0  0
    8.5466  -14.4465   18.3002 C   0  0  2  0  0  0  0  0  0  0  0  0
    9.6759  -13.7797   17.7195 N   0  0  0  0  0  0  0  0  0  0  0  0
    8.9085  -15.4102   19.3458 C   0  0  0  0  0  0  0  0  0  0  0  0
    8.0008  -15.9679   20.0130 O   0  0  0  0  0  0  0  0  0  0  0  0
   11.3632  -19.3067   19.4774 N   0  0  0  0  0  0  0  0  0  0  0  0
   12.1850  -18.1436   19.5289 C   0  0  0  0  0  0  0  0  0  0  0  0
   13.0452  -17.9127   18.6465 O   0  0  0  0  0  0  0  0  0  0  0  0
   12.0001  -17.2138   20.6481 C   0  0  0  0  0  0  0  0  0  0  0  0
   10.6071  -16.6457   20.7380 C   0  0  2  0  0  0  0  0  0  0  0  0
   10.2655  -15.7686   19.6670 N   0  0  0  0  0  0  0  0  0  0  0  0
   10.4397  -15.9483   22.0336 C   0  0  0  0  0  0  0  0  0  0  0  0
   11.2602  -15.0484   22.3345 O   0  0  0  0  0  0  0  0  0  0  0  0
    5.6544  -11.5504   27.8347 O   0  0  0  0  0  0  0  0  0  0  0  0
    6.1938  -12.3124   26.8022 C   0  0  0  0  0  0  0  0  0  0  0  0
    5.7029  -13.5783   26.5934 C   0  0  0  0  0  0  0  0  0  0  0  0
    6.2559  -14.3204   25.5575 C   0  0  0  0  0  0  0  0  0  0  0  0
    7.2629  -13.8122   24.7614 C   0  0  0  0  0  0  0  0  0  0  0  0
    7.8122  -14.6398   23.6879 C   0  0  0  0  0  0  0  0  0  0  0  0
    9.0889  -15.3643   24.0584 C   0  0  2  0  0  0  0  0  0  0  0  0
    9.4063  -16.2341   22.9600 N   0  0  0  0  0  0  0  0  0  0  0  0
    8.9405  -16.2073   25.2658 C   0  0  0  0  0  0  0  0  0  0  0  0
    8.5686  -17.4170   25.2108 O   0  0  0  0  0  0  0  0  0  0  0  0
    7.7358  -12.5330   24.9978 C   0  0  0  0  0  0  0  0  0  0  0  0
    7.2002  -11.7731   26.0251 C   0  0  0  0  0  0  0  0  0  0  0  0
    9.2060  -15.7038   26.5245 O   0  0  0  0  0  0  0  0  0  0  0  0
  2  3  2  0
  2  1  1  0
  4  2  1  0
  5  4  1  0
  5  6  1  6
  7  8  2  0
  7  5  1  0
 10  9  1  0
 10 12  1  0
 11 10  2  0
 13 12  1  6
 13 14  1  0
 14  7  1  0
 15 13  1  0
 16 15  2  0
 18 17  1  0
 18 28  2  0
 19 18  1  0
 20 19  2  0
 20 21  1  0
 21 27  2  0
 22 21  1  0
 23 22  1  6
 23 24  1  0
 24 15  1  0
 25 23  1  0
 26 25  2  0
 27 28  1  0
 29 25  1  0
M  END
$$$$
