NNY.pdb
     RDKit          3D

 29 29  0  0  1  0  0  0  0  0999 V2000
    6.3551  -13.4412   17.3720 N   0  0  0  0  0  0  0  0  0  0  0  0
    7.6482  -13.5715   17.9092 C   0  0  0  0  0  0  0  0  0  0  0  0
    8.4486  -14.3832   17.4080 O   0  0  0  0  0  0  0  0  0  0  0  0
    8.0637  -12.7556   19.0598 C   0  0  0  0  0  0  0  0  0  0  0  0
    9.1650  -13.4544   19.7808 C   0  0  2  0  0  0  0  0  0  0  0  0
   10.0581  -14.0325   18.8189 N   0  0  0  0  0  0  0  0  0  0  0  0
    8.7097  -14.4036   20.8029 C   0  0  0  0  0  0  0  0  0  0  0  0
    7.8962  -14.0220   21.6820 O   0  0  0  0  0  0  0  0  0  0  0  0
    8.5230  -18.9885   19.2147 N   0  0  0  0  0  0  0  0  0  0  0  0
    7.9355  -18.5051   20.4196 C   0  0  0  0  0  0  0  0  0  0  0  0
    6.6923  -18.4015   20.5437 O   0  0  0  0  0  0  0  0  0  0  0  0
    8.8266  -18.1277   21.5220 C   0  0  0  0  0  0  0  0  0  0  0  0
    8.7364  -16.6717   21.9005 C   0  0  2  0  0  0  0  0  0  0  0  0
    9.1422  -15.7754   20.8686 N   0  0  0  0  0  0  0  0  0  0  0  0
    9.5357  -16.4279   23.1231 C   0  0  0  0  0  0  0  0  0  0  0  0
   10.7109  -16.0098   22.9912 O   0  0  0  0  0  0  0  0  0  0  0  0
    5.6419  -11.5799   26.5409 O   0  0  0  0  0  0  0  0  0  0  0  0
    6.7477  -12.3857   26.2850 C   0  0  0  0  0  0  0  0  0  0  0  0
    7.5938  -12.6905   27.3235 C   0  0  0  0  0  0  0  0  0  0  0  0
    8.6906  -13.4962   27.0449 C   0  0  0  0  0  0  0  0  0  0  0  0
    8.9296  -13.9777   25.7733 C   0  0  0  0  0  0  0  0  0  0  0  0
   10.1030  -14.8178   25.5357 C   0  0  0  0  0  0  0  0  0  0  0  0
    9.8232  -16.3039   25.6066 C   0  0  2  0  0  0  0  0  0  0  0  0
    9.0550  -16.6378   24.4394 N   0  0  0  0  0  0  0  0  0  0  0  0
    9.0200  -16.6807   26.7913 C   0  0  0  0  0  0  0  0  0  0  0  0
    7.8353  -17.1197   26.6998 O   0  0  0  0  0  0  0  0  0  0  0  0
    8.0581  -13.6522   24.7484 C   0  0  0  0  0  0  0  0  0  0  0  0
    6.9569  -12.8502   25.0013 C   0  0  0  0  0  0  0  0  0  0  0  0
    9.5359  -16.5686   28.0679 O   0  0  0  0  0  0  0  0  0  0  0  0
  2  3  2  0
  2  1  1  0
  4  2  1  0
  5  4  1  0
  5  6  1  6
  7  8  2  0
  7  5  1  0
 10  9  1  0
 10 12  1  0
 11 10  2  0
 13 12  1  6
 13 14  1  0
 14  7  1  0
 15 13  1  0
 16 15  2  0
 18 17  1  0
 18 28  2  0
 19 18  1  0
 20 19  2  0
 20 21  1  0
 21 27  2  0
 22 21  1  0
 23 22  1  1
 23 24  1  0
 24 15  1  0
 25 23  1  0
 26 25  2  0
 27 28  1  0
 29 25  1  0
M  END
$$$$
