NNY.pdb
     RDKit          3D

 29 29  0  0  1  0  0  0  0  0999 V2000
   13.4936  -17.8360   10.9433 N   0  0  0  0  0  0  0  0  0  0  0  0
   13.6553  -18.7244   12.0214 C   0  0  0  0  0  0  0  0  0  0  0  0
   13.6399  -19.9531   11.8195 O   0  0  0  0  0  0  0  0  0  0  0  0
   13.8426  -18.2135   13.3873 C   0  0  0  0  0  0  0  0  0  0  0  0
   13.7325  -19.3453   14.3507 C   0  0  2  0  0  0  0  0  0  0  0  0
   12.6124  -20.1623   13.9832 N   0  0  0  0  0  0  0  0  0  0  0  0
   13.7242  -18.9386   15.7606 C   0  0  0  0  0  0  0  0  0  0  0  0
   14.6867  -18.2709   16.2168 O   0  0  0  0  0  0  0  0  0  0  0  0
   10.5364  -20.1407   16.8757 N   0  0  0  0  0  0  0  0  0  0  0  0
   10.2010  -19.2276   17.9171 C   0  0  0  0  0  0  0  0  0  0  0  0
    9.0115  -19.0494   18.2707 O   0  0  0  0  0  0  0  0  0  0  0  0
   11.2891  -18.4940   18.5723 C   0  0  0  0  0  0  0  0  0  0  0  0
   12.6565  -18.8393   18.0409 C   0  0  2  0  0  0  0  0  0  0  0  0
   12.6628  -19.2603   16.6787 N   0  0  0  0  0  0  0  0  0  0  0  0
   13.2699  -19.8829   18.8938 C   0  0  0  0  0  0  0  0  0  0  0  0
   12.9639  -21.0805   18.6804 O   0  0  0  0  0  0  0  0  0  0  0  0
   20.2910  -18.8438   18.0956 O   0  0  0  0  0  0  0  0  0  0  0  0
   19.1340  -19.4942   18.5150 C   0  0  0  0  0  0  0  0  0  0  0  0
   19.1300  -20.0994   19.7483 C   0  0  0  0  0  0  0  0  0  0  0  0
   17.9646  -20.7423   20.1460 C   0  0  0  0  0  0  0  0  0  0  0  0
   16.8459  -20.7768   19.3377 C   0  0  0  0  0  0  0  0  0  0  0  0
   15.6474  -21.4728   19.8049 C   0  0  0  0  0  0  0  0  0  0  0  0
   14.7802  -20.6522   20.7358 C   0  0  2  0  0  0  0  0  0  0  0  0
   14.1854  -19.6135   19.9413 N   0  0  0  0  0  0  0  0  0  0  0  0
   15.5548  -19.9993   21.8150 C   0  0  0  0  0  0  0  0  0  0  0  0
   15.5973  -18.7414   21.9579 O   0  0  0  0  0  0  0  0  0  0  0  0
   16.8822  -20.1574   18.1003 C   0  0  0  0  0  0  0  0  0  0  0  0
   18.0330  -19.5097   17.6812 C   0  0  0  0  0  0  0  0  0  0  0  0
   16.2754  -20.7452   22.7275 O   0  0  0  0  0  0  0  0  0  0  0  0
  2  3  2  0
  2  1  1  0
  4  2  1  0
  5  4  1  0
  5  6  1  6
  7  8  2  0
  7  5  1  0
 10  9  1  0
 10 12  1  0
 11 10  2  0
 13 12  1  1
 13 14  1  0
 14  7  1  0
 15 13  1  0
 16 15  2  0
 18 17  1  0
 18 28  2  0
 19 18  1  0
 20 19  2  0
 20 21  1  0
 21 27  2  0
 22 21  1  0
 23 22  1  6
 23 24  1  0
 24 15  1  0
 25 23  1  0
 26 25  2  0
 27 28  1  0
 29 25  1  0
M  END
$$$$
