NNY.pdb
     RDKit          3D

 29 29  0  0  1  0  0  0  0  0999 V2000
    6.4706  -19.3429   19.4769 N   0  0  0  0  0  0  0  0  0  0  0  0
    7.3397  -20.1770   20.2027 C   0  0  0  0  0  0  0  0  0  0  0  0
    6.9649  -21.3139   20.5457 O   0  0  0  0  0  0  0  0  0  0  0  0
    8.6897  -19.7169   20.5602 C   0  0  0  0  0  0  0  0  0  0  0  0
    8.7089  -19.3339   22.0004 C   0  0  2  0  0  0  0  0  0  0  0  0
    7.5904  -18.4772   22.2693 N   0  0  0  0  0  0  0  0  0  0  0  0
    9.9901  -18.7879   22.4623 C   0  0  0  0  0  0  0  0  0  0  0  0
   11.0342  -19.4780   22.3448 O   0  0  0  0  0  0  0  0  0  0  0  0
   14.2653  -16.0936   22.8599 N   0  0  0  0  0  0  0  0  0  0  0  0
   13.1719  -15.2763   23.2687 C   0  0  0  0  0  0  0  0  0  0  0  0
   13.3530  -14.2279   23.9319 O   0  0  0  0  0  0  0  0  0  0  0  0
   11.8168  -15.6930   22.8923 C   0  0  0  0  0  0  0  0  0  0  0  0
   11.3797  -16.9823   23.5388 C   0  0  2  0  0  0  0  0  0  0  0  0
   10.1357  -17.4839   23.0552 N   0  0  0  0  0  0  0  0  0  0  0  0
   11.3139  -16.8022   25.0072 C   0  0  0  0  0  0  0  0  0  0  0  0
   12.3596  -16.4643   25.6119 O   0  0  0  0  0  0  0  0  0  0  0  0
    7.3621  -11.4938   25.2294 O   0  0  0  0  0  0  0  0  0  0  0  0
    7.6994  -12.7111   25.8143 C   0  0  0  0  0  0  0  0  0  0  0  0
    8.7609  -12.7505   26.6854 C   0  0  0  0  0  0  0  0  0  0  0  0
    9.0793  -13.9758   27.2571 C   0  0  0  0  0  0  0  0  0  0  0  0
    8.3605  -15.1181   26.9661 C   0  0  0  0  0  0  0  0  0  0  0  0
    8.7432  -16.3828   27.5930 C   0  0  0  0  0  0  0  0  0  0  0  0
   10.1241  -16.8697   27.2084 C   0  0  2  0  0  0  0  0  0  0  0  0
   10.1388  -16.9882   25.7768 N   0  0  0  0  0  0  0  0  0  0  0  0
   10.4393  -18.2028   27.7691 C   0  0  0  0  0  0  0  0  0  0  0  0
   10.5680  -18.4058   29.0128 O   0  0  0  0  0  0  0  0  0  0  0  0
    7.2963  -15.0451   26.0839 C   0  0  0  0  0  0  0  0  0  0  0  0
    6.9592  -13.8342   25.5009 C   0  0  0  0  0  0  0  0  0  0  0  0
   10.6087  -19.3003   26.9475 O   0  0  0  0  0  0  0  0  0  0  0  0
  2  3  2  0
  2  1  1  0
  4  2  1  0
  5  4  1  0
  5  6  1  6
  7  8  2  0
  7  5  1  0
 10  9  1  0
 10 12  1  0
 11 10  2  0
 13 12  1  6
 13 14  1  0
 14  7  1  0
 15 13  1  0
 16 15  2  0
 18 17  1  0
 18 28  2  0
 19 18  1  0
 20 19  2  0
 20 21  1  0
 21 27  2  0
 22 21  1  0
 23 22  1  1
 23 24  1  0
 24 15  1  0
 25 23  1  0
 26 25  2  0
 27 28  1  0
 29 25  1  0
M  END
$$$$
