NNY.pdb
     RDKit          3D

 29 29  0  0  1  0  0  0  0  0999 V2000
   10.2919  -16.2672   17.0056 N   0  0  0  0  0  0  0  0  0  0  0  0
    8.9754  -15.7770   16.9399 C   0  0  0  0  0  0  0  0  0  0  0  0
    8.5590  -15.2586   15.8870 O   0  0  0  0  0  0  0  0  0  0  0  0
    8.0851  -15.8718   18.1062 C   0  0  0  0  0  0  0  0  0  0  0  0
    8.8470  -16.4349   19.2567 C   0  0  2  0  0  0  0  0  0  0  0  0
    9.1510  -17.8101   18.9855 N   0  0  0  0  0  0  0  0  0  0  0  0
    8.2129  -16.2210   20.5626 C   0  0  0  0  0  0  0  0  0  0  0  0
    8.0080  -15.0480   20.9653 O   0  0  0  0  0  0  0  0  0  0  0  0
    4.7621  -17.2978   21.1866 N   0  0  0  0  0  0  0  0  0  0  0  0
    4.9611  -18.2949   22.1850 C   0  0  0  0  0  0  0  0  0  0  0  0
    4.1406  -19.2287   22.3475 O   0  0  0  0  0  0  0  0  0  0  0  0
    6.1592  -18.2033   23.0265 C   0  0  0  0  0  0  0  0  0  0  0  0
    7.0797  -17.0723   22.6461 C   0  0  2  0  0  0  0  0  0  0  0  0
    7.7996  -17.2895   21.4347 N   0  0  0  0  0  0  0  0  0  0  0  0
    8.0259  -16.8103   23.7546 C   0  0  0  0  0  0  0  0  0  0  0  0
    9.2548  -16.8265   23.5035 O   0  0  0  0  0  0  0  0  0  0  0  0
    6.3811  -10.3542   25.2408 O   0  0  0  0  0  0  0  0  0  0  0  0
    6.7389  -11.6110   25.7204 C   0  0  0  0  0  0  0  0  0  0  0  0
    8.0500  -12.0070   25.6135 C   0  0  0  0  0  0  0  0  0  0  0  0
    8.3841  -13.2650   26.0988 C   0  0  0  0  0  0  0  0  0  0  0  0
    7.4392  -14.0941   26.6694 C   0  0  0  0  0  0  0  0  0  0  0  0
    7.8459  -15.4109   27.1592 C   0  0  0  0  0  0  0  0  0  0  0  0
    8.5728  -16.2540   26.1331 C   0  0  2  0  0  0  0  0  0  0  0  0
    7.6297  -16.5409   25.0881 N   0  0  0  0  0  0  0  0  0  0  0  0
    9.0391  -17.5479   26.6800 C   0  0  0  0  0  0  0  0  0  0  0  0
    9.9508  -17.6287   27.5558 O   0  0  0  0  0  0  0  0  0  0  0  0
    6.1263  -13.6657   26.7622 C   0  0  0  0  0  0  0  0  0  0  0  0
    5.7684  -12.4151   26.2853 C   0  0  0  0  0  0  0  0  0  0  0  0
    8.4912  -18.7419   26.2529 O   0  0  0  0  0  0  0  0  0  0  0  0
  2  3  2  0
  2  1  1  0
  4  2  1  0
  5  4  1  0
  5  6  1  6
  7  8  2  0
  7  5  1  0
 10  9  1  0
 10 12  1  0
 11 10  2  0
 13 12  1  1
 13 14  1  0
 14  7  1  0
 15 13  1  0
 16 15  2  0
 18 17  1  0
 18 28  2  0
 19 18  1  0
 20 19  2  0
 20 21  1  0
 21 27  2  0
 22 21  1  0
 23 22  1  1
 23 24  1  0
 24 15  1  0
 25 23  1  0
 26 25  2  0
 27 28  1  0
 29 25  1  0
M  END
$$$$
