PCM.pdb
     RDKit          3D

 22 22  0  0  1  0  0  0  0  0999 V2000
    8.3538  -15.0147   19.3926 N   0  0  0  0  0  0  0  0  0  0  0  0
    8.0358  -14.1650   18.2287 C   0  0  0  0  0  0  0  0  0  0  0  0
    6.9830  -13.2704   18.9030 C   0  0  0  0  0  0  0  0  0  0  0  0
    7.7946  -12.8133   20.1222 C   0  0  0  0  0  0  0  0  0  0  0  0
    8.6539  -14.0114   20.4037 C   0  0  1  0  0  0  0  0  0  0  0  0
    8.4399  -14.5392   21.7727 C   0  0  0  0  0  0  0  0  0  0  0  0
    8.7907  -13.7569   22.7185 O   0  0  0  0  0  0  0  0  0  0  0  0
    7.9010  -15.7869   22.1059 N   0  0  0  0  0  0  0  0  0  0  0  0
    7.8378  -16.3195   23.4475 C   0  0  1  0  0  0  0  0  0  0  0  0
    7.1533  -17.6816   23.4624 C   0  0  0  0  0  0  0  0  0  0  0  0
    8.1630  -18.9448   22.6734 S   0  0  0  0  0  0  0  0  0  0  0  0
    9.1337  -16.3599   24.1376 C   0  0  0  0  0  0  0  0  0  0  0  0
   10.1546  -15.7279   23.7175 O   0  0  0  0  0  0  0  0  0  0  0  0
    9.4944  -12.0628   27.4184 C   0  0  0  0  0  0  0  0  0  0  0  0
    9.6789  -13.3105   28.6696 S   0  0  0  0  0  0  0  0  0  0  0  0
   10.3416  -14.8820   28.1371 C   0  0  0  0  0  0  0  0  0  0  0  0
    9.6316  -15.4519   26.9624 C   0  0  0  0  0  0  0  0  0  0  0  0
   10.1628  -16.7116   26.4035 C   0  0  2  0  0  0  0  0  0  0  0  0
    9.2573  -17.1266   25.3107 N   0  0  0  0  0  0  0  0  0  0  0  0
   10.1932  -17.7874   27.4017 C   0  0  0  0  0  0  0  0  0  0  0  0
    9.3424  -18.8634   27.4186 O   0  0  0  0  0  0  0  0  0  0  0  0
   11.0610  -17.7574   28.3392 O   0  0  0  0  0  0  0  0  0  0  0  0
  2  1  1  0
  3  2  1  0
  4  3  1  0
  4  5  1  0
  5  1  1  0
  5  6  1  1
  6  8  1  0
  7  6  2  0
  9  8  1  0
  9 12  1  0
  9 10  1  6
 11 10  1  0
 12 19  1  0
 13 12  2  0
 14 15  1  0
 16 15  1  0
 17 16  1  0
 18 20  1  0
 18 17  1  1
 19 18  1  0
 20 21  1  0
 22 20  2  0
M  END
$$$$
