PCM.pdb
     RDKit          3D

 22 22  0  0  1  0  0  0  0  0999 V2000
    8.9242  -14.8620   18.4095 N   0  0  0  0  0  0  0  0  0  0  0  0
    8.6822  -14.0285   17.2160 C   0  0  0  0  0  0  0  0  0  0  0  0
    7.3863  -13.3518   17.6914 C   0  0  0  0  0  0  0  0  0  0  0  0
    7.8712  -12.8180   19.0457 C   0  0  0  0  0  0  0  0  0  0  0  0
    8.8579  -13.8667   19.4697 C   0  0  1  0  0  0  0  0  0  0  0  0
    8.4921  -14.4807   20.7688 C   0  0  0  0  0  0  0  0  0  0  0  0
    8.4335  -13.6726   21.7553 O   0  0  0  0  0  0  0  0  0  0  0  0
    8.2135  -15.8328   20.9982 N   0  0  0  0  0  0  0  0  0  0  0  0
    7.7946  -16.3782   22.2689 C   0  0  1  0  0  0  0  0  0  0  0  0
    7.6727  -17.8962   22.1977 C   0  0  0  0  0  0  0  0  0  0  0  0
    9.2821  -18.6986   22.2555 S   0  0  0  0  0  0  0  0  0  0  0  0
    8.6250  -15.9567   23.4045 C   0  0  0  0  0  0  0  0  0  0  0  0
    9.8725  -15.7327   23.2965 O   0  0  0  0  0  0  0  0  0  0  0  0
    5.9996  -10.5125   26.1742 C   0  0  0  0  0  0  0  0  0  0  0  0
    6.3813  -12.1219   26.8226 S   0  0  0  0  0  0  0  0  0  0  0  0
    7.6029  -13.0721   25.9298 C   0  0  0  0  0  0  0  0  0  0  0  0
    7.9228  -14.3724   26.5746 C   0  0  0  0  0  0  0  0  0  0  0  0
    8.7962  -15.2969   25.8238 C   0  0  2  0  0  0  0  0  0  0  0  0
    8.0225  -15.7926   24.6652 N   0  0  0  0  0  0  0  0  0  0  0  0
    9.1966  -16.4550   26.6320 C   0  0  0  0  0  0  0  0  0  0  0  0
    8.8022  -17.7476   26.3962 O   0  0  0  0  0  0  0  0  0  0  0  0
    9.9689  -16.2899   27.6365 O   0  0  0  0  0  0  0  0  0  0  0  0
  2  1  1  0
  3  2  1  0
  4  3  1  0
  4  5  1  0
  5  1  1  0
  5  6  1  1
  6  8  1  0
  7  6  2  0
  9  8  1  0
  9 12  1  0
  9 10  1  6
 11 10  1  0
 12 19  1  0
 13 12  2  0
 14 15  1  0
 16 15  1  0
 17 16  1  0
 18 20  1  0
 18 17  1  1
 19 18  1  0
 20 21  1  0
 22 20  2  0
M  END
$$$$
