PCM.pdb
     RDKit          3D

 22 22  0  0  1  0  0  0  0  0999 V2000
    8.0392  -15.2599   19.4198 N   0  0  0  0  0  0  0  0  0  0  0  0
    7.3575  -16.1657   18.4751 C   0  0  0  0  0  0  0  0  0  0  0  0
    7.3022  -17.4085   19.3783 C   0  0  0  0  0  0  0  0  0  0  0  0
    6.6458  -16.7828   20.6160 C   0  0  0  0  0  0  0  0  0  0  0  0
    7.1901  -15.3841   20.5958 C   0  0  1  0  0  0  0  0  0  0  0  0
    7.9316  -15.0585   21.8378 C   0  0  0  0  0  0  0  0  0  0  0  0
    9.2006  -15.1726   21.7597 O   0  0  0  0  0  0  0  0  0  0  0  0
    7.3735  -14.6484   23.0538 N   0  0  0  0  0  0  0  0  0  0  0  0
    8.1335  -14.3691   24.2505 C   0  0  1  0  0  0  0  0  0  0  0  0
    7.3421  -13.4821   25.2051 C   0  0  0  0  0  0  0  0  0  0  0  0
    5.7981  -14.2558   25.7099 S   0  0  0  0  0  0  0  0  0  0  0  0
    8.6461  -15.5672   24.9278 C   0  0  0  0  0  0  0  0  0  0  0  0
    7.8909  -16.3790   25.5512 O   0  0  0  0  0  0  0  0  0  0  0  0
   11.0009  -12.4729   29.0699 C   0  0  0  0  0  0  0  0  0  0  0  0
   10.6736  -14.1200   29.6497 S   0  0  0  0  0  0  0  0  0  0  0  0
   11.0098  -15.4500   28.5050 C   0  0  0  0  0  0  0  0  0  0  0  0
   10.4905  -15.1932   27.1363 C   0  0  0  0  0  0  0  0  0  0  0  0
   10.7656  -16.2197   26.1107 C   0  0  2  0  0  0  0  0  0  0  0  0
   10.0271  -15.8331   24.8894 N   0  0  0  0  0  0  0  0  0  0  0  0
   10.2985  -17.5490   26.5226 C   0  0  0  0  0  0  0  0  0  0  0  0
    9.2417  -18.2168   25.9576 O   0  0  0  0  0  0  0  0  0  0  0  0
   10.8933  -18.1633   27.4722 O   0  0  0  0  0  0  0  0  0  0  0  0
  2  1  1  0
  3  2  1  0
  4  3  1  0
  4  5  1  0
  5  1  1  0
  5  6  1  1
  6  8  1  0
  7  6  2  0
  9  8  1  0
  9 12  1  0
  9 10  1  1
 11 10  1  0
 12 19  1  0
 13 12  2  0
 14 15  1  0
 16 15  1  0
 17 16  1  0
 18 20  1  0
 18 17  1  1
 19 18  1  0
 20 21  1  0
 22 20  2  0
M  END
$$$$
