PCM.pdb
     RDKit          3D

 22 22  0  0  1  0  0  0  0  0999 V2000
    7.6306  -14.8603   18.9393 N   0  0  0  0  0  0  0  0  0  0  0  0
    7.8814  -13.7073   18.0530 C   0  0  0  0  0  0  0  0  0  0  0  0
    7.3136  -12.6108   18.9687 C   0  0  0  0  0  0  0  0  0  0  0  0
    8.1082  -12.9210   20.2441 C   0  0  0  0  0  0  0  0  0  0  0  0
    8.2600  -14.4126   20.1733 C   0  0  1  0  0  0  0  0  0  0  0  0
    7.6751  -15.0874   21.3570 C   0  0  0  0  0  0  0  0  0  0  0  0
    6.6013  -14.5636   21.8065 O   0  0  0  0  0  0  0  0  0  0  0  0
    8.1863  -16.2178   22.0044 N   0  0  0  0  0  0  0  0  0  0  0  0
    7.8015  -16.6464   23.3294 C   0  0  1  0  0  0  0  0  0  0  0  0
    7.5552  -18.1505   23.3665 C   0  0  0  0  0  0  0  0  0  0  0  0
    7.2054  -18.7286   25.0341 S   0  0  0  0  0  0  0  0  0  0  0  0
    8.7286  -16.2257   24.3879 C   0  0  0  0  0  0  0  0  0  0  0  0
    9.9868  -16.3929   24.3043 O   0  0  0  0  0  0  0  0  0  0  0  0
    5.7215  -10.7473   26.2146 C   0  0  0  0  0  0  0  0  0  0  0  0
    6.6357  -11.8994   27.2111 S   0  0  0  0  0  0  0  0  0  0  0  0
    7.7096  -13.0306   26.3397 C   0  0  0  0  0  0  0  0  0  0  0  0
    8.4422  -13.9580   27.2408 C   0  0  0  0  0  0  0  0  0  0  0  0
    9.1039  -15.1200   26.6136 C   0  0  2  0  0  0  0  0  0  0  0  0
    8.2104  -15.6127   25.5433 N   0  0  0  0  0  0  0  0  0  0  0  0
    9.3159  -16.2147   27.5683 C   0  0  0  0  0  0  0  0  0  0  0  0
   10.2909  -16.2335   28.5332 O   0  0  0  0  0  0  0  0  0  0  0  0
    8.5579  -17.2427   27.5320 O   0  0  0  0  0  0  0  0  0  0  0  0
  2  1  1  0
  3  2  1  0
  4  3  1  0
  4  5  1  0
  5  1  1  0
  5  6  1  1
  6  8  1  0
  7  6  2  0
  9  8  1  0
  9 12  1  0
  9 10  1  6
 11 10  1  0
 12 19  1  0
 13 12  2  0
 14 15  1  0
 16 15  1  0
 17 16  1  0
 18 20  1  0
 18 17  1  1
 19 18  1  0
 20 21  1  0
 22 20  2  0
M  END
$$$$
