PCM.pdb
     RDKit          3D

 22 22  0  0  1  0  0  0  0  0999 V2000
    7.2346  -17.0829   20.9108 N   0  0  0  0  0  0  0  0  0  0  0  0
    7.0016  -17.4105   19.4908 C   0  0  0  0  0  0  0  0  0  0  0  0
    6.9359  -15.9724   18.9514 C   0  0  0  0  0  0  0  0  0  0  0  0
    8.2573  -15.4374   19.5187 C   0  0  0  0  0  0  0  0  0  0  0  0
    8.3793  -16.1890   20.8122 C   0  0  1  0  0  0  0  0  0  0  0  0
    8.4585  -15.2775   21.9790 C   0  0  0  0  0  0  0  0  0  0  0  0
    9.5259  -14.5814   22.0542 O   0  0  0  0  0  0  0  0  0  0  0  0
    7.4894  -15.1204   22.9763 N   0  0  0  0  0  0  0  0  0  0  0  0
    7.5451  -14.1254   24.0224 C   0  0  1  0  0  0  0  0  0  0  0  0
    6.2258  -14.0591   24.7835 C   0  0  0  0  0  0  0  0  0  0  0  0
    6.2805  -12.8442   26.1096 S   0  0  0  0  0  0  0  0  0  0  0  0
    8.6863  -14.2780   24.9341 C   0  0  0  0  0  0  0  0  0  0  0  0
    9.0738  -13.3475   25.7101 O   0  0  0  0  0  0  0  0  0  0  0  0
   10.5566  -13.1896   29.2679 C   0  0  0  0  0  0  0  0  0  0  0  0
   10.4520  -14.8944   29.7567 S   0  0  0  0  0  0  0  0  0  0  0  0
   10.6325  -16.1087   28.4586 C   0  0  0  0  0  0  0  0  0  0  0  0
    9.7669  -15.8429   27.2801 C   0  0  0  0  0  0  0  0  0  0  0  0
   10.4313  -15.7657   25.9633 C   0  0  2  0  0  0  0  0  0  0  0  0
    9.3833  -15.5000   24.9546 N   0  0  0  0  0  0  0  0  0  0  0  0
   11.0961  -17.0250   25.6071 C   0  0  0  0  0  0  0  0  0  0  0  0
   12.3028  -17.4420   26.1090 O   0  0  0  0  0  0  0  0  0  0  0  0
   10.5430  -17.8194   24.7729 O   0  0  0  0  0  0  0  0  0  0  0  0
  2  1  1  0
  3  2  1  0
  4  3  1  0
  4  5  1  0
  5  1  1  0
  5  6  1  1
  6  8  1  0
  7  6  2  0
  9  8  1  0
  9 12  1  0
  9 10  1  1
 11 10  1  0
 12 19  1  0
 13 12  2  0
 14 15  1  0
 16 15  1  0
 17 16  1  0
 18 20  1  0
 18 17  1  1
 19 18  1  0
 20 21  1  0
 22 20  2  0
M  END
$$$$
