PCM.pdb
     RDKit          3D

 22 22  0  0  1  0  0  0  0  0999 V2000
    9.2263  -14.9024   17.6333 N   0  0  0  0  0  0  0  0  0  0  0  0
    8.9104  -14.1619   16.3965 C   0  0  0  0  0  0  0  0  0  0  0  0
    7.4513  -13.8101   16.7289 C   0  0  0  0  0  0  0  0  0  0  0  0
    7.6625  -13.1632   18.1041 C   0  0  0  0  0  0  0  0  0  0  0  0
    8.8237  -13.9419   18.6505 C   0  0  1  0  0  0  0  0  0  0  0  0
    8.4897  -14.6134   19.9296 C   0  0  0  0  0  0  0  0  0  0  0  0
    8.1242  -13.8353   20.8733 O   0  0  0  0  0  0  0  0  0  0  0  0
    8.5399  -15.9888   20.1822 N   0  0  0  0  0  0  0  0  0  0  0  0
    8.1506  -16.6069   21.4288 C   0  0  1  0  0  0  0  0  0  0  0  0
    8.3912  -18.1119   21.3903 C   0  0  0  0  0  0  0  0  0  0  0  0
   10.1315  -18.5039   21.1555 S   0  0  0  0  0  0  0  0  0  0  0  0
    8.7587  -15.9940   22.6169 C   0  0  0  0  0  0  0  0  0  0  0  0
    9.9427  -15.5290   22.6191 O   0  0  0  0  0  0  0  0  0  0  0  0
    6.4344  -10.8765   27.9191 C   0  0  0  0  0  0  0  0  0  0  0  0
    6.3798  -11.9170   26.4801 S   0  0  0  0  0  0  0  0  0  0  0  0
    7.3598  -13.4098   26.5378 C   0  0  0  0  0  0  0  0  0  0  0  0
    7.2347  -14.2430   25.3134 C   0  0  0  0  0  0  0  0  0  0  0  0
    8.4192  -15.0289   24.9126 C   0  0  2  0  0  0  0  0  0  0  0  0
    8.0068  -15.9153   23.8033 N   0  0  0  0  0  0  0  0  0  0  0  0
    8.9172  -15.8715   26.0066 C   0  0  0  0  0  0  0  0  0  0  0  0
    8.9053  -17.2433   26.0052 O   0  0  0  0  0  0  0  0  0  0  0  0
    9.4062  -15.3265   27.0538 O   0  0  0  0  0  0  0  0  0  0  0  0
  2  1  1  0
  3  2  1  0
  4  3  1  0
  4  5  1  0
  5  1  1  0
  5  6  1  1
  6  8  1  0
  7  6  2  0
  9  8  1  0
  9 12  1  0
  9 10  1  6
 11 10  1  0
 12 19  1  0
 13 12  2  0
 14 15  1  0
 16 15  1  0
 17 16  1  0
 18 20  1  0
 18 17  1  1
 19 18  1  0
 20 21  1  0
 22 20  2  0
M  END
$$$$
