PCM.pdb
     RDKit          3D

 22 22  0  0  1  0  0  0  0  0999 V2000
    9.3188  -14.5465   18.4503 N   0  0  0  0  0  0  0  0  0  0  0  0
    9.1732  -13.6597   17.2797 C   0  0  0  0  0  0  0  0  0  0  0  0
    7.6640  -13.3947   17.4031 C   0  0  0  0  0  0  0  0  0  0  0  0
    7.6159  -12.9275   18.8638 C   0  0  0  0  0  0  0  0  0  0  0  0
    8.7090  -13.7386   19.4966 C   0  0  1  0  0  0  0  0  0  0  0  0
    8.2040  -14.5804   20.6078 C   0  0  0  0  0  0  0  0  0  0  0  0
    7.6640  -13.9418   21.5723 O   0  0  0  0  0  0  0  0  0  0  0  0
    8.2675  -15.9762   20.6862 N   0  0  0  0  0  0  0  0  0  0  0  0
    7.8338  -16.7527   21.8249 C   0  0  1  0  0  0  0  0  0  0  0  0
    8.0982  -18.2380   21.6053 C   0  0  0  0  0  0  0  0  0  0  0  0
    9.8594  -18.6052   21.5755 S   0  0  0  0  0  0  0  0  0  0  0  0
    8.3807  -16.2917   23.1076 C   0  0  0  0  0  0  0  0  0  0  0  0
    9.4035  -15.5396   23.1868 O   0  0  0  0  0  0  0  0  0  0  0  0
    7.6555  -11.7706   28.2703 C   0  0  0  0  0  0  0  0  0  0  0  0
    7.7128  -12.8697   26.8757 S   0  0  0  0  0  0  0  0  0  0  0  0
    6.5474  -14.2239   26.8792 C   0  0  0  0  0  0  0  0  0  0  0  0
    6.6531  -15.0938   25.6787 C   0  0  0  0  0  0  0  0  0  0  0  0
    7.8832  -15.8993   25.5398 C   0  0  2  0  0  0  0  0  0  0  0  0
    7.7528  -16.6948   24.3003 N   0  0  0  0  0  0  0  0  0  0  0  0
    8.0616  -16.8302   26.6607 C   0  0  0  0  0  0  0  0  0  0  0  0
    8.8994  -16.6202   27.7264 O   0  0  0  0  0  0  0  0  0  0  0  0
    7.4061  -17.9269   26.6838 O   0  0  0  0  0  0  0  0  0  0  0  0
  2  1  1  0
  3  2  1  0
  4  3  1  0
  4  5  1  0
  5  1  1  0
  5  6  1  1
  6  8  1  0
  7  6  2  0
  9  8  1  0
  9 12  1  0
  9 10  1  6
 11 10  1  0
 12 19  1  0
 13 12  2  0
 14 15  1  0
 16 15  1  0
 17 16  1  0
 18 20  1  0
 18 17  1  1
 19 18  1  0
 20 21  1  0
 22 20  2  0
M  END
$$$$
