PCM.pdb
     RDKit          3D

 22 22  0  0  1  0  0  0  0  0999 V2000
    9.5460  -13.7234   19.5349 N   0  0  0  0  0  0  0  0  0  0  0  0
    9.9662  -13.1969   18.2219 C   0  0  0  0  0  0  0  0  0  0  0  0
    9.1094  -14.1207   17.3410 C   0  0  0  0  0  0  0  0  0  0  0  0
    7.7390  -13.8704   17.9841 C   0  0  0  0  0  0  0  0  0  0  0  0
    8.0968  -13.6409   19.4237 C   0  0  1  0  0  0  0  0  0  0  0  0
    7.4271  -14.6103   20.3239 C   0  0  0  0  0  0  0  0  0  0  0  0
    6.2428  -14.9419   19.9820 O   0  0  0  0  0  0  0  0  0  0  0  0
    7.9684  -15.1762   21.4837 N   0  0  0  0  0  0  0  0  0  0  0  0
    7.3080  -16.1748   22.2925 C   0  0  1  0  0  0  0  0  0  0  0  0
    6.6580  -17.2420   21.4191 C   0  0  0  0  0  0  0  0  0  0  0  0
    5.9365  -18.5629   22.4051 S   0  0  0  0  0  0  0  0  0  0  0  0
    8.1649  -16.7717   23.3251 C   0  0  0  0  0  0  0  0  0  0  0  0
    9.2291  -17.4111   23.0482 O   0  0  0  0  0  0  0  0  0  0  0  0
    6.5623  -11.1666   28.3577 C   0  0  0  0  0  0  0  0  0  0  0  0
    6.2639  -12.4753   27.1939 S   0  0  0  0  0  0  0  0  0  0  0  0
    7.6551  -13.5251   26.8004 C   0  0  0  0  0  0  0  0  0  0  0  0
    7.3131  -14.6288   25.8657 C   0  0  0  0  0  0  0  0  0  0  0  0
    8.3917  -15.5788   25.5258 C   0  0  2  0  0  0  0  0  0  0  0  0
    7.7993  -16.6345   24.6767 N   0  0  0  0  0  0  0  0  0  0  0  0
    8.9577  -16.2194   26.7190 C   0  0  0  0  0  0  0  0  0  0  0  0
    9.8979  -15.6512   27.5407 O   0  0  0  0  0  0  0  0  0  0  0  0
    8.5724  -17.3915   27.0518 O   0  0  0  0  0  0  0  0  0  0  0  0
  2  1  1  0
  3  2  1  0
  4  3  1  0
  4  5  1  0
  5  1  1  0
  5  6  1  1
  6  8  1  0
  7  6  2  0
  9  8  1  0
  9 12  1  0
  9 10  1  6
 11 10  1  0
 12 19  1  0
 13 12  2  0
 14 15  1  0
 16 15  1  0
 17 16  1  0
 18 20  1  0
 18 17  1  1
 19 18  1  0
 20 21  1  0
 22 20  2  0
M  END
$$$$
