PCM.pdb
     RDKit          3D

 22 22  0  0  1  0  0  0  0  0999 V2000
    8.2636  -14.9943   18.8836 N   0  0  0  0  0  0  0  0  0  0  0  0
    8.0259  -14.0492   17.7754 C   0  0  0  0  0  0  0  0  0  0  0  0
    7.1792  -13.0260   18.5497 C   0  0  0  0  0  0  0  0  0  0  0  0
    8.1255  -12.7680   19.7297 C   0  0  0  0  0  0  0  0  0  0  0  0
    8.7861  -14.1037   19.9097 C   0  0  1  0  0  0  0  0  0  0  0  0
    8.5663  -14.6535   21.2692 C   0  0  0  0  0  0  0  0  0  0  0  0
    9.1086  -13.9930   22.2174 O   0  0  0  0  0  0  0  0  0  0  0  0
    7.8352  -15.8025   21.5911 N   0  0  0  0  0  0  0  0  0  0  0  0
    7.5199  -16.2216   22.9374 C   0  0  1  0  0  0  0  0  0  0  0  0
    6.5572  -17.4037   22.9296 C   0  0  0  0  0  0  0  0  0  0  0  0
    6.0603  -17.8708   24.5947 S   0  0  0  0  0  0  0  0  0  0  0  0
    8.6977  -16.4911   23.7722 C   0  0  0  0  0  0  0  0  0  0  0  0
    9.7215  -17.1073   23.3360 O   0  0  0  0  0  0  0  0  0  0  0  0
    9.0540  -13.1572   29.4150 C   0  0  0  0  0  0  0  0  0  0  0  0
   10.6603  -13.9073   29.3003 S   0  0  0  0  0  0  0  0  0  0  0  0
   10.8521  -15.1988   28.0807 C   0  0  0  0  0  0  0  0  0  0  0  0
    9.8066  -15.1704   27.0248 C   0  0  0  0  0  0  0  0  0  0  0  0
    9.9059  -16.1835   25.9547 C   0  0  2  0  0  0  0  0  0  0  0  0
    8.6999  -16.0528   25.1091 N   0  0  0  0  0  0  0  0  0  0  0  0
    9.9393  -17.5496   26.4907 C   0  0  0  0  0  0  0  0  0  0  0  0
    8.8429  -18.3624   26.6299 O   0  0  0  0  0  0  0  0  0  0  0  0
   11.0510  -18.0562   26.8653 O   0  0  0  0  0  0  0  0  0  0  0  0
  2  1  1  0
  3  2  1  0
  4  3  1  0
  4  5  1  0
  5  1  1  0
  5  6  1  1
  6  8  1  0
  7  6  2  0
  9  8  1  0
  9 12  1  0
  9 10  1  6
 11 10  1  0
 12 19  1  0
 13 12  2  0
 14 15  1  0
 16 15  1  0
 17 16  1  0
 18 20  1  0
 18 17  1  1
 19 18  1  0
 20 21  1  0
 22 20  2  0
M  END
$$$$
