PCM.pdb
     RDKit          3D

 22 22  0  0  1  0  0  0  0  0999 V2000
    8.5374  -15.1264   18.6854 N   0  0  0  0  0  0  0  0  0  0  0  0
    8.3988  -14.2785   17.4856 C   0  0  0  0  0  0  0  0  0  0  0  0
    7.2995  -13.3432   18.0149 C   0  0  0  0  0  0  0  0  0  0  0  0
    7.9643  -12.9006   19.3249 C   0  0  0  0  0  0  0  0  0  0  0  0
    8.7400  -14.1233   19.7207 C   0  0  1  0  0  0  0  0  0  0  0  0
    8.3359  -14.6300   21.0543 C   0  0  0  0  0  0  0  0  0  0  0  0
    8.4738  -13.8017   22.0158 O   0  0  0  0  0  0  0  0  0  0  0  0
    7.8304  -15.9033   21.3397 N   0  0  0  0  0  0  0  0  0  0  0  0
    7.3211  -16.3119   22.6285 C   0  0  1  0  0  0  0  0  0  0  0  0
    6.7529  -17.7253   22.5678 C   0  0  0  0  0  0  0  0  0  0  0  0
    6.0349  -18.2242   24.1403 S   0  0  0  0  0  0  0  0  0  0  0  0
    8.2845  -16.1650   23.7273 C   0  0  0  0  0  0  0  0  0  0  0  0
    9.5062  -16.5022   23.6183 O   0  0  0  0  0  0  0  0  0  0  0  0
    6.0005  -10.5076   26.3204 C   0  0  0  0  0  0  0  0  0  0  0  0
    6.5052  -12.0488   27.0456 S   0  0  0  0  0  0  0  0  0  0  0  0
    7.8089  -12.9362   26.2058 C   0  0  0  0  0  0  0  0  0  0  0  0
    8.1518  -14.2293   26.8533 C   0  0  0  0  0  0  0  0  0  0  0  0
    8.8057  -15.2498   26.0094 C   0  0  2  0  0  0  0  0  0  0  0  0
    7.8446  -15.6307   24.9522 N   0  0  0  0  0  0  0  0  0  0  0  0
    9.1467  -16.4578   26.7704 C   0  0  0  0  0  0  0  0  0  0  0  0
    8.5840  -17.6930   26.5710 O   0  0  0  0  0  0  0  0  0  0  0  0
   10.0278  -16.3972   27.6939 O   0  0  0  0  0  0  0  0  0  0  0  0
  2  1  1  0
  3  2  1  0
  4  3  1  0
  4  5  1  0
  5  1  1  0
  5  6  1  1
  6  8  1  0
  7  6  2  0
  9  8  1  0
  9 12  1  0
  9 10  1  6
 11 10  1  0
 12 19  1  0
 13 12  2  0
 14 15  1  0
 16 15  1  0
 17 16  1  0
 18 20  1  0
 18 17  1  1
 19 18  1  0
 20 21  1  0
 22 20  2  0
M  END
$$$$
