PCM.pdb
     RDKit          3D

 22 22  0  0  1  0  0  0  0  0999 V2000
    8.6564  -15.3465   19.2541 N   0  0  0  0  0  0  0  0  0  0  0  0
    8.7170  -14.6425   17.9586 C   0  0  0  0  0  0  0  0  0  0  0  0
    7.6639  -13.5629   18.2565 C   0  0  0  0  0  0  0  0  0  0  0  0
    8.2353  -13.0200   19.5729 C   0  0  0  0  0  0  0  0  0  0  0  0
    8.8497  -14.2448   20.1858 C   0  0  1  0  0  0  0  0  0  0  0  0
    8.2706  -14.5505   21.5161 C   0  0  0  0  0  0  0  0  0  0  0  0
    8.4303  -13.6439   22.4004 O   0  0  0  0  0  0  0  0  0  0  0  0
    7.5832  -15.7158   21.8736 N   0  0  0  0  0  0  0  0  0  0  0  0
    7.2058  -16.0617   23.2247 C   0  0  1  0  0  0  0  0  0  0  0  0
    6.4020  -17.3569   23.2523 C   0  0  0  0  0  0  0  0  0  0  0  0
    5.8899  -17.7891   24.9221 S   0  0  0  0  0  0  0  0  0  0  0  0
    8.3304  -16.1050   24.1683 C   0  0  0  0  0  0  0  0  0  0  0  0
    9.4281  -16.6896   23.9011 O   0  0  0  0  0  0  0  0  0  0  0  0
    5.5087  -12.2335   26.9756 C   0  0  0  0  0  0  0  0  0  0  0  0
    7.0919  -12.3693   27.7703 S   0  0  0  0  0  0  0  0  0  0  0  0
    8.4303  -13.0122   26.7766 C   0  0  0  0  0  0  0  0  0  0  0  0
    9.0046  -14.2751   27.3098 C   0  0  0  0  0  0  0  0  0  0  0  0
    9.3513  -15.3220   26.3275 C   0  0  2  0  0  0  0  0  0  0  0  0
    8.1943  -15.4766   25.4197 N   0  0  0  0  0  0  0  0  0  0  0  0
    9.6018  -16.6183   26.9692 C   0  0  0  0  0  0  0  0  0  0  0  0
    8.7829  -17.7140   26.8653 O   0  0  0  0  0  0  0  0  0  0  0  0
   10.6485  -16.7793   27.6842 O   0  0  0  0  0  0  0  0  0  0  0  0
  2  1  1  0
  3  2  1  0
  4  3  1  0
  4  5  1  0
  5  1  1  0
  5  6  1  1
  6  8  1  0
  7  6  2  0
  9  8  1  0
  9 12  1  0
  9 10  1  6
 11 10  1  0
 12 19  1  0
 13 12  2  0
 14 15  1  0
 16 15  1  0
 17 16  1  0
 18 20  1  0
 18 17  1  1
 19 18  1  0
 20 21  1  0
 22 20  2  0
M  END
$$$$
