GEC.pdb
     RDKit          3D

 20 19  0  0  1  0  0  0  0  0999 V2000
    7.5826  -12.8975   18.5383 N   0  0  0  0  0  0  0  0  0  0  0  0
    8.7064  -13.4873   19.2404 C   0  0  0  0  0  0  0  0  0  0  0  0
    8.1919  -14.1327   20.4733 C   0  0  0  0  0  0  0  0  0  0  0  0
    7.0844  -13.7825   20.9950 O   0  0  0  0  0  0  0  0  0  0  0  0
    8.8945  -15.1733   21.1455 N   0  0  0  0  0  0  0  0  0  0  0  0
    8.4507  -15.7291   22.4059 C   0  0  1  0  0  0  0  0  0  0  0  0
    9.0757  -17.0753   22.6848 C   0  0  0  0  0  0  0  0  0  0  0  0
    8.8945  -18.0405   21.5396 C   0  0  0  0  0  0  0  0  0  0  0  0
    9.5845  -19.3064   21.8860 C   0  0  0  0  0  0  0  0  0  0  0  0
    9.4783  -19.8150   23.0331 O   0  0  0  0  0  0  0  0  0  0  0  0
    8.6625  -14.7673   23.5281 C   0  0  0  0  0  0  0  0  0  0  0  0
    9.7137  -14.0878   23.6561 O   0  0  0  0  0  0  0  0  0  0  0  0
   10.3850  -20.0031   20.9701 O   0  0  0  0  0  0  0  0  0  0  0  0
    7.6442  -14.6039   24.4959 N   0  0  0  0  0  0  0  0  0  0  0  0
    7.7039  -13.7068   25.6025 C   0  0  1  0  0  0  0  0  0  0  0  0
    6.3267  -13.0628   25.7506 C   0  0  0  0  0  0  0  0  0  0  0  0
    6.2640  -12.0161   27.2159 S   0  0  0  0  0  0  0  0  0  0  0  0
    8.0122  -14.4854   26.8283 C   0  0  0  0  0  0  0  0  0  0  0  0
    8.5582  -13.8924   27.9710 O   0  0  0  0  0  0  0  0  0  0  0  0
    7.7919  -15.7218   26.8870 O   0  0  0  0  0  0  0  0  0  0  0  0
  2  1  1  0
  3  2  1  0
  4  3  2  0
  5  3  1  0
  6 11  1  0
  6  5  1  0
  6  7  1  1
  8  7  1  0
  9 10  2  0
  9  8  1  0
 11 12  2  0
 13  9  1  0
 14 15  1  0
 14 11  1  0
 15 16  1  1
 16 17  1  0
 18 19  1  0
 18 15  1  0
 20 18  2  0
M  END
$$$$
