GEC.pdb
     RDKit          3D

 20 19  0  0  1  0  0  0  0  0999 V2000
    6.8529  -13.1856   18.3091 N   0  0  0  0  0  0  0  0  0  0  0  0
    8.1927  -13.3116   18.8501 C   0  0  0  0  0  0  0  0  0  0  0  0
    8.1175  -14.1403   20.0785 C   0  0  0  0  0  0  0  0  0  0  0  0
    7.0689  -14.1664   20.8001 O   0  0  0  0  0  0  0  0  0  0  0  0
    9.2002  -14.9507   20.5250 N   0  0  0  0  0  0  0  0  0  0  0  0
    9.1345  -15.7481   21.7310 C   0  0  1  0  0  0  0  0  0  0  0  0
   10.1600  -16.8567   21.7358 C   0  0  0  0  0  0  0  0  0  0  0  0
   10.0559  -17.7295   22.9618 C   0  0  0  0  0  0  0  0  0  0  0  0
   11.0762  -18.8003   22.8573 C   0  0  0  0  0  0  0  0  0  0  0  0
   11.0659  -19.6208   21.9021 O   0  0  0  0  0  0  0  0  0  0  0  0
    9.2240  -14.8939   22.9523 C   0  0  0  0  0  0  0  0  0  0  0  0
   10.1850  -14.1113   23.1696 O   0  0  0  0  0  0  0  0  0  0  0  0
   12.0990  -18.9612   23.8022 O   0  0  0  0  0  0  0  0  0  0  0  0
    8.1894  -14.9583   23.9145 N   0  0  0  0  0  0  0  0  0  0  0  0
    8.1187  -14.1605   25.0941 C   0  0  1  0  0  0  0  0  0  0  0  0
    6.6560  -13.7734   25.3036 C   0  0  0  0  0  0  0  0  0  0  0  0
    6.4809  -12.6787   26.7240 S   0  0  0  0  0  0  0  0  0  0  0  0
    8.5769  -14.9762   26.2467 C   0  0  0  0  0  0  0  0  0  0  0  0
    9.1079  -14.3994   27.4046 O   0  0  0  0  0  0  0  0  0  0  0  0
    8.5044  -16.2312   26.2260 O   0  0  0  0  0  0  0  0  0  0  0  0
  2  1  1  0
  3  2  1  0
  4  3  2  0
  5  3  1  0
  6 11  1  0
  6  5  1  0
  6  7  1  6
  8  7  1  0
  9 10  2  0
  9  8  1  0
 11 12  2  0
 13  9  1  0
 14 15  1  0
 14 11  1  0
 15 16  1  1
 16 17  1  0
 18 19  1  0
 18 15  1  0
 20 18  2  0
M  END
$$$$
