GEC.pdb
     RDKit          3D

 20 19  0  0  1  0  0  0  0  0999 V2000
    7.2550  -17.5647   20.6985 N   0  0  0  0  0  0  0  0  0  0  0  0
    8.4043  -16.7011   20.8910 C   0  0  0  0  0  0  0  0  0  0  0  0
    9.0333  -17.0535   22.1877 C   0  0  0  0  0  0  0  0  0  0  0  0
    8.3495  -17.5264   23.1520 O   0  0  0  0  0  0  0  0  0  0  0  0
   10.4260  -16.8879   22.4353 N   0  0  0  0  0  0  0  0  0  0  0  0
   11.0298  -17.1631   23.7215 C   0  0  1  0  0  0  0  0  0  0  0  0
   12.4486  -17.6628   23.5880 C   0  0  0  0  0  0  0  0  0  0  0  0
   12.5160  -19.0456   22.9887 C   0  0  0  0  0  0  0  0  0  0  0  0
   13.8542  -19.2206   22.3747 C   0  0  0  0  0  0  0  0  0  0  0  0
   14.8710  -19.4524   23.0804 O   0  0  0  0  0  0  0  0  0  0  0  0
   10.9323  -15.9827   24.6307 C   0  0  0  0  0  0  0  0  0  0  0  0
   11.1353  -14.8031   24.2428 O   0  0  0  0  0  0  0  0  0  0  0  0
   14.0648  -19.1396   20.9911 O   0  0  0  0  0  0  0  0  0  0  0  0
   10.5979  -16.1866   25.9896 N   0  0  0  0  0  0  0  0  0  0  0  0
   10.4531  -15.1523   26.9604 C   0  0  1  0  0  0  0  0  0  0  0  0
    9.0969  -14.4884   26.7300 C   0  0  0  0  0  0  0  0  0  0  0  0
    8.7627  -13.2573   28.0026 S   0  0  0  0  0  0  0  0  0  0  0  0
   10.4726  -15.7647   28.3126 C   0  0  0  0  0  0  0  0  0  0  0  0
   10.8622  -15.0499   29.4496 O   0  0  0  0  0  0  0  0  0  0  0  0
   10.1360  -16.9630   28.4897 O   0  0  0  0  0  0  0  0  0  0  0  0
  2  1  1  0
  3  2  1  0
  4  3  2  0
  5  3  1  0
  6 11  1  0
  6  5  1  0
  6  7  1  6
  8  7  1  0
  9 10  2  0
  9  8  1  0
 11 12  2  0
 13  9  1  0
 14 15  1  0
 14 11  1  0
 15 16  1  6
 16 17  1  0
 18 19  1  0
 18 15  1  0
 20 18  2  0
M  END
$$$$
