GEC.pdb
     RDKit          3D

 20 19  0  0  1  0  0  0  0  0999 V2000
    4.3798  -18.4510   21.4160 N   0  0  0  0  0  0  0  0  0  0  0  0
    5.1242  -17.2394   21.1303 C   0  0  0  0  0  0  0  0  0  0  0  0
    6.0985  -17.0274   22.2290 C   0  0  0  0  0  0  0  0  0  0  0  0
    5.8106  -17.3092   23.4368 O   0  0  0  0  0  0  0  0  0  0  0  0
    7.4032  -16.5013   22.0070 N   0  0  0  0  0  0  0  0  0  0  0  0
    8.3010  -16.1548   23.0879 C   0  0  1  0  0  0  0  0  0  0  0  0
    9.7497  -16.2206   22.6665 C   0  0  0  0  0  0  0  0  0  0  0  0
   10.1273  -17.5748   22.1194 C   0  0  0  0  0  0  0  0  0  0  0  0
   11.5587  -17.5372   21.7342 C   0  0  0  0  0  0  0  0  0  0  0  0
   11.9077  -17.4174   20.5302 O   0  0  0  0  0  0  0  0  0  0  0  0
    7.9481  -14.8322   23.6840 C   0  0  0  0  0  0  0  0  0  0  0  0
    7.5880  -13.8451   22.9917 O   0  0  0  0  0  0  0  0  0  0  0  0
   12.5946  -17.6312   22.6740 O   0  0  0  0  0  0  0  0  0  0  0  0
    8.0177  -14.6692   25.0872 N   0  0  0  0  0  0  0  0  0  0  0  0
    7.6939  -13.4707   25.7884 C   0  0  1  0  0  0  0  0  0  0  0  0
    6.1750  -13.4209   25.9424 C   0  0  0  0  0  0  0  0  0  0  0  0
    5.6873  -12.0828   27.0462 S   0  0  0  0  0  0  0  0  0  0  0  0
    8.3187  -13.5248   27.1340 C   0  0  0  0  0  0  0  0  0  0  0  0
    8.9751  -14.6657   27.6063 O   0  0  0  0  0  0  0  0  0  0  0  0
    8.2814  -12.5359   27.9095 O   0  0  0  0  0  0  0  0  0  0  0  0
  2  1  1  0
  3  2  1  0
  4  3  2  0
  5  3  1  0
  6 11  1  0
  6  5  1  0
  6  7  1  6
  8  7  1  0
  9 10  2  0
  9  8  1  0
 11 12  2  0
 13  9  1  0
 14 15  1  0
 14 11  1  0
 15 16  1  1
 16 17  1  0
 18 19  1  0
 18 15  1  0
 20 18  2  0
M  END
$$$$
