GEC.pdb
     RDKit          3D

 20 19  0  0  1  0  0  0  0  0999 V2000
    7.0582  -13.2591   19.0367 N   0  0  0  0  0  0  0  0  0  0  0  0
    8.3401  -13.6146   19.6147 C   0  0  0  0  0  0  0  0  0  0  0  0
    8.0925  -14.2266   20.9434 C   0  0  0  0  0  0  0  0  0  0  0  0
    7.0284  -13.9847   21.5993 O   0  0  0  0  0  0  0  0  0  0  0  0
    9.0177  -15.1137   21.5642 N   0  0  0  0  0  0  0  0  0  0  0  0
    8.8352  -15.6192   22.9080 C   0  0  1  0  0  0  0  0  0  0  0  0
    9.6373  -16.8742   23.1569 C   0  0  0  0  0  0  0  0  0  0  0  0
    9.2587  -17.9929   22.2183 C   0  0  0  0  0  0  0  0  0  0  0  0
   10.1664  -19.1379   22.4708 C   0  0  0  0  0  0  0  0  0  0  0  0
   11.0987  -19.4201   21.6727 O   0  0  0  0  0  0  0  0  0  0  0  0
    9.1113  -14.5637   23.9273 C   0  0  0  0  0  0  0  0  0  0  0  0
   10.1973  -13.9302   23.9776 O   0  0  0  0  0  0  0  0  0  0  0  0
   10.0429  -19.9631   23.5972 O   0  0  0  0  0  0  0  0  0  0  0  0
    8.1165  -14.2532   24.8834 N   0  0  0  0  0  0  0  0  0  0  0  0
    8.2302  -13.2435   25.8837 C   0  0  1  0  0  0  0  0  0  0  0  0
    6.9739  -12.3775   25.8115 C   0  0  0  0  0  0  0  0  0  0  0  0
    5.5472  -13.2644   26.4631 S   0  0  0  0  0  0  0  0  0  0  0  0
    8.2946  -13.8989   27.2142 C   0  0  0  0  0  0  0  0  0  0  0  0
    8.1340  -15.2787   27.3746 O   0  0  0  0  0  0  0  0  0  0  0  0
    8.4984  -13.2312   28.2597 O   0  0  0  0  0  0  0  0  0  0  0  0
  2  1  1  0
  3  2  1  0
  4  3  2  0
  5  3  1  0
  6 11  1  0
  6  5  1  0
  6  7  1  1
  8  7  1  0
  9 10  2  0
  9  8  1  0
 11 12  2  0
 13  9  1  0
 14 15  1  0
 14 11  1  0
 15 16  1  1
 16 17  1  0
 18 19  1  0
 18 15  1  0
 20 18  2  0
M  END
$$$$
