GEC.pdb
     RDKit          3D

 20 19  0  0  1  0  0  0  0  0999 V2000
    6.7011  -15.1515   19.5229 N   0  0  0  0  0  0  0  0  0  0  0  0
    7.6657  -15.8332   20.3647 C   0  0  0  0  0  0  0  0  0  0  0  0
    7.1976  -15.7411   21.7696 C   0  0  0  0  0  0  0  0  0  0  0  0
    6.1730  -15.0543   22.0856 O   0  0  0  0  0  0  0  0  0  0  0  0
    7.8556  -16.4066   22.8430 N   0  0  0  0  0  0  0  0  0  0  0  0
    7.4122  -16.3025   24.2168 C   0  0  1  0  0  0  0  0  0  0  0  0
    7.4970  -17.6240   24.9429 C   0  0  0  0  0  0  0  0  0  0  0  0
    6.7796  -18.7294   24.2085 C   0  0  0  0  0  0  0  0  0  0  0  0
    6.9175  -19.9768   24.9981 C   0  0  0  0  0  0  0  0  0  0  0  0
    7.7201  -20.0517   25.9655 O   0  0  0  0  0  0  0  0  0  0  0  0
    8.1366  -15.2157   24.9403 C   0  0  0  0  0  0  0  0  0  0  0  0
    9.3779  -15.0367   24.8383 O   0  0  0  0  0  0  0  0  0  0  0  0
    6.1731  -21.1314   24.7188 O   0  0  0  0  0  0  0  0  0  0  0  0
    7.4066  -14.3427   25.7799 N   0  0  0  0  0  0  0  0  0  0  0  0
    7.9828  -13.3551   26.6318 C   0  0  1  0  0  0  0  0  0  0  0  0
    6.8503  -12.4652   27.1404 C   0  0  0  0  0  0  0  0  0  0  0  0
    5.9400  -11.7395   25.7651 S   0  0  0  0  0  0  0  0  0  0  0  0
    8.6217  -14.0378   27.7850 C   0  0  0  0  0  0  0  0  0  0  0  0
    9.4129  -13.3528   28.7125 O   0  0  0  0  0  0  0  0  0  0  0  0
    8.4744  -15.2720   27.9743 O   0  0  0  0  0  0  0  0  0  0  0  0
  2  1  1  0
  3  2  1  0
  4  3  2  0
  5  3  1  0
  6 11  1  0
  6  5  1  0
  6  7  1  1
  8  7  1  0
  9 10  2  0
  9  8  1  0
 11 12  2  0
 13  9  1  0
 14 15  1  0
 14 11  1  0
 15 16  1  1
 16 17  1  0
 18 19  1  0
 18 15  1  0
 20 18  2  0
M  END
$$$$
