GEC.pdb
     RDKit          3D

 20 19  0  0  1  0  0  0  0  0999 V2000
    5.5584  -18.3257   20.4104 N   0  0  0  0  0  0  0  0  0  0  0  0
    6.3202  -17.0970   20.2938 C   0  0  0  0  0  0  0  0  0  0  0  0
    7.0692  -16.8975   21.5589 C   0  0  0  0  0  0  0  0  0  0  0  0
    6.6740  -17.4127   22.6542 O   0  0  0  0  0  0  0  0  0  0  0  0
    8.2644  -16.1264   21.6298 N   0  0  0  0  0  0  0  0  0  0  0  0
    8.9522  -15.8627   22.8756 C   0  0  1  0  0  0  0  0  0  0  0  0
   10.4532  -15.8798   22.7108 C   0  0  0  0  0  0  0  0  0  0  0  0
   10.9492  -17.1686   22.1035 C   0  0  0  0  0  0  0  0  0  0  0  0
   12.2752  -17.4782   22.6904 C   0  0  0  0  0  0  0  0  0  0  0  0
   12.4160  -17.6526   23.9295 O   0  0  0  0  0  0  0  0  0  0  0  0
    8.4698  -14.5975   23.5049 C   0  0  0  0  0  0  0  0  0  0  0  0
    8.4408  -13.4983   22.8932 O   0  0  0  0  0  0  0  0  0  0  0  0
   13.4352  -17.5936   21.9119 O   0  0  0  0  0  0  0  0  0  0  0  0
    8.0234  -14.6228   24.8466 N   0  0  0  0  0  0  0  0  0  0  0  0
    7.6978  -13.4715   25.6222 C   0  0  1  0  0  0  0  0  0  0  0  0
    6.1783  -13.4296   25.7721 C   0  0  0  0  0  0  0  0  0  0  0  0
    5.6816  -12.1021   26.8847 S   0  0  0  0  0  0  0  0  0  0  0  0
    8.3163  -13.6132   26.9643 C   0  0  0  0  0  0  0  0  0  0  0  0
    8.4313  -12.5371   27.8499 O   0  0  0  0  0  0  0  0  0  0  0  0
    8.7656  -14.7184   27.3608 O   0  0  0  0  0  0  0  0  0  0  0  0
  2  1  1  0
  3  2  1  0
  4  3  2  0
  5  3  1  0
  6 11  1  0
  6  5  1  0
  6  7  1  6
  8  7  1  0
  9 10  2  0
  9  8  1  0
 11 12  2  0
 13  9  1  0
 14 15  1  0
 14 11  1  0
 15 16  1  1
 16 17  1  0
 18 19  1  0
 18 15  1  0
 20 18  2  0
M  END
$$$$
