GEC.pdb
     RDKit          3D

 20 19  0  0  1  0  0  0  0  0999 V2000
    7.1554  -13.2547   18.4159 N   0  0  0  0  0  0  0  0  0  0  0  0
    8.4448  -13.4803   19.0406 C   0  0  0  0  0  0  0  0  0  0  0  0
    8.2150  -14.1606   20.3389 C   0  0  0  0  0  0  0  0  0  0  0  0
    7.0647  -14.1817   20.8844 O   0  0  0  0  0  0  0  0  0  0  0  0
    9.2533  -14.8262   21.0510 N   0  0  0  0  0  0  0  0  0  0  0  0
    9.0204  -15.5374   22.2898 C   0  0  1  0  0  0  0  0  0  0  0  0
    9.9239  -16.7388   22.4338 C   0  0  0  0  0  0  0  0  0  0  0  0
    9.6489  -17.5155   23.6975 C   0  0  0  0  0  0  0  0  0  0  0  0
   10.6303  -18.6237   23.7841 C   0  0  0  0  0  0  0  0  0  0  0  0
   10.2855  -19.8181   23.5836 O   0  0  0  0  0  0  0  0  0  0  0  0
    9.1095  -14.6224   23.4663 C   0  0  0  0  0  0  0  0  0  0  0  0
   10.1402  -13.9519   23.7336 O   0  0  0  0  0  0  0  0  0  0  0  0
   11.9817  -18.4111   24.0900 O   0  0  0  0  0  0  0  0  0  0  0  0
    7.9932  -14.4951   24.3252 N   0  0  0  0  0  0  0  0  0  0  0  0
    7.9363  -13.6507   25.4728 C   0  0  1  0  0  0  0  0  0  0  0  0
    6.5029  -13.1382   25.5992 C   0  0  0  0  0  0  0  0  0  0  0  0
    6.3424  -12.0278   27.0091 S   0  0  0  0  0  0  0  0  0  0  0  0
    8.2730  -14.4576   26.6726 C   0  0  0  0  0  0  0  0  0  0  0  0
    8.8095  -13.8849   27.8300 O   0  0  0  0  0  0  0  0  0  0  0  0
    8.0867  -15.7007   26.6946 O   0  0  0  0  0  0  0  0  0  0  0  0
  2  1  1  0
  3  2  1  0
  4  3  2  0
  5  3  1  0
  6 11  1  0
  6  5  1  0
  6  7  1  1
  8  7  1  0
  9 10  2  0
  9  8  1  0
 11 12  2  0
 13  9  1  0
 14 15  1  0
 14 11  1  0
 15 16  1  1
 16 17  1  0
 18 19  1  0
 18 15  1  0
 20 18  2  0
M  END
$$$$
