GEC.pdb
     RDKit          3D

 20 19  0  0  1  0  0  0  0  0999 V2000
    8.0559  -16.5948   18.6701 N   0  0  0  0  0  0  0  0  0  0  0  0
    8.9834  -15.8652   19.5133 C   0  0  0  0  0  0  0  0  0  0  0  0
    8.5598  -16.0416   20.9243 C   0  0  0  0  0  0  0  0  0  0  0  0
    7.3326  -16.1664   21.2397 O   0  0  0  0  0  0  0  0  0  0  0  0
    9.4870  -16.0825   22.0046 N   0  0  0  0  0  0  0  0  0  0  0  0
    9.0730  -16.2011   23.3863 C   0  0  1  0  0  0  0  0  0  0  0  0
    9.9859  -17.1074   24.1773 C   0  0  0  0  0  0  0  0  0  0  0  0
    9.9129  -18.5413   23.7143 C   0  0  0  0  0  0  0  0  0  0  0  0
   10.8096  -19.3524   24.5725 C   0  0  0  0  0  0  0  0  0  0  0  0
   11.5807  -20.2164   24.0780 O   0  0  0  0  0  0  0  0  0  0  0  0
    8.9210  -14.8598   24.0246 C   0  0  0  0  0  0  0  0  0  0  0  0
    9.7573  -13.9322   23.8722 O   0  0  0  0  0  0  0  0  0  0  0  0
   10.8521  -19.2081   25.9662 O   0  0  0  0  0  0  0  0  0  0  0  0
    7.7918  -14.6089   24.8382 N   0  0  0  0  0  0  0  0  0  0  0  0
    7.5449  -13.3940   25.5426 C   0  0  1  0  0  0  0  0  0  0  0  0
    6.0349  -13.1639   25.5525 C   0  0  0  0  0  0  0  0  0  0  0  0
    5.6141  -11.7210   26.5465 S   0  0  0  0  0  0  0  0  0  0  0  0
    8.0235  -13.5497   26.9392 C   0  0  0  0  0  0  0  0  0  0  0  0
    8.3263  -12.4519   27.7507 O   0  0  0  0  0  0  0  0  0  0  0  0
    8.1767  -14.6874   27.4520 O   0  0  0  0  0  0  0  0  0  0  0  0
  2  1  1  0
  3  2  1  0
  4  3  2  0
  5  3  1  0
  6 11  1  0
  6  5  1  0
  6  7  1  1
  8  7  1  0
  9 10  2  0
  9  8  1  0
 11 12  2  0
 13  9  1  0
 14 15  1  0
 14 11  1  0
 15 16  1  1
 16 17  1  0
 18 19  1  0
 18 15  1  0
 20 18  2  0
M  END
$$$$
