GEC.pdb
     RDKit          3D

 20 19  0  0  1  0  0  0  0  0999 V2000
    7.2806  -13.7173   18.2575 N   0  0  0  0  0  0  0  0  0  0  0  0
    8.2396  -13.2976   19.2615 C   0  0  0  0  0  0  0  0  0  0  0  0
    8.0368  -14.1338   20.4701 C   0  0  0  0  0  0  0  0  0  0  0  0
    6.8755  -14.3378   20.9508 O   0  0  0  0  0  0  0  0  0  0  0  0
    9.1147  -14.7554   21.1631 N   0  0  0  0  0  0  0  0  0  0  0  0
    8.9309  -15.4930   22.3947 C   0  0  1  0  0  0  0  0  0  0  0  0
    9.8729  -16.6688   22.4988 C   0  0  0  0  0  0  0  0  0  0  0  0
    9.7112  -17.6369   21.3532 C   0  0  0  0  0  0  0  0  0  0  0  0
   10.6964  -18.7312   21.5277 C   0  0  0  0  0  0  0  0  0  0  0  0
   10.3320  -19.9355   21.5785 O   0  0  0  0  0  0  0  0  0  0  0  0
    9.0190  -14.5946   23.5840 C   0  0  0  0  0  0  0  0  0  0  0  0
   10.0069  -13.8469   23.8036 O   0  0  0  0  0  0  0  0  0  0  0  0
   12.0730  -18.4940   21.6450 O   0  0  0  0  0  0  0  0  0  0  0  0
    7.9515  -14.5741   24.5115 N   0  0  0  0  0  0  0  0  0  0  0  0
    7.8751  -13.7216   25.6518 C   0  0  1  0  0  0  0  0  0  0  0  0
    6.4787  -13.1030   25.6741 C   0  0  0  0  0  0  0  0  0  0  0  0
    6.2997  -11.9772   27.0696 S   0  0  0  0  0  0  0  0  0  0  0  0
    8.0631  -14.5447   26.8730 C   0  0  0  0  0  0  0  0  0  0  0  0
    8.6558  -14.0348   28.0323 O   0  0  0  0  0  0  0  0  0  0  0  0
    7.6925  -15.7454   26.9123 O   0  0  0  0  0  0  0  0  0  0  0  0
  2  1  1  0
  3  2  1  0
  4  3  2  0
  5  3  1  0
  6 11  1  0
  6  5  1  0
  6  7  1  1
  8  7  1  0
  9 10  2  0
  9  8  1  0
 11 12  2  0
 13  9  1  0
 14 15  1  0
 14 11  1  0
 15 16  1  1
 16 17  1  0
 18 19  1  0
 18 15  1  0
 20 18  2  0
M  END
$$$$
