GEC.pdb
     RDKit          3D

 20 19  0  0  1  0  0  0  0  0999 V2000
    7.6809  -16.6182   18.7125 N   0  0  0  0  0  0  0  0  0  0  0  0
    8.7504  -15.9831   19.4585 C   0  0  0  0  0  0  0  0  0  0  0  0
    8.4572  -16.1362   20.9048 C   0  0  0  0  0  0  0  0  0  0  0  0
    7.2617  -16.2011   21.3379 O   0  0  0  0  0  0  0  0  0  0  0  0
    9.4814  -16.2194   21.8910 N   0  0  0  0  0  0  0  0  0  0  0  0
    9.1975  -16.3367   23.3053 C   0  0  1  0  0  0  0  0  0  0  0  0
   10.2314  -17.1694   24.0252 C   0  0  0  0  0  0  0  0  0  0  0  0
    9.9334  -17.3069   25.4977 C   0  0  0  0  0  0  0  0  0  0  0  0
   10.2238  -18.7038   25.9015 C   0  0  0  0  0  0  0  0  0  0  0  0
   11.2810  -19.2824   25.5363 O   0  0  0  0  0  0  0  0  0  0  0  0
    9.0170  -14.9954   23.9359 C   0  0  0  0  0  0  0  0  0  0  0  0
    9.8916  -14.0924   23.8829 O   0  0  0  0  0  0  0  0  0  0  0  0
    9.3513  -19.4534   26.7026 O   0  0  0  0  0  0  0  0  0  0  0  0
    7.8146  -14.7155   24.6258 N   0  0  0  0  0  0  0  0  0  0  0  0
    7.5504  -13.5204   25.3571 C   0  0  1  0  0  0  0  0  0  0  0  0
    6.0341  -13.3579   25.4455 C   0  0  0  0  0  0  0  0  0  0  0  0
    5.6017  -11.9165   26.4365 S   0  0  0  0  0  0  0  0  0  0  0  0
    8.1052  -13.6694   26.7261 C   0  0  0  0  0  0  0  0  0  0  0  0
    8.5101  -12.5707   27.4905 O   0  0  0  0  0  0  0  0  0  0  0  0
    8.2339  -14.8019   27.2568 O   0  0  0  0  0  0  0  0  0  0  0  0
  2  1  1  0
  3  2  1  0
  4  3  2  0
  5  3  1  0
  6 11  1  0
  6  5  1  0
  6  7  1  1
  8  7  1  0
  9 10  2  0
  9  8  1  0
 11 12  2  0
 13  9  1  0
 14 15  1  0
 14 11  1  0
 15 16  1  1
 16 17  1  0
 18 19  1  0
 18 15  1  0
 20 18  2  0
M  END
$$$$
