GEC.pdb
     RDKit          3D

 20 19  0  0  1  0  0  0  0  0999 V2000
    6.8463  -13.4077   18.6633 N   0  0  0  0  0  0  0  0  0  0  0  0
    8.1429  -13.6673   19.2593 C   0  0  0  0  0  0  0  0  0  0  0  0
    7.9230  -14.3014   20.5825 C   0  0  0  0  0  0  0  0  0  0  0  0
    6.7603  -14.3861   21.0945 O   0  0  0  0  0  0  0  0  0  0  0  0
    8.9850  -14.8498   21.3568 N   0  0  0  0  0  0  0  0  0  0  0  0
    8.7897  -15.3745   22.6915 C   0  0  1  0  0  0  0  0  0  0  0  0
    9.8116  -16.4296   23.0424 C   0  0  0  0  0  0  0  0  0  0  0  0
    9.5552  -17.7356   22.3322 C   0  0  0  0  0  0  0  0  0  0  0  0
   10.6090  -18.6977   22.7351 C   0  0  0  0  0  0  0  0  0  0  0  0
   11.8205  -18.4918   22.4601 O   0  0  0  0  0  0  0  0  0  0  0  0
    8.7423  -14.2784   23.7042 C   0  0  0  0  0  0  0  0  0  0  0  0
    9.6201  -13.3801   23.7802 O   0  0  0  0  0  0  0  0  0  0  0  0
   10.3239  -19.8776   23.4363 O   0  0  0  0  0  0  0  0  0  0  0  0
    7.6687  -14.2372   24.6239 N   0  0  0  0  0  0  0  0  0  0  0  0
    7.5420  -13.3010   25.6918 C   0  0  1  0  0  0  0  0  0  0  0  0
    6.0732  -12.8900   25.7747 C   0  0  0  0  0  0  0  0  0  0  0  0
    5.8040  -11.7501   27.1440 S   0  0  0  0  0  0  0  0  0  0  0  0
    7.9333  -13.9699   26.9581 C   0  0  0  0  0  0  0  0  0  0  0  0
    8.3505  -13.2517   28.0831 O   0  0  0  0  0  0  0  0  0  0  0  0
    7.9043  -15.2218   27.0691 O   0  0  0  0  0  0  0  0  0  0  0  0
  2  1  1  0
  3  2  1  0
  4  3  2  0
  5  3  1  0
  6 11  1  0
  6  5  1  0
  6  7  1  1
  8  7  1  0
  9 10  2  0
  9  8  1  0
 11 12  2  0
 13  9  1  0
 14 15  1  0
 14 11  1  0
 15 16  1  1
 16 17  1  0
 18 19  1  0
 18 15  1  0
 20 18  2  0
M  END
$$$$
