QWT.pdb
     RDKit          3D

 31 32  0  0  1  0  0  0  0  0999 V2000
    9.4224  -13.1836   17.0756 N   0  0  0  0  0  0  0  0  0  0  0  0
    8.0694  -13.6697   17.0344 C   0  0  0  0  0  0  0  0  0  0  0  0
    7.5316  -13.6823   15.8996 O   0  0  0  0  0  0  0  0  0  0  0  0
    7.3640  -14.1139   18.2085 C   0  0  0  0  0  0  0  0  0  0  0  0
    8.0788  -14.2443   19.4886 C   0  0  0  0  0  0  0  0  0  0  0  0
    8.3560  -15.5954   20.0168 C   0  0  2  0  0  0  0  0  0  0  0  0
    7.2990  -16.5385   20.0372 N   0  0  0  0  0  0  0  0  0  0  0  0
    8.9164  -15.4619   21.3931 C   0  0  0  0  0  0  0  0  0  0  0  0
    9.7719  -14.5647   21.5916 O   0  0  0  0  0  0  0  0  0  0  0  0
    8.5615  -16.2678   22.4918 N   0  0  0  0  0  0  0  0  0  0  0  0
    9.2581  -16.1351   23.7474 C   0  0  1  0  0  0  0  0  0  0  0  0
    8.3286  -16.3002   24.9231 C   0  0  0  0  0  0  0  0  0  0  0  0
    7.4059  -15.1411   24.9617 C   0  0  0  0  0  0  0  0  0  0  0  0
    6.1551  -15.0725   24.3473 C   0  0  0  0  0  0  0  0  0  0  0  0
    5.5813  -13.8780   24.5842 N   0  0  0  0  0  0  0  0  0  0  0  0
    6.4248  -13.1627   25.3388 C   0  0  0  0  0  0  0  0  0  0  0  0
    6.2943  -11.8770   25.8465 C   0  0  0  0  0  0  0  0  0  0  0  0
    7.2956  -11.3351   26.6079 C   0  0  0  0  0  0  0  0  0  0  0  0
    8.4440  -12.1028   26.8550 C   0  0  0  0  0  0  0  0  0  0  0  0
    8.5420  -13.3692   26.3374 C   0  0  0  0  0  0  0  0  0  0  0  0
    7.5479  -13.9255   25.5796 C   0  0  0  0  0  0  0  0  0  0  0  0
   10.3547  -17.1541   23.7910 C   0  0  0  0  0  0  0  0  0  0  0  0
   10.0249  -18.3538   23.6272 O   0  0  0  0  0  0  0  0  0  0  0  0
   15.1993  -18.1810   23.6674 C   0  0  0  0  0  0  0  0  0  0  0  0
   14.0820  -17.1823   23.5516 C   0  0  1  0  0  0  0  0  0  0  0  0
   13.8615  -16.8794   22.1911 O   0  0  0  0  0  0  0  0  0  0  0  0
   12.7818  -17.8346   24.0415 C   0  0  2  0  0  0  0  0  0  0  0  0
   11.7142  -16.8297   24.0005 N   0  0  0  0  0  0  0  0  0  0  0  0
   12.9055  -18.3284   25.4037 C   0  0  0  0  0  0  0  0  0  0  0  0
   12.7322  -17.5838   26.3885 O   0  0  0  0  0  0  0  0  0  0  0  0
   13.2235  -19.6606   25.6492 O   0  0  0  0  0  0  0  0  0  0  0  0
  2  3  2  0
  2  1  1  0
  4  2  1  0
  5  4  1  0
  6  5  1  0
  6  7  1  1
  8  9  2  0
  8  6  1  0
 10  8  1  0
 11 10  1  0
 11 12  1  1
 12 13  1  0
 13 21  1  0
 13 14  2  0
 14 15  1  0
 16 15  1  0
 16 17  2  0
 18 17  1  0
 19 18  2  0
 20 21  2  0
 20 19  1  0
 21 16  1  0
 22 28  1  0
 22 11  1  0
 23 22  2  0
 25 27  1  0
 25 24  1  6
 26 25  1  0
 27 29  1  0
 27 28  1  1
 29 31  1  0
 30 29  2  0
M  END
$$$$
