QWT.pdb
     RDKit          3D

 31 32  0  0  1  0  0  0  0  0999 V2000
    9.2345  -13.0513   15.7880 N   0  0  0  0  0  0  0  0  0  0  0  0
    8.0209  -13.7992   15.9785 C   0  0  0  0  0  0  0  0  0  0  0  0
    7.2364  -13.8196   14.9980 O   0  0  0  0  0  0  0  0  0  0  0  0
    7.7106  -14.4830   17.2072 C   0  0  0  0  0  0  0  0  0  0  0  0
    8.7002  -14.5205   18.2961 C   0  0  0  0  0  0  0  0  0  0  0  0
    8.9180  -15.7899   19.0190 C   0  0  2  0  0  0  0  0  0  0  0  0
    8.0273  -16.8640   18.7737 N   0  0  0  0  0  0  0  0  0  0  0  0
    8.9455  -15.5044   20.4831 C   0  0  0  0  0  0  0  0  0  0  0  0
    9.8084  -14.6962   20.9053 O   0  0  0  0  0  0  0  0  0  0  0  0
    8.0771  -16.0741   21.4339 N   0  0  0  0  0  0  0  0  0  0  0  0
    8.2024  -15.7354   22.8300 C   0  0  1  0  0  0  0  0  0  0  0  0
    6.8599  -15.6739   23.5136 C   0  0  0  0  0  0  0  0  0  0  0  0
    7.0488  -15.1217   24.8759 C   0  0  0  0  0  0  0  0  0  0  0  0
    7.2486  -15.8669   26.0384 C   0  0  0  0  0  0  0  0  0  0  0  0
    7.3860  -15.0511   27.1003 N   0  0  0  0  0  0  0  0  0  0  0  0
    7.2817  -13.7902   26.6623 C   0  0  0  0  0  0  0  0  0  0  0  0
    7.3540  -12.5945   27.3643 C   0  0  0  0  0  0  0  0  0  0  0  0
    7.2201  -11.4020   26.7039 C   0  0  0  0  0  0  0  0  0  0  0  0
    7.0069  -11.4207   25.3171 C   0  0  0  0  0  0  0  0  0  0  0  0
    6.9392  -12.6194   24.6539 C   0  0  0  0  0  0  0  0  0  0  0  0
    7.0762  -13.8180   25.2992 C   0  0  0  0  0  0  0  0  0  0  0  0
    9.0860  -16.7508   23.4865 C   0  0  0  0  0  0  0  0  0  0  0  0
    8.7811  -17.9581   23.3301 O   0  0  0  0  0  0  0  0  0  0  0  0
   13.5427  -17.8136   25.2940 C   0  0  0  0  0  0  0  0  0  0  0  0
   12.5895  -16.8995   24.5763 C   0  0  1  0  0  0  0  0  0  0  0  0
   12.8208  -16.9770   23.1864 O   0  0  0  0  0  0  0  0  0  0  0  0
   11.1586  -17.4152   24.7825 C   0  0  2  0  0  0  0  0  0  0  0  0
   10.2244  -16.4156   24.2542 N   0  0  0  0  0  0  0  0  0  0  0  0
   10.8611  -17.6343   26.1890 C   0  0  0  0  0  0  0  0  0  0  0  0
   11.0748  -18.7319   26.7403 O   0  0  0  0  0  0  0  0  0  0  0  0
   10.3242  -16.6139   26.9678 O   0  0  0  0  0  0  0  0  0  0  0  0
  2  3  2  0
  2  1  1  0
  4  2  1  0
  5  4  1  0
  6  5  1  0
  6  7  1  1
  8  9  2  0
  8  6  1  0
 10  8  1  0
 11 10  1  0
 11 12  1  1
 12 13  1  0
 13 21  1  0
 13 14  2  0
 14 15  1  0
 16 15  1  0
 16 17  2  0
 18 17  1  0
 19 18  2  0
 20 21  2  0
 20 19  1  0
 21 16  1  0
 22 28  1  0
 22 11  1  0
 23 22  2  0
 25 27  1  0
 25 24  1  1
 26 25  1  0
 27 29  1  0
 27 28  1  1
 29 31  1  0
 30 29  2  0
M  END
$$$$
