QWT.pdb
     RDKit          3D

 31 32  0  0  1  0  0  0  0  0999 V2000
   11.0168  -15.9293   16.6855 N   0  0  0  0  0  0  0  0  0  0  0  0
    9.8194  -16.5369   16.1703 C   0  0  0  0  0  0  0  0  0  0  0  0
    9.9101  -17.0204   15.0148 O   0  0  0  0  0  0  0  0  0  0  0  0
    8.5896  -16.5930   16.9172 C   0  0  0  0  0  0  0  0  0  0  0  0
    8.5656  -16.1633   18.3247 C   0  0  0  0  0  0  0  0  0  0  0  0
    8.5338  -17.1917   19.3844 C   0  0  2  0  0  0  0  0  0  0  0  0
    7.3787  -18.0041   19.4975 N   0  0  0  0  0  0  0  0  0  0  0  0
    8.7949  -16.5306   20.6962 C   0  0  0  0  0  0  0  0  0  0  0  0
    9.8873  -15.9292   20.8408 O   0  0  0  0  0  0  0  0  0  0  0  0
    7.9093  -16.5296   21.7909 N   0  0  0  0  0  0  0  0  0  0  0  0
    8.2837  -15.8938   23.0299 C   0  0  1  0  0  0  0  0  0  0  0  0
    7.1053  -15.2307   23.6970 C   0  0  0  0  0  0  0  0  0  0  0  0
    7.5585  -14.6425   24.9796 C   0  0  0  0  0  0  0  0  0  0  0  0
    8.5216  -15.1845   25.8312 C   0  0  0  0  0  0  0  0  0  0  0  0
    8.6941  -14.3941   26.9071 N   0  0  0  0  0  0  0  0  0  0  0  0
    7.8684  -13.3477   26.7813 C   0  0  0  0  0  0  0  0  0  0  0  0
    7.6732  -12.2607   27.6228 C   0  0  0  0  0  0  0  0  0  0  0  0
    6.7647  -11.2908   27.2912 C   0  0  0  0  0  0  0  0  0  0  0  0
    6.0430  -11.4250   26.0953 C   0  0  0  0  0  0  0  0  0  0  0  0
    6.2588  -12.5119   25.2871 C   0  0  0  0  0  0  0  0  0  0  0  0
    7.1664  -13.4859   25.6026 C   0  0  0  0  0  0  0  0  0  0  0  0
    8.8896  -16.9273   23.9287 C   0  0  0  0  0  0  0  0  0  0  0  0
    8.1464  -17.8690   24.2969 O   0  0  0  0  0  0  0  0  0  0  0  0
   11.5271  -18.9675   22.8246 C   0  0  0  0  0  0  0  0  0  0  0  0
   12.0686  -18.4740   24.1371 C   0  0  1  0  0  0  0  0  0  0  0  0
   12.8422  -17.3139   23.9198 O   0  0  0  0  0  0  0  0  0  0  0  0
   10.8957  -18.0243   25.0191 C   0  0  2  0  0  0  0  0  0  0  0  0
   10.2328  -16.8900   24.3671 N   0  0  0  0  0  0  0  0  0  0  0  0
   11.3415  -17.6080   26.3393 C   0  0  0  0  0  0  0  0  0  0  0  0
   11.3213  -16.4119   26.6902 O   0  0  0  0  0  0  0  0  0  0  0  0
   11.8076  -18.5431   27.2582 O   0  0  0  0  0  0  0  0  0  0  0  0
  2  3  2  0
  2  1  1  0
  4  2  1  0
  5  4  1  0
  6  5  1  0
  6  7  1  1
  8  9  2  0
  8  6  1  0
 10  8  1  0
 11 10  1  0
 11 12  1  1
 12 13  1  0
 13 21  1  0
 13 14  2  0
 14 15  1  0
 16 15  1  0
 16 17  2  0
 18 17  1  0
 19 18  2  0
 20 21  2  0
 20 19  1  0
 21 16  1  0
 22 28  1  0
 22 11  1  0
 23 22  2  0
 25 27  1  0
 25 24  1  6
 26 25  1  0
 27 29  1  0
 27 28  1  6
 29 31  1  0
 30 29  2  0
M  END
$$$$
