QWT.pdb
     RDKit          3D

 31 32  0  0  1  0  0  0  0  0999 V2000
   11.8435  -17.3283   16.2537 N   0  0  0  0  0  0  0  0  0  0  0  0
   11.4750  -18.6900   16.5337 C   0  0  0  0  0  0  0  0  0  0  0  0
   11.6575  -19.5055   15.5962 O   0  0  0  0  0  0  0  0  0  0  0  0
   10.9295  -19.1059   17.7998 C   0  0  0  0  0  0  0  0  0  0  0  0
   10.6455  -18.1049   18.8408 C   0  0  0  0  0  0  0  0  0  0  0  0
    9.3984  -18.2231   19.6232 C   0  0  2  0  0  0  0  0  0  0  0  0
    8.1637  -18.0627   18.9473 N   0  0  0  0  0  0  0  0  0  0  0  0
    9.4589  -17.2611   20.7621 C   0  0  0  0  0  0  0  0  0  0  0  0
   10.5625  -16.7162   21.0092 O   0  0  0  0  0  0  0  0  0  0  0  0
    8.3711  -16.9160   21.5868 N   0  0  0  0  0  0  0  0  0  0  0  0
    8.5401  -15.9593   22.6526 C   0  0  1  0  0  0  0  0  0  0  0  0
    7.2979  -15.1309   22.8630 C   0  0  0  0  0  0  0  0  0  0  0  0
    7.6082  -14.0527   23.8314 C   0  0  0  0  0  0  0  0  0  0  0  0
    8.5623  -13.0496   23.6582 C   0  0  0  0  0  0  0  0  0  0  0  0
    8.5844  -12.2338   24.7288 N   0  0  0  0  0  0  0  0  0  0  0  0
    7.6682  -12.6773   25.5986 C   0  0  0  0  0  0  0  0  0  0  0  0
    7.3094  -12.1812   26.8448 C   0  0  0  0  0  0  0  0  0  0  0  0
    6.3292  -12.8008   27.5737 C   0  0  0  0  0  0  0  0  0  0  0  0
    5.7075  -13.9381   27.0358 C   0  0  0  0  0  0  0  0  0  0  0  0
    6.0865  -14.4032   25.8024 C   0  0  0  0  0  0  0  0  0  0  0  0
    7.0603  -13.7919   25.0608 C   0  0  0  0  0  0  0  0  0  0  0  0
    8.9009  -16.7012   23.9025 C   0  0  0  0  0  0  0  0  0  0  0  0
    8.1363  -17.6323   24.2536 O   0  0  0  0  0  0  0  0  0  0  0  0
   12.5164  -18.3215   26.7564 C   0  0  0  0  0  0  0  0  0  0  0  0
   12.0269  -17.4464   25.6367 C   0  0  1  0  0  0  0  0  0  0  0  0
   12.2151  -18.1094   24.4054 O   0  0  0  0  0  0  0  0  0  0  0  0
   10.5090  -17.2659   25.7765 C   0  0  2  0  0  0  0  0  0  0  0  0
   10.0413  -16.4066   24.6838 N   0  0  0  0  0  0  0  0  0  0  0  0
   10.1534  -16.6455   27.0427 C   0  0  0  0  0  0  0  0  0  0  0  0
   10.0558  -15.4083   27.1611 O   0  0  0  0  0  0  0  0  0  0  0  0
    9.9086  -17.4236   28.1699 O   0  0  0  0  0  0  0  0  0  0  0  0
  2  3  2  0
  2  1  1  0
  4  2  1  0
  5  4  1  0
  6  5  1  0
  6  7  1  6
  8  9  2  0
  8  6  1  0
 10  8  1  0
 11 10  1  0
 11 12  1  1
 12 13  1  0
 13 21  1  0
 13 14  2  0
 14 15  1  0
 16 15  1  0
 16 17  2  0
 18 17  1  0
 19 18  2  0
 20 21  2  0
 20 19  1  0
 21 16  1  0
 22 28  1  0
 22 11  1  0
 23 22  2  0
 25 27  1  0
 25 24  1  1
 26 25  1  0
 27 29  1  0
 27 28  1  6
 29 31  1  0
 30 29  2  0
M  END
$$$$
