QWT.pdb
     RDKit          3D

 31 32  0  0  1  0  0  0  0  0999 V2000
   10.8856  -15.6634   15.3857 N   0  0  0  0  0  0  0  0  0  0  0  0
    9.4610  -15.8457   15.3106 C   0  0  0  0  0  0  0  0  0  0  0  0
    9.0018  -16.0670   14.1629 O   0  0  0  0  0  0  0  0  0  0  0  0
    8.6042  -15.7795   16.4661 C   0  0  0  0  0  0  0  0  0  0  0  0
    9.1912  -15.6272   17.8072 C   0  0  0  0  0  0  0  0  0  0  0  0
    9.1749  -16.7814   18.7286 C   0  0  2  0  0  0  0  0  0  0  0  0
    8.1844  -17.7768   18.5410 N   0  0  0  0  0  0  0  0  0  0  0  0
    9.0937  -16.2710   20.1283 C   0  0  0  0  0  0  0  0  0  0  0  0
   10.0959  -15.6737   20.5920 O   0  0  0  0  0  0  0  0  0  0  0  0
    7.9771  -16.4086   20.9749 N   0  0  0  0  0  0  0  0  0  0  0  0
    8.0239  -15.9129   22.3284 C   0  0  1  0  0  0  0  0  0  0  0  0
    6.6428  -15.6876   22.8898 C   0  0  0  0  0  0  0  0  0  0  0  0
    6.7739  -15.1837   24.2774 C   0  0  0  0  0  0  0  0  0  0  0  0
    6.5433  -15.9213   25.4390 C   0  0  0  0  0  0  0  0  0  0  0  0
    6.7561  -15.1593   26.5281 N   0  0  0  0  0  0  0  0  0  0  0  0
    7.1208  -13.9412   26.1089 C   0  0  0  0  0  0  0  0  0  0  0  0
    7.4485  -12.8081   26.8414 C   0  0  0  0  0  0  0  0  0  0  0  0
    7.7998  -11.6520   26.1963 C   0  0  0  0  0  0  0  0  0  0  0  0
    7.8159  -11.6422   24.7932 C   0  0  0  0  0  0  0  0  0  0  0  0
    7.4855  -12.7785   24.0996 C   0  0  0  0  0  0  0  0  0  0  0  0
    7.1376  -13.9418   24.7302 C   0  0  0  0  0  0  0  0  0  0  0  0
    8.7836  -16.8945   23.1664 C   0  0  0  0  0  0  0  0  0  0  0  0
    8.3965  -18.0879   23.1384 O   0  0  0  0  0  0  0  0  0  0  0  0
   12.6125  -15.9867   24.4970 C   0  0  0  0  0  0  0  0  0  0  0  0
   12.1548  -17.3994   24.2647 C   0  0  1  0  0  0  0  0  0  0  0  0
   12.8794  -18.2721   25.1042 O   0  0  0  0  0  0  0  0  0  0  0  0
   10.6911  -17.5253   24.7092 C   0  0  2  0  0  0  0  0  0  0  0  0
    9.8944  -16.5430   23.9666 N   0  0  0  0  0  0  0  0  0  0  0  0
   10.5355  -17.2718   26.1327 C   0  0  0  0  0  0  0  0  0  0  0  0
    9.9569  -16.2521   26.5568 O   0  0  0  0  0  0  0  0  0  0  0  0
   11.0326  -18.1702   27.0718 O   0  0  0  0  0  0  0  0  0  0  0  0
  2  3  2  0
  2  1  1  0
  4  2  1  0
  5  4  1  0
  6  5  1  0
  6  7  1  6
  8  9  2  0
  8  6  1  0
 10  8  1  0
 11 10  1  0
 11 12  1  1
 12 13  1  0
 13 21  1  0
 13 14  2  0
 14 15  1  0
 16 15  1  0
 16 17  2  0
 18 17  1  0
 19 18  2  0
 20 21  2  0
 20 19  1  0
 21 16  1  0
 22 28  1  0
 22 11  1  0
 23 22  2  0
 25 27  1  0
 25 24  1  1
 26 25  1  0
 27 29  1  0
 27 28  1  6
 29 31  1  0
 30 29  2  0
M  END
$$$$
