QWT.pdb
     RDKit          3D

 31 32  0  0  1  0  0  0  0  0999 V2000
    8.6107  -12.2251   19.0616 N   0  0  0  0  0  0  0  0  0  0  0  0
    8.1257  -13.3974   18.3841 C   0  0  0  0  0  0  0  0  0  0  0  0
    7.6969  -13.2122   17.2184 O   0  0  0  0  0  0  0  0  0  0  0  0
    8.1233  -14.7037   18.9901 C   0  0  0  0  0  0  0  0  0  0  0  0
    8.5665  -14.8667   20.3842 C   0  0  0  0  0  0  0  0  0  0  0  0
    8.7239  -16.2308   20.9281 C   0  0  2  0  0  0  0  0  0  0  0  0
    7.6493  -17.1418   20.7782 N   0  0  0  0  0  0  0  0  0  0  0  0
    9.0773  -16.1280   22.3740 C   0  0  0  0  0  0  0  0  0  0  0  0
   10.0176  -15.3598   22.6930 O   0  0  0  0  0  0  0  0  0  0  0  0
    8.4378  -16.8295   23.4140 N   0  0  0  0  0  0  0  0  0  0  0  0
    8.9099  -16.7095   24.7713 C   0  0  1  0  0  0  0  0  0  0  0  0
    7.7707  -16.6655   25.7581 C   0  0  0  0  0  0  0  0  0  0  0  0
    7.0119  -15.4100   25.5471 C   0  0  0  0  0  0  0  0  0  0  0  0
    5.7530  -15.3069   24.9545 C   0  0  0  0  0  0  0  0  0  0  0  0
    5.3538  -14.0216   24.9227 N   0  0  0  0  0  0  0  0  0  0  0  0
    6.3196  -13.2805   25.4801 C   0  0  0  0  0  0  0  0  0  0  0  0
    6.3843  -11.9086   25.6837 C   0  0  0  0  0  0  0  0  0  0  0  0
    7.4838  -11.3553   26.2846 C   0  0  0  0  0  0  0  0  0  0  0  0
    8.5314  -12.2007   26.6806 C   0  0  0  0  0  0  0  0  0  0  0  0
    8.4365  -13.5517   26.4636 C   0  0  0  0  0  0  0  0  0  0  0  0
    7.3425  -14.1191   25.8694 C   0  0  0  0  0  0  0  0  0  0  0  0
    9.8182  -17.8645   25.0609 C   0  0  0  0  0  0  0  0  0  0  0  0
    9.4584  -18.9916   24.6427 O   0  0  0  0  0  0  0  0  0  0  0  0
   13.1421  -18.6064   24.0500 C   0  0  0  0  0  0  0  0  0  0  0  0
   13.2641  -18.7026   25.5450 C   0  0  1  0  0  0  0  0  0  0  0  0
   13.7302  -17.4736   26.0585 O   0  0  0  0  0  0  0  0  0  0  0  0
   11.8641  -18.8921   26.1451 C   0  0  2  0  0  0  0  0  0  0  0  0
   11.0370  -17.7417   25.7660 N   0  0  0  0  0  0  0  0  0  0  0  0
   11.9058  -18.9787   27.5961 C   0  0  0  0  0  0  0  0  0  0  0  0
   11.4030  -18.0964   28.3194 O   0  0  0  0  0  0  0  0  0  0  0  0
   12.5139  -20.0606   28.2251 O   0  0  0  0  0  0  0  0  0  0  0  0
  2  3  2  0
  2  1  1  0
  4  2  1  0
  5  4  1  0
  6  5  1  0
  6  7  1  1
  8  9  2  0
  8  6  1  0
 10  8  1  0
 11 10  1  0
 11 12  1  1
 12 13  1  0
 13 21  1  0
 13 14  2  0
 14 15  1  0
 16 15  1  0
 16 17  2  0
 18 17  1  0
 19 18  2  0
 20 21  2  0
 20 19  1  0
 21 16  1  0
 22 28  1  0
 22 11  1  0
 23 22  2  0
 25 27  1  0
 25 24  1  6
 26 25  1  0
 27 29  1  0
 27 28  1  1
 29 31  1  0
 30 29  2  0
M  END
$$$$
