QWT.pdb
     RDKit          3D

 31 32  0  0  1  0  0  0  0  0999 V2000
    9.1523  -12.4336   18.7483 N   0  0  0  0  0  0  0  0  0  0  0  0
    8.1019  -13.3841   18.5000 C   0  0  0  0  0  0  0  0  0  0  0  0
    7.4230  -13.1841   17.4626 O   0  0  0  0  0  0  0  0  0  0  0  0
    7.8327  -14.4955   19.3751 C   0  0  0  0  0  0  0  0  0  0  0  0
    8.6050  -14.6547   20.6180 C   0  0  0  0  0  0  0  0  0  0  0  0
    8.8709  -16.0168   21.1234 C   0  0  2  0  0  0  0  0  0  0  0  0
    7.8706  -17.0049   20.9498 N   0  0  0  0  0  0  0  0  0  0  0  0
    9.2205  -15.9267   22.5711 C   0  0  0  0  0  0  0  0  0  0  0  0
   10.0315  -15.0350   22.9224 O   0  0  0  0  0  0  0  0  0  0  0  0
    8.7119  -16.7679   23.5791 N   0  0  0  0  0  0  0  0  0  0  0  0
    9.2149  -16.6754   24.9274 C   0  0  1  0  0  0  0  0  0  0  0  0
    8.0980  -16.6216   25.9389 C   0  0  0  0  0  0  0  0  0  0  0  0
    7.2417  -15.4509   25.6345 C   0  0  0  0  0  0  0  0  0  0  0  0
    6.0433  -15.4796   24.9207 C   0  0  0  0  0  0  0  0  0  0  0  0
    5.5225  -14.2416   24.8291 N   0  0  0  0  0  0  0  0  0  0  0  0
    6.3496  -13.4029   25.4655 C   0  0  0  0  0  0  0  0  0  0  0  0
    6.2563  -12.0302   25.6518 C   0  0  0  0  0  0  0  0  0  0  0  0
    7.2304  -11.3644   26.3474 C   0  0  0  0  0  0  0  0  0  0  0  0
    8.3134  -12.0968   26.8573 C   0  0  0  0  0  0  0  0  0  0  0  0
    8.3760  -13.4519   26.6544 C   0  0  0  0  0  0  0  0  0  0  0  0
    7.4081  -14.1311   25.9660 C   0  0  0  0  0  0  0  0  0  0  0  0
   10.1055  -17.8521   25.1827 C   0  0  0  0  0  0  0  0  0  0  0  0
    9.7403  -18.9564   24.7113 O   0  0  0  0  0  0  0  0  0  0  0  0
   13.8605  -18.3819   24.7877 C   0  0  0  0  0  0  0  0  0  0  0  0
   13.5545  -18.6728   26.2302 C   0  0  1  0  0  0  0  0  0  0  0  0
   13.7945  -17.5172   27.0037 O   0  0  0  0  0  0  0  0  0  0  0  0
   12.0522  -18.9546   26.3708 C   0  0  2  0  0  0  0  0  0  0  0  0
   11.3135  -17.7734   25.9121 N   0  0  0  0  0  0  0  0  0  0  0  0
   11.6813  -19.2302   27.7497 C   0  0  0  0  0  0  0  0  0  0  0  0
   10.9605  -18.4501   28.4023 O   0  0  0  0  0  0  0  0  0  0  0  0
   12.1248  -20.3853   28.3862 O   0  0  0  0  0  0  0  0  0  0  0  0
  2  3  2  0
  2  1  1  0
  4  2  1  0
  5  4  1  0
  6  5  1  0
  6  7  1  1
  8  9  2  0
  8  6  1  0
 10  8  1  0
 11 10  1  0
 11 12  1  1
 12 13  1  0
 13 21  1  0
 13 14  2  0
 14 15  1  0
 16 15  1  0
 16 17  2  0
 18 17  1  0
 19 18  2  0
 20 21  2  0
 20 19  1  0
 21 16  1  0
 22 28  1  0
 22 11  1  0
 23 22  2  0
 25 27  1  0
 25 24  1  6
 26 25  1  0
 27 29  1  0
 27 28  1  1
 29 31  1  0
 30 29  2  0
M  END
$$$$
