QWT.pdb
     RDKit          3D

 31 32  0  0  1  0  0  0  0  0999 V2000
    8.8994  -19.4039   18.4915 N   0  0  0  0  0  0  0  0  0  0  0  0
    7.7856  -18.6156   18.0368 C   0  0  0  0  0  0  0  0  0  0  0  0
    7.2602  -18.9893   16.9592 O   0  0  0  0  0  0  0  0  0  0  0  0
    7.2953  -17.4695   18.7576 C   0  0  0  0  0  0  0  0  0  0  0  0
    7.9533  -17.0510   20.0060 C   0  0  0  0  0  0  0  0  0  0  0  0
    7.3174  -16.0046   20.8318 C   0  0  2  0  0  0  0  0  0  0  0  0
    6.9341  -14.7939   20.2038 N   0  0  0  0  0  0  0  0  0  0  0  0
    8.2171  -15.6939   21.9807 C   0  0  0  0  0  0  0  0  0  0  0  0
    8.9893  -14.7103   21.8695 O   0  0  0  0  0  0  0  0  0  0  0  0
    8.2702  -16.4214   23.1851 N   0  0  0  0  0  0  0  0  0  0  0  0
    9.2631  -16.1071   24.1826 C   0  0  1  0  0  0  0  0  0  0  0  0
    8.6941  -16.1693   25.5775 C   0  0  0  0  0  0  0  0  0  0  0  0
    7.5680  -15.2102   25.6711 C   0  0  0  0  0  0  0  0  0  0  0  0
    6.2192  -15.5142   25.4841 C   0  0  0  0  0  0  0  0  0  0  0  0
    5.4638  -14.4115   25.6438 N   0  0  0  0  0  0  0  0  0  0  0  0
    6.2840  -13.3930   25.9310 C   0  0  0  0  0  0  0  0  0  0  0  0
    5.9934  -12.0589   26.1827 C   0  0  0  0  0  0  0  0  0  0  0  0
    7.0040  -11.1773   26.4613 C   0  0  0  0  0  0  0  0  0  0  0  0
    8.3245  -11.6516   26.4818 C   0  0  0  0  0  0  0  0  0  0  0  0
    8.5775  -12.9754   26.2274 C   0  0  0  0  0  0  0  0  0  0  0  0
    7.5781  -13.8685   25.9527 C   0  0  0  0  0  0  0  0  0  0  0  0
   10.4052  -17.0642   24.0325 C   0  0  0  0  0  0  0  0  0  0  0  0
   10.1190  -18.2817   23.9301 O   0  0  0  0  0  0  0  0  0  0  0  0
   13.4581  -16.5580   21.7546 C   0  0  0  0  0  0  0  0  0  0  0  0
   14.0022  -16.9642   23.0955 C   0  0  1  0  0  0  0  0  0  0  0  0
   14.3761  -15.8121   23.8195 O   0  0  0  0  0  0  0  0  0  0  0  0
   12.8753  -17.6125   23.9115 C   0  0  2  0  0  0  0  0  0  0  0  0
   11.7602  -16.6637   23.9984 N   0  0  0  0  0  0  0  0  0  0  0  0
   13.3084  -17.9480   25.2586 C   0  0  0  0  0  0  0  0  0  0  0  0
   12.8627  -17.3501   26.2577 O   0  0  0  0  0  0  0  0  0  0  0  0
   14.2421  -18.9572   25.4730 O   0  0  0  0  0  0  0  0  0  0  0  0
  2  3  2  0
  2  1  1  0
  4  2  1  0
  5  4  1  0
  6  5  1  0
  6  7  1  6
  8  9  2  0
  8  6  1  0
 10  8  1  0
 11 10  1  0
 11 12  1  1
 12 13  1  0
 13 21  1  0
 13 14  2  0
 14 15  1  0
 16 15  1  0
 16 17  2  0
 18 17  1  0
 19 18  2  0
 20 21  2  0
 20 19  1  0
 21 16  1  0
 22 28  1  0
 22 11  1  0
 23 22  2  0
 25 27  1  0
 25 24  1  6
 26 25  1  0
 27 29  1  0
 27 28  1  1
 29 31  1  0
 30 29  2  0
M  END
$$$$
