QWT.pdb
     RDKit          3D

 31 32  0  0  1  0  0  0  0  0999 V2000
    9.5258  -12.8546   18.4231 N   0  0  0  0  0  0  0  0  0  0  0  0
    8.2057  -13.3827   18.2061 C   0  0  0  0  0  0  0  0  0  0  0  0
    7.7463  -13.2358   17.0465 O   0  0  0  0  0  0  0  0  0  0  0  0
    7.4476  -14.0372   19.2407 C   0  0  0  0  0  0  0  0  0  0  0  0
    8.0559  -14.2700   20.5606 C   0  0  0  0  0  0  0  0  0  0  0  0
    8.4080  -15.6503   20.9506 C   0  0  2  0  0  0  0  0  0  0  0  0
    7.4241  -16.6598   20.8096 N   0  0  0  0  0  0  0  0  0  0  0  0
    8.8930  -15.6364   22.3615 C   0  0  0  0  0  0  0  0  0  0  0  0
    9.7774  -14.7995   22.6677 O   0  0  0  0  0  0  0  0  0  0  0  0
    8.4365  -16.4932   23.3813 N   0  0  0  0  0  0  0  0  0  0  0  0
    9.1009  -16.5210   24.6609 C   0  0  1  0  0  0  0  0  0  0  0  0
    8.1165  -16.5094   25.8030 C   0  0  0  0  0  0  0  0  0  0  0  0
    7.2303  -15.3312   25.6502 C   0  0  0  0  0  0  0  0  0  0  0  0
    5.9768  -15.3266   25.0377 C   0  0  0  0  0  0  0  0  0  0  0  0
    5.4423  -14.0915   25.0733 N   0  0  0  0  0  0  0  0  0  0  0  0
    6.3143  -13.2874   25.6942 C   0  0  0  0  0  0  0  0  0  0  0  0
    6.2281  -11.9313   25.9797 C   0  0  0  0  0  0  0  0  0  0  0  0
    7.2526  -11.3019   26.6357 C   0  0  0  0  0  0  0  0  0  0  0  0
    8.3789  -12.0536   27.0037 C   0  0  0  0  0  0  0  0  0  0  0  0
    8.4331  -13.3913   26.7052 C   0  0  0  0  0  0  0  0  0  0  0  0
    7.4155  -14.0346   26.0551 C   0  0  0  0  0  0  0  0  0  0  0  0
    9.9663  -17.7419   24.7190 C   0  0  0  0  0  0  0  0  0  0  0  0
    9.5139  -18.7870   24.1920 O   0  0  0  0  0  0  0  0  0  0  0  0
   13.0280  -18.5306   23.2210 C   0  0  0  0  0  0  0  0  0  0  0  0
   13.3582  -18.7776   24.6664 C   0  0  1  0  0  0  0  0  0  0  0  0
   13.9463  -17.6196   25.2185 O   0  0  0  0  0  0  0  0  0  0  0  0
   12.0515  -18.9838   25.4448 C   0  0  2  0  0  0  0  0  0  0  0  0
   11.2429  -17.7659   25.3252 N   0  0  0  0  0  0  0  0  0  0  0  0
   12.2979  -19.2436   26.8542 C   0  0  0  0  0  0  0  0  0  0  0  0
   12.0405  -18.3956   27.7311 O   0  0  0  0  0  0  0  0  0  0  0  0
   12.8331  -20.4593   27.2685 O   0  0  0  0  0  0  0  0  0  0  0  0
  2  3  2  0
  2  1  1  0
  4  2  1  0
  5  4  1  0
  6  5  1  0
  6  7  1  1
  8  9  2  0
  8  6  1  0
 10  8  1  0
 11 10  1  0
 11 12  1  1
 12 13  1  0
 13 21  1  0
 13 14  2  0
 14 15  1  0
 16 15  1  0
 16 17  2  0
 18 17  1  0
 19 18  2  0
 20 21  2  0
 20 19  1  0
 21 16  1  0
 22 28  1  0
 22 11  1  0
 23 22  2  0
 25 27  1  0
 25 24  1  6
 26 25  1  0
 27 29  1  0
 27 28  1  1
 29 31  1  0
 30 29  2  0
M  END
$$$$
