ETK.pdb
     RDKit          3D

 26 25  0  0  1  0  0  0  0  0999 V2000
    8.6663  -18.4402   18.1310 N   0  0  0  0  0  0  0  0  0  0  0  0
    9.9547  -17.9531   18.4900 C   0  0  1  0  0  0  0  0  0  0  0  0
   10.6644  -17.4485   17.2662 C   0  0  0  0  0  0  0  0  0  0  0  0
   11.3163  -18.5465   16.4881 C   0  0  0  0  0  0  0  0  0  0  0  0
   12.0004  -18.1046   15.2589 C   0  0  0  0  0  0  0  0  0  0  0  0
   11.3991  -17.9921   14.1632 O   0  0  0  0  0  0  0  0  0  0  0  0
    9.9119  -16.8518   19.4819 C   0  0  0  0  0  0  0  0  0  0  0  0
   11.0012  -16.3627   19.8787 O   0  0  0  0  0  0  0  0  0  0  0  0
   13.3507  -17.8019   15.3073 O   0  0  0  0  0  0  0  0  0  0  0  0
    7.7455  -13.6493   19.3772 C   0  0  0  0  0  0  0  0  0  0  0  0
    7.5529  -14.2766   20.7481 C   0  0  1  0  0  0  0  0  0  0  0  0
    6.3326  -14.9488   20.6993 O   0  0  0  0  0  0  0  0  0  0  0  0
    8.7050  -15.2227   20.9780 C   0  0  2  0  0  0  0  0  0  0  0  0
    8.7168  -16.3088   20.0175 N   0  0  0  0  0  0  0  0  0  0  0  0
    8.5936  -15.7690   22.3537 C   0  0  0  0  0  0  0  0  0  0  0  0
    8.0953  -16.9027   22.5479 O   0  0  0  0  0  0  0  0  0  0  0  0
    9.0339  -15.0575   23.5007 N   0  0  0  0  0  0  0  0  0  0  0  0
    8.7181  -15.5025   24.8692 C   0  0  1  0  0  0  0  0  0  0  0  0
    9.9911  -16.0143   25.4949 C   0  0  0  0  0  0  0  0  0  0  0  0
    9.9718  -17.4476   25.8845 C   0  0  0  0  0  0  0  0  0  0  0  0
   11.2650  -17.8966   26.5337 C   0  0  0  0  0  0  0  0  0  0  0  0
   11.2587  -19.3817   26.8067 C   0  0  0  0  0  0  0  0  0  0  0  0
   12.5835  -19.7146   27.3090 N   0  0  0  0  0  0  0  0  0  0  0  0
    8.0870  -14.4231   25.6361 C   0  0  0  0  0  0  0  0  0  0  0  0
    7.5154  -14.6597   26.7108 O   0  0  0  0  0  0  0  0  0  0  0  0
    8.1310  -13.1296   25.1541 O   0  0  0  0  0  0  0  0  0  0  0  0
  2  1  1  6
  2  7  1  0
  3  2  1  0
  4  3  1  0
  5  4  1  0
  6  5  2  0
  7  8  2  0
  9  5  1  0
 11 12  1  0
 11 10  1  6
 13 11  1  0
 14  7  1  0
 13 14  1  6
 15 13  1  0
 15 16  2  0
 17 15  1  0
 18 17  1  0
 18 19  1  1
 20 19  1  0
 21 20  1  0
 22 21  1  0
 23 22  1  0
 24 18  1  0
 25 24  2  0
 26 24  1  0
M  END
$$$$
