ETK.pdb
     RDKit          3D

 26 25  0  0  1  0  0  0  0  0999 V2000
   10.0623  -18.1680   19.1146 N   0  0  0  0  0  0  0  0  0  0  0  0
    9.0262  -17.9077   20.0552 C   0  0  1  0  0  0  0  0  0  0  0  0
    8.8719  -19.0835   20.9769 C   0  0  0  0  0  0  0  0  0  0  0  0
    9.9092  -20.1349   20.7433 C   0  0  0  0  0  0  0  0  0  0  0  0
    9.8694  -21.2585   21.6973 C   0  0  0  0  0  0  0  0  0  0  0  0
   10.6978  -22.2003   21.6552 O   0  0  0  0  0  0  0  0  0  0  0  0
    9.2736  -16.7040   20.8851 C   0  0  0  0  0  0  0  0  0  0  0  0
   10.4645  -16.3494   21.0829 O   0  0  0  0  0  0  0  0  0  0  0  0
    8.8888  -21.2823   22.6746 O   0  0  0  0  0  0  0  0  0  0  0  0
    7.7022  -13.1475   20.6946 C   0  0  0  0  0  0  0  0  0  0  0  0
    7.5204  -13.6660   22.1117 C   0  0  1  0  0  0  0  0  0  0  0  0
    6.2093  -14.1333   22.1888 O   0  0  0  0  0  0  0  0  0  0  0  0
    8.5233  -14.7734   22.3197 C   0  0  2  0  0  0  0  0  0  0  0  0
    8.2504  -15.9199   21.4751 N   0  0  0  0  0  0  0  0  0  0  0  0
    8.4820  -15.1789   23.7471 C   0  0  0  0  0  0  0  0  0  0  0  0
    7.8270  -16.1871   24.1017 O   0  0  0  0  0  0  0  0  0  0  0  0
    9.1651  -14.4668   24.7679 N   0  0  0  0  0  0  0  0  0  0  0  0
    8.9798  -14.7734   26.1969 C   0  0  1  0  0  0  0  0  0  0  0  0
   10.1701  -15.5775   26.6560 C   0  0  0  0  0  0  0  0  0  0  0  0
   10.1435  -15.9866   28.0837 C   0  0  0  0  0  0  0  0  0  0  0  0
   11.3322  -16.8426   28.4709 C   0  0  0  0  0  0  0  0  0  0  0  0
   11.3072  -17.1891   29.9404 C   0  0  0  0  0  0  0  0  0  0  0  0
   12.4490  -18.0595   30.1787 N   0  0  0  0  0  0  0  0  0  0  0  0
    8.7750  -13.5449   26.9718 C   0  0  0  0  0  0  0  0  0  0  0  0
    8.3293  -13.5917   28.1280 O   0  0  0  0  0  0  0  0  0  0  0  0
    9.0825  -12.3234   26.4053 O   0  0  0  0  0  0  0  0  0  0  0  0
  2  1  1  6
  2  7  1  0
  3  2  1  0
  4  3  1  0
  5  4  1  0
  6  5  2  0
  7  8  2  0
  9  5  1  0
 11 12  1  0
 11 10  1  6
 13 11  1  0
 14  7  1  0
 13 14  1  6
 15 13  1  0
 15 16  2  0
 17 15  1  0
 18 17  1  0
 18 19  1  1
 20 19  1  0
 21 20  1  0
 22 21  1  0
 23 22  1  0
 24 18  1  0
 25 24  2  0
 26 24  1  0
M  END
$$$$
