ETK.pdb
     RDKit          3D

 26 25  0  0  1  0  0  0  0  0999 V2000
    9.5912  -15.3822   16.2179 N   0  0  0  0  0  0  0  0  0  0  0  0
    9.8522  -16.1222   17.4056 C   0  0  1  0  0  0  0  0  0  0  0  0
   11.2665  -16.6275   17.3869 C   0  0  0  0  0  0  0  0  0  0  0  0
   11.5621  -17.4589   16.1796 C   0  0  0  0  0  0  0  0  0  0  0  0
   12.9698  -17.8798   16.0545 C   0  0  0  0  0  0  0  0  0  0  0  0
   13.2917  -19.0592   15.7709 O   0  0  0  0  0  0  0  0  0  0  0  0
    9.6645  -15.3306   18.6452 C   0  0  0  0  0  0  0  0  0  0  0  0
   10.2292  -14.2093   18.7292 O   0  0  0  0  0  0  0  0  0  0  0  0
   13.9750  -16.9490   16.2551 O   0  0  0  0  0  0  0  0  0  0  0  0
    6.7137  -13.7514   19.8782 C   0  0  0  0  0  0  0  0  0  0  0  0
    7.1348  -14.6271   21.0469 C   0  0  1  0  0  0  0  0  0  0  0  0
    6.3740  -15.7915   20.9531 O   0  0  0  0  0  0  0  0  0  0  0  0
    8.6091  -14.9071   20.8936 C   0  0  2  0  0  0  0  0  0  0  0  0
    8.8855  -15.7556   19.7508 N   0  0  0  0  0  0  0  0  0  0  0  0
    9.0917  -15.5622   22.1351 C   0  0  0  0  0  0  0  0  0  0  0  0
    9.5290  -16.7365   22.1041 O   0  0  0  0  0  0  0  0  0  0  0  0
    9.0865  -14.9134   23.3979 N   0  0  0  0  0  0  0  0  0  0  0  0
    9.5092  -15.5965   24.6328 C   0  0  1  0  0  0  0  0  0  0  0  0
    9.5449  -14.5726   25.7393 C   0  0  0  0  0  0  0  0  0  0  0  0
    9.9645  -15.0911   27.0666 C   0  0  0  0  0  0  0  0  0  0  0  0
    9.8795  -14.0445   28.1588 C   0  0  0  0  0  0  0  0  0  0  0  0
   10.2896  -14.6097   29.4977 C   0  0  0  0  0  0  0  0  0  0  0  0
   10.2234  -13.5094   30.4479 N   0  0  0  0  0  0  0  0  0  0  0  0
    8.6336  -16.7366   24.9243 C   0  0  0  0  0  0  0  0  0  0  0  0
    7.4396  -16.7206   24.5897 O   0  0  0  0  0  0  0  0  0  0  0  0
    9.1466  -17.8393   25.5788 O   0  0  0  0  0  0  0  0  0  0  0  0
  2  1  1  6
  2  7  1  0
  3  2  1  0
  4  3  1  0
  5  4  1  0
  6  5  2  0
  7  8  2  0
  9  5  1  0
 11 12  1  0
 11 10  1  6
 13 11  1  0
 14  7  1  0
 13 14  1  6
 15 13  1  0
 15 16  2  0
 17 15  1  0
 18 17  1  0
 18 19  1  1
 20 19  1  0
 21 20  1  0
 22 21  1  0
 23 22  1  0
 24 18  1  0
 25 24  2  0
 26 24  1  0
M  END
$$$$
