ETK.pdb
     RDKit          3D

 26 25  0  0  1  0  0  0  0  0999 V2000
    7.8032  -17.4336   16.5316 N   0  0  0  0  0  0  0  0  0  0  0  0
    9.1948  -17.1384   16.5811 C   0  0  1  0  0  0  0  0  0  0  0  0
    9.6065  -16.4264   15.3244 C   0  0  0  0  0  0  0  0  0  0  0  0
   11.0770  -16.1603   15.2719 C   0  0  0  0  0  0  0  0  0  0  0  0
   11.7361  -16.6010   14.0287 C   0  0  0  0  0  0  0  0  0  0  0  0
   11.6763  -15.9331   12.9678 O   0  0  0  0  0  0  0  0  0  0  0  0
    9.5753  -16.2886   17.7351 C   0  0  0  0  0  0  0  0  0  0  0  0
   10.7987  -16.0962   17.9575 O   0  0  0  0  0  0  0  0  0  0  0  0
   12.4464  -17.7896   14.0236 O   0  0  0  0  0  0  0  0  0  0  0  0
    7.4395  -13.1841   19.2699 C   0  0  0  0  0  0  0  0  0  0  0  0
    7.9142  -14.1235   20.3664 C   0  0  1  0  0  0  0  0  0  0  0  0
    6.8167  -14.9151   20.7013 O   0  0  0  0  0  0  0  0  0  0  0  0
    9.0454  -14.9447   19.7995 C   0  0  2  0  0  0  0  0  0  0  0  0
    8.6459  -15.6736   18.6115 N   0  0  0  0  0  0  0  0  0  0  0  0
    9.5012  -15.8959   20.8439 C   0  0  0  0  0  0  0  0  0  0  0  0
    9.5868  -17.1210   20.5927 O   0  0  0  0  0  0  0  0  0  0  0  0
    9.8580  -15.4841   22.1549 N   0  0  0  0  0  0  0  0  0  0  0  0
   10.2923  -16.4413   23.1871 C   0  0  1  0  0  0  0  0  0  0  0  0
   11.5915  -17.0562   22.7310 C   0  0  0  0  0  0  0  0  0  0  0  0
   12.1955  -18.0305   23.6757 C   0  0  0  0  0  0  0  0  0  0  0  0
   13.5207  -18.5780   23.1863 C   0  0  0  0  0  0  0  0  0  0  0  0
   14.0777  -19.6083   24.1394 C   0  0  0  0  0  0  0  0  0  0  0  0
   15.2268  -20.2059   23.4756 N   0  0  0  0  0  0  0  0  0  0  0  0
   10.3870  -15.7886   24.4973 C   0  0  0  0  0  0  0  0  0  0  0  0
   10.6547  -16.4451   25.5146 O   0  0  0  0  0  0  0  0  0  0  0  0
   10.1750  -14.4274   24.5967 O   0  0  0  0  0  0  0  0  0  0  0  0
  2  1  1  6
  2  7  1  0
  3  2  1  0
  4  3  1  0
  5  4  1  0
  6  5  2  0
  7  8  2  0
  9  5  1  0
 11 12  1  0
 11 10  1  6
 13 11  1  0
 14  7  1  0
 13 14  1  6
 15 13  1  0
 15 16  2  0
 17 15  1  0
 18 17  1  0
 18 19  1  6
 20 19  1  0
 21 20  1  0
 22 21  1  0
 23 22  1  0
 24 18  1  0
 25 24  2  0
 26 24  1  0
M  END
$$$$
