ETK.pdb
     RDKit          3D

 26 25  0  0  1  0  0  0  0  0999 V2000
   11.8907  -14.5562   16.8743 N   0  0  0  0  0  0  0  0  0  0  0  0
   11.3948  -15.4972   17.8202 C   0  0  1  0  0  0  0  0  0  0  0  0
   12.4610  -16.5064   18.1373 C   0  0  0  0  0  0  0  0  0  0  0  0
   13.8320  -15.9095   18.1416 C   0  0  0  0  0  0  0  0  0  0  0  0
   14.9207  -16.8755   18.3782 C   0  0  0  0  0  0  0  0  0  0  0  0
   15.2176  -17.2789   19.5289 O   0  0  0  0  0  0  0  0  0  0  0  0
   10.9577  -14.8764   19.0939 C   0  0  0  0  0  0  0  0  0  0  0  0
   11.6800  -13.9788   19.5997 O   0  0  0  0  0  0  0  0  0  0  0  0
   15.6438  -17.3578   17.3004 O   0  0  0  0  0  0  0  0  0  0  0  0
    7.6408  -13.1732   19.6460 C   0  0  0  0  0  0  0  0  0  0  0  0
    7.7947  -14.1716   20.7816 C   0  0  1  0  0  0  0  0  0  0  0  0
    7.0633  -15.2985   20.4095 O   0  0  0  0  0  0  0  0  0  0  0  0
    9.2655  -14.4779   20.9176 C   0  0  2  0  0  0  0  0  0  0  0  0
    9.7714  -15.2292   19.7855 N   0  0  0  0  0  0  0  0  0  0  0  0
    9.4674  -15.2537   22.1670 C   0  0  0  0  0  0  0  0  0  0  0  0
    9.7958  -16.4624   22.1173 O   0  0  0  0  0  0  0  0  0  0  0  0
    9.3048  -14.6864   23.4582 N   0  0  0  0  0  0  0  0  0  0  0  0
    9.4212  -15.4889   24.6882 C   0  0  1  0  0  0  0  0  0  0  0  0
    9.5203  -14.5375   25.8541 C   0  0  0  0  0  0  0  0  0  0  0  0
    9.7411  -15.1786   27.1757 C   0  0  0  0  0  0  0  0  0  0  0  0
    9.8522  -14.1736   28.3040 C   0  0  0  0  0  0  0  0  0  0  0  0
   10.1380  -14.8530   29.6219 C   0  0  0  0  0  0  0  0  0  0  0  0
   10.2029  -13.7994   30.6238 N   0  0  0  0  0  0  0  0  0  0  0  0
    8.3049  -16.4335   24.8025 C   0  0  0  0  0  0  0  0  0  0  0  0
    7.2083  -16.1849   24.2795 O   0  0  0  0  0  0  0  0  0  0  0  0
    8.4791  -17.6122   25.5008 O   0  0  0  0  0  0  0  0  0  0  0  0
  2  1  1  6
  2  7  1  0
  3  2  1  0
  4  3  1  0
  5  4  1  0
  6  5  2  0
  7  8  2  0
  9  5  1  0
 11 12  1  0
 11 10  1  6
 13 11  1  0
 14  7  1  0
 13 14  1  6
 15 13  1  0
 15 16  2  0
 17 15  1  0
 18 17  1  0
 18 19  1  1
 20 19  1  0
 21 20  1  0
 22 21  1  0
 23 22  1  0
 24 18  1  0
 25 24  2  0
 26 24  1  0
M  END
$$$$
