ETK.pdb
     RDKit          3D

 26 25  0  0  1  0  0  0  0  0999 V2000
   11.0474  -15.1460   15.4548 N   0  0  0  0  0  0  0  0  0  0  0  0
   10.1439  -15.7887   16.3474 C   0  0  1  0  0  0  0  0  0  0  0  0
   10.4318  -17.2623   16.3852 C   0  0  0  0  0  0  0  0  0  0  0  0
   11.5504  -17.6040   17.3169 C   0  0  0  0  0  0  0  0  0  0  0  0
   11.8859  -19.0388   17.3722 C   0  0  0  0  0  0  0  0  0  0  0  0
   12.7738  -19.4883   18.1369 O   0  0  0  0  0  0  0  0  0  0  0  0
   10.2195  -15.2711   17.7348 C   0  0  0  0  0  0  0  0  0  0  0  0
   11.3529  -15.0061   18.2126 O   0  0  0  0  0  0  0  0  0  0  0  0
   11.2032  -19.9256   16.5568 O   0  0  0  0  0  0  0  0  0  0  0  0
    7.5840  -12.7219   19.3496 C   0  0  0  0  0  0  0  0  0  0  0  0
    7.8941  -13.8407   20.3305 C   0  0  1  0  0  0  0  0  0  0  0  0
    6.8253  -14.7323   20.2527 O   0  0  0  0  0  0  0  0  0  0  0  0
    9.1892  -14.4788   19.8934 C   0  0  2  0  0  0  0  0  0  0  0  0
    9.0915  -15.0530   18.5656 N   0  0  0  0  0  0  0  0  0  0  0  0
    9.5434  -15.5357   20.8737 C   0  0  0  0  0  0  0  0  0  0  0  0
    9.8840  -16.6765   20.4816 O   0  0  0  0  0  0  0  0  0  0  0  0
    9.5180  -15.3214   22.2770 N   0  0  0  0  0  0  0  0  0  0  0  0
    9.9382  -16.3572   23.2366 C   0  0  1  0  0  0  0  0  0  0  0  0
   11.4143  -16.5970   23.0421 C   0  0  0  0  0  0  0  0  0  0  0  0
   12.0326  -17.5445   24.0046 C   0  0  0  0  0  0  0  0  0  0  0  0
   13.5164  -17.7378   23.7664 C   0  0  0  0  0  0  0  0  0  0  0  0
   14.1132  -18.7056   24.7600 C   0  0  0  0  0  0  0  0  0  0  0  0
   15.5307  -18.7995   24.4442 N   0  0  0  0  0  0  0  0  0  0  0  0
    9.5882  -15.9710   24.6077 C   0  0  0  0  0  0  0  0  0  0  0  0
    9.2545  -14.8064   24.8725 O   0  0  0  0  0  0  0  0  0  0  0  0
    9.6314  -16.9165   25.6135 O   0  0  0  0  0  0  0  0  0  0  0  0
  2  1  1  6
  2  7  1  0
  3  2  1  0
  4  3  1  0
  5  4  1  0
  6  5  2  0
  7  8  2  0
  9  5  1  0
 11 12  1  0
 11 10  1  6
 13 11  1  0
 14  7  1  0
 13 14  1  6
 15 13  1  0
 15 16  2  0
 17 15  1  0
 18 17  1  0
 18 19  1  1
 20 19  1  0
 21 20  1  0
 22 21  1  0
 23 22  1  0
 24 18  1  0
 25 24  2  0
 26 24  1  0
M  END
$$$$
