ETK.pdb
     RDKit          3D

 26 25  0  0  1  0  0  0  0  0999 V2000
    9.5670  -16.4605   16.0436 N   0  0  0  0  0  0  0  0  0  0  0  0
    8.8829  -16.8914   17.2152 C   0  0  1  0  0  0  0  0  0  0  0  0
    9.0236  -18.3791   17.3654 C   0  0  0  0  0  0  0  0  0  0  0  0
   10.3917  -18.8646   17.0070 C   0  0  0  0  0  0  0  0  0  0  0  0
   10.5723  -20.3241   17.1139 C   0  0  0  0  0  0  0  0  0  0  0  0
   11.6709  -20.8809   16.8729 O   0  0  0  0  0  0  0  0  0  0  0  0
    9.3851  -16.2557   18.4571 C   0  0  0  0  0  0  0  0  0  0  0  0
   10.5529  -15.7872   18.4582 O   0  0  0  0  0  0  0  0  0  0  0  0
    9.4991  -21.1130   17.4922 O   0  0  0  0  0  0  0  0  0  0  0  0
    7.6395  -13.4836   20.3830 C   0  0  0  0  0  0  0  0  0  0  0  0
    8.0049  -14.5446   21.4081 C   0  0  1  0  0  0  0  0  0  0  0  0
    6.8424  -15.2787   21.6380 O   0  0  0  0  0  0  0  0  0  0  0  0
    9.0958  -15.3961   20.8078 C   0  0  2  0  0  0  0  0  0  0  0  0
    8.6320  -16.1394   19.6526 N   0  0  0  0  0  0  0  0  0  0  0  0
    9.5811  -16.3360   21.8492 C   0  0  0  0  0  0  0  0  0  0  0  0
    9.2333  -17.5401   21.8290 O   0  0  0  0  0  0  0  0  0  0  0  0
   10.4458  -15.9362   22.9020 N   0  0  0  0  0  0  0  0  0  0  0  0
   10.9306  -16.8829   23.9214 C   0  0  1  0  0  0  0  0  0  0  0  0
   12.4169  -16.6783   24.0735 C   0  0  0  0  0  0  0  0  0  0  0  0
   13.0968  -17.6364   24.9825 C   0  0  0  0  0  0  0  0  0  0  0  0
   14.5913  -17.4030   25.0693 C   0  0  0  0  0  0  0  0  0  0  0  0
   15.2492  -18.3841   26.0100 C   0  0  0  0  0  0  0  0  0  0  0  0
   16.6851  -18.2081   25.8516 N   0  0  0  0  0  0  0  0  0  0  0  0
   10.1904  -16.7214   25.1774 C   0  0  0  0  0  0  0  0  0  0  0  0
    9.4909  -15.7170   25.3761 O   0  0  0  0  0  0  0  0  0  0  0  0
   10.2751  -17.7000   26.1482 O   0  0  0  0  0  0  0  0  0  0  0  0
  2  1  1  6
  2  7  1  0
  3  2  1  0
  4  3  1  0
  5  4  1  0
  6  5  2  0
  7  8  2  0
  9  5  1  0
 11 12  1  0
 11 10  1  6
 13 11  1  0
 14  7  1  0
 13 14  1  6
 15 13  1  0
 15 16  2  0
 17 15  1  0
 18 17  1  0
 18 19  1  1
 20 19  1  0
 21 20  1  0
 22 21  1  0
 23 22  1  0
 24 18  1  0
 25 24  2  0
 26 24  1  0
M  END
$$$$
