ETK.pdb
     RDKit          3D

 26 25  0  0  1  0  0  0  0  0999 V2000
   13.7432  -20.2723   20.2937 N   0  0  0  0  0  0  0  0  0  0  0  0
   14.1374  -21.0305   21.4321 C   0  0  1  0  0  0  0  0  0  0  0  0
   15.6359  -21.1141   21.4906 C   0  0  0  0  0  0  0  0  0  0  0  0
   16.2725  -20.9395   20.1489 C   0  0  0  0  0  0  0  0  0  0  0  0
   17.7451  -21.0148   20.1542 C   0  0  0  0  0  0  0  0  0  0  0  0
   18.3583  -22.0920   20.3508 O   0  0  0  0  0  0  0  0  0  0  0  0
   13.6597  -20.4587   22.7141 C   0  0  0  0  0  0  0  0  0  0  0  0
   14.0790  -19.3223   23.0543 O   0  0  0  0  0  0  0  0  0  0  0  0
   18.4826  -19.8635   19.9358 O   0  0  0  0  0  0  0  0  0  0  0  0
   10.6232  -19.0902   23.7870 C   0  0  0  0  0  0  0  0  0  0  0  0
   10.8249  -20.2044   24.8009 C   0  0  1  0  0  0  0  0  0  0  0  0
   10.0703  -21.2846   24.3457 O   0  0  0  0  0  0  0  0  0  0  0  0
   12.2987  -20.5244   24.8335 C   0  0  2  0  0  0  0  0  0  0  0  0
   12.7552  -21.1118   23.5889 N   0  0  0  0  0  0  0  0  0  0  0  0
   12.5479  -21.4646   25.9548 C   0  0  0  0  0  0  0  0  0  0  0  0
   12.4763  -22.7027   25.7726 O   0  0  0  0  0  0  0  0  0  0  0  0
   12.8738  -21.0275   27.2657 N   0  0  0  0  0  0  0  0  0  0  0  0
   13.0318  -21.9670   28.3894 C   0  0  1  0  0  0  0  0  0  0  0  0
   13.9852  -21.3476   29.3801 C   0  0  0  0  0  0  0  0  0  0  0  0
   14.3031  -22.1892   30.5621 C   0  0  0  0  0  0  0  0  0  0  0  0
   15.3706  -21.5786   31.4470 C   0  0  0  0  0  0  0  0  0  0  0  0
   15.6621  -22.4528   32.6432 C   0  0  0  0  0  0  0  0  0  0  0  0
   16.8244  -21.8761   33.3024 N   0  0  0  0  0  0  0  0  0  0  0  0
   11.7293  -22.3076   28.9717 C   0  0  0  0  0  0  0  0  0  0  0  0
   10.8117  -21.4742   29.0033 O   0  0  0  0  0  0  0  0  0  0  0  0
   11.5248  -23.5714   29.4900 O   0  0  0  0  0  0  0  0  0  0  0  0
  2  1  1  6
  2  7  1  0
  3  2  1  0
  4  3  1  0
  5  4  1  0
  6  5  2  0
  7  8  2  0
  9  5  1  0
 11 12  1  0
 11 10  1  6
 13 11  1  0
 14  7  1  0
 13 14  1  6
 15 13  1  0
 15 16  2  0
 17 15  1  0
 18 17  1  0
 18 19  1  1
 20 19  1  0
 21 20  1  0
 22 21  1  0
 23 22  1  0
 24 18  1  0
 25 24  2  0
 26 24  1  0
M  END
$$$$
