ETK.pdb
     RDKit          3D

 26 25  0  0  1  0  0  0  0  0999 V2000
   12.2448  -14.4989   17.2506 N   0  0  0  0  0  0  0  0  0  0  0  0
   12.2642  -14.9016   18.6157 C   0  0  1  0  0  0  0  0  0  0  0  0
   13.6028  -14.5840   19.2184 C   0  0  0  0  0  0  0  0  0  0  0  0
   14.7000  -15.4300   18.6558 C   0  0  0  0  0  0  0  0  0  0  0  0
   16.0300  -15.1779   19.2403 C   0  0  0  0  0  0  0  0  0  0  0  0
   16.2437  -14.2251   20.0287 O   0  0  0  0  0  0  0  0  0  0  0  0
   11.2225  -14.2414   19.4388 C   0  0  0  0  0  0  0  0  0  0  0  0
   11.0433  -13.0042   19.2956 O   0  0  0  0  0  0  0  0  0  0  0  0
   17.0829  -16.0156   18.9134 O   0  0  0  0  0  0  0  0  0  0  0  0
    7.9762  -13.7622   19.1421 C   0  0  0  0  0  0  0  0  0  0  0  0
    7.9910  -14.5075   20.4667 C   0  0  1  0  0  0  0  0  0  0  0  0
    7.8016  -15.8534   20.1568 O   0  0  0  0  0  0  0  0  0  0  0  0
    9.3347  -14.2636   21.1074 C   0  0  2  0  0  0  0  0  0  0  0  0
   10.4086  -14.9157   20.3837 N   0  0  0  0  0  0  0  0  0  0  0  0
    9.2866  -14.7714   22.5014 C   0  0  0  0  0  0  0  0  0  0  0  0
   10.1288  -15.6095   22.9009 O   0  0  0  0  0  0  0  0  0  0  0  0
    8.3089  -14.3481   23.4398 N   0  0  0  0  0  0  0  0  0  0  0  0
    8.2412  -14.8983   24.8047 C   0  0  1  0  0  0  0  0  0  0  0  0
    7.0131  -14.3320   25.4718 C   0  0  0  0  0  0  0  0  0  0  0  0
    7.1242  -12.9144   25.9012 C   0  0  0  0  0  0  0  0  0  0  0  0
    5.8562  -12.3965   26.5489 C   0  0  0  0  0  0  0  0  0  0  0  0
    6.0033  -10.9553   26.9751 C   0  0  0  0  0  0  0  0  0  0  0  0
    4.7460  -10.5810   27.6054 N   0  0  0  0  0  0  0  0  0  0  0  0
    8.2638  -16.3647   24.7778 C   0  0  0  0  0  0  0  0  0  0  0  0
    7.7839  -16.9884   23.8195 O   0  0  0  0  0  0  0  0  0  0  0  0
    8.8261  -17.0564   25.8327 O   0  0  0  0  0  0  0  0  0  0  0  0
  2  1  1  6
  2  7  1  0
  3  2  1  0
  4  3  1  0
  5  4  1  0
  6  5  2  0
  7  8  2  0
  9  5  1  0
 11 12  1  0
 11 10  1  6
 13 11  1  0
 14  7  1  0
 13 14  1  6
 15 13  1  0
 15 16  2  0
 17 15  1  0
 18 17  1  0
 18 19  1  6
 20 19  1  0
 21 20  1  0
 22 21  1  0
 23 22  1  0
 24 18  1  0
 25 24  2  0
 26 24  1  0
M  END
$$$$
