ETK.pdb
     RDKit          3D

 26 25  0  0  1  0  0  0  0  0999 V2000
    8.7544  -17.5195   17.0938 N   0  0  0  0  0  0  0  0  0  0  0  0
    9.8060  -17.7173   18.0324 C   0  0  1  0  0  0  0  0  0  0  0  0
   11.1330  -17.5870   17.3411 C   0  0  0  0  0  0  0  0  0  0  0  0
   10.9928  -17.3543   15.8706 C   0  0  0  0  0  0  0  0  0  0  0  0
   12.2690  -17.2962   15.1344 C   0  0  0  0  0  0  0  0  0  0  0  0
   12.7851  -18.3132   14.6106 O   0  0  0  0  0  0  0  0  0  0  0  0
    9.7790  -16.7526   19.1582 C   0  0  0  0  0  0  0  0  0  0  0  0
   10.8138  -16.6281   19.8631 O   0  0  0  0  0  0  0  0  0  0  0  0
   12.9256  -16.0832   15.0125 O   0  0  0  0  0  0  0  0  0  0  0  0
    7.9349  -13.1597   19.4571 C   0  0  0  0  0  0  0  0  0  0  0  0
    7.5461  -14.0718   20.6090 C   0  0  1  0  0  0  0  0  0  0  0  0
    6.2931  -14.5911   20.2868 O   0  0  0  0  0  0  0  0  0  0  0  0
    8.5936  -15.1531   20.7026 C   0  0  2  0  0  0  0  0  0  0  0  0
    8.6567  -15.9551   19.4963 N   0  0  0  0  0  0  0  0  0  0  0  0
    8.2701  -16.0176   21.8651 C   0  0  0  0  0  0  0  0  0  0  0  0
    7.7093  -17.1257   21.6952 O   0  0  0  0  0  0  0  0  0  0  0  0
    8.5696  -15.6493   23.2031 N   0  0  0  0  0  0  0  0  0  0  0  0
    8.1363  -16.4586   24.3554 C   0  0  1  0  0  0  0  0  0  0  0  0
    9.3195  -16.6249   25.2754 C   0  0  0  0  0  0  0  0  0  0  0  0
    9.0578  -17.4171   26.5044 C   0  0  0  0  0  0  0  0  0  0  0  0
   10.2851  -17.5632   27.3806 C   0  0  0  0  0  0  0  0  0  0  0  0
    9.9711  -18.3217   28.6480 C   0  0  0  0  0  0  0  0  0  0  0  0
   11.2193  -18.4206   29.3898 N   0  0  0  0  0  0  0  0  0  0  0  0
    6.9720  -15.8526   25.0102 C   0  0  0  0  0  0  0  0  0  0  0  0
    6.7594  -14.6339   24.9241 O   0  0  0  0  0  0  0  0  0  0  0  0
    6.1042  -16.6500   25.7303 O   0  0  0  0  0  0  0  0  0  0  0  0
  2  1  1  6
  2  7  1  0
  3  2  1  0
  4  3  1  0
  5  4  1  0
  6  5  2  0
  7  8  2  0
  9  5  1  0
 11 12  1  0
 11 10  1  6
 13 11  1  0
 14  7  1  0
 13 14  1  6
 15 13  1  0
 15 16  2  0
 17 15  1  0
 18 17  1  0
 18 19  1  1
 20 19  1  0
 21 20  1  0
 22 21  1  0
 23 22  1  0
 24 18  1  0
 25 24  2  0
 26 24  1  0
M  END
$$$$
