RGD.pdb
     RDKit          3D

 24 23  0  0  1  0  0  0  0  0999 V2000
   22.1836  -21.2932   -6.1690 N   0  0  0  0  0  0  0  0  0  0  0  0
   21.8450  -22.4751   -6.8642 C   0  0  0  0  0  0  0  0  0  0  0  0
   20.7037  -23.0703   -6.6630 N   0  0  0  0  0  0  0  0  0  0  0  0
   22.7978  -22.9939   -7.7975 N   0  0  0  0  0  0  0  0  0  0  0  0
   23.9213  -22.2165   -8.1896 C   0  0  0  0  0  0  0  0  0  0  0  0
   23.6071  -21.0923   -9.1435 C   0  0  0  0  0  0  0  0  0  0  0  0
   24.8375  -20.3531   -9.6199 C   0  0  0  0  0  0  0  0  0  0  0  0
   25.4319  -21.1757  -10.7428 C   0  0  2  0  0  0  0  0  0  0  0  0
   26.5042  -21.9666  -10.2046 N   0  0  0  0  0  0  0  0  0  0  0  0
   25.8645  -20.2895  -11.8393 C   0  0  0  0  0  0  0  0  0  0  0  0
   27.0767  -20.0144  -12.0290 O   0  0  0  0  0  0  0  0  0  0  0  0
   20.4590  -23.8762   -7.2751 N   0  0  0  0  0  0  0  0  0  0  0  0
   24.8352  -19.7373  -12.7012 C   0  0  0  0  0  0  0  0  0  0  0  0
   25.3114  -19.1291  -13.9142 C   0  0  0  0  0  0  0  0  0  0  0  0
   24.2104  -18.5788  -14.7011 O   0  0  0  0  0  0  0  0  0  0  0  0
   23.0381  -18.9996  -14.3860 N   0  0  0  0  0  0  0  0  0  0  0  0
   24.2908  -17.6520  -15.7527 C   0  0  1  0  0  0  0  0  0  0  0  0
   23.0670  -17.2771  -16.4749 C   0  0  0  0  0  0  0  0  0  0  0  0
   23.3660  -16.0546  -17.3417 C   0  0  0  0  0  0  0  0  0  0  0  0
   22.1521  -15.6347  -18.0336 O   0  0  0  0  0  0  0  0  0  0  0  0
   21.0314  -16.0163  -17.5991 C   0  0  0  0  0  0  0  0  0  0  0  0
   22.6287  -18.3852  -17.3393 O   0  0  0  0  0  0  0  0  0  0  0  0
   23.5445  -19.2865  -17.8786 O   0  0  0  0  0  0  0  0  0  0  0  0
   22.1400  -14.8229  -19.1667 O   0  0  0  0  0  0  0  0  0  0  0  0
  1  2  1  0
  2  3  2  0
  4  5  1  0
  4  2  1  0
  6  7  1  0
  6  5  1  0
  7  8  1  0
  8  9  1  1
 10  8  1  0
 10 12  1  0
 11 10  2  0
 12 13  1  0
 13 14  1  0
 14 15  2  0
 14 16  1  0
 16 17  1  0
 17 21  1  0
 17 18  1  6
 18 19  1  0
 19 23  1  0
 20 19  2  0
 21 24  2  0
 21 22  1  0
M  END
$$$$
