RGD.pdb
     RDKit          3D

 24 23  0  0  1  0  0  0  0  0999 V2000
   16.4293  -16.4564  -15.1495 N   0  0  0  0  0  0  0  0  0  0  0  0
   16.0398  -15.5919  -16.1962 C   0  0  0  0  0  0  0  0  0  0  0  0
   15.7699  -16.0532  -17.3843 N   0  0  0  0  0  0  0  0  0  0  0  0
   15.9505  -14.1936  -15.9055 N   0  0  0  0  0  0  0  0  0  0  0  0
   17.1205  -13.3871  -15.8719 C   0  0  0  0  0  0  0  0  0  0  0  0
   17.5117  -12.7897  -17.1996 C   0  0  0  0  0  0  0  0  0  0  0  0
   18.8208  -12.0338  -17.1507 C   0  0  0  0  0  0  0  0  0  0  0  0
   18.6190  -10.8749  -16.1984 C   0  0  2  0  0  0  0  0  0  0  0  0
   17.2067  -10.6638  -16.0369 N   0  0  0  0  0  0  0  0  0  0  0  0
   19.3254   -9.6825  -16.7022 C   0  0  0  0  0  0  0  0  0  0  0  0
   20.5547   -9.7034  -16.9658 O   0  0  0  0  0  0  0  0  0  0  0  0
   15.4902  -15.3720  -18.1204 N   0  0  0  0  0  0  0  0  0  0  0  0
   18.5485   -8.4699  -16.8845 C   0  0  0  0  0  0  0  0  0  0  0  0
   19.3055   -7.3068  -17.2619 C   0  0  0  0  0  0  0  0  0  0  0  0
   19.6622   -6.5028  -16.0955 O   0  0  0  0  0  0  0  0  0  0  0  0
   18.8179   -5.5905  -15.7706 N   0  0  0  0  0  0  0  0  0  0  0  0
   20.8135   -6.6148  -15.2995 C   0  0  1  0  0  0  0  0  0  0  0  0
   20.9455   -5.7698  -14.1045 C   0  0  0  0  0  0  0  0  0  0  0  0
   21.1553   -6.6716  -12.8888 C   0  0  0  0  0  0  0  0  0  0  0  0
   19.8730   -7.2136  -12.4524 O   0  0  0  0  0  0  0  0  0  0  0  0
   18.8064   -6.6872  -12.8716 C   0  0  0  0  0  0  0  0  0  0  0  0
   22.1036   -4.8717  -14.2439 O   0  0  0  0  0  0  0  0  0  0  0  0
   22.3648   -3.8784  -13.3020 O   0  0  0  0  0  0  0  0  0  0  0  0
   19.7371   -8.2968  -11.5857 O   0  0  0  0  0  0  0  0  0  0  0  0
  1  2  1  0
  2  3  2  0
  4  5  1  0
  4  2  1  0
  6  7  1  0
  6  5  1  0
  7  8  1  0
  8  9  1  6
 10  8  1  0
 10 12  1  0
 11 10  2  0
 12 13  1  0
 13 14  1  0
 14 15  2  0
 14 16  1  0
 16 17  1  0
 17 21  1  0
 17 18  1  1
 18 19  1  0
 19 23  1  0
 20 19  2  0
 21 24  2  0
 21 22  1  0
M  END
$$$$
