RGD.pdb
     RDKit          3D

 24 23  0  0  1  0  0  0  0  0999 V2000
   25.6083  -23.2550  -15.0468 N   0  0  0  0  0  0  0  0  0  0  0  0
   24.8518  -22.0768  -15.2324 C   0  0  0  0  0  0  0  0  0  0  0  0
   23.7650  -22.0814  -15.9507 N   0  0  0  0  0  0  0  0  0  0  0  0
   25.3198  -20.8799  -14.6029 N   0  0  0  0  0  0  0  0  0  0  0  0
   26.2467  -20.9449  -13.5272 C   0  0  0  0  0  0  0  0  0  0  0  0
   25.6239  -21.1623  -12.1717 C   0  0  0  0  0  0  0  0  0  0  0  0
   24.9160  -19.9372  -11.6374 C   0  0  0  0  0  0  0  0  0  0  0  0
   24.3139  -20.3289  -10.3052 C   0  0  2  0  0  0  0  0  0  0  0  0
   25.3629  -20.8455   -9.4698 N   0  0  0  0  0  0  0  0  0  0  0  0
   23.2172  -21.2925  -10.5140 C   0  0  0  0  0  0  0  0  0  0  0  0
   23.1713  -22.3871   -9.8969 O   0  0  0  0  0  0  0  0  0  0  0  0
   23.2577  -21.1807  -16.0740 N   0  0  0  0  0  0  0  0  0  0  0  0
   22.1820  -20.9344  -11.4665 C   0  0  0  0  0  0  0  0  0  0  0  0
   21.3102  -22.0087  -11.8586 C   0  0  0  0  0  0  0  0  0  0  0  0
   20.2713  -21.5435  -12.7742 O   0  0  0  0  0  0  0  0  0  0  0  0
   20.2701  -22.0905  -13.9367 N   0  0  0  0  0  0  0  0  0  0  0  0
   19.2854  -20.5747  -12.5274 C   0  0  2  0  0  0  0  0  0  0  0  0
   17.8912  -20.8591  -12.8945 C   0  0  0  0  0  0  0  0  0  0  0  0
   17.5425  -22.2732  -12.4318 C   0  0  0  0  0  0  0  0  0  0  0  0
   16.7956  -22.9621  -13.4787 O   0  0  0  0  0  0  0  0  0  0  0  0
   16.4948  -22.3392  -14.5332 C   0  0  0  0  0  0  0  0  0  0  0  0
   16.9880  -19.9005  -12.2368 O   0  0  0  0  0  0  0  0  0  0  0  0
   15.9071  -19.3429  -12.9170 O   0  0  0  0  0  0  0  0  0  0  0  0
   16.3804  -24.2902  -13.3969 O   0  0  0  0  0  0  0  0  0  0  0  0
  1  2  1  0
  2  3  2  0
  4  5  1  0
  4  2  1  0
  6  7  1  0
  6  5  1  0
  7  8  1  0
  8  9  1  1
 10  8  1  0
 10 12  1  0
 11 10  2  0
 12 13  1  0
 13 14  1  0
 14 15  2  0
 14 16  1  0
 16 17  1  0
 17 21  1  0
 17 18  1  6
 18 19  1  0
 19 23  1  0
 20 19  2  0
 21 24  2  0
 21 22  1  0
M  END
$$$$
