RGD.pdb
     RDKit          3D

 24 23  0  0  1  0  0  0  0  0999 V2000
   23.2077  -21.2055   -8.4581 N   0  0  0  0  0  0  0  0  0  0  0  0
   22.8933  -20.6516   -9.7186 C   0  0  0  0  0  0  0  0  0  0  0  0
   21.7204  -20.1352   -9.9528 N   0  0  0  0  0  0  0  0  0  0  0  0
   23.9079  -20.6759  -10.7276 N   0  0  0  0  0  0  0  0  0  0  0  0
   24.5721  -21.8894  -11.0543 C   0  0  0  0  0  0  0  0  0  0  0  0
   26.0765  -21.8219  -10.9856 C   0  0  0  0  0  0  0  0  0  0  0  0
   26.7266  -21.6218  -12.3365 C   0  0  0  0  0  0  0  0  0  0  0  0
   27.5185  -20.3348  -12.2520 C   0  0  2  0  0  0  0  0  0  0  0  0
   26.9361  -19.5126  -11.2273 N   0  0  0  0  0  0  0  0  0  0  0  0
   27.5477  -19.6761  -13.5712 C   0  0  0  0  0  0  0  0  0  0  0  0
   28.1976  -20.1542  -14.5356 O   0  0  0  0  0  0  0  0  0  0  0  0
   21.5341  -19.7591  -10.9056 N   0  0  0  0  0  0  0  0  0  0  0  0
   26.7957  -18.4437  -13.7222 C   0  0  0  0  0  0  0  0  0  0  0  0
   26.8905  -17.8212  -15.0151 C   0  0  0  0  0  0  0  0  0  0  0  0
   25.8997  -18.3647  -15.9410 O   0  0  0  0  0  0  0  0  0  0  0  0
   26.1533  -19.5376  -16.4000 N   0  0  0  0  0  0  0  0  0  0  0  0
   24.7146  -17.7535  -16.3807 C   0  0  1  0  0  0  0  0  0  0  0  0
   23.5100  -18.5740  -16.5682 C   0  0  0  0  0  0  0  0  0  0  0  0
   23.1127  -19.1744  -15.2202 C   0  0  0  0  0  0  0  0  0  0  0  0
   23.5247  -20.5728  -15.1650 O   0  0  0  0  0  0  0  0  0  0  0  0
   23.2569  -21.2544  -14.1382 C   0  0  0  0  0  0  0  0  0  0  0  0
   22.4035  -17.7431  -17.0705 O   0  0  0  0  0  0  0  0  0  0  0  0
   21.3478  -18.3027  -17.7878 O   0  0  0  0  0  0  0  0  0  0  0  0
   24.2087  -21.2266  -16.1886 O   0  0  0  0  0  0  0  0  0  0  0  0
  1  2  1  0
  2  3  2  0
  4  5  1  0
  4  2  1  0
  6  7  1  0
  6  5  1  0
  7  8  1  0
  8  9  1  1
 10  8  1  0
 10 12  1  0
 11 10  2  0
 12 13  1  0
 13 14  1  0
 14 15  2  0
 14 16  1  0
 16 17  1  0
 17 21  1  0
 17 18  1  6
 18 19  1  0
 19 23  1  0
 20 19  2  0
 21 24  2  0
 21 22  1  0
M  END
$$$$
