RGD.pdb
     RDKit          3D

 24 23  0  0  1  0  0  0  0  0999 V2000
   23.9755  -20.2440   -9.4976 N   0  0  0  0  0  0  0  0  0  0  0  0
   25.0622  -20.6963   -8.7171 C   0  0  0  0  0  0  0  0  0  0  0  0
   24.9221  -20.9372   -7.4445 N   0  0  0  0  0  0  0  0  0  0  0  0
   26.3205  -20.8819   -9.3730 N   0  0  0  0  0  0  0  0  0  0  0  0
   26.5059  -20.4503  -10.7145 C   0  0  0  0  0  0  0  0  0  0  0  0
   25.5707  -21.0819  -11.7140 C   0  0  0  0  0  0  0  0  0  0  0  0
   25.8130  -20.6181  -13.1331 C   0  0  0  0  0  0  0  0  0  0  0  0
   24.8045  -21.3360  -14.0038 C   0  0  2  0  0  0  0  0  0  0  0  0
   25.4486  -22.4771  -14.5940 N   0  0  0  0  0  0  0  0  0  0  0  0
   24.2529  -20.4045  -15.0052 C   0  0  0  0  0  0  0  0  0  0  0  0
   24.7269  -20.3248  -16.1671 O   0  0  0  0  0  0  0  0  0  0  0  0
   25.7683  -21.2115   -6.9036 N   0  0  0  0  0  0  0  0  0  0  0  0
   23.1343  -19.5718  -14.6021 C   0  0  0  0  0  0  0  0  0  0  0  0
   22.3319  -19.0580  -15.6792 C   0  0  0  0  0  0  0  0  0  0  0  0
   21.0176  -19.6949  -15.7142 O   0  0  0  0  0  0  0  0  0  0  0  0
   20.2040  -19.2408  -16.5987 N   0  0  0  0  0  0  0  0  0  0  0  0
   20.5501  -20.7361  -14.8965 C   0  0  1  0  0  0  0  0  0  0  0  0
   19.1609  -21.1934  -15.0399 C   0  0  0  0  0  0  0  0  0  0  0  0
   19.1030  -22.6875  -14.7242 C   0  0  0  0  0  0  0  0  0  0  0  0
   19.7206  -23.4428  -15.8089 O   0  0  0  0  0  0  0  0  0  0  0  0
   20.1835  -22.8240  -16.8055 C   0  0  0  0  0  0  0  0  0  0  0  0
   18.2889  -20.4685  -14.1012 O   0  0  0  0  0  0  0  0  0  0  0  0
   18.8172  -19.5984  -13.1495 O   0  0  0  0  0  0  0  0  0  0  0  0
   19.8396  -24.8315  -15.8247 O   0  0  0  0  0  0  0  0  0  0  0  0
  1  2  1  0
  2  3  2  0
  4  5  1  0
  4  2  1  0
  6  7  1  0
  6  5  1  0
  7  8  1  0
  8  9  1  6
 10  8  1  0
 10 12  1  0
 11 10  2  0
 12 13  1  0
 13 14  1  0
 14 15  2  0
 14 16  1  0
 16 17  1  0
 17 21  1  0
 17 18  1  1
 18 19  1  0
 19 23  1  0
 20 19  2  0
 21 24  2  0
 21 22  1  0
M  END
$$$$
