RGD.pdb
     RDKit          3D

 24 23  0  0  1  0  0  0  0  0999 V2000
   28.6951  -24.0982  -16.1146 N   0  0  0  0  0  0  0  0  0  0  0  0
   29.3044  -23.3934  -17.1761 C   0  0  0  0  0  0  0  0  0  0  0  0
   29.7907  -24.0213  -18.2088 N   0  0  0  0  0  0  0  0  0  0  0  0
   29.3673  -21.9671  -17.0780 N   0  0  0  0  0  0  0  0  0  0  0  0
   28.5566  -21.2716  -16.1402 C   0  0  0  0  0  0  0  0  0  0  0  0
   27.0815  -21.2858  -16.4507 C   0  0  0  0  0  0  0  0  0  0  0  0
   26.2551  -20.5021  -15.4554 C   0  0  0  0  0  0  0  0  0  0  0  0
   24.8350  -20.4950  -15.9787 C   0  0  2  0  0  0  0  0  0  0  0  0
   24.7930  -19.6775  -17.1598 N   0  0  0  0  0  0  0  0  0  0  0  0
   23.9140  -20.0310  -14.9245 C   0  0  0  0  0  0  0  0  0  0  0  0
   23.6870  -18.8089  -14.7346 O   0  0  0  0  0  0  0  0  0  0  0  0
   30.2602  -23.4566  -18.9468 N   0  0  0  0  0  0  0  0  0  0  0  0
   23.2723  -21.0408  -14.1025 C   0  0  0  0  0  0  0  0  0  0  0  0
   22.4621  -20.5337  -13.0280 C   0  0  0  0  0  0  0  0  0  0  0  0
   21.0519  -20.8599  -13.2255 O   0  0  0  0  0  0  0  0  0  0  0  0
   20.4083  -20.0826  -14.0206 N   0  0  0  0  0  0  0  0  0  0  0  0
   20.3297  -21.9165  -12.6481 C   0  0  2  0  0  0  0  0  0  0  0  0
   18.9270  -22.1234  -13.0345 C   0  0  0  0  0  0  0  0  0  0  0  0
   18.5498  -23.5760  -12.7466 C   0  0  0  0  0  0  0  0  0  0  0  0
   17.1559  -23.8031  -13.1126 O   0  0  0  0  0  0  0  0  0  0  0  0
   16.2758  -23.8175  -12.2095 C   0  0  0  0  0  0  0  0  0  0  0  0
   18.0498  -21.2343  -12.2553 O   0  0  0  0  0  0  0  0  0  0  0  0
   16.7700  -20.9101  -12.7013 O   0  0  0  0  0  0  0  0  0  0  0  0
   16.7150  -24.0098  -14.4187 O   0  0  0  0  0  0  0  0  0  0  0  0
  1  2  1  0
  2  3  2  0
  4  5  1  0
  4  2  1  0
  6  7  1  0
  6  5  1  0
  7  8  1  0
  8  9  1  6
 10  8  1  0
 10 12  1  0
 11 10  2  0
 12 13  1  0
 13 14  1  0
 14 15  2  0
 14 16  1  0
 16 17  1  0
 17 21  1  0
 17 18  1  1
 18 19  1  0
 19 23  1  0
 20 19  2  0
 21 24  2  0
 21 22  1  0
M  END
$$$$
