RGD.pdb
     RDKit          3D

 24 23  0  0  1  0  0  0  0  0999 V2000
   24.9741  -15.3741  -22.1121 N   0  0  0  0  0  0  0  0  0  0  0  0
   25.7123  -14.5553  -21.2294 C   0  0  0  0  0  0  0  0  0  0  0  0
   26.1156  -13.3701  -21.5897 N   0  0  0  0  0  0  0  0  0  0  0  0
   25.9999  -15.0721  -19.9262 N   0  0  0  0  0  0  0  0  0  0  0  0
   25.5254  -16.3543  -19.5373 C   0  0  0  0  0  0  0  0  0  0  0  0
   25.8866  -16.7594  -18.1309 C   0  0  0  0  0  0  0  0  0  0  0  0
   25.3590  -18.1245  -17.7495 C   0  0  0  0  0  0  0  0  0  0  0  0
   25.8501  -18.4042  -16.3454 C   0  0  2  0  0  0  0  0  0  0  0  0
   27.2405  -18.0483  -16.2740 N   0  0  0  0  0  0  0  0  0  0  0  0
   25.5984  -19.8150  -15.9975 C   0  0  0  0  0  0  0  0  0  0  0  0
   24.4360  -20.2939  -15.9741 O   0  0  0  0  0  0  0  0  0  0  0  0
   26.7241  -12.8405  -20.9316 N   0  0  0  0  0  0  0  0  0  0  0  0
   26.7476  -20.6421  -15.6775 C   0  0  0  0  0  0  0  0  0  0  0  0
   26.4426  -21.9913  -15.2842 C   0  0  0  0  0  0  0  0  0  0  0  0
   26.0610  -22.0613  -13.8757 O   0  0  0  0  0  0  0  0  0  0  0  0
   25.5359  -23.1711  -13.4972 N   0  0  0  0  0  0  0  0  0  0  0  0
   26.2021  -21.0607  -12.9009 C   0  0  1  0  0  0  0  0  0  0  0  0
   25.5871  -21.2528  -11.5801 C   0  0  0  0  0  0  0  0  0  0  0  0
   26.3788  -20.4477  -10.5505 C   0  0  0  0  0  0  0  0  0  0  0  0
   25.8346  -20.6850   -9.2178 O   0  0  0  0  0  0  0  0  0  0  0  0
   24.8679  -21.4830   -9.0797 C   0  0  0  0  0  0  0  0  0  0  0  0
   24.1938  -20.7777  -11.5954 O   0  0  0  0  0  0  0  0  0  0  0  0
   23.2096  -21.4013  -10.8310 O   0  0  0  0  0  0  0  0  0  0  0  0
   26.3167  -20.0802   -8.0582 O   0  0  0  0  0  0  0  0  0  0  0  0
  1  2  1  0
  2  3  2  0
  4  5  1  0
  4  2  1  0
  6  7  1  0
  6  5  1  0
  7  8  1  0
  8  9  1  6
 10  8  1  0
 10 12  1  0
 11 10  2  0
 12 13  1  0
 13 14  1  0
 14 15  2  0
 14 16  1  0
 16 17  1  0
 17 21  1  0
 17 18  1  6
 18 19  1  0
 19 23  1  0
 20 19  2  0
 21 24  2  0
 21 22  1  0
M  END
$$$$
