RGD.pdb
     RDKit          3D

 24 23  0  0  1  0  0  0  0  0999 V2000
   18.9179  -25.5195   -9.0352 N   0  0  0  0  0  0  0  0  0  0  0  0
   17.7533  -24.9746   -9.6194 C   0  0  0  0  0  0  0  0  0  0  0  0
   16.9274  -25.7213  -10.2957 N   0  0  0  0  0  0  0  0  0  0  0  0
   17.5119  -23.5753   -9.4409 N   0  0  0  0  0  0  0  0  0  0  0  0
   17.9964  -22.6326  -10.3880 C   0  0  0  0  0  0  0  0  0  0  0  0
   18.7150  -23.2374  -11.5672 C   0  0  0  0  0  0  0  0  0  0  0  0
   19.2353  -22.2046  -12.5420 C   0  0  0  0  0  0  0  0  0  0  0  0
   20.6168  -21.8123  -12.0642 C   0  0  2  0  0  0  0  0  0  0  0  0
   20.4796  -20.7419  -11.1153 N   0  0  0  0  0  0  0  0  0  0  0  0
   21.4637  -21.4543  -13.2173 C   0  0  0  0  0  0  0  0  0  0  0  0
   21.5822  -22.2135  -14.2126 O   0  0  0  0  0  0  0  0  0  0  0  0
   16.0935  -25.2655  -10.7210 N   0  0  0  0  0  0  0  0  0  0  0  0
   22.1653  -20.1846  -13.1655 C   0  0  0  0  0  0  0  0  0  0  0  0
   23.0568  -19.9306  -14.2650 C   0  0  0  0  0  0  0  0  0  0  0  0
   22.4211  -19.0989  -15.2841 O   0  0  0  0  0  0  0  0  0  0  0  0
   21.3814  -18.4486  -14.9008 N   0  0  0  0  0  0  0  0  0  0  0  0
   22.8156  -18.9343  -16.6215 C   0  0  1  0  0  0  0  0  0  0  0  0
   22.0580  -18.0190  -17.4863 C   0  0  0  0  0  0  0  0  0  0  0  0
   22.8597  -17.7787  -18.7649 C   0  0  0  0  0  0  0  0  0  0  0  0
   24.2045  -17.3273  -18.4237 O   0  0  0  0  0  0  0  0  0  0  0  0
   24.4185  -16.8349  -17.2825 C   0  0  0  0  0  0  0  0  0  0  0  0
   20.7575  -18.6129  -17.8375 O   0  0  0  0  0  0  0  0  0  0  0  0
   19.6605  -17.8140  -18.1539 O   0  0  0  0  0  0  0  0  0  0  0  0
   25.2962  -17.4025  -19.2870 O   0  0  0  0  0  0  0  0  0  0  0  0
  1  2  1  0
  2  3  2  0
  4  5  1  0
  4  2  1  0
  6  7  1  0
  6  5  1  0
  7  8  1  0
  8  9  1  1
 10  8  1  0
 10 12  1  0
 11 10  2  0
 12 13  1  0
 13 14  1  0
 14 15  2  0
 14 16  1  0
 16 17  1  0
 17 21  1  0
 17 18  1  6
 18 19  1  0
 19 23  1  0
 20 19  2  0
 21 24  2  0
 21 22  1  0
M  END
$$$$
