RGD.pdb
     RDKit          3D

 24 23  0  0  1  0  0  0  0  0999 V2000
   23.7972  -20.8254  -10.0091 N   0  0  0  0  0  0  0  0  0  0  0  0
   24.7851  -20.7909   -9.0004 C   0  0  0  0  0  0  0  0  0  0  0  0
   24.4864  -21.0419   -7.7574 N   0  0  0  0  0  0  0  0  0  0  0  0
   26.1244  -20.4727   -9.3916 N   0  0  0  0  0  0  0  0  0  0  0  0
   26.3832  -19.8602  -10.6479 C   0  0  0  0  0  0  0  0  0  0  0  0
   27.2972  -20.6447  -11.5544 C   0  0  0  0  0  0  0  0  0  0  0  0
   27.5533  -19.9612  -12.8791 C   0  0  0  0  0  0  0  0  0  0  0  0
   26.5265  -20.4992  -13.8521 C   0  0  2  0  0  0  0  0  0  0  0  0
   26.2008  -21.8449  -13.4670 N   0  0  0  0  0  0  0  0  0  0  0  0
   27.0427  -20.4039  -15.2303 C   0  0  0  0  0  0  0  0  0  0  0  0
   27.4637  -19.3186  -15.7059 O   0  0  0  0  0  0  0  0  0  0  0  0
   25.2537  -21.0080   -7.0546 N   0  0  0  0  0  0  0  0  0  0  0  0
   27.0478  -21.6154  -16.0299 C   0  0  0  0  0  0  0  0  0  0  0  0
   27.3695  -21.4324  -17.4195 C   0  0  0  0  0  0  0  0  0  0  0  0
   26.1958  -21.0246  -18.1879 O   0  0  0  0  0  0  0  0  0  0  0  0
   26.2723  -19.8710  -18.7482 N   0  0  0  0  0  0  0  0  0  0  0  0
   25.0062  -21.7455  -18.3790 C   0  0  2  0  0  0  0  0  0  0  0  0
   23.8486  -21.0734  -18.9854 C   0  0  0  0  0  0  0  0  0  0  0  0
   23.5461  -19.8057  -18.1875 C   0  0  0  0  0  0  0  0  0  0  0  0
   22.2152  -19.9028  -17.5976 O   0  0  0  0  0  0  0  0  0  0  0  0
   21.5112  -20.9233  -17.8289 C   0  0  0  0  0  0  0  0  0  0  0  0
   24.1483  -20.7056  -20.3790 O   0  0  0  0  0  0  0  0  0  0  0  0
   25.4594  -20.6651  -20.8494 O   0  0  0  0  0  0  0  0  0  0  0  0
   21.6514  -18.9270  -16.7773 O   0  0  0  0  0  0  0  0  0  0  0  0
  1  2  1  0
  2  3  2  0
  4  5  1  0
  4  2  1  0
  6  7  1  0
  6  5  1  0
  7  8  1  0
  8  9  1  1
 10  8  1  0
 10 12  1  0
 11 10  2  0
 12 13  1  0
 13 14  1  0
 14 15  2  0
 14 16  1  0
 16 17  1  0
 17 21  1  0
 17 18  1  1
 18 19  1  0
 19 23  1  0
 20 19  2  0
 21 24  2  0
 21 22  1  0
M  END
$$$$
