RGD.pdb
     RDKit          3D

 24 23  0  0  1  0  0  0  0  0999 V2000
   23.1424  -20.5271   -9.9948 N   0  0  0  0  0  0  0  0  0  0  0  0
   23.7348  -21.0457   -8.8222 C   0  0  0  0  0  0  0  0  0  0  0  0
   23.0043  -21.5042   -7.8458 N   0  0  0  0  0  0  0  0  0  0  0  0
   25.1637  -21.0514   -8.7454 N   0  0  0  0  0  0  0  0  0  0  0  0
   25.9416  -20.3656   -9.7175 C   0  0  0  0  0  0  0  0  0  0  0  0
   26.6875  -21.2615  -10.6733 C   0  0  0  0  0  0  0  0  0  0  0  0
   26.8909  -20.6404  -12.0373 C   0  0  0  0  0  0  0  0  0  0  0  0
   25.6864  -21.0192  -12.8719 C   0  0  2  0  0  0  0  0  0  0  0  0
   25.4423  -22.4250  -12.7006 N   0  0  0  0  0  0  0  0  0  0  0  0
   25.9124  -20.6415  -14.2794 C   0  0  0  0  0  0  0  0  0  0  0  0
   26.2191  -19.4674  -14.6087 O   0  0  0  0  0  0  0  0  0  0  0  0
   23.4913  -21.9332   -7.0317 N   0  0  0  0  0  0  0  0  0  0  0  0
   25.7662  -21.6791  -15.2840 C   0  0  0  0  0  0  0  0  0  0  0  0
   25.8586  -21.2310  -16.6474 C   0  0  0  0  0  0  0  0  0  0  0  0
   24.6008  -20.6418  -17.1001 O   0  0  0  0  0  0  0  0  0  0  0  0
   24.3980  -20.6723  -18.3684 N   0  0  0  0  0  0  0  0  0  0  0  0
   23.6004  -20.0514  -16.3113 C   0  0  1  0  0  0  0  0  0  0  0  0
   22.1985  -20.4394  -16.5203 C   0  0  0  0  0  0  0  0  0  0  0  0
   22.0711  -21.9468  -16.3040 C   0  0  0  0  0  0  0  0  0  0  0  0
   20.7921  -22.4119  -16.8299 O   0  0  0  0  0  0  0  0  0  0  0  0
   20.0375  -21.5962  -17.4264 C   0  0  0  0  0  0  0  0  0  0  0  0
   21.3299  -19.7396  -15.5595 O   0  0  0  0  0  0  0  0  0  0  0  0
   20.0494  -19.3208  -15.9154 O   0  0  0  0  0  0  0  0  0  0  0  0
   20.3324  -23.7231  -16.7191 O   0  0  0  0  0  0  0  0  0  0  0  0
  1  2  1  0
  2  3  2  0
  4  5  1  0
  4  2  1  0
  6  7  1  0
  6  5  1  0
  7  8  1  0
  8  9  1  6
 10  8  1  0
 10 12  1  0
 11 10  2  0
 12 13  1  0
 13 14  1  0
 14 15  2  0
 14 16  1  0
 16 17  1  0
 17 21  1  0
 17 18  1  6
 18 19  1  0
 19 23  1  0
 20 19  2  0
 21 24  2  0
 21 22  1  0
M  END
$$$$
