RGD.pdb
     RDKit          3D

 24 23  0  0  1  0  0  0  0  0999 V2000
   31.5468  -21.7404   -7.8836 N   0  0  0  0  0  0  0  0  0  0  0  0
   31.5268  -21.9794   -9.2755 C   0  0  0  0  0  0  0  0  0  0  0  0
   32.4153  -22.7477   -9.8389 N   0  0  0  0  0  0  0  0  0  0  0  0
   30.4964  -21.3500  -10.0437 N   0  0  0  0  0  0  0  0  0  0  0  0
   29.6326  -20.3927   -9.4455 C   0  0  0  0  0  0  0  0  0  0  0  0
   28.3060  -20.9419   -8.9861 C   0  0  0  0  0  0  0  0  0  0  0  0
   27.5558  -21.6768  -10.0746 C   0  0  0  0  0  0  0  0  0  0  0  0
   26.5358  -20.7070  -10.6310 C   0  0  2  0  0  0  0  0  0  0  0  0
   25.9677  -19.9709   -9.5353 N   0  0  0  0  0  0  0  0  0  0  0  0
   25.5257  -21.4382  -11.4185 C   0  0  0  0  0  0  0  0  0  0  0  0
   25.8445  -22.1574  -12.3994 O   0  0  0  0  0  0  0  0  0  0  0  0
   32.3980  -22.8346  -10.8762 N   0  0  0  0  0  0  0  0  0  0  0  0
   24.1363  -21.2982  -11.0222 C   0  0  0  0  0  0  0  0  0  0  0  0
   23.1723  -21.6200  -12.0397 C   0  0  0  0  0  0  0  0  0  0  0  0
   22.6688  -20.4155  -12.6954 O   0  0  0  0  0  0  0  0  0  0  0  0
   23.4366  -19.3873  -12.6333 N   0  0  0  0  0  0  0  0  0  0  0  0
   21.4515  -20.2587  -13.3774 C   0  0  1  0  0  0  0  0  0  0  0  0
   21.3552  -19.2647  -14.4555 C   0  0  0  0  0  0  0  0  0  0  0  0
   22.4069  -19.5896  -15.5154 C   0  0  0  0  0  0  0  0  0  0  0  0
   22.3320  -18.6133  -16.5969 O   0  0  0  0  0  0  0  0  0  0  0  0
   21.7559  -17.5101  -16.3928 C   0  0  0  0  0  0  0  0  0  0  0  0
   20.0191  -19.3128  -15.0717 O   0  0  0  0  0  0  0  0  0  0  0  0
   19.4154  -18.1634  -15.5780 O   0  0  0  0  0  0  0  0  0  0  0  0
   22.8635  -18.8150  -17.8696 O   0  0  0  0  0  0  0  0  0  0  0  0
  1  2  1  0
  2  3  2  0
  4  5  1  0
  4  2  1  0
  6  7  1  0
  6  5  1  0
  7  8  1  0
  8  9  1  1
 10  8  1  0
 10 12  1  0
 11 10  2  0
 12 13  1  0
 13 14  1  0
 14 15  2  0
 14 16  1  0
 16 17  1  0
 17 21  1  0
 17 18  1  1
 18 19  1  0
 19 23  1  0
 20 19  2  0
 21 24  2  0
 21 22  1  0
M  END
$$$$
