SLL.pdb
     RDKit          3D

 23 22  0  0  1  0  0  0  0  0999 V2000
    8.2110  -19.6377   21.1663 O   0  0  0  0  0  0  0  0  0  0  0  0
    9.2169  -18.6988   21.2589 C   0  0  0  0  0  0  0  0  0  0  0  0
    8.6694  -17.3796   20.7772 C   0  0  2  0  0  0  0  0  0  0  0  0
    9.3032  -17.0463   19.5375 N   0  0  0  0  0  0  0  0  0  0  0  0
    8.9110  -16.3220   21.7976 C   0  0  0  0  0  0  0  0  0  0  0  0
   10.0184  -15.6884   21.7930 O   0  0  0  0  0  0  0  0  0  0  0  0
    8.1270  -12.3871   24.9483 C   0  0  0  0  0  0  0  0  0  0  0  0
    6.8056  -13.0428   24.7091 C   0  0  2  0  0  0  0  0  0  0  0  0
    5.9078  -12.7113   25.8774 C   0  0  0  0  0  0  0  0  0  0  0  0
    6.8373  -14.4709   24.3456 C   0  0  0  0  0  0  0  0  0  0  0  0
    8.1209  -14.9981   23.7711 C   0  0  2  0  0  0  0  0  0  0  0  0
    7.9247  -16.0165   22.7680 N   0  0  0  0  0  0  0  0  0  0  0  0
    8.8562  -15.6170   24.9034 C   0  0  0  0  0  0  0  0  0  0  0  0
    8.2817  -16.4966   25.5854 O   0  0  0  0  0  0  0  0  0  0  0  0
    9.0715  -14.0797   29.7601 C   0  0  0  0  0  0  0  0  0  0  0  0
   10.1135  -14.9119   28.9958 C   0  0  2  0  0  0  0  0  0  0  0  0
   11.4766  -14.4721   29.4461 C   0  0  0  0  0  0  0  0  0  0  0  0
    9.8595  -14.6679   27.5476 C   0  0  0  0  0  0  0  0  0  0  0  0
   10.6640  -15.5060   26.6005 C   0  0  2  0  0  0  0  0  0  0  0  0
   10.1736  -15.2678   25.2563 N   0  0  0  0  0  0  0  0  0  0  0  0
   10.6680  -16.9426   26.9145 C   0  0  0  0  0  0  0  0  0  0  0  0
    9.4538  -17.6475   26.8402 O   0  0  0  0  0  0  0  0  0  0  0  0
   11.7142  -17.5506   27.2434 O   0  0  0  0  0  0  0  0  0  0  0  0
  2  1  1  0
  3  4  1  6
  3  2  1  0
  3  5  1  0
  5 12  1  0
  5  6  2  0
  8  7  1  1
  8  9  1  0
  8 10  1  0
 11 10  1  1
 11 13  1  0
 12 11  1  0
 13 14  2  0
 16 18  1  0
 16 15  1  1
 17 16  1  0
 19 18  1  1
 19 21  1  0
 20 13  1  0
 20 19  1  0
 21 22  1  0
 23 21  2  0
M  END
$$$$
