SLL.pdb
     RDKit          3D

 23 22  0  0  1  0  0  0  0  0999 V2000
   10.7065  -20.8432   22.2218 O   0  0  0  0  0  0  0  0  0  0  0  0
   11.2099  -19.5661   22.3548 C   0  0  0  0  0  0  0  0  0  0  0  0
   11.0069  -18.8461   21.0462 C   0  0  2  0  0  0  0  0  0  0  0  0
   12.1853  -19.0050   20.2488 N   0  0  0  0  0  0  0  0  0  0  0  0
   10.7241  -17.4050   21.2935 C   0  0  0  0  0  0  0  0  0  0  0  0
   11.6940  -16.5788   21.3602 O   0  0  0  0  0  0  0  0  0  0  0  0
    6.3790  -13.1903   20.1713 C   0  0  0  0  0  0  0  0  0  0  0  0
    7.5948  -13.6378   20.9161 C   0  0  2  0  0  0  0  0  0  0  0  0
    8.7222  -12.6951   20.5679 C   0  0  0  0  0  0  0  0  0  0  0  0
    7.9376  -15.0678   20.8151 C   0  0  0  0  0  0  0  0  0  0  0  0
    9.0764  -15.5558   21.6641 C   0  0  2  0  0  0  0  0  0  0  0  0
    9.3926  -16.9479   21.4543 N   0  0  0  0  0  0  0  0  0  0  0  0
    8.6356  -15.4016   23.0739 C   0  0  0  0  0  0  0  0  0  0  0  0
    7.7164  -16.1373   23.5012 O   0  0  0  0  0  0  0  0  0  0  0  0
    5.7127  -12.2050   26.2661 C   0  0  0  0  0  0  0  0  0  0  0  0
    7.0926  -12.8350   26.5144 C   0  0  2  0  0  0  0  0  0  0  0  0
    8.0747  -11.7220   26.7404 C   0  0  0  0  0  0  0  0  0  0  0  0
    7.3963  -13.6590   25.3102 C   0  0  0  0  0  0  0  0  0  0  0  0
    8.7163  -14.3689   25.3295 C   0  0  2  0  0  0  0  0  0  0  0  0
    9.1975  -14.4674   23.9646 N   0  0  0  0  0  0  0  0  0  0  0  0
    8.6859  -15.6895   25.9754 C   0  0  0  0  0  0  0  0  0  0  0  0
    7.9304  -16.7117   25.3743 O   0  0  0  0  0  0  0  0  0  0  0  0
    9.3092  -15.9273   27.0372 O   0  0  0  0  0  0  0  0  0  0  0  0
  2  1  1  0
  3  4  1  6
  3  2  1  0
  3  5  1  0
  5 12  1  0
  5  6  2  0
  8  7  1  6
  8  9  1  0
  8 10  1  0
 11 10  1  6
 11 13  1  0
 12 11  1  0
 13 14  2  0
 16 18  1  0
 16 15  1  6
 17 16  1  0
 19 18  1  6
 19 21  1  0
 20 13  1  0
 20 19  1  0
 21 22  1  0
 23 21  2  0
M  END
$$$$
