SLL.pdb
     RDKit          3D

 23 22  0  0  1  0  0  0  0  0999 V2000
    6.4476  -18.3510   23.9556 O   0  0  0  0  0  0  0  0  0  0  0  0
    6.6463  -19.2066   22.8923 C   0  0  0  0  0  0  0  0  0  0  0  0
    6.6019  -18.3928   21.6243 C   0  0  2  0  0  0  0  0  0  0  0  0
    6.6776  -19.2834   20.5059 N   0  0  0  0  0  0  0  0  0  0  0  0
    7.7271  -17.4174   21.6026 C   0  0  0  0  0  0  0  0  0  0  0  0
    8.9147  -17.8355   21.3962 O   0  0  0  0  0  0  0  0  0  0  0  0
    8.9852  -13.7115   19.0813 C   0  0  0  0  0  0  0  0  0  0  0  0
    7.8554  -13.4917   20.0343 C   0  0  2  0  0  0  0  0  0  0  0  0
    7.2251  -12.1597   19.7033 C   0  0  0  0  0  0  0  0  0  0  0  0
    8.1539  -13.6908   21.4640 C   0  0  0  0  0  0  0  0  0  0  0  0
    8.5607  -15.0731   21.8877 C   0  0  2  0  0  0  0  0  0  0  0  0
    7.4889  -16.0358   21.8085 N   0  0  0  0  0  0  0  0  0  0  0  0
    8.9652  -14.9656   23.3127 C   0  0  0  0  0  0  0  0  0  0  0  0
   10.0748  -14.4532   23.5865 O   0  0  0  0  0  0  0  0  0  0  0  0
    8.2506  -12.2092   26.4575 C   0  0  0  0  0  0  0  0  0  0  0  0
    7.1245  -13.1381   25.9763 C   0  0  2  0  0  0  0  0  0  0  0  0
    5.8273  -12.6100   26.5172 C   0  0  0  0  0  0  0  0  0  0  0  0
    7.4660  -14.4997   26.4771 C   0  0  0  0  0  0  0  0  0  0  0  0
    8.5812  -15.1928   25.7543 C   0  0  2  0  0  0  0  0  0  0  0  0
    8.1650  -15.4108   24.3819 N   0  0  0  0  0  0  0  0  0  0  0  0
    9.0210  -16.4494   26.3787 C   0  0  0  0  0  0  0  0  0  0  0  0
    9.0496  -17.6140   25.5916 O   0  0  0  0  0  0  0  0  0  0  0  0
    9.3678  -16.5105   27.5823 O   0  0  0  0  0  0  0  0  0  0  0  0
  2  1  1  0
  3  4  1  6
  3  2  1  0
  3  5  1  0
  5 12  1  0
  5  6  2  0
  8  7  1  6
  8  9  1  0
  8 10  1  0
 11 10  1  1
 11 13  1  0
 12 11  1  0
 13 14  2  0
 16 18  1  0
 16 15  1  1
 17 16  1  0
 19 18  1  1
 19 21  1  0
 20 13  1  0
 20 19  1  0
 21 22  1  0
 23 21  2  0
M  END
$$$$
