SLL.pdb
     RDKit          3D

 23 22  0  0  1  0  0  0  0  0999 V2000
    6.7523  -18.8349   24.8409 O   0  0  0  0  0  0  0  0  0  0  0  0
    5.6013  -18.5459   24.1383 C   0  0  0  0  0  0  0  0  0  0  0  0
    5.9212  -18.6230   22.6673 C   0  0  2  0  0  0  0  0  0  0  0  0
    6.3007  -19.9668   22.3512 N   0  0  0  0  0  0  0  0  0  0  0  0
    7.0150  -17.6699   22.3308 C   0  0  0  0  0  0  0  0  0  0  0  0
    8.2140  -18.0974   22.2450 O   0  0  0  0  0  0  0  0  0  0  0  0
    7.7290  -11.6427   20.6298 C   0  0  0  0  0  0  0  0  0  0  0  0
    8.2254  -13.0331   20.8615 C   0  0  2  0  0  0  0  0  0  0  0  0
    8.9578  -13.4749   19.6168 C   0  0  0  0  0  0  0  0  0  0  0  0
    7.2419  -14.0050   21.3721 C   0  0  0  0  0  0  0  0  0  0  0  0
    7.7712  -15.3385   21.8165 C   0  0  2  0  0  0  0  0  0  0  0  0
    6.7345  -16.2992   22.1066 N   0  0  0  0  0  0  0  0  0  0  0  0
    8.5175  -15.0873   23.0758 C   0  0  0  0  0  0  0  0  0  0  0  0
    9.7204  -14.7457   23.0047 O   0  0  0  0  0  0  0  0  0  0  0  0
    7.7623  -11.8762   26.1111 C   0  0  0  0  0  0  0  0  0  0  0  0
    6.8815  -13.1342   26.0443 C   0  0  2  0  0  0  0  0  0  0  0  0
    5.6625  -12.8898   26.8859 C   0  0  0  0  0  0  0  0  0  0  0  0
    7.7261  -14.2597   26.5356 C   0  0  0  0  0  0  0  0  0  0  0  0
    8.6904  -14.8268   25.5380 C   0  0  2  0  0  0  0  0  0  0  0  0
    7.9442  -15.2126   24.3554 N   0  0  0  0  0  0  0  0  0  0  0  0
    9.4968  -15.9480   26.0428 C   0  0  0  0  0  0  0  0  0  0  0  0
   10.4133  -15.7000   27.0798 O   0  0  0  0  0  0  0  0  0  0  0  0
    9.3910  -17.1081   25.5786 O   0  0  0  0  0  0  0  0  0  0  0  0
  2  1  1  0
  3  4  1  1
  3  2  1  0
  3  5  1  0
  5 12  1  0
  5  6  2  0
  8  7  1  6
  8  9  1  0
  8 10  1  0
 11 10  1  1
 11 13  1  0
 12 11  1  0
 13 14  2  0
 16 18  1  0
 16 15  1  1
 17 16  1  0
 19 18  1  1
 19 21  1  0
 20 13  1  0
 20 19  1  0
 21 22  1  0
 23 21  2  0
M  END
$$$$
