SLL.pdb
     RDKit          3D

 23 22  0  0  1  0  0  0  0  0999 V2000
    9.9335  -18.7222   21.4661 O   0  0  0  0  0  0  0  0  0  0  0  0
    8.6687  -18.3238   21.0875 C   0  0  0  0  0  0  0  0  0  0  0  0
    8.7269  -16.8592   20.7357 C   0  0  2  0  0  0  0  0  0  0  0  0
    9.7289  -16.6693   19.7308 N   0  0  0  0  0  0  0  0  0  0  0  0
    9.0339  -16.0531   21.9497 C   0  0  0  0  0  0  0  0  0  0  0  0
   10.2208  -15.6221   22.1319 O   0  0  0  0  0  0  0  0  0  0  0  0
    5.8881  -12.9814   26.4406 C   0  0  0  0  0  0  0  0  0  0  0  0
    7.1312  -13.3641   25.7046 C   0  0  2  0  0  0  0  0  0  0  0  0
    7.7791  -12.0956   25.2026 C   0  0  0  0  0  0  0  0  0  0  0  0
    6.9939  -14.4255   24.6911 C   0  0  0  0  0  0  0  0  0  0  0  0
    8.2568  -14.9093   24.0377 C   0  0  2  0  0  0  0  0  0  0  0  0
    8.0223  -15.7633   22.8986 N   0  0  0  0  0  0  0  0  0  0  0  0
    8.9704  -15.7123   25.0632 C   0  0  0  0  0  0  0  0  0  0  0  0
    8.5941  -16.8878   25.2766 O   0  0  0  0  0  0  0  0  0  0  0  0
   10.1671  -13.1887   27.9647 C   0  0  0  0  0  0  0  0  0  0  0  0
   10.3951  -14.5471   28.6471 C   0  0  2  0  0  0  0  0  0  0  0  0
   10.8811  -14.2868   30.0436 C   0  0  0  0  0  0  0  0  0  0  0  0
   11.3819  -15.2768   27.8015 C   0  0  0  0  0  0  0  0  0  0  0  0
   10.7985  -16.1037   26.6958 C   0  0  2  0  0  0  0  0  0  0  0  0
   10.0551  -15.2227   25.8153 N   0  0  0  0  0  0  0  0  0  0  0  0
    9.9619  -17.2236   27.1519 C   0  0  0  0  0  0  0  0  0  0  0  0
    8.6205  -17.2711   26.7332 O   0  0  0  0  0  0  0  0  0  0  0  0
   10.4072  -18.1289   27.8966 O   0  0  0  0  0  0  0  0  0  0  0  0
  2  1  1  0
  3  4  1  6
  3  2  1  0
  3  5  1  0
  5 12  1  0
  5  6  2  0
  8  7  1  6
  8  9  1  0
  8 10  1  0
 11 10  1  1
 11 13  1  0
 12 11  1  0
 13 14  2  0
 16 18  1  0
 16 15  1  6
 17 16  1  0
 19 18  1  1
 19 21  1  0
 20 13  1  0
 20 19  1  0
 21 22  1  0
 23 21  2  0
M  END
$$$$
