SLL.pdb
     RDKit          3D

 23 22  0  0  1  0  0  0  0  0999 V2000
    8.0412  -19.4788   23.7624 O   0  0  0  0  0  0  0  0  0  0  0  0
    8.6500  -20.0665   22.6734 C   0  0  0  0  0  0  0  0  0  0  0  0
    8.1435  -19.3815   21.4299 C   0  0  2  0  0  0  0  0  0  0  0  0
    8.5600  -20.1386   20.2884 N   0  0  0  0  0  0  0  0  0  0  0  0
    8.6679  -17.9892   21.3629 C   0  0  0  0  0  0  0  0  0  0  0  0
    9.9251  -17.7975   21.2615 O   0  0  0  0  0  0  0  0  0  0  0  0
    8.8901  -13.3468   19.6755 C   0  0  0  0  0  0  0  0  0  0  0  0
    7.5544  -13.3146   20.3449 C   0  0  2  0  0  0  0  0  0  0  0  0
    7.4579  -12.0222   21.1203 C   0  0  0  0  0  0  0  0  0  0  0  0
    7.1725  -14.5172   21.1069 C   0  0  0  0  0  0  0  0  0  0  0  0
    8.2566  -15.5189   21.3848 C   0  0  2  0  0  0  0  0  0  0  0  0
    7.7847  -16.8822   21.4109 N   0  0  0  0  0  0  0  0  0  0  0  0
    8.7790  -15.1971   22.7373 C   0  0  0  0  0  0  0  0  0  0  0  0
    9.9019  -14.6511   22.8347 O   0  0  0  0  0  0  0  0  0  0  0  0
    8.3443  -12.1247   25.9754 C   0  0  0  0  0  0  0  0  0  0  0  0
    7.2116  -13.0654   25.5343 C   0  0  2  0  0  0  0  0  0  0  0  0
    5.9300  -12.5551   26.1269 C   0  0  0  0  0  0  0  0  0  0  0  0
    7.5885  -14.4246   26.0162 C   0  0  0  0  0  0  0  0  0  0  0  0
    8.6442  -15.1243   25.2146 C   0  0  2  0  0  0  0  0  0  0  0  0
    8.0772  -15.4737   23.9259 N   0  0  0  0  0  0  0  0  0  0  0  0
    9.2246  -16.3038   25.8735 C   0  0  0  0  0  0  0  0  0  0  0  0
    9.8743  -16.1290   27.1081 O   0  0  0  0  0  0  0  0  0  0  0  0
    9.1570  -17.4502   25.3698 O   0  0  0  0  0  0  0  0  0  0  0  0
  2  1  1  0
  3  4  1  6
  3  2  1  0
  3  5  1  0
  5 12  1  0
  5  6  2  0
  8  7  1  1
  8  9  1  0
  8 10  1  0
 11 10  1  1
 11 13  1  0
 12 11  1  0
 13 14  2  0
 16 18  1  0
 16 15  1  1
 17 16  1  0
 19 18  1  1
 19 21  1  0
 20 13  1  0
 20 19  1  0
 21 22  1  0
 23 21  2  0
M  END
$$$$
