SLL.pdb
     RDKit          3D

 23 22  0  0  1  0  0  0  0  0999 V2000
    9.7657  -19.0322   19.0115 O   0  0  0  0  0  0  0  0  0  0  0  0
    8.5107  -18.7569   19.5126 C   0  0  0  0  0  0  0  0  0  0  0  0
    8.6315  -18.5868   21.0054 C   0  0  2  0  0  0  0  0  0  0  0  0
    7.3220  -18.6495   21.5807 N   0  0  0  0  0  0  0  0  0  0  0  0
    9.2878  -17.2877   21.3210 C   0  0  0  0  0  0  0  0  0  0  0  0
   10.5560  -17.1868   21.2249 O   0  0  0  0  0  0  0  0  0  0  0  0
    9.0667  -13.2548   19.3991 C   0  0  0  0  0  0  0  0  0  0  0  0
    7.9100  -13.4916   20.3151 C   0  0  2  0  0  0  0  0  0  0  0  0
    6.8974  -12.3978   20.0718 C   0  0  0  0  0  0  0  0  0  0  0  0
    8.2330  -13.7239   21.7344 C   0  0  0  0  0  0  0  0  0  0  0  0
    9.1171  -14.8970   22.0473 C   0  0  2  0  0  0  0  0  0  0  0  0
    8.5174  -16.1692   21.7250 N   0  0  0  0  0  0  0  0  0  0  0  0
    9.3421  -14.8642   23.5150 C   0  0  0  0  0  0  0  0  0  0  0  0
   10.2806  -14.1672   23.9647 O   0  0  0  0  0  0  0  0  0  0  0  0
    8.1562  -12.5469   26.6127 C   0  0  0  0  0  0  0  0  0  0  0  0
    7.1030  -13.4909   26.0107 C   0  0  2  0  0  0  0  0  0  0  0  0
    5.7544  -13.0536   26.5048 C   0  0  0  0  0  0  0  0  0  0  0  0
    7.4783  -14.8654   26.4479 C   0  0  0  0  0  0  0  0  0  0  0  0
    8.7490  -15.4047   25.8637 C   0  0  2  0  0  0  0  0  0  0  0  0
    8.5535  -15.5783   24.4369 N   0  0  0  0  0  0  0  0  0  0  0  0
    9.2236  -16.6490   26.4871 C   0  0  0  0  0  0  0  0  0  0  0  0
    9.5454  -16.6317   27.8557 O   0  0  0  0  0  0  0  0  0  0  0  0
    9.3482  -17.7148   25.8384 O   0  0  0  0  0  0  0  0  0  0  0  0
  2  1  1  0
  3  4  1  1
  3  2  1  0
  3  5  1  0
  5 12  1  0
  5  6  2  0
  8  7  1  6
  8  9  1  0
  8 10  1  0
 11 10  1  1
 11 13  1  0
 12 11  1  0
 13 14  2  0
 16 18  1  0
 16 15  1  1
 17 16  1  0
 19 18  1  1
 19 21  1  0
 20 13  1  0
 20 19  1  0
 21 22  1  0
 23 21  2  0
M  END
$$$$
