SLL.pdb
     RDKit          3D

 23 22  0  0  1  0  0  0  0  0999 V2000
    8.8403  -17.9572   21.2644 O   0  0  0  0  0  0  0  0  0  0  0  0
    7.5552  -17.4583   21.3028 C   0  0  0  0  0  0  0  0  0  0  0  0
    7.6206  -15.9789   21.0215 C   0  0  2  0  0  0  0  0  0  0  0  0
    8.4127  -15.7709   19.8471 N   0  0  0  0  0  0  0  0  0  0  0  0
    8.2043  -15.2614   22.1887 C   0  0  0  0  0  0  0  0  0  0  0  0
    9.4513  -14.9917   22.1987 O   0  0  0  0  0  0  0  0  0  0  0  0
    6.3077  -12.2845   27.3994 C   0  0  0  0  0  0  0  0  0  0  0  0
    7.3566  -12.7975   26.4666 C   0  0  2  0  0  0  0  0  0  0  0  0
    8.2734  -11.6468   26.1257 C   0  0  0  0  0  0  0  0  0  0  0  0
    6.8812  -13.5684   25.3038 C   0  0  0  0  0  0  0  0  0  0  0  0
    7.9268  -14.2347   24.4560 C   0  0  2  0  0  0  0  0  0  0  0  0
    7.3886  -14.8783   23.2822 N   0  0  0  0  0  0  0  0  0  0  0  0
    8.5382  -15.2875   25.3065 C   0  0  0  0  0  0  0  0  0  0  0  0
    7.8226  -16.2398   25.6935 O   0  0  0  0  0  0  0  0  0  0  0  0
   11.3697  -18.3796   24.3664 C   0  0  0  0  0  0  0  0  0  0  0  0
   11.9413  -16.9635   24.5411 C   0  0  2  0  0  0  0  0  0  0  0  0
   13.3574  -16.9720   24.0423 C   0  0  0  0  0  0  0  0  0  0  0  0
   11.8252  -16.6443   25.9924 C   0  0  0  0  0  0  0  0  0  0  0  0
   10.4362  -16.3697   26.4842 C   0  0  2  0  0  0  0  0  0  0  0  0
    9.8882  -15.2753   25.7056 N   0  0  0  0  0  0  0  0  0  0  0  0
   10.3466  -16.0897   27.9249 C   0  0  0  0  0  0  0  0  0  0  0  0
   10.6032  -17.1366   28.8277 O   0  0  0  0  0  0  0  0  0  0  0  0
   10.0506  -14.9540   28.3667 O   0  0  0  0  0  0  0  0  0  0  0  0
  2  1  1  0
  3  4  1  6
  3  2  1  0
  3  5  1  0
  5 12  1  0
  5  6  2  0
  8  7  1  6
  8  9  1  0
  8 10  1  0
 11 10  1  1
 11 13  1  0
 12 11  1  0
 13 14  2  0
 16 18  1  0
 16 15  1  1
 17 16  1  0
 19 18  1  6
 19 21  1  0
 20 13  1  0
 20 19  1  0
 21 22  1  0
 23 21  2  0
M  END
$$$$
