SLL.pdb
     RDKit          3D

 23 22  0  0  1  0  0  0  0  0999 V2000
    8.5433  -19.1086   23.7330 O   0  0  0  0  0  0  0  0  0  0  0  0
    8.6246  -19.0180   22.3593 C   0  0  0  0  0  0  0  0  0  0  0  0
    7.7173  -17.9009   21.9110 C   0  0  2  0  0  0  0  0  0  0  0  0
    7.7261  -17.8503   20.4803 N   0  0  0  0  0  0  0  0  0  0  0  0
    8.1738  -16.6071   22.4903 C   0  0  0  0  0  0  0  0  0  0  0  0
    9.2196  -16.0456   22.0226 O   0  0  0  0  0  0  0  0  0  0  0  0
    6.1750  -12.2954   26.6316 C   0  0  0  0  0  0  0  0  0  0  0  0
    7.1616  -12.8394   25.6499 C   0  0  2  0  0  0  0  0  0  0  0  0
    7.4467  -11.7581   24.6348 C   0  0  0  0  0  0  0  0  0  0  0  0
    6.8521  -14.1588   25.0702 C   0  0  0  0  0  0  0  0  0  0  0  0
    7.8785  -14.7551   24.1500 C   0  0  2  0  0  0  0  0  0  0  0  0
    7.4584  -15.9990   23.5516 N   0  0  0  0  0  0  0  0  0  0  0  0
    9.0702  -15.0390   24.9897 C   0  0  0  0  0  0  0  0  0  0  0  0
   10.1087  -14.3624   24.8094 O   0  0  0  0  0  0  0  0  0  0  0  0
   11.0443  -13.7450   27.8203 C   0  0  0  0  0  0  0  0  0  0  0  0
    9.8506  -14.5060   28.4192 C   0  0  2  0  0  0  0  0  0  0  0  0
    9.7767  -14.1726   29.8812 C   0  0  0  0  0  0  0  0  0  0  0  0
   10.1020  -15.9505   28.1517 C   0  0  0  0  0  0  0  0  0  0  0  0
   10.3214  -16.3126   26.7139 C   0  0  2  0  0  0  0  0  0  0  0  0
    9.0985  -16.0341   25.9851 N   0  0  0  0  0  0  0  0  0  0  0  0
   10.7614  -17.6988   26.4972 C   0  0  0  0  0  0  0  0  0  0  0  0
   11.9832  -18.1090   27.0592 O   0  0  0  0  0  0  0  0  0  0  0  0
   10.0838  -18.5175   25.8315 O   0  0  0  0  0  0  0  0  0  0  0  0
  2  1  1  0
  3  4  1  6
  3  2  1  0
  3  5  1  0
  5 12  1  0
  5  6  2  0
  8  7  1  6
  8  9  1  0
  8 10  1  0
 11 10  1  1
 11 13  1  0
 12 11  1  0
 13 14  2  0
 16 18  1  0
 16 15  1  1
 17 16  1  0
 19 18  1  1
 19 21  1  0
 20 13  1  0
 20 19  1  0
 21 22  1  0
 23 21  2  0
M  END
$$$$
