SLL.pdb
     RDKit          3D

 23 22  0  0  1  0  0  0  0  0999 V2000
    8.6140  -19.2025   19.9546 O   0  0  0  0  0  0  0  0  0  0  0  0
    9.1292  -18.4022   20.9527 C   0  0  0  0  0  0  0  0  0  0  0  0
    8.6862  -16.9856   20.6898 C   0  0  2  0  0  0  0  0  0  0  0  0
    9.3491  -16.5096   19.5135 N   0  0  0  0  0  0  0  0  0  0  0  0
    9.0034  -16.1243   21.8626 C   0  0  0  0  0  0  0  0  0  0  0  0
   10.1585  -15.5902   21.9535 O   0  0  0  0  0  0  0  0  0  0  0  0
    8.1943  -12.3870   25.2379 C   0  0  0  0  0  0  0  0  0  0  0  0
    6.9100  -13.1050   24.9761 C   0  0  2  0  0  0  0  0  0  0  0  0
    5.9616  -12.7805   26.1058 C   0  0  0  0  0  0  0  0  0  0  0  0
    7.0133  -14.5398   24.6548 C   0  0  0  0  0  0  0  0  0  0  0  0
    8.2729  -14.9955   23.9755 C   0  0  2  0  0  0  0  0  0  0  0  0
    8.0363  -15.8953   22.8726 N   0  0  0  0  0  0  0  0  0  0  0  0
    9.0505  -15.7358   25.0017 C   0  0  0  0  0  0  0  0  0  0  0  0
    8.5168  -16.7157   25.5706 O   0  0  0  0  0  0  0  0  0  0  0  0
    9.4770  -14.5814   29.9181 C   0  0  0  0  0  0  0  0  0  0  0  0
   10.6996  -15.0268   29.0998 C   0  0  2  0  0  0  0  0  0  0  0  0
   11.8924  -14.2636   29.5988 C   0  0  0  0  0  0  0  0  0  0  0  0
   10.3698  -14.7465   27.6736 C   0  0  0  0  0  0  0  0  0  0  0  0
   10.8753  -15.7524   26.6840 C   0  0  2  0  0  0  0  0  0  0  0  0
   10.3648  -15.3953   25.3741 N   0  0  0  0  0  0  0  0  0  0  0  0
   10.5490  -17.1473   27.0158 C   0  0  0  0  0  0  0  0  0  0  0  0
    9.1957  -17.5262   27.0592 O   0  0  0  0  0  0  0  0  0  0  0  0
   11.4356  -18.0002   27.2588 O   0  0  0  0  0  0  0  0  0  0  0  0
  2  1  1  0
  3  4  1  6
  3  2  1  0
  3  5  1  0
  5 12  1  0
  5  6  2  0
  8  7  1  1
  8  9  1  0
  8 10  1  0
 11 10  1  1
 11 13  1  0
 12 11  1  0
 13 14  2  0
 16 18  1  0
 16 15  1  1
 17 16  1  0
 19 18  1  1
 19 21  1  0
 20 13  1  0
 20 19  1  0
 21 22  1  0
 23 21  2  0
M  END
$$$$
