LWD.pdb
     RDKit          3D

 31 32  0  0  1  0  0  0  0  0999 V2000
    7.9547  -13.0358   16.8480 C   0  0  0  0  0  0  0  0  0  0  0  0
    7.6777  -13.8972   18.0465 C   0  0  2  0  0  0  0  0  0  0  0  0
    6.5127  -13.2306   18.7913 C   0  0  0  0  0  0  0  0  0  0  0  0
    8.8030  -13.9898   19.0142 C   0  0  0  0  0  0  0  0  0  0  0  0
    8.9138  -15.3115   19.7320 C   0  0  2  0  0  0  0  0  0  0  0  0
    7.7852  -16.1619   19.5236 N   0  0  0  0  0  0  0  0  0  0  0  0
    9.2171  -15.1223   21.1834 C   0  0  0  0  0  0  0  0  0  0  0  0
   10.1966  -14.4321   21.5796 O   0  0  0  0  0  0  0  0  0  0  0  0
    8.3870  -15.7310   22.1830 N   0  0  0  0  0  0  0  0  0  0  0  0
    8.6060  -15.5471   23.5905 C   0  0  1  0  0  0  0  0  0  0  0  0
    7.3514  -15.6449   24.4318 C   0  0  0  0  0  0  0  0  0  0  0  0
    7.4985  -15.0974   25.7923 C   0  0  0  0  0  0  0  0  0  0  0  0
    7.9740  -15.7746   26.8944 C   0  0  0  0  0  0  0  0  0  0  0  0
    7.9810  -14.9108   27.9210 N   0  0  0  0  0  0  0  0  0  0  0  0
    7.5274  -13.7071   27.5177 C   0  0  0  0  0  0  0  0  0  0  0  0
    7.3207  -12.4945   28.1299 C   0  0  0  0  0  0  0  0  0  0  0  0
    6.8271  -11.3935   27.4817 C   0  0  0  0  0  0  0  0  0  0  0  0
    6.5238  -11.5024   26.1616 C   0  0  0  0  0  0  0  0  0  0  0  0
    6.7137  -12.6973   25.5034 C   0  0  0  0  0  0  0  0  0  0  0  0
    7.2174  -13.8118   26.1704 C   0  0  0  0  0  0  0  0  0  0  0  0
    9.5200  -16.5980   24.0928 C   0  0  0  0  0  0  0  0  0  0  0  0
    9.2517  -17.7926   23.8153 O   0  0  0  0  0  0  0  0  0  0  0  0
   10.6621  -16.3366   24.8570 N   0  0  0  0  0  0  0  0  0  0  0  0
   11.6073  -17.3615   25.3214 C   0  0  1  0  0  0  0  0  0  0  0  0
   13.0064  -16.8678   25.2593 C   0  0  0  0  0  0  0  0  0  0  0  0
   13.4907  -16.7825   23.8711 C   0  0  0  0  0  0  0  0  0  0  0  0
   13.0549  -17.4923   22.9316 O   0  0  0  0  0  0  0  0  0  0  0  0
   11.2127  -17.6344   26.7506 C   0  0  0  0  0  0  0  0  0  0  0  0
   10.1768  -16.8957   27.3638 O   0  0  0  0  0  0  0  0  0  0  0  0
   14.5019  -15.8672   23.5175 O   0  0  0  0  0  0  0  0  0  0  0  0
   11.7714  -18.5037   27.4376 O   0  0  0  0  0  0  0  0  0  0  0  0
  2  3  1  1
  2  1  1  0
  4  2  1  0
  5  4  1  0
  5  6  1  1
  7  5  1  0
  7  8  2  0
  9  7  1  0
 10  9  1  0
 10 11  1  1
 12 11  1  0
 13 12  2  0
 14 13  1  0
 15 14  1  0
 15 20  2  0
 16 15  1  0
 17 16  2  0
 17 18  1  0
 18 19  2  0
 19 20  1  0
 20 12  1  0
 21 10  1  0
 21 23  1  0
 22 21  2  0
 24 23  1  0
 24 28  1  0
 25 26  1  0
 24 25  1  1
 26 30  1  0
 27 26  2  0
 28 31  2  0
 28 29  1  0
M  END
$$$$
