LWD.pdb
     RDKit          3D

 31 32  0  0  1  0  0  0  0  0999 V2000
    8.2602  -14.3862   18.1584 C   0  0  0  0  0  0  0  0  0  0  0  0
    7.6088  -13.8573   19.4039 C   0  0  2  0  0  0  0  0  0  0  0  0
    7.2886  -12.3822   19.1249 C   0  0  0  0  0  0  0  0  0  0  0  0
    8.4749  -13.8827   20.6125 C   0  0  0  0  0  0  0  0  0  0  0  0
    8.8995  -15.2595   21.0585 C   0  0  2  0  0  0  0  0  0  0  0  0
    7.8521  -16.2270   20.9728 N   0  0  0  0  0  0  0  0  0  0  0  0
    9.5270  -15.2261   22.4147 C   0  0  0  0  0  0  0  0  0  0  0  0
   10.4375  -14.4046   22.7125 O   0  0  0  0  0  0  0  0  0  0  0  0
    9.1024  -16.1437   23.4328 N   0  0  0  0  0  0  0  0  0  0  0  0
    9.6855  -16.1705   24.7452 C   0  0  1  0  0  0  0  0  0  0  0  0
    8.7107  -16.5161   25.8505 C   0  0  0  0  0  0  0  0  0  0  0  0
    7.5747  -15.5836   25.9604 C   0  0  0  0  0  0  0  0  0  0  0  0
    6.2442  -15.8986   25.7867 C   0  0  0  0  0  0  0  0  0  0  0  0
    5.5373  -14.7800   26.0082 N   0  0  0  0  0  0  0  0  0  0  0  0
    6.3649  -13.7613   26.3162 C   0  0  0  0  0  0  0  0  0  0  0  0
    6.1944  -12.4324   26.6208 C   0  0  0  0  0  0  0  0  0  0  0  0
    7.2305  -11.5798   26.8956 C   0  0  0  0  0  0  0  0  0  0  0  0
    8.4971  -12.0708   26.8659 C   0  0  0  0  0  0  0  0  0  0  0  0
    8.7194  -13.3966   26.5657 C   0  0  0  0  0  0  0  0  0  0  0  0
    7.6594  -14.2570   26.2887 C   0  0  0  0  0  0  0  0  0  0  0  0
   10.7467  -17.2016   24.7967 C   0  0  0  0  0  0  0  0  0  0  0  0
   11.1184  -17.6072   25.9252 O   0  0  0  0  0  0  0  0  0  0  0  0
   11.3573  -17.7480   23.6630 N   0  0  0  0  0  0  0  0  0  0  0  0
   12.3938  -18.7892   23.6942 C   0  0  1  0  0  0  0  0  0  0  0  0
   12.4159  -19.5617   22.4262 C   0  0  0  0  0  0  0  0  0  0  0  0
   11.1431  -20.2664   22.1978 C   0  0  0  0  0  0  0  0  0  0  0  0
   10.2411  -20.3830   23.0633 O   0  0  0  0  0  0  0  0  0  0  0  0
   13.6904  -18.0409   23.8725 C   0  0  0  0  0  0  0  0  0  0  0  0
   14.9027  -18.7394   24.0661 O   0  0  0  0  0  0  0  0  0  0  0  0
   10.8659  -20.8645   20.9525 O   0  0  0  0  0  0  0  0  0  0  0  0
   13.7473  -16.8014   23.8575 O   0  0  0  0  0  0  0  0  0  0  0  0
  2  3  1  6
  2  1  1  0
  4  2  1  0
  5  4  1  0
  5  6  1  1
  7  5  1  0
  7  8  2  0
  9  7  1  0
 10  9  1  0
 10 11  1  1
 12 11  1  0
 13 12  2  0
 14 13  1  0
 15 14  1  0
 15 20  2  0
 16 15  1  0
 17 16  2  0
 17 18  1  0
 18 19  2  0
 19 20  1  0
 20 12  1  0
 21 10  1  0
 21 23  1  0
 22 21  2  0
 24 23  1  0
 24 28  1  0
 25 26  1  0
 24 25  1  6
 26 30  1  0
 27 26  2  0
 28 31  2  0
 28 29  1  0
M  END
$$$$
