LWD.pdb
     RDKit          3D

 31 32  0  0  1  0  0  0  0  0999 V2000
    8.0930  -13.9837   17.9335 C   0  0  0  0  0  0  0  0  0  0  0  0
    7.6125  -13.4452   19.2505 C   0  0  2  0  0  0  0  0  0  0  0  0
    7.4483  -11.9311   19.0583 C   0  0  0  0  0  0  0  0  0  0  0  0
    8.5648  -13.6295   20.3777 C   0  0  0  0  0  0  0  0  0  0  0  0
    8.7619  -15.0600   20.8127 C   0  0  2  0  0  0  0  0  0  0  0  0
    7.5533  -15.8214   20.8086 N   0  0  0  0  0  0  0  0  0  0  0  0
    9.4745  -15.1399   22.1243 C   0  0  0  0  0  0  0  0  0  0  0  0
   10.5374  -14.4984   22.3503 O   0  0  0  0  0  0  0  0  0  0  0  0
    8.9589  -15.9629   23.1805 N   0  0  0  0  0  0  0  0  0  0  0  0
    9.4935  -15.9397   24.5134 C   0  0  1  0  0  0  0  0  0  0  0  0
    8.4733  -16.2188   25.5963 C   0  0  0  0  0  0  0  0  0  0  0  0
    7.3705  -15.2423   25.6462 C   0  0  0  0  0  0  0  0  0  0  0  0
    6.0313  -15.5186   25.4744 C   0  0  0  0  0  0  0  0  0  0  0  0
    5.3629  -14.3658   25.6309 N   0  0  0  0  0  0  0  0  0  0  0  0
    6.2237  -13.3626   25.8956 C   0  0  0  0  0  0  0  0  0  0  0  0
    6.0982  -12.0146   26.1304 C   0  0  0  0  0  0  0  0  0  0  0  0
    7.1616  -11.1861   26.3726 C   0  0  0  0  0  0  0  0  0  0  0  0
    8.4101  -11.7225   26.3817 C   0  0  0  0  0  0  0  0  0  0  0  0
    8.5874  -13.0690   26.1519 C   0  0  0  0  0  0  0  0  0  0  0  0
    7.4998  -13.9044   25.9075 C   0  0  0  0  0  0  0  0  0  0  0  0
   10.5335  -16.9845   24.6502 C   0  0  0  0  0  0  0  0  0  0  0  0
   10.1835  -18.1832   24.5205 O   0  0  0  0  0  0  0  0  0  0  0  0
   11.8800  -16.7133   24.9150 N   0  0  0  0  0  0  0  0  0  0  0  0
   12.9258  -17.7366   25.0507 C   0  0  1  0  0  0  0  0  0  0  0  0
   14.2792  -17.1416   24.9110 C   0  0  0  0  0  0  0  0  0  0  0  0
   14.4764  -16.5489   23.5773 C   0  0  0  0  0  0  0  0  0  0  0  0
   14.0188  -17.0410   22.5167 O   0  0  0  0  0  0  0  0  0  0  0  0
   12.7425  -18.2974   26.4381 C   0  0  0  0  0  0  0  0  0  0  0  0
   11.7676  -17.7602   27.3075 O   0  0  0  0  0  0  0  0  0  0  0  0
   15.2138  -15.3585   23.4216 O   0  0  0  0  0  0  0  0  0  0  0  0
   13.4283  -19.2377   26.8684 O   0  0  0  0  0  0  0  0  0  0  0  0
  2  3  1  6
  2  1  1  0
  4  2  1  0
  5  4  1  0
  5  6  1  1
  7  5  1  0
  7  8  2  0
  9  7  1  0
 10  9  1  0
 10 11  1  1
 12 11  1  0
 13 12  2  0
 14 13  1  0
 15 14  1  0
 15 20  2  0
 16 15  1  0
 17 16  2  0
 17 18  1  0
 18 19  2  0
 19 20  1  0
 20 12  1  0
 21 10  1  0
 21 23  1  0
 22 21  2  0
 24 23  1  0
 24 28  1  0
 25 26  1  0
 24 25  1  1
 26 30  1  0
 27 26  2  0
 28 31  2  0
 28 29  1  0
M  END
$$$$
