LWD.pdb
     RDKit          3D

 31 32  0  0  1  0  0  0  0  0999 V2000
    8.2171  -14.1257   17.9851 C   0  0  0  0  0  0  0  0  0  0  0  0
    7.4858  -13.6645   19.2131 C   0  0  2  0  0  0  0  0  0  0  0  0
    7.1308  -12.1910   18.9705 C   0  0  0  0  0  0  0  0  0  0  0  0
    8.2896  -13.7075   20.4635 C   0  0  0  0  0  0  0  0  0  0  0  0
    8.7434  -15.0848   20.8776 C   0  0  2  0  0  0  0  0  0  0  0  0
    7.6806  -16.0381   20.9222 N   0  0  0  0  0  0  0  0  0  0  0  0
    9.5190  -15.0445   22.1548 C   0  0  0  0  0  0  0  0  0  0  0  0
   10.4794  -14.2452   22.3313 O   0  0  0  0  0  0  0  0  0  0  0  0
    9.1855  -15.9296   23.2338 N   0  0  0  0  0  0  0  0  0  0  0  0
    9.8482  -15.8844   24.5073 C   0  0  1  0  0  0  0  0  0  0  0  0
    8.9308  -16.0984   25.6922 C   0  0  0  0  0  0  0  0  0  0  0  0
    7.7265  -15.2488   25.6783 C   0  0  0  0  0  0  0  0  0  0  0  0
    6.4486  -15.6549   25.3595 C   0  0  0  0  0  0  0  0  0  0  0  0
    5.6443  -14.5907   25.5037 N   0  0  0  0  0  0  0  0  0  0  0  0
    6.3592  -13.5193   25.9019 C   0  0  0  0  0  0  0  0  0  0  0  0
    6.0629  -12.2085   26.1880 C   0  0  0  0  0  0  0  0  0  0  0  0
    6.9998  -11.2878   26.5758 C   0  0  0  0  0  0  0  0  0  0  0  0
    8.2937  -11.6884   26.6844 C   0  0  0  0  0  0  0  0  0  0  0  0
    8.6406  -12.9926   26.4085 C   0  0  0  0  0  0  0  0  0  0  0  0
    7.6808  -13.9227   26.0158 C   0  0  0  0  0  0  0  0  0  0  0  0
   10.8654  -16.9578   24.5767 C   0  0  0  0  0  0  0  0  0  0  0  0
   10.5320  -18.1091   24.2032 O   0  0  0  0  0  0  0  0  0  0  0  0
   12.1732  -16.7632   25.0335 N   0  0  0  0  0  0  0  0  0  0  0  0
   13.1852  -17.8231   25.1418 C   0  0  1  0  0  0  0  0  0  0  0  0
   14.5536  -17.2791   24.9513 C   0  0  0  0  0  0  0  0  0  0  0  0
   14.6705  -16.5352   23.6856 C   0  0  0  0  0  0  0  0  0  0  0  0
   14.2698  -16.9691   22.5777 O   0  0  0  0  0  0  0  0  0  0  0  0
   13.0294  -18.3672   26.5392 C   0  0  0  0  0  0  0  0  0  0  0  0
   13.7909  -19.4769   26.9675 O   0  0  0  0  0  0  0  0  0  0  0  0
   15.2579  -15.2548   23.6559 O   0  0  0  0  0  0  0  0  0  0  0  0
   12.2393  -17.8727   27.3583 O   0  0  0  0  0  0  0  0  0  0  0  0
  2  3  1  6
  2  1  1  0
  4  2  1  0
  5  4  1  0
  5  6  1  1
  7  5  1  0
  7  8  2  0
  9  7  1  0
 10  9  1  0
 10 11  1  1
 12 11  1  0
 13 12  2  0
 14 13  1  0
 15 14  1  0
 15 20  2  0
 16 15  1  0
 17 16  2  0
 17 18  1  0
 18 19  2  0
 19 20  1  0
 20 12  1  0
 21 10  1  0
 21 23  1  0
 22 21  2  0
 24 23  1  0
 24 28  1  0
 25 26  1  0
 24 25  1  1
 26 30  1  0
 27 26  2  0
 28 31  2  0
 28 29  1  0
M  END
$$$$
