LWD.pdb
     RDKit          3D

 31 32  0  0  1  0  0  0  0  0999 V2000
    6.7892  -13.0309   19.2357 C   0  0  0  0  0  0  0  0  0  0  0  0
    7.6663  -13.4371   20.3851 C   0  0  2  0  0  0  0  0  0  0  0  0
    8.5070  -12.2022   20.7379 C   0  0  0  0  0  0  0  0  0  0  0  0
    8.6259  -14.5296   20.0740 C   0  0  0  0  0  0  0  0  0  0  0  0
    8.5862  -15.6979   21.0268 C   0  0  2  0  0  0  0  0  0  0  0  0
    7.3063  -16.3289   21.0909 N   0  0  0  0  0  0  0  0  0  0  0  0
    9.0963  -15.3185   22.3796 C   0  0  0  0  0  0  0  0  0  0  0  0
    8.8823  -14.1809   22.8824 O   0  0  0  0  0  0  0  0  0  0  0  0
    9.8563  -16.2550   23.1568 N   0  0  0  0  0  0  0  0  0  0  0  0
    9.6514  -16.4401   24.5663 C   0  0  1  0  0  0  0  0  0  0  0  0
    8.1980  -16.5627   24.9713 C   0  0  0  0  0  0  0  0  0  0  0  0
    7.4669  -15.2830   24.9730 C   0  0  0  0  0  0  0  0  0  0  0  0
    6.5009  -14.8972   24.0689 C   0  0  0  0  0  0  0  0  0  0  0  0
    6.0646  -13.6852   24.4442 N   0  0  0  0  0  0  0  0  0  0  0  0
    6.7153  -13.2808   25.5535 C   0  0  0  0  0  0  0  0  0  0  0  0
    6.6779  -12.1572   26.3435 C   0  0  0  0  0  0  0  0  0  0  0  0
    7.4719  -11.9798   27.4453 C   0  0  0  0  0  0  0  0  0  0  0  0
    8.3455  -12.9659   27.7783 C   0  0  0  0  0  0  0  0  0  0  0  0
    8.4198  -14.1116   27.0174 C   0  0  0  0  0  0  0  0  0  0  0  0
    7.6076  -14.2841   25.8989 C   0  0  0  0  0  0  0  0  0  0  0  0
   10.3064  -17.6938   25.0035 C   0  0  0  0  0  0  0  0  0  0  0  0
   10.7106  -18.4862   24.1175 O   0  0  0  0  0  0  0  0  0  0  0  0
   10.5001  -18.0451   26.3436 N   0  0  0  0  0  0  0  0  0  0  0  0
   11.5326  -18.9754   26.8211 C   0  0  1  0  0  0  0  0  0  0  0  0
   12.8927  -18.4896   26.4759 C   0  0  0  0  0  0  0  0  0  0  0  0
   13.3132  -18.9549   25.1433 C   0  0  0  0  0  0  0  0  0  0  0  0
   13.2205  -20.1452   24.7548 O   0  0  0  0  0  0  0  0  0  0  0  0
   11.3566  -19.0155   28.3178 C   0  0  0  0  0  0  0  0  0  0  0  0
   10.3683  -18.2266   28.9468 O   0  0  0  0  0  0  0  0  0  0  0  0
   13.8585  -18.0547   24.2066 O   0  0  0  0  0  0  0  0  0  0  0  0
   12.0602  -19.7302   29.0485 O   0  0  0  0  0  0  0  0  0  0  0  0
  2  3  1  6
  2  1  1  0
  4  2  1  0
  5  4  1  0
  5  6  1  1
  7  5  1  0
  7  8  2  0
  9  7  1  0
 10  9  1  0
 10 11  1  6
 12 11  1  0
 13 12  2  0
 14 13  1  0
 15 14  1  0
 15 20  2  0
 16 15  1  0
 17 16  2  0
 17 18  1  0
 18 19  2  0
 19 20  1  0
 20 12  1  0
 21 10  1  0
 21 23  1  0
 22 21  2  0
 24 23  1  0
 24 28  1  0
 25 26  1  0
 24 25  1  1
 26 30  1  0
 27 26  2  0
 28 31  2  0
 28 29  1  0
M  END
$$$$
