LWD.pdb
     RDKit          3D

 31 32  0  0  1  0  0  0  0  0999 V2000
    7.0327  -13.8613   18.2823 C   0  0  0  0  0  0  0  0  0  0  0  0
    7.5739  -13.2992   19.5655 C   0  0  2  0  0  0  0  0  0  0  0  0
    7.7831  -11.7985   19.3196 C   0  0  0  0  0  0  0  0  0  0  0  0
    8.8931  -13.8507   19.9738 C   0  0  0  0  0  0  0  0  0  0  0  0
    8.8418  -15.2289   20.5842 C   0  0  2  0  0  0  0  0  0  0  0  0
    7.5142  -15.7414   20.7068 N   0  0  0  0  0  0  0  0  0  0  0  0
    9.5889  -15.2826   21.8778 C   0  0  0  0  0  0  0  0  0  0  0  0
   10.7277  -14.7570   22.0170 O   0  0  0  0  0  0  0  0  0  0  0  0
    9.0202  -15.9450   23.0165 N   0  0  0  0  0  0  0  0  0  0  0  0
    9.6822  -16.0051   24.2897 C   0  0  1  0  0  0  0  0  0  0  0  0
    8.7753  -16.3746   25.4440 C   0  0  0  0  0  0  0  0  0  0  0  0
    7.6374  -15.4564   25.6293 C   0  0  0  0  0  0  0  0  0  0  0  0
    6.3077  -15.7588   25.4302 C   0  0  0  0  0  0  0  0  0  0  0  0
    5.5984  -14.6634   25.7421 N   0  0  0  0  0  0  0  0  0  0  0  0
    6.4240  -13.6716   26.1324 C   0  0  0  0  0  0  0  0  0  0  0  0
    6.2509  -12.3724   26.5445 C   0  0  0  0  0  0  0  0  0  0  0  0
    7.2853  -11.5430   26.8883 C   0  0  0  0  0  0  0  0  0  0  0  0
    8.5529  -12.0275   26.8189 C   0  0  0  0  0  0  0  0  0  0  0  0
    8.7778  -13.3239   26.4116 C   0  0  0  0  0  0  0  0  0  0  0  0
    7.7195  -14.1609   26.0649 C   0  0  0  0  0  0  0  0  0  0  0  0
   10.7403  -17.0399   24.2515 C   0  0  0  0  0  0  0  0  0  0  0  0
   10.4900  -18.1152   23.6539 O   0  0  0  0  0  0  0  0  0  0  0  0
   11.9994  -16.8885   24.8418 N   0  0  0  0  0  0  0  0  0  0  0  0
   13.0853  -17.8748   24.7547 C   0  0  1  0  0  0  0  0  0  0  0  0
   14.3692  -17.2271   24.3840 C   0  0  0  0  0  0  0  0  0  0  0  0
   15.4729  -18.2008   24.3318 C   0  0  0  0  0  0  0  0  0  0  0  0
   15.3913  -19.3240   23.7767 O   0  0  0  0  0  0  0  0  0  0  0  0
   13.1806  -18.4701   26.1365 C   0  0  0  0  0  0  0  0  0  0  0  0
   13.8261  -19.7094   26.3423 O   0  0  0  0  0  0  0  0  0  0  0  0
   16.7181  -17.9082   24.9226 O   0  0  0  0  0  0  0  0  0  0  0  0
   12.7041  -17.9074   27.1345 O   0  0  0  0  0  0  0  0  0  0  0  0
  2  3  1  6
  2  1  1  0
  4  2  1  0
  5  4  1  0
  5  6  1  1
  7  5  1  0
  7  8  2  0
  9  7  1  0
 10  9  1  0
 10 11  1  1
 12 11  1  0
 13 12  2  0
 14 13  1  0
 15 14  1  0
 15 20  2  0
 16 15  1  0
 17 16  2  0
 17 18  1  0
 18 19  2  0
 19 20  1  0
 20 12  1  0
 21 10  1  0
 21 23  1  0
 22 21  2  0
 24 23  1  0
 24 28  1  0
 25 26  1  0
 24 25  1  1
 26 30  1  0
 27 26  2  0
 28 31  2  0
 28 29  1  0
M  END
$$$$
