LWD.pdb
     RDKit          3D

 31 32  0  0  1  0  0  0  0  0999 V2000
    7.7979  -14.5222   18.3448 C   0  0  0  0  0  0  0  0  0  0  0  0
    7.5499  -13.8289   19.6537 C   0  0  2  0  0  0  0  0  0  0  0  0
    7.3118  -12.3507   19.3154 C   0  0  0  0  0  0  0  0  0  0  0  0
    8.6957  -13.8687   20.6006 C   0  0  0  0  0  0  0  0  0  0  0  0
    9.0136  -15.2356   21.1531 C   0  0  2  0  0  0  0  0  0  0  0  0
    7.8729  -16.0922   21.2270 N   0  0  0  0  0  0  0  0  0  0  0  0
    9.7356  -15.1438   22.4587 C   0  0  0  0  0  0  0  0  0  0  0  0
   10.7159  -14.3678   22.6300 O   0  0  0  0  0  0  0  0  0  0  0  0
    9.3252  -15.9502   23.5724 N   0  0  0  0  0  0  0  0  0  0  0  0
   10.0088  -15.9341   24.8354 C   0  0  1  0  0  0  0  0  0  0  0  0
    9.1100  -16.1684   26.0307 C   0  0  0  0  0  0  0  0  0  0  0  0
    7.8744  -15.3651   26.0174 C   0  0  0  0  0  0  0  0  0  0  0  0
    6.6033  -15.8325   25.7618 C   0  0  0  0  0  0  0  0  0  0  0  0
    5.7641  -14.7927   25.8827 N   0  0  0  0  0  0  0  0  0  0  0  0
    6.4501  -13.6778   26.2050 C   0  0  0  0  0  0  0  0  0  0  0  0
    6.1134  -12.3663   26.4384 C   0  0  0  0  0  0  0  0  0  0  0  0
    7.0266  -11.3942   26.7500 C   0  0  0  0  0  0  0  0  0  0  0  0
    8.3376  -11.7416   26.8334 C   0  0  0  0  0  0  0  0  0  0  0  0
    8.7249  -13.0441   26.6082 C   0  0  0  0  0  0  0  0  0  0  0  0
    7.7891  -14.0266   26.2929 C   0  0  0  0  0  0  0  0  0  0  0  0
   11.0221  -17.0131   24.8661 C   0  0  0  0  0  0  0  0  0  0  0  0
   11.4467  -17.3895   25.9860 O   0  0  0  0  0  0  0  0  0  0  0  0
   11.5320  -17.6354   23.7218 N   0  0  0  0  0  0  0  0  0  0  0  0
   12.5506  -18.6946   23.7323 C   0  0  1  0  0  0  0  0  0  0  0  0
   12.3839  -19.6099   22.5749 C   0  0  0  0  0  0  0  0  0  0  0  0
   11.2192  -20.4948   22.7462 C   0  0  0  0  0  0  0  0  0  0  0  0
   10.4816  -20.4942   23.7623 O   0  0  0  0  0  0  0  0  0  0  0  0
   13.8677  -17.9673   23.6374 C   0  0  0  0  0  0  0  0  0  0  0  0
   14.1025  -17.0378   22.6001 O   0  0  0  0  0  0  0  0  0  0  0  0
   10.8633  -21.4172   21.7423 O   0  0  0  0  0  0  0  0  0  0  0  0
   14.7860  -18.1510   24.4515 O   0  0  0  0  0  0  0  0  0  0  0  0
  2  3  1  6
  2  1  1  0
  4  2  1  0
  5  4  1  0
  5  6  1  1
  7  5  1  0
  7  8  2  0
  9  7  1  0
 10  9  1  0
 10 11  1  1
 12 11  1  0
 13 12  2  0
 14 13  1  0
 15 14  1  0
 15 20  2  0
 16 15  1  0
 17 16  2  0
 17 18  1  0
 18 19  2  0
 19 20  1  0
 20 12  1  0
 21 10  1  0
 21 23  1  0
 22 21  2  0
 24 23  1  0
 24 28  1  0
 25 26  1  0
 24 25  1  6
 26 30  1  0
 27 26  2  0
 28 31  2  0
 28 29  1  0
M  END
$$$$
