LWD.pdb
     RDKit          3D

 31 32  0  0  1  0  0  0  0  0999 V2000
    8.6185  -13.9283   18.2304 C   0  0  0  0  0  0  0  0  0  0  0  0
    7.7673  -13.5490   19.4081 C   0  0  2  0  0  0  0  0  0  0  0  0
    7.4881  -12.0462   19.2667 C   0  0  0  0  0  0  0  0  0  0  0  0
    8.4223  -13.7368   20.7298 C   0  0  0  0  0  0  0  0  0  0  0  0
    8.7819  -15.1635   21.0614 C   0  0  2  0  0  0  0  0  0  0  0  0
    7.7034  -16.0778   20.8582 N   0  0  0  0  0  0  0  0  0  0  0  0
    9.3660  -15.2761   22.4327 C   0  0  0  0  0  0  0  0  0  0  0  0
   10.2874  -14.5128   22.8341 O   0  0  0  0  0  0  0  0  0  0  0  0
    8.8853  -16.2729   23.3459 N   0  0  0  0  0  0  0  0  0  0  0  0
    9.3772  -16.3956   24.6898 C   0  0  1  0  0  0  0  0  0  0  0  0
    8.2934  -16.5439   25.7362 C   0  0  0  0  0  0  0  0  0  0  0  0
    7.3353  -15.4245   25.7688 C   0  0  0  0  0  0  0  0  0  0  0  0
    6.0002  -15.4869   25.4325 C   0  0  0  0  0  0  0  0  0  0  0  0
    5.4808  -14.2661   25.6332 N   0  0  0  0  0  0  0  0  0  0  0  0
    6.4331  -13.4252   26.0844 C   0  0  0  0  0  0  0  0  0  0  0  0
    6.4653  -12.0979   26.4382 C   0  0  0  0  0  0  0  0  0  0  0  0
    7.5958  -11.4569   26.8707 C   0  0  0  0  0  0  0  0  0  0  0  0
    8.7502  -12.1687   26.9555 C   0  0  0  0  0  0  0  0  0  0  0  0
    8.7685  -13.5025   26.6121 C   0  0  0  0  0  0  0  0  0  0  0  0
    7.6136  -14.1466   26.1742 C   0  0  0  0  0  0  0  0  0  0  0  0
   10.2234  -17.6054   24.8010 C   0  0  0  0  0  0  0  0  0  0  0  0
    9.7984  -18.6695   24.2881 O   0  0  0  0  0  0  0  0  0  0  0  0
   11.4658  -17.6305   25.4433 N   0  0  0  0  0  0  0  0  0  0  0  0
   12.3235  -18.8185   25.5539 C   0  0  1  0  0  0  0  0  0  0  0  0
   13.7556  -18.4631   25.3864 C   0  0  0  0  0  0  0  0  0  0  0  0
   14.0461  -18.0127   24.0146 C   0  0  0  0  0  0  0  0  0  0  0  0
   13.4928  -18.4829   22.9904 O   0  0  0  0  0  0  0  0  0  0  0  0
   12.0760  -19.3480   26.9435 C   0  0  0  0  0  0  0  0  0  0  0  0
   11.2021  -18.6735   27.8246 O   0  0  0  0  0  0  0  0  0  0  0  0
   14.9922  -16.9960   23.7770 O   0  0  0  0  0  0  0  0  0  0  0  0
   12.6198  -20.3803   27.3657 O   0  0  0  0  0  0  0  0  0  0  0  0
  2  3  1  6
  2  1  1  0
  4  2  1  0
  5  4  1  0
  5  6  1  1
  7  5  1  0
  7  8  2  0
  9  7  1  0
 10  9  1  0
 10 11  1  1
 12 11  1  0
 13 12  2  0
 14 13  1  0
 15 14  1  0
 15 20  2  0
 16 15  1  0
 17 16  2  0
 17 18  1  0
 18 19  2  0
 19 20  1  0
 20 12  1  0
 21 10  1  0
 21 23  1  0
 22 21  2  0
 24 23  1  0
 24 28  1  0
 25 26  1  0
 24 25  1  1
 26 30  1  0
 27 26  2  0
 28 31  2  0
 28 29  1  0
M  END
$$$$
