LWD.pdb
     RDKit          3D

 31 32  0  0  1  0  0  0  0  0999 V2000
    7.9762  -14.5803   17.8831 C   0  0  0  0  0  0  0  0  0  0  0  0
    7.2119  -13.7636   18.8852 C   0  0  2  0  0  0  0  0  0  0  0  0
    7.1795  -12.3316   18.3334 C   0  0  0  0  0  0  0  0  0  0  0  0
    7.8429  -13.6867   20.2295 C   0  0  0  0  0  0  0  0  0  0  0  0
    7.8794  -14.9900   20.9876 C   0  0  2  0  0  0  0  0  0  0  0  0
    6.5953  -15.6020   21.1175 N   0  0  0  0  0  0  0  0  0  0  0  0
    8.5675  -14.8373   22.3058 C   0  0  0  0  0  0  0  0  0  0  0  0
    8.8024  -13.7057   22.8127 O   0  0  0  0  0  0  0  0  0  0  0  0
    8.9861  -15.9946   23.0435 N   0  0  0  0  0  0  0  0  0  0  0  0
    9.6525  -15.9063   24.3127 C   0  0  1  0  0  0  0  0  0  0  0  0
    8.7869  -16.2839   25.4958 C   0  0  0  0  0  0  0  0  0  0  0  0
    7.5915  -15.4372   25.6577 C   0  0  0  0  0  0  0  0  0  0  0  0
    6.2871  -15.8201   25.4314 C   0  0  0  0  0  0  0  0  0  0  0  0
    5.5059  -14.7705   25.7286 N   0  0  0  0  0  0  0  0  0  0  0  0
    6.2612  -13.7306   26.1356 C   0  0  0  0  0  0  0  0  0  0  0  0
    6.0005  -12.4448   26.5439 C   0  0  0  0  0  0  0  0  0  0  0  0
    6.9749  -11.5541   26.9086 C   0  0  0  0  0  0  0  0  0  0  0  0
    8.2710  -11.9600   26.8652 C   0  0  0  0  0  0  0  0  0  0  0  0
    8.5830  -13.2398   26.4628 C   0  0  0  0  0  0  0  0  0  0  0  0
    7.5853  -14.1396   26.0947 C   0  0  0  0  0  0  0  0  0  0  0  0
   10.8053  -16.8350   24.3346 C   0  0  0  0  0  0  0  0  0  0  0  0
   10.6145  -18.0182   23.9609 O   0  0  0  0  0  0  0  0  0  0  0  0
   12.0913  -16.4705   24.7469 N   0  0  0  0  0  0  0  0  0  0  0  0
   13.2338  -17.3913   24.8269 C   0  0  1  0  0  0  0  0  0  0  0  0
   14.5131  -16.6483   24.9551 C   0  0  0  0  0  0  0  0  0  0  0  0
   14.8929  -15.9992   23.6888 C   0  0  0  0  0  0  0  0  0  0  0  0
   14.2926  -16.1795   22.6009 O   0  0  0  0  0  0  0  0  0  0  0  0
   12.9822  -18.2153   26.0641 C   0  0  0  0  0  0  0  0  0  0  0  0
   12.0771  -17.7698   27.0526 O   0  0  0  0  0  0  0  0  0  0  0  0
   15.9866  -15.1127   23.6353 O   0  0  0  0  0  0  0  0  0  0  0  0
   13.5497  -19.3006   26.2638 O   0  0  0  0  0  0  0  0  0  0  0  0
  2  3  1  6
  2  1  1  0
  4  2  1  0
  5  4  1  0
  5  6  1  1
  7  5  1  0
  7  8  2  0
  9  7  1  0
 10  9  1  0
 10 11  1  1
 12 11  1  0
 13 12  2  0
 14 13  1  0
 15 14  1  0
 15 20  2  0
 16 15  1  0
 17 16  2  0
 17 18  1  0
 18 19  2  0
 19 20  1  0
 20 12  1  0
 21 10  1  0
 21 23  1  0
 22 21  2  0
 24 23  1  0
 24 28  1  0
 25 26  1  0
 24 25  1  1
 26 30  1  0
 27 26  2  0
 28 31  2  0
 28 29  1  0
M  END
$$$$
