LWD.pdb
     RDKit          3D

 31 32  0  0  1  0  0  0  0  0999 V2000
    8.6499  -13.7144   18.2433 C   0  0  0  0  0  0  0  0  0  0  0  0
    7.5258  -13.6342   19.2360 C   0  0  2  0  0  0  0  0  0  0  0  0
    6.9382  -12.2224   19.1026 C   0  0  0  0  0  0  0  0  0  0  0  0
    7.9427  -13.7884   20.6551 C   0  0  0  0  0  0  0  0  0  0  0  0
    8.6388  -15.0880   20.9730 C   0  0  2  0  0  0  0  0  0  0  0  0
    7.7731  -16.2221   20.9037 N   0  0  0  0  0  0  0  0  0  0  0  0
    9.3680  -15.0138   22.2757 C   0  0  0  0  0  0  0  0  0  0  0  0
   10.2276  -14.1210   22.5134 O   0  0  0  0  0  0  0  0  0  0  0  0
    9.1046  -15.9732   23.3097 N   0  0  0  0  0  0  0  0  0  0  0  0
    9.7654  -15.9408   24.5846 C   0  0  1  0  0  0  0  0  0  0  0  0
    8.8552  -16.2158   25.7625 C   0  0  0  0  0  0  0  0  0  0  0  0
    7.6659  -15.3469   25.8159 C   0  0  0  0  0  0  0  0  0  0  0  0
    6.3782  -15.7098   25.4850 C   0  0  0  0  0  0  0  0  0  0  0  0
    5.5940  -14.6438   25.7059 N   0  0  0  0  0  0  0  0  0  0  0  0
    6.3312  -13.6127   26.1649 C   0  0  0  0  0  0  0  0  0  0  0  0
    6.0606  -12.3183   26.5380 C   0  0  0  0  0  0  0  0  0  0  0  0
    7.0171  -11.4405   26.9747 C   0  0  0  0  0  0  0  0  0  0  0  0
    8.3047  -11.8691   27.0436 C   0  0  0  0  0  0  0  0  0  0  0  0
    8.6261  -13.1584   26.6806 C   0  0  0  0  0  0  0  0  0  0  0  0
    7.6466  -14.0448   26.2388 C   0  0  0  0  0  0  0  0  0  0  0  0
   10.8166  -16.9824   24.6263 C   0  0  0  0  0  0  0  0  0  0  0  0
   10.4897  -18.1598   24.3381 O   0  0  0  0  0  0  0  0  0  0  0  0
   12.1496  -16.7305   24.9675 N   0  0  0  0  0  0  0  0  0  0  0  0
   13.1933  -17.7599   25.0688 C   0  0  1  0  0  0  0  0  0  0  0  0
   14.5456  -17.1708   24.8973 C   0  0  0  0  0  0  0  0  0  0  0  0
   14.7266  -16.6115   23.5469 C   0  0  0  0  0  0  0  0  0  0  0  0
   14.1215  -17.0280   22.5287 O   0  0  0  0  0  0  0  0  0  0  0  0
   13.0439  -18.3291   26.4568 C   0  0  0  0  0  0  0  0  0  0  0  0
   12.0833  -17.8041   27.3493 O   0  0  0  0  0  0  0  0  0  0  0  0
   15.6187  -15.5439   23.3246 O   0  0  0  0  0  0  0  0  0  0  0  0
   13.7461  -19.2660   26.8677 O   0  0  0  0  0  0  0  0  0  0  0  0
  2  3  1  1
  2  1  1  0
  4  2  1  0
  5  4  1  0
  5  6  1  1
  7  5  1  0
  7  8  2  0
  9  7  1  0
 10  9  1  0
 10 11  1  1
 12 11  1  0
 13 12  2  0
 14 13  1  0
 15 14  1  0
 15 20  2  0
 16 15  1  0
 17 16  2  0
 17 18  1  0
 18 19  2  0
 19 20  1  0
 20 12  1  0
 21 10  1  0
 21 23  1  0
 22 21  2  0
 24 23  1  0
 24 28  1  0
 25 26  1  0
 24 25  1  1
 26 30  1  0
 27 26  2  0
 28 31  2  0
 28 29  1  0
M  END
$$$$
