LWD.pdb
     RDKit          3D

 31 32  0  0  1  0  0  0  0  0999 V2000
    7.9237  -13.7740   18.3409 C   0  0  0  0  0  0  0  0  0  0  0  0
    7.4716  -13.3479   19.7082 C   0  0  2  0  0  0  0  0  0  0  0  0
    7.3945  -11.8152   19.6740 C   0  0  0  0  0  0  0  0  0  0  0  0
    8.4089  -13.7018   20.8070 C   0  0  0  0  0  0  0  0  0  0  0  0
    8.5573  -15.1809   21.0611 C   0  0  2  0  0  0  0  0  0  0  0  0
    7.3203  -15.8916   20.9884 N   0  0  0  0  0  0  0  0  0  0  0  0
    9.2860  -15.4463   22.3390 C   0  0  0  0  0  0  0  0  0  0  0  0
   10.4076  -14.9261   22.5920 O   0  0  0  0  0  0  0  0  0  0  0  0
    8.7188  -16.3149   23.3302 N   0  0  0  0  0  0  0  0  0  0  0  0
    9.3417  -16.5512   24.6026 C   0  0  1  0  0  0  0  0  0  0  0  0
    8.3681  -16.7010   25.7520 C   0  0  0  0  0  0  0  0  0  0  0  0
    7.3412  -15.6453   25.8084 C   0  0  0  0  0  0  0  0  0  0  0  0
    6.0018  -15.7976   25.5218 C   0  0  0  0  0  0  0  0  0  0  0  0
    5.4120  -14.6104   25.7291 N   0  0  0  0  0  0  0  0  0  0  0  0
    6.3233  -13.7044   26.1368 C   0  0  0  0  0  0  0  0  0  0  0  0
    6.2821  -12.3736   26.4759 C   0  0  0  0  0  0  0  0  0  0  0  0
    7.3835  -11.6559   26.8604 C   0  0  0  0  0  0  0  0  0  0  0  0
    8.5839  -12.2907   26.9100 C   0  0  0  0  0  0  0  0  0  0  0  0
    8.6763  -13.6247   26.5795 C   0  0  0  0  0  0  0  0  0  0  0  0
    7.5506  -14.3472   26.1906 C   0  0  0  0  0  0  0  0  0  0  0  0
   10.1137  -17.8135   24.5515 C   0  0  0  0  0  0  0  0  0  0  0  0
    9.9231  -18.5803   23.5758 O   0  0  0  0  0  0  0  0  0  0  0  0
   11.0405  -18.1996   25.5254 N   0  0  0  0  0  0  0  0  0  0  0  0
   12.1935  -19.0765   25.2783 C   0  0  1  0  0  0  0  0  0  0  0  0
   13.0747  -18.5182   24.2216 C   0  0  0  0  0  0  0  0  0  0  0  0
   14.2634  -19.3604   24.0053 C   0  0  0  0  0  0  0  0  0  0  0  0
   14.2170  -20.5480   23.6006 O   0  0  0  0  0  0  0  0  0  0  0  0
   12.9272  -19.1330   26.5941 C   0  0  0  0  0  0  0  0  0  0  0  0
   13.9325  -20.1000   26.8156 O   0  0  0  0  0  0  0  0  0  0  0  0
   15.5560  -18.8560   24.2501 O   0  0  0  0  0  0  0  0  0  0  0  0
   12.6835  -18.3467   27.5227 O   0  0  0  0  0  0  0  0  0  0  0  0
  2  3  1  6
  2  1  1  0
  4  2  1  0
  5  4  1  0
  5  6  1  1
  7  5  1  0
  7  8  2  0
  9  7  1  0
 10  9  1  0
 10 11  1  1
 12 11  1  0
 13 12  2  0
 14 13  1  0
 15 14  1  0
 15 20  2  0
 16 15  1  0
 17 16  2  0
 17 18  1  0
 18 19  2  0
 19 20  1  0
 20 12  1  0
 21 10  1  0
 21 23  1  0
 22 21  2  0
 24 23  1  0
 24 28  1  0
 25 26  1  0
 24 25  1  6
 26 30  1  0
 27 26  2  0
 28 31  2  0
 28 29  1  0
M  END
$$$$
