LWD.pdb
     RDKit          3D

 31 32  0  0  1  0  0  0  0  0999 V2000
    7.6491  -14.2896   17.7959 C   0  0  0  0  0  0  0  0  0  0  0  0
    7.1656  -13.6946   19.0873 C   0  0  2  0  0  0  0  0  0  0  0  0
    6.9161  -12.2066   18.8049 C   0  0  0  0  0  0  0  0  0  0  0  0
    8.1479  -13.7565   20.2020 C   0  0  0  0  0  0  0  0  0  0  0  0
    8.4777  -15.1488   20.6789 C   0  0  2  0  0  0  0  0  0  0  0  0
    7.3295  -15.9904   20.7968 N   0  0  0  0  0  0  0  0  0  0  0  0
    9.2871  -15.1196   21.9352 C   0  0  0  0  0  0  0  0  0  0  0  0
   10.3029  -14.3815   22.0617 O   0  0  0  0  0  0  0  0  0  0  0  0
    8.9234  -15.9447   23.0513 N   0  0  0  0  0  0  0  0  0  0  0  0
    9.6587  -15.9489   24.2851 C   0  0  1  0  0  0  0  0  0  0  0  0
    8.8469  -16.3742   25.4899 C   0  0  0  0  0  0  0  0  0  0  0  0
    7.6838  -15.5113   25.7632 C   0  0  0  0  0  0  0  0  0  0  0  0
    6.3587  -15.8698   25.6408 C   0  0  0  0  0  0  0  0  0  0  0  0
    5.6231  -14.8128   26.0173 N   0  0  0  0  0  0  0  0  0  0  0  0
    6.4272  -13.7916   26.3751 C   0  0  0  0  0  0  0  0  0  0  0  0
    6.2234  -12.5086   26.8225 C   0  0  0  0  0  0  0  0  0  0  0  0
    7.2399  -11.6394   27.1178 C   0  0  0  0  0  0  0  0  0  0  0  0
    8.5207  -12.0651   26.9607 C   0  0  0  0  0  0  0  0  0  0  0  0
    8.7763  -13.3431   26.5150 C   0  0  0  0  0  0  0  0  0  0  0  0
    7.7361  -14.2209   26.2181 C   0  0  0  0  0  0  0  0  0  0  0  0
   10.7841  -16.9062   24.1898 C   0  0  0  0  0  0  0  0  0  0  0  0
   10.5363  -18.0662   23.7786 O   0  0  0  0  0  0  0  0  0  0  0  0
   12.1040  -16.5930   24.5311 N   0  0  0  0  0  0  0  0  0  0  0  0
   13.2439  -17.5082   24.3804 C   0  0  1  0  0  0  0  0  0  0  0  0
   14.4991  -16.7612   24.1129 C   0  0  0  0  0  0  0  0  0  0  0  0
   15.6695  -17.6551   24.0965 C   0  0  0  0  0  0  0  0  0  0  0  0
   15.6595  -18.8145   23.6149 O   0  0  0  0  0  0  0  0  0  0  0  0
   13.3378  -18.2316   25.6998 C   0  0  0  0  0  0  0  0  0  0  0  0
   13.9853  -19.4837   25.7885 O   0  0  0  0  0  0  0  0  0  0  0  0
   16.9008  -17.2372   24.6392 O   0  0  0  0  0  0  0  0  0  0  0  0
   12.8585  -17.7667   26.7457 O   0  0  0  0  0  0  0  0  0  0  0  0
  2  3  1  6
  2  1  1  0
  4  2  1  0
  5  4  1  0
  5  6  1  1
  7  5  1  0
  7  8  2  0
  9  7  1  0
 10  9  1  0
 10 11  1  1
 12 11  1  0
 13 12  2  0
 14 13  1  0
 15 14  1  0
 15 20  2  0
 16 15  1  0
 17 16  2  0
 17 18  1  0
 18 19  2  0
 19 20  1  0
 20 12  1  0
 21 10  1  0
 21 23  1  0
 22 21  2  0
 24 23  1  0
 24 28  1  0
 25 26  1  0
 24 25  1  1
 26 30  1  0
 27 26  2  0
 28 31  2  0
 28 29  1  0
M  END
$$$$
