LWD.pdb
     RDKit          3D

 31 32  0  0  1  0  0  0  0  0999 V2000
    6.5667  -13.5176   17.6713 C   0  0  0  0  0  0  0  0  0  0  0  0
    7.4275  -13.3421   18.8893 C   0  0  2  0  0  0  0  0  0  0  0  0
    7.6668  -11.8323   19.0290 C   0  0  0  0  0  0  0  0  0  0  0  0
    8.7685  -13.9778   18.7949 C   0  0  0  0  0  0  0  0  0  0  0  0
    8.8714  -15.3378   19.4387 C   0  0  2  0  0  0  0  0  0  0  0  0
    7.7648  -16.1890   19.1366 N   0  0  0  0  0  0  0  0  0  0  0  0
    9.1150  -15.2299   20.9096 C   0  0  0  0  0  0  0  0  0  0  0  0
   10.1495  -14.6810   21.3797 O   0  0  0  0  0  0  0  0  0  0  0  0
    8.1611  -15.7568   21.8430 N   0  0  0  0  0  0  0  0  0  0  0  0
    8.3315  -15.6576   23.2657 C   0  0  1  0  0  0  0  0  0  0  0  0
    7.0510  -15.8185   24.0569 C   0  0  0  0  0  0  0  0  0  0  0  0
    7.1694  -15.4292   25.4734 C   0  0  0  0  0  0  0  0  0  0  0  0
    7.3476  -16.2842   26.5395 C   0  0  0  0  0  0  0  0  0  0  0  0
    7.4418  -15.5294   27.6448 N   0  0  0  0  0  0  0  0  0  0  0  0
    7.3299  -14.2243   27.3263 C   0  0  0  0  0  0  0  0  0  0  0  0
    7.3455  -13.0485   28.0371 C   0  0  0  0  0  0  0  0  0  0  0  0
    7.1983  -11.8142   27.4620 C   0  0  0  0  0  0  0  0  0  0  0  0
    7.0270  -11.7444   26.1158 C   0  0  0  0  0  0  0  0  0  0  0  0
    7.0046  -12.8955   25.3597 C   0  0  0  0  0  0  0  0  0  0  0  0
    7.1562  -14.1467   25.9529 C   0  0  0  0  0  0  0  0  0  0  0  0
    9.2402  -16.7288   23.7334 C   0  0  0  0  0  0  0  0  0  0  0  0
    9.1181  -17.8687   23.2217 O   0  0  0  0  0  0  0  0  0  0  0  0
   10.2242  -16.5440   24.7102 N   0  0  0  0  0  0  0  0  0  0  0  0
   11.3903  -17.4189   24.8953 C   0  0  1  0  0  0  0  0  0  0  0  0
   12.6233  -16.7894   24.3582 C   0  0  0  0  0  0  0  0  0  0  0  0
   13.8122  -17.6204   24.6130 C   0  0  0  0  0  0  0  0  0  0  0  0
   13.8095  -18.8756   24.5844 O   0  0  0  0  0  0  0  0  0  0  0  0
   11.5050  -17.6022   26.3874 C   0  0  0  0  0  0  0  0  0  0  0  0
   11.8440  -16.5139   27.2213 O   0  0  0  0  0  0  0  0  0  0  0  0
   15.0543  -17.0259   24.9112 O   0  0  0  0  0  0  0  0  0  0  0  0
   11.3105  -18.6976   26.9370 O   0  0  0  0  0  0  0  0  0  0  0  0
  2  3  1  6
  2  1  1  0
  4  2  1  0
  5  4  1  0
  5  6  1  1
  7  5  1  0
  7  8  2  0
  9  7  1  0
 10  9  1  0
 10 11  1  1
 12 11  1  0
 13 12  2  0
 14 13  1  0
 15 14  1  0
 15 20  2  0
 16 15  1  0
 17 16  2  0
 17 18  1  0
 18 19  2  0
 19 20  1  0
 20 12  1  0
 21 10  1  0
 21 23  1  0
 22 21  2  0
 24 23  1  0
 24 28  1  0
 25 26  1  0
 24 25  1  1
 26 30  1  0
 27 26  2  0
 28 31  2  0
 28 29  1  0
M  END
$$$$
