LWD.pdb
     RDKit          3D

 31 32  0  0  1  0  0  0  0  0999 V2000
    6.8105  -13.7697   19.6130 C   0  0  0  0  0  0  0  0  0  0  0  0
    8.1198  -13.4651   20.2826 C   0  0  2  0  0  0  0  0  0  0  0  0
    8.5840  -12.1151   19.7184 C   0  0  0  0  0  0  0  0  0  0  0  0
    9.2034  -14.4416   19.9934 C   0  0  0  0  0  0  0  0  0  0  0  0
    9.0921  -15.7494   20.7362 C   0  0  2  0  0  0  0  0  0  0  0  0
    7.7417  -16.1685   20.9393 N   0  0  0  0  0  0  0  0  0  0  0  0
    9.8722  -15.7229   22.0110 C   0  0  0  0  0  0  0  0  0  0  0  0
   11.0240  -15.2120   22.0821 O   0  0  0  0  0  0  0  0  0  0  0  0
    9.3217  -16.2874   23.2098 N   0  0  0  0  0  0  0  0  0  0  0  0
   10.0187  -16.2722   24.4655 C   0  0  1  0  0  0  0  0  0  0  0  0
    9.7993  -15.0164   25.2818 C   0  0  0  0  0  0  0  0  0  0  0  0
    8.3801  -14.6894   25.5080 C   0  0  0  0  0  0  0  0  0  0  0  0
    7.3181  -15.5616   25.4036 C   0  0  0  0  0  0  0  0  0  0  0  0
    6.2083  -14.8787   25.7230 N   0  0  0  0  0  0  0  0  0  0  0  0
    6.5199  -13.6028   26.0270 C   0  0  0  0  0  0  0  0  0  0  0  0
    5.8024  -12.4939   26.4056 C   0  0  0  0  0  0  0  0  0  0  0  0
    6.3711  -11.2731   26.6554 C   0  0  0  0  0  0  0  0  0  0  0  0
    7.7176  -11.1478   26.5222 C   0  0  0  0  0  0  0  0  0  0  0  0
    8.4803  -12.2310   26.1450 C   0  0  0  0  0  0  0  0  0  0  0  0
    7.8935  -13.4692   25.8940 C   0  0  0  0  0  0  0  0  0  0  0  0
    9.5504  -17.3961   25.3077 C   0  0  0  0  0  0  0  0  0  0  0  0
    8.4859  -17.9744   24.9780 O   0  0  0  0  0  0  0  0  0  0  0  0
   10.2241  -17.8493   26.4468 N   0  0  0  0  0  0  0  0  0  0  0  0
   10.7734  -19.2027   26.6076 C   0  0  1  0  0  0  0  0  0  0  0  0
   11.7758  -19.5030   25.5540 C   0  0  0  0  0  0  0  0  0  0  0  0
   12.2370  -20.8998   25.6260 C   0  0  0  0  0  0  0  0  0  0  0  0
   12.8033  -21.4004   26.6286 O   0  0  0  0  0  0  0  0  0  0  0  0
   11.4287  -19.1969   27.9653 C   0  0  0  0  0  0  0  0  0  0  0  0
   11.4526  -20.3664   28.7569 O   0  0  0  0  0  0  0  0  0  0  0  0
   12.0582  -21.7731   24.5349 O   0  0  0  0  0  0  0  0  0  0  0  0
   11.9651  -18.1825   28.4376 O   0  0  0  0  0  0  0  0  0  0  0  0
  2  3  1  6
  2  1  1  0
  4  2  1  0
  5  4  1  0
  5  6  1  1
  7  5  1  0
  7  8  2  0
  9  7  1  0
 10  9  1  0
 10 11  1  1
 12 11  1  0
 13 12  2  0
 14 13  1  0
 15 14  1  0
 15 20  2  0
 16 15  1  0
 17 16  2  0
 17 18  1  0
 18 19  2  0
 19 20  1  0
 20 12  1  0
 21 10  1  0
 21 23  1  0
 22 21  2  0
 24 23  1  0
 24 28  1  0
 25 26  1  0
 24 25  1  6
 26 30  1  0
 27 26  2  0
 28 31  2  0
 28 29  1  0
M  END
$$$$
