LWD.pdb
     RDKit          3D

 31 32  0  0  1  0  0  0  0  0999 V2000
    7.8960  -14.2040   18.5270 C   0  0  0  0  0  0  0  0  0  0  0  0
    7.7098  -13.5087   19.8450 C   0  0  2  0  0  0  0  0  0  0  0  0
    7.6828  -12.0056   19.5347 C   0  0  0  0  0  0  0  0  0  0  0  0
    8.8144  -13.7219   20.8174 C   0  0  0  0  0  0  0  0  0  0  0  0
    8.9407  -15.1336   21.3329 C   0  0  2  0  0  0  0  0  0  0  0  0
    7.6879  -15.8138   21.4245 N   0  0  0  0  0  0  0  0  0  0  0  0
    9.7035  -15.1810   22.6176 C   0  0  0  0  0  0  0  0  0  0  0  0
   10.7628  -14.5181   22.7935 O   0  0  0  0  0  0  0  0  0  0  0  0
    9.2425  -15.9960   23.7048 N   0  0  0  0  0  0  0  0  0  0  0  0
    9.8974  -16.0273   24.9827 C   0  0  1  0  0  0  0  0  0  0  0  0
    8.9541  -16.1463   26.1607 C   0  0  0  0  0  0  0  0  0  0  0  0
    7.7516  -15.3010   26.0527 C   0  0  0  0  0  0  0  0  0  0  0  0
    6.4814  -15.7309   25.7346 C   0  0  0  0  0  0  0  0  0  0  0  0
    5.6751  -14.6594   25.7778 N   0  0  0  0  0  0  0  0  0  0  0  0
    6.3814  -13.5604   26.1107 C   0  0  0  0  0  0  0  0  0  0  0  0
    6.0798  -12.2318   26.2889 C   0  0  0  0  0  0  0  0  0  0  0  0
    7.0081  -11.2836   26.6283 C   0  0  0  0  0  0  0  0  0  0  0  0
    8.2985  -11.6741   26.7986 C   0  0  0  0  0  0  0  0  0  0  0  0
    8.6504  -12.9952   26.6314 C   0  0  0  0  0  0  0  0  0  0  0  0
    7.6993  -13.9530   26.2872 C   0  0  0  0  0  0  0  0  0  0  0  0
   10.7931  -17.2040   25.0537 C   0  0  0  0  0  0  0  0  0  0  0  0
   11.2748  -17.5099   26.1720 O   0  0  0  0  0  0  0  0  0  0  0  0
   11.1325  -17.9921   23.9490 N   0  0  0  0  0  0  0  0  0  0  0  0
   12.0657  -19.1266   23.9891 C   0  0  1  0  0  0  0  0  0  0  0  0
   11.9857  -19.9307   22.7433 C   0  0  0  0  0  0  0  0  0  0  0  0
   12.9623  -21.0331   22.7453 C   0  0  0  0  0  0  0  0  0  0  0  0
   12.6482  -22.2482   22.7111 O   0  0  0  0  0  0  0  0  0  0  0  0
   13.4313  -18.5014   24.1204 C   0  0  0  0  0  0  0  0  0  0  0  0
   13.7468  -17.3118   23.4274 O   0  0  0  0  0  0  0  0  0  0  0  0
   14.3455  -20.7679   22.7864 O   0  0  0  0  0  0  0  0  0  0  0  0
   14.3210  -18.9963   24.8297 O   0  0  0  0  0  0  0  0  0  0  0  0
  2  3  1  6
  2  1  1  0
  4  2  1  0
  5  4  1  0
  5  6  1  1
  7  5  1  0
  7  8  2  0
  9  7  1  0
 10  9  1  0
 10 11  1  1
 12 11  1  0
 13 12  2  0
 14 13  1  0
 15 14  1  0
 15 20  2  0
 16 15  1  0
 17 16  2  0
 17 18  1  0
 18 19  2  0
 19 20  1  0
 20 12  1  0
 21 10  1  0
 21 23  1  0
 22 21  2  0
 24 23  1  0
 24 28  1  0
 25 26  1  0
 24 25  1  6
 26 30  1  0
 27 26  2  0
 28 31  2  0
 28 29  1  0
M  END
$$$$
