PCC.pdb
     RDKit          3D

 20 20  0  0  1  0  0  0  0  0999 V2000
   20.8295  -19.0970  -15.1826 N   0  0  0  0  0  0  0  0  0  0  0  0
   21.3489  -18.1166  -16.0980 C   0  0  0  0  0  0  0  0  0  0  0  0
   21.9060  -19.0388  -17.1938 C   0  0  0  0  0  0  0  0  0  0  0  0
   22.6085  -20.0895  -16.3623 C   0  0  0  0  0  0  0  0  0  0  0  0
   21.8737  -20.0538  -15.0256 C   0  0  1  0  0  0  0  0  0  0  0  0
   22.7818  -19.6662  -13.9304 C   0  0  0  0  0  0  0  0  0  0  0  0
   23.2786  -18.4900  -14.0429 O   0  0  0  0  0  0  0  0  0  0  0  0
   23.0900  -20.4963  -12.8482 N   0  0  0  0  0  0  0  0  0  0  0  0
   24.0779  -20.0269  -11.8644 C   0  0  1  0  0  0  0  0  0  0  0  0
   23.8694  -20.7852  -10.5551 C   0  0  0  0  0  0  0  0  0  0  0  0
   22.2652  -20.2806   -9.8868 S   0  0  0  0  0  0  0  0  0  0  0  0
   25.4556  -20.3824  -12.3272 C   0  0  0  0  0  0  0  0  0  0  0  0
   25.6168  -21.3613  -13.0886 O   0  0  0  0  0  0  0  0  0  0  0  0
   26.5994  -19.6510  -11.9368 N   0  0  0  0  0  0  0  0  0  0  0  0
   27.9498  -20.0455  -12.1711 C   0  0  1  0  0  0  0  0  0  0  0  0
   28.6779  -20.2654  -10.8378 C   0  0  0  0  0  0  0  0  0  0  0  0
   30.3889  -20.7461  -11.0793 S   0  0  0  0  0  0  0  0  0  0  0  0
   28.1057  -21.2561  -12.9680 C   0  0  0  0  0  0  0  0  0  0  0  0
   28.8085  -21.2358  -14.1537 O   0  0  0  0  0  0  0  0  0  0  0  0
   27.6082  -22.3401  -12.5987 O   0  0  0  0  0  0  0  0  0  0  0  0
  1  2  1  0
  3  2  1  0
  4  5  1  0
  4  3  1  0
  5  1  1  0
  6  8  1  0
  5  6  1  1
  7  6  2  0
  9 10  1  1
  9  8  1  0
  9 12  1  0
 11 10  1  0
 12 14  1  0
 13 12  2  0
 14 15  1  0
 15 16  1  1
 16 17  1  0
 18 15  1  0
 18 19  1  0
 20 18  2  0
M  END
$$$$
