PCC.pdb
     RDKit          3D

 20 20  0  0  1  0  0  0  0  0999 V2000
   24.6171  -10.9036  -17.1907 N   0  0  0  0  0  0  0  0  0  0  0  0
   25.3024  -11.1423  -15.9488 C   0  0  0  0  0  0  0  0  0  0  0  0
   24.8085  -12.5636  -15.6368 C   0  0  0  0  0  0  0  0  0  0  0  0
   23.3333  -12.4350  -15.9465 C   0  0  0  0  0  0  0  0  0  0  0  0
   23.2665  -11.2914  -16.9543 C   0  0  1  0  0  0  0  0  0  0  0  0
   22.4801  -10.1620  -16.4248 C   0  0  0  0  0  0  0  0  0  0  0  0
   21.2218  -10.3878  -16.3319 O   0  0  0  0  0  0  0  0  0  0  0  0
   23.0391   -8.9368  -16.0482 N   0  0  0  0  0  0  0  0  0  0  0  0
   22.1382   -7.8652  -15.5965 C   0  0  1  0  0  0  0  0  0  0  0  0
   22.8730   -7.0010  -14.5737 C   0  0  0  0  0  0  0  0  0  0  0  0
   21.6798   -5.8115  -13.9132 S   0  0  0  0  0  0  0  0  0  0  0  0
   21.8209   -6.9588  -16.7440 C   0  0  0  0  0  0  0  0  0  0  0  0
   22.7267   -6.6359  -17.5434 O   0  0  0  0  0  0  0  0  0  0  0  0
   20.5246   -6.4439  -16.9681 N   0  0  0  0  0  0  0  0  0  0  0  0
   20.1558   -5.5766  -18.0385 C   0  0  1  0  0  0  0  0  0  0  0  0
   18.7113   -5.8569  -18.4757 C   0  0  0  0  0  0  0  0  0  0  0  0
   18.4550   -7.5868  -18.8742 S   0  0  0  0  0  0  0  0  0  0  0  0
   20.2620   -4.1538  -17.7396 C   0  0  0  0  0  0  0  0  0  0  0  0
   20.0467   -3.2081  -18.7190 O   0  0  0  0  0  0  0  0  0  0  0  0
   20.5499   -3.7555  -16.5917 O   0  0  0  0  0  0  0  0  0  0  0  0
  1  2  1  0
  3  2  1  0
  4  5  1  0
  4  3  1  0
  5  1  1  0
  6  8  1  0
  5  6  1  1
  7  6  2  0
  9 10  1  1
  9  8  1  0
  9 12  1  0
 11 10  1  0
 12 14  1  0
 13 12  2  0
 14 15  1  0
 15 16  1  1
 16 17  1  0
 18 15  1  0
 18 19  1  0
 20 18  2  0
M  END
$$$$
