PCC.pdb
     RDKit          3D

 20 20  0  0  1  0  0  0  0  0999 V2000
   25.2278  -18.8920  -17.8104 N   0  0  0  0  0  0  0  0  0  0  0  0
   23.8471  -19.2695  -17.6688 C   0  0  0  0  0  0  0  0  0  0  0  0
   23.2697  -17.9689  -17.0888 C   0  0  0  0  0  0  0  0  0  0  0  0
   24.3144  -17.6226  -16.0508 C   0  0  0  0  0  0  0  0  0  0  0  0
   25.5830  -18.2959  -16.5659 C   0  0  1  0  0  0  0  0  0  0  0  0
   26.0681  -19.3132  -15.6150 C   0  0  0  0  0  0  0  0  0  0  0  0
   25.4078  -20.4118  -15.6293 O   0  0  0  0  0  0  0  0  0  0  0  0
   27.1565  -19.1183  -14.7591 N   0  0  0  0  0  0  0  0  0  0  0  0
   27.4863  -20.1774  -13.7928 C   0  0  1  0  0  0  0  0  0  0  0  0
   28.9033  -19.9464  -13.2717 C   0  0  0  0  0  0  0  0  0  0  0  0
   29.3255  -21.3505  -12.2110 S   0  0  0  0  0  0  0  0  0  0  0  0
   26.5895  -20.0663  -12.6003 C   0  0  0  0  0  0  0  0  0  0  0  0
   26.0944  -18.9572  -12.3024 O   0  0  0  0  0  0  0  0  0  0  0  0
   26.2722  -21.1745  -11.7838 N   0  0  0  0  0  0  0  0  0  0  0  0
   25.4678  -21.1280  -10.6070 C   0  0  1  0  0  0  0  0  0  0  0  0
   25.9796  -20.0368   -9.6564 C   0  0  0  0  0  0  0  0  0  0  0  0
   26.1307  -20.6322   -7.9713 S   0  0  0  0  0  0  0  0  0  0  0  0
   24.0501  -20.8839  -10.8423 C   0  0  0  0  0  0  0  0  0  0  0  0
   23.1275  -21.0484   -9.8314 O   0  0  0  0  0  0  0  0  0  0  0  0
   23.6353  -20.5205  -11.9625 O   0  0  0  0  0  0  0  0  0  0  0  0
  1  2  1  0
  3  2  1  0
  4  5  1  0
  4  3  1  0
  5  1  1  0
  6  8  1  0
  5  6  1  1
  7  6  2  0
  9 10  1  1
  9  8  1  0
  9 12  1  0
 11 10  1  0
 12 14  1  0
 13 12  2  0
 14 15  1  0
 15 16  1  1
 16 17  1  0
 18 15  1  0
 18 19  1  0
 20 18  2  0
M  END
$$$$
