PCC.pdb
     RDKit          3D

 20 20  0  0  1  0  0  0  0  0999 V2000
   28.5407  -20.2629  -15.1563 N   0  0  0  0  0  0  0  0  0  0  0  0
   27.7348  -19.9049  -16.2927 C   0  0  0  0  0  0  0  0  0  0  0  0
   27.6877  -18.3786  -16.1202 C   0  0  0  0  0  0  0  0  0  0  0  0
   27.4177  -18.2604  -14.6363 C   0  0  0  0  0  0  0  0  0  0  0  0
   27.9717  -19.5583  -14.0563 C   0  0  1  0  0  0  0  0  0  0  0  0
   26.9059  -20.3524  -13.4177 C   0  0  0  0  0  0  0  0  0  0  0  0
   26.4977  -21.3497  -14.1118 O   0  0  0  0  0  0  0  0  0  0  0  0
   26.3695  -20.0609  -12.1597 N   0  0  0  0  0  0  0  0  0  0  0  0
   25.3027  -20.9274  -11.6352 C   0  0  1  0  0  0  0  0  0  0  0  0
   25.1208  -20.6401  -10.1461 C   0  0  0  0  0  0  0  0  0  0  0  0
   26.6768  -21.0554   -9.3208 S   0  0  0  0  0  0  0  0  0  0  0  0
   24.0017  -20.5697  -12.2818 C   0  0  0  0  0  0  0  0  0  0  0  0
   23.7605  -19.3750  -12.5624 O   0  0  0  0  0  0  0  0  0  0  0  0
   23.0190  -21.5352  -12.5943 N   0  0  0  0  0  0  0  0  0  0  0  0
   21.7793  -21.2684  -13.2471 C   0  0  1  0  0  0  0  0  0  0  0  0
   21.4386  -22.4023  -14.2240 C   0  0  0  0  0  0  0  0  0  0  0  0
   19.8369  -22.1643  -14.9953 S   0  0  0  0  0  0  0  0  0  0  0  0
   20.6408  -21.0938  -12.3537 C   0  0  0  0  0  0  0  0  0  0  0  0
   19.5394  -20.3641  -12.7471 O   0  0  0  0  0  0  0  0  0  0  0  0
   20.6332  -21.5991  -11.2119 O   0  0  0  0  0  0  0  0  0  0  0  0
  1  2  1  0
  3  2  1  0
  4  5  1  0
  4  3  1  0
  5  1  1  0
  6  8  1  0
  5  6  1  6
  7  6  2  0
  9 10  1  1
  9  8  1  0
  9 12  1  0
 11 10  1  0
 12 14  1  0
 13 12  2  0
 14 15  1  0
 15 16  1  6
 16 17  1  0
 18 15  1  0
 18 19  1  0
 20 18  2  0
M  END
$$$$
