PCC.pdb
     RDKit          3D

 20 20  0  0  1  0  0  0  0  0999 V2000
   18.2049  -10.4740  -15.9394 N   0  0  0  0  0  0  0  0  0  0  0  0
   18.6445  -10.2530  -17.2910 C   0  0  0  0  0  0  0  0  0  0  0  0
   19.3908  -11.5710  -17.5510 C   0  0  0  0  0  0  0  0  0  0  0  0
   20.1742  -11.7218  -16.2656 C   0  0  0  0  0  0  0  0  0  0  0  0
   19.3568  -10.9397  -15.2418 C   0  0  1  0  0  0  0  0  0  0  0  0
   20.1316   -9.8111  -14.6936 C   0  0  0  0  0  0  0  0  0  0  0  0
   21.2213  -10.1486  -14.1092 O   0  0  0  0  0  0  0  0  0  0  0  0
   19.7308   -8.4751  -14.7917 N   0  0  0  0  0  0  0  0  0  0  0  0
   20.5887   -7.4407  -14.1933 C   0  0  1  0  0  0  0  0  0  0  0  0
   21.4396   -6.8082  -15.2928 C   0  0  0  0  0  0  0  0  0  0  0  0
   22.5429   -5.6114  -14.5024 S   0  0  0  0  0  0  0  0  0  0  0  0
   19.7386   -6.3363  -13.6488 C   0  0  0  0  0  0  0  0  0  0  0  0
   18.7834   -5.9011  -14.3287 O   0  0  0  0  0  0  0  0  0  0  0  0
   19.9700   -5.7547  -12.3825 N   0  0  0  0  0  0  0  0  0  0  0  0
   19.1300   -4.7892  -11.7528 C   0  0  1  0  0  0  0  0  0  0  0  0
   19.1889   -4.9482  -10.2272 C   0  0  0  0  0  0  0  0  0  0  0  0
   18.7946   -6.6202   -9.7115 S   0  0  0  0  0  0  0  0  0  0  0  0
   19.4469   -3.4018  -12.0681 C   0  0  0  0  0  0  0  0  0  0  0  0
   18.6053   -2.3799  -11.6838 O   0  0  0  0  0  0  0  0  0  0  0  0
   20.4860   -3.1032  -12.6926 O   0  0  0  0  0  0  0  0  0  0  0  0
  1  2  1  0
  3  2  1  0
  4  5  1  0
  4  3  1  0
  5  1  1  0
  6  8  1  0
  5  6  1  6
  7  6  2  0
  9 10  1  6
  9  8  1  0
  9 12  1  0
 11 10  1  0
 12 14  1  0
 13 12  2  0
 14 15  1  0
 15 16  1  1
 16 17  1  0
 18 15  1  0
 18 19  1  0
 20 18  2  0
M  END
$$$$
