PCC.pdb
     RDKit          3D

 20 20  0  0  1  0  0  0  0  0999 V2000
   28.5209  -20.4754  -15.7083 N   0  0  0  0  0  0  0  0  0  0  0  0
   27.6208  -19.9187  -16.6823 C   0  0  0  0  0  0  0  0  0  0  0  0
   27.8516  -18.4193  -16.4373 C   0  0  0  0  0  0  0  0  0  0  0  0
   27.8343  -18.3642  -14.9255 C   0  0  0  0  0  0  0  0  0  0  0  0
   28.2499  -19.7694  -14.5006 C   0  0  1  0  0  0  0  0  0  0  0  0
   27.1783  -20.4312  -13.7337 C   0  0  0  0  0  0  0  0  0  0  0  0
   26.4779  -21.2650  -14.4098 O   0  0  0  0  0  0  0  0  0  0  0  0
   26.9284  -20.1857  -12.3800 N   0  0  0  0  0  0  0  0  0  0  0  0
   25.8143  -20.8961  -11.7332 C   0  0  1  0  0  0  0  0  0  0  0  0
   25.7836  -20.5222  -10.2526 C   0  0  0  0  0  0  0  0  0  0  0  0
   24.3167  -21.2965   -9.5292 S   0  0  0  0  0  0  0  0  0  0  0  0
   24.5158  -20.4175  -12.3022 C   0  0  0  0  0  0  0  0  0  0  0  0
   24.3248  -19.1913  -12.4562 O   0  0  0  0  0  0  0  0  0  0  0  0
   23.4807  -21.3020  -12.6787 N   0  0  0  0  0  0  0  0  0  0  0  0
   22.2342  -20.9151  -13.2537 C   0  0  1  0  0  0  0  0  0  0  0  0
   22.0526  -21.5801  -14.6252 C   0  0  0  0  0  0  0  0  0  0  0  0
   20.4826  -21.1483  -15.3773 S   0  0  0  0  0  0  0  0  0  0  0  0
   21.0620  -21.2316  -12.4471 C   0  0  0  0  0  0  0  0  0  0  0  0
   19.8763  -20.5518  -12.6265 O   0  0  0  0  0  0  0  0  0  0  0  0
   21.1009  -22.1242  -11.5749 O   0  0  0  0  0  0  0  0  0  0  0  0
  1  2  1  0
  3  2  1  0
  4  5  1  0
  4  3  1  0
  5  1  1  0
  6  8  1  0
  5  6  1  6
  7  6  2  0
  9 10  1  1
  9  8  1  0
  9 12  1  0
 11 10  1  0
 12 14  1  0
 13 12  2  0
 14 15  1  0
 15 16  1  6
 16 17  1  0
 18 15  1  0
 18 19  1  0
 20 18  2  0
M  END
$$$$
