PCC.pdb
     RDKit          3D

 20 20  0  0  1  0  0  0  0  0999 V2000
   18.1268  -11.1792  -17.2086 N   0  0  0  0  0  0  0  0  0  0  0  0
   16.9372  -10.7315  -17.8818 C   0  0  0  0  0  0  0  0  0  0  0  0
   17.4329  -10.7339  -19.3364 C   0  0  0  0  0  0  0  0  0  0  0  0
   18.7903  -10.0835  -19.1836 C   0  0  0  0  0  0  0  0  0  0  0  0
   19.1809  -10.3805  -17.7390 C   0  0  1  0  0  0  0  0  0  0  0  0
   19.3381   -9.1356  -16.9645 C   0  0  0  0  0  0  0  0  0  0  0  0
   18.2596   -8.7097  -16.4180 O   0  0  0  0  0  0  0  0  0  0  0  0
   20.5532   -8.4582  -16.8234 N   0  0  0  0  0  0  0  0  0  0  0  0
   20.5656   -7.1893  -16.0793 C   0  0  1  0  0  0  0  0  0  0  0  0
   21.9064   -7.0514  -15.3608 C   0  0  0  0  0  0  0  0  0  0  0  0
   21.8273   -5.5523  -14.3503 S   0  0  0  0  0  0  0  0  0  0  0  0
   20.4970   -6.0435  -17.0391 C   0  0  0  0  0  0  0  0  0  0  0  0
   21.0426   -6.1446  -18.1598 O   0  0  0  0  0  0  0  0  0  0  0  0
   19.8338   -4.8348  -16.7315 N   0  0  0  0  0  0  0  0  0  0  0  0
   19.6850   -3.7274  -17.6178 C   0  0  1  0  0  0  0  0  0  0  0  0
   18.3389   -3.8107  -18.3508 C   0  0  0  0  0  0  0  0  0  0  0  0
   18.0610   -2.3876  -19.4066 S   0  0  0  0  0  0  0  0  0  0  0  0
   19.7653   -2.4180  -16.9823 C   0  0  0  0  0  0  0  0  0  0  0  0
   20.3780   -1.3599  -17.6189 O   0  0  0  0  0  0  0  0  0  0  0  0
   19.2825   -2.2208  -15.8478 O   0  0  0  0  0  0  0  0  0  0  0  0
  1  2  1  0
  3  2  1  0
  4  5  1  0
  4  3  1  0
  5  1  1  0
  6  8  1  0
  5  6  1  1
  7  6  2  0
  9 10  1  6
  9  8  1  0
  9 12  1  0
 11 10  1  0
 12 14  1  0
 13 12  2  0
 14 15  1  0
 15 16  1  1
 16 17  1  0
 18 15  1  0
 18 19  1  0
 20 18  2  0
M  END
$$$$
