PCC.pdb
     RDKit          3D

 20 20  0  0  1  0  0  0  0  0999 V2000
   29.5137  -21.2396  -12.5929 N   0  0  0  0  0  0  0  0  0  0  0  0
   30.0074  -20.2846  -11.6373 C   0  0  0  0  0  0  0  0  0  0  0  0
   29.8440  -21.0919  -10.3399 C   0  0  0  0  0  0  0  0  0  0  0  0
   28.4630  -21.6785  -10.5326 C   0  0  0  0  0  0  0  0  0  0  0  0
   28.2862  -21.7154  -12.0477 C   0  0  1  0  0  0  0  0  0  0  0  0
   27.1581  -20.8658  -12.4717 C   0  0  0  0  0  0  0  0  0  0  0  0
   27.4951  -19.8419  -13.1653 O   0  0  0  0  0  0  0  0  0  0  0  0
   25.8228  -21.1353  -12.1558 N   0  0  0  0  0  0  0  0  0  0  0  0
   24.7698  -20.4664  -12.9355 C   0  0  1  0  0  0  0  0  0  0  0  0
   24.8552  -20.9372  -14.3860 C   0  0  0  0  0  0  0  0  0  0  0  0
   23.5901  -20.0425  -15.3208 S   0  0  0  0  0  0  0  0  0  0  0  0
   23.4261  -20.9031  -12.4430 C   0  0  0  0  0  0  0  0  0  0  0  0
   23.1051  -22.1096  -12.5156 O   0  0  0  0  0  0  0  0  0  0  0  0
   22.4900  -20.0003  -11.8915 N   0  0  0  0  0  0  0  0  0  0  0  0
   21.2317  -20.3609  -11.3254 C   0  0  1  0  0  0  0  0  0  0  0  0
   20.8276  -19.3512  -10.2422 C   0  0  0  0  0  0  0  0  0  0  0  0
   19.2894  -19.8075   -9.4403 S   0  0  0  0  0  0  0  0  0  0  0  0
   20.1335  -20.4530  -12.2796 C   0  0  0  0  0  0  0  0  0  0  0  0
   20.2504  -19.9190  -13.5450 O   0  0  0  0  0  0  0  0  0  0  0  0
   19.0612  -21.0164  -11.9767 O   0  0  0  0  0  0  0  0  0  0  0  0
  1  2  1  0
  3  2  1  0
  4  5  1  0
  4  3  1  0
  5  1  1  0
  6  8  1  0
  5  6  1  1
  7  6  2  0
  9 10  1  6
  9  8  1  0
  9 12  1  0
 11 10  1  0
 12 14  1  0
 13 12  2  0
 14 15  1  0
 15 16  1  1
 16 17  1  0
 18 15  1  0
 18 19  1  0
 20 18  2  0
M  END
$$$$
