PCC.pdb
     RDKit          3D

 20 20  0  0  1  0  0  0  0  0999 V2000
   31.4129  -26.1494  -17.4960 N   0  0  0  0  0  0  0  0  0  0  0  0
   32.4642  -25.1833  -17.6700 C   0  0  0  0  0  0  0  0  0  0  0  0
   32.8257  -24.9101  -16.2016 C   0  0  0  0  0  0  0  0  0  0  0  0
   31.4518  -24.7797  -15.5818 C   0  0  0  0  0  0  0  0  0  0  0  0
   30.5511  -25.5917  -16.5077 C   0  0  1  0  0  0  0  0  0  0  0  0
   29.5210  -24.7390  -17.1289 C   0  0  0  0  0  0  0  0  0  0  0  0
   29.7186  -24.4851  -18.3697 O   0  0  0  0  0  0  0  0  0  0  0  0
   28.4115  -24.2375  -16.4414 N   0  0  0  0  0  0  0  0  0  0  0  0
   27.3897  -23.5018  -17.2023 C   0  0  1  0  0  0  0  0  0  0  0  0
   26.1180  -24.3456  -17.2648 C   0  0  0  0  0  0  0  0  0  0  0  0
   26.2032  -25.5533  -15.9198 S   0  0  0  0  0  0  0  0  0  0  0  0
   27.0161  -22.2543  -16.4655 C   0  0  0  0  0  0  0  0  0  0  0  0
   26.9192  -22.2801  -15.2189 O   0  0  0  0  0  0  0  0  0  0  0  0
   26.7642  -21.0306  -17.1246 N   0  0  0  0  0  0  0  0  0  0  0  0
   26.4177  -19.8047  -16.4832 C   0  0  1  0  0  0  0  0  0  0  0  0
   27.0937  -18.6238  -17.1935 C   0  0  0  0  0  0  0  0  0  0  0  0
   28.8789  -18.7939  -17.2264 S   0  0  0  0  0  0  0  0  0  0  0  0
   24.9879  -19.5275  -16.4215 C   0  0  0  0  0  0  0  0  0  0  0  0
   24.5058  -18.4604  -15.6941 O   0  0  0  0  0  0  0  0  0  0  0  0
   24.1646  -20.2471  -17.0243 O   0  0  0  0  0  0  0  0  0  0  0  0
  1  2  1  0
  3  2  1  0
  4  5  1  0
  4  3  1  0
  5  1  1  0
  6  8  1  0
  5  6  1  6
  7  6  2  0
  9 10  1  1
  9  8  1  0
  9 12  1  0
 11 10  1  0
 12 14  1  0
 13 12  2  0
 14 15  1  0
 15 16  1  6
 16 17  1  0
 18 15  1  0
 18 19  1  0
 20 18  2  0
M  END
$$$$
