PCC.pdb
     RDKit          3D

 20 20  0  0  1  0  0  0  0  0999 V2000
   20.0848   -9.9032  -15.1025 N   0  0  0  0  0  0  0  0  0  0  0  0
   19.6343  -11.0136  -14.3070 C   0  0  0  0  0  0  0  0  0  0  0  0
   18.4415  -11.4855  -15.1532 C   0  0  0  0  0  0  0  0  0  0  0  0
   17.7766  -10.1670  -15.4822 C   0  0  0  0  0  0  0  0  0  0  0  0
   18.9108   -9.1502  -15.3944 C   0  0  1  0  0  0  0  0  0  0  0  0
   18.6499   -8.1530  -14.3399 C   0  0  0  0  0  0  0  0  0  0  0  0
   17.6248   -7.4128  -14.5503 O   0  0  0  0  0  0  0  0  0  0  0  0
   19.4412   -8.0088  -13.1961 N   0  0  0  0  0  0  0  0  0  0  0  0
   19.1244   -6.9210  -12.2578 C   0  0  1  0  0  0  0  0  0  0  0  0
   19.4841   -7.3694  -10.8427 C   0  0  0  0  0  0  0  0  0  0  0  0
   19.0884   -6.0025   -9.7248 S   0  0  0  0  0  0  0  0  0  0  0  0
   19.9960   -5.7395  -12.5457 C   0  0  0  0  0  0  0  0  0  0  0  0
   21.2373   -5.8486  -12.4394 O   0  0  0  0  0  0  0  0  0  0  0  0
   19.4719   -4.4878  -12.9381 N   0  0  0  0  0  0  0  0  0  0  0  0
   20.2463   -3.3342  -13.2602 C   0  0  1  0  0  0  0  0  0  0  0  0
   20.8447   -3.4719  -14.6670 C   0  0  0  0  0  0  0  0  0  0  0  0
   21.8178   -2.0366  -15.1253 S   0  0  0  0  0  0  0  0  0  0  0  0
   19.5181   -2.0725  -13.2081 C   0  0  0  0  0  0  0  0  0  0  0  0
   18.1773   -2.0169  -13.5234 O   0  0  0  0  0  0  0  0  0  0  0  0
   20.0880   -1.0119  -12.8774 O   0  0  0  0  0  0  0  0  0  0  0  0
  1  2  1  0
  3  2  1  0
  4  5  1  0
  4  3  1  0
  5  1  1  0
  6  8  1  0
  5  6  1  1
  7  6  2  0
  9 10  1  1
  9  8  1  0
  9 12  1  0
 11 10  1  0
 12 14  1  0
 13 12  2  0
 14 15  1  0
 15 16  1  6
 16 17  1  0
 18 15  1  0
 18 19  1  0
 20 18  2  0
M  END
$$$$
