PCC.pdb
     RDKit          3D

 20 20  0  0  1  0  0  0  0  0999 V2000
   25.9937  -34.0699   -4.9436 N   0  0  0  0  0  0  0  0  0  0  0  0
   24.7764  -33.8871   -4.1995 C   0  0  0  0  0  0  0  0  0  0  0  0
   24.8117  -32.3646   -3.9938 C   0  0  0  0  0  0  0  0  0  0  0  0
   26.2569  -32.1566   -3.5976 C   0  0  0  0  0  0  0  0  0  0  0  0
   26.9853  -33.3413   -4.2252 C   0  0  1  0  0  0  0  0  0  0  0  0
   27.6136  -34.1861   -3.1927 C   0  0  0  0  0  0  0  0  0  0  0  0
   26.8995  -35.1803   -2.8125 O   0  0  0  0  0  0  0  0  0  0  0  0
   28.8825  -33.9426   -2.6581 N   0  0  0  0  0  0  0  0  0  0  0  0
   29.4378  -34.9129   -1.7019 C   0  0  1  0  0  0  0  0  0  0  0  0
   30.8361  -35.3172   -2.1647 C   0  0  0  0  0  0  0  0  0  0  0  0
   30.6667  -36.0785   -3.7976 S   0  0  0  0  0  0  0  0  0  0  0  0
   29.6225  -34.2563   -0.3702 C   0  0  0  0  0  0  0  0  0  0  0  0
   30.3234  -33.2242   -0.2836 O   0  0  0  0  0  0  0  0  0  0  0  0
   29.0317  -34.7573    0.8111 N   0  0  0  0  0  0  0  0  0  0  0  0
   29.2096  -34.2123    2.1170 C   0  0  1  0  0  0  0  0  0  0  0  0
   27.8998  -33.5844    2.6135 C   0  0  0  0  0  0  0  0  0  0  0  0
   27.7391  -31.8736    2.0996 S   0  0  0  0  0  0  0  0  0  0  0  0
   29.6554  -35.1667    3.1246 C   0  0  0  0  0  0  0  0  0  0  0  0
   30.0716  -34.7395    4.3673 O   0  0  0  0  0  0  0  0  0  0  0  0
   29.6719  -36.3928    2.8892 O   0  0  0  0  0  0  0  0  0  0  0  0
  1  2  1  0
  3  2  1  0
  4  5  1  0
  4  3  1  0
  5  1  1  0
  6  8  1  0
  5  6  1  1
  7  6  2  0
  9 10  1  6
  9  8  1  0
  9 12  1  0
 11 10  1  0
 12 14  1  0
 13 12  2  0
 14 15  1  0
 15 16  1  1
 16 17  1  0
 18 15  1  0
 18 19  1  0
 20 18  2  0
M  END
$$$$
