PCC.pdb
     RDKit          3D

 20 20  0  0  1  0  0  0  0  0999 V2000
   26.1842  -20.6004  -14.7483 N   0  0  0  0  0  0  0  0  0  0  0  0
   26.0778  -19.2941  -15.3408 C   0  0  0  0  0  0  0  0  0  0  0  0
   27.5633  -18.9880  -15.5880 C   0  0  0  0  0  0  0  0  0  0  0  0
   28.1758  -19.4364  -14.2793 C   0  0  0  0  0  0  0  0  0  0  0  0
   27.1948  -20.4787  -13.7511 C   0  0  1  0  0  0  0  0  0  0  0  0
   26.6143  -20.0571  -12.4628 C   0  0  0  0  0  0  0  0  0  0  0  0
   26.4556  -18.7911  -12.3402 O   0  0  0  0  0  0  0  0  0  0  0  0
   26.2582  -20.9468  -11.4446 N   0  0  0  0  0  0  0  0  0  0  0  0
   25.8235  -20.3946  -10.1522 C   0  0  1  0  0  0  0  0  0  0  0  0
   24.6416  -21.2140   -9.6377 C   0  0  0  0  0  0  0  0  0  0  0  0
   23.1327  -20.3018  -10.0447 S   0  0  0  0  0  0  0  0  0  0  0  0
   26.9119  -20.5682   -9.1403 C   0  0  0  0  0  0  0  0  0  0  0  0
   27.5886  -21.6199   -9.1368 O   0  0  0  0  0  0  0  0  0  0  0  0
   27.2139  -19.5827   -8.1743 N   0  0  0  0  0  0  0  0  0  0  0  0
   27.6916  -19.8401   -6.8554 C   0  0  1  0  0  0  0  0  0  0  0  0
   28.0285  -18.5215   -6.1455 C   0  0  0  0  0  0  0  0  0  0  0  0
   28.6741  -18.7945   -4.4946 S   0  0  0  0  0  0  0  0  0  0  0  0
   26.7703  -20.5815   -6.0031 C   0  0  0  0  0  0  0  0  0  0  0  0
   25.4080  -20.3991   -6.1086 O   0  0  0  0  0  0  0  0  0  0  0  0
   27.1896  -21.3988   -5.1574 O   0  0  0  0  0  0  0  0  0  0  0  0
  1  2  1  0
  3  2  1  0
  4  5  1  0
  4  3  1  0
  5  1  1  0
  6  8  1  0
  5  6  1  1
  7  6  2  0
  9 10  1  1
  9  8  1  0
  9 12  1  0
 11 10  1  0
 12 14  1  0
 13 12  2  0
 14 15  1  0
 15 16  1  1
 16 17  1  0
 18 15  1  0
 18 19  1  0
 20 18  2  0
M  END
$$$$
