PCC.pdb
     RDKit          3D

 20 20  0  0  1  0  0  0  0  0999 V2000
   17.0972  -10.3870  -16.2357 N   0  0  0  0  0  0  0  0  0  0  0  0
   18.3736  -10.7551  -16.7874 C   0  0  0  0  0  0  0  0  0  0  0  0
   18.2546  -12.2866  -16.7445 C   0  0  0  0  0  0  0  0  0  0  0  0
   17.6737  -12.4961  -15.3635 C   0  0  0  0  0  0  0  0  0  0  0  0
   16.9499  -11.1864  -15.0654 C   0  0  1  0  0  0  0  0  0  0  0  0
   17.5337  -10.5122  -13.8911 C   0  0  0  0  0  0  0  0  0  0  0  0
   17.4735  -11.1898  -12.8047 O   0  0  0  0  0  0  0  0  0  0  0  0
   18.1110   -9.2394  -13.9351 N   0  0  0  0  0  0  0  0  0  0  0  0
   18.6319   -8.6629  -12.6859 C   0  0  1  0  0  0  0  0  0  0  0  0
   19.8058   -7.7440  -13.0182 C   0  0  0  0  0  0  0  0  0  0  0  0
   20.4191   -7.0636  -11.4575 S   0  0  0  0  0  0  0  0  0  0  0  0
   17.5904   -7.7865  -12.0646 C   0  0  0  0  0  0  0  0  0  0  0  0
   16.9567   -6.9800  -12.7800 O   0  0  0  0  0  0  0  0  0  0  0  0
   17.2865   -7.8300  -10.6858 N   0  0  0  0  0  0  0  0  0  0  0  0
   16.3816   -6.9566  -10.0131 C   0  0  1  0  0  0  0  0  0  0  0  0
   15.2915   -7.7681   -9.2995 C   0  0  0  0  0  0  0  0  0  0  0  0
   14.1630   -6.7162   -8.3847 S   0  0  0  0  0  0  0  0  0  0  0  0
   16.9971   -6.0758   -9.0282 C   0  0  0  0  0  0  0  0  0  0  0  0
   16.3909   -4.8936   -8.6608 O   0  0  0  0  0  0  0  0  0  0  0  0
   18.0866   -6.3682   -8.4928 O   0  0  0  0  0  0  0  0  0  0  0  0
  1  2  1  0
  3  2  1  0
  4  5  1  0
  4  3  1  0
  5  1  1  0
  6  8  1  0
  5  6  1  1
  7  6  2  0
  9 10  1  6
  9  8  1  0
  9 12  1  0
 11 10  1  0
 12 14  1  0
 13 12  2  0
 14 15  1  0
 15 16  1  1
 16 17  1  0
 18 15  1  0
 18 19  1  0
 20 18  2  0
M  END
$$$$
