PCC.pdb
     RDKit          3D

 20 20  0  0  1  0  0  0  0  0999 V2000
   23.2032  -13.9753  -18.5970 N   0  0  0  0  0  0  0  0  0  0  0  0
   21.7825  -14.0736  -18.3947 C   0  0  0  0  0  0  0  0  0  0  0  0
   21.2793  -13.4679  -19.7143 C   0  0  0  0  0  0  0  0  0  0  0  0
   22.1812  -12.2602  -19.8442 C   0  0  0  0  0  0  0  0  0  0  0  0
   23.4262  -12.6427  -19.0494 C   0  0  1  0  0  0  0  0  0  0  0  0
   23.6313  -11.7282  -17.9109 C   0  0  0  0  0  0  0  0  0  0  0  0
   22.9019  -11.9813  -16.8878 O   0  0  0  0  0  0  0  0  0  0  0  0
   24.5410  -10.6663  -17.9234 N   0  0  0  0  0  0  0  0  0  0  0  0
   24.6320   -9.8079  -16.7322 C   0  0  1  0  0  0  0  0  0  0  0  0
   26.0667   -9.3019  -16.5968 C   0  0  0  0  0  0  0  0  0  0  0  0
   26.7025   -9.8955  -15.0099 S   0  0  0  0  0  0  0  0  0  0  0  0
   23.7858   -8.5892  -16.9256 C   0  0  0  0  0  0  0  0  0  0  0  0
   23.4276   -8.2639  -18.0788 O   0  0  0  0  0  0  0  0  0  0  0  0
   23.3671   -7.7775  -15.8479 N   0  0  0  0  0  0  0  0  0  0  0  0
   22.4905   -6.6573  -15.9515 C   0  0  1  0  0  0  0  0  0  0  0  0
   21.1069   -7.1088  -16.4393 C   0  0  0  0  0  0  0  0  0  0  0  0
   19.9032   -5.7813  -16.3642 S   0  0  0  0  0  0  0  0  0  0  0  0
   22.3037   -5.9081  -14.7151 C   0  0  0  0  0  0  0  0  0  0  0  0
   22.6384   -6.4599  -13.4971 O   0  0  0  0  0  0  0  0  0  0  0  0
   21.8369   -4.7500  -14.7268 O   0  0  0  0  0  0  0  0  0  0  0  0
  1  2  1  0
  3  2  1  0
  4  5  1  0
  4  3  1  0
  5  1  1  0
  6  8  1  0
  5  6  1  1
  7  6  2  0
  9 10  1  6
  9  8  1  0
  9 12  1  0
 11 10  1  0
 12 14  1  0
 13 12  2  0
 14 15  1  0
 15 16  1  1
 16 17  1  0
 18 15  1  0
 18 19  1  0
 20 18  2  0
M  END
$$$$
