HVF.pdb
     RDKit          3D

 29 30  0  0  1  0  0  0  0  0999 V2000
   29.1933  -23.1569  -18.1623 N   0  0  0  0  0  0  0  0  0  0  0  0
   27.9283  -22.8934  -17.5563 C   0  0  1  0  0  0  0  0  0  0  0  0
   27.2546  -24.1957  -17.2092 C   0  0  0  0  0  0  0  0  0  0  0  0
   26.6695  -24.7566  -18.4539 C   0  0  0  0  0  0  0  0  0  0  0  0
   25.7557  -24.1582  -19.2968 C   0  0  0  0  0  0  0  0  0  0  0  0
   25.4630  -24.9762  -20.3206 N   0  0  0  0  0  0  0  0  0  0  0  0
   26.1907  -26.1041  -20.1359 C   0  0  0  0  0  0  0  0  0  0  0  0
   26.9191  -25.9654  -19.0044 N   0  0  0  0  0  0  0  0  0  0  0  0
   28.0784  -22.0354  -16.3169 C   0  0  0  0  0  0  0  0  0  0  0  0
   29.1480  -22.1428  -15.7307 O   0  0  0  0  0  0  0  0  0  0  0  0
   28.3747  -18.4555  -15.8963 C   0  0  0  0  0  0  0  0  0  0  0  0
   27.0542  -18.7955  -15.2338 C   0  0  2  0  0  0  0  0  0  0  0  0
   26.8975  -17.8644  -14.0751 C   0  0  0  0  0  0  0  0  0  0  0  0
   27.0449  -20.2247  -14.8111 C   0  0  2  0  0  0  0  0  0  0  0  0
   27.0846  -21.1921  -15.8761 N   0  0  0  0  0  0  0  0  0  0  0  0
   26.0330  -20.6349  -13.8469 C   0  0  0  0  0  0  0  0  0  0  0  0
   24.8232  -20.8366  -14.2689 O   0  0  0  0  0  0  0  0  0  0  0  0
   26.1900  -20.8584  -12.4602 N   0  0  0  0  0  0  0  0  0  0  0  0
   25.0733  -21.2752  -11.5910 C   0  0  1  0  0  0  0  0  0  0  0  0
   25.5673  -21.9605  -10.3694 C   0  0  0  0  0  0  0  0  0  0  0  0
   26.4354  -21.1388   -9.5081 C   0  0  0  0  0  0  0  0  0  0  0  0
   25.8344  -20.1980   -8.6717 C   0  0  0  0  0  0  0  0  0  0  0  0
   26.5965  -19.4036   -7.8454 C   0  0  0  0  0  0  0  0  0  0  0  0
   27.9660  -19.5511   -7.8561 C   0  0  0  0  0  0  0  0  0  0  0  0
   28.5804  -20.4736   -8.6740 C   0  0  0  0  0  0  0  0  0  0  0  0
   27.8092  -21.2600   -9.4934 C   0  0  0  0  0  0  0  0  0  0  0  0
   24.1517  -20.1441  -11.3493 C   0  0  0  0  0  0  0  0  0  0  0  0
   22.9896  -20.3602  -10.9852 O   0  0  0  0  0  0  0  0  0  0  0  0
   24.5968  -18.8485  -11.5340 O   0  0  0  0  0  0  0  0  0  0  0  0
  2  1  1  1
  2  9  1  0
  2  3  1  0
  3  4  1  0
  4  5  2  0
  4  8  1  0
  5  6  1  0
  6  7  1  0
  8  7  2  0
  9 10  2  0
 12 11  1  1
 12 14  1  0
 13 12  1  0
 14 15  1  6
 15  9  1  0
 16 17  2  0
 16 14  1  0
 18 16  1  0
 19 18  1  0
 19 27  1  0
 19 20  1  1
 21 20  1  0
 21 26  1  0
 22 21  2  0
 23 22  1  0
 23 24  2  0
 24 25  1  0
 25 26  2  0
 27 28  2  0
 27 29  1  0
M  END
$$$$
