HVF.pdb
     RDKit          3D

 29 30  0  0  1  0  0  0  0  0999 V2000
   22.7893  -11.4173  -19.6134 N   0  0  0  0  0  0  0  0  0  0  0  0
   23.2268  -10.2154  -18.9802 C   0  0  1  0  0  0  0  0  0  0  0  0
   23.1127   -9.0658  -19.9475 C   0  0  0  0  0  0  0  0  0  0  0  0
   24.2021   -9.1974  -20.9485 C   0  0  0  0  0  0  0  0  0  0  0  0
   25.2064  -10.1431  -20.9780 C   0  0  0  0  0  0  0  0  0  0  0  0
   26.0055   -9.9392  -22.0376 N   0  0  0  0  0  0  0  0  0  0  0  0
   25.5139   -8.8592  -22.6917 C   0  0  0  0  0  0  0  0  0  0  0  0
   24.4223   -8.4145  -22.0278 N   0  0  0  0  0  0  0  0  0  0  0  0
   22.4236   -9.9276  -17.7284 C   0  0  0  0  0  0  0  0  0  0  0  0
   21.2746  -10.3508  -17.7333 O   0  0  0  0  0  0  0  0  0  0  0  0
   22.6312  -11.0417  -14.3482 C   0  0  0  0  0  0  0  0  0  0  0  0
   22.8634   -9.5513  -14.1970 C   0  0  2  0  0  0  0  0  0  0  0  0
   22.1515   -9.1250  -12.9538 C   0  0  0  0  0  0  0  0  0  0  0  0
   22.3681   -8.8296  -15.4034 C   0  0  2  0  0  0  0  0  0  0  0  0
   22.9444   -9.2388  -16.6573 N   0  0  0  0  0  0  0  0  0  0  0  0
   22.3446   -7.3740  -15.3546 C   0  0  0  0  0  0  0  0  0  0  0  0
   23.4381   -6.7484  -15.0461 O   0  0  0  0  0  0  0  0  0  0  0  0
   21.2555   -6.5106  -15.6112 N   0  0  0  0  0  0  0  0  0  0  0  0
   21.3492   -5.0462  -15.4592 C   0  0  1  0  0  0  0  0  0  0  0  0
   21.2742   -4.3613  -16.7750 C   0  0  0  0  0  0  0  0  0  0  0  0
   22.3199   -4.7530  -17.7361 C   0  0  0  0  0  0  0  0  0  0  0  0
   23.4949   -4.0023  -17.7745 C   0  0  0  0  0  0  0  0  0  0  0  0
   24.5056   -4.3231  -18.6522 C   0  0  0  0  0  0  0  0  0  0  0  0
   24.3398   -5.3998  -19.4951 C   0  0  0  0  0  0  0  0  0  0  0  0
   23.1879   -6.1549  -19.4741 C   0  0  0  0  0  0  0  0  0  0  0  0
   22.1873   -5.8246  -18.5941 C   0  0  0  0  0  0  0  0  0  0  0  0
   20.3875   -4.5659  -14.4436 C   0  0  0  0  0  0  0  0  0  0  0  0
   19.5145   -5.3271  -14.0098 O   0  0  0  0  0  0  0  0  0  0  0  0
   20.4705   -3.2643  -13.9855 O   0  0  0  0  0  0  0  0  0  0  0  0
  2  1  1  6
  2  9  1  0
  2  3  1  0
  3  4  1  0
  4  5  2  0
  4  8  1  0
  5  6  1  0
  6  7  1  0
  8  7  2  0
  9 10  2  0
 12 11  1  6
 12 14  1  0
 13 12  1  0
 14 15  1  6
 15  9  1  0
 16 17  2  0
 16 14  1  0
 18 16  1  0
 19 18  1  0
 19 27  1  0
 19 20  1  6
 21 20  1  0
 21 26  1  0
 22 21  2  0
 23 22  1  0
 23 24  2  0
 24 25  1  0
 25 26  2  0
 27 28  2  0
 27 29  1  0
M  END
$$$$
