HVF.pdb
     RDKit          3D

 29 30  0  0  1  0  0  0  0  0999 V2000
   30.7909  -10.7419  -19.6989 N   0  0  0  0  0  0  0  0  0  0  0  0
   30.2736   -9.9993  -18.5953 C   0  0  1  0  0  0  0  0  0  0  0  0
   30.4280   -8.5247  -18.8633 C   0  0  0  0  0  0  0  0  0  0  0  0
   31.8801   -8.2189  -18.9282 C   0  0  0  0  0  0  0  0  0  0  0  0
   32.5637   -7.6016  -19.9555 C   0  0  0  0  0  0  0  0  0  0  0  0
   33.8674   -7.4996  -19.6505 N   0  0  0  0  0  0  0  0  0  0  0  0
   34.0229   -8.0529  -18.4236 C   0  0  0  0  0  0  0  0  0  0  0  0
   32.8165   -8.4866  -17.9914 N   0  0  0  0  0  0  0  0  0  0  0  0
   28.8188  -10.3348  -18.3382 C   0  0  0  0  0  0  0  0  0  0  0  0
   28.1275  -10.4739  -19.3392 O   0  0  0  0  0  0  0  0  0  0  0  0
   27.6274  -13.1936  -16.2027 C   0  0  0  0  0  0  0  0  0  0  0  0
   26.9550  -11.9671  -15.6179 C   0  0  2  0  0  0  0  0  0  0  0  0
   25.5553  -12.3623  -15.2732 C   0  0  0  0  0  0  0  0  0  0  0  0
   26.9966  -10.8433  -16.5960 C   0  0  2  0  0  0  0  0  0  0  0  0
   28.3049  -10.4747  -17.0696 N   0  0  0  0  0  0  0  0  0  0  0  0
   26.2645   -9.6300  -16.2587 C   0  0  0  0  0  0  0  0  0  0  0  0
   26.7174   -8.8810  -15.3016 O   0  0  0  0  0  0  0  0  0  0  0  0
   25.0845   -9.1299  -16.8545 N   0  0  0  0  0  0  0  0  0  0  0  0
   24.3896   -7.9283  -16.3549 C   0  0  1  0  0  0  0  0  0  0  0  0
   24.7462   -6.7277  -17.1531 C   0  0  0  0  0  0  0  0  0  0  0  0
   23.9434   -5.5282  -16.8574 C   0  0  0  0  0  0  0  0  0  0  0  0
   24.2080   -4.8319  -15.6780 C   0  0  0  0  0  0  0  0  0  0  0  0
   23.4894   -3.7042  -15.3513 C   0  0  0  0  0  0  0  0  0  0  0  0
   22.5019   -3.2714  -16.2085 C   0  0  0  0  0  0  0  0  0  0  0  0
   22.2239   -3.9436  -17.3783 C   0  0  0  0  0  0  0  0  0  0  0  0
   22.9477   -5.0669  -17.6927 C   0  0  0  0  0  0  0  0  0  0  0  0
   22.9397   -8.1852  -16.2174 C   0  0  0  0  0  0  0  0  0  0  0  0
   22.3015   -7.6533  -15.3010 O   0  0  0  0  0  0  0  0  0  0  0  0
   22.3057   -9.0220  -17.1166 O   0  0  0  0  0  0  0  0  0  0  0  0
  2  1  1  6
  2  9  1  0
  2  3  1  0
  3  4  1  0
  4  5  2  0
  4  8  1  0
  5  6  1  0
  6  7  1  0
  8  7  2  0
  9 10  2  0
 12 11  1  6
 12 14  1  0
 13 12  1  0
 14 15  1  1
 15  9  1  0
 16 17  2  0
 16 14  1  0
 18 16  1  0
 19 18  1  0
 19 27  1  0
 19 20  1  6
 21 20  1  0
 21 26  1  0
 22 21  2  0
 23 22  1  0
 23 24  2  0
 24 25  1  0
 25 26  2  0
 27 28  2  0
 27 29  1  0
M  END
$$$$
