HVF.pdb
     RDKit          3D

 29 30  0  0  1  0  0  0  0  0999 V2000
   25.9818  -19.9180  -15.8413 N   0  0  0  0  0  0  0  0  0  0  0  0
   26.6535  -20.4249  -14.6886 C   0  0  1  0  0  0  0  0  0  0  0  0
   28.1122  -20.0524  -14.7506 C   0  0  0  0  0  0  0  0  0  0  0  0
   28.7161  -20.7519  -15.9134 C   0  0  0  0  0  0  0  0  0  0  0  0
   29.1472  -22.0612  -15.9753 C   0  0  0  0  0  0  0  0  0  0  0  0
   29.6360  -22.3321  -17.1962 N   0  0  0  0  0  0  0  0  0  0  0  0
   29.5191  -21.1938  -17.9218 C   0  0  0  0  0  0  0  0  0  0  0  0
   28.9617  -20.2408  -17.1401 N   0  0  0  0  0  0  0  0  0  0  0  0
   26.0326  -19.8969  -13.4116 C   0  0  0  0  0  0  0  0  0  0  0  0
   25.8073  -18.6935  -13.3963 O   0  0  0  0  0  0  0  0  0  0  0  0
   22.7827  -20.5324  -12.2284 C   0  0  0  0  0  0  0  0  0  0  0  0
   23.6267  -21.0782  -11.0935 C   0  0  2  0  0  0  0  0  0  0  0  0
   22.9068  -20.7565   -9.8237 C   0  0  0  0  0  0  0  0  0  0  0  0
   24.9905  -20.4783  -11.1334 C   0  0  2  0  0  0  0  0  0  0  0  0
   25.7400  -20.7092  -12.3403 N   0  0  0  0  0  0  0  0  0  0  0  0
   25.8631  -20.7137   -9.9911 C   0  0  0  0  0  0  0  0  0  0  0  0
   26.4564  -21.8629   -9.8932 O   0  0  0  0  0  0  0  0  0  0  0  0
   26.1717  -19.8291   -8.9329 N   0  0  0  0  0  0  0  0  0  0  0  0
   26.9914  -20.2313   -7.7743 C   0  0  1  0  0  0  0  0  0  0  0  0
   27.9700  -19.1741   -7.4127 C   0  0  0  0  0  0  0  0  0  0  0  0
   28.6138  -19.3509   -6.0994 C   0  0  0  0  0  0  0  0  0  0  0  0
   29.7814  -20.1113   -6.0343 C   0  0  0  0  0  0  0  0  0  0  0  0
   30.4255  -20.3090   -4.8340 C   0  0  0  0  0  0  0  0  0  0  0  0
   29.8988  -19.7434   -3.6937 C   0  0  0  0  0  0  0  0  0  0  0  0
   28.7470  -18.9890   -3.7350 C   0  0  0  0  0  0  0  0  0  0  0  0
   28.1141  -18.7992   -4.9383 C   0  0  0  0  0  0  0  0  0  0  0  0
   26.1315  -20.6990   -6.6657 C   0  0  0  0  0  0  0  0  0  0  0  0
   24.9719  -20.2810   -6.5638 O   0  0  0  0  0  0  0  0  0  0  0  0
   26.6320  -21.6024   -5.7470 O   0  0  0  0  0  0  0  0  0  0  0  0
  2  1  1  6
  2  9  1  0
  2  3  1  0
  3  4  1  0
  4  5  2  0
  4  8  1  0
  5  6  1  0
  6  7  1  0
  8  7  2  0
  9 10  2  0
 12 11  1  6
 12 14  1  0
 13 12  1  0
 14 15  1  6
 15  9  1  0
 16 17  2  0
 16 14  1  0
 18 16  1  0
 19 18  1  0
 19 27  1  0
 19 20  1  1
 21 20  1  0
 21 26  1  0
 22 21  2  0
 23 22  1  0
 23 24  2  0
 24 25  1  0
 25 26  2  0
 27 28  2  0
 27 29  1  0
M  END
$$$$
