HVF.pdb
     RDKit          3D

 29 30  0  0  1  0  0  0  0  0999 V2000
   24.5761  -13.6846  -17.1510 N   0  0  0  0  0  0  0  0  0  0  0  0
   24.8171  -12.3787  -16.6281 C   0  0  1  0  0  0  0  0  0  0  0  0
   26.0135  -11.7734  -17.3156 C   0  0  0  0  0  0  0  0  0  0  0  0
   27.2009  -12.6030  -16.9870 C   0  0  0  0  0  0  0  0  0  0  0  0
   27.9801  -12.5419  -15.8499 C   0  0  0  0  0  0  0  0  0  0  0  0
   28.9660  -13.4514  -15.9130 N   0  0  0  0  0  0  0  0  0  0  0  0
   28.8206  -14.0993  -17.0940 C   0  0  0  0  0  0  0  0  0  0  0  0
   27.7506  -13.5816  -17.7397 N   0  0  0  0  0  0  0  0  0  0  0  0
   23.6069  -11.4837  -16.7997 C   0  0  0  0  0  0  0  0  0  0  0  0
   22.9347  -11.6965  -17.8007 O   0  0  0  0  0  0  0  0  0  0  0  0
   21.5805  -10.0065  -13.4238 C   0  0  0  0  0  0  0  0  0  0  0  0
   21.0732  -10.0624  -14.8513 C   0  0  2  0  0  0  0  0  0  0  0  0
   20.6418  -11.4710  -15.1039 C   0  0  0  0  0  0  0  0  0  0  0  0
   22.1421   -9.6248  -15.7934 C   0  0  2  0  0  0  0  0  0  0  0  0
   23.2812  -10.4986  -15.8962 N   0  0  0  0  0  0  0  0  0  0  0  0
   22.6167   -8.2521  -15.6822 C   0  0  0  0  0  0  0  0  0  0  0  0
   23.6575   -8.0160  -14.9452 O   0  0  0  0  0  0  0  0  0  0  0  0
   22.0849   -7.0937  -16.2929 N   0  0  0  0  0  0  0  0  0  0  0  0
   22.6295   -5.7448  -16.0477 C   0  0  1  0  0  0  0  0  0  0  0  0
   23.2676   -5.1904  -17.2690 C   0  0  0  0  0  0  0  0  0  0  0  0
   23.6766   -3.7788  -17.1660 C   0  0  0  0  0  0  0  0  0  0  0  0
   22.7683   -2.7982  -17.5652 C   0  0  0  0  0  0  0  0  0  0  0  0
   23.0968   -1.4636  -17.4903 C   0  0  0  0  0  0  0  0  0  0  0  0
   24.3395   -1.1086  -17.0138 C   0  0  0  0  0  0  0  0  0  0  0  0
   25.2518   -2.0603  -16.6142 C   0  0  0  0  0  0  0  0  0  0  0  0
   24.9121   -3.3879  -16.6939 C   0  0  0  0  0  0  0  0  0  0  0  0
   21.6084   -4.8773  -15.4217 C   0  0  0  0  0  0  0  0  0  0  0  0
   20.4238   -4.9694  -15.7652 O   0  0  0  0  0  0  0  0  0  0  0  0
   21.9866   -3.9652  -14.4544 O   0  0  0  0  0  0  0  0  0  0  0  0
  2  1  1  6
  2  9  1  0
  2  3  1  0
  3  4  1  0
  4  5  2  0
  4  8  1  0
  5  6  1  0
  6  7  1  0
  8  7  2  0
  9 10  2  0
 12 11  1  1
 12 14  1  0
 13 12  1  0
 14 15  1  1
 15  9  1  0
 16 17  2  0
 16 14  1  0
 18 16  1  0
 19 18  1  0
 19 27  1  0
 19 20  1  6
 21 20  1  0
 21 26  1  0
 22 21  2  0
 23 22  1  0
 23 24  2  0
 24 25  1  0
 25 26  2  0
 27 28  2  0
 27 29  1  0
M  END
$$$$
