HVF.pdb
     RDKit          3D

 29 30  0  0  1  0  0  0  0  0999 V2000
   27.6244  -20.5599  -19.0023 N   0  0  0  0  0  0  0  0  0  0  0  0
   27.1048  -20.4647  -17.6763 C   0  0  1  0  0  0  0  0  0  0  0  0
   26.8386  -19.0199  -17.3417 C   0  0  0  0  0  0  0  0  0  0  0  0
   28.1292  -18.2876  -17.4074 C   0  0  0  0  0  0  0  0  0  0  0  0
   28.5574  -17.4265  -18.3968 C   0  0  0  0  0  0  0  0  0  0  0  0
   29.7815  -16.9573  -18.1064 N   0  0  0  0  0  0  0  0  0  0  0  0
   30.1419  -17.5181  -16.9268 C   0  0  0  0  0  0  0  0  0  0  0  0
   29.1378  -18.3224  -16.5085 N   0  0  0  0  0  0  0  0  0  0  0  0
   25.8374  -21.2799  -17.5208 C   0  0  0  0  0  0  0  0  0  0  0  0
   25.0674  -21.2393  -18.4719 O   0  0  0  0  0  0  0  0  0  0  0  0
   25.7789  -24.7528  -15.1840 C   0  0  0  0  0  0  0  0  0  0  0  0
   24.6877  -24.3243  -16.1453 C   0  0  2  0  0  0  0  0  0  0  0  0
   25.1357  -24.7208  -17.5150 C   0  0  0  0  0  0  0  0  0  0  0  0
   24.4528  -22.8567  -16.0340 C   0  0  2  0  0  0  0  0  0  0  0  0
   25.5656  -22.0164  -16.3909 N   0  0  0  0  0  0  0  0  0  0  0  0
   23.8733  -22.3600  -14.7934 C   0  0  0  0  0  0  0  0  0  0  0  0
   24.5348  -22.5302  -13.6908 O   0  0  0  0  0  0  0  0  0  0  0  0
   22.6438  -21.6865  -14.6138 N   0  0  0  0  0  0  0  0  0  0  0  0
   22.0976  -21.3715  -13.2801 C   0  0  1  0  0  0  0  0  0  0  0  0
   22.7734  -20.1901  -12.6856 C   0  0  0  0  0  0  0  0  0  0  0  0
   23.9396  -20.5047  -11.8421 C   0  0  0  0  0  0  0  0  0  0  0  0
   23.7136  -20.8788  -10.5174 C   0  0  0  0  0  0  0  0  0  0  0  0
   24.7657  -21.1844   -9.6841 C   0  0  0  0  0  0  0  0  0  0  0  0
   26.0495  -21.1154  -10.1784 C   0  0  0  0  0  0  0  0  0  0  0  0
   26.2956  -20.7484  -11.4831 C   0  0  0  0  0  0  0  0  0  0  0  0
   25.2377  -20.4460  -12.3041 C   0  0  0  0  0  0  0  0  0  0  0  0
   20.6214  -21.2949  -13.3272 C   0  0  0  0  0  0  0  0  0  0  0  0
   20.0386  -21.2571  -14.4174 O   0  0  0  0  0  0  0  0  0  0  0  0
   19.9008  -21.2647  -12.1480 O   0  0  0  0  0  0  0  0  0  0  0  0
  2  1  1  6
  2  9  1  0
  2  3  1  0
  3  4  1  0
  4  5  2  0
  4  8  1  0
  5  6  1  0
  6  7  1  0
  8  7  2  0
  9 10  2  0
 12 11  1  1
 12 14  1  0
 13 12  1  0
 14 15  1  1
 15  9  1  0
 16 17  2  0
 16 14  1  0
 18 16  1  0
 19 18  1  0
 19 27  1  0
 19 20  1  6
 21 20  1  0
 21 26  1  0
 22 21  2  0
 23 22  1  0
 23 24  2  0
 24 25  1  0
 25 26  2  0
 27 28  2  0
 27 29  1  0
M  END
$$$$
