HVF.pdb
     RDKit          3D

 29 30  0  0  1  0  0  0  0  0999 V2000
   26.6496  -20.0157  -17.4839 N   0  0  0  0  0  0  0  0  0  0  0  0
   26.2553  -19.2727  -16.3309 C   0  0  1  0  0  0  0  0  0  0  0  0
   25.3653  -18.1305  -16.7474 C   0  0  0  0  0  0  0  0  0  0  0  0
   26.2000  -17.1377  -17.4712 C   0  0  0  0  0  0  0  0  0  0  0  0
   27.5433  -17.2296  -17.7723 C   0  0  0  0  0  0  0  0  0  0  0  0
   27.9464  -16.1343  -18.4365 N   0  0  0  0  0  0  0  0  0  0  0  0
   26.8592  -15.3357  -18.5629 C   0  0  0  0  0  0  0  0  0  0  0  0
   25.8051  -15.9482  -17.9767 N   0  0  0  0  0  0  0  0  0  0  0  0
   25.5413  -20.1525  -15.3253 C   0  0  0  0  0  0  0  0  0  0  0  0
   24.9674  -21.1269  -15.7948 O   0  0  0  0  0  0  0  0  0  0  0  0
   27.1154  -21.4169  -12.0122 C   0  0  0  0  0  0  0  0  0  0  0  0
   25.8285  -20.7003  -11.6534 C   0  0  2  0  0  0  0  0  0  0  0  0
   25.1778  -21.4944  -10.5671 C   0  0  0  0  0  0  0  0  0  0  0  0
   24.9577  -20.5753  -12.8566 C   0  0  2  0  0  0  0  0  0  0  0  0
   25.5350  -19.8799  -13.9768 N   0  0  0  0  0  0  0  0  0  0  0  0
   23.5991  -20.0895  -12.6567 C   0  0  0  0  0  0  0  0  0  0  0  0
   23.4341  -18.9047  -12.1555 O   0  0  0  0  0  0  0  0  0  0  0  0
   22.3849  -20.7515  -12.9481 N   0  0  0  0  0  0  0  0  0  0  0  0
   21.0666  -20.1274  -12.7271 C   0  0  1  0  0  0  0  0  0  0  0  0
   20.9923  -18.7853  -13.3588 C   0  0  0  0  0  0  0  0  0  0  0  0
   20.8996  -18.7986  -14.8291 C   0  0  0  0  0  0  0  0  0  0  0  0
   21.9924  -18.3371  -15.5630 C   0  0  0  0  0  0  0  0  0  0  0  0
   21.9613  -18.3273  -16.9391 C   0  0  0  0  0  0  0  0  0  0  0  0
   20.8318  -18.7813  -17.5837 C   0  0  0  0  0  0  0  0  0  0  0  0
   19.7413  -19.2414  -16.8789 C   0  0  0  0  0  0  0  0  0  0  0  0
   19.7848  -19.2460  -15.5068 C   0  0  0  0  0  0  0  0  0  0  0  0
   19.9806  -21.0596  -13.0995 C   0  0  0  0  0  0  0  0  0  0  0  0
   20.2457  -22.1138  -13.6897 O   0  0  0  0  0  0  0  0  0  0  0  0
   18.6719  -20.7446  -12.7854 O   0  0  0  0  0  0  0  0  0  0  0  0
  2  1  1  6
  2  9  1  0
  2  3  1  0
  3  4  1  0
  4  5  2  0
  4  8  1  0
  5  6  1  0
  6  7  1  0
  8  7  2  0
  9 10  2  0
 12 11  1  6
 12 14  1  0
 13 12  1  0
 14 15  1  6
 15  9  1  0
 16 17  2  0
 16 14  1  0
 18 16  1  0
 19 18  1  0
 19 27  1  0
 19 20  1  6
 21 20  1  0
 21 26  1  0
 22 21  2  0
 23 22  1  0
 23 24  2  0
 24 25  1  0
 25 26  2  0
 27 28  2  0
 27 29  1  0
M  END
$$$$
