HVF.pdb
     RDKit          3D

 29 30  0  0  1  0  0  0  0  0999 V2000
   25.5556  -33.8962  -13.7013 N   0  0  0  0  0  0  0  0  0  0  0  0
   24.7828  -33.3709  -12.6224 C   0  0  1  0  0  0  0  0  0  0  0  0
   23.3291  -33.7061  -12.8337 C   0  0  0  0  0  0  0  0  0  0  0  0
   22.8650  -32.9925  -14.0508 C   0  0  0  0  0  0  0  0  0  0  0  0
   22.6501  -31.6377  -14.2000 C   0  0  0  0  0  0  0  0  0  0  0  0
   22.2320  -31.3683  -15.4473 N   0  0  0  0  0  0  0  0  0  0  0  0
   22.1778  -32.5531  -16.1023 C   0  0  0  0  0  0  0  0  0  0  0  0
   22.5621  -33.5326  -15.2520 N   0  0  0  0  0  0  0  0  0  0  0  0
   25.2564  -33.9131  -11.2895 C   0  0  0  0  0  0  0  0  0  0  0  0
   25.8743  -34.9688  -11.3421 O   0  0  0  0  0  0  0  0  0  0  0  0
   27.8352  -32.8120   -9.3197 C   0  0  0  0  0  0  0  0  0  0  0  0
   26.6677  -32.6005   -8.3759 C   0  0  2  0  0  0  0  0  0  0  0  0
   27.1616  -32.9075   -6.9990 C   0  0  0  0  0  0  0  0  0  0  0  0
   25.5247  -33.4721   -8.7700 C   0  0  2  0  0  0  0  0  0  0  0  0
   25.0118  -33.2677  -10.0993 N   0  0  0  0  0  0  0  0  0  0  0  0
   24.4018  -33.5677   -7.8471 C   0  0  0  0  0  0  0  0  0  0  0  0
   23.2606  -33.0685   -8.2087 O   0  0  0  0  0  0  0  0  0  0  0  0
   24.3770  -34.1561   -6.5624 N   0  0  0  0  0  0  0  0  0  0  0  0
   23.1369  -34.2949   -5.7756 C   0  0  1  0  0  0  0  0  0  0  0  0
   22.0611  -34.9374   -6.5729 C   0  0  0  0  0  0  0  0  0  0  0  0
   20.8058  -35.1751   -5.8390 C   0  0  0  0  0  0  0  0  0  0  0  0
   19.7478  -34.2879   -6.0374 C   0  0  0  0  0  0  0  0  0  0  0  0
   18.5518  -34.4618   -5.3785 C   0  0  0  0  0  0  0  0  0  0  0  0
   18.4140  -35.5279   -4.5172 C   0  0  0  0  0  0  0  0  0  0  0  0
   19.4457  -36.4160   -4.3064 C   0  0  0  0  0  0  0  0  0  0  0  0
   20.6334  -36.2317   -4.9696 C   0  0  0  0  0  0  0  0  0  0  0  0
   23.4174  -34.9298   -4.4697 C   0  0  0  0  0  0  0  0  0  0  0  0
   24.2769  -35.8151   -4.3844 O   0  0  0  0  0  0  0  0  0  0  0  0
   22.7136  -34.5288   -3.3496 O   0  0  0  0  0  0  0  0  0  0  0  0
  2  1  1  6
  2  9  1  0
  2  3  1  0
  3  4  1  0
  4  5  2  0
  4  8  1  0
  5  6  1  0
  6  7  1  0
  8  7  2  0
  9 10  2  0
 12 11  1  6
 12 14  1  0
 13 12  1  0
 14 15  1  6
 15  9  1  0
 16 17  2  0
 16 14  1  0
 18 16  1  0
 19 18  1  0
 19 27  1  0
 19 20  1  6
 21 20  1  0
 21 26  1  0
 22 21  2  0
 23 22  1  0
 23 24  2  0
 24 25  1  0
 25 26  2  0
 27 28  2  0
 27 29  1  0
M  END
$$$$
