HVF.pdb
     RDKit          3D

 29 30  0  0  1  0  0  0  0  0999 V2000
   23.0510  -20.1537  -17.7620 N   0  0  0  0  0  0  0  0  0  0  0  0
   23.3712  -19.3899  -16.5996 C   0  0  1  0  0  0  0  0  0  0  0  0
   22.1209  -19.1511  -15.7933 C   0  0  0  0  0  0  0  0  0  0  0  0
   21.2590  -18.2076  -16.5503 C   0  0  0  0  0  0  0  0  0  0  0  0
   19.9788  -18.4275  -17.0155 C   0  0  0  0  0  0  0  0  0  0  0  0
   19.5236  -17.3384  -17.6556 N   0  0  0  0  0  0  0  0  0  0  0  0
   20.5139  -16.4152  -17.6021 C   0  0  0  0  0  0  0  0  0  0  0  0
   21.5618  -16.9470  -16.9318 N   0  0  0  0  0  0  0  0  0  0  0  0
   24.4153  -20.0871  -15.7518 C   0  0  0  0  0  0  0  0  0  0  0  0
   24.3296  -21.3079  -15.7127 O   0  0  0  0  0  0  0  0  0  0  0  0
   28.2839  -19.6709  -15.8307 C   0  0  0  0  0  0  0  0  0  0  0  0
   27.7940  -19.2586  -14.4565 C   0  0  2  0  0  0  0  0  0  0  0  0
   28.8140  -19.7321  -13.4720 C   0  0  0  0  0  0  0  0  0  0  0  0
   26.4476  -19.8420  -14.1951 C   0  0  2  0  0  0  0  0  0  0  0  0
   25.3941  -19.4007  -15.0709 N   0  0  0  0  0  0  0  0  0  0  0  0
   25.9562  -19.8132  -12.8241 C   0  0  0  0  0  0  0  0  0  0  0  0
   25.4340  -18.7130  -12.3780 O   0  0  0  0  0  0  0  0  0  0  0  0
   25.9636  -20.8588  -11.8733 N   0  0  0  0  0  0  0  0  0  0  0  0
   25.5419  -20.6628  -10.4733 C   0  0  1  0  0  0  0  0  0  0  0  0
   24.2628  -21.3632  -10.1920 C   0  0  0  0  0  0  0  0  0  0  0  0
   23.0775  -20.7658  -10.8314 C   0  0  0  0  0  0  0  0  0  0  0  0
   22.6030  -21.3420  -12.0098 C   0  0  0  0  0  0  0  0  0  0  0  0
   21.4991  -20.8258  -12.6497 C   0  0  0  0  0  0  0  0  0  0  0  0
   20.8671  -19.7282  -12.1082 C   0  0  0  0  0  0  0  0  0  0  0  0
   21.3186  -19.1434  -10.9455 C   0  0  0  0  0  0  0  0  0  0  0  0
   22.4206  -19.6677  -10.3169 C   0  0  0  0  0  0  0  0  0  0  0  0
   26.6503  -20.9797   -9.5468 C   0  0  0  0  0  0  0  0  0  0  0  0
   27.6074  -21.6591   -9.9370 O   0  0  0  0  0  0  0  0  0  0  0  0
   26.6080  -20.5139   -8.2461 O   0  0  0  0  0  0  0  0  0  0  0  0
  2  1  1  6
  2  9  1  0
  2  3  1  0
  3  4  1  0
  4  5  2  0
  4  8  1  0
  5  6  1  0
  6  7  1  0
  8  7  2  0
  9 10  2  0
 12 11  1  6
 12 14  1  0
 13 12  1  0
 14 15  1  6
 15  9  1  0
 16 17  2  0
 16 14  1  0
 18 16  1  0
 19 18  1  0
 19 27  1  0
 19 20  1  1
 21 20  1  0
 21 26  1  0
 22 21  2  0
 23 22  1  0
 23 24  2  0
 24 25  1  0
 25 26  2  0
 27 28  2  0
 27 29  1  0
M  END
$$$$
