HVF.pdb
     RDKit          3D

 29 30  0  0  1  0  0  0  0  0999 V2000
   23.2684  -21.8831  -15.7875 N   0  0  0  0  0  0  0  0  0  0  0  0
   23.2094  -21.3666  -14.4583 C   0  0  1  0  0  0  0  0  0  0  0  0
   21.9629  -21.8690  -13.7771 C   0  0  0  0  0  0  0  0  0  0  0  0
   20.8050  -21.1167  -14.3244 C   0  0  0  0  0  0  0  0  0  0  0  0
   20.8340  -20.0435  -15.1911 C   0  0  0  0  0  0  0  0  0  0  0  0
   19.5852  -19.6301  -15.4604 N   0  0  0  0  0  0  0  0  0  0  0  0
   18.7504  -20.4396  -14.7650 C   0  0  0  0  0  0  0  0  0  0  0  0
   19.4944  -21.3375  -14.0792 N   0  0  0  0  0  0  0  0  0  0  0  0
   24.4359  -21.7576  -13.6595 C   0  0  0  0  0  0  0  0  0  0  0  0
   24.7588  -22.9362  -13.7373 O   0  0  0  0  0  0  0  0  0  0  0  0
   27.3733  -18.8351  -12.7389 C   0  0  0  0  0  0  0  0  0  0  0  0
   27.5592  -20.3387  -12.6845 C   0  0  2  0  0  0  0  0  0  0  0  0
   27.8385  -20.7924  -14.0810 C   0  0  0  0  0  0  0  0  0  0  0  0
   26.3429  -20.9862  -12.1162 C   0  0  2  0  0  0  0  0  0  0  0  0
   25.1415  -20.8549  -12.8979 N   0  0  0  0  0  0  0  0  0  0  0  0
   26.0235  -20.7116  -10.7218 C   0  0  0  0  0  0  0  0  0  0  0  0
   25.0400  -19.9076  -10.4599 O   0  0  0  0  0  0  0  0  0  0  0  0
   26.6561  -21.2222   -9.5657 N   0  0  0  0  0  0  0  0  0  0  0  0
   26.2588  -20.8256   -8.2015 C   0  0  1  0  0  0  0  0  0  0  0  0
   26.9112  -21.6826   -7.1788 C   0  0  0  0  0  0  0  0  0  0  0  0
   27.8436  -20.9755   -6.2836 C   0  0  0  0  0  0  0  0  0  0  0  0
   29.1842  -20.8922   -6.6602 C   0  0  0  0  0  0  0  0  0  0  0  0
   30.0993  -20.2431   -5.8628 C   0  0  0  0  0  0  0  0  0  0  0  0
   29.6711  -19.6749   -4.6832 C   0  0  0  0  0  0  0  0  0  0  0  0
   28.3522  -19.7453   -4.2919 C   0  0  0  0  0  0  0  0  0  0  0  0
   27.4494  -20.3954   -5.0961 C   0  0  0  0  0  0  0  0  0  0  0  0
   26.4372  -19.3700   -8.0100 C   0  0  0  0  0  0  0  0  0  0  0  0
   27.3608  -18.7795   -8.5828 O   0  0  0  0  0  0  0  0  0  0  0  0
   25.5682  -18.6773   -7.1880 O   0  0  0  0  0  0  0  0  0  0  0  0
  2  1  1  6
  2  9  1  0
  2  3  1  0
  3  4  1  0
  4  5  2  0
  4  8  1  0
  5  6  1  0
  6  7  1  0
  8  7  2  0
  9 10  2  0
 12 11  1  6
 12 14  1  0
 13 12  1  0
 14 15  1  6
 15  9  1  0
 16 17  2  0
 16 14  1  0
 18 16  1  0
 19 18  1  0
 19 27  1  0
 19 20  1  1
 21 20  1  0
 21 26  1  0
 22 21  2  0
 23 22  1  0
 23 24  2  0
 24 25  1  0
 25 26  2  0
 27 28  2  0
 27 29  1  0
M  END
$$$$
