HVF.pdb
     RDKit          3D

 29 30  0  0  1  0  0  0  0  0999 V2000
   21.1911   -7.5217  -18.1972 N   0  0  0  0  0  0  0  0  0  0  0  0
   20.9724   -6.6901  -17.0580 C   0  0  1  0  0  0  0  0  0  0  0  0
   20.0940   -5.5281  -17.4433 C   0  0  0  0  0  0  0  0  0  0  0  0
   20.8909   -4.6141  -18.3011 C   0  0  0  0  0  0  0  0  0  0  0  0
   21.7107   -4.9547  -19.3574 C   0  0  0  0  0  0  0  0  0  0  0  0
   22.2643   -3.8532  -19.8897 N   0  0  0  0  0  0  0  0  0  0  0  0
   21.7992   -2.8010  -19.1738 C   0  0  0  0  0  0  0  0  0  0  0  0
   20.9684   -3.2678  -18.2136 N   0  0  0  0  0  0  0  0  0  0  0  0
   20.3425   -7.4674  -15.9204 C   0  0  0  0  0  0  0  0  0  0  0  0
   19.4019   -8.1860  -16.2336 O   0  0  0  0  0  0  0  0  0  0  0  0
   22.5531   -8.6747  -12.4895 C   0  0  0  0  0  0  0  0  0  0  0  0
   21.1948   -9.1646  -12.9515 C   0  0  2  0  0  0  0  0  0  0  0  0
   21.4390  -10.1529  -14.0459 C   0  0  0  0  0  0  0  0  0  0  0  0
   20.3626   -8.0153  -13.4078 C   0  0  2  0  0  0  0  0  0  0  0  0
   20.7924   -7.3758  -14.6235 N   0  0  0  0  0  0  0  0  0  0  0  0
   20.0415   -6.9861  -12.4284 C   0  0  0  0  0  0  0  0  0  0  0  0
   20.8532   -5.9830  -12.2976 O   0  0  0  0  0  0  0  0  0  0  0  0
   18.9220   -6.9200  -11.5683 N   0  0  0  0  0  0  0  0  0  0  0  0
   18.7075   -5.8045  -10.6272 C   0  0  1  0  0  0  0  0  0  0  0  0
   18.3712   -4.5491  -11.3461 C   0  0  0  0  0  0  0  0  0  0  0  0
   17.9874   -3.4230  -10.4770 C   0  0  0  0  0  0  0  0  0  0  0  0
   18.9671   -2.4914  -10.1335 C   0  0  0  0  0  0  0  0  0  0  0  0
   18.6647   -1.4192   -9.3250 C   0  0  0  0  0  0  0  0  0  0  0  0
   17.3764   -1.2786   -8.8582 C   0  0  0  0  0  0  0  0  0  0  0  0
   16.3934   -2.1866   -9.1849 C   0  0  0  0  0  0  0  0  0  0  0  0
   16.7077   -3.2516   -9.9921 C   0  0  0  0  0  0  0  0  0  0  0  0
   17.7561   -6.1957   -9.5646 C   0  0  0  0  0  0  0  0  0  0  0  0
   17.9420   -5.8226   -8.4001 O   0  0  0  0  0  0  0  0  0  0  0  0
   16.6625   -6.9795   -9.8812 O   0  0  0  0  0  0  0  0  0  0  0  0
  2  1  1  6
  2  9  1  0
  2  3  1  0
  3  4  1  0
  4  5  2  0
  4  8  1  0
  5  6  1  0
  6  7  1  0
  8  7  2  0
  9 10  2  0
 12 11  1  6
 12 14  1  0
 13 12  1  0
 14 15  1  6
 15  9  1  0
 16 17  2  0
 16 14  1  0
 18 16  1  0
 19 18  1  0
 19 27  1  0
 19 20  1  6
 21 20  1  0
 21 26  1  0
 22 21  2  0
 23 22  1  0
 23 24  2  0
 24 25  1  0
 25 26  2  0
 27 28  2  0
 27 29  1  0
M  END
$$$$
