EHP.pdb
     RDKit          3D

 27 28  0  0  1  0  0  0  0  0999 V2000
   12.1282  -16.4458   20.4168 N   0  0  0  0  0  0  0  0  0  0  0  0
   11.4105  -17.0045   21.5287 C   0  0  1  0  0  0  0  0  0  0  0  0
   12.1859  -18.0914   22.1820 C   0  0  0  0  0  0  0  0  0  0  0  0
   12.4313  -19.3085   21.3631 C   0  0  0  0  0  0  0  0  0  0  0  0
   13.3005  -20.3314   21.9236 C   0  0  0  0  0  0  0  0  0  0  0  0
   13.8883  -20.1768   23.0476 O   0  0  0  0  0  0  0  0  0  0  0  0
   10.8928  -15.9648   22.4745 C   0  0  0  0  0  0  0  0  0  0  0  0
   11.5590  -14.9459   22.7546 O   0  0  0  0  0  0  0  0  0  0  0  0
   13.5319  -21.5366   21.2614 O   0  0  0  0  0  0  0  0  0  0  0  0
    9.6286  -16.1816   23.0402 N   0  0  0  0  0  0  0  0  0  0  0  0
    8.9929  -15.4214   24.0638 C   0  0  1  0  0  0  0  0  0  0  0  0
    7.4977  -15.1922   23.8848 C   0  0  0  0  0  0  0  0  0  0  0  0
    6.9193  -14.3480   24.9578 C   0  0  0  0  0  0  0  0  0  0  0  0
    6.7034  -12.9640   24.8187 C   0  0  0  0  0  0  0  0  0  0  0  0
    6.1753  -12.5501   25.9705 N   0  0  0  0  0  0  0  0  0  0  0  0
    6.0474  -13.5782   26.8188 C   0  0  0  0  0  0  0  0  0  0  0  0
    6.5026  -14.6462   26.1824 N   0  0  0  0  0  0  0  0  0  0  0  0
    9.3476  -15.8192   25.4483 C   0  0  0  0  0  0  0  0  0  0  0  0
    8.8885  -16.9919   25.7168 O   0  0  0  0  0  0  0  0  0  0  0  0
   10.0798  -15.0421   26.3425 N   0  0  0  0  0  0  0  0  0  0  0  0
   10.7969  -13.7848   26.0520 C   0  0  0  0  0  0  0  0  0  0  0  0
   10.1470  -12.8796   27.0607 C   0  0  0  0  0  0  0  0  0  0  0  0
    9.8013  -13.8044   28.2167 C   0  0  0  0  0  0  0  0  0  0  0  0
   10.3815  -15.1711   27.7191 C   0  0  1  0  0  0  0  0  0  0  0  0
    9.8537  -16.2435   28.5177 C   0  0  0  0  0  0  0  0  0  0  0  0
   10.3406  -16.7027   29.6926 O   0  0  0  0  0  0  0  0  0  0  0  0
    8.8117  -16.8292   28.0714 O   0  0  0  0  0  0  0  0  0  0  0  0
  2  7  1  0
  2  1  1  6
  3  2  1  0
  4  3  1  0
  5  4  1  0
  5  6  2  0
  7  8  2  0
  9  5  1  0
 10  7  1  0
 10 11  1  0
 11 12  1  1
 12 13  1  0
 13 14  2  0
 15 14  1  0
 16 15  1  0
 17 13  1  0
 17 16  2  0
 18 11  1  0
 18 19  2  0
 20 18  1  0
 21 20  1  0
 22 21  1  0
 23 22  1  0
 24 23  1  0
 24 20  1  0
 24 25  1  1
 26 25  1  0
 27 25  2  0
M  END
$$$$
