EHP.pdb
     RDKit          3D

 27 28  0  0  1  0  0  0  0  0999 V2000
   12.1473  -16.8575   20.9552 N   0  0  0  0  0  0  0  0  0  0  0  0
   10.9160  -17.0705   21.6638 C   0  0  1  0  0  0  0  0  0  0  0  0
   11.0582  -18.1401   22.6861 C   0  0  0  0  0  0  0  0  0  0  0  0
   12.4242  -18.3463   23.2372 C   0  0  0  0  0  0  0  0  0  0  0  0
   12.6066  -19.4267   24.1940 C   0  0  0  0  0  0  0  0  0  0  0  0
   13.7290  -19.6398   24.7665 O   0  0  0  0  0  0  0  0  0  0  0  0
   10.3102  -15.8022   22.1813 C   0  0  0  0  0  0  0  0  0  0  0  0
   11.0187  -14.8374   22.5387 O   0  0  0  0  0  0  0  0  0  0  0  0
   11.5608  -20.2827   24.5376 O   0  0  0  0  0  0  0  0  0  0  0  0
    8.9116  -15.7400   22.2547 N   0  0  0  0  0  0  0  0  0  0  0  0
    8.1147  -14.6709   22.7564 C   0  0  1  0  0  0  0  0  0  0  0  0
    6.9966  -14.1932   21.8389 C   0  0  0  0  0  0  0  0  0  0  0  0
    7.4622  -13.9552   20.4513 C   0  0  0  0  0  0  0  0  0  0  0  0
    7.9632  -12.7171   20.0072 C   0  0  0  0  0  0  0  0  0  0  0  0
    8.2810  -12.8809   18.7231 N   0  0  0  0  0  0  0  0  0  0  0  0
    8.0125  -14.1338   18.3344 C   0  0  0  0  0  0  0  0  0  0  0  0
    7.5215  -14.7565   19.3946 N   0  0  0  0  0  0  0  0  0  0  0  0
    7.6700  -14.8305   24.1627 C   0  0  0  0  0  0  0  0  0  0  0  0
    7.1770  -16.0046   24.3538 O   0  0  0  0  0  0  0  0  0  0  0  0
    7.7709  -13.8541   25.1505 N   0  0  0  0  0  0  0  0  0  0  0  0
    8.2236  -12.4589   24.9830 C   0  0  0  0  0  0  0  0  0  0  0  0
    7.0270  -11.7330   25.5310 C   0  0  0  0  0  0  0  0  0  0  0  0
    6.4734  -12.6786   26.5849 C   0  0  0  0  0  0  0  0  0  0  0  0
    7.5113  -13.8505   26.5418 C   0  0  1  0  0  0  0  0  0  0  0  0
    6.9765  -14.9995   27.2200 C   0  0  0  0  0  0  0  0  0  0  0  0
    6.3500  -16.0593   26.6609 O   0  0  0  0  0  0  0  0  0  0  0  0
    7.1046  -15.0250   28.4893 O   0  0  0  0  0  0  0  0  0  0  0  0
  2  7  1  0
  2  1  1  1
  3  2  1  0
  4  3  1  0
  5  4  1  0
  5  6  2  0
  7  8  2  0
  9  5  1  0
 10  7  1  0
 10 11  1  0
 11 12  1  6
 12 13  1  0
 13 14  2  0
 15 14  1  0
 16 15  1  0
 17 13  1  0
 17 16  2  0
 18 11  1  0
 18 19  2  0
 20 18  1  0
 21 20  1  0
 22 21  1  0
 23 22  1  0
 24 23  1  0
 24 20  1  0
 24 25  1  6
 26 25  1  0
 27 25  2  0
M  END
$$$$
