EHP.pdb
     RDKit          3D

 27 28  0  0  1  0  0  0  0  0999 V2000
    9.3013  -17.3129   19.7483 N   0  0  0  0  0  0  0  0  0  0  0  0
    9.4197  -17.6160   21.1475 C   0  0  1  0  0  0  0  0  0  0  0  0
   10.8188  -17.9641   21.5091 C   0  0  0  0  0  0  0  0  0  0  0  0
   11.8809  -17.4405   20.6092 C   0  0  0  0  0  0  0  0  0  0  0  0
   13.2599  -17.7700   20.9344 C   0  0  0  0  0  0  0  0  0  0  0  0
   13.9089  -18.6666   20.2959 O   0  0  0  0  0  0  0  0  0  0  0  0
    8.7982  -16.5755   22.0276 C   0  0  0  0  0  0  0  0  0  0  0  0
    8.8179  -15.3643   21.7225 O   0  0  0  0  0  0  0  0  0  0  0  0
   13.9445  -17.1182   21.9597 O   0  0  0  0  0  0  0  0  0  0  0  0
    8.1950  -17.0134   23.2149 N   0  0  0  0  0  0  0  0  0  0  0  0
    7.5890  -16.2150   24.2273 C   0  0  1  0  0  0  0  0  0  0  0  0
    6.2627  -16.7312   24.7704 C   0  0  0  0  0  0  0  0  0  0  0  0
    6.3825  -18.0789   25.3770 C   0  0  0  0  0  0  0  0  0  0  0  0
    6.6183  -19.2453   24.6252 C   0  0  0  0  0  0  0  0  0  0  0  0
    6.6670  -20.2504   25.4993 N   0  0  0  0  0  0  0  0  0  0  0  0
    6.4772  -19.7934   26.7436 C   0  0  0  0  0  0  0  0  0  0  0  0
    6.3091  -18.4844   26.6389 N   0  0  0  0  0  0  0  0  0  0  0  0
    8.5085  -15.7642   25.3007 C   0  0  0  0  0  0  0  0  0  0  0  0
    9.2874  -16.7226   25.6650 O   0  0  0  0  0  0  0  0  0  0  0  0
    8.5381  -14.4824   25.8443 N   0  0  0  0  0  0  0  0  0  0  0  0
    8.0582  -13.2356   25.2160 C   0  0  0  0  0  0  0  0  0  0  0  0
    7.0850  -12.7772   26.2656 C   0  0  0  0  0  0  0  0  0  0  0  0
    7.6762  -13.2945   27.5671 C   0  0  0  0  0  0  0  0  0  0  0  0
    9.0051  -13.9602   27.0739 C   0  0  1  0  0  0  0  0  0  0  0  0
    9.5387  -14.8053   28.1071 C   0  0  0  0  0  0  0  0  0  0  0  0
    9.4308  -16.1500   28.1988 O   0  0  0  0  0  0  0  0  0  0  0  0
   10.1851  -14.2261   29.0424 O   0  0  0  0  0  0  0  0  0  0  0  0
  2  7  1  0
  2  1  1  6
  3  2  1  0
  4  3  1  0
  5  4  1  0
  5  6  2  0
  7  8  2  0
  9  5  1  0
 10  7  1  0
 10 11  1  0
 11 12  1  1
 12 13  1  0
 13 14  2  0
 15 14  1  0
 16 15  1  0
 17 13  1  0
 17 16  2  0
 18 11  1  0
 18 19  2  0
 20 18  1  0
 21 20  1  0
 22 21  1  0
 23 22  1  0
 24 23  1  0
 24 20  1  0
 24 25  1  1
 26 25  1  0
 27 25  2  0
M  END
$$$$
