EHP.pdb
     RDKit          3D

 27 28  0  0  1  0  0  0  0  0999 V2000
   10.3332  -15.3983   19.4166 N   0  0  0  0  0  0  0  0  0  0  0  0
   10.2325  -16.1953   20.6075 C   0  0  1  0  0  0  0  0  0  0  0  0
   11.3145  -17.2123   20.6710 C   0  0  0  0  0  0  0  0  0  0  0  0
   12.6935  -16.7238   20.4025 C   0  0  0  0  0  0  0  0  0  0  0  0
   13.7574  -17.7140   20.3429 C   0  0  0  0  0  0  0  0  0  0  0  0
   13.5429  -18.9512   20.5798 O   0  0  0  0  0  0  0  0  0  0  0  0
   10.0867  -15.3745   21.8519 C   0  0  0  0  0  0  0  0  0  0  0  0
   10.5633  -14.2228   21.9352 O   0  0  0  0  0  0  0  0  0  0  0  0
   15.0669  -17.3607   20.0190 O   0  0  0  0  0  0  0  0  0  0  0  0
    9.3962  -15.9519   22.9267 N   0  0  0  0  0  0  0  0  0  0  0  0
    8.7840  -15.2833   24.0258 C   0  0  1  0  0  0  0  0  0  0  0  0
    7.2814  -15.0617   23.9106 C   0  0  0  0  0  0  0  0  0  0  0  0
    6.7378  -14.2564   25.0307 C   0  0  0  0  0  0  0  0  0  0  0  0
    6.1465  -14.8254   26.1742 C   0  0  0  0  0  0  0  0  0  0  0  0
    5.7834  -13.8070   26.9539 N   0  0  0  0  0  0  0  0  0  0  0  0
    6.1058  -12.6425   26.3768 C   0  0  0  0  0  0  0  0  0  0  0  0
    6.6784  -12.9441   25.2217 N   0  0  0  0  0  0  0  0  0  0  0  0
    9.1863  -15.7836   25.3633 C   0  0  0  0  0  0  0  0  0  0  0  0
    8.8979  -17.0323   25.4878 O   0  0  0  0  0  0  0  0  0  0  0  0
    9.7966  -15.0189   26.3543 N   0  0  0  0  0  0  0  0  0  0  0  0
   10.1565  -13.5889   26.2830 C   0  0  0  0  0  0  0  0  0  0  0  0
    9.4136  -13.0768   27.4850 C   0  0  0  0  0  0  0  0  0  0  0  0
    9.4199  -14.2516   28.4500 C   0  0  0  0  0  0  0  0  0  0  0  0
   10.2587  -15.3118   27.6595 C   0  0  1  0  0  0  0  0  0  0  0  0
   10.0885  -16.6091   28.2549 C   0  0  0  0  0  0  0  0  0  0  0  0
    9.0030  -17.0667   28.9187 O   0  0  0  0  0  0  0  0  0  0  0  0
   11.0676  -17.4202   28.1476 O   0  0  0  0  0  0  0  0  0  0  0  0
  2  7  1  0
  2  1  1  6
  3  2  1  0
  4  3  1  0
  5  4  1  0
  5  6  2  0
  7  8  2  0
  9  5  1  0
 10  7  1  0
 10 11  1  0
 11 12  1  6
 12 13  1  0
 13 14  2  0
 15 14  1  0
 16 15  1  0
 17 13  1  0
 17 16  2  0
 18 11  1  0
 18 19  2  0
 20 18  1  0
 21 20  1  0
 22 21  1  0
 23 22  1  0
 24 23  1  0
 24 20  1  0
 24 25  1  1
 26 25  1  0
 27 25  2  0
M  END
$$$$
