EHP.pdb
     RDKit          3D

 27 28  0  0  1  0  0  0  0  0999 V2000
   11.3666  -17.5530   21.1146 N   0  0  0  0  0  0  0  0  0  0  0  0
   11.4521  -16.1355   20.8981 C   0  0  1  0  0  0  0  0  0  0  0  0
   11.9561  -15.8259   19.5345 C   0  0  0  0  0  0  0  0  0  0  0  0
   13.2802  -15.1528   19.4593 C   0  0  0  0  0  0  0  0  0  0  0  0
   13.4667  -14.1509   18.4213 C   0  0  0  0  0  0  0  0  0  0  0  0
   14.5169  -13.4253   18.3636 O   0  0  0  0  0  0  0  0  0  0  0  0
   10.1959  -15.4088   21.2687 C   0  0  0  0  0  0  0  0  0  0  0  0
    9.3710  -15.0458   20.4037 O   0  0  0  0  0  0  0  0  0  0  0  0
   12.5071  -13.9359   17.4326 O   0  0  0  0  0  0  0  0  0  0  0  0
    9.9819  -15.1456   22.6289 N   0  0  0  0  0  0  0  0  0  0  0  0
    8.9794  -15.7022   23.4743 C   0  0  1  0  0  0  0  0  0  0  0  0
    8.6135  -17.1548   23.1978 C   0  0  0  0  0  0  0  0  0  0  0  0
    7.4959  -17.6314   24.0477 C   0  0  0  0  0  0  0  0  0  0  0  0
    6.2622  -16.9611   24.1473 C   0  0  0  0  0  0  0  0  0  0  0  0
    5.5151  -17.6755   24.9890 N   0  0  0  0  0  0  0  0  0  0  0  0
    6.1963  -18.7439   25.4223 C   0  0  0  0  0  0  0  0  0  0  0  0
    7.3838  -18.6911   24.8393 N   0  0  0  0  0  0  0  0  0  0  0  0
    9.1574  -15.4239   24.9206 C   0  0  0  0  0  0  0  0  0  0  0  0
    9.8685  -16.3422   25.4767 O   0  0  0  0  0  0  0  0  0  0  0  0
    8.6362  -14.3224   25.5947 N   0  0  0  0  0  0  0  0  0  0  0  0
    8.0989  -13.0836   24.9979 C   0  0  0  0  0  0  0  0  0  0  0  0
    6.7244  -13.0807   25.6060 C   0  0  0  0  0  0  0  0  0  0  0  0
    6.9164  -13.7581   26.9534 C   0  0  0  0  0  0  0  0  0  0  0  0
    8.4607  -14.0171   26.9654 C   0  0  1  0  0  0  0  0  0  0  0  0
    8.7886  -14.9562   28.0032 C   0  0  0  0  0  0  0  0  0  0  0  0
    9.1905  -14.6734   29.2629 O   0  0  0  0  0  0  0  0  0  0  0  0
    8.6916  -16.1933   27.7063 O   0  0  0  0  0  0  0  0  0  0  0  0
  2  7  1  0
  2  1  1  6
  3  2  1  0
  4  3  1  0
  5  4  1  0
  5  6  2  0
  7  8  2  0
  9  5  1  0
 10  7  1  0
 10 11  1  0
 11 12  1  1
 12 13  1  0
 13 14  2  0
 15 14  1  0
 16 15  1  0
 17 13  1  0
 17 16  2  0
 18 11  1  0
 18 19  2  0
 20 18  1  0
 21 20  1  0
 22 21  1  0
 23 22  1  0
 24 23  1  0
 24 20  1  0
 24 25  1  1
 26 25  1  0
 27 25  2  0
M  END
$$$$
