EHP.pdb
     RDKit          3D

 27 28  0  0  1  0  0  0  0  0999 V2000
   10.0617  -14.4884   20.1023 N   0  0  0  0  0  0  0  0  0  0  0  0
    8.8228  -13.7614   20.1010 C   0  0  1  0  0  0  0  0  0  0  0  0
    8.1707  -13.8062   18.7661 C   0  0  0  0  0  0  0  0  0  0  0  0
    8.4048  -15.0340   17.9600 C   0  0  0  0  0  0  0  0  0  0  0  0
    8.8745  -14.8618   16.5942 C   0  0  0  0  0  0  0  0  0  0  0  0
   10.0464  -15.2206   16.2325 O   0  0  0  0  0  0  0  0  0  0  0  0
    7.9222  -14.1353   21.2378 C   0  0  0  0  0  0  0  0  0  0  0  0
    6.7669  -13.6704   21.3371 O   0  0  0  0  0  0  0  0  0  0  0  0
    8.0645  -14.2988   15.6085 O   0  0  0  0  0  0  0  0  0  0  0  0
    8.4284  -15.0272   22.1936 N   0  0  0  0  0  0  0  0  0  0  0  0
    7.8031  -15.4546   23.4003 C   0  0  1  0  0  0  0  0  0  0  0  0
    7.3492  -16.9084   23.4303 C   0  0  0  0  0  0  0  0  0  0  0  0
    6.4221  -17.2377   22.3209 C   0  0  0  0  0  0  0  0  0  0  0  0
    5.0230  -17.1236   22.4251 C   0  0  0  0  0  0  0  0  0  0  0  0
    4.5282  -17.4981   21.2453 N   0  0  0  0  0  0  0  0  0  0  0  0
    5.5201  -17.8387   20.4127 C   0  0  0  0  0  0  0  0  0  0  0  0
    6.6473  -17.6719   21.0868 N   0  0  0  0  0  0  0  0  0  0  0  0
    8.5035  -15.0497   24.6438 C   0  0  0  0  0  0  0  0  0  0  0  0
    9.4605  -15.8677   24.9142 O   0  0  0  0  0  0  0  0  0  0  0  0
    8.1827  -13.9375   25.4181 N   0  0  0  0  0  0  0  0  0  0  0  0
    7.5013  -12.7063   24.9717 C   0  0  0  0  0  0  0  0  0  0  0  0
    6.3434  -12.6919   25.9300 C   0  0  0  0  0  0  0  0  0  0  0  0
    6.8951  -13.3503   27.1843 C   0  0  0  0  0  0  0  0  0  0  0  0
    8.3853  -13.6123   26.7804 C   0  0  1  0  0  0  0  0  0  0  0  0
    8.9843  -14.5370   27.7036 C   0  0  0  0  0  0  0  0  0  0  0  0
    8.9161  -15.8870   27.6669 O   0  0  0  0  0  0  0  0  0  0  0  0
    9.6541  -14.0319   28.6650 O   0  0  0  0  0  0  0  0  0  0  0  0
  2  7  1  0
  2  1  1  6
  3  2  1  0
  4  3  1  0
  5  4  1  0
  5  6  2  0
  7  8  2  0
  9  5  1  0
 10  7  1  0
 10 11  1  0
 11 12  1  6
 12 13  1  0
 13 14  2  0
 15 14  1  0
 16 15  1  0
 17 13  1  0
 17 16  2  0
 18 11  1  0
 18 19  2  0
 20 18  1  0
 21 20  1  0
 22 21  1  0
 23 22  1  0
 24 23  1  0
 24 20  1  0
 24 25  1  1
 26 25  1  0
 27 25  2  0
M  END
$$$$
