EHP.pdb
     RDKit          3D

 27 28  0  0  1  0  0  0  0  0999 V2000
   10.7101  -16.7185   19.8490 N   0  0  0  0  0  0  0  0  0  0  0  0
   10.9482  -17.0265   21.2318 C   0  0  1  0  0  0  0  0  0  0  0  0
   12.3718  -17.3813   21.4697 C   0  0  0  0  0  0  0  0  0  0  0  0
   12.9314  -18.4644   20.6177 C   0  0  0  0  0  0  0  0  0  0  0  0
   14.3245  -18.8290   20.8233 C   0  0  0  0  0  0  0  0  0  0  0  0
   15.2607  -17.9596   20.8017 O   0  0  0  0  0  0  0  0  0  0  0  0
   10.4096  -15.9864   22.1653 C   0  0  0  0  0  0  0  0  0  0  0  0
   10.6239  -14.7694   21.9822 O   0  0  0  0  0  0  0  0  0  0  0  0
   14.7071  -20.1491   21.0591 O   0  0  0  0  0  0  0  0  0  0  0  0
    9.6567  -16.4323   23.2606 N   0  0  0  0  0  0  0  0  0  0  0  0
    9.0422  -15.6400   24.2727 C   0  0  1  0  0  0  0  0  0  0  0  0
    7.5563  -15.3631   24.0840 C   0  0  0  0  0  0  0  0  0  0  0  0
    7.0080  -14.4651   25.1289 C   0  0  0  0  0  0  0  0  0  0  0  0
    6.2353  -14.9237   26.2124 C   0  0  0  0  0  0  0  0  0  0  0  0
    5.9270  -13.8465   26.9344 N   0  0  0  0  0  0  0  0  0  0  0  0
    6.4521  -12.7480   26.3772 C   0  0  0  0  0  0  0  0  0  0  0  0
    7.0966  -13.1509   25.2932 N   0  0  0  0  0  0  0  0  0  0  0  0
    9.3772  -16.0340   25.6632 C   0  0  0  0  0  0  0  0  0  0  0  0
    8.9747  -17.2328   25.9061 O   0  0  0  0  0  0  0  0  0  0  0  0
   10.0396  -15.2290   26.5865 N   0  0  0  0  0  0  0  0  0  0  0  0
   10.4814  -13.8330   26.3980 C   0  0  0  0  0  0  0  0  0  0  0  0
    9.7800  -13.1828   27.5574 C   0  0  0  0  0  0  0  0  0  0  0  0
    9.7264  -14.2741   28.6145 C   0  0  0  0  0  0  0  0  0  0  0  0
   10.4952  -15.4421   27.9094 C   0  0  1  0  0  0  0  0  0  0  0  0
   10.2550  -16.6748   28.6087 C   0  0  0  0  0  0  0  0  0  0  0  0
   11.1675  -17.6152   28.9426 O   0  0  0  0  0  0  0  0  0  0  0  0
    9.0493  -16.9112   28.9529 O   0  0  0  0  0  0  0  0  0  0  0  0
  2  7  1  0
  2  1  1  6
  3  2  1  0
  4  3  1  0
  5  4  1  0
  5  6  2  0
  7  8  2  0
  9  5  1  0
 10  7  1  0
 10 11  1  0
 11 12  1  1
 12 13  1  0
 13 14  2  0
 15 14  1  0
 16 15  1  0
 17 13  1  0
 17 16  2  0
 18 11  1  0
 18 19  2  0
 20 18  1  0
 21 20  1  0
 22 21  1  0
 23 22  1  0
 24 23  1  0
 24 20  1  0
 24 25  1  1
 26 25  1  0
 27 25  2  0
M  END
$$$$
