EHP.pdb
     RDKit          3D

 27 28  0  0  1  0  0  0  0  0999 V2000
   12.1330  -16.3554   20.5802 N   0  0  0  0  0  0  0  0  0  0  0  0
   11.1894  -16.9484   21.4864 C   0  0  1  0  0  0  0  0  0  0  0  0
   11.6344  -18.2971   21.9249 C   0  0  0  0  0  0  0  0  0  0  0  0
   13.0895  -18.4566   22.1885 C   0  0  0  0  0  0  0  0  0  0  0  0
   13.5071  -19.6017   22.9823 C   0  0  0  0  0  0  0  0  0  0  0  0
   14.3813  -19.4990   23.9086 O   0  0  0  0  0  0  0  0  0  0  0  0
   10.7996  -16.0351   22.6078 C   0  0  0  0  0  0  0  0  0  0  0  0
   11.5855  -15.1707   23.0503 O   0  0  0  0  0  0  0  0  0  0  0  0
   12.9686  -20.8710   22.7734 O   0  0  0  0  0  0  0  0  0  0  0  0
    9.5155  -16.1907   23.1481 N   0  0  0  0  0  0  0  0  0  0  0  0
    8.9028  -15.4107   24.1708 C   0  0  1  0  0  0  0  0  0  0  0  0
    7.4265  -15.0959   23.9669 C   0  0  0  0  0  0  0  0  0  0  0  0
    6.8791  -14.2214   25.0320 C   0  0  0  0  0  0  0  0  0  0  0  0
    6.7971  -12.8212   24.9144 C   0  0  0  0  0  0  0  0  0  0  0  0
    6.2569  -12.3813   26.0508 N   0  0  0  0  0  0  0  0  0  0  0  0
    5.9970  -13.4084   26.8696 C   0  0  0  0  0  0  0  0  0  0  0  0
    6.3814  -14.5021   26.2302 N   0  0  0  0  0  0  0  0  0  0  0  0
    9.2073  -15.8472   25.5556 C   0  0  0  0  0  0  0  0  0  0  0  0
    8.7283  -17.0215   25.7785 O   0  0  0  0  0  0  0  0  0  0  0  0
    9.9167  -15.1008   26.4932 N   0  0  0  0  0  0  0  0  0  0  0  0
   10.5170  -13.7658   26.3012 C   0  0  0  0  0  0  0  0  0  0  0  0
    9.8455  -13.0190   27.4195 C   0  0  0  0  0  0  0  0  0  0  0  0
    9.6293  -14.0760   28.4906 C   0  0  0  0  0  0  0  0  0  0  0  0
   10.2924  -15.3354   27.8373 C   0  0  1  0  0  0  0  0  0  0  0  0
    9.8898  -16.5198   28.5454 C   0  0  0  0  0  0  0  0  0  0  0  0
    9.1452  -17.5427   28.0684 O   0  0  0  0  0  0  0  0  0  0  0  0
   10.2750  -16.6198   29.7577 O   0  0  0  0  0  0  0  0  0  0  0  0
  2  7  1  0
  2  1  1  1
  3  2  1  0
  4  3  1  0
  5  4  1  0
  5  6  2  0
  7  8  2  0
  9  5  1  0
 10  7  1  0
 10 11  1  0
 11 12  1  6
 12 13  1  0
 13 14  2  0
 15 14  1  0
 16 15  1  0
 17 13  1  0
 17 16  2  0
 18 11  1  0
 18 19  2  0
 20 18  1  0
 21 20  1  0
 22 21  1  0
 23 22  1  0
 24 23  1  0
 24 20  1  0
 24 25  1  1
 26 25  1  0
 27 25  2  0
M  END
$$$$
