EHP.pdb
     RDKit          3D

 27 28  0  0  1  0  0  0  0  0999 V2000
   11.1147  -16.7650   19.8441 N   0  0  0  0  0  0  0  0  0  0  0  0
   11.4499  -16.9070   21.2337 C   0  0  1  0  0  0  0  0  0  0  0  0
   12.9211  -16.9865   21.4299 C   0  0  0  0  0  0  0  0  0  0  0  0
   13.4273  -18.1975   22.1295 C   0  0  0  0  0  0  0  0  0  0  0  0
   14.7448  -18.6880   21.7559 C   0  0  0  0  0  0  0  0  0  0  0  0
   15.8114  -18.2406   22.2992 O   0  0  0  0  0  0  0  0  0  0  0  0
   10.7669  -15.9004   22.1076 C   0  0  0  0  0  0  0  0  0  0  0  0
   11.0208  -14.6803   22.0215 O   0  0  0  0  0  0  0  0  0  0  0  0
   14.9083  -19.6767   20.7862 O   0  0  0  0  0  0  0  0  0  0  0  0
    9.8309  -16.3816   23.0337 N   0  0  0  0  0  0  0  0  0  0  0  0
    9.1199  -15.6360   24.0177 C   0  0  1  0  0  0  0  0  0  0  0  0
    7.6342  -15.4344   23.7481 C   0  0  0  0  0  0  0  0  0  0  0  0
    6.9876  -14.5578   24.7542 C   0  0  0  0  0  0  0  0  0  0  0  0
    6.7894  -13.1777   24.5614 C   0  0  0  0  0  0  0  0  0  0  0  0
    6.1851  -12.7291   25.6616 N   0  0  0  0  0  0  0  0  0  0  0  0
    5.9931  -13.7322   26.5277 C   0  0  0  0  0  0  0  0  0  0  0  0
    6.4855  -14.8195   25.9548 N   0  0  0  0  0  0  0  0  0  0  0  0
    9.3970  -16.0304   25.4207 C   0  0  0  0  0  0  0  0  0  0  0  0
    9.0806  -17.2630   25.6179 O   0  0  0  0  0  0  0  0  0  0  0  0
    9.9301  -15.1936   26.3978 N   0  0  0  0  0  0  0  0  0  0  0  0
   10.2907  -13.7693   26.2527 C   0  0  0  0  0  0  0  0  0  0  0  0
    9.4592  -13.1800   27.3575 C   0  0  0  0  0  0  0  0  0  0  0  0
    9.3968  -14.2842   28.4006 C   0  0  0  0  0  0  0  0  0  0  0  0
   10.2946  -15.3907   27.7510 C   0  0  1  0  0  0  0  0  0  0  0  0
   10.0839  -16.6443   28.4220 C   0  0  0  0  0  0  0  0  0  0  0  0
    9.1448  -17.5747   28.1379 O   0  0  0  0  0  0  0  0  0  0  0  0
   10.8669  -16.9114   29.3935 O   0  0  0  0  0  0  0  0  0  0  0  0
  2  7  1  0
  2  1  1  6
  3  2  1  0
  4  3  1  0
  5  4  1  0
  5  6  2  0
  7  8  2  0
  9  5  1  0
 10  7  1  0
 10 11  1  0
 11 12  1  6
 12 13  1  0
 13 14  2  0
 15 14  1  0
 16 15  1  0
 17 13  1  0
 17 16  2  0
 18 11  1  0
 18 19  2  0
 20 18  1  0
 21 20  1  0
 22 21  1  0
 23 22  1  0
 24 23  1  0
 24 20  1  0
 24 25  1  1
 26 25  1  0
 27 25  2  0
M  END
$$$$
