EHP.pdb
     RDKit          3D

 27 28  0  0  1  0  0  0  0  0999 V2000
   10.6258  -14.2877   18.8265 N   0  0  0  0  0  0  0  0  0  0  0  0
   10.7484  -15.1201   19.9908 C   0  0  1  0  0  0  0  0  0  0  0  0
   12.1734  -15.3958   20.3111 C   0  0  0  0  0  0  0  0  0  0  0  0
   13.0227  -14.2111   20.6065 C   0  0  0  0  0  0  0  0  0  0  0  0
   14.4213  -14.4501   20.9272 C   0  0  0  0  0  0  0  0  0  0  0  0
   14.9385  -14.0583   22.0280 O   0  0  0  0  0  0  0  0  0  0  0  0
    9.9418  -14.6264   21.1522 C   0  0  0  0  0  0  0  0  0  0  0  0
    9.5495  -13.4422   21.2197 O   0  0  0  0  0  0  0  0  0  0  0  0
   15.2676  -15.1246   20.0477 O   0  0  0  0  0  0  0  0  0  0  0  0
    9.6463  -15.5461   22.1681 N   0  0  0  0  0  0  0  0  0  0  0  0
    8.7591  -15.3695   23.2688 C   0  0  1  0  0  0  0  0  0  0  0  0
    7.4809  -16.1972   23.2267 C   0  0  0  0  0  0  0  0  0  0  0  0
    6.5669  -15.8895   24.3530 C   0  0  0  0  0  0  0  0  0  0  0  0
    6.4002  -16.7365   25.4647 C   0  0  0  0  0  0  0  0  0  0  0  0
    5.5144  -16.1384   26.2613 N   0  0  0  0  0  0  0  0  0  0  0  0
    5.1160  -14.9782   25.7242 C   0  0  0  0  0  0  0  0  0  0  0  0
    5.7657  -14.8551   24.5773 N   0  0  0  0  0  0  0  0  0  0  0  0
    9.4078  -15.3889   24.6028 C   0  0  0  0  0  0  0  0  0  0  0  0
   10.0173  -16.5065   24.7964 O   0  0  0  0  0  0  0  0  0  0  0  0
    9.3735  -14.3464   25.5256 N   0  0  0  0  0  0  0  0  0  0  0  0
    8.9705  -12.9481   25.2772 C   0  0  0  0  0  0  0  0  0  0  0  0
    7.8809  -12.8087   26.3032 C   0  0  0  0  0  0  0  0  0  0  0  0
    8.3156  -13.7322   27.4298 C   0  0  0  0  0  0  0  0  0  0  0  0
    9.6931  -14.2571   26.9013 C   0  0  1  0  0  0  0  0  0  0  0  0
   10.1020  -15.4044   27.6646 C   0  0  0  0  0  0  0  0  0  0  0  0
    9.9976  -16.7038   27.3050 O   0  0  0  0  0  0  0  0  0  0  0  0
   10.6202  -15.1754   28.8078 O   0  0  0  0  0  0  0  0  0  0  0  0
  2  7  1  0
  2  1  1  6
  3  2  1  0
  4  3  1  0
  5  4  1  0
  5  6  2  0
  7  8  2  0
  9  5  1  0
 10  7  1  0
 10 11  1  0
 11 12  1  1
 12 13  1  0
 13 14  2  0
 15 14  1  0
 16 15  1  0
 17 13  1  0
 17 16  2  0
 18 11  1  0
 18 19  2  0
 20 18  1  0
 21 20  1  0
 22 21  1  0
 23 22  1  0
 24 23  1  0
 24 20  1  0
 24 25  1  1
 26 25  1  0
 27 25  2  0
M  END
$$$$
