EHP.pdb
     RDKit          3D

 27 28  0  0  1  0  0  0  0  0999 V2000
   10.1010  -14.7701   20.4582 N   0  0  0  0  0  0  0  0  0  0  0  0
    8.9150  -13.9873   20.6684 C   0  0  1  0  0  0  0  0  0  0  0  0
    8.0766  -13.9357   19.4421 C   0  0  0  0  0  0  0  0  0  0  0  0
    8.7482  -13.4544   18.2054 C   0  0  0  0  0  0  0  0  0  0  0  0
    7.9824  -13.4860   16.9691 C   0  0  0  0  0  0  0  0  0  0  0  0
    6.7050  -13.4539   16.9646 O   0  0  0  0  0  0  0  0  0  0  0  0
    8.1683  -14.3752   21.9075 C   0  0  0  0  0  0  0  0  0  0  0  0
    7.1481  -13.7562   22.2770 O   0  0  0  0  0  0  0  0  0  0  0  0
    8.6073  -13.5487   15.7240 O   0  0  0  0  0  0  0  0  0  0  0  0
    8.6626  -15.4612   22.6435 N   0  0  0  0  0  0  0  0  0  0  0  0
    8.1992  -15.9402   23.9027 C   0  0  1  0  0  0  0  0  0  0  0  0
    8.0014  -17.4472   24.0042 C   0  0  0  0  0  0  0  0  0  0  0  0
    7.6272  -17.8807   25.3720 C   0  0  0  0  0  0  0  0  0  0  0  0
    6.3527  -18.3787   25.7019 C   0  0  0  0  0  0  0  0  0  0  0  0
    6.3879  -18.6643   27.0034 N   0  0  0  0  0  0  0  0  0  0  0  0
    7.5945  -18.3787   27.5090 C   0  0  0  0  0  0  0  0  0  0  0  0
    8.3186  -17.9094   26.5048 N   0  0  0  0  0  0  0  0  0  0  0  0
    8.9006  -15.3759   25.0818 C   0  0  0  0  0  0  0  0  0  0  0  0
    9.9870  -16.0252   25.3189 O   0  0  0  0  0  0  0  0  0  0  0  0
    8.4577  -14.2908   25.8339 N   0  0  0  0  0  0  0  0  0  0  0  0
    7.6292  -13.1611   25.3681 C   0  0  0  0  0  0  0  0  0  0  0  0
    6.4883  -13.2608   26.3415 C   0  0  0  0  0  0  0  0  0  0  0  0
    7.1283  -13.8171   27.6033 C   0  0  0  0  0  0  0  0  0  0  0  0
    8.6347  -13.9097   27.1854 C   0  0  1  0  0  0  0  0  0  0  0  0
    9.3498  -14.7330   28.1218 C   0  0  0  0  0  0  0  0  0  0  0  0
    9.6171  -16.0538   28.0097 O   0  0  0  0  0  0  0  0  0  0  0  0
    9.7805  -14.1578   29.1761 O   0  0  0  0  0  0  0  0  0  0  0  0
  2  7  1  0
  2  1  1  6
  3  2  1  0
  4  3  1  0
  5  4  1  0
  5  6  2  0
  7  8  2  0
  9  5  1  0
 10  7  1  0
 10 11  1  0
 11 12  1  6
 12 13  1  0
 13 14  2  0
 15 14  1  0
 16 15  1  0
 17 13  1  0
 17 16  2  0
 18 11  1  0
 18 19  2  0
 20 18  1  0
 21 20  1  0
 22 21  1  0
 23 22  1  0
 24 23  1  0
 24 20  1  0
 24 25  1  1
 26 25  1  0
 27 25  2  0
M  END
$$$$
