YCQ.pdb
     RDKit          3D

 28 28  0  0  1  0  0  0  0  0999 V2000
   16.5378  -18.3354  -17.0487 O   0  0  0  0  0  0  0  0  0  0  0  0
   17.6380  -17.4562  -17.0622 C   0  0  0  0  0  0  0  0  0  0  0  0
   18.9045  -17.9255  -16.8297 C   0  0  0  0  0  0  0  0  0  0  0  0
   19.9789  -17.0451  -16.8466 C   0  0  0  0  0  0  0  0  0  0  0  0
   19.8106  -15.6998  -17.0922 C   0  0  0  0  0  0  0  0  0  0  0  0
   20.9811  -14.7891  -17.1021 C   0  0  0  0  0  0  0  0  0  0  0  0
   21.2115  -14.3728  -18.5319 C   0  0  2  0  0  0  0  0  0  0  0  0
   21.6276  -15.5413  -19.2654 N   0  0  0  0  0  0  0  0  0  0  0  0
   22.1619  -13.2470  -18.6677 C   0  0  0  0  0  0  0  0  0  0  0  0
   23.3505  -13.5088  -18.9779 O   0  0  0  0  0  0  0  0  0  0  0  0
   18.5266  -15.2538  -17.3230 C   0  0  0  0  0  0  0  0  0  0  0  0
   17.4380  -16.1150  -17.3111 C   0  0  0  0  0  0  0  0  0  0  0  0
   21.7985  -11.8903  -18.4654 N   0  0  0  0  0  0  0  0  0  0  0  0
   22.6982  -10.7618  -18.7357 C   0  0  1  0  0  0  0  0  0  0  0  0
   23.1956  -10.8560  -20.1625 C   0  0  0  0  0  0  0  0  0  0  0  0
   24.1115   -9.4532  -20.7396 S   0  0  0  0  0  0  0  0  0  0  0  0
   22.0637   -9.4859  -18.3980 C   0  0  0  0  0  0  0  0  0  0  0  0
   20.8431   -9.2250  -18.6703 O   0  0  0  0  0  0  0  0  0  0  0  0
   21.1781   -7.3762  -13.3707 N   0  0  0  0  0  0  0  0  0  0  0  0
   21.9377   -6.2000  -13.7393 C   0  0  0  0  0  0  0  0  0  0  0  0
   22.2201   -5.3819  -12.8416 O   0  0  0  0  0  0  0  0  0  0  0  0
   22.3067   -6.0901  -15.1599 C   0  0  0  0  0  0  0  0  0  0  0  0
   21.7711   -7.2691  -15.9198 C   0  0  0  0  0  0  0  0  0  0  0  0
   22.1396   -7.2129  -17.3575 C   0  0  2  0  0  0  0  0  0  0  0  0
   22.7911   -8.4699  -17.7397 N   0  0  0  0  0  0  0  0  0  0  0  0
   23.1142   -6.0763  -17.5147 C   0  0  0  0  0  0  0  0  0  0  0  0
   22.6555   -4.7928  -17.3103 O   0  0  0  0  0  0  0  0  0  0  0  0
   24.3145   -6.2505  -17.8212 O   0  0  0  0  0  0  0  0  0  0  0  0
  2  1  1  0
  3  2  2  0
  4  3  1  0
  5  4  2  0
  5 11  1  0
  6  5  1  0
  7  6  1  0
  7  9  1  0
  7  8  1  6
  9 10  2  0
 11 12  2  0
 12  2  1  0
 13  9  1  0
 13 14  1  0
 14 15  1  6
 15 16  1  0
 17 14  1  0
 17 18  2  0
 20 22  1  0
 20 19  1  0
 21 20  2  0
 23 22  1  0
 24 23  1  1
 24 25  1  0
 25 17  1  0
 26 27  1  0
 26 24  1  0
 28 26  2  0
M  END
$$$$
