YCQ.pdb
     RDKit          3D

 28 28  0  0  1  0  0  0  0  0999 V2000
   17.7505  -30.4098   -7.1273 O   0  0  0  0  0  0  0  0  0  0  0  0
   17.6624  -29.0320   -7.4055 C   0  0  0  0  0  0  0  0  0  0  0  0
   18.2899  -28.5042   -8.5038 C   0  0  0  0  0  0  0  0  0  0  0  0
   18.1932  -27.1430   -8.7640 C   0  0  0  0  0  0  0  0  0  0  0  0
   17.4787  -26.2967   -7.9444 C   0  0  0  0  0  0  0  0  0  0  0  0
   17.3975  -24.8484   -8.2532 C   0  0  0  0  0  0  0  0  0  0  0  0
   18.6724  -24.2141   -7.7600 C   0  0  2  0  0  0  0  0  0  0  0  0
   18.7118  -24.3692   -6.3279 N   0  0  0  0  0  0  0  0  0  0  0  0
   18.8274  -22.8052   -8.1846 C   0  0  0  0  0  0  0  0  0  0  0  0
   18.9854  -21.9322   -7.2957 O   0  0  0  0  0  0  0  0  0  0  0  0
   16.8572  -26.8531   -6.8467 C   0  0  0  0  0  0  0  0  0  0  0  0
   16.9400  -28.2102   -6.5668 C   0  0  0  0  0  0  0  0  0  0  0  0
   18.8063  -22.3925   -9.5422 N   0  0  0  0  0  0  0  0  0  0  0  0
   19.8204  -21.5131  -10.1372 C   0  0  1  0  0  0  0  0  0  0  0  0
   21.1969  -22.0303   -9.7772 C   0  0  0  0  0  0  0  0  0  0  0  0
   22.4992  -20.8307   -9.8476 S   0  0  0  0  0  0  0  0  0  0  0  0
   19.5944  -21.3403  -11.5738 C   0  0  0  0  0  0  0  0  0  0  0  0
   19.5265  -22.3223  -12.3881 O   0  0  0  0  0  0  0  0  0  0  0  0
   17.4537  -16.2460  -14.2465 N   0  0  0  0  0  0  0  0  0  0  0  0
   17.7372  -17.0052  -15.4462 C   0  0  0  0  0  0  0  0  0  0  0  0
   17.2576  -16.5974  -16.5226 O   0  0  0  0  0  0  0  0  0  0  0  0
   18.5786  -18.1998  -15.2693 C   0  0  0  0  0  0  0  0  0  0  0  0
   18.8303  -18.4358  -13.8080 C   0  0  0  0  0  0  0  0  0  0  0  0
   18.9101  -19.8840  -13.4884 C   0  0  2  0  0  0  0  0  0  0  0  0
   19.4356  -20.0517  -12.1296 N   0  0  0  0  0  0  0  0  0  0  0  0
   19.8683  -20.4970  -14.4746 C   0  0  0  0  0  0  0  0  0  0  0  0
   19.3535  -21.0309  -15.6363 O   0  0  0  0  0  0  0  0  0  0  0  0
   21.1036  -20.5401  -14.2818 O   0  0  0  0  0  0  0  0  0  0  0  0
  2  1  1  0
  3  2  2  0
  4  3  1  0
  5  4  2  0
  5 11  1  0
  6  5  1  0
  7  6  1  0
  7  9  1  0
  7  8  1  1
  9 10  2  0
 11 12  2  0
 12  2  1  0
 13  9  1  0
 13 14  1  0
 14 15  1  6
 15 16  1  0
 17 14  1  0
 17 18  2  0
 20 22  1  0
 20 19  1  0
 21 20  2  0
 23 22  1  0
 24 23  1  6
 24 25  1  0
 25 17  1  0
 26 27  1  0
 26 24  1  0
 28 26  2  0
M  END
$$$$
