YCQ.pdb
     RDKit          3D

 28 28  0  0  1  0  0  0  0  0999 V2000
   28.2103  -26.7004  -17.4549 O   0  0  0  0  0  0  0  0  0  0  0  0
   27.3738  -25.9288  -16.6252 C   0  0  0  0  0  0  0  0  0  0  0  0
   27.5444  -24.5717  -16.5369 C   0  0  0  0  0  0  0  0  0  0  0  0
   26.7109  -23.8251  -15.7139 C   0  0  0  0  0  0  0  0  0  0  0  0
   25.7065  -24.4113  -14.9748 C   0  0  0  0  0  0  0  0  0  0  0  0
   24.8358  -23.5826  -14.1063 C   0  0  0  0  0  0  0  0  0  0  0  0
   23.5138  -23.4305  -14.8135 C   0  0  2  0  0  0  0  0  0  0  0  0
   23.7257  -22.5802  -15.9574 N   0  0  0  0  0  0  0  0  0  0  0  0
   22.4316  -22.9396  -13.9319 C   0  0  0  0  0  0  0  0  0  0  0  0
   22.4105  -21.7174  -13.6436 O   0  0  0  0  0  0  0  0  0  0  0  0
   25.5563  -25.7777  -15.0818 C   0  0  0  0  0  0  0  0  0  0  0  0
   26.3773  -26.5439  -15.8976 C   0  0  0  0  0  0  0  0  0  0  0  0
   21.4195  -23.7785  -13.3976 N   0  0  0  0  0  0  0  0  0  0  0  0
   20.2888  -23.2795  -12.6049 C   0  0  1  0  0  0  0  0  0  0  0  0
   19.5631  -22.2115  -13.3954 C   0  0  0  0  0  0  0  0  0  0  0  0
   18.0423  -22.7260  -14.1453 S   0  0  0  0  0  0  0  0  0  0  0  0
   19.4365  -24.3790  -12.1473 C   0  0  0  0  0  0  0  0  0  0  0  0
   19.0684  -25.3349  -12.9107 O   0  0  0  0  0  0  0  0  0  0  0  0
   18.3274  -26.0006   -6.2536 N   0  0  0  0  0  0  0  0  0  0  0  0
   18.0081  -24.6575   -6.6900 C   0  0  0  0  0  0  0  0  0  0  0  0
   17.8172  -23.7890   -5.8158 O   0  0  0  0  0  0  0  0  0  0  0  0
   17.9423  -24.4513   -8.1459 C   0  0  0  0  0  0  0  0  0  0  0  0
   18.3736  -25.7003   -8.8589 C   0  0  0  0  0  0  0  0  0  0  0  0
   18.2086  -25.5810  -10.3301 C   0  0  2  0  0  0  0  0  0  0  0  0
   18.9791  -24.4302  -10.8120 N   0  0  0  0  0  0  0  0  0  0  0  0
   16.7441  -25.3459  -10.5879 C   0  0  0  0  0  0  0  0  0  0  0  0
   16.3472  -24.0872  -10.9854 O   0  0  0  0  0  0  0  0  0  0  0  0
   15.8806  -26.2414  -10.4562 O   0  0  0  0  0  0  0  0  0  0  0  0
  2  1  1  0
  3  2  2  0
  4  3  1  0
  5  4  2  0
  5 11  1  0
  6  5  1  0
  7  6  1  0
  7  9  1  0
  7  8  1  6
  9 10  2  0
 11 12  2  0
 12  2  1  0
 13  9  1  0
 13 14  1  0
 14 15  1  6
 15 16  1  0
 17 14  1  0
 17 18  2  0
 20 22  1  0
 20 19  1  0
 21 20  2  0
 23 22  1  0
 24 23  1  1
 24 25  1  0
 25 17  1  0
 26 27  1  0
 26 24  1  0
 28 26  2  0
M  END
$$$$
