YCQ.pdb
     RDKit          3D

 28 28  0  0  1  0  0  0  0  0999 V2000
   38.3158  -28.0643  -24.1111 O   0  0  0  0  0  0  0  0  0  0  0  0
   37.4097  -28.3407  -23.0688 C   0  0  0  0  0  0  0  0  0  0  0  0
   37.8673  -28.6263  -21.8089 C   0  0  0  0  0  0  0  0  0  0  0  0
   36.9605  -28.8968  -20.7919 C   0  0  0  0  0  0  0  0  0  0  0  0
   35.6002  -28.8872  -21.0114 C   0  0  0  0  0  0  0  0  0  0  0  0
   34.6614  -29.1811  -19.9016 C   0  0  0  0  0  0  0  0  0  0  0  0
   34.7525  -28.0377  -18.9243 C   0  0  2  0  0  0  0  0  0  0  0  0
   36.0712  -28.0634  -18.3438 N   0  0  0  0  0  0  0  0  0  0  0  0
   33.6810  -28.0530  -17.9042 C   0  0  0  0  0  0  0  0  0  0  0  0
   34.0100  -28.1989  -16.7009 O   0  0  0  0  0  0  0  0  0  0  0  0
   35.1665  -28.5969  -22.2875 C   0  0  0  0  0  0  0  0  0  0  0  0
   36.0541  -28.3236  -23.3192 C   0  0  0  0  0  0  0  0  0  0  0  0
   32.3040  -27.9114  -18.2167 N   0  0  0  0  0  0  0  0  0  0  0  0
   31.2939  -27.4733  -17.2454 C   0  0  1  0  0  0  0  0  0  0  0  0
   31.7301  -26.1575  -16.6369 C   0  0  0  0  0  0  0  0  0  0  0  0
   31.4617  -26.0037  -14.8921 S   0  0  0  0  0  0  0  0  0  0  0  0
   29.9577  -27.4506  -17.8445 C   0  0  0  0  0  0  0  0  0  0  0  0
   29.7245  -26.9598  -19.0007 O   0  0  0  0  0  0  0  0  0  0  0  0
   29.5450  -31.6021  -20.2043 N   0  0  0  0  0  0  0  0  0  0  0  0
   28.1035  -31.5260  -20.3151 C   0  0  0  0  0  0  0  0  0  0  0  0
   27.5572  -32.1323  -21.2579 O   0  0  0  0  0  0  0  0  0  0  0  0
   27.4190  -30.7285  -19.2846 C   0  0  0  0  0  0  0  0  0  0  0  0
   28.4244  -29.9354  -18.5006 C   0  0  0  0  0  0  0  0  0  0  0  0
   27.8130  -28.7368  -17.8718 C   0  0  2  0  0  0  0  0  0  0  0  0
   28.8479  -27.9856  -17.1540 N   0  0  0  0  0  0  0  0  0  0  0  0
   26.7849  -29.2343  -16.8910 C   0  0  0  0  0  0  0  0  0  0  0  0
   25.6627  -29.8624  -17.3870 O   0  0  0  0  0  0  0  0  0  0  0  0
   26.9087  -29.1006  -15.6533 O   0  0  0  0  0  0  0  0  0  0  0  0
  2  1  1  0
  3  2  2  0
  4  3  1  0
  5  4  2  0
  5 11  1  0
  6  5  1  0
  7  6  1  0
  7  9  1  0
  7  8  1  1
  9 10  2  0
 11 12  2  0
 12  2  1  0
 13  9  1  0
 13 14  1  0
 14 15  1  6
 15 16  1  0
 17 14  1  0
 17 18  2  0
 20 22  1  0
 20 19  1  0
 21 20  2  0
 23 22  1  0
 24 23  1  1
 24 25  1  0
 25 17  1  0
 26 27  1  0
 26 24  1  0
 28 26  2  0
M  END
$$$$
