YCQ.pdb
     RDKit          3D

 28 28  0  0  1  0  0  0  0  0999 V2000
   14.9587  -15.9363  -14.3306 O   0  0  0  0  0  0  0  0  0  0  0  0
   15.6371  -14.7522  -14.6789 C   0  0  0  0  0  0  0  0  0  0  0  0
   16.9847  -14.7721  -14.9282 C   0  0  0  0  0  0  0  0  0  0  0  0
   17.6389  -13.5954  -15.2705 C   0  0  0  0  0  0  0  0  0  0  0  0
   16.9693  -12.3952  -15.3687 C   0  0  0  0  0  0  0  0  0  0  0  0
   17.7007  -11.1585  -15.7364 C   0  0  0  0  0  0  0  0  0  0  0  0
   17.2907  -10.7976  -17.1409 C   0  0  2  0  0  0  0  0  0  0  0  0
   17.8738  -11.7705  -18.0297 N   0  0  0  0  0  0  0  0  0  0  0  0
   17.6364   -9.4078  -17.5125 C   0  0  0  0  0  0  0  0  0  0  0  0
   18.8163   -9.1652  -17.8679 O   0  0  0  0  0  0  0  0  0  0  0  0
   15.6145  -12.4029  -15.1130 C   0  0  0  0  0  0  0  0  0  0  0  0
   14.9399  -13.5663  -14.7693 C   0  0  0  0  0  0  0  0  0  0  0  0
   16.7038   -8.3384  -17.4873 N   0  0  0  0  0  0  0  0  0  0  0  0
   17.0406   -6.9610  -17.8682 C   0  0  1  0  0  0  0  0  0  0  0  0
   15.8377   -6.3218  -18.5287 C   0  0  0  0  0  0  0  0  0  0  0  0
   15.0963   -7.2679  -19.8307 S   0  0  0  0  0  0  0  0  0  0  0  0
   17.5757   -6.2123  -16.7289 C   0  0  0  0  0  0  0  0  0  0  0  0
   17.2530   -6.4661  -15.5192 O   0  0  0  0  0  0  0  0  0  0  0  0
   21.3327   -7.4601  -13.8156 N   0  0  0  0  0  0  0  0  0  0  0  0
   21.5131   -6.1311  -13.2701 C   0  0  0  0  0  0  0  0  0  0  0  0
   22.2318   -6.0072  -12.2587 O   0  0  0  0  0  0  0  0  0  0  0  0
   20.8190   -5.0438  -13.9790 C   0  0  0  0  0  0  0  0  0  0  0  0
   20.0259   -5.6046  -15.1239 C   0  0  0  0  0  0  0  0  0  0  0  0
   19.2026   -4.5621  -15.7881 C   0  0  2  0  0  0  0  0  0  0  0  0
   18.4937   -5.1571  -16.9257 N   0  0  0  0  0  0  0  0  0  0  0  0
   20.1533   -3.5070  -16.2875 C   0  0  0  0  0  0  0  0  0  0  0  0
   20.7751   -2.6995  -15.3596 O   0  0  0  0  0  0  0  0  0  0  0  0
   20.3985   -3.3362  -17.5023 O   0  0  0  0  0  0  0  0  0  0  0  0
  2  1  1  0
  3  2  2  0
  4  3  1  0
  5  4  2  0
  5 11  1  0
  6  5  1  0
  7  6  1  0
  7  9  1  0
  7  8  1  6
  9 10  2  0
 11 12  2  0
 12  2  1  0
 13  9  1  0
 13 14  1  0
 14 15  1  1
 15 16  1  0
 17 14  1  0
 17 18  2  0
 20 22  1  0
 20 19  1  0
 21 20  2  0
 23 22  1  0
 24 23  1  6
 24 25  1  0
 25 17  1  0
 26 27  1  0
 26 24  1  0
 28 26  2  0
M  END
$$$$
