YCQ.pdb
     RDKit          3D

 28 28  0  0  1  0  0  0  0  0999 V2000
   22.0256  -11.7471  -27.1021 O   0  0  0  0  0  0  0  0  0  0  0  0
   21.7538  -11.5677  -25.7319 C   0  0  0  0  0  0  0  0  0  0  0  0
   20.6193  -12.0972  -25.1742 C   0  0  0  0  0  0  0  0  0  0  0  0
   20.3659  -11.9111  -23.8211 C   0  0  0  0  0  0  0  0  0  0  0  0
   21.2280  -11.2034  -23.0121 C   0  0  0  0  0  0  0  0  0  0  0  0
   20.9249  -11.0245  -21.5715 C   0  0  0  0  0  0  0  0  0  0  0  0
   22.0141  -11.7195  -20.7958 C   0  0  2  0  0  0  0  0  0  0  0  0
   21.8200  -13.1394  -20.9471 N   0  0  0  0  0  0  0  0  0  0  0  0
   22.0805  -11.3019  -19.3780 C   0  0  0  0  0  0  0  0  0  0  0  0
   21.2111  -11.7457  -18.5879 O   0  0  0  0  0  0  0  0  0  0  0  0
   22.3617  -10.6815  -23.5981 C   0  0  0  0  0  0  0  0  0  0  0  0
   22.6355  -10.8547  -24.9478 C   0  0  0  0  0  0  0  0  0  0  0  0
   23.0749  -10.4272  -18.8680 N   0  0  0  0  0  0  0  0  0  0  0  0
   23.1442  -10.0121  -17.4613 C   0  0  1  0  0  0  0  0  0  0  0  0
   24.4683  -10.4578  -16.8783 C   0  0  0  0  0  0  0  0  0  0  0  0
   24.7183  -10.0547  -15.1710 S   0  0  0  0  0  0  0  0  0  0  0  0
   22.8696   -8.5808  -17.3173 C   0  0  0  0  0  0  0  0  0  0  0  0
   23.0192   -7.7465  -18.2731 O   0  0  0  0  0  0  0  0  0  0  0  0
   18.9242   -5.6052  -18.2950 N   0  0  0  0  0  0  0  0  0  0  0  0
   19.4807   -4.4926  -17.5543 C   0  0  0  0  0  0  0  0  0  0  0  0
   18.9298   -3.3799  -17.6697 O   0  0  0  0  0  0  0  0  0  0  0  0
   20.6589   -4.7949  -16.7255 C   0  0  0  0  0  0  0  0  0  0  0  0
   20.9735   -6.2611  -16.8000 C   0  0  0  0  0  0  0  0  0  0  0  0
   22.1364   -6.6201  -15.9487 C   0  0  2  0  0  0  0  0  0  0  0  0
   22.4148   -8.0531  -16.0887 N   0  0  0  0  0  0  0  0  0  0  0  0
   21.7444   -6.3233  -14.5258 C   0  0  0  0  0  0  0  0  0  0  0  0
   21.6541   -5.0040  -14.1373 O   0  0  0  0  0  0  0  0  0  0  0  0
   21.4996   -7.2207  -13.6892 O   0  0  0  0  0  0  0  0  0  0  0  0
  2  1  1  0
  3  2  2  0
  4  3  1  0
  5  4  2  0
  5 11  1  0
  6  5  1  0
  7  6  1  0
  7  9  1  0
  7  8  1  1
  9 10  2  0
 11 12  2  0
 12  2  1  0
 13  9  1  0
 13 14  1  0
 14 15  1  6
 15 16  1  0
 17 14  1  0
 17 18  2  0
 20 22  1  0
 20 19  1  0
 21 20  2  0
 23 22  1  0
 24 23  1  6
 24 25  1  0
 25 17  1  0
 26 27  1  0
 26 24  1  0
 28 26  2  0
M  END
$$$$
