YCQ.pdb
     RDKit          3D

 28 28  0  0  1  0  0  0  0  0999 V2000
   20.2901  -14.1110  -19.8168 O   0  0  0  0  0  0  0  0  0  0  0  0
   20.4662  -15.4145  -19.3132 C   0  0  0  0  0  0  0  0  0  0  0  0
   20.7840  -16.4472  -20.1563 C   0  0  0  0  0  0  0  0  0  0  0  0
   20.9542  -17.7270  -19.6437 C   0  0  0  0  0  0  0  0  0  0  0  0
   20.8123  -17.9949  -18.2995 C   0  0  0  0  0  0  0  0  0  0  0  0
   21.0012  -19.3740  -17.7877 C   0  0  0  0  0  0  0  0  0  0  0  0
   22.2865  -19.3867  -17.0011 C   0  0  2  0  0  0  0  0  0  0  0  0
   23.3701  -19.1976  -17.9321 N   0  0  0  0  0  0  0  0  0  0  0  0
   22.4534  -20.6009  -16.1723 C   0  0  0  0  0  0  0  0  0  0  0  0
   22.6265  -21.6987  -16.7571 O   0  0  0  0  0  0  0  0  0  0  0  0
   20.4925  -16.9385  -17.4734 C   0  0  0  0  0  0  0  0  0  0  0  0
   20.3176  -15.6515  -17.9632 C   0  0  0  0  0  0  0  0  0  0  0  0
   22.4276  -20.5867  -14.7535 N   0  0  0  0  0  0  0  0  0  0  0  0
   22.4598  -21.8024  -13.9307 C   0  0  1  0  0  0  0  0  0  0  0  0
   23.3275  -21.5547  -12.7151 C   0  0  0  0  0  0  0  0  0  0  0  0
   24.4553  -20.1950  -12.8538 S   0  0  0  0  0  0  0  0  0  0  0  0
   21.1063  -22.2703  -13.6240 C   0  0  0  0  0  0  0  0  0  0  0  0
   20.1847  -21.4952  -13.1977 O   0  0  0  0  0  0  0  0  0  0  0  0
   16.9100  -21.8255  -12.8811 N   0  0  0  0  0  0  0  0  0  0  0  0
   16.2352  -22.9990  -13.3945 C   0  0  0  0  0  0  0  0  0  0  0  0
   15.0416  -23.1720  -13.0779 O   0  0  0  0  0  0  0  0  0  0  0  0
   17.0410  -23.8815  -14.2539 C   0  0  0  0  0  0  0  0  0  0  0  0
   18.4373  -23.3426  -14.3735 C   0  0  0  0  0  0  0  0  0  0  0  0
   19.3921  -24.0881  -13.5143 C   0  0  2  0  0  0  0  0  0  0  0  0
   20.7562  -23.6279  -13.7941 N   0  0  0  0  0  0  0  0  0  0  0  0
   19.2691  -25.5423  -13.8838 C   0  0  0  0  0  0  0  0  0  0  0  0
   18.0945  -26.1947  -13.5765 O   0  0  0  0  0  0  0  0  0  0  0  0
   20.1843  -26.1762  -14.4544 O   0  0  0  0  0  0  0  0  0  0  0  0
  2  1  1  0
  3  2  2  0
  4  3  1  0
  5  4  2  0
  5 11  1  0
  6  5  1  0
  7  6  1  0
  7  9  1  0
  7  8  1  6
  9 10  2  0
 11 12  2  0
 12  2  1  0
 13  9  1  0
 13 14  1  0
 14 15  1  1
 15 16  1  0
 17 14  1  0
 17 18  2  0
 20 22  1  0
 20 19  1  0
 21 20  2  0
 23 22  1  0
 24 23  1  6
 24 25  1  0
 25 17  1  0
 26 27  1  0
 26 24  1  0
 28 26  2  0
M  END
$$$$
