YCQ.pdb
     RDKit          3D

 28 28  0  0  1  0  0  0  0  0999 V2000
   29.1568  -14.8116  -17.5891 O   0  0  0  0  0  0  0  0  0  0  0  0
   28.3923  -15.8599  -17.0411 C   0  0  0  0  0  0  0  0  0  0  0  0
   28.0280  -16.9311  -17.8145 C   0  0  0  0  0  0  0  0  0  0  0  0
   27.2738  -17.9568  -17.2587 C   0  0  0  0  0  0  0  0  0  0  0  0
   26.8754  -17.9317  -15.9399 C   0  0  0  0  0  0  0  0  0  0  0  0
   26.0703  -19.0444  -15.3805 C   0  0  0  0  0  0  0  0  0  0  0  0
   27.0082  -19.9232  -14.5936 C   0  0  2  0  0  0  0  0  0  0  0  0
   27.8023  -20.6691  -15.5367 N   0  0  0  0  0  0  0  0  0  0  0  0
   26.3148  -20.7940  -13.6189 C   0  0  0  0  0  0  0  0  0  0  0  0
   25.7547  -21.8336  -14.0463 O   0  0  0  0  0  0  0  0  0  0  0  0
   27.2551  -16.8429  -15.1841 C   0  0  0  0  0  0  0  0  0  0  0  0
   28.0086  -15.8066  -15.7180 C   0  0  0  0  0  0  0  0  0  0  0  0
   26.2512  -20.5136  -12.2292 N   0  0  0  0  0  0  0  0  0  0  0  0
   25.1664  -20.9816  -11.3574 C   0  0  1  0  0  0  0  0  0  0  0  0
   25.5357  -20.7050   -9.9156 C   0  0  0  0  0  0  0  0  0  0  0  0
   27.0834  -21.3863   -9.3859 S   0  0  0  0  0  0  0  0  0  0  0  0
   23.8769  -20.4237  -11.7705 C   0  0  0  0  0  0  0  0  0  0  0  0
   23.7594  -19.2672  -12.3003 O   0  0  0  0  0  0  0  0  0  0  0  0
   20.1134  -20.4715  -15.8380 N   0  0  0  0  0  0  0  0  0  0  0  0
   20.4590  -21.8222  -15.4479 C   0  0  0  0  0  0  0  0  0  0  0  0
   20.1134  -22.7543  -16.2007 O   0  0  0  0  0  0  0  0  0  0  0  0
   21.1973  -21.9585  -14.1819 C   0  0  0  0  0  0  0  0  0  0  0  0
   21.4413  -20.6031  -13.5840 C   0  0  0  0  0  0  0  0  0  0  0  0
   21.4071  -20.6402  -12.0997 C   0  0  2  0  0  0  0  0  0  0  0  0
   22.6837  -21.1598  -11.5988 N   0  0  0  0  0  0  0  0  0  0  0  0
   20.2974  -21.5806  -11.7115 C   0  0  0  0  0  0  0  0  0  0  0  0
   18.9977  -21.1364  -11.8271 O   0  0  0  0  0  0  0  0  0  0  0  0
   20.5077  -22.7401  -11.2915 O   0  0  0  0  0  0  0  0  0  0  0  0
  2  1  1  0
  3  2  2  0
  4  3  1  0
  5  4  2  0
  5 11  1  0
  6  5  1  0
  7  6  1  0
  7  9  1  0
  7  8  1  6
  9 10  2  0
 11 12  2  0
 12  2  1  0
 13  9  1  0
 13 14  1  0
 14 15  1  1
 15 16  1  0
 17 14  1  0
 17 18  2  0
 20 22  1  0
 20 19  1  0
 21 20  2  0
 23 22  1  0
 24 23  1  6
 24 25  1  0
 25 17  1  0
 26 27  1  0
 26 24  1  0
 28 26  2  0
M  END
$$$$
