YCQ.pdb
     RDKit          3D

 28 28  0  0  1  0  0  0  0  0999 V2000
   29.4614  -15.9708  -18.2833 O   0  0  0  0  0  0  0  0  0  0  0  0
   28.6026  -16.8320  -17.5731 C   0  0  0  0  0  0  0  0  0  0  0  0
   28.1240  -17.9741  -18.1603 C   0  0  0  0  0  0  0  0  0  0  0  0
   27.2778  -18.8129  -17.4461 C   0  0  0  0  0  0  0  0  0  0  0  0
   26.8998  -18.5306  -16.1515 C   0  0  0  0  0  0  0  0  0  0  0  0
   25.9943  -19.4492  -15.4195 C   0  0  0  0  0  0  0  0  0  0  0  0
   26.8511  -20.2880  -14.5066 C   0  0  2  0  0  0  0  0  0  0  0  0
   27.6393  -21.1668  -15.3330 N   0  0  0  0  0  0  0  0  0  0  0  0
   26.0734  -21.0168  -13.4804 C   0  0  0  0  0  0  0  0  0  0  0  0
   25.3536  -21.9763  -13.8527 O   0  0  0  0  0  0  0  0  0  0  0  0
   27.3953  -17.3758  -15.5844 C   0  0  0  0  0  0  0  0  0  0  0  0
   28.2420  -16.5227  -16.2788 C   0  0  0  0  0  0  0  0  0  0  0  0
   26.1002  -20.6867  -12.1005 N   0  0  0  0  0  0  0  0  0  0  0  0
   24.9840  -20.9484  -11.1833 C   0  0  1  0  0  0  0  0  0  0  0  0
   25.3901  -20.5456   -9.7816 C   0  0  0  0  0  0  0  0  0  0  0  0
   26.9421  -21.1958   -9.2262 S   0  0  0  0  0  0  0  0  0  0  0  0
   23.7488  -20.3224  -11.6600 C   0  0  0  0  0  0  0  0  0  0  0  0
   23.7286  -19.4519  -12.5948 O   0  0  0  0  0  0  0  0  0  0  0  0
   19.3917  -22.0038  -16.1578 N   0  0  0  0  0  0  0  0  0  0  0  0
   20.4822  -21.9874  -15.2055 C   0  0  0  0  0  0  0  0  0  0  0  0
   21.6307  -22.2259  -15.6285 O   0  0  0  0  0  0  0  0  0  0  0  0
   20.1168  -21.6840  -13.8124 C   0  0  0  0  0  0  0  0  0  0  0  0
   21.3473  -21.6727  -12.9521 C   0  0  0  0  0  0  0  0  0  0  0  0
   21.2780  -20.6237  -11.9031 C   0  0  2  0  0  0  0  0  0  0  0  0
   22.5009  -20.6658  -11.0948 N   0  0  0  0  0  0  0  0  0  0  0  0
   20.0927  -20.9518  -11.0347 C   0  0  0  0  0  0  0  0  0  0  0  0
   18.8425  -20.5649  -11.4669 O   0  0  0  0  0  0  0  0  0  0  0  0
   20.1981  -21.5569   -9.9449 O   0  0  0  0  0  0  0  0  0  0  0  0
  2  1  1  0
  3  2  2  0
  4  3  1  0
  5  4  2  0
  5 11  1  0
  6  5  1  0
  7  6  1  0
  7  9  1  0
  7  8  1  6
  9 10  2  0
 11 12  2  0
 12  2  1  0
 13  9  1  0
 13 14  1  0
 14 15  1  1
 15 16  1  0
 17 14  1  0
 17 18  2  0
 20 22  1  0
 20 19  1  0
 21 20  2  0
 23 22  1  0
 24 23  1  6
 24 25  1  0
 25 17  1  0
 26 27  1  0
 26 24  1  0
 28 26  2  0
M  END
$$$$
