YCQ.pdb
     RDKit          3D

 28 28  0  0  1  0  0  0  0  0999 V2000
   29.6161  -14.3853  -21.6616 O   0  0  0  0  0  0  0  0  0  0  0  0
   28.5147  -13.5823  -21.3067 C   0  0  0  0  0  0  0  0  0  0  0  0
   27.9457  -13.6941  -20.0649 C   0  0  0  0  0  0  0  0  0  0  0  0
   26.8599  -12.8947  -19.7306 C   0  0  0  0  0  0  0  0  0  0  0  0
   26.3303  -11.9826  -20.6172 C   0  0  0  0  0  0  0  0  0  0  0  0
   25.1701  -11.1459  -20.2259 C   0  0  0  0  0  0  0  0  0  0  0  0
   24.1932  -12.0430  -19.5104 C   0  0  2  0  0  0  0  0  0  0  0  0
   23.7679  -13.0567  -20.4422 N   0  0  0  0  0  0  0  0  0  0  0  0
   23.0573  -11.3097  -18.9094 C   0  0  0  0  0  0  0  0  0  0  0  0
   22.1327  -10.9248  -19.6671 O   0  0  0  0  0  0  0  0  0  0  0  0
   26.9213  -11.8901  -21.8595 C   0  0  0  0  0  0  0  0  0  0  0  0
   28.0069  -12.6784  -22.2155 C   0  0  0  0  0  0  0  0  0  0  0  0
   22.9610  -11.0206  -17.5234 N   0  0  0  0  0  0  0  0  0  0  0  0
   21.8251  -10.3115  -16.9210 C   0  0  1  0  0  0  0  0  0  0  0  0
   21.2377  -11.1649  -15.8172 C   0  0  0  0  0  0  0  0  0  0  0  0
   19.9165  -12.2377  -16.3108 S   0  0  0  0  0  0  0  0  0  0  0  0
   22.2051   -8.9597  -16.5049 C   0  0  0  0  0  0  0  0  0  0  0  0
   23.2680   -8.7116  -15.8410 O   0  0  0  0  0  0  0  0  0  0  0  0
   19.3119   -3.7600  -18.2472 N   0  0  0  0  0  0  0  0  0  0  0  0
   20.3338   -3.1625  -17.4135 C   0  0  0  0  0  0  0  0  0  0  0  0
   20.3235   -1.9234  -17.2743 O   0  0  0  0  0  0  0  0  0  0  0  0
   21.2952   -4.0956  -16.8041 C   0  0  0  0  0  0  0  0  0  0  0  0
   20.8965   -5.5110  -17.1075 C   0  0  0  0  0  0  0  0  0  0  0  0
   21.8049   -6.4914  -16.4599 C   0  0  2  0  0  0  0  0  0  0  0  0
   21.3950   -7.8496  -16.8309 N   0  0  0  0  0  0  0  0  0  0  0  0
   21.6532   -6.3116  -14.9729 C   0  0  0  0  0  0  0  0  0  0  0  0
   20.8583   -7.2047  -14.2872 O   0  0  0  0  0  0  0  0  0  0  0  0
   22.2161   -5.3904  -14.3408 O   0  0  0  0  0  0  0  0  0  0  0  0
  2  1  1  0
  3  2  2  0
  4  3  1  0
  5  4  2  0
  5 11  1  0
  6  5  1  0
  7  6  1  0
  7  9  1  0
  7  8  1  6
  9 10  2  0
 11 12  2  0
 12  2  1  0
 13  9  1  0
 13 14  1  0
 14 15  1  1
 15 16  1  0
 17 14  1  0
 17 18  2  0
 20 22  1  0
 20 19  1  0
 21 20  2  0
 23 22  1  0
 24 23  1  6
 24 25  1  0
 25 17  1  0
 26 27  1  0
 26 24  1  0
 28 26  2  0
M  END
$$$$
