YCQ.pdb
     RDKit          3D

 28 28  0  0  1  0  0  0  0  0999 V2000
   21.7917  -22.3603   -7.6253 O   0  0  0  0  0  0  0  0  0  0  0  0
   22.6435  -21.7124   -8.5409 C   0  0  0  0  0  0  0  0  0  0  0  0
   22.3777  -21.7534   -9.8849 C   0  0  0  0  0  0  0  0  0  0  0  0
   23.2278  -21.1092  -10.7748 C   0  0  0  0  0  0  0  0  0  0  0  0
   24.3425  -20.4225  -10.3453 C   0  0  0  0  0  0  0  0  0  0  0  0
   25.2281  -19.7468  -11.3243 C   0  0  0  0  0  0  0  0  0  0  0  0
   25.7594  -20.8079  -12.2532 C   0  0  2  0  0  0  0  0  0  0  0  0
   26.7215  -21.5895  -11.5184 N   0  0  0  0  0  0  0  0  0  0  0  0
   26.3125  -20.2604  -13.5115 C   0  0  0  0  0  0  0  0  0  0  0  0
   27.4866  -19.8149  -13.4986 O   0  0  0  0  0  0  0  0  0  0  0  0
   24.5868  -20.3967   -8.9886 C   0  0  0  0  0  0  0  0  0  0  0  0
   23.7514  -21.0331   -8.0809 C   0  0  0  0  0  0  0  0  0  0  0  0
   25.5844  -20.2139  -14.7288 N   0  0  0  0  0  0  0  0  0  0  0  0
   26.1639  -19.7695  -16.0026 C   0  0  1  0  0  0  0  0  0  0  0  0
   27.4034  -20.5881  -16.2949 C   0  0  0  0  0  0  0  0  0  0  0  0
   28.1043  -20.3527  -17.9053 S   0  0  0  0  0  0  0  0  0  0  0  0
   25.1637  -19.7813  -17.0722 C   0  0  0  0  0  0  0  0  0  0  0  0
   24.5947  -20.8508  -17.4778 O   0  0  0  0  0  0  0  0  0  0  0  0
   20.7261  -16.1337  -18.9022 N   0  0  0  0  0  0  0  0  0  0  0  0
   21.7693  -15.6445  -18.0255 C   0  0  0  0  0  0  0  0  0  0  0  0
   21.6946  -14.4642  -17.6304 O   0  0  0  0  0  0  0  0  0  0  0  0
   22.8281  -16.6080  -17.6834 C   0  0  0  0  0  0  0  0  0  0  0  0
   22.5430  -17.9321  -18.3313 C   0  0  0  0  0  0  0  0  0  0  0  0
   23.7866  -18.5998  -18.7934 C   0  0  2  0  0  0  0  0  0  0  0  0
   24.7761  -18.5829  -17.7112 N   0  0  0  0  0  0  0  0  0  0  0  0
   24.3054  -17.7993  -19.9581 C   0  0  0  0  0  0  0  0  0  0  0  0
   25.5215  -17.1651  -19.8217 O   0  0  0  0  0  0  0  0  0  0  0  0
   23.6803  -17.6884  -21.0361 O   0  0  0  0  0  0  0  0  0  0  0  0
  2  1  1  0
  3  2  2  0
  4  3  1  0
  5  4  2  0
  5 11  1  0
  6  5  1  0
  7  6  1  0
  7  9  1  0
  7  8  1  1
  9 10  2  0
 11 12  2  0
 12  2  1  0
 13  9  1  0
 13 14  1  0
 14 15  1  6
 15 16  1  0
 17 14  1  0
 17 18  2  0
 20 22  1  0
 20 19  1  0
 21 20  2  0
 23 22  1  0
 24 23  1  1
 24 25  1  0
 25 17  1  0
 26 27  1  0
 26 24  1  0
 28 26  2  0
M  END
$$$$
