VFD.pdb
     RDKit          3D

 27 27  0  0  1  0  0  0  0  0999 V2000
    7.4118  -18.4749   20.6770 C   0  0  0  0  0  0  0  0  0  0  0  0
    8.2620  -17.9705   19.5599 C   0  0  1  0  0  0  0  0  0  0  0  0
    7.9170  -18.6942   18.2819 C   0  0  0  0  0  0  0  0  0  0  0  0
    8.1701  -16.4692   19.3859 C   0  0  2  0  0  0  0  0  0  0  0  0
    9.0210  -16.0121   18.3033 N   0  0  0  0  0  0  0  0  0  0  0  0
    8.5367  -15.7371   20.6018 C   0  0  0  0  0  0  0  0  0  0  0  0
    9.7701  -15.5227   20.8687 O   0  0  0  0  0  0  0  0  0  0  0  0
    7.6242  -15.2256   21.5440 N   0  0  0  0  0  0  0  0  0  0  0  0
    8.0310  -14.5104   22.7693 C   0  0  1  0  0  0  0  0  0  0  0  0
    6.8973  -13.7117   23.2963 C   0  0  0  0  0  0  0  0  0  0  0  0
    7.0155  -13.1834   24.6596 C   0  0  0  0  0  0  0  0  0  0  0  0
    6.2462  -13.6810   25.7074 C   0  0  0  0  0  0  0  0  0  0  0  0
    6.3475  -13.1911   26.9960 C   0  0  0  0  0  0  0  0  0  0  0  0
    7.2272  -12.1794   27.2858 C   0  0  0  0  0  0  0  0  0  0  0  0
    7.9944  -11.6718   26.2789 C   0  0  0  0  0  0  0  0  0  0  0  0
    7.8817  -12.1693   25.0053 C   0  0  0  0  0  0  0  0  0  0  0  0
    8.5219  -15.5680   23.6697 C   0  0  0  0  0  0  0  0  0  0  0  0
    7.8802  -16.6752   23.8140 O   0  0  0  0  0  0  0  0  0  0  0  0
    9.7163  -15.5072   24.4532 N   0  0  0  0  0  0  0  0  0  0  0  0
   10.2745  -16.7148   25.0546 C   0  0  1  0  0  0  0  0  0  0  0  0
   11.7605  -16.8352   24.7137 C   0  0  0  0  0  0  0  0  0  0  0  0
   12.3840  -18.0156   25.3174 C   0  0  0  0  0  0  0  0  0  0  0  0
   12.4155  -18.2101   26.5424 O   0  0  0  0  0  0  0  0  0  0  0  0
   10.0758  -16.7981   26.5100 C   0  0  0  0  0  0  0  0  0  0  0  0
    9.4789  -15.7511   27.2342 O   0  0  0  0  0  0  0  0  0  0  0  0
   12.9706  -18.9695   24.4977 O   0  0  0  0  0  0  0  0  0  0  0  0
   10.4228  -17.7934   27.1771 O   0  0  0  0  0  0  0  0  0  0  0  0
  2  1  1  1
  2  3  1  0
  4  2  1  0
  4  5  1  6
  6  7  2  0
  6  4  1  0
  8  6  1  0
  9 10  1  1
  9  8  1  0
 11 10  1  0
 11 12  2  0
 13 12  1  0
 14 13  2  0
 15 16  2  0
 15 14  1  0
 16 11  1  0
 17  9  1  0
 18 17  2  0
 19 17  1  0
 20 24  1  0
 20 19  1  0
 20 21  1  1
 22 23  2  0
 22 21  1  0
 24 25  1  0
 26 22  1  0
 27 24  2  0
M  END
$$$$
