VFD.pdb
     RDKit          3D

 27 27  0  0  1  0  0  0  0  0999 V2000
    8.7182  -19.6044   19.3542 C   0  0  0  0  0  0  0  0  0  0  0  0
    9.1039  -18.7087   20.4830 C   0  0  1  0  0  0  0  0  0  0  0  0
   10.3705  -19.2113   21.1305 C   0  0  0  0  0  0  0  0  0  0  0  0
    9.2365  -17.2602   20.0623 C   0  0  2  0  0  0  0  0  0  0  0  0
   10.3697  -17.0714   19.1762 N   0  0  0  0  0  0  0  0  0  0  0  0
    9.3870  -16.3531   21.2039 C   0  0  0  0  0  0  0  0  0  0  0  0
   10.5504  -15.9357   21.5367 O   0  0  0  0  0  0  0  0  0  0  0  0
    8.3305  -15.8767   22.0033 N   0  0  0  0  0  0  0  0  0  0  0  0
    8.5286  -15.0536   23.2123 C   0  0  1  0  0  0  0  0  0  0  0  0
    7.3194  -14.2368   23.4793 C   0  0  0  0  0  0  0  0  0  0  0  0
    7.2596  -13.5093   24.7517 C   0  0  0  0  0  0  0  0  0  0  0  0
    8.0457  -12.3859   24.9909 C   0  0  0  0  0  0  0  0  0  0  0  0
    7.9994  -11.6924   26.1859 C   0  0  0  0  0  0  0  0  0  0  0  0
    7.1602  -12.0996   27.1915 C   0  0  0  0  0  0  0  0  0  0  0  0
    6.3778  -13.1975   26.9857 C   0  0  0  0  0  0  0  0  0  0  0  0
    6.4357  -13.8746   25.7938 C   0  0  0  0  0  0  0  0  0  0  0  0
    8.8737  -16.0223   24.2672 C   0  0  0  0  0  0  0  0  0  0  0  0
    8.1176  -17.0335   24.5205 O   0  0  0  0  0  0  0  0  0  0  0  0
   10.0363  -15.9708   25.0977 N   0  0  0  0  0  0  0  0  0  0  0  0
   10.2179  -16.9285   26.1847 C   0  0  1  0  0  0  0  0  0  0  0  0
   11.6199  -17.5361   26.1236 C   0  0  0  0  0  0  0  0  0  0  0  0
   11.8500  -18.3021   24.8960 C   0  0  0  0  0  0  0  0  0  0  0  0
   10.9608  -18.9610   24.3352 O   0  0  0  0  0  0  0  0  0  0  0  0
    9.9630  -16.3648   27.5195 C   0  0  0  0  0  0  0  0  0  0  0  0
    9.7018  -14.9957   27.7046 O   0  0  0  0  0  0  0  0  0  0  0  0
   13.1128  -18.3021   24.3206 O   0  0  0  0  0  0  0  0  0  0  0  0
    9.9644  -17.0637   28.5527 O   0  0  0  0  0  0  0  0  0  0  0  0
  2  1  1  6
  2  3  1  0
  4  2  1  0
  4  5  1  6
  6  7  2  0
  6  4  1  0
  8  6  1  0
  9 10  1  1
  9  8  1  0
 11 10  1  0
 11 12  2  0
 13 12  1  0
 14 13  2  0
 15 16  2  0
 15 14  1  0
 16 11  1  0
 17  9  1  0
 18 17  2  0
 19 17  1  0
 20 24  1  0
 20 19  1  0
 20 21  1  1
 22 23  2  0
 22 21  1  0
 24 25  1  0
 26 22  1  0
 27 24  2  0
M  END
$$$$
