VFD.pdb
     RDKit          3D

 27 27  0  0  1  0  0  0  0  0999 V2000
    7.9498  -13.8616   17.1819 C   0  0  0  0  0  0  0  0  0  0  0  0
    8.3042  -13.5330   18.5931 C   0  0  1  0  0  0  0  0  0  0  0  0
    7.2257  -12.6769   19.2097 C   0  0  0  0  0  0  0  0  0  0  0  0
    8.5770  -14.7647   19.4305 C   0  0  2  0  0  0  0  0  0  0  0  0
    7.4856  -15.7162   19.3377 N   0  0  0  0  0  0  0  0  0  0  0  0
    8.7942  -14.4480   20.8451 C   0  0  0  0  0  0  0  0  0  0  0  0
    9.8752  -13.8671   21.2090 O   0  0  0  0  0  0  0  0  0  0  0  0
    7.8902  -14.7333   21.8860 N   0  0  0  0  0  0  0  0  0  0  0  0
    8.1563  -14.4272   23.3051 C   0  0  1  0  0  0  0  0  0  0  0  0
    6.8918  -14.0829   24.0004 C   0  0  0  0  0  0  0  0  0  0  0  0
    6.9877  -13.5957   25.3807 C   0  0  0  0  0  0  0  0  0  0  0  0
    7.2529  -14.4540   26.4438 C   0  0  0  0  0  0  0  0  0  0  0  0
    7.3447  -14.0075   27.7489 C   0  0  0  0  0  0  0  0  0  0  0  0
    7.1735  -12.6782   28.0403 C   0  0  0  0  0  0  0  0  0  0  0  0
    6.9125  -11.8133   27.0186 C   0  0  0  0  0  0  0  0  0  0  0  0
    6.8246  -12.2726   25.7288 C   0  0  0  0  0  0  0  0  0  0  0  0
    8.8461  -15.6232   23.8188 C   0  0  0  0  0  0  0  0  0  0  0  0
    8.4821  -16.8078   23.4688 O   0  0  0  0  0  0  0  0  0  0  0  0
    9.9560  -15.6222   24.7201 N   0  0  0  0  0  0  0  0  0  0  0  0
   10.5997  -16.8734   25.1098 C   0  0  1  0  0  0  0  0  0  0  0  0
   12.0245  -16.9280   24.5569 C   0  0  0  0  0  0  0  0  0  0  0  0
   12.7330  -18.1510   24.9428 C   0  0  0  0  0  0  0  0  0  0  0  0
   12.1887  -19.0804   25.5588 O   0  0  0  0  0  0  0  0  0  0  0  0
   10.6058  -17.1091   26.5620 C   0  0  0  0  0  0  0  0  0  0  0  0
   10.2389  -16.1040   27.4741 O   0  0  0  0  0  0  0  0  0  0  0  0
   14.0734  -18.2938   24.6129 O   0  0  0  0  0  0  0  0  0  0  0  0
   10.9340  -18.2042   27.0611 O   0  0  0  0  0  0  0  0  0  0  0  0
  2  1  1  6
  2  3  1  0
  4  2  1  0
  4  5  1  1
  6  7  2  0
  6  4  1  0
  8  6  1  0
  9 10  1  1
  9  8  1  0
 11 10  1  0
 11 12  2  0
 13 12  1  0
 14 13  2  0
 15 16  2  0
 15 14  1  0
 16 11  1  0
 17  9  1  0
 18 17  2  0
 19 17  1  0
 20 24  1  0
 20 19  1  0
 20 21  1  1
 22 23  2  0
 22 21  1  0
 24 25  1  0
 26 22  1  0
 27 24  2  0
M  END
$$$$
