VFD.pdb
     RDKit          3D

 27 27  0  0  1  0  0  0  0  0999 V2000
   45.8209  -63.3537  -26.8416 C   0  0  0  0  0  0  0  0  0  0  0  0
   45.7889  -61.8907  -27.1310 C   0  0  1  0  0  0  0  0  0  0  0  0
   46.8243  -61.5485  -28.1736 C   0  0  0  0  0  0  0  0  0  0  0  0
   44.4141  -61.4041  -27.5381 C   0  0  2  0  0  0  0  0  0  0  0  0
   43.6280  -62.4753  -28.1206 N   0  0  0  0  0  0  0  0  0  0  0  0
   44.4690  -60.2974  -28.4977 C   0  0  0  0  0  0  0  0  0  0  0  0
   44.7242  -60.5346  -29.7295 O   0  0  0  0  0  0  0  0  0  0  0  0
   44.2593  -58.9415  -28.1818 N   0  0  0  0  0  0  0  0  0  0  0  0
   44.3631  -58.3966  -26.8140 C   0  0  1  0  0  0  0  0  0  0  0  0
   43.5111  -57.1897  -26.6778 C   0  0  0  0  0  0  0  0  0  0  0  0
   42.7547  -56.7567  -27.8576 C   0  0  0  0  0  0  0  0  0  0  0  0
   43.3431  -56.0032  -28.8691 C   0  0  0  0  0  0  0  0  0  0  0  0
   42.6409  -55.5882  -29.9852 C   0  0  0  0  0  0  0  0  0  0  0  0
   41.3164  -55.9135  -30.1314 C   0  0  0  0  0  0  0  0  0  0  0  0
   40.7130  -56.6513  -29.1560 C   0  0  0  0  0  0  0  0  0  0  0  0
   41.4241  -57.0554  -28.0545 C   0  0  0  0  0  0  0  0  0  0  0  0
   43.9959  -59.5227  -25.9380 C   0  0  0  0  0  0  0  0  0  0  0  0
   42.8309  -59.5953  -25.3941 O   0  0  0  0  0  0  0  0  0  0  0  0
   44.8401  -60.6266  -25.6022 N   0  0  0  0  0  0  0  0  0  0  0  0
   44.8574  -61.8294  -26.4296 C   0  0  1  0  0  0  0  0  0  0  0  0
   46.0272  -61.7763  -27.4132 C   0  0  0  0  0  0  0  0  0  0  0  0
   46.9714  -62.8810  -27.2272 C   0  0  0  0  0  0  0  0  0  0  0  0
   47.4826  -63.4984  -28.1742 O   0  0  0  0  0  0  0  0  0  0  0  0
   44.8968  -63.0801  -25.6559 C   0  0  0  0  0  0  0  0  0  0  0  0
   43.7488  -63.8710  -25.4729 O   0  0  0  0  0  0  0  0  0  0  0  0
   47.3212  -63.2680  -25.9412 O   0  0  0  0  0  0  0  0  0  0  0  0
   45.9418  -63.5052  -25.1235 O   0  0  0  0  0  0  0  0  0  0  0  0
  2  1  1  6
  2  3  1  0
  4  2  1  0
  4  5  1  6
  6  7  2  0
  6  4  1  0
  8  6  1  0
  9 10  1  6
  9  8  1  0
 11 10  1  0
 11 12  2  0
 13 12  1  0
 14 13  2  0
 15 16  2  0
 15 14  1  0
 16 11  1  0
 17  9  1  0
 18 17  2  0
 19 17  1  0
 20 24  1  0
 20 19  1  0
 20 21  1  6
 22 23  2  0
 22 21  1  0
 24 25  1  0
 26 22  1  0
 27 24  2  0
M  END
$$$$
