VFD.pdb
     RDKit          3D

 27 27  0  0  1  0  0  0  0  0999 V2000
   10.2664  -19.2740   22.0725 C   0  0  0  0  0  0  0  0  0  0  0  0
   10.5568  -18.5529   20.7995 C   0  0  1  0  0  0  0  0  0  0  0  0
   10.5665  -19.5258   19.6464 C   0  0  0  0  0  0  0  0  0  0  0  0
    9.6021  -17.4055   20.5452 C   0  0  2  0  0  0  0  0  0  0  0  0
    9.8756  -16.7658   19.2721 N   0  0  0  0  0  0  0  0  0  0  0  0
    9.6551  -16.3845   21.5957 C   0  0  0  0  0  0  0  0  0  0  0  0
   10.6567  -15.5901   21.6618 O   0  0  0  0  0  0  0  0  0  0  0  0
    8.6690  -16.1852   22.5805 N   0  0  0  0  0  0  0  0  0  0  0  0
    8.7552  -15.1441   23.6231 C   0  0  1  0  0  0  0  0  0  0  0  0
    7.4378  -14.4850   23.7988 C   0  0  0  0  0  0  0  0  0  0  0  0
    7.2721  -13.5976   24.9550 C   0  0  0  0  0  0  0  0  0  0  0  0
    6.5604  -13.9911   26.0845 C   0  0  0  0  0  0  0  0  0  0  0  0
    6.3963  -13.1639   27.1798 C   0  0  0  0  0  0  0  0  0  0  0  0
    6.9412  -11.9052   27.1857 C   0  0  0  0  0  0  0  0  0  0  0  0
    7.6441  -11.4921   26.0924 C   0  0  0  0  0  0  0  0  0  0  0  0
    7.7978  -12.3254   25.0134 C   0  0  0  0  0  0  0  0  0  0  0  0
    9.2634  -15.8513   24.8114 C   0  0  0  0  0  0  0  0  0  0  0  0
    8.7107  -16.9357   25.2321 O   0  0  0  0  0  0  0  0  0  0  0  0
   10.3825  -15.4492   25.6051 N   0  0  0  0  0  0  0  0  0  0  0  0
   10.8027  -16.2431   26.7561 C   0  0  1  0  0  0  0  0  0  0  0  0
   12.3160  -16.4609   26.7225 C   0  0  0  0  0  0  0  0  0  0  0  0
   12.7560  -17.1806   25.5245 C   0  0  0  0  0  0  0  0  0  0  0  0
   12.0436  -18.0074   24.9343 O   0  0  0  0  0  0  0  0  0  0  0  0
   10.3973  -15.6715   28.0497 C   0  0  0  0  0  0  0  0  0  0  0  0
   10.4953  -16.4065   29.2443 O   0  0  0  0  0  0  0  0  0  0  0  0
   14.0233  -16.9395   25.0130 O   0  0  0  0  0  0  0  0  0  0  0  0
    9.9480  -14.5129   28.1583 O   0  0  0  0  0  0  0  0  0  0  0  0
  2  1  1  1
  2  3  1  0
  4  2  1  0
  4  5  1  6
  6  7  2  0
  6  4  1  0
  8  6  1  0
  9 10  1  1
  9  8  1  0
 11 10  1  0
 11 12  2  0
 13 12  1  0
 14 13  2  0
 15 16  2  0
 15 14  1  0
 16 11  1  0
 17  9  1  0
 18 17  2  0
 19 17  1  0
 20 24  1  0
 20 19  1  0
 20 21  1  1
 22 23  2  0
 22 21  1  0
 24 25  1  0
 26 22  1  0
 27 24  2  0
M  END
$$$$
