VFD.pdb
     RDKit          3D

 27 27  0  0  1  0  0  0  0  0999 V2000
    7.1674  -15.8039   17.4057 C   0  0  0  0  0  0  0  0  0  0  0  0
    7.8133  -15.6004   18.7347 C   0  0  1  0  0  0  0  0  0  0  0  0
    9.2375  -16.0968   18.6974 C   0  0  0  0  0  0  0  0  0  0  0  0
    7.7422  -14.1634   19.2066 C   0  0  2  0  0  0  0  0  0  0  0  0
    8.4998  -13.2853   18.3349 N   0  0  0  0  0  0  0  0  0  0  0  0
    8.2377  -13.9944   20.5758 C   0  0  0  0  0  0  0  0  0  0  0  0
    9.3979  -13.4920   20.7758 O   0  0  0  0  0  0  0  0  0  0  0  0
    7.5305  -14.3463   21.7412 N   0  0  0  0  0  0  0  0  0  0  0  0
    7.9695  -13.9843   23.1030 C   0  0  1  0  0  0  0  0  0  0  0  0
    6.8582  -13.3393   23.8447 C   0  0  0  0  0  0  0  0  0  0  0  0
    7.0894  -13.0002   25.2530 C   0  0  0  0  0  0  0  0  0  0  0  0
    6.1009  -12.4123   26.0368 C   0  0  0  0  0  0  0  0  0  0  0  0
    6.3066  -12.0870   27.3645 C   0  0  0  0  0  0  0  0  0  0  0  0
    7.5159  -12.3393   27.9606 C   0  0  0  0  0  0  0  0  0  0  0  0
    8.5038  -12.9150   27.2171 C   0  0  0  0  0  0  0  0  0  0  0  0
    8.2834  -13.2316   25.9005 C   0  0  0  0  0  0  0  0  0  0  0  0
    8.4573  -15.2477   23.6828 C   0  0  0  0  0  0  0  0  0  0  0  0
    7.6498  -16.2104   23.9648 O   0  0  0  0  0  0  0  0  0  0  0  0
    9.8208  -15.5542   23.9847 N   0  0  0  0  0  0  0  0  0  0  0  0
   10.1721  -16.8014   24.6574 C   0  0  1  0  0  0  0  0  0  0  0  0
   11.6903  -16.9847   24.6692 C   0  0  0  0  0  0  0  0  0  0  0  0
   12.2939  -16.7784   23.3502 C   0  0  0  0  0  0  0  0  0  0  0  0
   11.6453  -16.8396   22.2943 O   0  0  0  0  0  0  0  0  0  0  0  0
    9.6337  -16.9105   26.0222 C   0  0  0  0  0  0  0  0  0  0  0  0
    8.8057  -17.9802   26.4054 O   0  0  0  0  0  0  0  0  0  0  0  0
   13.6506  -16.5013   23.2585 O   0  0  0  0  0  0  0  0  0  0  0  0
    9.8794  -16.0673   26.9081 O   0  0  0  0  0  0  0  0  0  0  0  0
  2  1  1  6
  2  3  1  0
  4  2  1  0
  4  5  1  6
  6  7  2  0
  6  4  1  0
  8  6  1  0
  9 10  1  1
  9  8  1  0
 11 10  1  0
 11 12  2  0
 13 12  1  0
 14 13  2  0
 15 16  2  0
 15 14  1  0
 16 11  1  0
 17  9  1  0
 18 17  2  0
 19 17  1  0
 20 24  1  0
 20 19  1  0
 20 21  1  1
 22 23  2  0
 22 21  1  0
 24 25  1  0
 26 22  1  0
 27 24  2  0
M  END
$$$$
