VFD.pdb
     RDKit          3D

 27 27  0  0  1  0  0  0  0  0999 V2000
    6.3022  -18.6114   22.8121 C   0  0  0  0  0  0  0  0  0  0  0  0
    6.9060  -18.6660   21.4492 C   0  0  1  0  0  0  0  0  0  0  0  0
    5.9033  -19.2109   20.4624 C   0  0  0  0  0  0  0  0  0  0  0  0
    7.4540  -17.3287   20.9973 C   0  0  2  0  0  0  0  0  0  0  0  0
    7.9837  -17.4059   19.6489 N   0  0  0  0  0  0  0  0  0  0  0  0
    8.5102  -16.8249   21.8801 C   0  0  0  0  0  0  0  0  0  0  0  0
    9.7221  -17.1952   21.6992 O   0  0  0  0  0  0  0  0  0  0  0  0
    8.3116  -15.9353   22.9531 N   0  0  0  0  0  0  0  0  0  0  0  0
    9.3885  -15.5033   23.8653 C   0  0  1  0  0  0  0  0  0  0  0  0
    9.2367  -14.0640   24.1913 C   0  0  0  0  0  0  0  0  0  0  0  0
    8.2313  -13.6982   25.1949 C   0  0  0  0  0  0  0  0  0  0  0  0
    8.5850  -13.3709   26.5006 C   0  0  0  0  0  0  0  0  0  0  0  0
    7.6472  -13.0256   27.4557 C   0  0  0  0  0  0  0  0  0  0  0  0
    6.3132  -12.9948   27.1381 C   0  0  0  0  0  0  0  0  0  0  0  0
    5.9368  -13.3109   25.8659 C   0  0  0  0  0  0  0  0  0  0  0  0
    6.8801  -13.6515   24.9297 C   0  0  0  0  0  0  0  0  0  0  0  0
    9.2886  -16.4183   25.0155 C   0  0  0  0  0  0  0  0  0  0  0  0
    8.1475  -16.7364   25.5206 O   0  0  0  0  0  0  0  0  0  0  0  0
   10.3889  -17.0442   25.6802 N   0  0  0  0  0  0  0  0  0  0  0  0
   10.1647  -17.9281   26.8205 C   0  0  1  0  0  0  0  0  0  0  0  0
   11.0289  -19.1833   26.6927 C   0  0  0  0  0  0  0  0  0  0  0  0
   11.0722  -19.7016   25.3230 C   0  0  0  0  0  0  0  0  0  0  0  0
   10.0769  -20.1652   24.7452 O   0  0  0  0  0  0  0  0  0  0  0  0
   10.3901  -17.2830   28.1233 C   0  0  0  0  0  0  0  0  0  0  0  0
   10.1129  -17.9451   29.3323 O   0  0  0  0  0  0  0  0  0  0  0  0
   12.2717  -19.6810   24.6253 O   0  0  0  0  0  0  0  0  0  0  0  0
   10.8358  -16.1225   28.2275 O   0  0  0  0  0  0  0  0  0  0  0  0
  2  1  1  1
  2  3  1  0
  4  2  1  0
  4  5  1  6
  6  7  2  0
  6  4  1  0
  8  6  1  0
  9 10  1  1
  9  8  1  0
 11 10  1  0
 11 12  2  0
 13 12  1  0
 14 13  2  0
 15 16  2  0
 15 14  1  0
 16 11  1  0
 17  9  1  0
 18 17  2  0
 19 17  1  0
 20 24  1  0
 20 19  1  0
 20 21  1  6
 22 23  2  0
 22 21  1  0
 24 25  1  0
 26 22  1  0
 27 24  2  0
M  END
$$$$
