VFD.pdb
     RDKit          3D

 27 27  0  0  1  0  0  0  0  0999 V2000
    8.0378  -18.9361   18.8547 C   0  0  0  0  0  0  0  0  0  0  0  0
    8.4433  -18.1656   20.0658 C   0  0  1  0  0  0  0  0  0  0  0  0
    9.6351  -18.8207   20.7188 C   0  0  0  0  0  0  0  0  0  0  0  0
    8.7105  -16.7051   19.7685 C   0  0  2  0  0  0  0  0  0  0  0  0
    9.8514  -16.5481   18.8861 N   0  0  0  0  0  0  0  0  0  0  0  0
    8.9530  -15.9181   20.9812 C   0  0  0  0  0  0  0  0  0  0  0  0
   10.1526  -15.7129   21.3779 O   0  0  0  0  0  0  0  0  0  0  0  0
    7.9514  -15.3419   21.7853 N   0  0  0  0  0  0  0  0  0  0  0  0
    8.2293  -14.6128   23.0382 C   0  0  1  0  0  0  0  0  0  0  0  0
    7.0559  -13.7907   23.4232 C   0  0  0  0  0  0  0  0  0  0  0  0
    7.0507  -13.2037   24.7675 C   0  0  0  0  0  0  0  0  0  0  0  0
    7.8065  -12.0768   25.0777 C   0  0  0  0  0  0  0  0  0  0  0  0
    7.8111  -11.5149   26.3407 C   0  0  0  0  0  0  0  0  0  0  0  0
    7.0553  -12.0625   27.3458 C   0  0  0  0  0  0  0  0  0  0  0  0
    6.3043  -13.1674   27.0711 C   0  0  0  0  0  0  0  0  0  0  0  0
    6.3109  -13.7129   25.8123 C   0  0  0  0  0  0  0  0  0  0  0  0
    8.6002  -15.6626   24.0029 C   0  0  0  0  0  0  0  0  0  0  0  0
    7.8424  -16.6839   24.2049 O   0  0  0  0  0  0  0  0  0  0  0  0
    9.7917  -15.6847   24.7929 N   0  0  0  0  0  0  0  0  0  0  0  0
   10.0528  -16.7856   25.7156 C   0  0  1  0  0  0  0  0  0  0  0  0
   11.4956  -17.2696   25.5644 C   0  0  0  0  0  0  0  0  0  0  0  0
   11.9020  -17.4029   24.1630 C   0  0  0  0  0  0  0  0  0  0  0  0
   12.6426  -16.5858   23.5946 O   0  0  0  0  0  0  0  0  0  0  0  0
    9.7678  -16.4602   27.1219 C   0  0  0  0  0  0  0  0  0  0  0  0
    9.7304  -17.4537   28.1161 O   0  0  0  0  0  0  0  0  0  0  0  0
   11.4478  -18.4855   23.4229 O   0  0  0  0  0  0  0  0  0  0  0  0
    9.5454  -15.2949   27.5075 O   0  0  0  0  0  0  0  0  0  0  0  0
  2  1  1  6
  2  3  1  0
  4  2  1  0
  4  5  1  6
  6  7  2  0
  6  4  1  0
  8  6  1  0
  9 10  1  1
  9  8  1  0
 11 10  1  0
 11 12  2  0
 13 12  1  0
 14 13  2  0
 15 16  2  0
 15 14  1  0
 16 11  1  0
 17  9  1  0
 18 17  2  0
 19 17  1  0
 20 24  1  0
 20 19  1  0
 20 21  1  1
 22 23  2  0
 22 21  1  0
 24 25  1  0
 26 22  1  0
 27 24  2  0
M  END
$$$$
