VFD.pdb
     RDKit          3D

 27 27  0  0  1  0  0  0  0  0999 V2000
    9.4992  -19.1231   21.5966 C   0  0  0  0  0  0  0  0  0  0  0  0
   10.0654  -18.4636   20.3844 C   0  0  1  0  0  0  0  0  0  0  0  0
    9.9901  -19.4010   19.2047 C   0  0  0  0  0  0  0  0  0  0  0  0
    9.4050  -17.1362   20.0773 C   0  0  2  0  0  0  0  0  0  0  0  0
    9.9980  -16.5112   18.9100 N   0  0  0  0  0  0  0  0  0  0  0  0
    9.4862  -16.1936   21.1970 C   0  0  0  0  0  0  0  0  0  0  0  0
   10.5668  -15.5385   21.4009 O   0  0  0  0  0  0  0  0  0  0  0  0
    8.4462  -15.9284   22.1081 N   0  0  0  0  0  0  0  0  0  0  0  0
    8.5745  -14.9948   23.2441 C   0  0  1  0  0  0  0  0  0  0  0  0
    7.2884  -14.2932   23.4780 C   0  0  0  0  0  0  0  0  0  0  0  0
    7.1608  -13.5027   24.7070 C   0  0  0  0  0  0  0  0  0  0  0  0
    6.4370  -13.9638   25.8028 C   0  0  0  0  0  0  0  0  0  0  0  0
    6.3084  -13.2281   26.9660 C   0  0  0  0  0  0  0  0  0  0  0  0
    6.9024  -11.9967   27.0766 C   0  0  0  0  0  0  0  0  0  0  0  0
    7.6183  -11.5188   26.0186 C   0  0  0  0  0  0  0  0  0  0  0  0
    7.7363  -12.2617   24.8712 C   0  0  0  0  0  0  0  0  0  0  0  0
    9.0409  -15.8336   24.3618 C   0  0  0  0  0  0  0  0  0  0  0  0
    8.4020  -16.8947   24.7141 O   0  0  0  0  0  0  0  0  0  0  0  0
   10.2068  -15.5934   25.1536 N   0  0  0  0  0  0  0  0  0  0  0  0
   10.6562  -16.5771   26.1345 C   0  0  1  0  0  0  0  0  0  0  0  0
   12.1794  -16.7069   26.0915 C   0  0  0  0  0  0  0  0  0  0  0  0
   12.6815  -17.0184   24.7508 C   0  0  0  0  0  0  0  0  0  0  0  0
   12.1715  -17.8848   24.0237 O   0  0  0  0  0  0  0  0  0  0  0  0
   10.2061  -16.2941   27.5063 C   0  0  0  0  0  0  0  0  0  0  0  0
   10.3730  -17.2271   28.5447 O   0  0  0  0  0  0  0  0  0  0  0  0
   13.7758  -16.3233   24.2555 O   0  0  0  0  0  0  0  0  0  0  0  0
    9.6560  -15.2200   27.8221 O   0  0  0  0  0  0  0  0  0  0  0  0
  2  1  1  1
  2  3  1  0
  4  2  1  0
  4  5  1  6
  6  7  2  0
  6  4  1  0
  8  6  1  0
  9 10  1  1
  9  8  1  0
 11 10  1  0
 11 12  2  0
 13 12  1  0
 14 13  2  0
 15 16  2  0
 15 14  1  0
 16 11  1  0
 17  9  1  0
 18 17  2  0
 19 17  1  0
 20 24  1  0
 20 19  1  0
 20 21  1  1
 22 23  2  0
 22 21  1  0
 24 25  1  0
 26 22  1  0
 27 24  2  0
M  END
$$$$
