VFD.pdb
     RDKit          3D

 27 27  0  0  1  0  0  0  0  0999 V2000
    7.8813  -18.9743   18.9826 C   0  0  0  0  0  0  0  0  0  0  0  0
    8.3249  -18.2951   20.2343 C   0  0  1  0  0  0  0  0  0  0  0  0
    9.3556  -19.1395   20.9418 C   0  0  0  0  0  0  0  0  0  0  0  0
    8.8358  -16.8910   19.9893 C   0  0  2  0  0  0  0  0  0  0  0  0
   10.0727  -16.9061   19.2311 N   0  0  0  0  0  0  0  0  0  0  0  0
    9.0657  -16.1496   21.2328 C   0  0  0  0  0  0  0  0  0  0  0  0
   10.2404  -16.1043   21.7394 O   0  0  0  0  0  0  0  0  0  0  0  0
    8.0772  -15.4533   21.9539 N   0  0  0  0  0  0  0  0  0  0  0  0
    8.3186  -14.8160   23.2631 C   0  0  1  0  0  0  0  0  0  0  0  0
    7.2258  -13.8633   23.5780 C   0  0  0  0  0  0  0  0  0  0  0  0
    7.1506  -13.3465   24.9488 C   0  0  0  0  0  0  0  0  0  0  0  0
    8.2683  -12.8333   25.6006 C   0  0  0  0  0  0  0  0  0  0  0  0
    8.2107  -12.3444   26.8923 C   0  0  0  0  0  0  0  0  0  0  0  0
    7.0261  -12.3509   27.5838 C   0  0  0  0  0  0  0  0  0  0  0  0
    5.9139  -12.8478   26.9705 C   0  0  0  0  0  0  0  0  0  0  0  0
    5.9880  -13.3293   25.6879 C   0  0  0  0  0  0  0  0  0  0  0  0
    8.4561  -15.9419   24.2031 C   0  0  0  0  0  0  0  0  0  0  0  0
    7.4730  -16.7387   24.4414 O   0  0  0  0  0  0  0  0  0  0  0  0
    9.6403  -16.2814   24.9289 N   0  0  0  0  0  0  0  0  0  0  0  0
    9.6262  -17.3581   25.9148 C   0  0  1  0  0  0  0  0  0  0  0  0
   10.4473  -18.5457   25.4106 C   0  0  0  0  0  0  0  0  0  0  0  0
   11.7025  -18.1351   24.7761 C   0  0  0  0  0  0  0  0  0  0  0  0
   12.0799  -16.9541   24.7288 O   0  0  0  0  0  0  0  0  0  0  0  0
   10.0900  -16.9459   27.2488 C   0  0  0  0  0  0  0  0  0  0  0  0
   10.5887  -15.6536   27.4897 O   0  0  0  0  0  0  0  0  0  0  0  0
   12.5185  -19.0967   24.1971 O   0  0  0  0  0  0  0  0  0  0  0  0
   10.0671  -17.7131   28.2321 O   0  0  0  0  0  0  0  0  0  0  0  0
  2  1  1  6
  2  3  1  0
  4  2  1  0
  4  5  1  1
  6  7  2  0
  6  4  1  0
  8  6  1  0
  9 10  1  1
  9  8  1  0
 11 10  1  0
 11 12  2  0
 13 12  1  0
 14 13  2  0
 15 16  2  0
 15 14  1  0
 16 11  1  0
 17  9  1  0
 18 17  2  0
 19 17  1  0
 20 24  1  0
 20 19  1  0
 20 21  1  6
 22 23  2  0
 22 21  1  0
 24 25  1  0
 26 22  1  0
 27 24  2  0
M  END
$$$$
