YCG.pdb
     RDKit          3D

 23 23  0  0  1  0  0  0  0  0999 V2000
    5.7842  -10.8126   28.1006 O   0  0  0  0  0  0  0  0  0  0  0  0
    6.4191  -11.8016   27.3301 C   0  0  0  0  0  0  0  0  0  0  0  0
    7.3032  -12.6778   27.9266 C   0  0  0  0  0  0  0  0  0  0  0  0
    7.9290  -13.6486   27.1804 C   0  0  0  0  0  0  0  0  0  0  0  0
    7.6905  -13.7695   25.8285 C   0  0  0  0  0  0  0  0  0  0  0  0
    8.3679  -14.8218   25.0158 C   0  0  0  0  0  0  0  0  0  0  0  0
    7.3740  -15.8515   24.4996 C   0  0  2  0  0  0  0  0  0  0  0  0
    6.8535  -16.6725   25.5451 N   0  0  0  0  0  0  0  0  0  0  0  0
    8.0673  -16.6198   23.4399 C   0  0  0  0  0  0  0  0  0  0  0  0
    8.3418  -17.8216   23.6399 O   0  0  0  0  0  0  0  0  0  0  0  0
    6.8032  -12.8827   25.2546 C   0  0  0  0  0  0  0  0  0  0  0  0
    6.1632  -11.9019   25.9777 C   0  0  0  0  0  0  0  0  0  0  0  0
    8.4457  -16.0580   22.1842 N   0  0  0  0  0  0  0  0  0  0  0  0
    9.0245  -16.8270   21.1271 C   0  0  1  0  0  0  0  0  0  0  0  0
    8.4689  -16.4766   19.7638 C   0  0  0  0  0  0  0  0  0  0  0  0
    6.7168  -16.9065   19.6295 S   0  0  0  0  0  0  0  0  0  0  0  0
   10.4833  -16.5873   21.0714 C   0  0  0  0  0  0  0  0  0  0  0  0
   10.8902  -15.4034   21.1175 O   0  0  0  0  0  0  0  0  0  0  0  0
   11.4409  -17.6265   20.9687 N   0  0  0  0  0  0  0  0  0  0  0  0
   12.8513  -17.2944   20.9925 C   0  0  0  0  0  0  0  0  0  0  0  0
   13.6556  -18.5404   21.0217 C   0  0  0  0  0  0  0  0  0  0  0  0
   14.3671  -18.9039   20.0508 O   0  0  0  0  0  0  0  0  0  0  0  0
   13.5789  -19.2982   22.2017 O   0  0  0  0  0  0  0  0  0  0  0  0
  1  2  1  0
  2 12  2  0
  3  4  2  0
  3  2  1  0
  4  5  1  0
  5  6  1  0
  5 11  2  0
  6  7  1  0
  7  9  1  0
  7  8  1  1
  9 13  1  0
 10  9  2  0
 12 11  1  0
 13 14  1  0
 14 15  1  6
 14 17  1  0
 16 15  1  0
 17 18  2  0
 17 19  1  0
 19 20  1  0
 21 20  1  0
 21 23  1  0
 22 21  2  0
M  END
$$$$
