YCG.pdb
     RDKit          3D

 23 23  0  0  1  0  0  0  0  0999 V2000
    5.6904  -11.0565   28.0725 O   0  0  0  0  0  0  0  0  0  0  0  0
    6.3481  -11.9177   27.1777 C   0  0  0  0  0  0  0  0  0  0  0  0
    6.8448  -13.1260   27.6235 C   0  0  0  0  0  0  0  0  0  0  0  0
    7.4897  -13.9748   26.7549 C   0  0  0  0  0  0  0  0  0  0  0  0
    7.6548  -13.6424   25.4278 C   0  0  0  0  0  0  0  0  0  0  0  0
    8.3541  -14.5612   24.4825 C   0  0  0  0  0  0  0  0  0  0  0  0
    7.3657  -15.4214   23.7095 C   0  0  2  0  0  0  0  0  0  0  0  0
    6.9884  -16.5937   24.4317 N   0  0  0  0  0  0  0  0  0  0  0  0
    7.9896  -15.7148   22.3986 C   0  0  0  0  0  0  0  0  0  0  0  0
    8.5412  -16.8211   22.2210 O   0  0  0  0  0  0  0  0  0  0  0  0
    7.1500  -12.4298   25.0055 C   0  0  0  0  0  0  0  0  0  0  0  0
    6.5006  -11.5615   25.8531 C   0  0  0  0  0  0  0  0  0  0  0  0
    7.9972  -14.7927   21.3099 N   0  0  0  0  0  0  0  0  0  0  0  0
    8.5122  -15.1161   20.0160 C   0  0  1  0  0  0  0  0  0  0  0  0
    8.3246  -14.0043   19.0066 C   0  0  0  0  0  0  0  0  0  0  0  0
    6.5730  -13.6474   18.7288 S   0  0  0  0  0  0  0  0  0  0  0  0
    9.9659  -15.3761   20.1039 C   0  0  0  0  0  0  0  0  0  0  0  0
   10.6470  -14.6694   20.8823 O   0  0  0  0  0  0  0  0  0  0  0  0
   10.6248  -16.3815   19.3540 N   0  0  0  0  0  0  0  0  0  0  0  0
   12.0532  -16.5645   19.5169 C   0  0  0  0  0  0  0  0  0  0  0  0
   12.5245  -17.6374   18.6075 C   0  0  0  0  0  0  0  0  0  0  0  0
   11.7316  -18.3465   17.9370 O   0  0  0  0  0  0  0  0  0  0  0  0
   13.9152  -17.8199   18.5352 O   0  0  0  0  0  0  0  0  0  0  0  0
  1  2  1  0
  2 12  2  0
  3  4  2  0
  3  2  1  0
  4  5  1  0
  5  6  1  0
  5 11  2  0
  6  7  1  0
  7  9  1  0
  7  8  1  1
  9 13  1  0
 10  9  2  0
 12 11  1  0
 13 14  1  0
 14 15  1  6
 14 17  1  0
 16 15  1  0
 17 18  2  0
 17 19  1  0
 19 20  1  0
 21 20  1  0
 21 23  1  0
 22 21  2  0
M  END
$$$$
