YCG.pdb
     RDKit          3D

 23 23  0  0  1  0  0  0  0  0999 V2000
   11.4541  -14.2996   30.5816 O   0  0  0  0  0  0  0  0  0  0  0  0
   10.8426  -15.1071   29.6075 C   0  0  0  0  0  0  0  0  0  0  0  0
   10.7088  -16.4640   29.8223 C   0  0  0  0  0  0  0  0  0  0  0  0
   10.1116  -17.2616   28.8746 C   0  0  0  0  0  0  0  0  0  0  0  0
    9.6356  -16.7297   27.6958 C   0  0  0  0  0  0  0  0  0  0  0  0
    8.9872  -17.5924   26.6653 C   0  0  0  0  0  0  0  0  0  0  0  0
    7.4740  -17.4353   26.6808 C   0  0  2  0  0  0  0  0  0  0  0  0
    6.7991  -18.6923   26.6298 N   0  0  0  0  0  0  0  0  0  0  0  0
    7.1268  -16.5366   25.5559 C   0  0  0  0  0  0  0  0  0  0  0  0
    6.9808  -17.0196   24.4135 O   0  0  0  0  0  0  0  0  0  0  0  0
    9.7806  -15.3712   27.5036 C   0  0  0  0  0  0  0  0  0  0  0  0
   10.3740  -14.5499   28.4350 C   0  0  0  0  0  0  0  0  0  0  0  0
    6.9466  -15.1290   25.7037 N   0  0  0  0  0  0  0  0  0  0  0  0
    6.6605  -14.2586   24.6062 C   0  0  1  0  0  0  0  0  0  0  0  0
    6.1974  -12.8853   25.0416 C   0  0  0  0  0  0  0  0  0  0  0  0
    4.9509  -12.9875   26.3487 S   0  0  0  0  0  0  0  0  0  0  0  0
    7.8780  -14.0627   23.7890 C   0  0  0  0  0  0  0  0  0  0  0  0
    8.7282  -13.2319   24.1844 O   0  0  0  0  0  0  0  0  0  0  0  0
    8.1303  -14.7655   22.5849 N   0  0  0  0  0  0  0  0  0  0  0  0
    9.3356  -14.4747   21.8347 C   0  0  0  0  0  0  0  0  0  0  0  0
    9.3388  -15.2576   20.5748 C   0  0  0  0  0  0  0  0  0  0  0  0
    8.4393  -16.0921   20.2999 O   0  0  0  0  0  0  0  0  0  0  0  0
   10.4093  -15.0145   19.6986 O   0  0  0  0  0  0  0  0  0  0  0  0
  1  2  1  0
  2 12  2  0
  3  4  2  0
  3  2  1  0
  4  5  1  0
  5  6  1  0
  5 11  2  0
  6  7  1  0
  7  9  1  0
  7  8  1  6
  9 13  1  0
 10  9  2  0
 12 11  1  0
 13 14  1  0
 14 15  1  1
 14 17  1  0
 16 15  1  0
 17 18  2  0
 17 19  1  0
 19 20  1  0
 21 20  1  0
 21 23  1  0
 22 21  2  0
M  END
$$$$
