YCG.pdb
     RDKit          3D

 23 23  0  0  1  0  0  0  0  0999 V2000
   12.3429  -20.7854   31.9132 O   0  0  0  0  0  0  0  0  0  0  0  0
   12.3106  -20.2229   30.6258 C   0  0  0  0  0  0  0  0  0  0  0  0
   13.4815  -19.8025   30.0280 C   0  0  0  0  0  0  0  0  0  0  0  0
   13.4592  -19.2510   28.7685 C   0  0  0  0  0  0  0  0  0  0  0  0
   12.2759  -19.1056   28.0774 C   0  0  0  0  0  0  0  0  0  0  0  0
   12.2482  -18.5076   26.7105 C   0  0  0  0  0  0  0  0  0  0  0  0
   11.6228  -19.4578   25.7003 C   0  0  2  0  0  0  0  0  0  0  0  0
   12.2599  -20.7354   25.6930 N   0  0  0  0  0  0  0  0  0  0  0  0
   11.6651  -18.7732   24.3876 C   0  0  0  0  0  0  0  0  0  0  0  0
   12.4747  -19.1664   23.5218 O   0  0  0  0  0  0  0  0  0  0  0  0
   11.1187  -19.5329   28.6952 C   0  0  0  0  0  0  0  0  0  0  0  0
   11.1123  -20.0882   29.9545 C   0  0  0  0  0  0  0  0  0  0  0  0
   10.8215  -17.6735   24.0493 N   0  0  0  0  0  0  0  0  0  0  0  0
   10.8670  -17.0153   22.7809 C   0  0  1  0  0  0  0  0  0  0  0  0
    9.6725  -16.1200   22.5325 C   0  0  0  0  0  0  0  0  0  0  0  0
    8.1166  -16.9778   22.8729 S   0  0  0  0  0  0  0  0  0  0  0  0
   12.0704  -16.1585   22.7018 C   0  0  0  0  0  0  0  0  0  0  0  0
   12.5272  -15.6809   23.7660 O   0  0  0  0  0  0  0  0  0  0  0  0
   12.7304  -15.8516   21.4863 N   0  0  0  0  0  0  0  0  0  0  0  0
   13.8980  -14.9935   21.5118 C   0  0  0  0  0  0  0  0  0  0  0  0
   15.1242  -15.8239   21.5967 C   0  0  0  0  0  0  0  0  0  0  0  0
   15.1964  -16.8428   22.3300 O   0  0  0  0  0  0  0  0  0  0  0  0
   16.2089  -15.4072   20.8077 O   0  0  0  0  0  0  0  0  0  0  0  0
  1  2  1  0
  2 12  2  0
  3  4  2  0
  3  2  1  0
  4  5  1  0
  5  6  1  0
  5 11  2  0
  6  7  1  0
  7  9  1  0
  7  8  1  6
  9 13  1  0
 10  9  2  0
 12 11  1  0
 13 14  1  0
 14 15  1  1
 14 17  1  0
 16 15  1  0
 17 18  2  0
 17 19  1  0
 19 20  1  0
 21 20  1  0
 21 23  1  0
 22 21  2  0
M  END
$$$$
