YCG.pdb
     RDKit          3D

 23 23  0  0  1  0  0  0  0  0999 V2000
   10.3518  -14.4826   31.3883 O   0  0  0  0  0  0  0  0  0  0  0  0
   10.6552  -14.8523   30.0668 C   0  0  0  0  0  0  0  0  0  0  0  0
   10.2571  -14.0483   29.0178 C   0  0  0  0  0  0  0  0  0  0  0  0
   10.5497  -14.4023   27.7216 C   0  0  0  0  0  0  0  0  0  0  0  0
   11.2425  -15.5598   27.4403 C   0  0  0  0  0  0  0  0  0  0  0  0
   11.5616  -15.9468   26.0349 C   0  0  0  0  0  0  0  0  0  0  0  0
   10.4458  -16.7784   25.4201 C   0  0  2  0  0  0  0  0  0  0  0  0
   10.1983  -17.9781   26.1533 N   0  0  0  0  0  0  0  0  0  0  0  0
   10.8224  -17.0205   24.0082 C   0  0  0  0  0  0  0  0  0  0  0  0
   11.4093  -18.0812   23.7080 O   0  0  0  0  0  0  0  0  0  0  0  0
   11.6299  -16.3471   28.5050 C   0  0  0  0  0  0  0  0  0  0  0  0
   11.3504  -16.0168   29.8115 C   0  0  0  0  0  0  0  0  0  0  0  0
   10.5495  -16.0979   22.9547 N   0  0  0  0  0  0  0  0  0  0  0  0
   10.9305  -16.3285   21.5962 C   0  0  1  0  0  0  0  0  0  0  0  0
   10.0377  -15.6211   20.6000 C   0  0  0  0  0  0  0  0  0  0  0  0
    8.3076  -16.1142   20.7905 S   0  0  0  0  0  0  0  0  0  0  0  0
   12.3057  -15.8331   21.3685 C   0  0  0  0  0  0  0  0  0  0  0  0
   12.6882  -14.8314   22.0162 O   0  0  0  0  0  0  0  0  0  0  0  0
   13.2097  -16.4330   20.4573 N   0  0  0  0  0  0  0  0  0  0  0  0
   14.4966  -15.8094   20.2227 C   0  0  0  0  0  0  0  0  0  0  0  0
   15.4399  -16.1935   21.3012 C   0  0  0  0  0  0  0  0  0  0  0  0
   16.3290  -15.4126   21.7260 O   0  0  0  0  0  0  0  0  0  0  0  0
   15.2849  -17.4870   21.8263 O   0  0  0  0  0  0  0  0  0  0  0  0
  1  2  1  0
  2 12  2  0
  3  4  2  0
  3  2  1  0
  4  5  1  0
  5  6  1  0
  5 11  2  0
  6  7  1  0
  7  9  1  0
  7  8  1  1
  9 13  1  0
 10  9  2  0
 12 11  1  0
 13 14  1  0
 14 15  1  6
 14 17  1  0
 16 15  1  0
 17 18  2  0
 17 19  1  0
 19 20  1  0
 21 20  1  0
 21 23  1  0
 22 21  2  0
M  END
$$$$
