YCG.pdb
     RDKit          3D

 23 23  0  0  1  0  0  0  0  0999 V2000
    5.5248  -11.0640   28.3991 O   0  0  0  0  0  0  0  0  0  0  0  0
    6.2583  -11.7936   27.4480 C   0  0  0  0  0  0  0  0  0  0  0  0
    5.6035  -12.4271   26.4111 C   0  0  0  0  0  0  0  0  0  0  0  0
    6.3133  -13.1432   25.4759 C   0  0  0  0  0  0  0  0  0  0  0  0
    7.6855  -13.2449   25.5506 C   0  0  0  0  0  0  0  0  0  0  0  0
    8.4588  -14.0211   24.5374 C   0  0  0  0  0  0  0  0  0  0  0  0
    8.1330  -15.5056   24.6071 C   0  0  2  0  0  0  0  0  0  0  0  0
    8.5563  -16.0953   25.8364 N   0  0  0  0  0  0  0  0  0  0  0  0
    8.7454  -16.1332   23.4134 C   0  0  0  0  0  0  0  0  0  0  0  0
    9.6572  -16.9726   23.5673 O   0  0  0  0  0  0  0  0  0  0  0  0
    8.3177  -12.6034   26.5955 C   0  0  0  0  0  0  0  0  0  0  0  0
    7.6322  -11.8803   27.5450 C   0  0  0  0  0  0  0  0  0  0  0  0
    8.3480  -15.8300   22.0772 N   0  0  0  0  0  0  0  0  0  0  0  0
    8.9870  -16.3881   20.9264 C   0  0  1  0  0  0  0  0  0  0  0  0
    8.1932  -16.1940   19.6527 C   0  0  0  0  0  0  0  0  0  0  0  0
    6.5972  -17.0424   19.7284 S   0  0  0  0  0  0  0  0  0  0  0  0
   10.3007  -15.7407   20.7171 C   0  0  0  0  0  0  0  0  0  0  0  0
   10.3703  -14.4949   20.8277 O   0  0  0  0  0  0  0  0  0  0  0  0
   11.4810  -16.4570   20.3987 N   0  0  0  0  0  0  0  0  0  0  0  0
   12.7303  -15.7362   20.2580 C   0  0  0  0  0  0  0  0  0  0  0  0
   13.8223  -16.6895   19.9434 C   0  0  0  0  0  0  0  0  0  0  0  0
   13.6940  -17.9314   20.0927 O   0  0  0  0  0  0  0  0  0  0  0  0
   15.0168  -16.1256   19.4660 O   0  0  0  0  0  0  0  0  0  0  0  0
  1  2  1  0
  2 12  2  0
  3  4  2  0
  3  2  1  0
  4  5  1  0
  5  6  1  0
  5 11  2  0
  6  7  1  0
  7  9  1  0
  7  8  1  1
  9 13  1  0
 10  9  2  0
 12 11  1  0
 13 14  1  0
 14 15  1  6
 14 17  1  0
 16 15  1  0
 17 18  2  0
 17 19  1  0
 19 20  1  0
 21 20  1  0
 21 23  1  0
 22 21  2  0
M  END
$$$$
