YCG.pdb
     RDKit          3D

 23 23  0  0  1  0  0  0  0  0999 V2000
    5.3787  -10.5163   27.2245 O   0  0  0  0  0  0  0  0  0  0  0  0
    6.0533  -11.7061   26.9020 C   0  0  0  0  0  0  0  0  0  0  0  0
    6.7790  -11.7910   25.7309 C   0  0  0  0  0  0  0  0  0  0  0  0
    7.4421  -12.9514   25.4073 C   0  0  0  0  0  0  0  0  0  0  0  0
    7.3987  -14.0499   26.2383 C   0  0  0  0  0  0  0  0  0  0  0  0
    8.1172  -15.3106   25.8901 C   0  0  0  0  0  0  0  0  0  0  0  0
    7.2289  -16.2554   25.0946 C   0  0  2  0  0  0  0  0  0  0  0  0
    6.7491  -17.3421   25.8864 N   0  0  0  0  0  0  0  0  0  0  0  0
    8.0148  -16.6895   23.9166 C   0  0  0  0  0  0  0  0  0  0  0  0
    8.6298  -17.7754   23.9618 O   0  0  0  0  0  0  0  0  0  0  0  0
    6.6672  -13.9413   27.4029 C   0  0  0  0  0  0  0  0  0  0  0  0
    5.9941  -12.7924   27.7512 C   0  0  0  0  0  0  0  0  0  0  0  0
    8.1117  -15.9272   22.7145 N   0  0  0  0  0  0  0  0  0  0  0  0
    8.7619  -16.4074   21.5353 C   0  0  1  0  0  0  0  0  0  0  0  0
    8.1845  -15.8305   20.2610 C   0  0  0  0  0  0  0  0  0  0  0  0
    6.4512  -16.3012   20.0440 S   0  0  0  0  0  0  0  0  0  0  0  0
   10.1940  -16.0373   21.5645 C   0  0  0  0  0  0  0  0  0  0  0  0
   10.5244  -15.0015   22.1867 O   0  0  0  0  0  0  0  0  0  0  0  0
   11.2079  -16.7932   20.9258 N   0  0  0  0  0  0  0  0  0  0  0  0
   12.5846  -16.3500   21.0163 C   0  0  0  0  0  0  0  0  0  0  0  0
   13.2271  -16.9610   22.2055 C   0  0  0  0  0  0  0  0  0  0  0  0
   12.5944  -17.6903   23.0108 O   0  0  0  0  0  0  0  0  0  0  0  0
   14.5913  -16.6784   22.3847 O   0  0  0  0  0  0  0  0  0  0  0  0
  1  2  1  0
  2 12  2  0
  3  4  2  0
  3  2  1  0
  4  5  1  0
  5  6  1  0
  5 11  2  0
  6  7  1  0
  7  9  1  0
  7  8  1  1
  9 13  1  0
 10  9  2  0
 12 11  1  0
 13 14  1  0
 14 15  1  6
 14 17  1  0
 16 15  1  0
 17 18  2  0
 17 19  1  0
 19 20  1  0
 21 20  1  0
 21 23  1  0
 22 21  2  0
M  END
$$$$
