YCG.pdb
     RDKit          3D

 23 23  0  0  1  0  0  0  0  0999 V2000
   10.2906  -14.2971   31.0274 O   0  0  0  0  0  0  0  0  0  0  0  0
   10.2083  -14.6761   29.6767 C   0  0  0  0  0  0  0  0  0  0  0  0
   10.6936  -15.9042   29.2749 C   0  0  0  0  0  0  0  0  0  0  0  0
   10.6173  -16.2833   27.9553 C   0  0  0  0  0  0  0  0  0  0  0  0
   10.0584  -15.4524   27.0085 C   0  0  0  0  0  0  0  0  0  0  0  0
    9.9739  -15.8606   25.5757 C   0  0  0  0  0  0  0  0  0  0  0  0
    8.5870  -16.3791   25.2261 C   0  0  2  0  0  0  0  0  0  0  0  0
    8.2295  -17.5282   25.9941 N   0  0  0  0  0  0  0  0  0  0  0  0
    8.5788  -16.6236   23.7653 C   0  0  0  0  0  0  0  0  0  0  0  0
    8.7875  -17.7793   23.3403 O   0  0  0  0  0  0  0  0  0  0  0  0
    9.5802  -14.2301   27.4338 C   0  0  0  0  0  0  0  0  0  0  0  0
    9.6439  -13.8256   28.7478 C   0  0  0  0  0  0  0  0  0  0  0  0
    8.3425  -15.5997   22.8002 N   0  0  0  0  0  0  0  0  0  0  0  0
    8.3166  -15.8446   21.3919 C   0  0  1  0  0  0  0  0  0  0  0  0
    7.5324  -14.8044   20.6218 C   0  0  0  0  0  0  0  0  0  0  0  0
    5.8101  -14.7297   21.1703 S   0  0  0  0  0  0  0  0  0  0  0  0
    9.6945  -15.8299   20.8535 C   0  0  0  0  0  0  0  0  0  0  0  0
   10.4907  -14.9667   21.2898 O   0  0  0  0  0  0  0  0  0  0  0  0
   10.1578  -16.7404   19.8718 N   0  0  0  0  0  0  0  0  0  0  0  0
   11.5494  -16.7001   19.4693 C   0  0  0  0  0  0  0  0  0  0  0  0
   11.7697  -17.6414   18.3443 C   0  0  0  0  0  0  0  0  0  0  0  0
   10.9325  -18.5273   18.0355 O   0  0  0  0  0  0  0  0  0  0  0  0
   12.9735  -17.4885   17.6371 O   0  0  0  0  0  0  0  0  0  0  0  0
  1  2  1  0
  2 12  2  0
  3  4  2  0
  3  2  1  0
  4  5  1  0
  5  6  1  0
  5 11  2  0
  6  7  1  0
  7  9  1  0
  7  8  1  1
  9 13  1  0
 10  9  2  0
 12 11  1  0
 13 14  1  0
 14 15  1  6
 14 17  1  0
 16 15  1  0
 17 18  2  0
 17 19  1  0
 19 20  1  0
 21 20  1  0
 21 23  1  0
 22 21  2  0
M  END
$$$$
