YCG.pdb
     RDKit          3D

 23 23  0  0  1  0  0  0  0  0999 V2000
    7.6756  -13.3836   16.1020 O   0  0  0  0  0  0  0  0  0  0  0  0
    7.6280  -13.7219   17.4652 C   0  0  0  0  0  0  0  0  0  0  0  0
    7.3520  -15.0204   17.8436 C   0  0  0  0  0  0  0  0  0  0  0  0
    7.3036  -15.3603   19.1752 C   0  0  0  0  0  0  0  0  0  0  0  0
    7.5277  -14.4198   20.1572 C   0  0  0  0  0  0  0  0  0  0  0  0
    7.4758  -14.7853   21.6030 C   0  0  0  0  0  0  0  0  0  0  0  0
    8.8433  -14.6593   22.2579 C   0  0  2  0  0  0  0  0  0  0  0  0
    9.8379  -15.4326   21.5864 N   0  0  0  0  0  0  0  0  0  0  0  0
    8.6709  -15.0327   23.6808 C   0  0  0  0  0  0  0  0  0  0  0  0
    9.2994  -16.0123   24.1335 O   0  0  0  0  0  0  0  0  0  0  0  0
    7.8016  -13.1289   19.7547 C   0  0  0  0  0  0  0  0  0  0  0  0
    7.8562  -12.7614   18.4295 C   0  0  0  0  0  0  0  0  0  0  0  0
    7.8153  -14.3272   24.5784 N   0  0  0  0  0  0  0  0  0  0  0  0
    7.7222  -14.6334   25.9718 C   0  0  1  0  0  0  0  0  0  0  0  0
    6.7627  -13.7305   26.7162 C   0  0  0  0  0  0  0  0  0  0  0  0
    7.4396  -12.0653   26.9202 S   0  0  0  0  0  0  0  0  0  0  0  0
    7.2353  -16.0189   26.1509 C   0  0  0  0  0  0  0  0  0  0  0  0
    6.1448  -16.3354   25.6219 O   0  0  0  0  0  0  0  0  0  0  0  0
    7.9385  -17.0032   26.8885 N   0  0  0  0  0  0  0  0  0  0  0  0
    7.3773  -18.3340   27.0075 C   0  0  0  0  0  0  0  0  0  0  0  0
    8.2890  -19.1891   27.8061 C   0  0  0  0  0  0  0  0  0  0  0  0
    9.4297  -18.8021   28.1664 O   0  0  0  0  0  0  0  0  0  0  0  0
    7.8053  -20.4647   28.1406 O   0  0  0  0  0  0  0  0  0  0  0  0
  1  2  1  0
  2 12  2  0
  3  4  2  0
  3  2  1  0
  4  5  1  0
  5  6  1  0
  5 11  2  0
  6  7  1  0
  7  9  1  0
  7  8  1  6
  9 13  1  0
 10  9  2  0
 12 11  1  0
 13 14  1  0
 14 15  1  1
 14 17  1  0
 16 15  1  0
 17 18  2  0
 17 19  1  0
 19 20  1  0
 21 20  1  0
 21 23  1  0
 22 21  2  0
M  END
$$$$
