YCG.pdb
     RDKit          3D

 23 23  0  0  1  0  0  0  0  0999 V2000
    5.6169  -12.1104   26.9394 O   0  0  0  0  0  0  0  0  0  0  0  0
    6.2424  -12.8845   25.9473 C   0  0  0  0  0  0  0  0  0  0  0  0
    6.1246  -14.2596   25.9699 C   0  0  0  0  0  0  0  0  0  0  0  0
    6.7333  -15.0249   25.0031 C   0  0  0  0  0  0  0  0  0  0  0  0
    7.4705  -14.4419   23.9953 C   0  0  0  0  0  0  0  0  0  0  0  0
    8.1323  -15.2694   22.9446 C   0  0  0  0  0  0  0  0  0  0  0  0
    9.6482  -15.1927   23.0493 C   0  0  2  0  0  0  0  0  0  0  0  0
   10.2970  -15.6828   21.8758 N   0  0  0  0  0  0  0  0  0  0  0  0
   10.0285  -15.9247   24.2794 C   0  0  0  0  0  0  0  0  0  0  0  0
   10.3164  -17.1375   24.2017 O   0  0  0  0  0  0  0  0  0  0  0  0
    7.5741  -13.0662   23.9934 C   0  0  0  0  0  0  0  0  0  0  0  0
    6.9753  -12.2764   24.9484 C   0  0  0  0  0  0  0  0  0  0  0  0
   10.0860  -15.3155   25.5682 N   0  0  0  0  0  0  0  0  0  0  0  0
   10.7104  -15.9324   26.6967 C   0  0  1  0  0  0  0  0  0  0  0  0
   10.8242  -15.0102   27.8911 C   0  0  0  0  0  0  0  0  0  0  0  0
    9.8990  -13.4765   27.6373 S   0  0  0  0  0  0  0  0  0  0  0  0
    9.9183  -17.1037   27.1319 C   0  0  0  0  0  0  0  0  0  0  0  0
    8.6791  -17.0801   26.9499 O   0  0  0  0  0  0  0  0  0  0  0  0
   10.4891  -18.2477   27.7424 N   0  0  0  0  0  0  0  0  0  0  0  0
    9.6322  -19.3590   28.1042 C   0  0  0  0  0  0  0  0  0  0  0  0
   10.1933  -20.0556   29.2874 C   0  0  0  0  0  0  0  0  0  0  0  0
   11.2549  -19.6806   29.8473 O   0  0  0  0  0  0  0  0  0  0  0  0
    9.4690  -21.1656   29.7523 O   0  0  0  0  0  0  0  0  0  0  0  0
  1  2  1  0
  2 12  2  0
  3  4  2  0
  3  2  1  0
  4  5  1  0
  5  6  1  0
  5 11  2  0
  6  7  1  0
  7  9  1  0
  7  8  1  6
  9 13  1  0
 10  9  2  0
 12 11  1  0
 13 14  1  0
 14 15  1  1
 14 17  1  0
 16 15  1  0
 17 18  2  0
 17 19  1  0
 19 20  1  0
 21 20  1  0
 21 23  1  0
 22 21  2  0
M  END
$$$$
