YCG.pdb
     RDKit          3D

 23 23  0  0  1  0  0  0  0  0999 V2000
    7.9433  -14.0979   16.1319 O   0  0  0  0  0  0  0  0  0  0  0  0
    7.8454  -14.0627   17.5333 C   0  0  0  0  0  0  0  0  0  0  0  0
    8.4907  -15.0173   18.2934 C   0  0  0  0  0  0  0  0  0  0  0  0
    8.4003  -14.9904   19.6652 C   0  0  0  0  0  0  0  0  0  0  0  0
    7.6686  -14.0169   20.3101 C   0  0  0  0  0  0  0  0  0  0  0  0
    7.5684  -13.9848   21.7986 C   0  0  0  0  0  0  0  0  0  0  0  0
    7.4846  -15.3880   22.3807 C   0  0  2  0  0  0  0  0  0  0  0  0
    6.1608  -15.7226   22.7975 N   0  0  0  0  0  0  0  0  0  0  0  0
    8.4796  -15.4557   23.4758 C   0  0  0  0  0  0  0  0  0  0  0  0
    8.2592  -14.8365   24.5377 O   0  0  0  0  0  0  0  0  0  0  0  0
    7.0325  -13.0737   19.5296 C   0  0  0  0  0  0  0  0  0  0  0  0
    7.1061  -13.0771   18.1552 C   0  0  0  0  0  0  0  0  0  0  0  0
    9.6943  -16.1988   23.3867 N   0  0  0  0  0  0  0  0  0  0  0  0
   10.6920  -16.1904   24.4106 C   0  0  1  0  0  0  0  0  0  0  0  0
   10.3015  -16.9999   25.6280 C   0  0  0  0  0  0  0  0  0  0  0  0
   10.9892  -16.2932   27.1447 S   0  0  0  0  0  0  0  0  0  0  0  0
   11.9494  -16.7728   23.8923 C   0  0  0  0  0  0  0  0  0  0  0  0
   11.8834  -17.8473   23.2519 O   0  0  0  0  0  0  0  0  0  0  0  0
   13.2210  -16.1779   24.0833 N   0  0  0  0  0  0  0  0  0  0  0  0
   14.3808  -16.7657   23.4434 C   0  0  0  0  0  0  0  0  0  0  0  0
   15.5878  -15.9680   23.7710 C   0  0  0  0  0  0  0  0  0  0  0  0
   15.8445  -14.8746   23.2058 O   0  0  0  0  0  0  0  0  0  0  0  0
   16.4350  -16.5044   24.7545 O   0  0  0  0  0  0  0  0  0  0  0  0
  1  2  1  0
  2 12  2  0
  3  4  2  0
  3  2  1  0
  4  5  1  0
  5  6  1  0
  5 11  2  0
  6  7  1  0
  7  9  1  0
  7  8  1  1
  9 13  1  0
 10  9  2  0
 12 11  1  0
 13 14  1  0
 14 15  1  1
 14 17  1  0
 16 15  1  0
 17 18  2  0
 17 19  1  0
 19 20  1  0
 21 20  1  0
 21 23  1  0
 22 21  2  0
M  END
$$$$
