YCG.pdb
     RDKit          3D

 23 23  0  0  1  0  0  0  0  0999 V2000
    5.4479  -10.7098   27.6594 O   0  0  0  0  0  0  0  0  0  0  0  0
    6.1988  -11.7723   27.1281 C   0  0  0  0  0  0  0  0  0  0  0  0
    5.7956  -12.3835   25.9580 C   0  0  0  0  0  0  0  0  0  0  0  0
    6.5242  -13.4237   25.4309 C   0  0  0  0  0  0  0  0  0  0  0  0
    7.6666  -13.8782   26.0535 C   0  0  0  0  0  0  0  0  0  0  0  0
    8.4596  -15.0068   25.4843 C   0  0  0  0  0  0  0  0  0  0  0  0
    7.5692  -16.1876   25.1271 C   0  0  2  0  0  0  0  0  0  0  0  0
    7.4002  -17.0883   26.2217 N   0  0  0  0  0  0  0  0  0  0  0  0
    8.1648  -16.8241   23.9296 C   0  0  0  0  0  0  0  0  0  0  0  0
    8.7067  -17.9437   24.0414 O   0  0  0  0  0  0  0  0  0  0  0  0
    8.0497  -13.2518   27.2215 C   0  0  0  0  0  0  0  0  0  0  0  0
    7.3394  -12.2088   27.7708 C   0  0  0  0  0  0  0  0  0  0  0  0
    8.1552  -16.2233   22.6356 N   0  0  0  0  0  0  0  0  0  0  0  0
    8.7147  -16.8504   21.4790 C   0  0  1  0  0  0  0  0  0  0  0  0
    8.1891  -16.2791   20.1800 C   0  0  0  0  0  0  0  0  0  0  0  0
    6.3911  -16.4407   20.0621 S   0  0  0  0  0  0  0  0  0  0  0  0
   10.1824  -16.6657   21.4672 C   0  0  0  0  0  0  0  0  0  0  0  0
   10.6385  -15.5358   21.7581 O   0  0  0  0  0  0  0  0  0  0  0  0
   11.0958  -17.6995   21.1443 N   0  0  0  0  0  0  0  0  0  0  0  0
   12.5132  -17.4018   21.0941 C   0  0  0  0  0  0  0  0  0  0  0  0
   13.2602  -18.6079   20.6609 C   0  0  0  0  0  0  0  0  0  0  0  0
   14.4742  -18.7820   20.9379 O   0  0  0  0  0  0  0  0  0  0  0  0
   12.5322  -19.5524   19.9187 O   0  0  0  0  0  0  0  0  0  0  0  0
  1  2  1  0
  2 12  2  0
  3  4  2  0
  3  2  1  0
  4  5  1  0
  5  6  1  0
  5 11  2  0
  6  7  1  0
  7  9  1  0
  7  8  1  1
  9 13  1  0
 10  9  2  0
 12 11  1  0
 13 14  1  0
 14 15  1  6
 14 17  1  0
 16 15  1  0
 17 18  2  0
 17 19  1  0
 19 20  1  0
 21 20  1  0
 21 23  1  0
 22 21  2  0
M  END
$$$$
