YCG.pdb
     RDKit          3D

 23 23  0  0  1  0  0  0  0  0999 V2000
    5.8019  -10.7200   27.5484 O   0  0  0  0  0  0  0  0  0  0  0  0
    6.3937  -11.9431   27.1897 C   0  0  0  0  0  0  0  0  0  0  0  0
    7.4449  -12.4436   27.9312 C   0  0  0  0  0  0  0  0  0  0  0  0
    8.0299  -13.6397   27.5874 C   0  0  0  0  0  0  0  0  0  0  0  0
    7.5843  -14.3625   26.5021 C   0  0  0  0  0  0  0  0  0  0  0  0
    8.2169  -15.6607   26.1263 C   0  0  0  0  0  0  0  0  0  0  0  0
    7.2674  -16.5270   25.3122 C   0  0  2  0  0  0  0  0  0  0  0  0
    6.8838  -17.7121   26.0097 N   0  0  0  0  0  0  0  0  0  0  0  0
    7.9387  -16.7976   24.0200 C   0  0  0  0  0  0  0  0  0  0  0  0
    8.6074  -17.8442   23.8888 O   0  0  0  0  0  0  0  0  0  0  0  0
    6.5327  -13.8423   25.7763 C   0  0  0  0  0  0  0  0  0  0  0  0
    5.9289  -12.6480   26.0981 C   0  0  0  0  0  0  0  0  0  0  0  0
    7.8646  -15.9186   22.8987 N   0  0  0  0  0  0  0  0  0  0  0  0
    8.5117  -16.1861   21.6522 C   0  0  1  0  0  0  0  0  0  0  0  0
    7.9506  -15.3747   20.5047 C   0  0  0  0  0  0  0  0  0  0  0  0
    6.2354  -15.8258   20.1479 S   0  0  0  0  0  0  0  0  0  0  0  0
    9.9500  -15.8539   21.7508 C   0  0  0  0  0  0  0  0  0  0  0  0
   10.2686  -14.7437   22.2357 O   0  0  0  0  0  0  0  0  0  0  0  0
   10.9825  -16.7259   21.3255 N   0  0  0  0  0  0  0  0  0  0  0  0
   12.3643  -16.3365   21.5232 C   0  0  0  0  0  0  0  0  0  0  0  0
   13.2600  -17.3744   20.9567 C   0  0  0  0  0  0  0  0  0  0  0  0
   14.3371  -17.0878   20.3748 O   0  0  0  0  0  0  0  0  0  0  0  0
   12.8364  -18.7051   21.1067 O   0  0  0  0  0  0  0  0  0  0  0  0
  1  2  1  0
  2 12  2  0
  3  4  2  0
  3  2  1  0
  4  5  1  0
  5  6  1  0
  5 11  2  0
  6  7  1  0
  7  9  1  0
  7  8  1  1
  9 13  1  0
 10  9  2  0
 12 11  1  0
 13 14  1  0
 14 15  1  6
 14 17  1  0
 16 15  1  0
 17 18  2  0
 17 19  1  0
 19 20  1  0
 21 20  1  0
 21 23  1  0
 22 21  2  0
M  END
$$$$
