YCG.pdb
     RDKit          3D

 23 23  0  0  1  0  0  0  0  0999 V2000
   11.8354  -15.5663   31.6464 O   0  0  0  0  0  0  0  0  0  0  0  0
   11.2882  -15.7563   30.3660 C   0  0  0  0  0  0  0  0  0  0  0  0
   11.2732  -17.0165   29.8031 C   0  0  0  0  0  0  0  0  0  0  0  0
   10.7398  -17.2115   28.5508 C   0  0  0  0  0  0  0  0  0  0  0  0
   10.2109  -16.1611   27.8323 C   0  0  0  0  0  0  0  0  0  0  0  0
    9.6313  -16.3692   26.4731 C   0  0  0  0  0  0  0  0  0  0  0  0
    8.1534  -16.7227   26.5470 C   0  0  2  0  0  0  0  0  0  0  0  0
    7.9307  -18.1317   26.4917 N   0  0  0  0  0  0  0  0  0  0  0  0
    7.4818  -15.9789   25.4563 C   0  0  0  0  0  0  0  0  0  0  0  0
    6.9539  -16.6156   24.5206 O   0  0  0  0  0  0  0  0  0  0  0  0
   10.2371  -14.9111   28.4155 C   0  0  0  0  0  0  0  0  0  0  0  0
   10.7647  -14.6877   29.6669 C   0  0  0  0  0  0  0  0  0  0  0  0
    7.4017  -14.5551   25.4118 N   0  0  0  0  0  0  0  0  0  0  0  0
    6.7271  -13.8429   24.3718 C   0  0  1  0  0  0  0  0  0  0  0  0
    6.3289  -12.4394   24.7739 C   0  0  0  0  0  0  0  0  0  0  0  0
    5.2557  -12.4444   26.2303 S   0  0  0  0  0  0  0  0  0  0  0  0
    7.6115  -13.7176   23.1925 C   0  0  0  0  0  0  0  0  0  0  0  0
    8.7956  -13.3531   23.3775 O   0  0  0  0  0  0  0  0  0  0  0  0
    7.1878  -13.9885   21.8679 N   0  0  0  0  0  0  0  0  0  0  0  0
    8.1173  -13.7930   20.7734 C   0  0  0  0  0  0  0  0  0  0  0  0
    8.5937  -15.1096   20.2837 C   0  0  0  0  0  0  0  0  0  0  0  0
    8.8111  -16.0761   21.0580 O   0  0  0  0  0  0  0  0  0  0  0  0
    8.7904  -15.2192   18.8973 O   0  0  0  0  0  0  0  0  0  0  0  0
  1  2  1  0
  2 12  2  0
  3  4  2  0
  3  2  1  0
  4  5  1  0
  5  6  1  0
  5 11  2  0
  6  7  1  0
  7  9  1  0
  7  8  1  6
  9 13  1  0
 10  9  2  0
 12 11  1  0
 13 14  1  0
 14 15  1  1
 14 17  1  0
 16 15  1  0
 17 18  2  0
 17 19  1  0
 19 20  1  0
 21 20  1  0
 21 23  1  0
 22 21  2  0
M  END
$$$$
