CYD.pdb
     RDKit          3D

 27 27  0  0  1  0  0  0  0  0999 V2000
    7.7954  -13.0499   19.5740 N   0  0  0  0  0  0  0  0  0  0  0  0
    7.4132  -14.1219   20.4352 C   0  0  1  0  0  0  0  0  0  0  0  0
    7.2707  -15.4423   19.7134 C   0  0  0  0  0  0  0  0  0  0  0  0
    6.6880  -16.6823   20.9021 S   0  0  0  0  0  0  0  0  0  0  0  0
    8.2677  -14.2469   21.6451 C   0  0  0  0  0  0  0  0  0  0  0  0
    9.4971  -14.1614   21.5070 O   0  0  0  0  0  0  0  0  0  0  0  0
   10.8895  -15.2104   30.1193 O   0  0  0  0  0  0  0  0  0  0  0  0
   10.1427  -15.0220   28.9531 C   0  0  0  0  0  0  0  0  0  0  0  0
   10.1877  -13.8160   28.2899 C   0  0  0  0  0  0  0  0  0  0  0  0
    9.4579  -13.6138   27.1394 C   0  0  0  0  0  0  0  0  0  0  0  0
    8.6457  -14.6124   26.5963 C   0  0  0  0  0  0  0  0  0  0  0  0
    7.8602  -14.3608   25.3846 C   0  0  0  0  0  0  0  0  0  0  0  0
    8.5905  -14.6484   24.1236 C   0  0  2  0  0  0  0  0  0  0  0  0
    7.7466  -14.4591   22.9497 N   0  0  0  0  0  0  0  0  0  0  0  0
    9.2083  -15.9714   24.1532 C   0  0  0  0  0  0  0  0  0  0  0  0
    8.4809  -16.9817   24.0054 O   0  0  0  0  0  0  0  0  0  0  0  0
    8.6175  -15.8096   27.2779 C   0  0  0  0  0  0  0  0  0  0  0  0
    9.3459  -16.0192   28.4308 C   0  0  0  0  0  0  0  0  0  0  0  0
   10.5968  -16.2043   24.3403 N   0  0  0  0  0  0  0  0  0  0  0  0
   11.0856  -17.5905   24.4143 C   0  0  1  0  0  0  0  0  0  0  0  0
   12.3849  -17.7365   23.6929 C   0  0  0  0  0  0  0  0  0  0  0  0
   12.3338  -17.3375   22.2715 C   0  0  0  0  0  0  0  0  0  0  0  0
   11.5602  -17.8781   21.4233 O   0  0  0  0  0  0  0  0  0  0  0  0
   11.1506  -18.0462   25.8151 C   0  0  0  0  0  0  0  0  0  0  0  0
   10.8751  -17.3222   26.8011 O   0  0  0  0  0  0  0  0  0  0  0  0
   13.1740  -16.3089   21.8064 O   0  0  0  0  0  0  0  0  0  0  0  0
   11.5362  -19.3489   26.0740 O   0  0  0  0  0  0  0  0  0  0  0  0
  2  1  1  6
  2  3  1  0
  4  3  1  0
  5  2  1  0
  6  5  2  0
  8  7  1  0
  8 18  2  0
  9  8  1  0
 10  9  2  0
 10 11  1  0
 11 17  2  0
 13 12  1  1
 12 11  1  0
 13 14  1  0
 14  5  1  0
 15 13  1  0
 15 19  1  0
 16 15  2  0
 17 18  1  0
 20 24  1  0
 20 19  1  0
 20 21  1  1
 22 21  1  0
 22 23  2  0
 24 27  1  0
 25 24  2  0
 26 22  1  0
M  END
$$$$
