CYD.pdb
     RDKit          3D

 27 27  0  0  1  0  0  0  0  0999 V2000
    8.0429  -12.8965   17.8422 N   0  0  0  0  0  0  0  0  0  0  0  0
    7.4878  -13.8773   18.7180 C   0  0  1  0  0  0  0  0  0  0  0  0
    7.6828  -15.2928   18.2249 C   0  0  0  0  0  0  0  0  0  0  0  0
    9.2391  -15.3641   17.2961 S   0  0  0  0  0  0  0  0  0  0  0  0
    7.9189  -13.7242   20.1324 C   0  0  0  0  0  0  0  0  0  0  0  0
    8.9346  -13.0527   20.3673 O   0  0  0  0  0  0  0  0  0  0  0  0
    7.7720  -12.8966   28.9396 O   0  0  0  0  0  0  0  0  0  0  0  0
    7.4504  -13.1814   27.6098 C   0  0  0  0  0  0  0  0  0  0  0  0
    7.4884  -12.1852   26.6599 C   0  0  0  0  0  0  0  0  0  0  0  0
    7.1744  -12.4491   25.3450 C   0  0  0  0  0  0  0  0  0  0  0  0
    6.8063  -13.7270   24.9170 C   0  0  0  0  0  0  0  0  0  0  0  0
    6.4527  -13.9735   23.5160 C   0  0  0  0  0  0  0  0  0  0  0  0
    7.6253  -14.1173   22.6158 C   0  0  2  0  0  0  0  0  0  0  0  0
    7.2259  -14.3082   21.2266 N   0  0  0  0  0  0  0  0  0  0  0  0
    8.5305  -15.1654   23.0800 C   0  0  0  0  0  0  0  0  0  0  0  0
    8.9786  -15.1029   24.2492 O   0  0  0  0  0  0  0  0  0  0  0  0
    6.7757  -14.7065   25.8858 C   0  0  0  0  0  0  0  0  0  0  0  0
    7.0889  -14.4493   27.2046 C   0  0  0  0  0  0  0  0  0  0  0  0
    8.9491  -16.2705   22.2922 N   0  0  0  0  0  0  0  0  0  0  0  0
   10.1012  -17.0705   22.7379 C   0  0  1  0  0  0  0  0  0  0  0  0
   11.3844  -16.4525   22.2889 C   0  0  0  0  0  0  0  0  0  0  0  0
   12.5907  -17.1945   22.7088 C   0  0  0  0  0  0  0  0  0  0  0  0
   12.7608  -18.4320   22.4850 O   0  0  0  0  0  0  0  0  0  0  0  0
   10.0486  -17.2938   24.1944 C   0  0  0  0  0  0  0  0  0  0  0  0
    9.7430  -16.4088   25.0285 O   0  0  0  0  0  0  0  0  0  0  0  0
   13.6194  -16.5211   23.3933 O   0  0  0  0  0  0  0  0  0  0  0  0
   10.3509  -18.5505   24.6864 O   0  0  0  0  0  0  0  0  0  0  0  0
  2  1  1  6
  2  3  1  0
  4  3  1  0
  5  2  1  0
  6  5  2  0
  8  7  1  0
  8 18  2  0
  9  8  1  0
 10  9  2  0
 10 11  1  0
 11 17  2  0
 13 12  1  1
 12 11  1  0
 13 14  1  0
 14  5  1  0
 15 13  1  0
 15 19  1  0
 16 15  2  0
 17 18  1  0
 20 24  1  0
 20 19  1  0
 20 21  1  1
 22 21  1  0
 22 23  2  0
 24 27  1  0
 25 24  2  0
 26 22  1  0
M  END
$$$$
