CYD.pdb
     RDKit          3D

 27 27  0  0  1  0  0  0  0  0999 V2000
   10.4344  -16.6058   18.2730 N   0  0  0  0  0  0  0  0  0  0  0  0
    9.4229  -17.0465   19.1784 C   0  0  1  0  0  0  0  0  0  0  0  0
    9.3825  -18.5490   19.3386 C   0  0  0  0  0  0  0  0  0  0  0  0
    8.0483  -18.9636   20.4955 S   0  0  0  0  0  0  0  0  0  0  0  0
    9.4590  -16.3547   20.4936 C   0  0  0  0  0  0  0  0  0  0  0  0
   10.5483  -16.2633   21.0792 O   0  0  0  0  0  0  0  0  0  0  0  0
    6.9530  -12.2551   27.9774 O   0  0  0  0  0  0  0  0  0  0  0  0
    6.9924  -12.7712   26.6793 C   0  0  0  0  0  0  0  0  0  0  0  0
    6.3732  -13.9669   26.3909 C   0  0  0  0  0  0  0  0  0  0  0  0
    6.4025  -14.4895   25.1168 C   0  0  0  0  0  0  0  0  0  0  0  0
    7.0552  -13.8379   24.0675 C   0  0  0  0  0  0  0  0  0  0  0  0
    7.0919  -14.4300   22.7271 C   0  0  0  0  0  0  0  0  0  0  0  0
    8.3311  -15.1980   22.4424 C   0  0  2  0  0  0  0  0  0  0  0  0
    8.3093  -15.7941   21.1119 N   0  0  0  0  0  0  0  0  0  0  0  0
    8.6009  -16.1838   23.4857 C   0  0  0  0  0  0  0  0  0  0  0  0
    8.1761  -17.3538   23.3364 O   0  0  0  0  0  0  0  0  0  0  0  0
    7.6669  -12.6437   24.3811 C   0  0  0  0  0  0  0  0  0  0  0  0
    7.6416  -12.1144   25.6549 C   0  0  0  0  0  0  0  0  0  0  0  0
    9.3215  -15.9119   24.6791 N   0  0  0  0  0  0  0  0  0  0  0  0
    9.7731  -17.0369   25.5135 C   0  0  1  0  0  0  0  0  0  0  0  0
   10.7891  -17.8606   24.7926 C   0  0  0  0  0  0  0  0  0  0  0  0
   10.7050  -19.3075   25.0779 C   0  0  0  0  0  0  0  0  0  0  0  0
   11.4193  -19.8883   25.9512 O   0  0  0  0  0  0  0  0  0  0  0  0
   10.2469  -16.5564   26.8244 C   0  0  0  0  0  0  0  0  0  0  0  0
   10.4139  -15.3466   27.1088 O   0  0  0  0  0  0  0  0  0  0  0  0
    9.7960  -20.1070   24.3604 O   0  0  0  0  0  0  0  0  0  0  0  0
   10.5276  -17.4835   27.8115 O   0  0  0  0  0  0  0  0  0  0  0  0
  2  1  1  6
  2  3  1  0
  4  3  1  0
  5  2  1  0
  6  5  2  0
  8  7  1  0
  8 18  2  0
  9  8  1  0
 10  9  2  0
 10 11  1  0
 11 17  2  0
 13 12  1  1
 12 11  1  0
 13 14  1  0
 14  5  1  0
 15 13  1  0
 15 19  1  0
 16 15  2  0
 17 18  1  0
 20 24  1  0
 20 19  1  0
 20 21  1  6
 22 21  1  0
 22 23  2  0
 24 27  1  0
 25 24  2  0
 26 22  1  0
M  END
$$$$
