CYD.pdb
     RDKit          3D

 27 27  0  0  1  0  0  0  0  0999 V2000
   11.6111  -16.5592   19.2705 N   0  0  0  0  0  0  0  0  0  0  0  0
   10.3781  -16.8277   19.9373 C   0  0  1  0  0  0  0  0  0  0  0  0
   10.1112  -18.3041   20.1212 C   0  0  0  0  0  0  0  0  0  0  0  0
    9.3936  -18.9497   18.5855 S   0  0  0  0  0  0  0  0  0  0  0  0
   10.2141  -16.0773   21.2099 C   0  0  0  0  0  0  0  0  0  0  0  0
   11.2347  -15.7348   21.8254 O   0  0  0  0  0  0  0  0  0  0  0  0
    6.6979  -11.2845   27.8327 O   0  0  0  0  0  0  0  0  0  0  0  0
    6.8787  -12.0589   26.6835 C   0  0  0  0  0  0  0  0  0  0  0  0
    7.6076  -11.5658   25.6244 C   0  0  0  0  0  0  0  0  0  0  0  0
    7.7953  -12.3161   24.4846 C   0  0  0  0  0  0  0  0  0  0  0  0
    7.2607  -13.5998   24.3504 C   0  0  0  0  0  0  0  0  0  0  0  0
    7.4550  -14.3656   23.1158 C   0  0  0  0  0  0  0  0  0  0  0  0
    8.7915  -15.0047   23.0083 C   0  0  2  0  0  0  0  0  0  0  0  0
    8.9480  -15.7335   21.7551 N   0  0  0  0  0  0  0  0  0  0  0  0
    9.0811  -15.8378   24.1724 C   0  0  0  0  0  0  0  0  0  0  0  0
    8.9724  -15.3368   25.3164 O   0  0  0  0  0  0  0  0  0  0  0  0
    6.5357  -14.0708   25.4234 C   0  0  0  0  0  0  0  0  0  0  0  0
    6.3436  -13.3248   26.5681 C   0  0  0  0  0  0  0  0  0  0  0  0
    9.4841  -17.1981   24.1050 N   0  0  0  0  0  0  0  0  0  0  0  0
    9.8339  -17.9025   25.3490 C   0  0  1  0  0  0  0  0  0  0  0  0
   10.2245  -19.3163   25.0688 C   0  0  0  0  0  0  0  0  0  0  0  0
    9.1564  -20.1253   24.4468 C   0  0  0  0  0  0  0  0  0  0  0  0
    9.3256  -21.3206   24.0558 O   0  0  0  0  0  0  0  0  0  0  0  0
   10.8634  -17.1584   26.0976 C   0  0  0  0  0  0  0  0  0  0  0  0
   10.9356  -17.1285   27.3491 O   0  0  0  0  0  0  0  0  0  0  0  0
    7.8769  -19.5683   24.2662 O   0  0  0  0  0  0  0  0  0  0  0  0
   11.8154  -16.4460   25.3912 O   0  0  0  0  0  0  0  0  0  0  0  0
  2  1  1  1
  2  3  1  0
  4  3  1  0
  5  2  1  0
  6  5  2  0
  8  7  1  0
  8 18  2  0
  9  8  1  0
 10  9  2  0
 10 11  1  0
 11 17  2  0
 13 12  1  1
 12 11  1  0
 13 14  1  0
 14  5  1  0
 15 13  1  0
 15 19  1  0
 16 15  2  0
 17 18  1  0
 20 24  1  0
 20 19  1  0
 20 21  1  6
 22 21  1  0
 22 23  2  0
 24 27  1  0
 25 24  2  0
 26 22  1  0
M  END
$$$$
