CYD.pdb
     RDKit          3D

 27 27  0  0  1  0  0  0  0  0999 V2000
    7.6728  -13.1712   19.7860 N   0  0  0  0  0  0  0  0  0  0  0  0
    7.5148  -14.3270   20.6082 C   0  0  1  0  0  0  0  0  0  0  0  0
    7.7070  -15.6232   19.8548 C   0  0  0  0  0  0  0  0  0  0  0  0
    6.1059  -16.1258   19.1664 S   0  0  0  0  0  0  0  0  0  0  0  0
    8.3286  -14.2886   21.8516 C   0  0  0  0  0  0  0  0  0  0  0  0
    9.5426  -14.0562   21.7518 O   0  0  0  0  0  0  0  0  0  0  0  0
   10.8659  -15.2541   30.3173 O   0  0  0  0  0  0  0  0  0  0  0  0
   10.1200  -15.0304   29.1568 C   0  0  0  0  0  0  0  0  0  0  0  0
    9.3810  -16.0511   28.6017 C   0  0  0  0  0  0  0  0  0  0  0  0
    8.6404  -15.8474   27.4583 C   0  0  0  0  0  0  0  0  0  0  0  0
    8.6042  -14.6082   26.8142 C   0  0  0  0  0  0  0  0  0  0  0  0
    7.8275  -14.4270   25.5844 C   0  0  0  0  0  0  0  0  0  0  0  0
    8.6081  -14.6527   24.3411 C   0  0  2  0  0  0  0  0  0  0  0  0
    7.7853  -14.5045   23.1465 N   0  0  0  0  0  0  0  0  0  0  0  0
    9.3087  -15.9338   24.3747 C   0  0  0  0  0  0  0  0  0  0  0  0
    8.6697  -16.9794   24.1105 O   0  0  0  0  0  0  0  0  0  0  0  0
    9.3516  -13.6032   27.3888 C   0  0  0  0  0  0  0  0  0  0  0  0
   10.0957  -13.8002   28.5338 C   0  0  0  0  0  0  0  0  0  0  0  0
   10.6851  -16.0871   24.6899 N   0  0  0  0  0  0  0  0  0  0  0  0
   11.2592  -17.4412   24.7449 C   0  0  1  0  0  0  0  0  0  0  0  0
   12.5532  -17.5016   24.0018 C   0  0  0  0  0  0  0  0  0  0  0  0
   12.4042  -17.7110   22.5472 C   0  0  0  0  0  0  0  0  0  0  0  0
   11.3798  -18.2440   22.0211 O   0  0  0  0  0  0  0  0  0  0  0  0
   11.3750  -17.9020   26.1407 C   0  0  0  0  0  0  0  0  0  0  0  0
   11.1132  -17.1887   27.1382 O   0  0  0  0  0  0  0  0  0  0  0  0
   13.4343  -17.3090   21.6768 O   0  0  0  0  0  0  0  0  0  0  0  0
   11.7955  -19.1973   26.3813 O   0  0  0  0  0  0  0  0  0  0  0  0
  2  1  1  6
  2  3  1  0
  4  3  1  0
  5  2  1  0
  6  5  2  0
  8  7  1  0
  8 18  2  0
  9  8  1  0
 10  9  2  0
 10 11  1  0
 11 17  2  0
 13 12  1  1
 12 11  1  0
 13 14  1  0
 14  5  1  0
 15 13  1  0
 15 19  1  0
 16 15  2  0
 17 18  1  0
 20 24  1  0
 20 19  1  0
 20 21  1  1
 22 21  1  0
 22 23  2  0
 24 27  1  0
 25 24  2  0
 26 22  1  0
M  END
$$$$
