CYD.pdb
     RDKit          3D

 27 27  0  0  1  0  0  0  0  0999 V2000
    7.7138  -13.3450   19.5427 N   0  0  0  0  0  0  0  0  0  0  0  0
    7.0549  -13.9032   20.6791 C   0  0  1  0  0  0  0  0  0  0  0  0
    6.2909  -15.1682   20.3613 C   0  0  0  0  0  0  0  0  0  0  0  0
    7.4880  -16.4970   20.0592 S   0  0  0  0  0  0  0  0  0  0  0  0
    7.9458  -14.0807   21.8558 C   0  0  0  0  0  0  0  0  0  0  0  0
    9.1720  -14.0557   21.6730 O   0  0  0  0  0  0  0  0  0  0  0  0
   10.9940  -14.8784   30.1509 O   0  0  0  0  0  0  0  0  0  0  0  0
   10.1620  -14.7253   29.0386 C   0  0  0  0  0  0  0  0  0  0  0  0
    9.5299  -15.8194   28.4913 C   0  0  0  0  0  0  0  0  0  0  0  0
    8.7066  -15.6857   27.3951 C   0  0  0  0  0  0  0  0  0  0  0  0
    8.4763  -14.4465   26.7927 C   0  0  0  0  0  0  0  0  0  0  0  0
    7.6153  -14.3377   25.6114 C   0  0  0  0  0  0  0  0  0  0  0  0
    8.3396  -14.4870   24.3232 C   0  0  2  0  0  0  0  0  0  0  0  0
    7.4626  -14.2774   23.1773 N   0  0  0  0  0  0  0  0  0  0  0  0
    9.0470  -15.7628   24.2522 C   0  0  0  0  0  0  0  0  0  0  0  0
    8.4431  -16.7646   23.8013 O   0  0  0  0  0  0  0  0  0  0  0  0
    9.1198  -13.3674   27.3583 C   0  0  0  0  0  0  0  0  0  0  0  0
    9.9458  -13.4939   28.4562 C   0  0  0  0  0  0  0  0  0  0  0  0
   10.3926  -15.9578   24.6631 N   0  0  0  0  0  0  0  0  0  0  0  0
   11.0189  -17.2737   24.4583 C   0  0  1  0  0  0  0  0  0  0  0  0
   12.0576  -17.2085   23.3873 C   0  0  0  0  0  0  0  0  0  0  0  0
   12.7886  -18.4749   23.1780 C   0  0  0  0  0  0  0  0  0  0  0  0
   12.2595  -19.5087   22.6666 O   0  0  0  0  0  0  0  0  0  0  0  0
   11.5373  -17.8080   25.7310 C   0  0  0  0  0  0  0  0  0  0  0  0
   11.8273  -17.0977   26.7229 O   0  0  0  0  0  0  0  0  0  0  0  0
   14.1410  -18.5687   23.5553 O   0  0  0  0  0  0  0  0  0  0  0  0
   11.7195  -19.1733   25.8549 O   0  0  0  0  0  0  0  0  0  0  0  0
  2  1  1  6
  2  3  1  0
  4  3  1  0
  5  2  1  0
  6  5  2  0
  8  7  1  0
  8 18  2  0
  9  8  1  0
 10  9  2  0
 10 11  1  0
 11 17  2  0
 13 12  1  1
 12 11  1  0
 13 14  1  0
 14  5  1  0
 15 13  1  0
 15 19  1  0
 16 15  2  0
 17 18  1  0
 20 24  1  0
 20 19  1  0
 20 21  1  6
 22 21  1  0
 22 23  2  0
 24 27  1  0
 25 24  2  0
 26 22  1  0
M  END
$$$$
