CYD.pdb
     RDKit          3D

 27 27  0  0  1  0  0  0  0  0999 V2000
    9.7776  -15.7904   19.2888 N   0  0  0  0  0  0  0  0  0  0  0  0
    9.2855  -16.5350   20.4026 C   0  0  1  0  0  0  0  0  0  0  0  0
    9.3700  -18.0308   20.2016 C   0  0  0  0  0  0  0  0  0  0  0  0
    8.5280  -18.8412   21.5888 S   0  0  0  0  0  0  0  0  0  0  0  0
    9.8760  -16.1214   21.7026 C   0  0  0  0  0  0  0  0  0  0  0  0
   11.0363  -15.6840   21.7078 O   0  0  0  0  0  0  0  0  0  0  0  0
   10.7269  -14.3071   30.4084 O   0  0  0  0  0  0  0  0  0  0  0  0
   10.2372  -14.6208   29.1376 C   0  0  0  0  0  0  0  0  0  0  0  0
   10.0436  -13.6258   28.2056 C   0  0  0  0  0  0  0  0  0  0  0  0
    9.5617  -13.9179   26.9487 C   0  0  0  0  0  0  0  0  0  0  0  0
    9.2497  -15.2241   26.5638 C   0  0  0  0  0  0  0  0  0  0  0  0
    8.7144  -15.5024   25.2280 C   0  0  0  0  0  0  0  0  0  0  0  0
    9.7572  -15.7854   24.2088 C   0  0  2  0  0  0  0  0  0  0  0  0
    9.1779  -16.2022   22.9373 N   0  0  0  0  0  0  0  0  0  0  0  0
   10.7454  -16.7392   24.7055 C   0  0  0  0  0  0  0  0  0  0  0  0
   11.4124  -16.4431   25.7248 O   0  0  0  0  0  0  0  0  0  0  0  0
    9.4519  -16.2017   27.5136 C   0  0  0  0  0  0  0  0  0  0  0  0
    9.9342  -15.9164   28.7744 C   0  0  0  0  0  0  0  0  0  0  0  0
   11.0129  -18.0005   24.1096 N   0  0  0  0  0  0  0  0  0  0  0  0
   12.0619  -18.8559   24.6874 C   0  0  1  0  0  0  0  0  0  0  0  0
   13.3760  -18.6107   24.0215 C   0  0  0  0  0  0  0  0  0  0  0  0
   13.3262  -18.6759   22.5465 C   0  0  0  0  0  0  0  0  0  0  0  0
   12.8955  -19.6842   21.9077 O   0  0  0  0  0  0  0  0  0  0  0  0
   12.1195  -18.6932   26.1516 C   0  0  0  0  0  0  0  0  0  0  0  0
   12.0888  -17.5838   26.7352 O   0  0  0  0  0  0  0  0  0  0  0  0
   13.7724  -17.5795   21.7857 O   0  0  0  0  0  0  0  0  0  0  0  0
   12.2121  -19.8231   26.9438 O   0  0  0  0  0  0  0  0  0  0  0  0
  2  1  1  6
  2  3  1  0
  4  3  1  0
  5  2  1  0
  6  5  2  0
  8  7  1  0
  8 18  2  0
  9  8  1  0
 10  9  2  0
 10 11  1  0
 11 17  2  0
 13 12  1  1
 12 11  1  0
 13 14  1  0
 14  5  1  0
 15 13  1  0
 15 19  1  0
 16 15  2  0
 17 18  1  0
 20 24  1  0
 20 19  1  0
 20 21  1  6
 22 21  1  0
 22 23  2  0
 24 27  1  0
 25 24  2  0
 26 22  1  0
M  END
$$$$
