CYD.pdb
     RDKit          3D

 27 27  0  0  1  0  0  0  0  0999 V2000
    7.8536  -12.8703   19.4869 N   0  0  0  0  0  0  0  0  0  0  0  0
    7.4243  -13.8976   20.3799 C   0  0  1  0  0  0  0  0  0  0  0  0
    7.3074  -15.2510   19.7169 C   0  0  0  0  0  0  0  0  0  0  0  0
    6.6842  -16.4345   20.9420 S   0  0  0  0  0  0  0  0  0  0  0  0
    8.2202  -13.9672   21.6335 C   0  0  0  0  0  0  0  0  0  0  0  0
    9.4523  -13.8511   21.5540 O   0  0  0  0  0  0  0  0  0  0  0  0
   10.5956  -15.1026   30.1185 O   0  0  0  0  0  0  0  0  0  0  0  0
    9.8645  -14.8681   28.9508 C   0  0  0  0  0  0  0  0  0  0  0  0
    9.1526  -15.8898   28.3631 C   0  0  0  0  0  0  0  0  0  0  0  0
    8.4268  -15.6754   27.2122 C   0  0  0  0  0  0  0  0  0  0  0  0
    8.3791  -14.4241   26.5929 C   0  0  0  0  0  0  0  0  0  0  0  0
    7.6190  -14.2311   25.3545 C   0  0  0  0  0  0  0  0  0  0  0  0
    8.4288  -14.3939   24.1200 C   0  0  2  0  0  0  0  0  0  0  0  0
    7.6402  -14.1599   22.9160 N   0  0  0  0  0  0  0  0  0  0  0  0
    9.1090  -15.6861   24.0931 C   0  0  0  0  0  0  0  0  0  0  0  0
    8.4472  -16.7118   23.8074 O   0  0  0  0  0  0  0  0  0  0  0  0
    9.0994  -13.4184   27.1998 C   0  0  0  0  0  0  0  0  0  0  0  0
    9.8285  -13.6259   28.3526 C   0  0  0  0  0  0  0  0  0  0  0  0
   10.4893  -15.8719   24.3716 N   0  0  0  0  0  0  0  0  0  0  0  0
   11.0735  -17.2148   24.2260 C   0  0  1  0  0  0  0  0  0  0  0  0
   12.2869  -17.1765   23.3563 C   0  0  0  0  0  0  0  0  0  0  0  0
   12.9349  -18.4903   23.1667 C   0  0  0  0  0  0  0  0  0  0  0  0
   12.3108  -19.5926   23.2425 O   0  0  0  0  0  0  0  0  0  0  0  0
   11.3308  -17.8173   25.5468 C   0  0  0  0  0  0  0  0  0  0  0  0
   11.8353  -17.1979   26.5134 O   0  0  0  0  0  0  0  0  0  0  0  0
   14.3125  -18.5533   22.8867 O   0  0  0  0  0  0  0  0  0  0  0  0
   11.0005  -19.1451   25.7486 O   0  0  0  0  0  0  0  0  0  0  0  0
  2  1  1  6
  2  3  1  0
  4  3  1  0
  5  2  1  0
  6  5  2  0
  8  7  1  0
  8 18  2  0
  9  8  1  0
 10  9  2  0
 10 11  1  0
 11 17  2  0
 13 12  1  1
 12 11  1  0
 13 14  1  0
 14  5  1  0
 15 13  1  0
 15 19  1  0
 16 15  2  0
 17 18  1  0
 20 24  1  0
 20 19  1  0
 20 21  1  1
 22 21  1  0
 22 23  2  0
 24 27  1  0
 25 24  2  0
 26 22  1  0
M  END
$$$$
