CYD.pdb
     RDKit          3D

 27 27  0  0  1  0  0  0  0  0999 V2000
    4.9286  -21.7924   21.4684 N   0  0  0  0  0  0  0  0  0  0  0  0
    5.1738  -20.7470   22.4087 C   0  0  1  0  0  0  0  0  0  0  0  0
    5.6722  -21.2526   23.7431 C   0  0  0  0  0  0  0  0  0  0  0  0
    4.2477  -21.8454   24.6968 S   0  0  0  0  0  0  0  0  0  0  0  0
    6.0356  -19.6586   21.8772 C   0  0  0  0  0  0  0  0  0  0  0  0
    7.0049  -19.9699   21.1692 O   0  0  0  0  0  0  0  0  0  0  0  0
    9.0878  -11.7124   19.3774 O   0  0  0  0  0  0  0  0  0  0  0  0
    8.3517  -12.7318   19.9872 C   0  0  0  0  0  0  0  0  0  0  0  0
    7.8766  -13.7854   19.2385 C   0  0  0  0  0  0  0  0  0  0  0  0
    7.1495  -14.7982   19.8240 C   0  0  0  0  0  0  0  0  0  0  0  0
    6.8623  -14.8045   21.1912 C   0  0  0  0  0  0  0  0  0  0  0  0
    6.0645  -15.8824   21.7828 C   0  0  0  0  0  0  0  0  0  0  0  0
    6.6971  -17.2227   21.6847 C   0  0  2  0  0  0  0  0  0  0  0  0
    5.8040  -18.2817   22.1397 N   0  0  0  0  0  0  0  0  0  0  0  0
    7.9877  -17.2562   22.3676 C   0  0  0  0  0  0  0  0  0  0  0  0
    8.0088  -17.2482   23.6210 O   0  0  0  0  0  0  0  0  0  0  0  0
    7.3484  -13.7399   21.9187 C   0  0  0  0  0  0  0  0  0  0  0  0
    8.0774  -12.7221   21.3389 C   0  0  0  0  0  0  0  0  0  0  0  0
    9.2441  -17.2980   21.7065 N   0  0  0  0  0  0  0  0  0  0  0  0
   10.4761  -17.2895   22.5116 C   0  0  1  0  0  0  0  0  0  0  0  0
   11.2832  -18.5212   22.2632 C   0  0  0  0  0  0  0  0  0  0  0  0
   12.5832  -18.5421   22.9644 C   0  0  0  0  0  0  0  0  0  0  0  0
   12.7133  -18.2793   24.1990 O   0  0  0  0  0  0  0  0  0  0  0  0
   11.2376  -16.0472   22.2862 C   0  0  0  0  0  0  0  0  0  0  0  0
   12.2966  -15.7550   22.8907 O   0  0  0  0  0  0  0  0  0  0  0  0
   13.7530  -18.8665   22.2527 O   0  0  0  0  0  0  0  0  0  0  0  0
   10.7693  -15.1392   21.3540 O   0  0  0  0  0  0  0  0  0  0  0  0
  2  1  1  6
  2  3  1  0
  4  3  1  0
  5  2  1  0
  6  5  2  0
  8  7  1  0
  8 18  2  0
  9  8  1  0
 10  9  2  0
 10 11  1  0
 11 17  2  0
 13 12  1  1
 12 11  1  0
 13 14  1  0
 14  5  1  0
 15 13  1  0
 15 19  1  0
 16 15  2  0
 17 18  1  0
 20 24  1  0
 20 19  1  0
 20 21  1  6
 22 21  1  0
 22 23  2  0
 24 27  1  0
 25 24  2  0
 26 22  1  0
M  END
$$$$
