CYD.pdb
     RDKit          3D

 27 27  0  0  1  0  0  0  0  0999 V2000
    8.4545  -13.0715   19.7220 N   0  0  0  0  0  0  0  0  0  0  0  0
    7.9374  -14.2307   20.3747 C   0  0  1  0  0  0  0  0  0  0  0  0
    7.9204  -15.4544   19.4876 C   0  0  0  0  0  0  0  0  0  0  0  0
    7.1069  -15.0162   17.9267 S   0  0  0  0  0  0  0  0  0  0  0  0
    8.5794  -14.5116   21.6857 C   0  0  0  0  0  0  0  0  0  0  0  0
    9.7561  -14.1568   21.8513 O   0  0  0  0  0  0  0  0  0  0  0  0
    6.1743  -10.2140   26.8951 O   0  0  0  0  0  0  0  0  0  0  0  0
    6.5456  -11.4930   26.4718 C   0  0  0  0  0  0  0  0  0  0  0  0
    5.6629  -12.2673   25.7525 C   0  0  0  0  0  0  0  0  0  0  0  0
    6.0131  -13.5300   25.3278 C   0  0  0  0  0  0  0  0  0  0  0  0
    7.2675  -14.0793   25.6039 C   0  0  0  0  0  0  0  0  0  0  0  0
    7.6038  -15.4356   25.1613 C   0  0  0  0  0  0  0  0  0  0  0  0
    8.5597  -15.4781   24.0253 C   0  0  2  0  0  0  0  0  0  0  0  0
    7.9128  -15.1654   22.7565 N   0  0  0  0  0  0  0  0  0  0  0  0
    9.2808  -16.7474   23.9803 C   0  0  0  0  0  0  0  0  0  0  0  0
    9.3862  -17.3444   22.8830 O   0  0  0  0  0  0  0  0  0  0  0  0
    8.1327  -13.2854   26.3249 C   0  0  0  0  0  0  0  0  0  0  0  0
    7.7887  -12.0199   26.7534 C   0  0  0  0  0  0  0  0  0  0  0  0
    9.8830  -17.3681   25.1071 N   0  0  0  0  0  0  0  0  0  0  0  0
   11.1099  -18.1584   24.9171 C   0  0  1  0  0  0  0  0  0  0  0  0
   12.1228  -17.3897   24.1340 C   0  0  0  0  0  0  0  0  0  0  0  0
   12.8615  -18.1997   23.1438 C   0  0  0  0  0  0  0  0  0  0  0  0
   12.6826  -19.4466   22.9908 O   0  0  0  0  0  0  0  0  0  0  0  0
   11.6266  -18.6383   26.2119 C   0  0  0  0  0  0  0  0  0  0  0  0
   11.6784  -17.9361   27.2495 O   0  0  0  0  0  0  0  0  0  0  0  0
   13.8177  -17.5842   22.3149 O   0  0  0  0  0  0  0  0  0  0  0  0
   12.0849  -19.9399   26.3046 O   0  0  0  0  0  0  0  0  0  0  0  0
  2  1  1  6
  2  3  1  0
  4  3  1  0
  5  2  1  0
  6  5  2  0
  8  7  1  0
  8 18  2  0
  9  8  1  0
 10  9  2  0
 10 11  1  0
 11 17  2  0
 13 12  1  1
 12 11  1  0
 13 14  1  0
 14  5  1  0
 15 13  1  0
 15 19  1  0
 16 15  2  0
 17 18  1  0
 20 24  1  0
 20 19  1  0
 20 21  1  1
 22 21  1  0
 22 23  2  0
 24 27  1  0
 25 24  2  0
 26 22  1  0
M  END
$$$$
