CYD.pdb
     RDKit          3D

 27 27  0  0  1  0  0  0  0  0999 V2000
    9.8244  -16.8058   17.9567 N   0  0  0  0  0  0  0  0  0  0  0  0
    8.6800  -16.8584   18.8080 C   0  0  1  0  0  0  0  0  0  0  0  0
    8.0905  -18.2453   18.9263 C   0  0  0  0  0  0  0  0  0  0  0  0
    9.3216  -19.3235   19.7087 S   0  0  0  0  0  0  0  0  0  0  0  0
    8.9013  -16.2401   20.1416 C   0  0  0  0  0  0  0  0  0  0  0  0
   10.0560  -16.2152   20.5929 O   0  0  0  0  0  0  0  0  0  0  0  0
    7.5265  -12.1875   27.9411 O   0  0  0  0  0  0  0  0  0  0  0  0
    7.3676  -12.7120   26.6556 C   0  0  0  0  0  0  0  0  0  0  0  0
    6.6878  -13.8951   26.4700 C   0  0  0  0  0  0  0  0  0  0  0  0
    6.5224  -14.4257   25.2097 C   0  0  0  0  0  0  0  0  0  0  0  0
    7.0311  -13.7952   24.0716 C   0  0  0  0  0  0  0  0  0  0  0  0
    6.8620  -14.3958   22.7453 C   0  0  0  0  0  0  0  0  0  0  0  0
    8.0769  -15.0821   22.2362 C   0  0  2  0  0  0  0  0  0  0  0  0
    7.8571  -15.6773   20.9234 N   0  0  0  0  0  0  0  0  0  0  0  0
    8.5895  -16.0493   23.2031 C   0  0  0  0  0  0  0  0  0  0  0  0
    8.0349  -17.1703   23.2890 O   0  0  0  0  0  0  0  0  0  0  0  0
    7.7071  -12.6133   24.2832 C   0  0  0  0  0  0  0  0  0  0  0  0
    7.8766  -12.0760   25.5427 C   0  0  0  0  0  0  0  0  0  0  0  0
    9.6894  -15.8113   24.0697 N   0  0  0  0  0  0  0  0  0  0  0  0
   10.1904  -16.9124   24.9079 C   0  0  1  0  0  0  0  0  0  0  0  0
   11.6496  -17.1337   24.6803 C   0  0  0  0  0  0  0  0  0  0  0  0
   12.2433  -18.1760   25.5423 C   0  0  0  0  0  0  0  0  0  0  0  0
   11.6919  -19.2980   25.7597 O   0  0  0  0  0  0  0  0  0  0  0  0
    9.8575  -16.6815   26.3255 C   0  0  0  0  0  0  0  0  0  0  0  0
    9.7345  -15.5448   26.8404 O   0  0  0  0  0  0  0  0  0  0  0  0
   13.4821  -17.9405   26.1670 O   0  0  0  0  0  0  0  0  0  0  0  0
    9.6649  -17.7746   27.1507 O   0  0  0  0  0  0  0  0  0  0  0  0
  2  1  1  1
  2  3  1  0
  4  3  1  0
  5  2  1  0
  6  5  2  0
  8  7  1  0
  8 18  2  0
  9  8  1  0
 10  9  2  0
 10 11  1  0
 11 17  2  0
 13 12  1  1
 12 11  1  0
 13 14  1  0
 14  5  1  0
 15 13  1  0
 15 19  1  0
 16 15  2  0
 17 18  1  0
 20 24  1  0
 20 19  1  0
 20 21  1  1
 22 21  1  0
 22 23  2  0
 24 27  1  0
 25 24  2  0
 26 22  1  0
M  END
$$$$
