HRR.pdb
     RDKit          3D

 33 33  0  0  1  0  0  0  0  0999 V2000
    8.1627  -12.9683   24.1274 N   0  0  0  0  0  0  0  0  0  0  0  0
    8.0870  -14.2475   24.7870 C   0  0  1  0  0  0  0  0  0  0  0  0
    6.6761  -14.5085   25.3149 C   0  0  0  0  0  0  0  0  0  0  0  0
    6.2879  -13.3764   26.1802 C   0  0  0  0  0  0  0  0  0  0  0  0
    6.9401  -12.1858   26.3848 C   0  0  0  0  0  0  0  0  0  0  0  0
    6.2292  -11.4260   27.2645 N   0  0  0  0  0  0  0  0  0  0  0  0
    5.1485  -12.1400   27.6004 C   0  0  0  0  0  0  0  0  0  0  0  0
    5.1842  -13.3185   26.9450 N   0  0  0  0  0  0  0  0  0  0  0  0
    8.4296  -15.3135   23.8159 C   0  0  0  0  0  0  0  0  0  0  0  0
    8.2910  -16.5252   24.1245 O   0  0  0  0  0  0  0  0  0  0  0  0
    8.9974  -14.8298   15.7727 N   0  0  0  0  0  0  0  0  0  0  0  0
    8.0995  -13.9341   16.3825 C   0  0  0  0  0  0  0  0  0  0  0  0
    7.0882  -13.4852   15.7360 N   0  0  0  0  0  0  0  0  0  0  0  0
    8.3088  -13.5230   17.7134 N   0  0  0  0  0  0  0  0  0  0  0  0
    9.3762  -14.0657   18.4878 C   0  0  0  0  0  0  0  0  0  0  0  0
    8.8229  -14.9097   19.6384 C   0  0  0  0  0  0  0  0  0  0  0  0
   10.0059  -15.3397   20.4440 C   0  0  0  0  0  0  0  0  0  0  0  0
    9.5742  -16.0372   21.7507 C   0  0  2  0  0  0  0  0  0  0  0  0
    8.9186  -15.0043   22.5188 N   0  0  0  0  0  0  0  0  0  0  0  0
   10.7834  -16.5385   22.4622 C   0  0  0  0  0  0  0  0  0  0  0  0
   11.3834  -15.7508   23.2334 O   0  0  0  0  0  0  0  0  0  0  0  0
    6.4297  -12.7905   16.1306 N   0  0  0  0  0  0  0  0  0  0  0  0
    9.3303  -18.5988   28.5157 C   0  0  0  0  0  0  0  0  0  0  0  0
    9.6596  -19.9496   28.1429 N   0  0  0  0  0  0  0  0  0  0  0  0
    9.0264  -20.9372   28.6644 N   0  0  0  0  0  0  0  0  0  0  0  0
   10.6764  -20.2364   27.2063 C   0  0  0  0  0  0  0  0  0  0  0  0
   11.4642  -19.1821   26.6125 C   0  0  0  0  0  0  0  0  0  0  0  0
   11.5105  -19.3354   25.1079 C   0  0  0  0  0  0  0  0  0  0  0  0
   12.2469  -18.2018   24.4510 C   0  0  1  0  0  0  0  0  0  0  0  0
   12.4399  -18.3787   22.9826 N   0  0  0  0  0  0  0  0  0  0  0  0
   11.2717  -17.8617   22.2967 C   0  0  0  0  0  0  0  0  0  0  0  0
   12.7334  -19.7776   22.5919 O   0  0  0  0  0  0  0  0  0  0  0  0
   13.9775  -20.2977   22.9614 O   0  0  0  0  0  0  0  0  0  0  0  0
  2  3  1  0
  2  9  1  0
  2  1  1  6
  4  3  1  0
  4  5  2  0
  6  5  1  0
  7  6  1  0
  8  7  2  0
  8  4  1  0
  9 10  2  0
 11 12  1  0
 12 13  2  0
 12 14  1  0
 14 15  1  0
 15 16  1  0
 17 16  1  0
 18 17  1  6
 19 18  1  0
 19  9  1  0
 20 21  2  0
 20 18  1  0
 22 23  1  0
 23 25  1  0
 24 23  2  0
 25 26  1  0
 27 26  1  0
 27 28  1  0
 29 28  1  6
 29 30  1  0
 30 20  1  0
 31 32  1  0
 31 29  1  0
 33 31  2  0
M  END
$$$$
