HRR.pdb
     RDKit          3D

 33 33  0  0  1  0  0  0  0  0999 V2000
    8.7092  -19.8942   18.2742 N   0  0  0  0  0  0  0  0  0  0  0  0
    9.5931  -19.1300   19.1180 C   0  0  1  0  0  0  0  0  0  0  0  0
    9.7612  -17.7061   18.5873 C   0  0  0  0  0  0  0  0  0  0  0  0
   10.6416  -17.7536   17.4025 C   0  0  0  0  0  0  0  0  0  0  0  0
   12.0095  -17.8572   17.3498 C   0  0  0  0  0  0  0  0  0  0  0  0
   12.4125  -17.8667   16.0482 N   0  0  0  0  0  0  0  0  0  0  0  0
   11.3047  -17.7699   15.3040 C   0  0  0  0  0  0  0  0  0  0  0  0
   10.2347  -17.7015   16.1227 N   0  0  0  0  0  0  0  0  0  0  0  0
    9.0175  -19.0580   20.4819 C   0  0  0  0  0  0  0  0  0  0  0  0
    7.9478  -18.4293   20.6896 O   0  0  0  0  0  0  0  0  0  0  0  0
    5.8000  -22.7383   26.2810 N   0  0  0  0  0  0  0  0  0  0  0  0
    6.5982  -22.0422   27.2076 C   0  0  0  0  0  0  0  0  0  0  0  0
    6.2619  -21.9849   28.4428 N   0  0  0  0  0  0  0  0  0  0  0  0
    7.7770  -21.4002   26.7803 N   0  0  0  0  0  0  0  0  0  0  0  0
    8.1359  -21.3718   25.4005 C   0  0  0  0  0  0  0  0  0  0  0  0
    9.3889  -20.5174   25.1944 C   0  0  0  0  0  0  0  0  0  0  0  0
    9.7459  -20.6460   23.7490 C   0  0  0  0  0  0  0  0  0  0  0  0
    9.0677  -19.5495   22.9015 C   0  0  2  0  0  0  0  0  0  0  0  0
    9.6475  -19.6912   21.5861 N   0  0  0  0  0  0  0  0  0  0  0  0
    9.3876  -18.2141   23.4796 C   0  0  0  0  0  0  0  0  0  0  0  0
   10.5882  -17.8484   23.4914 O   0  0  0  0  0  0  0  0  0  0  0  0
    6.8533  -21.5428   29.1685 N   0  0  0  0  0  0  0  0  0  0  0  0
    7.0493  -11.1930   20.3833 C   0  0  0  0  0  0  0  0  0  0  0  0
    7.8294  -12.2600   19.8131 N   0  0  0  0  0  0  0  0  0  0  0  0
    8.1826  -12.2151   18.5796 N   0  0  0  0  0  0  0  0  0  0  0  0
    8.2282  -13.3798   20.5749 C   0  0  0  0  0  0  0  0  0  0  0  0
    7.8959  -13.4868   21.9759 C   0  0  0  0  0  0  0  0  0  0  0  0
    8.4400  -14.7746   22.5549 C   0  0  0  0  0  0  0  0  0  0  0  0
    7.9592  -15.0050   23.9601 C   0  0  2  0  0  0  0  0  0  0  0  0
    8.6818  -16.0978   24.6730 N   0  0  0  0  0  0  0  0  0  0  0  0
    8.3901  -17.3543   24.0108 C   0  0  0  0  0  0  0  0  0  0  0  0
    8.3788  -16.1561   26.1222 O   0  0  0  0  0  0  0  0  0  0  0  0
    8.9445  -15.1688   26.9346 O   0  0  0  0  0  0  0  0  0  0  0  0
  2  3  1  0
  2  9  1  0
  2  1  1  6
  4  3  1  0
  4  5  2  0
  6  5  1  0
  7  6  1  0
  8  7  2  0
  8  4  1  0
  9 10  2  0
 11 12  1  0
 12 13  2  0
 12 14  1  0
 14 15  1  0
 15 16  1  0
 17 16  1  0
 18 17  1  1
 19 18  1  0
 19  9  1  0
 20 21  2  0
 20 18  1  0
 22 23  1  0
 23 25  1  0
 24 23  2  0
 25 26  1  0
 27 26  1  0
 27 28  1  0
 29 28  1  6
 29 30  1  0
 30 20  1  0
 31 32  1  0
 31 29  1  0
 33 31  2  0
M  END
$$$$
