HRR.pdb
     RDKit          3D

 33 33  0  0  1  0  0  0  0  0999 V2000
    6.7195  -16.2035   17.9487 N   0  0  0  0  0  0  0  0  0  0  0  0
    7.8461  -15.8550   18.7774 C   0  0  1  0  0  0  0  0  0  0  0  0
    8.1264  -14.3532   18.7167 C   0  0  0  0  0  0  0  0  0  0  0  0
    8.4237  -13.9932   17.3156 C   0  0  0  0  0  0  0  0  0  0  0  0
    7.7458  -13.1362   16.4844 C   0  0  0  0  0  0  0  0  0  0  0  0
    8.3659  -13.0973   15.2717 N   0  0  0  0  0  0  0  0  0  0  0  0
    9.4166  -13.9220   15.3528 C   0  0  0  0  0  0  0  0  0  0  0  0
    9.4512  -14.4632   16.5880 N   0  0  0  0  0  0  0  0  0  0  0  0
    7.5447  -16.2200   20.1819 C   0  0  0  0  0  0  0  0  0  0  0  0
    6.8156  -15.4790   20.8904 O   0  0  0  0  0  0  0  0  0  0  0  0
    5.4305  -23.9362   23.0946 N   0  0  0  0  0  0  0  0  0  0  0  0
    5.2809  -23.1259   24.2352 C   0  0  0  0  0  0  0  0  0  0  0  0
    4.7120  -23.5833   25.2885 N   0  0  0  0  0  0  0  0  0  0  0  0
    5.7571  -21.8003   24.2256 N   0  0  0  0  0  0  0  0  0  0  0  0
    6.2541  -21.2099   23.0264 C   0  0  0  0  0  0  0  0  0  0  0  0
    6.7233  -19.7777   23.2935 C   0  0  0  0  0  0  0  0  0  0  0  0
    7.1675  -19.2337   21.9744 C   0  0  0  0  0  0  0  0  0  0  0  0
    7.6457  -17.7722   22.1000 C   0  0  2  0  0  0  0  0  0  0  0  0
    8.0624  -17.4065   20.7661 N   0  0  0  0  0  0  0  0  0  0  0  0
    8.7932  -17.7109   23.0482 C   0  0  0  0  0  0  0  0  0  0  0  0
    9.8372  -18.3419   22.7529 O   0  0  0  0  0  0  0  0  0  0  0  0
    4.5298  -23.0047   26.1276 N   0  0  0  0  0  0  0  0  0  0  0  0
   10.2472  -12.7475   30.5501 C   0  0  0  0  0  0  0  0  0  0  0  0
   11.0816  -13.9195   30.5012 N   0  0  0  0  0  0  0  0  0  0  0  0
   11.6224  -14.3737   31.5734 N   0  0  0  0  0  0  0  0  0  0  0  0
   11.3351  -14.6028   29.2920 C   0  0  0  0  0  0  0  0  0  0  0  0
   10.3617  -14.6209   28.2258 C   0  0  0  0  0  0  0  0  0  0  0  0
   10.5534  -15.8404   27.3509 C   0  0  0  0  0  0  0  0  0  0  0  0
    9.5743  -15.8725   26.2110 C   0  0  1  0  0  0  0  0  0  0  0  0
    9.7847  -17.0081   25.2673 N   0  0  0  0  0  0  0  0  0  0  0  0
    8.7430  -16.9712   24.2594 C   0  0  0  0  0  0  0  0  0  0  0  0
    9.8539  -18.3269   25.9394 O   0  0  0  0  0  0  0  0  0  0  0  0
   11.1249  -18.8613   26.1710 O   0  0  0  0  0  0  0  0  0  0  0  0
  2  3  1  0
  2  9  1  0
  2  1  1  6
  4  3  1  0
  4  5  2  0
  6  5  1  0
  7  6  1  0
  8  7  2  0
  8  4  1  0
  9 10  2  0
 11 12  1  0
 12 13  2  0
 12 14  1  0
 14 15  1  0
 15 16  1  0
 17 16  1  0
 18 17  1  6
 19 18  1  0
 19  9  1  0
 20 21  2  0
 20 18  1  0
 22 23  1  0
 23 25  1  0
 24 23  2  0
 25 26  1  0
 27 26  1  0
 27 28  1  0
 29 28  1  6
 29 30  1  0
 30 20  1  0
 31 32  1  0
 31 29  1  0
 33 31  2  0
M  END
$$$$
