HRR.pdb
     RDKit          3D

 33 33  0  0  1  0  0  0  0  0999 V2000
   10.1628  -15.6798   17.8156 N   0  0  0  0  0  0  0  0  0  0  0  0
   10.9159  -14.6239   18.4444 C   0  0  1  0  0  0  0  0  0  0  0  0
   10.2560  -14.1848   19.7518 C   0  0  0  0  0  0  0  0  0  0  0  0
    8.9259  -13.6263   19.4354 C   0  0  0  0  0  0  0  0  0  0  0  0
    8.6116  -12.4037   18.8959 C   0  0  0  0  0  0  0  0  0  0  0  0
    7.2588  -12.2988   18.7710 N   0  0  0  0  0  0  0  0  0  0  0  0
    6.7423  -13.4453   19.2286 C   0  0  0  0  0  0  0  0  0  0  0  0
    7.7501  -14.2472   19.6300 N   0  0  0  0  0  0  0  0  0  0  0  0
   12.2795  -15.1179   18.7494 C   0  0  0  0  0  0  0  0  0  0  0  0
   12.4562  -16.3005   19.1402 O   0  0  0  0  0  0  0  0  0  0  0  0
   19.0014  -14.9899   14.3899 N   0  0  0  0  0  0  0  0  0  0  0  0
   17.6029  -15.0839   14.5148 C   0  0  0  0  0  0  0  0  0  0  0  0
   16.8336  -14.4156   13.7377 N   0  0  0  0  0  0  0  0  0  0  0  0
   17.0376  -15.9166   15.5003 N   0  0  0  0  0  0  0  0  0  0  0  0
   16.8512  -15.4490   16.8345 C   0  0  0  0  0  0  0  0  0  0  0  0
   15.8794  -14.2666   16.8527 C   0  0  0  0  0  0  0  0  0  0  0  0
   15.7277  -13.8762   18.2872 C   0  0  0  0  0  0  0  0  0  0  0  0
   14.7119  -14.7826   19.0133 C   0  0  2  0  0  0  0  0  0  0  0  0
   13.4187  -14.2812   18.6100 N   0  0  0  0  0  0  0  0  0  0  0  0
   14.8967  -14.6460   20.4854 C   0  0  0  0  0  0  0  0  0  0  0  0
   13.9970  -14.0673   21.1419 O   0  0  0  0  0  0  0  0  0  0  0  0
   15.8052  -14.3842   13.8527 N   0  0  0  0  0  0  0  0  0  0  0  0
   11.8208  -20.7878   24.1093 C   0  0  0  0  0  0  0  0  0  0  0  0
   12.7509  -20.3974   25.1363 N   0  0  0  0  0  0  0  0  0  0  0  0
   12.6849  -20.9272   26.3039 N   0  0  0  0  0  0  0  0  0  0  0  0
   13.7538  -19.4312   24.9041 C   0  0  0  0  0  0  0  0  0  0  0  0
   13.8030  -18.6879   23.6673 C   0  0  0  0  0  0  0  0  0  0  0  0
   14.8841  -17.6308   23.7245 C   0  0  0  0  0  0  0  0  0  0  0  0
   14.9746  -16.8512   22.4427 C   0  0  1  0  0  0  0  0  0  0  0  0
   15.9992  -15.7675   22.4673 N   0  0  0  0  0  0  0  0  0  0  0  0
   16.0435  -15.1429   21.1594 C   0  0  0  0  0  0  0  0  0  0  0  0
   17.3376  -16.2327   22.9007 O   0  0  0  0  0  0  0  0  0  0  0  0
   18.3116  -16.3918   21.9103 O   0  0  0  0  0  0  0  0  0  0  0  0
  2  3  1  0
  2  9  1  0
  2  1  1  1
  4  3  1  0
  4  5  2  0
  6  5  1  0
  7  6  1  0
  8  7  2  0
  8  4  1  0
  9 10  2  0
 11 12  1  0
 12 13  2  0
 12 14  1  0
 14 15  1  0
 15 16  1  0
 17 16  1  0
 18 17  1  6
 19 18  1  0
 19  9  1  0
 20 21  2  0
 20 18  1  0
 22 23  1  0
 23 25  1  0
 24 23  2  0
 25 26  1  0
 27 26  1  0
 27 28  1  0
 29 28  1  1
 29 30  1  0
 30 20  1  0
 31 32  1  0
 31 29  1  0
 33 31  2  0
M  END
$$$$
