HRR.pdb
     RDKit          3D

 33 33  0  0  1  0  0  0  0  0999 V2000
    7.3015  -16.8321   15.7319 N   0  0  0  0  0  0  0  0  0  0  0  0
    8.5073  -16.5948   16.4851 C   0  0  1  0  0  0  0  0  0  0  0  0
    9.2066  -15.3204   16.0114 C   0  0  0  0  0  0  0  0  0  0  0  0
    9.9563  -15.6337   14.7782 C   0  0  0  0  0  0  0  0  0  0  0  0
   11.2930  -15.9091   14.6296 C   0  0  0  0  0  0  0  0  0  0  0  0
   11.5632  -16.1426   13.3147 N   0  0  0  0  0  0  0  0  0  0  0  0
   10.4050  -16.0128   12.6572 C   0  0  0  0  0  0  0  0  0  0  0  0
    9.4342  -15.7053   13.5419 N   0  0  0  0  0  0  0  0  0  0  0  0
    8.1595  -16.4352   17.9170 C   0  0  0  0  0  0  0  0  0  0  0  0
    7.1320  -15.7932   18.2554 O   0  0  0  0  0  0  0  0  0  0  0  0
    6.3079  -21.6696   23.6128 N   0  0  0  0  0  0  0  0  0  0  0  0
    5.9343  -21.9495   22.2853 C   0  0  0  0  0  0  0  0  0  0  0  0
    4.8585  -22.5994   22.0352 N   0  0  0  0  0  0  0  0  0  0  0  0
    6.7452  -21.5157   21.2183 N   0  0  0  0  0  0  0  0  0  0  0  0
    8.0325  -20.9517   21.4599 C   0  0  0  0  0  0  0  0  0  0  0  0
    7.9356  -19.4272   21.5563 C   0  0  0  0  0  0  0  0  0  0  0  0
    8.4680  -18.8950   20.2653 C   0  0  0  0  0  0  0  0  0  0  0  0
    8.3531  -17.3579   20.1995 C   0  0  2  0  0  0  0  0  0  0  0  0
    8.9659  -16.9975   18.9420 N   0  0  0  0  0  0  0  0  0  0  0  0
    9.0996  -16.7605   21.3421 C   0  0  0  0  0  0  0  0  0  0  0  0
   10.3281  -16.5479   21.1979 O   0  0  0  0  0  0  0  0  0  0  0  0
    4.5554  -22.8402   21.0750 N   0  0  0  0  0  0  0  0  0  0  0  0
    7.3740  -19.9733   28.4049 C   0  0  0  0  0  0  0  0  0  0  0  0
    8.5599  -19.2401   28.7630 N   0  0  0  0  0  0  0  0  0  0  0  0
    9.2680  -19.6071   29.7691 N   0  0  0  0  0  0  0  0  0  0  0  0
    8.9823  -18.1065   28.0351 C   0  0  0  0  0  0  0  0  0  0  0  0
    8.2508  -17.6460   26.8787 C   0  0  0  0  0  0  0  0  0  0  0  0
    9.0100  -16.5435   26.1731 C   0  0  0  0  0  0  0  0  0  0  0  0
    8.3024  -16.0820   24.9301 C   0  0  1  0  0  0  0  0  0  0  0  0
    9.1929  -15.9586   23.7400 N   0  0  0  0  0  0  0  0  0  0  0  0
    8.4729  -16.4290   22.5726 C   0  0  0  0  0  0  0  0  0  0  0  0
   10.4918  -16.6529   23.9023 O   0  0  0  0  0  0  0  0  0  0  0  0
   11.6043  -15.8649   24.2127 O   0  0  0  0  0  0  0  0  0  0  0  0
  2  3  1  0
  2  9  1  0
  2  1  1  6
  4  3  1  0
  4  5  2  0
  6  5  1  0
  7  6  1  0
  8  7  2  0
  8  4  1  0
  9 10  2  0
 11 12  1  0
 12 13  2  0
 12 14  1  0
 14 15  1  0
 15 16  1  0
 17 16  1  0
 18 17  1  1
 19 18  1  0
 19  9  1  0
 20 21  2  0
 20 18  1  0
 22 23  1  0
 23 25  1  0
 24 23  2  0
 25 26  1  0
 27 26  1  0
 27 28  1  0
 29 28  1  6
 29 30  1  0
 30 20  1  0
 31 32  1  0
 31 29  1  0
 33 31  2  0
M  END
$$$$
