HRR.pdb
     RDKit          3D

 33 33  0  0  1  0  0  0  0  0999 V2000
    8.8171  -23.1730   20.4491 N   0  0  0  0  0  0  0  0  0  0  0  0
    8.0227  -22.4021   21.3722 C   0  0  1  0  0  0  0  0  0  0  0  0
    7.7252  -23.2035   22.6399 C   0  0  0  0  0  0  0  0  0  0  0  0
    6.6615  -24.1806   22.3319 C   0  0  0  0  0  0  0  0  0  0  0  0
    5.9377  -24.3294   21.1748 C   0  0  0  0  0  0  0  0  0  0  0  0
    5.0566  -25.3584   21.3217 N   0  0  0  0  0  0  0  0  0  0  0  0
    5.2341  -25.8406   22.5572 C   0  0  0  0  0  0  0  0  0  0  0  0
    6.2040  -25.1286   23.1674 N   0  0  0  0  0  0  0  0  0  0  0  0
    8.7723  -21.1817   21.7534 C   0  0  0  0  0  0  0  0  0  0  0  0
    9.9801  -21.2571   22.0973 O   0  0  0  0  0  0  0  0  0  0  0  0
    8.2614  -13.4246   18.4639 N   0  0  0  0  0  0  0  0  0  0  0  0
    9.2172  -13.2533   19.4823 C   0  0  0  0  0  0  0  0  0  0  0  0
   10.0179  -12.2529   19.4619 N   0  0  0  0  0  0  0  0  0  0  0  0
    9.3005  -14.1856   20.5350 N   0  0  0  0  0  0  0  0  0  0  0  0
    8.6588  -15.4555   20.4404 C   0  0  0  0  0  0  0  0  0  0  0  0
    8.8723  -16.2564   21.7271 C   0  0  0  0  0  0  0  0  0  0  0  0
    8.1355  -17.5433   21.5419 C   0  0  0  0  0  0  0  0  0  0  0  0
    8.9480  -18.7400   22.0788 C   0  0  2  0  0  0  0  0  0  0  0  0
    8.1581  -19.9012   21.7410 N   0  0  0  0  0  0  0  0  0  0  0  0
    9.0942  -18.6110   23.5558 C   0  0  0  0  0  0  0  0  0  0  0  0
    8.0532  -18.6382   24.2565 O   0  0  0  0  0  0  0  0  0  0  0  0
   10.7162  -12.0741   20.2051 N   0  0  0  0  0  0  0  0  0  0  0  0
   15.4171  -20.3111   29.7162 C   0  0  0  0  0  0  0  0  0  0  0  0
   14.0733  -20.4504   30.2133 N   0  0  0  0  0  0  0  0  0  0  0  0
   13.8486  -21.1036   31.2955 N   0  0  0  0  0  0  0  0  0  0  0  0
   12.9684  -19.8853   29.5403 C   0  0  0  0  0  0  0  0  0  0  0  0
   12.9330  -19.8045   28.0991 C   0  0  0  0  0  0  0  0  0  0  0  0
   11.5811  -19.3161   27.6266 C   0  0  0  0  0  0  0  0  0  0  0  0
   11.4964  -19.2637   26.1270 C   0  0  2  0  0  0  0  0  0  0  0  0
   10.5239  -18.2564   25.6129 N   0  0  0  0  0  0  0  0  0  0  0  0
   10.3573  -18.4599   24.1869 C   0  0  0  0  0  0  0  0  0  0  0  0
   10.9016  -16.8589   25.9289 O   0  0  0  0  0  0  0  0  0  0  0  0
   10.3092  -16.2743   27.0523 O   0  0  0  0  0  0  0  0  0  0  0  0
  2  3  1  0
  2  9  1  0
  2  1  1  6
  4  3  1  0
  4  5  2  0
  6  5  1  0
  7  6  1  0
  8  7  2  0
  8  4  1  0
  9 10  2  0
 11 12  1  0
 12 13  2  0
 12 14  1  0
 14 15  1  0
 15 16  1  0
 17 16  1  0
 18 17  1  1
 19 18  1  0
 19  9  1  0
 20 21  2  0
 20 18  1  0
 22 23  1  0
 23 25  1  0
 24 23  2  0
 25 26  1  0
 27 26  1  0
 27 28  1  0
 29 28  1  1
 29 30  1  0
 30 20  1  0
 31 32  1  0
 31 29  1  0
 33 31  2  0
M  END
$$$$
