HRR.pdb
     RDKit          3D

 33 33  0  0  1  0  0  0  0  0999 V2000
    6.1971  -16.3253   26.4013 N   0  0  0  0  0  0  0  0  0  0  0  0
    6.4396  -15.2217   25.5066 C   0  0  1  0  0  0  0  0  0  0  0  0
    7.4689  -14.2562   26.0948 C   0  0  0  0  0  0  0  0  0  0  0  0
    6.7456  -13.1938   26.8222 C   0  0  0  0  0  0  0  0  0  0  0  0
    5.5377  -12.6141   26.5227 C   0  0  0  0  0  0  0  0  0  0  0  0
    5.2420  -11.6733   27.4629 N   0  0  0  0  0  0  0  0  0  0  0  0
    6.2572  -11.6715   28.3347 C   0  0  0  0  0  0  0  0  0  0  0  0
    7.1656  -12.5904   27.9473 N   0  0  0  0  0  0  0  0  0  0  0  0
    6.9664  -15.7455   24.2241 C   0  0  0  0  0  0  0  0  0  0  0  0
    7.5195  -16.8744   24.1760 O   0  0  0  0  0  0  0  0  0  0  0  0
    9.7413  -15.4633   17.2825 N   0  0  0  0  0  0  0  0  0  0  0  0
    8.9989  -14.3986   16.7389 C   0  0  0  0  0  0  0  0  0  0  0  0
    9.5430  -13.5776   15.9190 N   0  0  0  0  0  0  0  0  0  0  0  0
    7.6469  -14.2278   17.0953 N   0  0  0  0  0  0  0  0  0  0  0  0
    7.2834  -13.8146   18.4108 C   0  0  0  0  0  0  0  0  0  0  0  0
    7.8657  -14.7757   19.4500 C   0  0  0  0  0  0  0  0  0  0  0  0
    7.1884  -14.4503   20.7417 C   0  0  0  0  0  0  0  0  0  0  0  0
    7.5804  -15.4490   21.8505 C   0  0  2  0  0  0  0  0  0  0  0  0
    6.8633  -14.9983   23.0207 N   0  0  0  0  0  0  0  0  0  0  0  0
    9.0519  -15.3821   22.0736 C   0  0  0  0  0  0  0  0  0  0  0  0
    9.5266  -14.3313   22.5693 O   0  0  0  0  0  0  0  0  0  0  0  0
    9.0554  -12.7418   15.5509 N   0  0  0  0  0  0  0  0  0  0  0  0
   11.8633  -20.4804   27.2906 C   0  0  0  0  0  0  0  0  0  0  0  0
   10.8404  -19.4708   27.3714 N   0  0  0  0  0  0  0  0  0  0  0  0
   10.0342  -19.4455   28.3703 N   0  0  0  0  0  0  0  0  0  0  0  0
   10.6850  -18.4869   26.3710 C   0  0  0  0  0  0  0  0  0  0  0  0
   11.4001  -18.5742   25.1197 C   0  0  0  0  0  0  0  0  0  0  0  0
   11.0307  -17.4198   24.2140 C   0  0  0  0  0  0  0  0  0  0  0  0
   11.7438  -17.4928   22.8930 C   0  0  2  0  0  0  0  0  0  0  0  0
   11.3588  -16.4124   21.9395 N   0  0  0  0  0  0  0  0  0  0  0  0
    9.9223  -16.4555   21.7468 C   0  0  0  0  0  0  0  0  0  0  0  0
   12.0890  -16.4762   20.6517 O   0  0  0  0  0  0  0  0  0  0  0  0
   13.2842  -15.7568   20.5574 O   0  0  0  0  0  0  0  0  0  0  0  0
  2  3  1  0
  2  9  1  0
  2  1  1  1
  4  3  1  0
  4  5  2  0
  6  5  1  0
  7  6  1  0
  8  7  2  0
  8  4  1  0
  9 10  2  0
 11 12  1  0
 12 13  2  0
 12 14  1  0
 14 15  1  0
 15 16  1  0
 17 16  1  0
 18 17  1  6
 19 18  1  0
 19  9  1  0
 20 21  2  0
 20 18  1  0
 22 23  1  0
 23 25  1  0
 24 23  2  0
 25 26  1  0
 27 26  1  0
 27 28  1  0
 29 28  1  1
 29 30  1  0
 30 20  1  0
 31 32  1  0
 31 29  1  0
 33 31  2  0
M  END
$$$$
