HRR.pdb
     RDKit          3D

 33 33  0  0  1  0  0  0  0  0999 V2000
    6.1286  -15.9098   25.8088 N   0  0  0  0  0  0  0  0  0  0  0  0
    6.5392  -14.7678   25.0313 C   0  0  1  0  0  0  0  0  0  0  0  0
    7.4424  -13.8446   25.8497 C   0  0  0  0  0  0  0  0  0  0  0  0
    6.5884  -13.0200   26.7282 C   0  0  0  0  0  0  0  0  0  0  0  0
    5.3723  -12.4450   26.4539 C   0  0  0  0  0  0  0  0  0  0  0  0
    4.9342  -11.7678   27.5521 N   0  0  0  0  0  0  0  0  0  0  0  0
    5.8702  -11.9228   28.4958 C   0  0  0  0  0  0  0  0  0  0  0  0
    6.8697  -12.6795   27.9975 N   0  0  0  0  0  0  0  0  0  0  0  0
    7.2967  -15.2363   23.8466 C   0  0  0  0  0  0  0  0  0  0  0  0
    8.1513  -16.1527   23.9583 O   0  0  0  0  0  0  0  0  0  0  0  0
   10.0855  -15.8373   16.4792 N   0  0  0  0  0  0  0  0  0  0  0  0
    9.9221  -14.5283   16.9691 C   0  0  0  0  0  0  0  0  0  0  0  0
   10.9124  -13.8969   17.4820 N   0  0  0  0  0  0  0  0  0  0  0  0
    8.6626  -13.9015   16.8991 N   0  0  0  0  0  0  0  0  0  0  0  0
    7.9040  -13.6494   18.0800 C   0  0  0  0  0  0  0  0  0  0  0  0
    8.7500  -13.9269   19.3249 C   0  0  0  0  0  0  0  0  0  0  0  0
    7.8262  -13.7956   20.4923 C   0  0  0  0  0  0  0  0  0  0  0  0
    8.0407  -14.9340   21.5113 C   0  0  2  0  0  0  0  0  0  0  0  0
    7.0830  -14.6726   22.5606 N   0  0  0  0  0  0  0  0  0  0  0  0
    9.4331  -14.8665   22.0370 C   0  0  0  0  0  0  0  0  0  0  0  0
    9.6284  -14.2506   23.1130 O   0  0  0  0  0  0  0  0  0  0  0  0
   10.8227  -12.9577   17.9081 N   0  0  0  0  0  0  0  0  0  0  0  0
   10.8835  -19.8952   27.0790 C   0  0  0  0  0  0  0  0  0  0  0  0
   12.2326  -19.9816   26.5843 N   0  0  0  0  0  0  0  0  0  0  0  0
   13.1997  -20.2471   27.3860 N   0  0  0  0  0  0  0  0  0  0  0  0
   12.5401  -19.7792   25.2213 C   0  0  0  0  0  0  0  0  0  0  0  0
   11.5650  -19.2297   24.3092 C   0  0  0  0  0  0  0  0  0  0  0  0
   12.1560  -18.0743   23.5312 C   0  0  0  0  0  0  0  0  0  0  0  0
   11.0965  -17.2648   22.8377 C   0  0  1  0  0  0  0  0  0  0  0  0
   11.6331  -16.1159   22.0523 N   0  0  0  0  0  0  0  0  0  0  0  0
   10.5311  -15.4686   21.3674 C   0  0  0  0  0  0  0  0  0  0  0  0
   12.7154  -16.4978   21.1152 O   0  0  0  0  0  0  0  0  0  0  0  0
   14.0273  -16.2022   21.4978 O   0  0  0  0  0  0  0  0  0  0  0  0
  2  3  1  0
  2  9  1  0
  2  1  1  1
  4  3  1  0
  4  5  2  0
  6  5  1  0
  7  6  1  0
  8  7  2  0
  8  4  1  0
  9 10  2  0
 11 12  1  0
 12 13  2  0
 12 14  1  0
 14 15  1  0
 15 16  1  0
 17 16  1  0
 18 17  1  6
 19 18  1  0
 19  9  1  0
 20 21  2  0
 20 18  1  0
 22 23  1  0
 23 25  1  0
 24 23  2  0
 25 26  1  0
 27 26  1  0
 27 28  1  0
 29 28  1  1
 29 30  1  0
 30 20  1  0
 31 32  1  0
 31 29  1  0
 33 31  2  0
M  END
$$$$
