HRR.pdb
     RDKit          3D

 33 33  0  0  1  0  0  0  0  0999 V2000
    6.5875  -20.3744   19.6242 N   0  0  0  0  0  0  0  0  0  0  0  0
    8.0218  -20.5154   19.6136 C   0  0  1  0  0  0  0  0  0  0  0  0
    8.5486  -20.6436   18.1840 C   0  0  0  0  0  0  0  0  0  0  0  0
    7.8747  -21.7906   17.5425 C   0  0  0  0  0  0  0  0  0  0  0  0
    6.9232  -22.6318   18.0638 C   0  0  0  0  0  0  0  0  0  0  0  0
    6.5739  -23.5561   17.1257 N   0  0  0  0  0  0  0  0  0  0  0  0
    7.3022  -23.2887   16.0354 C   0  0  0  0  0  0  0  0  0  0  0  0
    8.0882  -22.2218   16.2877 N   0  0  0  0  0  0  0  0  0  0  0  0
    8.6305  -19.3140   20.2323 C   0  0  0  0  0  0  0  0  0  0  0  0
    9.8752  -19.1367   20.1900 O   0  0  0  0  0  0  0  0  0  0  0  0
    9.8777  -13.0021   19.0684 N   0  0  0  0  0  0  0  0  0  0  0  0
    8.6581  -12.3209   19.2384 C   0  0  0  0  0  0  0  0  0  0  0  0
    8.6448  -11.0782   19.5508 N   0  0  0  0  0  0  0  0  0  0  0  0
    7.4388  -13.0048   19.0662 N   0  0  0  0  0  0  0  0  0  0  0  0
    6.9965  -13.9648   20.0235 C   0  0  0  0  0  0  0  0  0  0  0  0
    8.1064  -14.9786   20.3116 C   0  0  0  0  0  0  0  0  0  0  0  0
    7.5018  -16.0131   21.2047 C   0  0  0  0  0  0  0  0  0  0  0  0
    8.4811  -17.1774   21.4617 C   0  0  2  0  0  0  0  0  0  0  0  0
    7.8360  -18.3338   20.8845 N   0  0  0  0  0  0  0  0  0  0  0  0
    8.6628  -17.3510   22.9302 C   0  0  0  0  0  0  0  0  0  0  0  0
    7.8357  -18.0657   23.5468 O   0  0  0  0  0  0  0  0  0  0  0  0
    7.7712  -10.5336   19.6607 N   0  0  0  0  0  0  0  0  0  0  0  0
   13.6687  -23.0764   22.5723 C   0  0  0  0  0  0  0  0  0  0  0  0
   14.3742  -21.8395   22.7826 N   0  0  0  0  0  0  0  0  0  0  0  0
   15.6058  -21.7305   22.4365 N   0  0  0  0  0  0  0  0  0  0  0  0
   13.7505  -20.7172   23.3697 C   0  0  0  0  0  0  0  0  0  0  0  0
   12.4181  -20.8054   23.9191 C   0  0  0  0  0  0  0  0  0  0  0  0
   12.0512  -19.5231   24.6336 C   0  0  0  0  0  0  0  0  0  0  0  0
   11.1428  -18.6592   23.8045 C   0  0  2  0  0  0  0  0  0  0  0  0
   10.6208  -17.4642   24.5285 N   0  0  0  0  0  0  0  0  0  0  0  0
    9.7280  -16.7409   23.6442 C   0  0  0  0  0  0  0  0  0  0  0  0
   11.6886  -16.5900   25.0680 O   0  0  0  0  0  0  0  0  0  0  0  0
   12.0558  -16.7780   26.4039 O   0  0  0  0  0  0  0  0  0  0  0  0
  2  3  1  0
  2  9  1  0
  2  1  1  6
  4  3  1  0
  4  5  2  0
  6  5  1  0
  7  6  1  0
  8  7  2  0
  8  4  1  0
  9 10  2  0
 11 12  1  0
 12 13  2  0
 12 14  1  0
 14 15  1  0
 15 16  1  0
 17 16  1  0
 18 17  1  1
 19 18  1  0
 19  9  1  0
 20 21  2  0
 20 18  1  0
 22 23  1  0
 23 25  1  0
 24 23  2  0
 25 26  1  0
 27 26  1  0
 27 28  1  0
 29 28  1  1
 29 30  1  0
 30 20  1  0
 31 32  1  0
 31 29  1  0
 33 31  2  0
M  END
$$$$
