HRR.pdb
     RDKit          3D

 33 33  0  0  1  0  0  0  0  0999 V2000
    8.7664  -15.6280   15.6414 N   0  0  0  0  0  0  0  0  0  0  0  0
    9.6272  -16.5218   16.3746 C   0  0  1  0  0  0  0  0  0  0  0  0
   11.0664  -16.0059   16.3897 C   0  0  0  0  0  0  0  0  0  0  0  0
   11.7587  -16.5279   15.1942 C   0  0  0  0  0  0  0  0  0  0  0  0
   12.4533  -17.7028   15.0457 C   0  0  0  0  0  0  0  0  0  0  0  0
   12.9318  -17.7875   13.7727 N   0  0  0  0  0  0  0  0  0  0  0  0
   12.5368  -16.6761   13.1408 C   0  0  0  0  0  0  0  0  0  0  0  0
   11.8280  -15.9151   14.0001 N   0  0  0  0  0  0  0  0  0  0  0  0
    9.1475  -16.6160   17.7738 C   0  0  0  0  0  0  0  0  0  0  0  0
    8.8813  -15.5748   18.4276 O   0  0  0  0  0  0  0  0  0  0  0  0
    3.3621  -21.2821   19.9356 N   0  0  0  0  0  0  0  0  0  0  0  0
    3.6374  -21.2892   18.5556 C   0  0  0  0  0  0  0  0  0  0  0  0
    2.6913  -21.4363   17.7039 N   0  0  0  0  0  0  0  0  0  0  0  0
    4.9614  -21.1349   18.1001 N   0  0  0  0  0  0  0  0  0  0  0  0
    6.0263  -20.8881   19.0159 C   0  0  0  0  0  0  0  0  0  0  0  0
    6.5156  -19.4437   18.8858 C   0  0  0  0  0  0  0  0  0  0  0  0
    7.7044  -19.3258   19.7836 C   0  0  0  0  0  0  0  0  0  0  0  0
    8.3308  -17.9179   19.7069 C   0  0  2  0  0  0  0  0  0  0  0  0
    8.9731  -17.8719   18.4139 N   0  0  0  0  0  0  0  0  0  0  0  0
    9.3313  -17.7655   20.8003 C   0  0  0  0  0  0  0  0  0  0  0  0
   10.5012  -18.1686   20.5901 O   0  0  0  0  0  0  0  0  0  0  0  0
    2.8508  -21.4536   16.6811 N   0  0  0  0  0  0  0  0  0  0  0  0
    8.6910  -13.6987   28.8748 C   0  0  0  0  0  0  0  0  0  0  0  0
   10.0708  -14.0215   28.6218 N   0  0  0  0  0  0  0  0  0  0  0  0
   10.9925  -13.5707   29.3936 N   0  0  0  0  0  0  0  0  0  0  0  0
   10.4581  -14.8312   27.5320 C   0  0  0  0  0  0  0  0  0  0  0  0
    9.6127  -14.9747   26.3704 C   0  0  0  0  0  0  0  0  0  0  0  0
   10.2608  -15.8845   25.3498 C   0  0  0  0  0  0  0  0  0  0  0  0
    9.3644  -16.1313   24.1690 C   0  0  2  0  0  0  0  0  0  0  0  0
    9.9578  -17.0329   23.1395 N   0  0  0  0  0  0  0  0  0  0  0  0
    9.0068  -17.1868   22.0558 C   0  0  0  0  0  0  0  0  0  0  0  0
   10.3902  -18.3420   23.6825 O   0  0  0  0  0  0  0  0  0  0  0  0
   11.7347  -18.4727   24.0431 O   0  0  0  0  0  0  0  0  0  0  0  0
  2  3  1  0
  2  9  1  0
  2  1  1  6
  4  3  1  0
  4  5  2  0
  6  5  1  0
  7  6  1  0
  8  7  2  0
  8  4  1  0
  9 10  2  0
 11 12  1  0
 12 13  2  0
 12 14  1  0
 14 15  1  0
 15 16  1  0
 17 16  1  0
 18 17  1  1
 19 18  1  0
 19  9  1  0
 20 21  2  0
 20 18  1  0
 22 23  1  0
 23 25  1  0
 24 23  2  0
 25 26  1  0
 27 26  1  0
 27 28  1  0
 29 28  1  6
 29 30  1  0
 30 20  1  0
 31 32  1  0
 31 29  1  0
 33 31  2  0
M  END
$$$$
