HRR.pdb
     RDKit          3D

 33 33  0  0  1  0  0  0  0  0999 V2000
    9.6631  -15.3066   17.2927 N   0  0  0  0  0  0  0  0  0  0  0  0
   10.3701  -14.3936   18.1551 C   0  0  1  0  0  0  0  0  0  0  0  0
    9.6838  -14.2847   19.5170 C   0  0  0  0  0  0  0  0  0  0  0  0
    8.3689  -13.6406   19.3236 C   0  0  0  0  0  0  0  0  0  0  0  0
    8.0296  -12.3175   19.4617 C   0  0  0  0  0  0  0  0  0  0  0  0
    6.7046  -12.1593   19.1867 N   0  0  0  0  0  0  0  0  0  0  0  0
    6.2297  -13.3726   18.8817 C   0  0  0  0  0  0  0  0  0  0  0  0
    7.2357  -14.2675   18.9646 N   0  0  0  0  0  0  0  0  0  0  0  0
   11.7494  -14.8945   18.3631 C   0  0  0  0  0  0  0  0  0  0  0  0
   11.9458  -16.0602   18.7935 O   0  0  0  0  0  0  0  0  0  0  0  0
   19.4222  -14.9157   16.1504 N   0  0  0  0  0  0  0  0  0  0  0  0
   19.7194  -13.8915   17.0684 C   0  0  0  0  0  0  0  0  0  0  0  0
   20.8966  -13.7822   17.5629 N   0  0  0  0  0  0  0  0  0  0  0  0
   18.7195  -12.9764   17.4517 N   0  0  0  0  0  0  0  0  0  0  0  0
   17.4015  -13.0650   16.9145 C   0  0  0  0  0  0  0  0  0  0  0  0
   16.5764  -14.0897   17.6967 C   0  0  0  0  0  0  0  0  0  0  0  0
   15.1544  -13.6409   17.5967 C   0  0  0  0  0  0  0  0  0  0  0  0
   14.2031  -14.6187   18.3172 C   0  0  2  0  0  0  0  0  0  0  0  0
   12.8816  -14.0836   18.0844 N   0  0  0  0  0  0  0  0  0  0  0  0
   14.5205  -14.6296   19.7728 C   0  0  0  0  0  0  0  0  0  0  0  0
   14.3479  -13.5696   20.4225 O   0  0  0  0  0  0  0  0  0  0  0  0
   21.1526  -13.0553   18.2543 N   0  0  0  0  0  0  0  0  0  0  0  0
   11.8169  -20.2400   25.3503 C   0  0  0  0  0  0  0  0  0  0  0  0
   13.2310  -20.3376   25.6012 N   0  0  0  0  0  0  0  0  0  0  0  0
   13.6893  -21.2576   26.3706 N   0  0  0  0  0  0  0  0  0  0  0  0
   14.1535  -19.4392   25.0224 C   0  0  0  0  0  0  0  0  0  0  0  0
   13.7111  -18.2213   24.3855 C   0  0  0  0  0  0  0  0  0  0  0  0
   14.8856  -17.4735   23.7932 C   0  0  0  0  0  0  0  0  0  0  0  0
   14.7085  -17.2264   22.3213 C   0  0  1  0  0  0  0  0  0  0  0  0
   15.1648  -15.8776   21.8772 N   0  0  0  0  0  0  0  0  0  0  0  0
   15.0062  -15.7859   20.4388 C   0  0  0  0  0  0  0  0  0  0  0  0
   16.5479  -15.5555   22.3000 O   0  0  0  0  0  0  0  0  0  0  0  0
   17.5310  -15.5278   21.3062 O   0  0  0  0  0  0  0  0  0  0  0  0
  2  3  1  0
  2  9  1  0
  2  1  1  6
  4  3  1  0
  4  5  2  0
  6  5  1  0
  7  6  1  0
  8  7  2  0
  8  4  1  0
  9 10  2  0
 11 12  1  0
 12 13  2  0
 12 14  1  0
 14 15  1  0
 15 16  1  0
 17 16  1  0
 18 17  1  6
 19 18  1  0
 19  9  1  0
 20 21  2  0
 20 18  1  0
 22 23  1  0
 23 25  1  0
 24 23  2  0
 25 26  1  0
 27 26  1  0
 27 28  1  0
 29 28  1  1
 29 30  1  0
 30 20  1  0
 31 32  1  0
 31 29  1  0
 33 31  2  0
M  END
$$$$
