HRR.pdb
     RDKit          3D

 33 33  0  0  1  0  0  0  0  0999 V2000
    8.6484  -16.6940   17.3468 N   0  0  0  0  0  0  0  0  0  0  0  0
    8.8344  -15.8437   18.4956 C   0  0  1  0  0  0  0  0  0  0  0  0
    7.6383  -14.9105   18.6853 C   0  0  0  0  0  0  0  0  0  0  0  0
    7.6275  -13.9384   17.5736 C   0  0  0  0  0  0  0  0  0  0  0  0
    8.1116  -12.6540   17.5482 C   0  0  0  0  0  0  0  0  0  0  0  0
    7.8944  -12.1131   16.3166 N   0  0  0  0  0  0  0  0  0  0  0  0
    7.2822  -13.0539   15.5881 C   0  0  0  0  0  0  0  0  0  0  0  0
    7.1211  -14.1568   16.3480 N   0  0  0  0  0  0  0  0  0  0  0  0
    8.9675  -16.6885   19.7061 C   0  0  0  0  0  0  0  0  0  0  0  0
    8.0280  -17.4462   20.0608 O   0  0  0  0  0  0  0  0  0  0  0  0
   14.2547  -19.4848   24.2962 N   0  0  0  0  0  0  0  0  0  0  0  0
   13.9070  -20.8330   24.0922 C   0  0  0  0  0  0  0  0  0  0  0  0
   14.1188  -21.7054   25.0067 N   0  0  0  0  0  0  0  0  0  0  0  0
   13.3221  -21.2337   22.8751 N   0  0  0  0  0  0  0  0  0  0  0  0
   12.9670  -20.2733   21.8826 C   0  0  0  0  0  0  0  0  0  0  0  0
   11.6925  -19.5314   22.2923 C   0  0  0  0  0  0  0  0  0  0  0  0
   11.4904  -18.4587   21.2716 C   0  0  0  0  0  0  0  0  0  0  0  0
   10.2634  -17.5857   21.6073 C   0  0  2  0  0  0  0  0  0  0  0  0
   10.1484  -16.6711   20.4952 N   0  0  0  0  0  0  0  0  0  0  0  0
   10.5188  -16.8468   22.8756 C   0  0  0  0  0  0  0  0  0  0  0  0
   11.5617  -16.1528   22.9546 O   0  0  0  0  0  0  0  0  0  0  0  0
   13.8993  -22.7103   24.8893 N   0  0  0  0  0  0  0  0  0  0  0  0
    4.5847  -12.4310   26.4236 C   0  0  0  0  0  0  0  0  0  0  0  0
    5.7608  -11.7324   25.9752 N   0  0  0  0  0  0  0  0  0  0  0  0
    5.7342  -10.4591   25.8127 N   0  0  0  0  0  0  0  0  0  0  0  0
    6.9687  -12.4092   25.6993 C   0  0  0  0  0  0  0  0  0  0  0  0
    7.0863  -13.8355   25.8903 C   0  0  0  0  0  0  0  0  0  0  0  0
    8.4706  -14.3114   25.5070 C   0  0  0  0  0  0  0  0  0  0  0  0
    8.6819  -15.7586   25.8527 C   0  0  2  0  0  0  0  0  0  0  0  0
    9.9331  -16.3380   25.2838 N   0  0  0  0  0  0  0  0  0  0  0  0
    9.6315  -16.9029   23.9828 C   0  0  0  0  0  0  0  0  0  0  0  0
   10.5827  -17.3266   26.1760 O   0  0  0  0  0  0  0  0  0  0  0  0
   10.3907  -18.6794   25.8796 O   0  0  0  0  0  0  0  0  0  0  0  0
  2  3  1  0
  2  9  1  0
  2  1  1  6
  4  3  1  0
  4  5  2  0
  6  5  1  0
  7  6  1  0
  8  7  2  0
  8  4  1  0
  9 10  2  0
 11 12  1  0
 12 13  2  0
 12 14  1  0
 14 15  1  0
 15 16  1  0
 17 16  1  0
 18 17  1  6
 19 18  1  0
 19  9  1  0
 20 21  2  0
 20 18  1  0
 22 23  1  0
 23 25  1  0
 24 23  2  0
 25 26  1  0
 27 26  1  0
 27 28  1  0
 29 28  1  6
 29 30  1  0
 30 20  1  0
 31 32  1  0
 31 29  1  0
 33 31  2  0
M  END
$$$$
