HRR.pdb
     RDKit          3D

 33 33  0  0  1  0  0  0  0  0999 V2000
    8.2145  -16.8027   19.2066 N   0  0  0  0  0  0  0  0  0  0  0  0
    8.3817  -15.8496   20.2748 C   0  0  1  0  0  0  0  0  0  0  0  0
    7.3902  -14.6938   20.1371 C   0  0  0  0  0  0  0  0  0  0  0  0
    7.6558  -14.0048   18.8582 C   0  0  0  0  0  0  0  0  0  0  0  0
    8.3304  -12.8296   18.6371 C   0  0  0  0  0  0  0  0  0  0  0  0
    8.3412  -12.5586   17.3018 N   0  0  0  0  0  0  0  0  0  0  0  0
    7.6798  -13.5564   16.7036 C   0  0  0  0  0  0  0  0  0  0  0  0
    7.2658  -14.4300   17.6444 N   0  0  0  0  0  0  0  0  0  0  0  0
    8.1365  -16.5268   21.5701 C   0  0  0  0  0  0  0  0  0  0  0  0
    7.2536  -16.0973   22.3566 O   0  0  0  0  0  0  0  0  0  0  0  0
    7.7323  -24.4733   24.2340 N   0  0  0  0  0  0  0  0  0  0  0  0
    7.8688  -23.7678   25.4438 C   0  0  0  0  0  0  0  0  0  0  0  0
    7.5159  -24.3036   26.5531 N   0  0  0  0  0  0  0  0  0  0  0  0
    8.3960  -22.4615   25.4425 N   0  0  0  0  0  0  0  0  0  0  0  0
    8.4721  -21.7043   24.2365 C   0  0  0  0  0  0  0  0  0  0  0  0
    9.1864  -20.3742   24.4880 C   0  0  0  0  0  0  0  0  0  0  0  0
    9.2375  -19.6746   23.1684 C   0  0  0  0  0  0  0  0  0  0  0  0
    8.6466  -18.2524   23.2615 C   0  0  2  0  0  0  0  0  0  0  0  0
    8.8814  -17.6715   21.9600 N   0  0  0  0  0  0  0  0  0  0  0  0
    9.3671  -17.4897   24.3191 C   0  0  0  0  0  0  0  0  0  0  0  0
   10.5073  -17.0398   24.0492 O   0  0  0  0  0  0  0  0  0  0  0  0
    7.6394  -23.8373   27.4692 N   0  0  0  0  0  0  0  0  0  0  0  0
    5.4841  -11.0666   26.9855 C   0  0  0  0  0  0  0  0  0  0  0  0
    6.2510  -11.1875   25.7734 N   0  0  0  0  0  0  0  0  0  0  0  0
    6.1637  -10.2891   24.8604 N   0  0  0  0  0  0  0  0  0  0  0  0
    7.1133  -12.2817   25.5441 C   0  0  0  0  0  0  0  0  0  0  0  0
    7.3110  -13.3002   26.5483 C   0  0  0  0  0  0  0  0  0  0  0  0
    8.3473  -14.3037   26.0915 C   0  0  0  0  0  0  0  0  0  0  0  0
    8.5366  -15.4093   27.0919 C   0  0  2  0  0  0  0  0  0  0  0  0
    9.4693  -16.4807   26.6371 N   0  0  0  0  0  0  0  0  0  0  0  0
    8.8118  -17.2594   25.6057 C   0  0  0  0  0  0  0  0  0  0  0  0
    9.9658  -17.3362   27.7403 O   0  0  0  0  0  0  0  0  0  0  0  0
   10.7968  -16.7362   28.6912 O   0  0  0  0  0  0  0  0  0  0  0  0
  2  3  1  0
  2  9  1  0
  2  1  1  6
  4  3  1  0
  4  5  2  0
  6  5  1  0
  7  6  1  0
  8  7  2  0
  8  4  1  0
  9 10  2  0
 11 12  1  0
 12 13  2  0
 12 14  1  0
 14 15  1  0
 15 16  1  0
 17 16  1  0
 18 17  1  6
 19 18  1  0
 19  9  1  0
 20 21  2  0
 20 18  1  0
 22 23  1  0
 23 25  1  0
 24 23  2  0
 25 26  1  0
 27 26  1  0
 27 28  1  0
 29 28  1  6
 29 30  1  0
 30 20  1  0
 31 32  1  0
 31 29  1  0
 33 31  2  0
M  END
$$$$
