HRR.pdb
     RDKit          3D

 33 33  0  0  1  0  0  0  0  0999 V2000
    8.4090  -16.9444   17.3573 N   0  0  0  0  0  0  0  0  0  0  0  0
    8.7579  -15.9974   18.3863 C   0  0  1  0  0  0  0  0  0  0  0  0
    7.6019  -15.0346   18.6589 C   0  0  0  0  0  0  0  0  0  0  0  0
    7.3901  -14.2107   17.4517 C   0  0  0  0  0  0  0  0  0  0  0  0
    7.7798  -12.9160   17.2136 C   0  0  0  0  0  0  0  0  0  0  0  0
    7.3780  -12.5450   15.9656 N   0  0  0  0  0  0  0  0  0  0  0  0
    6.7462  -13.5999   15.4377 C   0  0  0  0  0  0  0  0  0  0  0  0
    6.7537  -14.6063   16.3360 N   0  0  0  0  0  0  0  0  0  0  0  0
    9.0618  -16.7323   19.6370 C   0  0  0  0  0  0  0  0  0  0  0  0
    8.1363  -17.0654   20.4213 O   0  0  0  0  0  0  0  0  0  0  0  0
   14.4431  -22.1304   17.7909 N   0  0  0  0  0  0  0  0  0  0  0  0
   15.0893  -20.9239   18.1177 C   0  0  0  0  0  0  0  0  0  0  0  0
   16.3496  -20.7888   17.9296 N   0  0  0  0  0  0  0  0  0  0  0  0
   14.3508  -19.8524   18.6571 N   0  0  0  0  0  0  0  0  0  0  0  0
   13.2232  -20.0903   19.4970 C   0  0  0  0  0  0  0  0  0  0  0  0
   12.6210  -18.7640   19.9669 C   0  0  0  0  0  0  0  0  0  0  0  0
   11.3690  -19.1146   20.7038 C   0  0  0  0  0  0  0  0  0  0  0  0
   10.6265  -17.8510   21.1859 C   0  0  2  0  0  0  0  0  0  0  0  0
   10.3936  -17.0818   19.9856 N   0  0  0  0  0  0  0  0  0  0  0  0
   11.4976  -17.1013   22.1339 C   0  0  0  0  0  0  0  0  0  0  0  0
   12.3645  -16.3303   21.6551 O   0  0  0  0  0  0  0  0  0  0  0  0
   16.8661  -19.9239   18.1687 N   0  0  0  0  0  0  0  0  0  0  0  0
    9.7658  -15.0201   30.4557 C   0  0  0  0  0  0  0  0  0  0  0  0
    9.5765  -14.3948   29.1730 N   0  0  0  0  0  0  0  0  0  0  0  0
    8.6475  -13.5239   29.0088 N   0  0  0  0  0  0  0  0  0  0  0  0
   10.3902  -14.7110   28.0634 C   0  0  0  0  0  0  0  0  0  0  0  0
   11.4623  -15.6719   28.1729 C   0  0  0  0  0  0  0  0  0  0  0  0
   12.2475  -15.7425   26.8814 C   0  0  0  0  0  0  0  0  0  0  0  0
   11.4661  -16.4118   25.7858 C   0  0  1  0  0  0  0  0  0  0  0  0
   12.1978  -16.4967   24.4888 N   0  0  0  0  0  0  0  0  0  0  0  0
   11.3794  -17.2306   23.5431 C   0  0  0  0  0  0  0  0  0  0  0  0
   13.5529  -17.0826   24.6147 O   0  0  0  0  0  0  0  0  0  0  0  0
   14.6223  -16.1950   24.7672 O   0  0  0  0  0  0  0  0  0  0  0  0
  2  3  1  0
  2  9  1  0
  2  1  1  6
  4  3  1  0
  4  5  2  0
  6  5  1  0
  7  6  1  0
  8  7  2  0
  8  4  1  0
  9 10  2  0
 11 12  1  0
 12 13  2  0
 12 14  1  0
 14 15  1  0
 15 16  1  0
 17 16  1  0
 18 17  1  6
 19 18  1  0
 19  9  1  0
 20 21  2  0
 20 18  1  0
 22 23  1  0
 23 25  1  0
 24 23  2  0
 25 26  1  0
 27 26  1  0
 27 28  1  0
 29 28  1  6
 29 30  1  0
 30 20  1  0
 31 32  1  0
 31 29  1  0
 33 31  2  0
M  END
$$$$
