HRR.pdb
     RDKit          3D

 33 33  0  0  1  0  0  0  0  0999 V2000
   10.4309  -15.3155   19.2246 N   0  0  0  0  0  0  0  0  0  0  0  0
    9.2136  -15.8349   19.7955 C   0  0  1  0  0  0  0  0  0  0  0  0
    8.1882  -16.1484   18.7056 C   0  0  0  0  0  0  0  0  0  0  0  0
    7.9080  -14.9043   17.9607 C   0  0  0  0  0  0  0  0  0  0  0  0
    8.5563  -13.6959   18.0278 C   0  0  0  0  0  0  0  0  0  0  0  0
    7.9683  -12.8188   17.1668 N   0  0  0  0  0  0  0  0  0  0  0  0
    6.9666  -13.4785   16.5735 C   0  0  0  0  0  0  0  0  0  0  0  0
    6.9305  -14.7387   17.0535 N   0  0  0  0  0  0  0  0  0  0  0  0
    9.5185  -17.0870   20.5275 C   0  0  0  0  0  0  0  0  0  0  0  0
    8.5996  -17.7353   21.0915 O   0  0  0  0  0  0  0  0  0  0  0  0
   10.8283  -20.5861   14.8926 N   0  0  0  0  0  0  0  0  0  0  0  0
   11.3876  -20.2041   16.1261 C   0  0  0  0  0  0  0  0  0  0  0  0
   11.7176  -18.9847   16.3414 N   0  0  0  0  0  0  0  0  0  0  0  0
   11.5898  -21.1650   17.1361 N   0  0  0  0  0  0  0  0  0  0  0  0
   12.1948  -20.8065   18.3766 C   0  0  0  0  0  0  0  0  0  0  0  0
   11.2259  -19.9743   19.2200 C   0  0  0  0  0  0  0  0  0  0  0  0
   11.9341  -19.6881   20.5044 C   0  0  0  0  0  0  0  0  0  0  0  0
   11.0980  -18.7650   21.4152 C   0  0  2  0  0  0  0  0  0  0  0  0
   10.8436  -17.5908   20.6133 N   0  0  0  0  0  0  0  0  0  0  0  0
   11.8945  -18.4169   22.6252 C   0  0  0  0  0  0  0  0  0  0  0  0
   12.6339  -17.4040   22.5737 O   0  0  0  0  0  0  0  0  0  0  0  0
   12.1910  -18.6731   17.2078 N   0  0  0  0  0  0  0  0  0  0  0  0
   12.8756  -22.4685   30.8360 C   0  0  0  0  0  0  0  0  0  0  0  0
   12.9160  -21.0296   30.8550 N   0  0  0  0  0  0  0  0  0  0  0  0
   12.6813  -20.3903   31.9433 N   0  0  0  0  0  0  0  0  0  0  0  0
   13.2085  -20.2779   29.6963 C   0  0  0  0  0  0  0  0  0  0  0  0
   12.3353  -20.3068   28.5468 C   0  0  0  0  0  0  0  0  0  0  0  0
   12.9758  -19.5971   27.3739 C   0  0  0  0  0  0  0  0  0  0  0  0
   12.1068  -19.6420   26.1485 C   0  0  1  0  0  0  0  0  0  0  0  0
   12.6893  -18.9371   24.9702 N   0  0  0  0  0  0  0  0  0  0  0  0
   11.8442  -19.1853   23.8183 C   0  0  0  0  0  0  0  0  0  0  0  0
   14.1011  -19.3007   24.7055 O   0  0  0  0  0  0  0  0  0  0  0  0
   15.0882  -18.5083   25.2994 O   0  0  0  0  0  0  0  0  0  0  0  0
  2  3  1  0
  2  9  1  0
  2  1  1  6
  4  3  1  0
  4  5  2  0
  6  5  1  0
  7  6  1  0
  8  7  2  0
  8  4  1  0
  9 10  2  0
 11 12  1  0
 12 13  2  0
 12 14  1  0
 14 15  1  0
 15 16  1  0
 17 16  1  0
 18 17  1  6
 19 18  1  0
 19  9  1  0
 20 21  2  0
 20 18  1  0
 22 23  1  0
 23 25  1  0
 24 23  2  0
 25 26  1  0
 27 26  1  0
 27 28  1  0
 29 28  1  1
 29 30  1  0
 30 20  1  0
 31 32  1  0
 31 29  1  0
 33 31  2  0
M  END
$$$$
