HRR.pdb
     RDKit          3D

 33 33  0  0  1  0  0  0  0  0999 V2000
   10.1245  -15.7096   17.3208 N   0  0  0  0  0  0  0  0  0  0  0  0
   10.7724  -14.6723   18.0835 C   0  0  1  0  0  0  0  0  0  0  0  0
    9.9429  -14.2967   19.3117 C   0  0  0  0  0  0  0  0  0  0  0  0
    8.7453  -13.5626   18.8558 C   0  0  0  0  0  0  0  0  0  0  0  0
    8.3210  -13.3191   17.5730 C   0  0  0  0  0  0  0  0  0  0  0  0
    7.1627  -12.6025   17.6080 N   0  0  0  0  0  0  0  0  0  0  0  0
    6.8739  -12.4052   18.8996 C   0  0  0  0  0  0  0  0  0  0  0  0
    7.8305  -12.9855   19.6533 N   0  0  0  0  0  0  0  0  0  0  0  0
   12.0940  -15.1624   18.5414 C   0  0  0  0  0  0  0  0  0  0  0  0
   12.2091  -16.3103   19.0430 O   0  0  0  0  0  0  0  0  0  0  0  0
   15.9653  -13.9002   14.5420 N   0  0  0  0  0  0  0  0  0  0  0  0
   17.3051  -13.4804   14.6347 C   0  0  0  0  0  0  0  0  0  0  0  0
   17.9497  -13.1242   13.5860 N   0  0  0  0  0  0  0  0  0  0  0  0
   17.9493  -13.4499   15.8871 N   0  0  0  0  0  0  0  0  0  0  0  0
   17.2321  -13.1061   17.0707 C   0  0  0  0  0  0  0  0  0  0  0  0
   16.2646  -14.2293   17.4514 C   0  0  0  0  0  0  0  0  0  0  0  0
   15.5360  -13.7553   18.6671 C   0  0  0  0  0  0  0  0  0  0  0  0
   14.4643  -14.7714   19.1136 C   0  0  2  0  0  0  0  0  0  0  0  0
   13.2610  -14.3608   18.4281 N   0  0  0  0  0  0  0  0  0  0  0  0
   14.2885  -14.6824   20.5903 C   0  0  0  0  0  0  0  0  0  0  0  0
   13.3591  -13.9636   21.0317 O   0  0  0  0  0  0  0  0  0  0  0  0
   18.9412  -12.8270   13.6070 N   0  0  0  0  0  0  0  0  0  0  0  0
   10.9272  -19.7933   21.1103 C   0  0  0  0  0  0  0  0  0  0  0  0
   11.4116  -20.0312   22.4448 N   0  0  0  0  0  0  0  0  0  0  0  0
   11.4681  -21.2269   22.9088 N   0  0  0  0  0  0  0  0  0  0  0  0
   11.8346  -18.9761   23.2822 C   0  0  0  0  0  0  0  0  0  0  0  0
   11.8185  -17.6068   22.8247 C   0  0  0  0  0  0  0  0  0  0  0  0
   13.2204  -17.1368   22.5032 C   0  0  0  0  0  0  0  0  0  0  0  0
   13.5737  -15.8780   23.2445 C   0  0  1  0  0  0  0  0  0  0  0  0
   14.9393  -15.3616   22.9390 N   0  0  0  0  0  0  0  0  0  0  0  0
   15.1285  -15.3757   21.5015 C   0  0  0  0  0  0  0  0  0  0  0  0
   16.0171  -16.0950   23.6433 O   0  0  0  0  0  0  0  0  0  0  0  0
   16.9427  -16.7851   22.8547 O   0  0  0  0  0  0  0  0  0  0  0  0
  2  3  1  0
  2  9  1  0
  2  1  1  1
  4  3  1  0
  4  5  2  0
  6  5  1  0
  7  6  1  0
  8  7  2  0
  8  4  1  0
  9 10  2  0
 11 12  1  0
 12 13  2  0
 12 14  1  0
 14 15  1  0
 15 16  1  0
 17 16  1  0
 18 17  1  6
 19 18  1  0
 19  9  1  0
 20 21  2  0
 20 18  1  0
 22 23  1  0
 23 25  1  0
 24 23  2  0
 25 26  1  0
 27 26  1  0
 27 28  1  0
 29 28  1  6
 29 30  1  0
 30 20  1  0
 31 32  1  0
 31 29  1  0
 33 31  2  0
M  END
$$$$
