HRR.pdb
     RDKit          3D

 33 33  0  0  1  0  0  0  0  0999 V2000
   11.2082  -18.4162   15.2395 N   0  0  0  0  0  0  0  0  0  0  0  0
   12.3106  -18.1196   16.1193 C   0  0  1  0  0  0  0  0  0  0  0  0
   12.7490  -16.6620   15.9751 C   0  0  0  0  0  0  0  0  0  0  0  0
   13.5772  -16.5449   14.7579 C   0  0  0  0  0  0  0  0  0  0  0  0
   14.9411  -16.4303   14.6522 C   0  0  0  0  0  0  0  0  0  0  0  0
   15.2876  -16.3486   13.3369 N   0  0  0  0  0  0  0  0  0  0  0  0
   14.1489  -16.4120   12.6368 C   0  0  0  0  0  0  0  0  0  0  0  0
   13.1156  -16.5306   13.4958 N   0  0  0  0  0  0  0  0  0  0  0  0
   11.8852  -18.3455   17.5209 C   0  0  0  0  0  0  0  0  0  0  0  0
   10.6914  -18.1469   17.8643 O   0  0  0  0  0  0  0  0  0  0  0  0
    9.2084  -23.6004   21.6654 N   0  0  0  0  0  0  0  0  0  0  0  0
    9.7685  -23.0076   22.8121 C   0  0  0  0  0  0  0  0  0  0  0  0
    9.2381  -23.1902   23.9643 N   0  0  0  0  0  0  0  0  0  0  0  0
   10.9208  -22.2052   22.6995 N   0  0  0  0  0  0  0  0  0  0  0  0
   11.4197  -21.8162   21.4215 C   0  0  0  0  0  0  0  0  0  0  0  0
   12.6140  -20.8725   21.5816 C   0  0  0  0  0  0  0  0  0  0  0  0
   12.9854  -20.4353   20.2016 C   0  0  0  0  0  0  0  0  0  0  0  0
   12.3120  -19.0966   19.8344 C   0  0  2  0  0  0  0  0  0  0  0  0
   12.8018  -18.7904   18.5105 N   0  0  0  0  0  0  0  0  0  0  0  0
   12.7333  -18.0516   20.8091 C   0  0  0  0  0  0  0  0  0  0  0  0
   13.8728  -17.5431   20.6735 O   0  0  0  0  0  0  0  0  0  0  0  0
    9.5754  -22.7181   24.8218 N   0  0  0  0  0  0  0  0  0  0  0  0
    9.3762  -15.9826   28.9468 C   0  0  0  0  0  0  0  0  0  0  0  0
   10.2779  -14.9367   28.5406 N   0  0  0  0  0  0  0  0  0  0  0  0
   10.3662  -13.8557   29.2278 N   0  0  0  0  0  0  0  0  0  0  0  0
   11.0855  -15.0558   27.3887 C   0  0  0  0  0  0  0  0  0  0  0  0
   10.7077  -15.9231   26.2979 C   0  0  0  0  0  0  0  0  0  0  0  0
   11.7428  -15.8731   25.1954 C   0  0  0  0  0  0  0  0  0  0  0  0
   11.3776  -16.7654   24.0424 C   0  0  1  0  0  0  0  0  0  0  0  0
   12.3118  -16.6663   22.8839 N   0  0  0  0  0  0  0  0  0  0  0  0
   11.8974  -17.6192   21.8725 C   0  0  0  0  0  0  0  0  0  0  0  0
   13.7344  -16.8446   23.2581 O   0  0  0  0  0  0  0  0  0  0  0  0
   14.5489  -15.7084   23.2372 O   0  0  0  0  0  0  0  0  0  0  0  0
  2  3  1  0
  2  9  1  0
  2  1  1  6
  4  3  1  0
  4  5  2  0
  6  5  1  0
  7  6  1  0
  8  7  2  0
  8  4  1  0
  9 10  2  0
 11 12  1  0
 12 13  2  0
 12 14  1  0
 14 15  1  0
 15 16  1  0
 17 16  1  0
 18 17  1  1
 19 18  1  0
 19  9  1  0
 20 21  2  0
 20 18  1  0
 22 23  1  0
 23 25  1  0
 24 23  2  0
 25 26  1  0
 27 26  1  0
 27 28  1  0
 29 28  1  6
 29 30  1  0
 30 20  1  0
 31 32  1  0
 31 29  1  0
 33 31  2  0
M  END
$$$$
