EWW.pdb
     RDKit          3D

 38 41  0  0  1  0  0  0  0  0999 V2000
   28.4235  -20.9881  -14.7141 N   0  0  0  0  0  0  0  0  0  0  0  0
   27.9136  -20.1356  -13.6934 C   0  0  1  0  0  0  0  0  0  0  0  0
   27.4412  -18.8044  -14.1571 C   0  0  0  0  0  0  0  0  0  0  0  0
   28.4099  -17.9303  -14.8506 C   0  0  0  0  0  0  0  0  0  0  0  0
   28.4876  -18.1131  -16.2974 C   0  0  0  0  0  0  0  0  0  0  0  0
   27.5575  -18.2063  -17.1146 O   0  0  0  0  0  0  0  0  0  0  0  0
   26.8480  -20.8720  -12.9357 C   0  0  0  0  0  0  0  0  0  0  0  0
   26.0972  -21.7113  -13.5157 O   0  0  0  0  0  0  0  0  0  0  0  0
   29.7797  -18.2017  -16.8885 O   0  0  0  0  0  0  0  0  0  0  0  0
   26.6087  -20.6901  -11.5532 N   0  0  0  0  0  0  0  0  0  0  0  0
   25.4025  -21.2039  -10.8702 C   0  0  1  0  0  0  0  0  0  0  0  0
   25.7131  -21.4595   -9.4465 C   0  0  0  0  0  0  0  0  0  0  0  0
   27.0881  -21.2115   -9.0311 C   0  0  0  0  0  0  0  0  0  0  0  0
   28.2613  -21.5520   -9.7175 C   0  0  0  0  0  0  0  0  0  0  0  0
   29.3299  -21.1689   -9.0240 N   0  0  0  0  0  0  0  0  0  0  0  0
   28.9463  -20.5710   -7.8748 C   0  0  0  0  0  0  0  0  0  0  0  0
   29.7042  -20.0046   -6.8605 C   0  0  0  0  0  0  0  0  0  0  0  0
   29.0388  -19.4285   -5.7842 C   0  0  0  0  0  0  0  0  0  0  0  0
   27.6589  -19.4410   -5.7628 C   0  0  0  0  0  0  0  0  0  0  0  0
   26.9382  -20.0123   -6.7856 C   0  0  0  0  0  0  0  0  0  0  0  0
   27.5685  -20.5921   -7.8684 C   0  0  0  0  0  0  0  0  0  0  0  0
   24.2711  -20.2946  -11.0773 C   0  0  0  0  0  0  0  0  0  0  0  0
   24.4829  -19.0218  -11.1178 O   0  0  0  0  0  0  0  0  0  0  0  0
   22.9195  -20.6584  -11.2553 N   0  0  0  0  0  0  0  0  0  0  0  0
   22.1298  -20.0807  -12.3757 C   0  0  1  0  0  0  0  0  0  0  0  0
   22.8847  -20.4100  -13.6341 C   0  0  0  0  0  0  0  0  0  0  0  0
   22.2896  -19.9848  -14.8996 C   0  0  0  0  0  0  0  0  0  0  0  0
   22.0218  -18.6713  -15.3134 C   0  0  0  0  0  0  0  0  0  0  0  0
   21.4515  -18.6853  -16.5138 N   0  0  0  0  0  0  0  0  0  0  0  0
   21.3097  -19.9470  -16.9565 C   0  0  0  0  0  0  0  0  0  0  0  0
   20.7976  -20.4529  -18.1304 C   0  0  0  0  0  0  0  0  0  0  0  0
   20.7803  -21.8238  -18.3660 C   0  0  0  0  0  0  0  0  0  0  0  0
   21.2941  -22.6312  -17.3820 C   0  0  0  0  0  0  0  0  0  0  0  0
   21.8022  -22.1141  -16.2148 C   0  0  0  0  0  0  0  0  0  0  0  0
   21.8275  -20.7562  -15.9609 C   0  0  0  0  0  0  0  0  0  0  0  0
   20.8164  -20.6949  -12.3689 C   0  0  0  0  0  0  0  0  0  0  0  0
   20.6189  -21.8553  -11.9450 O   0  0  0  0  0  0  0  0  0  0  0  0
   19.7196  -19.9815  -12.8425 O   0  0  0  0  0  0  0  0  0  0  0  0
  2  1  1  6
  2  3  1  0
  3  4  1  0
  4  5  1  0
  5  9  1  0
  6  5  2  0
  7  8  2  0
  7  2  1  0
 10  7  1  0
 11 10  1  0
 11 22  1  0
 11 12  1  1
 13 12  1  0
 14 13  2  0
 15 16  1  0
 15 14  1  0
 16 21  2  0
 17 18  2  0
 17 16  1  0
 18 19  1  0
 19 20  2  0
 21 20  1  0
 21 13  1  0
 22 24  1  0
 23 22  2  0
 24 25  1  0
 25 26  1  6
 27 26  1  0
 27 28  2  0
 29 28  1  0
 30 35  2  0
 30 29  1  0
 31 30  1  0
 32 33  1  0
 32 31  2  0
 33 34  2  0
 34 35  1  0
 35 27  1  0
 36 25  1  0
 36 38  1  0
 37 36  2  0
M  END
$$$$
