EWW.pdb
     RDKit          3D

 38 41  0  0  1  0  0  0  0  0999 V2000
   28.0837  -22.6134  -14.9997 N   0  0  0  0  0  0  0  0  0  0  0  0
   27.3347  -21.4546  -14.6469 C   0  0  1  0  0  0  0  0  0  0  0  0
   26.4931  -20.8888  -15.7341 C   0  0  0  0  0  0  0  0  0  0  0  0
   27.1699  -20.4331  -16.9660 C   0  0  0  0  0  0  0  0  0  0  0  0
   27.9042  -19.1768  -16.8437 C   0  0  0  0  0  0  0  0  0  0  0  0
   27.5208  -18.1036  -16.3510 O   0  0  0  0  0  0  0  0  0  0  0  0
   26.5283  -21.7555  -13.4176 C   0  0  0  0  0  0  0  0  0  0  0  0
   25.7951  -22.7866  -13.3549 O   0  0  0  0  0  0  0  0  0  0  0  0
   29.2368  -19.1334  -17.3428 O   0  0  0  0  0  0  0  0  0  0  0  0
   26.5269  -20.9331  -12.2665 N   0  0  0  0  0  0  0  0  0  0  0  0
   25.5329  -21.0689  -11.1808 C   0  0  1  0  0  0  0  0  0  0  0  0
   26.0152  -20.3547   -9.9782 C   0  0  0  0  0  0  0  0  0  0  0  0
   27.2873  -20.8048   -9.4270 C   0  0  0  0  0  0  0  0  0  0  0  0
   28.2293  -21.6471  -10.0326 C   0  0  0  0  0  0  0  0  0  0  0  0
   29.2661  -21.8392   -9.2215 N   0  0  0  0  0  0  0  0  0  0  0  0
   29.0835  -21.1602   -8.0678 C   0  0  0  0  0  0  0  0  0  0  0  0
   29.8992  -21.0511   -6.9511 C   0  0  0  0  0  0  0  0  0  0  0  0
   29.4683  -20.2546   -5.8960 C   0  0  0  0  0  0  0  0  0  0  0  0
   28.2538  -19.6066   -5.9960 C   0  0  0  0  0  0  0  0  0  0  0  0
   27.4695  -19.7376   -7.1182 C   0  0  0  0  0  0  0  0  0  0  0  0
   27.8686  -20.5203   -8.1831 C   0  0  0  0  0  0  0  0  0  0  0  0
   24.2107  -20.6324  -11.6403 C   0  0  0  0  0  0  0  0  0  0  0  0
   24.1242  -19.6512  -12.4746 O   0  0  0  0  0  0  0  0  0  0  0  0
   22.9660  -21.1857  -11.2725 N   0  0  0  0  0  0  0  0  0  0  0  0
   21.7060  -20.6435  -11.8480 C   0  0  1  0  0  0  0  0  0  0  0  0
   21.7191  -21.0110  -13.3062 C   0  0  0  0  0  0  0  0  0  0  0  0
   20.5424  -20.6516  -14.0954 C   0  0  0  0  0  0  0  0  0  0  0  0
   19.8940  -19.4081  -14.1355 C   0  0  0  0  0  0  0  0  0  0  0  0
   18.8439  -19.4745  -14.9474 N   0  0  0  0  0  0  0  0  0  0  0  0
   18.7300  -20.7057  -15.4756 C   0  0  0  0  0  0  0  0  0  0  0  0
   17.8265  -21.2391  -16.3673 C   0  0  0  0  0  0  0  0  0  0  0  0
   17.9357  -22.5616  -16.7846 C   0  0  0  0  0  0  0  0  0  0  0  0
   18.9762  -23.2934  -16.2690 C   0  0  0  0  0  0  0  0  0  0  0  0
   19.8712  -22.7496  -15.3795 C   0  0  0  0  0  0  0  0  0  0  0  0
   19.7798  -21.4390  -14.9517 C   0  0  0  0  0  0  0  0  0  0  0  0
   20.5899  -21.2582  -11.1560 C   0  0  0  0  0  0  0  0  0  0  0  0
   19.4564  -20.7309  -11.1068 O   0  0  0  0  0  0  0  0  0  0  0  0
   20.7637  -22.4839  -10.5207 O   0  0  0  0  0  0  0  0  0  0  0  0
  2  1  1  6
  2  3  1  0
  3  4  1  0
  4  5  1  0
  5  9  1  0
  6  5  2  0
  7  8  2  0
  7  2  1  0
 10  7  1  0
 11 10  1  0
 11 22  1  0
 11 12  1  1
 13 12  1  0
 14 13  2  0
 15 16  1  0
 15 14  1  0
 16 21  2  0
 17 18  2  0
 17 16  1  0
 18 19  1  0
 19 20  2  0
 21 20  1  0
 21 13  1  0
 22 24  1  0
 23 22  2  0
 24 25  1  0
 25 26  1  6
 27 26  1  0
 27 28  2  0
 29 28  1  0
 30 35  2  0
 30 29  1  0
 31 30  1  0
 32 33  1  0
 32 31  2  0
 33 34  2  0
 34 35  1  0
 35 27  1  0
 36 25  1  0
 36 38  1  0
 37 36  2  0
M  END
$$$$
