EWW.pdb
     RDKit          3D

 38 41  0  0  1  0  0  0  0  0999 V2000
   26.4620  -23.0167  -17.4709 N   0  0  0  0  0  0  0  0  0  0  0  0
   26.1111  -23.3912  -16.1424 C   0  0  1  0  0  0  0  0  0  0  0  0
   26.7662  -24.6270  -15.6384 C   0  0  0  0  0  0  0  0  0  0  0  0
   26.2722  -25.9255  -16.1414 C   0  0  0  0  0  0  0  0  0  0  0  0
   25.0130  -26.3801  -15.5579 C   0  0  0  0  0  0  0  0  0  0  0  0
   24.3443  -25.8497  -14.6562 O   0  0  0  0  0  0  0  0  0  0  0  0
   26.3500  -22.2229  -15.2313 C   0  0  0  0  0  0  0  0  0  0  0  0
   27.3216  -21.4334  -15.4244 O   0  0  0  0  0  0  0  0  0  0  0  0
   24.4439  -27.5849  -16.0592 O   0  0  0  0  0  0  0  0  0  0  0  0
   25.5294  -21.9223  -14.1187 N   0  0  0  0  0  0  0  0  0  0  0  0
   25.7034  -20.7076  -13.2944 C   0  0  1  0  0  0  0  0  0  0  0  0
   24.5454  -19.8080  -13.4912 C   0  0  0  0  0  0  0  0  0  0  0  0
   24.6317  -18.8807  -14.6126 C   0  0  0  0  0  0  0  0  0  0  0  0
   23.5913  -18.4536  -15.4484 C   0  0  0  0  0  0  0  0  0  0  0  0
   24.0532  -17.6085  -16.3660 N   0  0  0  0  0  0  0  0  0  0  0  0
   25.3822  -17.4281  -16.2021 C   0  0  0  0  0  0  0  0  0  0  0  0
   26.2739  -16.6314  -16.9051 C   0  0  0  0  0  0  0  0  0  0  0  0
   27.6045  -16.6181  -16.5019 C   0  0  0  0  0  0  0  0  0  0  0  0
   27.9880  -17.3921  -15.4256 C   0  0  0  0  0  0  0  0  0  0  0  0
   27.0772  -18.1714  -14.7512 C   0  0  0  0  0  0  0  0  0  0  0  0
   25.7490  -18.2068  -15.1260 C   0  0  0  0  0  0  0  0  0  0  0  0
   25.9427  -21.0698  -11.8940 C   0  0  0  0  0  0  0  0  0  0  0  0
   25.5070  -22.2012  -11.4508 O   0  0  0  0  0  0  0  0  0  0  0  0
   26.6309  -20.3018  -10.9310 N   0  0  0  0  0  0  0  0  0  0  0  0
   26.7689  -20.7990   -9.5358 C   0  0  1  0  0  0  0  0  0  0  0  0
   27.8214  -19.9424   -8.8876 C   0  0  0  0  0  0  0  0  0  0  0  0
   28.4444  -20.4580   -7.6700 C   0  0  0  0  0  0  0  0  0  0  0  0
   29.2878  -21.5731   -7.5540 C   0  0  0  0  0  0  0  0  0  0  0  0
   29.6328  -21.7457   -6.2822 N   0  0  0  0  0  0  0  0  0  0  0  0
   29.0700  -20.8029   -5.5061 C   0  0  0  0  0  0  0  0  0  0  0  0
   29.1479  -20.5658   -4.1520 C   0  0  0  0  0  0  0  0  0  0  0  0
   28.4759  -19.4911   -3.5786 C   0  0  0  0  0  0  0  0  0  0  0  0
   27.7442  -18.6926   -4.4219 C   0  0  0  0  0  0  0  0  0  0  0  0
   27.6742  -18.9400   -5.7717 C   0  0  0  0  0  0  0  0  0  0  0  0
   28.3330  -20.0022   -6.3605 C   0  0  0  0  0  0  0  0  0  0  0  0
   25.4866  -20.6554   -8.8742 C   0  0  0  0  0  0  0  0  0  0  0  0
   24.6491  -19.7894   -9.2116 O   0  0  0  0  0  0  0  0  0  0  0  0
   25.1532  -21.5069   -7.8254 O   0  0  0  0  0  0  0  0  0  0  0  0
  2  1  1  6
  2  3  1  0
  3  4  1  0
  4  5  1  0
  5  9  1  0
  6  5  2  0
  7  8  2  0
  7  2  1  0
 10  7  1  0
 11 10  1  0
 11 22  1  0
 11 12  1  1
 13 12  1  0
 14 13  2  0
 15 16  1  0
 15 14  1  0
 16 21  2  0
 17 18  2  0
 17 16  1  0
 18 19  1  0
 19 20  2  0
 21 20  1  0
 21 13  1  0
 22 24  1  0
 23 22  2  0
 24 25  1  0
 25 26  1  1
 27 26  1  0
 27 28  2  0
 29 28  1  0
 30 35  2  0
 30 29  1  0
 31 30  1  0
 32 33  1  0
 32 31  2  0
 33 34  2  0
 34 35  1  0
 35 27  1  0
 36 25  1  0
 36 38  1  0
 37 36  2  0
M  END
$$$$
