EWW.pdb
     RDKit          3D

 38 41  0  0  1  0  0  0  0  0999 V2000
   20.0428  -14.3327  -18.8223 N   0  0  0  0  0  0  0  0  0  0  0  0
   21.3889  -13.8732  -18.8951 C   0  0  1  0  0  0  0  0  0  0  0  0
   22.2580  -14.6070  -19.8524 C   0  0  0  0  0  0  0  0  0  0  0  0
   22.2582  -16.0834  -19.7939 C   0  0  0  0  0  0  0  0  0  0  0  0
   23.1576  -16.7429  -20.7367 C   0  0  0  0  0  0  0  0  0  0  0  0
   24.0062  -16.2282  -21.4827 O   0  0  0  0  0  0  0  0  0  0  0  0
   21.3822  -12.3974  -19.1673 C   0  0  0  0  0  0  0  0  0  0  0  0
   22.4652  -11.7479  -19.2672 O   0  0  0  0  0  0  0  0  0  0  0  0
   23.0839  -18.1604  -20.8463 O   0  0  0  0  0  0  0  0  0  0  0  0
   20.1980  -11.6407  -19.3297 N   0  0  0  0  0  0  0  0  0  0  0  0
   20.2015  -10.1875  -19.6004 C   0  0  1  0  0  0  0  0  0  0  0  0
   19.0495   -9.8436  -20.4627 C   0  0  0  0  0  0  0  0  0  0  0  0
   18.9051   -8.4369  -20.8163 C   0  0  0  0  0  0  0  0  0  0  0  0
   19.8662   -7.4243  -20.6970 C   0  0  0  0  0  0  0  0  0  0  0  0
   19.3688   -6.2636  -21.1156 N   0  0  0  0  0  0  0  0  0  0  0  0
   18.0916   -6.4278  -21.5247 C   0  0  0  0  0  0  0  0  0  0  0  0
   17.1920   -5.5120  -22.0503 C   0  0  0  0  0  0  0  0  0  0  0  0
   15.9285   -5.9643  -22.4141 C   0  0  0  0  0  0  0  0  0  0  0  0
   15.6164   -7.2974  -22.2403 C   0  0  0  0  0  0  0  0  0  0  0  0
   16.5328   -8.1784  -21.7153 C   0  0  0  0  0  0  0  0  0  0  0  0
   17.7956   -7.7615  -21.3445 C   0  0  0  0  0  0  0  0  0  0  0  0
   20.2488   -9.4333  -18.3440 C   0  0  0  0  0  0  0  0  0  0  0  0
   19.4781   -9.7816  -17.3687 O   0  0  0  0  0  0  0  0  0  0  0  0
   21.0787   -8.3294  -18.0548 N   0  0  0  0  0  0  0  0  0  0  0  0
   20.9787   -7.6416  -16.7396 C   0  0  1  0  0  0  0  0  0  0  0  0
   22.2685   -6.8892  -16.5609 C   0  0  0  0  0  0  0  0  0  0  0  0
   22.3598   -5.9840  -15.4169 C   0  0  0  0  0  0  0  0  0  0  0  0
   22.2111   -6.3113  -14.0608 C   0  0  0  0  0  0  0  0  0  0  0  0
   22.3338   -5.2163  -13.3177 N   0  0  0  0  0  0  0  0  0  0  0  0
   22.5616   -4.1409  -14.0921 C   0  0  0  0  0  0  0  0  0  0  0  0
   22.7692   -2.8159  -13.7802 C   0  0  0  0  0  0  0  0  0  0  0  0
   23.0092   -1.8793  -14.7804 C   0  0  0  0  0  0  0  0  0  0  0  0
   23.0291   -2.3401  -16.0732 C   0  0  0  0  0  0  0  0  0  0  0  0
   22.8204   -3.6650  -16.3715 C   0  0  0  0  0  0  0  0  0  0  0  0
   22.5792   -4.6106  -15.3934 C   0  0  0  0  0  0  0  0  0  0  0  0
   19.8418   -6.7426  -16.7833 C   0  0  0  0  0  0  0  0  0  0  0  0
   19.5644   -6.0578  -17.7929 O   0  0  0  0  0  0  0  0  0  0  0  0
   19.0120   -6.6266  -15.6723 O   0  0  0  0  0  0  0  0  0  0  0  0
  2  1  1  6
  2  3  1  0
  3  4  1  0
  4  5  1  0
  5  9  1  0
  6  5  2  0
  7  8  2  0
  7  2  1  0
 10  7  1  0
 11 10  1  0
 11 22  1  0
 11 12  1  1
 13 12  1  0
 14 13  2  0
 15 16  1  0
 15 14  1  0
 16 21  2  0
 17 18  2  0
 17 16  1  0
 18 19  1  0
 19 20  2  0
 21 20  1  0
 21 13  1  0
 22 24  1  0
 23 22  2  0
 24 25  1  0
 25 26  1  6
 27 26  1  0
 27 28  2  0
 29 28  1  0
 30 35  2  0
 30 29  1  0
 31 30  1  0
 32 33  1  0
 32 31  2  0
 33 34  2  0
 34 35  1  0
 35 27  1  0
 36 25  1  0
 36 38  1  0
 37 36  2  0
M  END
$$$$
