EWW.pdb
     RDKit          3D

 38 41  0  0  1  0  0  0  0  0999 V2000
   28.5737  -20.9885  -14.5476 N   0  0  0  0  0  0  0  0  0  0  0  0
   27.9065  -20.0259  -13.7372 C   0  0  1  0  0  0  0  0  0  0  0  0
   27.2885  -18.8940  -14.4769 C   0  0  0  0  0  0  0  0  0  0  0  0
   28.1653  -18.0640  -15.3286 C   0  0  0  0  0  0  0  0  0  0  0  0
   28.4428  -18.6104  -16.6542 C   0  0  0  0  0  0  0  0  0  0  0  0
   29.3478  -19.3896  -16.9938 O   0  0  0  0  0  0  0  0  0  0  0  0
   26.9092  -20.7336  -12.8673 C   0  0  0  0  0  0  0  0  0  0  0  0
   26.4363  -21.8603  -13.2012 O   0  0  0  0  0  0  0  0  0  0  0  0
   27.5885  -18.2240  -17.7255 O   0  0  0  0  0  0  0  0  0  0  0  0
   26.4357  -20.2105  -11.6411 N   0  0  0  0  0  0  0  0  0  0  0  0
   25.4445  -20.9099  -10.7964 C   0  0  1  0  0  0  0  0  0  0  0  0
   25.6978  -20.5930   -9.3736 C   0  0  0  0  0  0  0  0  0  0  0  0
   27.0696  -20.7590   -8.9096 C   0  0  0  0  0  0  0  0  0  0  0  0
   28.1132  -21.4342   -9.5565 C   0  0  0  0  0  0  0  0  0  0  0  0
   29.2227  -21.3793   -8.8246 N   0  0  0  0  0  0  0  0  0  0  0  0
   28.9929  -20.6883   -7.6865 C   0  0  0  0  0  0  0  0  0  0  0  0
   29.8487  -20.3647   -6.6439 C   0  0  0  0  0  0  0  0  0  0  0  0
   29.3459  -19.6118   -5.5886 C   0  0  0  0  0  0  0  0  0  0  0  0
   28.0238  -19.2169   -5.6151 C   0  0  0  0  0  0  0  0  0  0  0  0
   27.2025  -19.5561   -6.6650 C   0  0  0  0  0  0  0  0  0  0  0  0
   27.6708  -20.3021   -7.7280 C   0  0  0  0  0  0  0  0  0  0  0  0
   24.0826  -20.5979  -11.2409 C   0  0  0  0  0  0  0  0  0  0  0  0
   23.6780  -19.3721  -11.2244 O   0  0  0  0  0  0  0  0  0  0  0  0
   23.1204  -21.5144  -11.7152 N   0  0  0  0  0  0  0  0  0  0  0  0
   21.7585  -21.0454  -12.0866 C   0  0  1  0  0  0  0  0  0  0  0  0
   21.5573  -21.4384  -13.5242 C   0  0  0  0  0  0  0  0  0  0  0  0
   22.2743  -20.6628  -14.5345 C   0  0  0  0  0  0  0  0  0  0  0  0
   23.4647  -21.0143  -15.1885 C   0  0  0  0  0  0  0  0  0  0  0  0
   23.8253  -20.0420  -16.0197 N   0  0  0  0  0  0  0  0  0  0  0  0
   22.9418  -19.0293  -15.9763 C   0  0  0  0  0  0  0  0  0  0  0  0
   22.8845  -17.8349  -16.6591 C   0  0  0  0  0  0  0  0  0  0  0  0
   21.8358  -16.9454  -16.4488 C   0  0  0  0  0  0  0  0  0  0  0  0
   20.8767  -17.3172  -15.5400 C   0  0  0  0  0  0  0  0  0  0  0  0
   20.9453  -18.5120  -14.8648 C   0  0  0  0  0  0  0  0  0  0  0  0
   21.9787  -19.4085  -15.0583 C   0  0  0  0  0  0  0  0  0  0  0  0
   20.8003  -21.7014  -11.2182 C   0  0  0  0  0  0  0  0  0  0  0  0
   21.1277  -22.6036  -10.4158 O   0  0  0  0  0  0  0  0  0  0  0  0
   19.4616  -21.3239  -11.2596 O   0  0  0  0  0  0  0  0  0  0  0  0
  2  1  1  6
  2  3  1  0
  3  4  1  0
  4  5  1  0
  5  9  1  0
  6  5  2  0
  7  8  2  0
  7  2  1  0
 10  7  1  0
 11 10  1  0
 11 22  1  0
 11 12  1  1
 13 12  1  0
 14 13  2  0
 15 16  1  0
 15 14  1  0
 16 21  2  0
 17 18  2  0
 17 16  1  0
 18 19  1  0
 19 20  2  0
 21 20  1  0
 21 13  1  0
 22 24  1  0
 23 22  2  0
 24 25  1  0
 25 26  1  6
 27 26  1  0
 27 28  2  0
 29 28  1  0
 30 35  2  0
 30 29  1  0
 31 30  1  0
 32 33  1  0
 32 31  2  0
 33 34  2  0
 34 35  1  0
 35 27  1  0
 36 25  1  0
 36 38  1  0
 37 36  2  0
M  END
$$$$
