EWW.pdb
     RDKit          3D

 38 41  0  0  1  0  0  0  0  0999 V2000
   29.1638  -20.8414  -13.9316 N   0  0  0  0  0  0  0  0  0  0  0  0
   28.3468  -20.0944  -13.0356 C   0  0  1  0  0  0  0  0  0  0  0  0
   27.6100  -18.9576  -13.6481 C   0  0  0  0  0  0  0  0  0  0  0  0
   28.3864  -17.9683  -14.4238 C   0  0  0  0  0  0  0  0  0  0  0  0
   28.4475  -18.2153  -15.8619 C   0  0  0  0  0  0  0  0  0  0  0  0
   27.8493  -19.0796  -16.5227 O   0  0  0  0  0  0  0  0  0  0  0  0
   27.4227  -21.0377  -12.3227 C   0  0  0  0  0  0  0  0  0  0  0  0
   27.1106  -22.1545  -12.8324 O   0  0  0  0  0  0  0  0  0  0  0  0
   29.2921  -17.3789  -16.6454 O   0  0  0  0  0  0  0  0  0  0  0  0
   26.8468  -20.7589  -11.0609 N   0  0  0  0  0  0  0  0  0  0  0  0
   25.7157  -21.5304  -10.5036 C   0  0  1  0  0  0  0  0  0  0  0  0
   25.9381  -21.7578   -9.0587 C   0  0  0  0  0  0  0  0  0  0  0  0
   26.4655  -20.6295   -8.3014 C   0  0  0  0  0  0  0  0  0  0  0  0
   26.3024  -19.2655   -8.5778 C   0  0  0  0  0  0  0  0  0  0  0  0
   26.9337  -18.5307   -7.6662 N   0  0  0  0  0  0  0  0  0  0  0  0
   27.5339  -19.3328   -6.7595 C   0  0  0  0  0  0  0  0  0  0  0  0
   28.2808  -19.0154   -5.6346 C   0  0  0  0  0  0  0  0  0  0  0  0
   28.7690  -20.0565   -4.8529 C   0  0  0  0  0  0  0  0  0  0  0  0
   28.4960  -21.3583   -5.2211 C   0  0  0  0  0  0  0  0  0  0  0  0
   27.7521  -21.6372   -6.3439 C   0  0  0  0  0  0  0  0  0  0  0  0
   27.2527  -20.6268   -7.1410 C   0  0  0  0  0  0  0  0  0  0  0  0
   24.4441  -20.8690  -10.8120 C   0  0  0  0  0  0  0  0  0  0  0  0
   24.3372  -19.5941  -10.6396 O   0  0  0  0  0  0  0  0  0  0  0  0
   23.2733  -21.4825  -11.3057 N   0  0  0  0  0  0  0  0  0  0  0  0
   22.0434  -20.6766  -11.5306 C   0  0  1  0  0  0  0  0  0  0  0  0
   21.8526  -20.6099  -13.0208 C   0  0  0  0  0  0  0  0  0  0  0  0
   22.5683  -19.5568  -13.7386 C   0  0  0  0  0  0  0  0  0  0  0  0
   23.7614  -19.6843  -14.4656 C   0  0  0  0  0  0  0  0  0  0  0  0
   24.1196  -18.5010  -14.9532 N   0  0  0  0  0  0  0  0  0  0  0  0
   23.2319  -17.5545  -14.6007 C   0  0  0  0  0  0  0  0  0  0  0  0
   23.1710  -16.2075  -14.8796 C   0  0  0  0  0  0  0  0  0  0  0  0
   22.1183  -15.4306  -14.4071 C   0  0  0  0  0  0  0  0  0  0  0  0
   21.1590  -16.0690  -13.6613 C   0  0  0  0  0  0  0  0  0  0  0  0
   21.2312  -17.4140  -13.3897 C   0  0  0  0  0  0  0  0  0  0  0  0
   22.2686  -18.2029  -13.8485 C   0  0  0  0  0  0  0  0  0  0  0  0
   20.9347  -21.3508  -10.8834 C   0  0  0  0  0  0  0  0  0  0  0  0
   21.0425  -22.4910  -10.3800 O   0  0  0  0  0  0  0  0  0  0  0  0
   19.6967  -20.7206  -10.8040 O   0  0  0  0  0  0  0  0  0  0  0  0
  2  1  1  6
  2  3  1  0
  3  4  1  0
  4  5  1  0
  5  9  1  0
  6  5  2  0
  7  8  2  0
  7  2  1  0
 10  7  1  0
 11 10  1  0
 11 22  1  0
 11 12  1  1
 13 12  1  0
 14 13  2  0
 15 16  1  0
 15 14  1  0
 16 21  2  0
 17 18  2  0
 17 16  1  0
 18 19  1  0
 19 20  2  0
 21 20  1  0
 21 13  1  0
 22 24  1  0
 23 22  2  0
 24 25  1  0
 25 26  1  6
 27 26  1  0
 27 28  2  0
 29 28  1  0
 30 35  2  0
 30 29  1  0
 31 30  1  0
 32 33  1  0
 32 31  2  0
 33 34  2  0
 34 35  1  0
 35 27  1  0
 36 25  1  0
 36 38  1  0
 37 36  2  0
M  END
$$$$
