RVF.pdb
     RDKit          3D

 30 30  0  0  1  0  0  0  0  0999 V2000
   18.5150  -18.2386  -14.1700 N   0  0  0  0  0  0  0  0  0  0  0  0
   18.8710  -17.8495  -12.8317 C   0  0  0  0  0  0  0  0  0  0  0  0
   18.1262  -17.1141  -12.1172 N   0  0  0  0  0  0  0  0  0  0  0  0
   20.1057  -18.3196  -12.3207 N   0  0  0  0  0  0  0  0  0  0  0  0
   21.0481  -19.1164  -13.0539 C   0  0  0  0  0  0  0  0  0  0  0  0
   20.7936  -20.5694  -12.9014 C   0  0  0  0  0  0  0  0  0  0  0  0
   21.9680  -21.4272  -12.7076 C   0  0  0  0  0  0  0  0  0  0  0  0
   23.0809  -21.4931  -13.6711 C   0  0  2  0  0  0  0  0  0  0  0  0
   22.9504  -22.4488  -14.7177 N   0  0  0  0  0  0  0  0  0  0  0  0
   24.3671  -21.7316  -12.9160 C   0  0  0  0  0  0  0  0  0  0  0  0
   24.5709  -22.8751  -12.4313 O   0  0  0  0  0  0  0  0  0  0  0  0
   18.4075  -16.8345  -11.1651 C   0  0  0  0  0  0  0  0  0  0  0  0
   28.0066  -20.6747  -13.8901 C   0  0  2  0  0  0  0  0  0  0  0  0
   27.7297  -20.2429  -12.4825 C   0  0  0  0  0  0  0  0  0  0  0  0
   28.9335  -20.4035  -11.5803 C   0  0  2  0  0  0  0  0  0  0  0  0
   26.5067  -20.9669  -11.8928 N   0  0  0  0  0  0  0  0  0  0  0  0
   25.3575  -20.7417  -12.7225 C   0  0  0  0  0  0  0  0  0  0  0  0
   26.3577  -20.4984  -10.5166 O   0  0  0  0  0  0  0  0  0  0  0  0
   25.7106  -19.4771  -10.1714 N   0  0  0  0  0  0  0  0  0  0  0  0
   26.9885  -21.2483   -9.4866 C   0  0  1  0  0  0  0  0  0  0  0  0
   27.0271  -20.7702   -8.1144 C   0  0  0  0  0  0  0  0  0  0  0  0
   27.8549  -21.6328   -7.2279 C   0  0  0  0  0  0  0  0  0  0  0  0
   28.0904  -20.9603   -5.9331 C   0  0  0  0  0  0  0  0  0  0  0  0
   29.0649  -20.0154   -5.7105 C   0  0  0  0  0  0  0  0  0  0  0  0
   29.2130  -19.4289   -4.4585 C   0  0  0  0  0  0  0  0  0  0  0  0
   28.3992  -19.7700   -3.4098 C   0  0  0  0  0  0  0  0  0  0  0  0
   27.4256  -20.7167   -3.6390 C   0  0  0  0  0  0  0  0  0  0  0  0
   27.2540  -21.3152   -4.8677 C   0  0  0  0  0  0  0  0  0  0  0  0
   27.3555  -19.3283   -8.0604 O   0  0  0  0  0  0  0  0  0  0  0  0
   28.3260  -18.7782   -8.6244 O   0  0  0  0  0  0  0  0  0  0  0  0
  2  3  2  0
  2  1  1  0
  4  2  1  0
  5  4  1  0
  6  5  1  0
  7  6  1  0
  8  9  1  6
  8  7  1  0
 10 16  1  0
 10  8  1  0
 11 10  2  0
 13 12  1  6
 13 15  1  0
 14 13  1  0
 15 17  1  0
 15 16  1  1
 17 18  2  0
 19 20  1  0
 19 17  1  0
 20 28  1  0
 21 22  1  0
 20 21  1  6
 22 23  2  0
 23 24  1  0
 25 24  2  0
 26 25  1  0
 27 26  2  0
 27 22  1  0
 28 29  2  0
 28 30  1  0
M  END
$$$$
