RVF.pdb
     RDKit          3D

 30 30  0  0  1  0  0  0  0  0999 V2000
   30.1100  -23.5209  -17.0976 N   0  0  0  0  0  0  0  0  0  0  0  0
   28.9671  -23.6610  -17.9597 C   0  0  0  0  0  0  0  0  0  0  0  0
   28.9353  -24.4919  -18.9161 N   0  0  0  0  0  0  0  0  0  0  0  0
   27.8513  -22.8255  -17.7072 N   0  0  0  0  0  0  0  0  0  0  0  0
   27.7827  -21.4278  -18.0270 C   0  0  0  0  0  0  0  0  0  0  0  0
   28.6493  -20.6072  -17.1466 C   0  0  0  0  0  0  0  0  0  0  0  0
   27.9920  -19.5390  -16.3854 C   0  0  0  0  0  0  0  0  0  0  0  0
   26.8158  -18.8052  -16.8850 C   0  0  2  0  0  0  0  0  0  0  0  0
   27.0709  -17.5344  -17.4728 N   0  0  0  0  0  0  0  0  0  0  0  0
   25.8175  -18.6594  -15.7609 C   0  0  0  0  0  0  0  0  0  0  0  0
   25.9980  -17.7421  -14.9183 O   0  0  0  0  0  0  0  0  0  0  0  0
   28.0973  -24.5913  -19.5091 C   0  0  0  0  0  0  0  0  0  0  0  0
   21.8821  -20.4982  -15.6416 C   0  0  1  0  0  0  0  0  0  0  0  0
   22.3526  -19.2504  -14.9588 C   0  0  0  0  0  0  0  0  0  0  0  0
   22.1809  -18.0190  -15.8207 C   0  0  1  0  0  0  0  0  0  0  0  0
   23.8076  -19.3778  -14.4748 N   0  0  0  0  0  0  0  0  0  0  0  0
   24.6894  -19.4961  -15.6010 C   0  0  0  0  0  0  0  0  0  0  0  0
   23.8517  -20.5109  -13.5531 O   0  0  0  0  0  0  0  0  0  0  0  0
   23.9388  -21.7163  -13.9000 N   0  0  0  0  0  0  0  0  0  0  0  0
   23.7924  -20.2374  -12.1593 C   0  0  1  0  0  0  0  0  0  0  0  0
   23.8794  -21.3012  -11.1725 C   0  0  0  0  0  0  0  0  0  0  0  0
   25.2621  -21.4964  -10.6577 C   0  0  0  0  0  0  0  0  0  0  0  0
   25.5164  -20.5925   -9.5163 C   0  0  0  0  0  0  0  0  0  0  0  0
   25.1176  -20.8377   -8.2229 C   0  0  0  0  0  0  0  0  0  0  0  0
   25.4044  -19.9323   -7.2073 C   0  0  0  0  0  0  0  0  0  0  0  0
   26.0892  -18.7718   -7.4581 C   0  0  0  0  0  0  0  0  0  0  0  0
   26.4857  -18.5321   -8.7550 C   0  0  0  0  0  0  0  0  0  0  0  0
   26.2168  -19.4095   -9.7822 C   0  0  0  0  0  0  0  0  0  0  0  0
   22.8438  -21.1457  -10.1270 O   0  0  0  0  0  0  0  0  0  0  0  0
   22.2222  -20.0933   -9.8648 O   0  0  0  0  0  0  0  0  0  0  0  0
  2  3  2  0
  2  1  1  0
  4  2  1  0
  5  4  1  0
  6  5  1  0
  7  6  1  0
  8  9  1  1
  8  7  1  0
 10 16  1  0
 10  8  1  0
 11 10  2  0
 13 12  1  1
 13 15  1  0
 14 13  1  0
 15 17  1  0
 15 16  1  6
 17 18  2  0
 19 20  1  0
 19 17  1  0
 20 28  1  0
 21 22  1  0
 20 21  1  1
 22 23  2  0
 23 24  1  0
 25 24  2  0
 26 25  1  0
 27 26  2  0
 27 22  1  0
 28 29  2  0
 28 30  1  0
M  END
$$$$
