RVF.pdb
     RDKit          3D

 30 30  0  0  1  0  0  0  0  0999 V2000
   27.7239  -29.6713  -16.5451 N   0  0  0  0  0  0  0  0  0  0  0  0
   26.4643  -29.4171  -17.1916 C   0  0  0  0  0  0  0  0  0  0  0  0
   25.4447  -30.1458  -17.0031 N   0  0  0  0  0  0  0  0  0  0  0  0
   26.3909  -28.3053  -18.0664 N   0  0  0  0  0  0  0  0  0  0  0  0
   27.2881  -27.1850  -18.0479 C   0  0  0  0  0  0  0  0  0  0  0  0
   27.3357  -26.5255  -16.7204 C   0  0  0  0  0  0  0  0  0  0  0  0
   26.8561  -25.1405  -16.6552 C   0  0  0  0  0  0  0  0  0  0  0  0
   27.5064  -24.0318  -17.3757 C   0  0  2  0  0  0  0  0  0  0  0  0
   28.8649  -23.7741  -17.0382 N   0  0  0  0  0  0  0  0  0  0  0  0
   26.6845  -22.7785  -17.1879 C   0  0  0  0  0  0  0  0  0  0  0  0
   27.0151  -21.9801  -16.2729 O   0  0  0  0  0  0  0  0  0  0  0  0
   24.5735  -29.9922  -17.5334 C   0  0  0  0  0  0  0  0  0  0  0  0
   25.5327  -20.3847  -20.0351 C   0  0  2  0  0  0  0  0  0  0  0  0
   24.3666  -20.6709  -19.1390 C   0  0  0  0  0  0  0  0  0  0  0  0
   23.4766  -19.4631  -18.9438 C   0  0  2  0  0  0  0  0  0  0  0  0
   24.8150  -21.2419  -17.7824 N   0  0  0  0  0  0  0  0  0  0  0  0
   25.5629  -22.4503  -17.9832 C   0  0  0  0  0  0  0  0  0  0  0  0
   23.6109  -21.4061  -16.9710 O   0  0  0  0  0  0  0  0  0  0  0  0
   22.6998  -22.2423  -17.1982 N   0  0  0  0  0  0  0  0  0  0  0  0
   23.4510  -20.5611  -15.8390 C   0  0  1  0  0  0  0  0  0  0  0  0
   22.2860  -20.6609  -14.9755 C   0  0  0  0  0  0  0  0  0  0  0  0
   22.6413  -20.6833  -13.5304 C   0  0  0  0  0  0  0  0  0  0  0  0
   23.5713  -21.7968  -13.2486 C   0  0  0  0  0  0  0  0  0  0  0  0
   24.9367  -21.6659  -13.1448 C   0  0  0  0  0  0  0  0  0  0  0  0
   25.7374  -22.7693  -12.8716 C   0  0  0  0  0  0  0  0  0  0  0  0
   25.1979  -24.0173  -12.6979 C   0  0  0  0  0  0  0  0  0  0  0  0
   23.8304  -24.1418  -12.8031 C   0  0  0  0  0  0  0  0  0  0  0  0
   23.0109  -23.0679  -13.0726 C   0  0  0  0  0  0  0  0  0  0  0  0
   21.2590  -19.6623  -15.3469 O   0  0  0  0  0  0  0  0  0  0  0  0
   21.4663  -18.5966  -15.9667 O   0  0  0  0  0  0  0  0  0  0  0  0
  2  3  2  0
  2  1  1  0
  4  2  1  0
  5  4  1  0
  6  5  1  0
  7  6  1  0
  8  9  1  1
  8  7  1  0
 10 16  1  0
 10  8  1  0
 11 10  2  0
 13 12  1  6
 13 15  1  0
 14 13  1  0
 15 17  1  0
 15 16  1  1
 17 18  2  0
 19 20  1  0
 19 17  1  0
 20 28  1  0
 21 22  1  0
 20 21  1  1
 22 23  2  0
 23 24  1  0
 25 24  2  0
 26 25  1  0
 27 26  2  0
 27 22  1  0
 28 29  2  0
 28 30  1  0
M  END
$$$$
