RVF.pdb
     RDKit          3D

 30 30  0  0  1  0  0  0  0  0999 V2000
   27.2744  -24.7544  -15.9816 N   0  0  0  0  0  0  0  0  0  0  0  0
   28.6318  -25.0482  -16.3564 C   0  0  0  0  0  0  0  0  0  0  0  0
   29.0845  -26.2311  -16.3969 N   0  0  0  0  0  0  0  0  0  0  0  0
   29.4703  -23.9550  -16.6860 N   0  0  0  0  0  0  0  0  0  0  0  0
   29.0614  -22.5790  -16.6925 C   0  0  0  0  0  0  0  0  0  0  0  0
   29.7290  -21.7896  -15.6292 C   0  0  0  0  0  0  0  0  0  0  0  0
   28.8561  -21.0436  -14.7160 C   0  0  0  0  0  0  0  0  0  0  0  0
   27.5232  -20.5501  -15.1049 C   0  0  2  0  0  0  0  0  0  0  0  0
   27.4898  -19.5948  -16.1595 N   0  0  0  0  0  0  0  0  0  0  0  0
   26.8343  -19.9896  -13.8831 C   0  0  0  0  0  0  0  0  0  0  0  0
   27.0235  -18.7793  -13.5944 O   0  0  0  0  0  0  0  0  0  0  0  0
   30.0340  -26.4274  -16.7485 C   0  0  0  0  0  0  0  0  0  0  0  0
   23.1439  -21.4370  -12.6405 C   0  0  1  0  0  0  0  0  0  0  0  0
   23.7279  -20.0731  -12.4328 C   0  0  0  0  0  0  0  0  0  0  0  0
   23.5633  -19.1823  -13.6445 C   0  0  1  0  0  0  0  0  0  0  0  0
   25.2042  -20.1427  -12.0046 N   0  0  0  0  0  0  0  0  0  0  0  0
   25.9871  -20.7485  -13.0438 C   0  0  0  0  0  0  0  0  0  0  0  0
   25.2438  -20.8530  -10.7282 O   0  0  0  0  0  0  0  0  0  0  0  0
   25.5326  -22.0690  -10.5912 N   0  0  0  0  0  0  0  0  0  0  0  0
   24.9342  -20.1208   -9.5495 C   0  0  1  0  0  0  0  0  0  0  0  0
   24.8739  -20.7665   -8.2486 C   0  0  0  0  0  0  0  0  0  0  0  0
   25.2461  -19.8521   -7.1348 C   0  0  0  0  0  0  0  0  0  0  0  0
   26.7135  -19.8274   -6.9606 C   0  0  0  0  0  0  0  0  0  0  0  0
   27.5401  -18.8396   -7.4432 C   0  0  0  0  0  0  0  0  0  0  0  0
   28.9128  -18.8940   -7.2281 C   0  0  0  0  0  0  0  0  0  0  0  0
   29.4860  -19.9269   -6.5330 C   0  0  0  0  0  0  0  0  0  0  0  0
   28.6530  -20.9128   -6.0526 C   0  0  0  0  0  0  0  0  0  0  0  0
   27.2900  -20.8868   -6.2491 C   0  0  0  0  0  0  0  0  0  0  0  0
   23.5896  -21.4782   -8.0647 O   0  0  0  0  0  0  0  0  0  0  0  0
   22.5630  -21.3253   -8.7615 O   0  0  0  0  0  0  0  0  0  0  0  0
  2  3  2  0
  2  1  1  0
  4  2  1  0
  5  4  1  0
  6  5  1  0
  7  6  1  0
  8  9  1  6
  8  7  1  0
 10 16  1  0
 10  8  1  0
 11 10  2  0
 13 12  1  1
 13 15  1  0
 14 13  1  0
 15 17  1  0
 15 16  1  6
 17 18  2  0
 19 20  1  0
 19 17  1  0
 20 28  1  0
 21 22  1  0
 20 21  1  1
 22 23  2  0
 23 24  1  0
 25 24  2  0
 26 25  1  0
 27 26  2  0
 27 22  1  0
 28 29  2  0
 28 30  1  0
M  END
$$$$
