RVF.pdb
     RDKit          3D

 30 30  0  0  1  0  0  0  0  0999 V2000
   18.0982  -25.5162   -6.0287 N   0  0  0  0  0  0  0  0  0  0  0  0
   17.0407  -24.7322   -6.6087 C   0  0  0  0  0  0  0  0  0  0  0  0
   16.2576  -24.0238   -5.9081 N   0  0  0  0  0  0  0  0  0  0  0  0
   16.8926  -24.7741   -8.0169 N   0  0  0  0  0  0  0  0  0  0  0  0
   17.6063  -25.6604   -8.8919 C   0  0  0  0  0  0  0  0  0  0  0  0
   19.0394  -25.2977   -9.0115 C   0  0  0  0  0  0  0  0  0  0  0  0
   19.5557  -25.0916  -10.3693 C   0  0  0  0  0  0  0  0  0  0  0  0
   19.1309  -25.9065  -11.5211 C   0  0  2  0  0  0  0  0  0  0  0  0
   19.4013  -27.3013  -11.4380 N   0  0  0  0  0  0  0  0  0  0  0  0
   19.7495  -25.3378  -12.7763 C   0  0  0  0  0  0  0  0  0  0  0  0
   20.8286  -25.8376  -13.1885 O   0  0  0  0  0  0  0  0  0  0  0  0
   15.4947  -23.4826   -6.3427 C   0  0  0  0  0  0  0  0  0  0  0  0
   17.7086  -24.0506  -16.0397 C   0  0  2  0  0  0  0  0  0  0  0  0
   18.7600  -23.0798  -15.5963 C   0  0  0  0  0  0  0  0  0  0  0  0
   19.4220  -22.3728  -16.7585 C   0  0  2  0  0  0  0  0  0  0  0  0
   19.8123  -23.7493  -14.6952 N   0  0  0  0  0  0  0  0  0  0  0  0
   19.1843  -24.2743  -13.5162 C   0  0  0  0  0  0  0  0  0  0  0  0
   20.8459  -22.7500  -14.4335 O   0  0  0  0  0  0  0  0  0  0  0  0
   21.0659  -22.2198  -13.3148 N   0  0  0  0  0  0  0  0  0  0  0  0
   21.6675  -22.3425  -15.5197 C   0  0  1  0  0  0  0  0  0  0  0  0
   22.8838  -21.5758  -15.3057 C   0  0  0  0  0  0  0  0  0  0  0  0
   23.7684  -22.1775  -14.2711 C   0  0  0  0  0  0  0  0  0  0  0  0
   24.4150  -23.3981  -14.7966 C   0  0  0  0  0  0  0  0  0  0  0  0
   24.0609  -24.6807  -14.4479 C   0  0  0  0  0  0  0  0  0  0  0  0
   24.7217  -25.7742  -14.9965 C   0  0  0  0  0  0  0  0  0  0  0  0
   25.7422  -25.6133  -15.8972 C   0  0  0  0  0  0  0  0  0  0  0  0
   26.0920  -24.3267  -16.2422 C   0  0  0  0  0  0  0  0  0  0  0  0
   25.4564  -23.2237  -15.7163 C   0  0  0  0  0  0  0  0  0  0  0  0
   23.5517  -21.2648  -16.5890 O   0  0  0  0  0  0  0  0  0  0  0  0
   23.2882  -21.7846  -17.6949 O   0  0  0  0  0  0  0  0  0  0  0  0
  2  3  2  0
  2  1  1  0
  4  2  1  0
  5  4  1  0
  6  5  1  0
  7  6  1  0
  8  9  1  1
  8  7  1  0
 10 16  1  0
 10  8  1  0
 11 10  2  0
 13 12  1  1
 13 15  1  0
 14 13  1  0
 15 17  1  0
 15 16  1  6
 17 18  2  0
 19 20  1  0
 19 17  1  0
 20 28  1  0
 21 22  1  0
 20 21  1  1
 22 23  2  0
 23 24  1  0
 25 24  2  0
 26 25  1  0
 27 26  2  0
 27 22  1  0
 28 29  2  0
 28 30  1  0
M  END
$$$$
