RVF.pdb
     RDKit          3D

 30 30  0  0  1  0  0  0  0  0999 V2000
   25.1780  -16.1711  -14.9045 N   0  0  0  0  0  0  0  0  0  0  0  0
   24.1032  -17.0870  -15.1788 C   0  0  0  0  0  0  0  0  0  0  0  0
   24.2308  -18.3415  -15.0525 N   0  0  0  0  0  0  0  0  0  0  0  0
   22.8689  -16.5378  -15.6051 N   0  0  0  0  0  0  0  0  0  0  0  0
   22.5594  -15.1364  -15.6331 C   0  0  0  0  0  0  0  0  0  0  0  0
   22.9043  -14.5110  -16.9329 C   0  0  0  0  0  0  0  0  0  0  0  0
   22.4596  -13.1279  -17.1371 C   0  0  0  0  0  0  0  0  0  0  0  0
   21.0705  -12.7743  -17.4788 C   0  0  2  0  0  0  0  0  0  0  0  0
   20.5581  -13.3323  -18.6837 N   0  0  0  0  0  0  0  0  0  0  0  0
   20.9447  -11.2695  -17.5162 C   0  0  0  0  0  0  0  0  0  0  0  0
   21.6436  -10.6332  -18.3472 O   0  0  0  0  0  0  0  0  0  0  0  0
   23.4784  -18.9860  -15.3391 C   0  0  0  0  0  0  0  0  0  0  0  0
   17.6330   -9.1169  -15.9331 C   0  0  1  0  0  0  0  0  0  0  0  0
   18.5859   -8.6396  -16.9860 C   0  0  0  0  0  0  0  0  0  0  0  0
   18.1581   -9.0434  -18.3798 C   0  0  1  0  0  0  0  0  0  0  0  0
   20.0268   -9.1000  -16.7038 N   0  0  0  0  0  0  0  0  0  0  0  0
   20.0846  -10.5336  -16.6695 C   0  0  0  0  0  0  0  0  0  0  0  0
   20.4459   -8.4500  -15.4639 O   0  0  0  0  0  0  0  0  0  0  0  0
   20.2390   -8.9033  -14.3095 N   0  0  0  0  0  0  0  0  0  0  0  0
   21.1398   -7.2131  -15.5628 C   0  0  1  0  0  0  0  0  0  0  0  0
   21.7143   -6.5694  -14.3930 C   0  0  0  0  0  0  0  0  0  0  0  0
   23.1720   -6.8333  -14.2491 C   0  0  0  0  0  0  0  0  0  0  0  0
   23.9039   -6.3238  -15.4276 C   0  0  0  0  0  0  0  0  0  0  0  0
   24.2205   -7.0762  -16.5348 C   0  0  0  0  0  0  0  0  0  0  0  0
   24.9089   -6.5128  -17.6034 C   0  0  0  0  0  0  0  0  0  0  0  0
   25.2938   -5.1973  -17.5907 C   0  0  0  0  0  0  0  0  0  0  0  0
   24.9739   -4.4494  -16.4794 C   0  0  0  0  0  0  0  0  0  0  0  0
   24.2928   -4.9788  -15.4055 C   0  0  0  0  0  0  0  0  0  0  0  0
   21.3326   -5.1412  -14.3280 O   0  0  0  0  0  0  0  0  0  0  0  0
   20.7876   -4.4879  -15.2439 O   0  0  0  0  0  0  0  0  0  0  0  0
  2  3  2  0
  2  1  1  0
  4  2  1  0
  5  4  1  0
  6  5  1  0
  7  6  1  0
  8  9  1  6
  8  7  1  0
 10 16  1  0
 10  8  1  0
 11 10  2  0
 13 12  1  6
 13 15  1  0
 14 13  1  0
 15 17  1  0
 15 16  1  6
 17 18  2  0
 19 20  1  0
 19 17  1  0
 20 28  1  0
 21 22  1  0
 20 21  1  1
 22 23  2  0
 23 24  1  0
 25 24  2  0
 26 25  1  0
 27 26  2  0
 27 22  1  0
 28 29  2  0
 28 30  1  0
M  END
$$$$
