RVF.pdb
     RDKit          3D

 30 30  0  0  1  0  0  0  0  0999 V2000
   27.6996  -16.3705  -18.2398 N   0  0  0  0  0  0  0  0  0  0  0  0
   28.3237  -17.6558  -18.4060 C   0  0  0  0  0  0  0  0  0  0  0  0
   28.1991  -18.3396  -19.4657 N   0  0  0  0  0  0  0  0  0  0  0  0
   29.0991  -18.1505  -17.3285 N   0  0  0  0  0  0  0  0  0  0  0  0
   29.1085  -17.6002  -16.0028 C   0  0  0  0  0  0  0  0  0  0  0  0
   27.9051  -16.7782  -15.7274 C   0  0  0  0  0  0  0  0  0  0  0  0
   26.9917  -17.2738  -14.6917 C   0  0  0  0  0  0  0  0  0  0  0  0
   25.9115  -18.2369  -14.9691 C   0  0  2  0  0  0  0  0  0  0  0  0
   24.8232  -17.7534  -15.7485 N   0  0  0  0  0  0  0  0  0  0  0  0
   25.3996  -18.7872  -13.6589 C   0  0  0  0  0  0  0  0  0  0  0  0
   24.5330  -18.1243  -13.0315 O   0  0  0  0  0  0  0  0  0  0  0  0
   28.7053  -19.2298  -19.5891 C   0  0  0  0  0  0  0  0  0  0  0  0
   25.8840  -22.9077  -12.4805 C   0  0  1  0  0  0  0  0  0  0  0  0
   24.7608  -21.9743  -12.1464 C   0  0  0  0  0  0  0  0  0  0  0  0
   23.6702  -21.9824  -13.1950 C   0  0  1  0  0  0  0  0  0  0  0  0
   25.2637  -20.5420  -11.8948 N   0  0  0  0  0  0  0  0  0  0  0  0
   25.8390  -20.0072  -13.0961 C   0  0  0  0  0  0  0  0  0  0  0  0
   26.1852  -20.6075  -10.7626 O   0  0  0  0  0  0  0  0  0  0  0  0
   27.3660  -21.0354  -10.8209 N   0  0  0  0  0  0  0  0  0  0  0  0
   25.7186  -20.1553   -9.4981 C   0  0  1  0  0  0  0  0  0  0  0  0
   26.4958  -20.3553   -8.2862 C   0  0  0  0  0  0  0  0  0  0  0  0
   27.1981  -19.1203   -7.8429 C   0  0  0  0  0  0  0  0  0  0  0  0
   27.8709  -19.3503   -6.5473 C   0  0  0  0  0  0  0  0  0  0  0  0
   27.3097  -19.0879   -5.3192 C   0  0  0  0  0  0  0  0  0  0  0  0
   28.0147  -19.3400   -4.1475 C   0  0  0  0  0  0  0  0  0  0  0  0
   29.2847  -19.8547   -4.1753 C   0  0  0  0  0  0  0  0  0  0  0  0
   29.8410  -20.1151   -5.4079 C   0  0  0  0  0  0  0  0  0  0  0  0
   29.1681  -19.8764   -6.5858 C   0  0  0  0  0  0  0  0  0  0  0  0
   25.6900  -21.0211   -7.2388 O   0  0  0  0  0  0  0  0  0  0  0  0
   26.1413  -21.6920   -6.2854 O   0  0  0  0  0  0  0  0  0  0  0  0
  2  3  2  0
  2  1  1  0
  4  2  1  0
  5  4  1  0
  6  5  1  0
  7  6  1  0
  8  9  1  1
  8  7  1  0
 10 16  1  0
 10  8  1  0
 11 10  2  0
 13 12  1  1
 13 15  1  0
 14 13  1  0
 15 17  1  0
 15 16  1  6
 17 18  2  0
 19 20  1  0
 19 17  1  0
 20 28  1  0
 21 22  1  0
 20 21  1  1
 22 23  2  0
 23 24  1  0
 25 24  2  0
 26 25  1  0
 27 26  2  0
 27 22  1  0
 28 29  2  0
 28 30  1  0
M  END
$$$$
