RVF.pdb
     RDKit          3D

 30 30  0  0  1  0  0  0  0  0999 V2000
   20.2612  -18.9058  -21.7136 N   0  0  0  0  0  0  0  0  0  0  0  0
   20.6846  -17.5414  -21.5454 C   0  0  0  0  0  0  0  0  0  0  0  0
   20.0029  -16.5612  -21.9705 N   0  0  0  0  0  0  0  0  0  0  0  0
   21.9132  -17.3156  -20.8774 N   0  0  0  0  0  0  0  0  0  0  0  0
   22.7802  -18.3466  -20.3816 C   0  0  0  0  0  0  0  0  0  0  0  0
   22.5821  -18.5989  -18.9337 C   0  0  0  0  0  0  0  0  0  0  0  0
   22.0672  -19.9208  -18.5596 C   0  0  0  0  0  0  0  0  0  0  0  0
   22.8929  -21.1410  -18.5897 C   0  0  2  0  0  0  0  0  0  0  0  0
   23.0789  -21.7426  -19.8661 N   0  0  0  0  0  0  0  0  0  0  0  0
   22.3100  -22.1489  -17.6275 C   0  0  0  0  0  0  0  0  0  0  0  0
   21.2729  -22.7727  -17.9730 O   0  0  0  0  0  0  0  0  0  0  0  0
   20.3336  -15.5911  -21.8552 C   0  0  0  0  0  0  0  0  0  0  0  0
   24.1917  -24.9610  -15.9197 C   0  0  1  0  0  0  0  0  0  0  0  0
   23.3745  -24.2851  -14.8615 C   0  0  0  0  0  0  0  0  0  0  0  0
   22.7818  -25.2657  -13.8735 C   0  0  2  0  0  0  0  0  0  0  0  0
   22.2771  -23.3940  -15.4692 N   0  0  0  0  0  0  0  0  0  0  0  0
   22.8641  -22.4324  -16.3584 C   0  0  0  0  0  0  0  0  0  0  0  0
   21.5371  -22.8095  -14.3529 O   0  0  0  0  0  0  0  0  0  0  0  0
   21.8670  -21.7609  -13.7426 N   0  0  0  0  0  0  0  0  0  0  0  0
   20.3552  -23.4703  -13.9195 C   0  0  1  0  0  0  0  0  0  0  0  0
   19.5044  -22.9040  -12.8859 C   0  0  0  0  0  0  0  0  0  0  0  0
   19.0971  -21.5030  -13.1799 C   0  0  0  0  0  0  0  0  0  0  0  0
   18.0408  -21.4825  -14.2134 C   0  0  0  0  0  0  0  0  0  0  0  0
   17.3885  -20.3492  -14.6401 C   0  0  0  0  0  0  0  0  0  0  0  0
   16.4082  -20.4215  -15.6236 C   0  0  0  0  0  0  0  0  0  0  0  0
   16.0599  -21.6163  -16.1977 C   0  0  0  0  0  0  0  0  0  0  0  0
   16.7166  -22.7473  -15.7662 C   0  0  0  0  0  0  0  0  0  0  0  0
   17.6919  -22.7079  -14.7942 C   0  0  0  0  0  0  0  0  0  0  0  0
   18.3893  -23.8177  -12.5523 O   0  0  0  0  0  0  0  0  0  0  0  0
   18.1034  -24.8734  -13.1576 O   0  0  0  0  0  0  0  0  0  0  0  0
  2  3  2  0
  2  1  1  0
  4  2  1  0
  5  4  1  0
  6  5  1  0
  7  6  1  0
  8  9  1  6
  8  7  1  0
 10 16  1  0
 10  8  1  0
 11 10  2  0
 13 12  1  1
 13 15  1  0
 14 13  1  0
 15 17  1  0
 15 16  1  6
 17 18  2  0
 19 20  1  0
 19 17  1  0
 20 28  1  0
 21 22  1  0
 20 21  1  1
 22 23  2  0
 23 24  1  0
 25 24  2  0
 26 25  1  0
 27 26  2  0
 27 22  1  0
 28 29  2  0
 28 30  1  0
M  END
$$$$
