RVF.pdb
     RDKit          3D

 30 30  0  0  1  0  0  0  0  0999 V2000
   29.7505  -21.4803  -20.2039 N   0  0  0  0  0  0  0  0  0  0  0  0
   30.2452  -22.7202  -19.6679 C   0  0  0  0  0  0  0  0  0  0  0  0
   31.1230  -23.4148  -20.2619 N   0  0  0  0  0  0  0  0  0  0  0  0
   29.7124  -23.1561  -18.4299 N   0  0  0  0  0  0  0  0  0  0  0  0
   28.7701  -22.4195  -17.6362 C   0  0  0  0  0  0  0  0  0  0  0  0
   29.3114  -21.1126  -17.1909 C   0  0  0  0  0  0  0  0  0  0  0  0
   28.4527  -20.3078  -16.3147 C   0  0  0  0  0  0  0  0  0  0  0  0
   27.0802  -19.9139  -16.6787 C   0  0  2  0  0  0  0  0  0  0  0  0
   26.9595  -18.8850  -17.6546 N   0  0  0  0  0  0  0  0  0  0  0  0
   26.3359  -19.5212  -15.4244 C   0  0  0  0  0  0  0  0  0  0  0  0
   26.6364  -18.4325  -14.8689 O   0  0  0  0  0  0  0  0  0  0  0  0
   31.4584  -24.3052  -19.8637 C   0  0  0  0  0  0  0  0  0  0  0  0
   22.6554  -21.3637  -13.9647 C   0  0  1  0  0  0  0  0  0  0  0  0
   23.1695  -19.9744  -13.7410 C   0  0  0  0  0  0  0  0  0  0  0  0
   22.7191  -19.0104  -14.8165 C   0  0  1  0  0  0  0  0  0  0  0  0
   24.7008  -19.9486  -13.5932 N   0  0  0  0  0  0  0  0  0  0  0  0
   25.3188  -20.3081  -14.8377 C   0  0  0  0  0  0  0  0  0  0  0  0
   25.0354  -20.8306  -12.4771 O   0  0  0  0  0  0  0  0  0  0  0  0
   25.8519  -21.7850  -12.5353 N   0  0  0  0  0  0  0  0  0  0  0  0
   24.3938  -20.5981  -11.2299 C   0  0  1  0  0  0  0  0  0  0  0  0
   24.7209  -21.3818  -10.0502 C   0  0  0  0  0  0  0  0  0  0  0  0
   26.1751  -21.3652   -9.7338 C   0  0  0  0  0  0  0  0  0  0  0  0
   26.4601  -20.3633   -8.6854 C   0  0  0  0  0  0  0  0  0  0  0  0
   26.5747  -19.0109   -8.9089 C   0  0  0  0  0  0  0  0  0  0  0  0
   26.8402  -18.1375   -7.8602 C   0  0  0  0  0  0  0  0  0  0  0  0
   26.9964  -18.5905   -6.5760 C   0  0  0  0  0  0  0  0  0  0  0  0
   26.8805  -19.9455   -6.3588 C   0  0  0  0  0  0  0  0  0  0  0  0
   26.6179  -20.8356   -7.3766 C   0  0  0  0  0  0  0  0  0  0  0  0
   23.8349  -21.0356   -8.9167 O   0  0  0  0  0  0  0  0  0  0  0  0
   23.0603  -20.0557   -8.8673 O   0  0  0  0  0  0  0  0  0  0  0  0
  2  3  2  0
  2  1  1  0
  4  2  1  0
  5  4  1  0
  6  5  1  0
  7  6  1  0
  8  9  1  6
  8  7  1  0
 10 16  1  0
 10  8  1  0
 11 10  2  0
 13 12  1  1
 13 15  1  0
 14 13  1  0
 15 17  1  0
 15 16  1  6
 17 18  2  0
 19 20  1  0
 19 17  1  0
 20 28  1  0
 21 22  1  0
 20 21  1  1
 22 23  2  0
 23 24  1  0
 25 24  2  0
 26 25  1  0
 27 26  2  0
 27 22  1  0
 28 29  2  0
 28 30  1  0
M  END
$$$$
