RVF.pdb
     RDKit          3D

 30 30  0  0  1  0  0  0  0  0999 V2000
   15.7399  -17.9874    2.8841 N   0  0  0  0  0  0  0  0  0  0  0  0
   14.4603  -17.3497    3.0429 C   0  0  0  0  0  0  0  0  0  0  0  0
   13.3674  -17.9657    2.8642 N   0  0  0  0  0  0  0  0  0  0  0  0
   14.4527  -15.9820    3.4119 N   0  0  0  0  0  0  0  0  0  0  0  0
   15.6108  -15.1346    3.4481 C   0  0  0  0  0  0  0  0  0  0  0  0
   16.4525  -15.3846    4.6432 C   0  0  0  0  0  0  0  0  0  0  0  0
   17.6920  -14.6071    4.7505 C   0  0  0  0  0  0  0  0  0  0  0  0
   17.7096  -13.1386    4.8708 C   0  0  2  0  0  0  0  0  0  0  0  0
   17.7403  -12.4083    3.6495 N   0  0  0  0  0  0  0  0  0  0  0  0
   18.8768  -12.7337    5.7400 C   0  0  0  0  0  0  0  0  0  0  0  0
   20.0312  -12.7621    5.2394 O   0  0  0  0  0  0  0  0  0  0  0  0
   12.4604  -17.4921    2.9936 C   0  0  0  0  0  0  0  0  0  0  0  0
   19.2647   -9.7434    8.3439 C   0  0  1  0  0  0  0  0  0  0  0  0
   19.5918  -11.0563    8.9870 C   0  0  0  0  0  0  0  0  0  0  0  0
   20.7279  -10.9472    9.9801 C   0  0  2  0  0  0  0  0  0  0  0  0
   19.8847  -12.1472    7.9421 N   0  0  0  0  0  0  0  0  0  0  0  0
   18.7461  -12.3236    7.0864 C   0  0  0  0  0  0  0  0  0  0  0  0
   20.2770  -13.3470    8.6783 O   0  0  0  0  0  0  0  0  0  0  0  0
   19.4770  -14.1483    9.2250 N   0  0  0  0  0  0  0  0  0  0  0  0
   21.6647  -13.6360    8.7884 C   0  0  1  0  0  0  0  0  0  0  0  0
   22.1397  -14.8320    9.4642 C   0  0  0  0  0  0  0  0  0  0  0  0
   23.1304  -15.5941    8.6561 C   0  0  0  0  0  0  0  0  0  0  0  0
   23.5811  -16.7923    9.3946 C   0  0  0  0  0  0  0  0  0  0  0  0
   22.9279  -18.0028    9.3909 C   0  0  0  0  0  0  0  0  0  0  0  0
   23.4269  -19.0815   10.1125 C   0  0  0  0  0  0  0  0  0  0  0  0
   24.5787  -18.9768   10.8480 C   0  0  0  0  0  0  0  0  0  0  0  0
   25.2280  -17.7622   10.8477 C   0  0  0  0  0  0  0  0  0  0  0  0
   24.7588  -16.6756   10.1430 C   0  0  0  0  0  0  0  0  0  0  0  0
   22.5686  -14.5290   10.8476 O   0  0  0  0  0  0  0  0  0  0  0  0
   23.2112  -13.5194   11.2090 O   0  0  0  0  0  0  0  0  0  0  0  0
  2  3  2  0
  2  1  1  0
  4  2  1  0
  5  4  1  0
  6  5  1  0
  7  6  1  0
  8  9  1  6
  8  7  1  0
 10 16  1  0
 10  8  1  0
 11 10  2  0
 13 12  1  1
 13 15  1  0
 14 13  1  0
 15 17  1  0
 15 16  1  6
 17 18  2  0
 19 20  1  0
 19 17  1  0
 20 28  1  0
 21 22  1  0
 20 21  1  1
 22 23  2  0
 23 24  1  0
 25 24  2  0
 26 25  1  0
 27 26  2  0
 27 22  1  0
 28 29  2  0
 28 30  1  0
M  END
$$$$
