WMS.pdb
     RDKit          3D

 29 30  0  0  1  0  0  0  0  0999 V2000
    6.4009  -18.8388   24.4708 N   0  0  0  0  0  0  0  0  0  0  0  0
    6.6607  -17.4397   24.2919 C   0  0  1  0  0  0  0  0  0  0  0  0
    7.3190  -16.9295   25.5746 C   0  0  0  0  0  0  0  0  0  0  0  0
    6.7538  -15.6701   26.0513 C   0  0  0  0  0  0  0  0  0  0  0  0
    5.5162  -15.4386   26.6058 C   0  0  0  0  0  0  0  0  0  0  0  0
    5.3955  -14.1440   26.9077 N   0  0  0  0  0  0  0  0  0  0  0  0
    6.5326  -13.4814   26.5688 C   0  0  0  0  0  0  0  0  0  0  0  0
    6.9282  -12.1543   26.6646 C   0  0  0  0  0  0  0  0  0  0  0  0
    8.1927  -11.8288   26.2075 C   0  0  0  0  0  0  0  0  0  0  0  0
    9.0631  -12.7531   25.6692 C   0  0  0  0  0  0  0  0  0  0  0  0
    8.6396  -14.0621   25.5885 C   0  0  0  0  0  0  0  0  0  0  0  0
    7.3819  -14.4454   26.0314 C   0  0  0  0  0  0  0  0  0  0  0  0
    7.6494  -17.2009   23.2098 C   0  0  0  0  0  0  0  0  0  0  0  0
    8.2799  -18.2007   22.7932 O   0  0  0  0  0  0  0  0  0  0  0  0
    7.3179  -11.5099   20.0072 C   0  0  0  0  0  0  0  0  0  0  0  0
    7.8286  -12.6056   18.6710 S   0  0  0  0  0  0  0  0  0  0  0  0
    8.4627  -14.1568   19.3422 C   0  0  0  0  0  0  0  0  0  0  0  0
    7.9790  -14.4642   20.7039 C   0  0  0  0  0  0  0  0  0  0  0  0
    8.4771  -15.7258   21.3456 C   0  0  2  0  0  0  0  0  0  0  0  0
    7.9055  -15.9159   22.6391 N   0  0  0  0  0  0  0  0  0  0  0  0
    9.9615  -15.7941   21.3633 C   0  0  0  0  0  0  0  0  0  0  0  0
   10.6616  -15.6950   20.3214 O   0  0  0  0  0  0  0  0  0  0  0  0
   11.6133  -17.1594   24.6309 O   0  0  0  0  0  0  0  0  0  0  0  0
   12.4367  -16.1340   24.1417 C   0  0  0  0  0  0  0  0  0  0  0  0
   12.1051  -15.9110   22.6800 C   0  0  2  0  0  0  0  0  0  0  0  0
   10.6454  -15.9771   22.5830 N   0  0  0  0  0  0  0  0  0  0  0  0
   12.7092  -17.0574   21.9291 C   0  0  0  0  0  0  0  0  0  0  0  0
   12.0252  -17.9257   21.3654 O   0  0  0  0  0  0  0  0  0  0  0  0
   14.0945  -17.1199   21.8823 O   0  0  0  0  0  0  0  0  0  0  0  0
  2  1  1  1
  2  3  1  0
  2 13  1  0
  3  4  1  0
  4 12  1  0
  4  5  2  0
  5  6  1  0
  7  8  2  0
  7  6  1  0
  9  8  1  0
 10  9  2  0
 11 10  1  0
 11 12  2  0
 12  7  1  0
 13 20  1  0
 14 13  2  0
 16 17  1  0
 16 15  1  0
 18 17  1  0
 19 18  1  1
 20 19  1  0
 21 22  2  0
 21 19  1  0
 23 24  1  0
 25 24  1  1
 25 27  1  0
 25 26  1  0
 26 21  1  0
 27 29  1  0
 28 27  2  0
M  END
$$$$
