WMS.pdb
     RDKit          3D

 29 30  0  0  1  0  0  0  0  0999 V2000
    6.5341  -18.6153   24.9109 N   0  0  0  0  0  0  0  0  0  0  0  0
    6.8835  -17.3611   24.3097 C   0  0  1  0  0  0  0  0  0  0  0  0
    7.7035  -16.5757   25.3344 C   0  0  0  0  0  0  0  0  0  0  0  0
    6.9777  -15.4469   25.9106 C   0  0  0  0  0  0  0  0  0  0  0  0
    5.7876  -15.4521   26.6006 C   0  0  0  0  0  0  0  0  0  0  0  0
    5.4708  -14.2055   26.9572 N   0  0  0  0  0  0  0  0  0  0  0  0
    6.4264  -13.3424   26.5222 C   0  0  0  0  0  0  0  0  0  0  0  0
    6.5857  -11.9670   26.6204 C   0  0  0  0  0  0  0  0  0  0  0  0
    7.7132  -11.4106   26.0432 C   0  0  0  0  0  0  0  0  0  0  0  0
    8.6704  -12.1536   25.3848 C   0  0  0  0  0  0  0  0  0  0  0  0
    8.4821  -13.5164   25.3052 C   0  0  0  0  0  0  0  0  0  0  0  0
    7.3701  -14.1283   25.8656 C   0  0  0  0  0  0  0  0  0  0  0  0
    7.7760  -17.5462   23.1371 C   0  0  0  0  0  0  0  0  0  0  0  0
    8.4007  -18.6307   23.0713 O   0  0  0  0  0  0  0  0  0  0  0  0
    7.6852  -11.6256   20.2608 C   0  0  0  0  0  0  0  0  0  0  0  0
    7.2217  -13.3459   19.9913 S   0  0  0  0  0  0  0  0  0  0  0  0
    8.6864  -14.4005   20.0239 C   0  0  0  0  0  0  0  0  0  0  0  0
    8.3956  -15.8380   19.8456 C   0  0  0  0  0  0  0  0  0  0  0  0
    8.7760  -16.7636   20.9636 C   0  0  2  0  0  0  0  0  0  0  0  0
    7.9481  -16.5683   22.1093 N   0  0  0  0  0  0  0  0  0  0  0  0
   10.2241  -16.6822   21.2869 C   0  0  0  0  0  0  0  0  0  0  0  0
   10.7082  -15.7883   22.0300 O   0  0  0  0  0  0  0  0  0  0  0  0
   12.1382  -19.8826   21.1613 O   0  0  0  0  0  0  0  0  0  0  0  0
   12.9414  -18.8548   21.6781 C   0  0  0  0  0  0  0  0  0  0  0  0
   12.5652  -17.5603   20.9858 C   0  0  2  0  0  0  0  0  0  0  0  0
   11.1209  -17.6316   20.7547 N   0  0  0  0  0  0  0  0  0  0  0  0
   13.2832  -17.5590   19.6715 C   0  0  0  0  0  0  0  0  0  0  0  0
   12.6910  -17.6208   18.5830 O   0  0  0  0  0  0  0  0  0  0  0  0
   14.6681  -17.4845   19.7102 O   0  0  0  0  0  0  0  0  0  0  0  0
  2  1  1  1
  2  3  1  0
  2 13  1  0
  3  4  1  0
  4 12  1  0
  4  5  2  0
  5  6  1  0
  7  8  2  0
  7  6  1  0
  9  8  1  0
 10  9  2  0
 11 10  1  0
 11 12  2  0
 12  7  1  0
 13 20  1  0
 14 13  2  0
 16 17  1  0
 16 15  1  0
 18 17  1  0
 19 18  1  6
 20 19  1  0
 21 22  2  0
 21 19  1  0
 23 24  1  0
 25 24  1  1
 25 27  1  0
 25 26  1  0
 26 21  1  0
 27 29  1  0
 28 27  2  0
M  END
$$$$
