WMS.pdb
     RDKit          3D

 29 30  0  0  1  0  0  0  0  0999 V2000
    4.9496  -18.4171   24.2264 N   0  0  0  0  0  0  0  0  0  0  0  0
    5.4573  -18.0717   22.9303 C   0  0  1  0  0  0  0  0  0  0  0  0
    4.3251  -17.3864   22.1638 C   0  0  0  0  0  0  0  0  0  0  0  0
    3.1684  -18.2517   21.9481 C   0  0  0  0  0  0  0  0  0  0  0  0
    2.2405  -18.6906   22.8641 C   0  0  0  0  0  0  0  0  0  0  0  0
    1.3409  -19.4656   22.2544 N   0  0  0  0  0  0  0  0  0  0  0  0
    1.6367  -19.5661   20.9318 C   0  0  0  0  0  0  0  0  0  0  0  0
    1.0419  -20.2323   19.8691 C   0  0  0  0  0  0  0  0  0  0  0  0
    1.6326  -20.1074   18.6243 C   0  0  0  0  0  0  0  0  0  0  0  0
    2.7695  -19.3604   18.3986 C   0  0  0  0  0  0  0  0  0  0  0  0
    3.3350  -18.7115   19.4748 C   0  0  0  0  0  0  0  0  0  0  0  0
    2.7856  -18.8015   20.7457 C   0  0  0  0  0  0  0  0  0  0  0  0
    6.5479  -17.0675   23.0197 C   0  0  0  0  0  0  0  0  0  0  0  0
    7.0389  -16.6724   21.9365 O   0  0  0  0  0  0  0  0  0  0  0  0
    5.6694  -11.4530   26.6823 C   0  0  0  0  0  0  0  0  0  0  0  0
    7.0143  -12.6398   26.8540 S   0  0  0  0  0  0  0  0  0  0  0  0
    7.0472  -13.7568   25.4362 C   0  0  0  0  0  0  0  0  0  0  0  0
    8.1226  -14.7682   25.4933 C   0  0  0  0  0  0  0  0  0  0  0  0
    8.2191  -15.7390   24.3533 C   0  0  2  0  0  0  0  0  0  0  0  0
    7.0472  -16.5470   24.2535 N   0  0  0  0  0  0  0  0  0  0  0  0
    9.4647  -16.5472   24.4128 C   0  0  0  0  0  0  0  0  0  0  0  0
    9.6284  -17.4894   25.2320 O   0  0  0  0  0  0  0  0  0  0  0  0
   12.3736  -15.5165   21.8321 O   0  0  0  0  0  0  0  0  0  0  0  0
   12.3188  -16.8947   22.0896 C   0  0  0  0  0  0  0  0  0  0  0  0
   11.7348  -17.0997   23.4728 C   0  0  2  0  0  0  0  0  0  0  0  0
   10.5276  -16.2727   23.5275 N   0  0  0  0  0  0  0  0  0  0  0  0
   12.7474  -16.5723   24.4422 C   0  0  0  0  0  0  0  0  0  0  0  0
   13.8903  -17.0446   24.5426 O   0  0  0  0  0  0  0  0  0  0  0  0
   12.3570  -15.5107   25.2457 O   0  0  0  0  0  0  0  0  0  0  0  0
  2  1  1  1
  2  3  1  0
  2 13  1  0
  3  4  1  0
  4 12  1  0
  4  5  2  0
  5  6  1  0
  7  8  2  0
  7  6  1  0
  9  8  1  0
 10  9  2  0
 11 10  1  0
 11 12  2  0
 12  7  1  0
 13 20  1  0
 14 13  2  0
 16 17  1  0
 16 15  1  0
 18 17  1  0
 19 18  1  1
 20 19  1  0
 21 22  2  0
 21 19  1  0
 23 24  1  0
 25 24  1  6
 25 27  1  0
 25 26  1  0
 26 21  1  0
 27 29  1  0
 28 27  2  0
M  END
$$$$
