WMS.pdb
     RDKit          3D

 29 30  0  0  1  0  0  0  0  0999 V2000
    8.7310  -17.0788   22.5591 N   0  0  0  0  0  0  0  0  0  0  0  0
   10.0701  -16.5705   22.6303 C   0  0  1  0  0  0  0  0  0  0  0  0
   10.1360  -15.3300   21.7382 C   0  0  0  0  0  0  0  0  0  0  0  0
    8.9895  -15.2023   20.8426 C   0  0  0  0  0  0  0  0  0  0  0  0
    8.3614  -16.1794   20.1055 C   0  0  0  0  0  0  0  0  0  0  0  0
    7.3513  -15.6424   19.4179 N   0  0  0  0  0  0  0  0  0  0  0  0
    7.2754  -14.3094   19.6715 C   0  0  0  0  0  0  0  0  0  0  0  0
    6.4308  -13.3006   19.2289 C   0  0  0  0  0  0  0  0  0  0  0  0
    6.6533  -12.0227   19.7100 C   0  0  0  0  0  0  0  0  0  0  0  0
    7.6631  -11.7141   20.5970 C   0  0  0  0  0  0  0  0  0  0  0  0
    8.4838  -12.7385   21.0167 C   0  0  0  0  0  0  0  0  0  0  0  0
    8.3070  -14.0391   20.5670 C   0  0  0  0  0  0  0  0  0  0  0  0
   10.4048  -16.1002   23.9987 C   0  0  0  0  0  0  0  0  0  0  0  0
   11.1028  -15.0627   24.0819 O   0  0  0  0  0  0  0  0  0  0  0  0
    6.4792  -12.7983   27.0988 C   0  0  0  0  0  0  0  0  0  0  0  0
    8.0116  -12.7651   26.1514 S   0  0  0  0  0  0  0  0  0  0  0  0
    8.5848  -14.4465   25.8306 C   0  0  0  0  0  0  0  0  0  0  0  0
    9.7271  -14.8621   26.6705 C   0  0  0  0  0  0  0  0  0  0  0  0
   10.2319  -16.2653   26.5046 C   0  0  2  0  0  0  0  0  0  0  0  0
    9.9768  -16.7614   25.1912 N   0  0  0  0  0  0  0  0  0  0  0  0
    9.7197  -17.1715   27.5651 C   0  0  0  0  0  0  0  0  0  0  0  0
    9.4237  -16.7701   28.7212 O   0  0  0  0  0  0  0  0  0  0  0  0
   12.7481  -20.1968   27.0374 O   0  0  0  0  0  0  0  0  0  0  0  0
   11.8021  -19.1736   26.8730 C   0  0  0  0  0  0  0  0  0  0  0  0
   10.5557  -19.5456   27.6505 C   0  0  2  0  0  0  0  0  0  0  0  0
    9.5464  -18.5452   27.2970 N   0  0  0  0  0  0  0  0  0  0  0  0
   10.9059  -19.4128   29.1006 C   0  0  0  0  0  0  0  0  0  0  0  0
   11.5898  -20.2529   29.7056 O   0  0  0  0  0  0  0  0  0  0  0  0
   10.4291  -18.2913   29.7638 O   0  0  0  0  0  0  0  0  0  0  0  0
  2  1  1  1
  2  3  1  0
  2 13  1  0
  3  4  1  0
  4 12  1  0
  4  5  2  0
  5  6  1  0
  7  8  2  0
  7  6  1  0
  9  8  1  0
 10  9  2  0
 11 10  1  0
 11 12  2  0
 12  7  1  0
 13 20  1  0
 14 13  2  0
 16 17  1  0
 16 15  1  0
 18 17  1  0
 19 18  1  6
 20 19  1  0
 21 22  2  0
 21 19  1  0
 23 24  1  0
 25 24  1  6
 25 27  1  0
 25 26  1  0
 26 21  1  0
 27 29  1  0
 28 27  2  0
M  END
$$$$
