WMS.pdb
     RDKit          3D

 29 30  0  0  1  0  0  0  0  0999 V2000
    7.5117  -19.5602   26.1679 N   0  0  0  0  0  0  0  0  0  0  0  0
    7.8022  -18.1562   26.2003 C   0  0  1  0  0  0  0  0  0  0  0  0
    9.3114  -18.0062   26.3977 C   0  0  0  0  0  0  0  0  0  0  0  0
    9.6708  -17.4651   27.7057 C   0  0  0  0  0  0  0  0  0  0  0  0
   10.1447  -18.1325   28.8115 C   0  0  0  0  0  0  0  0  0  0  0  0
   10.3500  -17.2648   29.8048 N   0  0  0  0  0  0  0  0  0  0  0  0
   10.0242  -16.0097   29.3980 C   0  0  0  0  0  0  0  0  0  0  0  0
   10.0482  -14.7689   30.0199 C   0  0  0  0  0  0  0  0  0  0  0  0
    9.6344  -13.6747   29.2813 C   0  0  0  0  0  0  0  0  0  0  0  0
    9.2060  -13.7638   27.9736 C   0  0  0  0  0  0  0  0  0  0  0  0
    9.1944  -15.0101   27.3857 C   0  0  0  0  0  0  0  0  0  0  0  0
    9.5983  -16.1421   28.0788 C   0  0  0  0  0  0  0  0  0  0  0  0
    7.4999  -17.5048   24.9003 C   0  0  0  0  0  0  0  0  0  0  0  0
    7.0689  -18.2462   23.9864 O   0  0  0  0  0  0  0  0  0  0  0  0
    7.2514  -11.4936   26.9118 C   0  0  0  0  0  0  0  0  0  0  0  0
    6.4175  -12.7998   25.9924 S   0  0  0  0  0  0  0  0  0  0  0  0
    7.3209  -13.1701   24.4740 C   0  0  0  0  0  0  0  0  0  0  0  0
    6.6612  -14.1724   23.6120 C   0  0  0  0  0  0  0  0  0  0  0  0
    7.3670  -15.4809   23.4094 C   0  0  2  0  0  0  0  0  0  0  0  0
    7.6743  -16.1079   24.6538 N   0  0  0  0  0  0  0  0  0  0  0  0
    8.5584  -15.3421   22.5321 C   0  0  0  0  0  0  0  0  0  0  0  0
    8.5039  -14.8301   21.3831 O   0  0  0  0  0  0  0  0  0  0  0  0
   11.9964  -16.7685   24.0223 O   0  0  0  0  0  0  0  0  0  0  0  0
   12.1963  -15.7573   23.0703 C   0  0  0  0  0  0  0  0  0  0  0  0
   11.0106  -15.7481   22.1266 C   0  0  2  0  0  0  0  0  0  0  0  0
    9.8187  -15.7931   22.9762 N   0  0  0  0  0  0  0  0  0  0  0  0
   11.1000  -17.0082   21.3222 C   0  0  0  0  0  0  0  0  0  0  0  0
   10.2796  -17.9328   21.4295 O   0  0  0  0  0  0  0  0  0  0  0  0
   12.1569  -17.1121   20.4294 O   0  0  0  0  0  0  0  0  0  0  0  0
  2  1  1  6
  2  3  1  0
  2 13  1  0
  3  4  1  0
  4 12  1  0
  4  5  2  0
  5  6  1  0
  7  8  2  0
  7  6  1  0
  9  8  1  0
 10  9  2  0
 11 10  1  0
 11 12  2  0
 12  7  1  0
 13 20  1  0
 14 13  2  0
 16 17  1  0
 16 15  1  0
 18 17  1  0
 19 18  1  1
 20 19  1  0
 21 22  2  0
 21 19  1  0
 23 24  1  0
 25 24  1  1
 25 27  1  0
 25 26  1  0
 26 21  1  0
 27 29  1  0
 28 27  2  0
M  END
$$$$
