WMS.pdb
     RDKit          3D

 29 30  0  0  1  0  0  0  0  0999 V2000
    8.4952  -17.8270   21.8339 N   0  0  0  0  0  0  0  0  0  0  0  0
    8.6242  -16.4015   21.9230 C   0  0  1  0  0  0  0  0  0  0  0  0
    7.2621  -15.7969   21.5793 C   0  0  0  0  0  0  0  0  0  0  0  0
    7.2105  -15.2156   20.2405 C   0  0  0  0  0  0  0  0  0  0  0  0
    6.7937  -15.7980   19.0659 C   0  0  0  0  0  0  0  0  0  0  0  0
    6.9047  -14.9203   18.0664 N   0  0  0  0  0  0  0  0  0  0  0  0
    7.3920  -13.7420   18.5368 C   0  0  0  0  0  0  0  0  0  0  0  0
    7.6921  -12.5264   17.9375 C   0  0  0  0  0  0  0  0  0  0  0  0
    8.1850  -11.5183   18.7467 C   0  0  0  0  0  0  0  0  0  0  0  0
    8.3873  -11.6682   20.1025 C   0  0  0  0  0  0  0  0  0  0  0  0
    8.0792  -12.8874   20.6663 C   0  0  0  0  0  0  0  0  0  0  0  0
    7.5820  -13.9339   19.9029 C   0  0  0  0  0  0  0  0  0  0  0  0
    8.9194  -15.9646   23.3114 C   0  0  0  0  0  0  0  0  0  0  0  0
    9.4737  -14.8484   23.4441 O   0  0  0  0  0  0  0  0  0  0  0  0
    7.1212  -11.2537   26.5661 C   0  0  0  0  0  0  0  0  0  0  0  0
    6.8791  -12.9897   26.9842 S   0  0  0  0  0  0  0  0  0  0  0  0
    8.0709  -14.0177   26.1002 C   0  0  0  0  0  0  0  0  0  0  0  0
    7.9792  -15.4565   26.4233 C   0  0  0  0  0  0  0  0  0  0  0  0
    8.9887  -16.3713   25.7946 C   0  0  2  0  0  0  0  0  0  0  0  0
    8.6070  -16.7406   24.4702 N   0  0  0  0  0  0  0  0  0  0  0  0
    9.2840  -17.5491   26.6514 C   0  0  0  0  0  0  0  0  0  0  0  0
    8.4029  -18.1336   27.3351 O   0  0  0  0  0  0  0  0  0  0  0  0
   13.1031  -18.7936   26.6752 O   0  0  0  0  0  0  0  0  0  0  0  0
   12.1812  -19.8238   26.9152 C   0  0  0  0  0  0  0  0  0  0  0  0
   10.9427  -19.2197   27.5458 C   0  0  2  0  0  0  0  0  0  0  0  0
   10.5972  -18.0583   26.7235 N   0  0  0  0  0  0  0  0  0  0  0  0
   11.3445  -18.7627   28.9142 C   0  0  0  0  0  0  0  0  0  0  0  0
   11.7200  -19.5459   29.8003 O   0  0  0  0  0  0  0  0  0  0  0  0
   11.2821  -17.3999   29.1669 O   0  0  0  0  0  0  0  0  0  0  0  0
  2  1  1  1
  2  3  1  0
  2 13  1  0
  3  4  1  0
  4 12  1  0
  4  5  2  0
  5  6  1  0
  7  8  2  0
  7  6  1  0
  9  8  1  0
 10  9  2  0
 11 10  1  0
 11 12  2  0
 12  7  1  0
 13 20  1  0
 14 13  2  0
 16 17  1  0
 16 15  1  0
 18 17  1  0
 19 18  1  1
 20 19  1  0
 21 22  2  0
 21 19  1  0
 23 24  1  0
 25 24  1  6
 25 27  1  0
 25 26  1  0
 26 21  1  0
 27 29  1  0
 28 27  2  0
M  END
$$$$
