WMS.pdb
     RDKit          3D

 29 30  0  0  1  0  0  0  0  0999 V2000
    7.7480  -19.2736   25.7990 N   0  0  0  0  0  0  0  0  0  0  0  0
    8.0389  -17.8860   26.0149 C   0  0  1  0  0  0  0  0  0  0  0  0
    9.5068  -17.7865   26.4327 C   0  0  0  0  0  0  0  0  0  0  0  0
    9.6846  -17.3459   27.8137 C   0  0  0  0  0  0  0  0  0  0  0  0
    9.9265  -18.1065   28.9343 C   0  0  0  0  0  0  0  0  0  0  0  0
   10.0257  -17.3120   30.0023 N   0  0  0  0  0  0  0  0  0  0  0  0
    9.8556  -16.0154   29.6323 C   0  0  0  0  0  0  0  0  0  0  0  0
    9.8617  -14.8155   30.3302 C   0  0  0  0  0  0  0  0  0  0  0  0
    9.6481  -13.6545   29.6088 C   0  0  0  0  0  0  0  0  0  0  0  0
    9.4327  -13.6396   28.2468 C   0  0  0  0  0  0  0  0  0  0  0  0
    9.4329  -14.8479   27.5840 C   0  0  0  0  0  0  0  0  0  0  0  0
    9.6417  -16.0433   28.2566 C   0  0  0  0  0  0  0  0  0  0  0  0
    7.9240  -17.1011   24.7593 C   0  0  0  0  0  0  0  0  0  0  0  0
    7.6078  -17.7359   23.7260 O   0  0  0  0  0  0  0  0  0  0  0  0
    6.2920  -11.7816   27.5383 C   0  0  0  0  0  0  0  0  0  0  0  0
    7.3949  -11.9291   26.1209 S   0  0  0  0  0  0  0  0  0  0  0  0
    6.7602  -13.1572   24.9600 C   0  0  0  0  0  0  0  0  0  0  0  0
    7.6840  -13.4681   23.8498 C   0  0  0  0  0  0  0  0  0  0  0  0
    7.8965  -14.9146   23.5124 C   0  0  2  0  0  0  0  0  0  0  0  0
    8.1519  -15.6924   24.6811 N   0  0  0  0  0  0  0  0  0  0  0  0
    8.9381  -15.0966   22.4683 C   0  0  0  0  0  0  0  0  0  0  0  0
    8.8500  -14.5869   21.3203 O   0  0  0  0  0  0  0  0  0  0  0  0
   12.3729  -15.8209   23.6703 O   0  0  0  0  0  0  0  0  0  0  0  0
   12.3528  -16.5380   22.4645 C   0  0  0  0  0  0  0  0  0  0  0  0
   11.0833  -16.1817   21.7176 C   0  0  2  0  0  0  0  0  0  0  0  0
   10.0866  -15.8676   22.7435 N   0  0  0  0  0  0  0  0  0  0  0  0
   10.6676  -17.4150   20.9767 C   0  0  0  0  0  0  0  0  0  0  0  0
    9.6131  -18.0214   21.2207 O   0  0  0  0  0  0  0  0  0  0  0  0
   11.5213  -17.8704   19.9823 O   0  0  0  0  0  0  0  0  0  0  0  0
  2  1  1  6
  2  3  1  0
  2 13  1  0
  3  4  1  0
  4 12  1  0
  4  5  2  0
  5  6  1  0
  7  8  2  0
  7  6  1  0
  9  8  1  0
 10  9  2  0
 11 10  1  0
 11 12  2  0
 12  7  1  0
 13 20  1  0
 14 13  2  0
 16 17  1  0
 16 15  1  0
 18 17  1  0
 19 18  1  1
 20 19  1  0
 21 22  2  0
 21 19  1  0
 23 24  1  0
 25 24  1  1
 25 27  1  0
 25 26  1  0
 26 21  1  0
 27 29  1  0
 28 27  2  0
M  END
$$$$
