WMS.pdb
     RDKit          3D

 29 30  0  0  1  0  0  0  0  0999 V2000
    7.0423  -18.8193   26.0900 N   0  0  0  0  0  0  0  0  0  0  0  0
    7.7084  -17.5494   26.0651 C   0  0  1  0  0  0  0  0  0  0  0  0
    9.1996  -17.8114   26.2811 C   0  0  0  0  0  0  0  0  0  0  0  0
    9.6942  -17.3080   27.5598 C   0  0  0  0  0  0  0  0  0  0  0  0
   10.0556  -18.0180   28.6814 C   0  0  0  0  0  0  0  0  0  0  0  0
   10.4555  -17.1750   29.6358 N   0  0  0  0  0  0  0  0  0  0  0  0
   10.3743  -15.8948   29.1868 C   0  0  0  0  0  0  0  0  0  0  0  0
   10.6606  -14.6631   29.7592 C   0  0  0  0  0  0  0  0  0  0  0  0
   10.4524  -13.5345   28.9867 C   0  0  0  0  0  0  0  0  0  0  0  0
    9.9800  -13.5813   27.6920 C   0  0  0  0  0  0  0  0  0  0  0  0
    9.7057  -14.8198   27.1535 C   0  0  0  0  0  0  0  0  0  0  0  0
    9.8955  -15.9851   27.8823 C   0  0  0  0  0  0  0  0  0  0  0  0
    7.6026  -16.9023   24.7325 C   0  0  0  0  0  0  0  0  0  0  0  0
    7.2029  -17.6222   23.7877 O   0  0  0  0  0  0  0  0  0  0  0  0
    5.3994  -11.8000   26.6478 C   0  0  0  0  0  0  0  0  0  0  0  0
    6.8787  -12.3244   25.7627 S   0  0  0  0  0  0  0  0  0  0  0  0
    6.4371  -12.9780   24.1390 C   0  0  0  0  0  0  0  0  0  0  0  0
    7.5938  -13.4290   23.3382 C   0  0  0  0  0  0  0  0  0  0  0  0
    7.8108  -14.9082   23.2104 C   0  0  2  0  0  0  0  0  0  0  0  0
    7.9277  -15.5322   24.4883 N   0  0  0  0  0  0  0  0  0  0  0  0
    8.9513  -15.2292   22.3134 C   0  0  0  0  0  0  0  0  0  0  0  0
    8.9833  -14.8886   21.1017 O   0  0  0  0  0  0  0  0  0  0  0  0
   12.1358  -17.1329   23.9831 O   0  0  0  0  0  0  0  0  0  0  0  0
   12.4160  -16.2661   22.9160 C   0  0  0  0  0  0  0  0  0  0  0  0
   11.2247  -16.2602   21.9795 C   0  0  2  0  0  0  0  0  0  0  0  0
   10.0605  -15.9448   22.8100 N   0  0  0  0  0  0  0  0  0  0  0  0
   11.0973  -17.6544   21.4476 C   0  0  0  0  0  0  0  0  0  0  0  0
   10.1270  -18.3843   21.7030 O   0  0  0  0  0  0  0  0  0  0  0  0
   12.1255  -18.1166   20.6389 O   0  0  0  0  0  0  0  0  0  0  0  0
  2  1  1  6
  2  3  1  0
  2 13  1  0
  3  4  1  0
  4 12  1  0
  4  5  2  0
  5  6  1  0
  7  8  2  0
  7  6  1  0
  9  8  1  0
 10  9  2  0
 11 10  1  0
 11 12  2  0
 12  7  1  0
 13 20  1  0
 14 13  2  0
 16 17  1  0
 16 15  1  0
 18 17  1  0
 19 18  1  1
 20 19  1  0
 21 22  2  0
 21 19  1  0
 23 24  1  0
 25 24  1  1
 25 27  1  0
 25 26  1  0
 26 21  1  0
 27 29  1  0
 28 27  2  0
M  END
$$$$
