WMS.pdb
     RDKit          3D

 29 30  0  0  1  0  0  0  0  0999 V2000
    6.3978  -17.4913   25.0859 N   0  0  0  0  0  0  0  0  0  0  0  0
    7.1695  -16.3987   24.5686 C   0  0  1  0  0  0  0  0  0  0  0  0
    8.3539  -16.1883   25.5131 C   0  0  0  0  0  0  0  0  0  0  0  0
    8.0883  -15.2065   26.5612 C   0  0  0  0  0  0  0  0  0  0  0  0
    8.1841  -15.3580   27.9252 C   0  0  0  0  0  0  0  0  0  0  0  0
    7.8536  -14.2136   28.5275 N   0  0  0  0  0  0  0  0  0  0  0  0
    7.5317  -13.2768   27.5971 C   0  0  0  0  0  0  0  0  0  0  0  0
    7.1267  -11.9515   27.6781 C   0  0  0  0  0  0  0  0  0  0  0  0
    6.8786  -11.2845   26.4917 C   0  0  0  0  0  0  0  0  0  0  0  0
    7.0147  -11.8719   25.2515 C   0  0  0  0  0  0  0  0  0  0  0  0
    7.4184  -13.1888   25.2061 C   0  0  0  0  0  0  0  0  0  0  0  0
    7.6810  -13.9065   26.3641 C   0  0  0  0  0  0  0  0  0  0  0  0
    7.7623  -16.7252   23.2466 C   0  0  0  0  0  0  0  0  0  0  0  0
    7.8093  -17.9382   22.9353 O   0  0  0  0  0  0  0  0  0  0  0  0
    6.1842  -11.7460   18.9773 C   0  0  0  0  0  0  0  0  0  0  0  0
    7.6684  -12.7598   18.8489 S   0  0  0  0  0  0  0  0  0  0  0  0
    7.5822  -14.1435   20.0050 C   0  0  0  0  0  0  0  0  0  0  0  0
    8.8538  -14.8805   20.1556 C   0  0  0  0  0  0  0  0  0  0  0  0
    8.8628  -16.0604   21.0824 C   0  0  2  0  0  0  0  0  0  0  0  0
    8.2671  -15.7428   22.3396 N   0  0  0  0  0  0  0  0  0  0  0  0
   10.2211  -16.6454   21.2275 C   0  0  0  0  0  0  0  0  0  0  0  0
   11.1177  -16.1206   21.9388 O   0  0  0  0  0  0  0  0  0  0  0  0
   10.6612  -20.1525   19.5832 O   0  0  0  0  0  0  0  0  0  0  0  0
   11.7488  -19.8919   20.4304 C   0  0  0  0  0  0  0  0  0  0  0  0
   11.9083  -18.3901   20.5553 C   0  0  2  0  0  0  0  0  0  0  0  0
   10.5516  -17.8389   20.5527 N   0  0  0  0  0  0  0  0  0  0  0  0
   12.6348  -17.9379   19.3262 C   0  0  0  0  0  0  0  0  0  0  0  0
   12.1111  -17.2146   18.4648 O   0  0  0  0  0  0  0  0  0  0  0  0
   13.9466  -18.3644   19.1769 O   0  0  0  0  0  0  0  0  0  0  0  0
  2  1  1  1
  2  3  1  0
  2 13  1  0
  3  4  1  0
  4 12  1  0
  4  5  2  0
  5  6  1  0
  7  8  2  0
  7  6  1  0
  9  8  1  0
 10  9  2  0
 11 10  1  0
 11 12  2  0
 12  7  1  0
 13 20  1  0
 14 13  2  0
 16 17  1  0
 16 15  1  0
 18 17  1  0
 19 18  1  6
 20 19  1  0
 21 22  2  0
 21 19  1  0
 23 24  1  0
 25 24  1  6
 25 27  1  0
 25 26  1  0
 26 21  1  0
 27 29  1  0
 28 27  2  0
M  END
$$$$
