WHV.pdb
     RDKit          3D

 32 34  0  0  1  0  0  0  0  0999 V2000
    5.8303  -17.5840   23.6969 N   0  0  0  0  0  0  0  0  0  0  0  0
    6.7868  -16.5796   24.0269 C   0  0  1  0  0  0  0  0  0  0  0  0
    6.7977  -16.3038   25.4821 C   0  0  0  0  0  0  0  0  0  0  0  0
    6.0797  -15.0867   25.8928 C   0  0  0  0  0  0  0  0  0  0  0  0
    4.8497  -14.9027   26.4440 C   0  0  0  0  0  0  0  0  0  0  0  0
    4.6480  -13.6082   26.6336 N   0  0  0  0  0  0  0  0  0  0  0  0
    5.7225  -12.9172   26.2189 C   0  0  0  0  0  0  0  0  0  0  0  0
    5.9985  -11.5669   26.2043 C   0  0  0  0  0  0  0  0  0  0  0  0
    7.2093  -11.1562   25.7080 C   0  0  0  0  0  0  0  0  0  0  0  0
    8.1506  -12.0429   25.2277 C   0  0  0  0  0  0  0  0  0  0  0  0
    7.8736  -13.3888   25.2432 C   0  0  0  0  0  0  0  0  0  0  0  0
    6.6475  -13.8193   25.7446 C   0  0  0  0  0  0  0  0  0  0  0  0
    8.1227  -16.8445   23.4402 C   0  0  0  0  0  0  0  0  0  0  0  0
    8.5264  -18.0403   23.4449 O   0  0  0  0  0  0  0  0  0  0  0  0
    8.9340  -15.8224   22.8914 N   0  0  0  0  0  0  0  0  0  0  0  0
   10.3184  -16.0833   22.6244 C   0  0  1  0  0  0  0  0  0  0  0  0
   10.8860  -15.1052   21.5968 C   0  0  0  0  0  0  0  0  0  0  0  0
    9.9259  -14.8498   20.4966 C   0  0  0  0  0  0  0  0  0  0  0  0
    9.3917  -15.7684   19.6174 C   0  0  0  0  0  0  0  0  0  0  0  0
    8.5596  -15.1534   18.7636 N   0  0  0  0  0  0  0  0  0  0  0  0
    8.5458  -13.8498   19.0755 C   0  0  0  0  0  0  0  0  0  0  0  0
    9.3838  -13.6624   20.1389 N   0  0  0  0  0  0  0  0  0  0  0  0
   11.1492  -15.9959   23.8620 C   0  0  0  0  0  0  0  0  0  0  0  0
   12.3976  -16.1181   23.8123 O   0  0  0  0  0  0  0  0  0  0  0  0
   11.4134  -14.4055   28.5752 C   0  0  0  0  0  0  0  0  0  0  0  0
   10.6608  -14.5985   27.2995 C   0  0  2  0  0  0  0  0  0  0  0  0
    9.1861  -14.8705   27.4988 C   0  0  0  0  0  0  0  0  0  0  0  0
   11.2936  -15.6086   26.3669 C   0  0  2  0  0  0  0  0  0  0  0  0
   10.5546  -15.7720   25.1345 N   0  0  0  0  0  0  0  0  0  0  0  0
   11.3882  -16.9253   27.0456 C   0  0  0  0  0  0  0  0  0  0  0  0
   10.7491  -17.9138   26.6288 O   0  0  0  0  0  0  0  0  0  0  0  0
   12.2097  -17.0699   28.1776 O   0  0  0  0  0  0  0  0  0  0  0  0
  2  1  1  1
  3  2  1  0
  3  4  1  0
  4  5  2  0
  5  6  1  0
  7  6  1  0
  8  7  2  0
  9  8  1  0
 10 11  1  0
 10  9  2  0
 11 12  2  0
 12  4  1  0
 12  7  1  0
 13  2  1  0
 13 14  2  0
 15 13  1  0
 16 15  1  0
 16 17  1  6
 18 22  1  0
 18 17  1  0
 19 18  2  0
 20 19  1  0
 20 21  1  0
 21 22  2  0
 23 16  1  0
 24 23  2  0
 26 25  1  1
 27 26  1  0
 28 26  1  0
 28 29  1  6
 29 23  1  0
 30 28  1  0
 31 30  2  0
 32 30  1  0
M  END
$$$$
