WHV.pdb
     RDKit          3D

 32 34  0  0  1  0  0  0  0  0999 V2000
    6.5760  -17.2446   24.1404 N   0  0  0  0  0  0  0  0  0  0  0  0
    7.7590  -16.4546   24.2350 C   0  0  1  0  0  0  0  0  0  0  0  0
    7.8559  -15.7858   25.5530 C   0  0  0  0  0  0  0  0  0  0  0  0
    6.7473  -14.8726   25.8733 C   0  0  0  0  0  0  0  0  0  0  0  0
    5.5509  -15.0800   26.4868 C   0  0  0  0  0  0  0  0  0  0  0  0
    4.8873  -13.9359   26.5422 N   0  0  0  0  0  0  0  0  0  0  0  0
    5.6175  -12.9612   25.9758 C   0  0  0  0  0  0  0  0  0  0  0  0
    5.3714  -11.6181   25.7883 C   0  0  0  0  0  0  0  0  0  0  0  0
    6.3302  -10.8625   25.1631 C   0  0  0  0  0  0  0  0  0  0  0  0
    7.5215  -11.3988   24.7202 C   0  0  0  0  0  0  0  0  0  0  0  0
    7.7650  -12.7382   24.9083 C   0  0  0  0  0  0  0  0  0  0  0  0
    6.7996  -13.5169   25.5419 C   0  0  0  0  0  0  0  0  0  0  0  0
    8.9778  -17.1955   23.8292 C   0  0  0  0  0  0  0  0  0  0  0  0
    8.9678  -18.4481   23.9834 O   0  0  0  0  0  0  0  0  0  0  0  0
   10.1190  -16.5547   23.2896 N   0  0  0  0  0  0  0  0  0  0  0  0
   11.4233  -17.0865   23.5578 C   0  0  1  0  0  0  0  0  0  0  0  0
   12.4299  -16.6719   22.4856 C   0  0  0  0  0  0  0  0  0  0  0  0
   11.9381  -16.9864   21.1231 C   0  0  0  0  0  0  0  0  0  0  0  0
   11.3760  -18.1670   20.6843 C   0  0  0  0  0  0  0  0  0  0  0  0
   11.0566  -18.0661   19.3853 N   0  0  0  0  0  0  0  0  0  0  0  0
   11.4027  -16.8378   18.9747 C   0  0  0  0  0  0  0  0  0  0  0  0
   11.9437  -16.1745   20.0402 N   0  0  0  0  0  0  0  0  0  0  0  0
   11.9431  -16.6409   24.8848 C   0  0  0  0  0  0  0  0  0  0  0  0
   13.0440  -16.0454   24.9807 O   0  0  0  0  0  0  0  0  0  0  0  0
    9.5499  -15.7334   28.3919 C   0  0  0  0  0  0  0  0  0  0  0  0
   10.9801  -15.4436   28.0730 C   0  0  2  0  0  0  0  0  0  0  0  0
   11.1841  -14.1504   27.3150 C   0  0  0  0  0  0  0  0  0  0  0  0
   11.7017  -16.5979   27.4116 C   0  0  2  0  0  0  0  0  0  0  0  0
   11.2097  -16.8763   26.0804 N   0  0  0  0  0  0  0  0  0  0  0  0
   11.5550  -17.8203   28.2408 C   0  0  0  0  0  0  0  0  0  0  0  0
   10.9317  -18.8163   27.8178 O   0  0  0  0  0  0  0  0  0  0  0  0
   12.1250  -17.8653   29.5253 O   0  0  0  0  0  0  0  0  0  0  0  0
  2  1  1  1
  3  2  1  0
  3  4  1  0
  4  5  2  0
  5  6  1  0
  7  6  1  0
  8  7  2  0
  9  8  1  0
 10 11  1  0
 10  9  2  0
 11 12  2  0
 12  4  1  0
 12  7  1  0
 13  2  1  0
 13 14  2  0
 15 13  1  0
 16 15  1  0
 16 17  1  6
 18 22  1  0
 18 17  1  0
 19 18  2  0
 20 19  1  0
 20 21  1  0
 21 22  2  0
 23 16  1  0
 24 23  2  0
 26 25  1  6
 27 26  1  0
 28 26  1  0
 28 29  1  6
 29 23  1  0
 30 28  1  0
 31 30  2  0
 32 30  1  0
M  END
$$$$
