WHV.pdb
     RDKit          3D

 32 34  0  0  1  0  0  0  0  0999 V2000
   10.6629  -16.5881   20.6635 N   0  0  0  0  0  0  0  0  0  0  0  0
   10.5598  -15.4987   21.5773 C   0  0  1  0  0  0  0  0  0  0  0  0
   10.0246  -14.2877   20.9134 C   0  0  0  0  0  0  0  0  0  0  0  0
   10.6290  -13.9712   19.6095 C   0  0  0  0  0  0  0  0  0  0  0  0
   10.0802  -13.7709   18.3810 C   0  0  0  0  0  0  0  0  0  0  0  0
   11.0444  -13.5127   17.5114 N   0  0  0  0  0  0  0  0  0  0  0  0
   12.2340  -13.5360   18.1346 C   0  0  0  0  0  0  0  0  0  0  0  0
   13.5174  -13.3331   17.6750 C   0  0  0  0  0  0  0  0  0  0  0  0
   14.5512  -13.4250   18.5715 C   0  0  0  0  0  0  0  0  0  0  0  0
   14.3493  -13.7112   19.9058 C   0  0  0  0  0  0  0  0  0  0  0  0
   13.0689  -13.9131   20.3622 C   0  0  0  0  0  0  0  0  0  0  0  0
   12.0099  -13.8226   19.4620 C   0  0  0  0  0  0  0  0  0  0  0  0
    9.8671  -15.8685   22.8353 C   0  0  0  0  0  0  0  0  0  0  0  0
    9.3403  -14.9327   23.4985 O   0  0  0  0  0  0  0  0  0  0  0  0
    9.7834  -17.2033   23.2992 N   0  0  0  0  0  0  0  0  0  0  0  0
    9.2208  -17.4706   24.5907 C   0  0  1  0  0  0  0  0  0  0  0  0
    8.9221  -18.9576   24.7761 C   0  0  0  0  0  0  0  0  0  0  0  0
    8.3059  -19.2310   26.0963 C   0  0  0  0  0  0  0  0  0  0  0  0
    7.6531  -18.3378   26.9200 C   0  0  0  0  0  0  0  0  0  0  0  0
    7.2340  -18.9627   28.0306 N   0  0  0  0  0  0  0  0  0  0  0  0
    7.6048  -20.2477   27.9399 C   0  0  0  0  0  0  0  0  0  0  0  0
    8.2626  -20.4134   26.7534 N   0  0  0  0  0  0  0  0  0  0  0  0
   10.1284  -17.0348   25.6933 C   0  0  0  0  0  0  0  0  0  0  0  0
   11.3391  -17.3664   25.7029 O   0  0  0  0  0  0  0  0  0  0  0  0
    8.8181  -14.3530   29.1261 C   0  0  0  0  0  0  0  0  0  0  0  0
   10.1271  -14.4622   28.4149 C   0  0  2  0  0  0  0  0  0  0  0  0
   10.3139  -13.4315   27.3234 C   0  0  0  0  0  0  0  0  0  0  0  0
   10.4370  -15.8593   27.9223 C   0  0  2  0  0  0  0  0  0  0  0  0
    9.6519  -16.2319   26.7663 N   0  0  0  0  0  0  0  0  0  0  0  0
   10.1846  -16.8398   29.0077 C   0  0  0  0  0  0  0  0  0  0  0  0
    9.2770  -17.6918   28.9098 O   0  0  0  0  0  0  0  0  0  0  0  0
   10.9770  -16.8152   30.1690 O   0  0  0  0  0  0  0  0  0  0  0  0
  2  1  1  6
  3  2  1  0
  3  4  1  0
  4  5  2  0
  5  6  1  0
  7  6  1  0
  8  7  2  0
  9  8  1  0
 10 11  1  0
 10  9  2  0
 11 12  2  0
 12  4  1  0
 12  7  1  0
 13  2  1  0
 13 14  2  0
 15 13  1  0
 16 15  1  0
 16 17  1  1
 18 22  1  0
 18 17  1  0
 19 18  2  0
 20 19  1  0
 20 21  1  0
 21 22  2  0
 23 16  1  0
 24 23  2  0
 26 25  1  6
 27 26  1  0
 28 26  1  0
 28 29  1  6
 29 23  1  0
 30 28  1  0
 31 30  2  0
 32 30  1  0
M  END
$$$$
