WHV.pdb
     RDKit          3D

 32 34  0  0  1  0  0  0  0  0999 V2000
    6.4757  -17.0853   24.8394 N   0  0  0  0  0  0  0  0  0  0  0  0
    7.6907  -16.4076   24.5281 C   0  0  1  0  0  0  0  0  0  0  0  0
    7.7782  -15.1079   25.2330 C   0  0  0  0  0  0  0  0  0  0  0  0
    6.9172  -14.0443   24.6918 C   0  0  0  0  0  0  0  0  0  0  0  0
    5.8208  -13.4195   25.2001 C   0  0  0  0  0  0  0  0  0  0  0  0
    5.3887  -12.5225   24.3276 N   0  0  0  0  0  0  0  0  0  0  0  0
    6.1765  -12.5332   23.2398 C   0  0  0  0  0  0  0  0  0  0  0  0
    6.1447  -11.7990   22.0738 C   0  0  0  0  0  0  0  0  0  0  0  0
    7.1057  -12.0422   21.1260 C   0  0  0  0  0  0  0  0  0  0  0  0
    8.0936  -12.9891   21.3009 C   0  0  0  0  0  0  0  0  0  0  0  0
    8.1237  -13.7200   22.4643 C   0  0  0  0  0  0  0  0  0  0  0  0
    7.1534  -13.4829   23.4350 C   0  0  0  0  0  0  0  0  0  0  0  0
    8.8856  -17.2726   24.6805 C   0  0  0  0  0  0  0  0  0  0  0  0
    8.8623  -18.1278   25.6084 O   0  0  0  0  0  0  0  0  0  0  0  0
   10.0187  -17.1680   23.8383 N   0  0  0  0  0  0  0  0  0  0  0  0
   11.3140  -17.5129   24.3474 C   0  0  1  0  0  0  0  0  0  0  0  0
   12.3993  -17.3368   23.2863 C   0  0  0  0  0  0  0  0  0  0  0  0
   11.9843  -17.9026   21.9806 C   0  0  0  0  0  0  0  0  0  0  0  0
   11.6165  -19.2035   21.7073 C   0  0  0  0  0  0  0  0  0  0  0  0
   11.3074  -19.3276   20.4078 N   0  0  0  0  0  0  0  0  0  0  0  0
   11.4689  -18.1270   19.8339 C   0  0  0  0  0  0  0  0  0  0  0  0
   11.8843  -17.2518   20.7981 N   0  0  0  0  0  0  0  0  0  0  0  0
   11.6825  -16.6864   25.5351 C   0  0  0  0  0  0  0  0  0  0  0  0
   12.6353  -15.8706   25.4842 O   0  0  0  0  0  0  0  0  0  0  0  0
    8.9758  -15.5590   28.7338 C   0  0  0  0  0  0  0  0  0  0  0  0
   10.3142  -15.0234   28.3425 C   0  0  2  0  0  0  0  0  0  0  0  0
   10.2508  -13.9383   27.2903 C   0  0  0  0  0  0  0  0  0  0  0  0
   11.3160  -16.0973   27.9772 C   0  0  2  0  0  0  0  0  0  0  0  0
   10.9679  -16.7963   26.7599 N   0  0  0  0  0  0  0  0  0  0  0  0
   11.4175  -17.0833   29.0821 C   0  0  0  0  0  0  0  0  0  0  0  0
   11.8418  -16.7496   30.2081 O   0  0  0  0  0  0  0  0  0  0  0  0
   11.0310  -18.4176   28.8650 O   0  0  0  0  0  0  0  0  0  0  0  0
  2  1  1  1
  3  2  1  0
  3  4  1  0
  4  5  2  0
  5  6  1  0
  7  6  1  0
  8  7  2  0
  9  8  1  0
 10 11  1  0
 10  9  2  0
 11 12  2  0
 12  4  1  0
 12  7  1  0
 13  2  1  0
 13 14  2  0
 15 13  1  0
 16 15  1  0
 16 17  1  6
 18 22  1  0
 18 17  1  0
 19 18  2  0
 20 19  1  0
 20 21  1  0
 21 22  2  0
 23 16  1  0
 24 23  2  0
 26 25  1  6
 27 26  1  0
 28 26  1  0
 28 29  1  6
 29 23  1  0
 30 28  1  0
 31 30  2  0
 32 30  1  0
M  END
$$$$
