WHV.pdb
     RDKit          3D

 32 34  0  0  1  0  0  0  0  0999 V2000
    9.7229  -16.9637   26.1966 N   0  0  0  0  0  0  0  0  0  0  0  0
    9.1363  -16.1171   25.2109 C   0  0  1  0  0  0  0  0  0  0  0  0
    9.5876  -14.7151   25.3676 C   0  0  0  0  0  0  0  0  0  0  0  0
    9.1718  -14.0609   26.6185 C   0  0  0  0  0  0  0  0  0  0  0  0
    9.7997  -13.9137   27.8163 C   0  0  0  0  0  0  0  0  0  0  0  0
    9.0101  -13.2439   28.6411 N   0  0  0  0  0  0  0  0  0  0  0  0
    7.8603  -12.9376   28.0181 C   0  0  0  0  0  0  0  0  0  0  0  0
    6.7370  -12.2601   28.4409 C   0  0  0  0  0  0  0  0  0  0  0  0
    5.7010  -12.1029   27.5560 C   0  0  0  0  0  0  0  0  0  0  0  0
    5.7471  -12.5965   26.2687 C   0  0  0  0  0  0  0  0  0  0  0  0
    6.8681  -13.2716   25.8489 C   0  0  0  0  0  0  0  0  0  0  0  0
    7.9274  -13.4382   26.7377 C   0  0  0  0  0  0  0  0  0  0  0  0
    9.2709  -16.6575   23.8365 C   0  0  0  0  0  0  0  0  0  0  0  0
   10.2871  -16.3045   23.1764 O   0  0  0  0  0  0  0  0  0  0  0  0
    8.3182  -17.5325   23.2613 N   0  0  0  0  0  0  0  0  0  0  0  0
    8.3682  -17.8090   21.8553 C   0  0  1  0  0  0  0  0  0  0  0  0
    7.5569  -19.0538   21.4987 C   0  0  0  0  0  0  0  0  0  0  0  0
    7.6936  -19.4031   20.0646 C   0  0  0  0  0  0  0  0  0  0  0  0
    8.3525  -18.6898   19.0851 C   0  0  0  0  0  0  0  0  0  0  0  0
    8.2549  -19.3296   17.9101 N   0  0  0  0  0  0  0  0  0  0  0  0
    7.5429  -20.4472   18.1123 C   0  0  0  0  0  0  0  0  0  0  0  0
    7.1980  -20.4933   19.4341 N   0  0  0  0  0  0  0  0  0  0  0  0
    7.8513  -16.6659   21.0455 C   0  0  0  0  0  0  0  0  0  0  0  0
    6.9079  -15.9515   21.4644 O   0  0  0  0  0  0  0  0  0  0  0  0
    7.7130  -12.7102   18.9509 C   0  0  0  0  0  0  0  0  0  0  0  0
    8.2532  -13.8919   19.6878 C   0  0  2  0  0  0  0  0  0  0  0  0
    9.6933  -13.7312   20.1223 C   0  0  0  0  0  0  0  0  0  0  0  0
    8.0290  -15.2079   18.9747 C   0  0  2  0  0  0  0  0  0  0  0  0
    8.4095  -16.3502   19.7759 N   0  0  0  0  0  0  0  0  0  0  0  0
    8.8064  -15.2305   17.7105 C   0  0  0  0  0  0  0  0  0  0  0  0
    9.8753  -15.8698   17.6213 O   0  0  0  0  0  0  0  0  0  0  0  0
    8.3374  -14.5227   16.5897 O   0  0  0  0  0  0  0  0  0  0  0  0
  2  1  1  1
  3  2  1  0
  3  4  1  0
  4  5  2  0
  5  6  1  0
  7  6  1  0
  8  7  2  0
  9  8  1  0
 10 11  1  0
 10  9  2  0
 11 12  2  0
 12  4  1  0
 12  7  1  0
 13  2  1  0
 13 14  2  0
 15 13  1  0
 16 15  1  0
 16 17  1  1
 18 22  1  0
 18 17  1  0
 19 18  2  0
 20 19  1  0
 20 21  1  0
 21 22  2  0
 23 16  1  0
 24 23  2  0
 26 25  1  6
 27 26  1  0
 28 26  1  0
 28 29  1  1
 29 23  1  0
 30 28  1  0
 31 30  2  0
 32 30  1  0
M  END
$$$$
