WHV.pdb
     RDKit          3D

 32 34  0  0  1  0  0  0  0  0999 V2000
    5.7163  -17.4817   24.1578 N   0  0  0  0  0  0  0  0  0  0  0  0
    6.6450  -16.4006   24.1932 C   0  0  1  0  0  0  0  0  0  0  0  0
    6.7996  -15.8683   25.5667 C   0  0  0  0  0  0  0  0  0  0  0  0
    5.8160  -14.8447   25.9546 C   0  0  0  0  0  0  0  0  0  0  0  0
    4.5916  -14.9402   26.5397 C   0  0  0  0  0  0  0  0  0  0  0  0
    4.0844  -13.7263   26.6862 N   0  0  0  0  0  0  0  0  0  0  0  0
    4.9476  -12.8145   26.2091 C   0  0  0  0  0  0  0  0  0  0  0  0
    4.8851  -11.4397   26.1333 C   0  0  0  0  0  0  0  0  0  0  0  0
    5.9469  -10.7701   25.5809 C   0  0  0  0  0  0  0  0  0  0  0  0
    7.0647  -11.4224   25.1033 C   0  0  0  0  0  0  0  0  0  0  0  0
    7.1252  -12.7933   25.1799 C   0  0  0  0  0  0  0  0  0  0  0  0
    6.0535  -13.4855   25.7386 C   0  0  0  0  0  0  0  0  0  0  0  0
    7.9215  -16.7178   23.5083 C   0  0  0  0  0  0  0  0  0  0  0  0
    8.2160  -17.9380   23.3765 O   0  0  0  0  0  0  0  0  0  0  0  0
    8.7935  -15.7185   23.0132 N   0  0  0  0  0  0  0  0  0  0  0  0
   10.1135  -16.0788   22.5850 C   0  0  1  0  0  0  0  0  0  0  0  0
   10.6792  -15.0627   21.5939 C   0  0  0  0  0  0  0  0  0  0  0  0
    9.7139  -14.7599   20.5105 C   0  0  0  0  0  0  0  0  0  0  0  0
    8.9589  -13.6164   20.3531 C   0  0  0  0  0  0  0  0  0  0  0  0
    8.2037  -13.7159   19.2489 N   0  0  0  0  0  0  0  0  0  0  0  0
    8.4572  -14.9064   18.6875 C   0  0  0  0  0  0  0  0  0  0  0  0
    9.3838  -15.5479   19.4608 N   0  0  0  0  0  0  0  0  0  0  0  0
   11.0602  -16.1880   23.7346 C   0  0  0  0  0  0  0  0  0  0  0  0
   12.3018  -16.2061   23.5498 O   0  0  0  0  0  0  0  0  0  0  0  0
   10.5450  -14.0137   26.9770 C   0  0  0  0  0  0  0  0  0  0  0  0
   10.8567  -15.4208   27.3695 C   0  0  2  0  0  0  0  0  0  0  0  0
   11.6878  -15.5309   28.6288 C   0  0  0  0  0  0  0  0  0  0  0  0
   11.4349  -16.2521   26.2447 C   0  0  2  0  0  0  0  0  0  0  0  0
   10.5873  -16.2749   25.0731 N   0  0  0  0  0  0  0  0  0  0  0  0
   11.6449  -17.6459   26.7099 C   0  0  0  0  0  0  0  0  0  0  0  0
   11.0029  -18.5955   26.2146 O   0  0  0  0  0  0  0  0  0  0  0  0
   12.5814  -17.9095   27.7252 O   0  0  0  0  0  0  0  0  0  0  0  0
  2  1  1  1
  3  2  1  0
  3  4  1  0
  4  5  2  0
  5  6  1  0
  7  6  1  0
  8  7  2  0
  9  8  1  0
 10 11  1  0
 10  9  2  0
 11 12  2  0
 12  4  1  0
 12  7  1  0
 13  2  1  0
 13 14  2  0
 15 13  1  0
 16 15  1  0
 16 17  1  6
 18 22  1  0
 18 17  1  0
 19 18  2  0
 20 19  1  0
 20 21  1  0
 21 22  2  0
 23 16  1  0
 24 23  2  0
 26 25  1  6
 27 26  1  0
 28 26  1  0
 28 29  1  6
 29 23  1  0
 30 28  1  0
 31 30  2  0
 32 30  1  0
M  END
$$$$
