WHV.pdb
     RDKit          3D

 32 34  0  0  1  0  0  0  0  0999 V2000
    6.2103  -18.1162   25.3764 N   0  0  0  0  0  0  0  0  0  0  0  0
    7.0485  -16.9989   25.0913 C   0  0  1  0  0  0  0  0  0  0  0  0
    7.1663  -16.1010   26.2634 C   0  0  0  0  0  0  0  0  0  0  0  0
    6.2457  -14.9529   26.2660 C   0  0  0  0  0  0  0  0  0  0  0  0
    4.8875  -14.8805   26.2893 C   0  0  0  0  0  0  0  0  0  0  0  0
    4.5201  -13.6088   26.2786 N   0  0  0  0  0  0  0  0  0  0  0  0
    5.6093  -12.8233   26.2484 C   0  0  0  0  0  0  0  0  0  0  0  0
    5.7549  -11.4529   26.2271 C   0  0  0  0  0  0  0  0  0  0  0  0
    7.0243  -10.9344   26.1972 C   0  0  0  0  0  0  0  0  0  0  0  0
    8.1490  -11.7330   26.1879 C   0  0  0  0  0  0  0  0  0  0  0  0
    8.0017  -13.0993   26.2094 C   0  0  0  0  0  0  0  0  0  0  0  0
    6.7180  -13.6388   26.2398 C   0  0  0  0  0  0  0  0  0  0  0  0
    8.3431  -17.3927   24.4845 C   0  0  0  0  0  0  0  0  0  0  0  0
    8.8569  -18.4763   24.8778 O   0  0  0  0  0  0  0  0  0  0  0  0
    8.9994  -16.6089   23.5052 N   0  0  0  0  0  0  0  0  0  0  0  0
   10.4084  -16.7712   23.2953 C   0  0  1  0  0  0  0  0  0  0  0  0
   10.8638  -16.1022   21.9992 C   0  0  0  0  0  0  0  0  0  0  0  0
   12.2299  -16.5296   21.6140 C   0  0  0  0  0  0  0  0  0  0  0  0
   13.0507  -17.4179   22.2770 C   0  0  0  0  0  0  0  0  0  0  0  0
   14.2116  -17.5470   21.6174 N   0  0  0  0  0  0  0  0  0  0  0  0
   14.1566  -16.7560   20.5366 C   0  0  0  0  0  0  0  0  0  0  0  0
   12.9409  -16.1312   20.5335 N   0  0  0  0  0  0  0  0  0  0  0  0
   11.2072  -16.2020   24.4212 C   0  0  0  0  0  0  0  0  0  0  0  0
   11.9649  -15.2171   24.2428 O   0  0  0  0  0  0  0  0  0  0  0  0
    9.6353  -15.7400   28.1563 C   0  0  0  0  0  0  0  0  0  0  0  0
   10.8961  -15.1661   27.5975 C   0  0  2  0  0  0  0  0  0  0  0  0
   10.6783  -13.9362   26.7439 C   0  0  0  0  0  0  0  0  0  0  0  0
   11.7696  -16.1841   26.8968 C   0  0  2  0  0  0  0  0  0  0  0  0
   11.1360  -16.7559   25.7293 N   0  0  0  0  0  0  0  0  0  0  0  0
   12.1147  -17.2790   27.8378 C   0  0  0  0  0  0  0  0  0  0  0  0
   12.7154  -17.0457   28.9073 O   0  0  0  0  0  0  0  0  0  0  0  0
   11.7623  -18.6042   27.5265 O   0  0  0  0  0  0  0  0  0  0  0  0
  2  1  1  1
  3  2  1  0
  3  4  1  0
  4  5  2  0
  5  6  1  0
  7  6  1  0
  8  7  2  0
  9  8  1  0
 10 11  1  0
 10  9  2  0
 11 12  2  0
 12  4  1  0
 12  7  1  0
 13  2  1  0
 13 14  2  0
 15 13  1  0
 16 15  1  0
 16 17  1  6
 18 22  1  0
 18 17  1  0
 19 18  2  0
 20 19  1  0
 20 21  1  0
 21 22  2  0
 23 16  1  0
 24 23  2  0
 26 25  1  6
 27 26  1  0
 28 26  1  0
 28 29  1  6
 29 23  1  0
 30 28  1  0
 31 30  2  0
 32 30  1  0
M  END
$$$$
