WHV.pdb
     RDKit          3D

 32 34  0  0  1  0  0  0  0  0999 V2000
    6.3293  -17.9730   24.7473 N   0  0  0  0  0  0  0  0  0  0  0  0
    7.2335  -16.8723   24.6895 C   0  0  1  0  0  0  0  0  0  0  0  0
    7.2945  -16.1569   25.9850 C   0  0  0  0  0  0  0  0  0  0  0  0
    6.3096  -15.0758   26.1488 C   0  0  0  0  0  0  0  0  0  0  0  0
    4.9922  -15.0937   26.4874 C   0  0  0  0  0  0  0  0  0  0  0  0
    4.5307  -13.8531   26.5022 N   0  0  0  0  0  0  0  0  0  0  0  0
    5.5162  -12.9997   26.1788 C   0  0  0  0  0  0  0  0  0  0  0  0
    5.5417  -11.6270   26.0579 C   0  0  0  0  0  0  0  0  0  0  0  0
    6.7236  -11.0272   25.7053 C   0  0  0  0  0  0  0  0  0  0  0  0
    7.8766  -11.7471   25.4702 C   0  0  0  0  0  0  0  0  0  0  0  0
    7.8493  -13.1158   25.5915 C   0  0  0  0  0  0  0  0  0  0  0  0
    6.6553  -13.7375   25.9489 C   0  0  0  0  0  0  0  0  0  0  0  0
    8.5550  -17.2439   24.1283 C   0  0  0  0  0  0  0  0  0  0  0  0
    9.0052  -18.3853   24.4240 O   0  0  0  0  0  0  0  0  0  0  0  0
    9.3034  -16.3784   23.2948 N   0  0  0  0  0  0  0  0  0  0  0  0
   10.6874  -16.6573   23.0446 C   0  0  1  0  0  0  0  0  0  0  0  0
   11.2473  -15.7690   21.9345 C   0  0  0  0  0  0  0  0  0  0  0  0
   12.6080  -16.1942   21.5282 C   0  0  0  0  0  0  0  0  0  0  0  0
   13.1398  -17.4659   21.5743 C   0  0  0  0  0  0  0  0  0  0  0  0
   14.4022  -17.4501   21.1209 N   0  0  0  0  0  0  0  0  0  0  0  0
   14.6975  -16.1874   20.7811 C   0  0  0  0  0  0  0  0  0  0  0  0
   13.5972  -15.4159   21.0305 N   0  0  0  0  0  0  0  0  0  0  0  0
   11.5233  -16.4620   24.2664 C   0  0  0  0  0  0  0  0  0  0  0  0
   12.7505  -16.7260   24.2587 O   0  0  0  0  0  0  0  0  0  0  0  0
    9.7743  -15.3007   28.2694 C   0  0  0  0  0  0  0  0  0  0  0  0
   11.0373  -14.8044   27.6452 C   0  0  2  0  0  0  0  0  0  0  0  0
   10.9020  -13.4433   26.9988 C   0  0  0  0  0  0  0  0  0  0  0  0
   11.6881  -15.8030   26.7126 C   0  0  2  0  0  0  0  0  0  0  0  0
   10.9577  -15.9719   25.4758 N   0  0  0  0  0  0  0  0  0  0  0  0
   11.7964  -17.1206   27.3874 C   0  0  0  0  0  0  0  0  0  0  0  0
   12.4349  -17.2497   28.4527 O   0  0  0  0  0  0  0  0  0  0  0  0
   11.1718  -18.2472   26.8238 O   0  0  0  0  0  0  0  0  0  0  0  0
  2  1  1  1
  3  2  1  0
  3  4  1  0
  4  5  2  0
  5  6  1  0
  7  6  1  0
  8  7  2  0
  9  8  1  0
 10 11  1  0
 10  9  2  0
 11 12  2  0
 12  4  1  0
 12  7  1  0
 13  2  1  0
 13 14  2  0
 15 13  1  0
 16 15  1  0
 16 17  1  6
 18 22  1  0
 18 17  1  0
 19 18  2  0
 20 19  1  0
 20 21  1  0
 21 22  2  0
 23 16  1  0
 24 23  2  0
 26 25  1  6
 27 26  1  0
 28 26  1  0
 28 29  1  6
 29 23  1  0
 30 28  1  0
 31 30  2  0
 32 30  1  0
M  END
$$$$
