WHV.pdb
     RDKit          3D

 32 34  0  0  1  0  0  0  0  0999 V2000
    6.8077  -17.2129   23.9743 N   0  0  0  0  0  0  0  0  0  0  0  0
    7.9946  -16.4293   24.0733 C   0  0  1  0  0  0  0  0  0  0  0  0
    8.0536  -15.7018   25.3621 C   0  0  0  0  0  0  0  0  0  0  0  0
    6.9188  -14.8023   25.6244 C   0  0  0  0  0  0  0  0  0  0  0  0
    5.6346  -15.0492   25.9989 C   0  0  0  0  0  0  0  0  0  0  0  0
    4.9855  -13.9006   26.1080 N   0  0  0  0  0  0  0  0  0  0  0  0
    5.8121  -12.8839   25.8127 C   0  0  0  0  0  0  0  0  0  0  0  0
    5.6177  -11.5198   25.7809 C   0  0  0  0  0  0  0  0  0  0  0  0
    6.6767  -10.7201   25.4344 C   0  0  0  0  0  0  0  0  0  0  0  0
    7.9182  -11.2326   25.1197 C   0  0  0  0  0  0  0  0  0  0  0  0
    8.1100  -12.5930   25.1521 C   0  0  0  0  0  0  0  0  0  0  0  0
    7.0427  -13.4165   25.5025 C   0  0  0  0  0  0  0  0  0  0  0  0
    9.2191  -17.1981   23.7434 C   0  0  0  0  0  0  0  0  0  0  0  0
    9.1975  -18.4395   23.9699 O   0  0  0  0  0  0  0  0  0  0  0  0
   10.3778  -16.5950   23.1978 N   0  0  0  0  0  0  0  0  0  0  0  0
   11.6736  -17.0277   23.6331 C   0  0  1  0  0  0  0  0  0  0  0  0
   12.7695  -16.5770   22.6684 C   0  0  0  0  0  0  0  0  0  0  0  0
   12.4049  -16.8546   21.2587 C   0  0  0  0  0  0  0  0  0  0  0  0
   12.3735  -18.0789   20.6243 C   0  0  0  0  0  0  0  0  0  0  0  0
   11.9936  -17.9223   19.3473 N   0  0  0  0  0  0  0  0  0  0  0  0
   11.7778  -16.6150   19.1436 C   0  0  0  0  0  0  0  0  0  0  0  0
   12.0299  -15.9589   20.3158 N   0  0  0  0  0  0  0  0  0  0  0  0
   12.0051  -16.5081   24.9932 C   0  0  0  0  0  0  0  0  0  0  0  0
   12.8739  -15.6156   25.1500 O   0  0  0  0  0  0  0  0  0  0  0  0
    9.2581  -16.0690   28.2065 C   0  0  0  0  0  0  0  0  0  0  0  0
   10.6350  -15.5305   27.9932 C   0  0  2  0  0  0  0  0  0  0  0  0
   10.6733  -14.2773   27.1467 C   0  0  0  0  0  0  0  0  0  0  0  0
   11.6237  -16.5660   27.5025 C   0  0  2  0  0  0  0  0  0  0  0  0
   11.3490  -17.0063   26.1526 N   0  0  0  0  0  0  0  0  0  0  0  0
   11.6016  -17.7452   28.4038 C   0  0  0  0  0  0  0  0  0  0  0  0
   11.1908  -18.8549   28.0050 O   0  0  0  0  0  0  0  0  0  0  0  0
   12.0495  -17.6184   29.7306 O   0  0  0  0  0  0  0  0  0  0  0  0
  2  1  1  1
  3  2  1  0
  3  4  1  0
  4  5  2  0
  5  6  1  0
  7  6  1  0
  8  7  2  0
  9  8  1  0
 10 11  1  0
 10  9  2  0
 11 12  2  0
 12  4  1  0
 12  7  1  0
 13  2  1  0
 13 14  2  0
 15 13  1  0
 16 15  1  0
 16 17  1  6
 18 22  1  0
 18 17  1  0
 19 18  2  0
 20 19  1  0
 20 21  1  0
 21 22  2  0
 23 16  1  0
 24 23  2  0
 26 25  1  6
 27 26  1  0
 28 26  1  0
 28 29  1  6
 29 23  1  0
 30 28  1  0
 31 30  2  0
 32 30  1  0
M  END
$$$$
