WHV.pdb
     RDKit          3D

 32 34  0  0  1  0  0  0  0  0999 V2000
    6.4575  -17.6321   23.9921 N   0  0  0  0  0  0  0  0  0  0  0  0
    7.5127  -16.7052   24.2364 C   0  0  1  0  0  0  0  0  0  0  0  0
    7.4224  -16.1334   25.5997 C   0  0  0  0  0  0  0  0  0  0  0  0
    6.4169  -15.0720   25.7668 C   0  0  0  0  0  0  0  0  0  0  0  0
    5.0951  -15.1179   26.0849 C   0  0  0  0  0  0  0  0  0  0  0  0
    4.6123  -13.8857   26.1138 N   0  0  0  0  0  0  0  0  0  0  0  0
    5.5878  -13.0104   25.8201 C   0  0  0  0  0  0  0  0  0  0  0  0
    5.5915  -11.6355   25.7228 C   0  0  0  0  0  0  0  0  0  0  0  0
    6.7682  -11.0099   25.3986 C   0  0  0  0  0  0  0  0  0  0  0  0
    7.9367  -11.7061   25.1689 C   0  0  0  0  0  0  0  0  0  0  0  0
    7.9310  -13.0769   25.2664 C   0  0  0  0  0  0  0  0  0  0  0  0
    6.7425  -13.7247   25.5950 C   0  0  0  0  0  0  0  0  0  0  0  0
    8.8468  -17.2482   23.8833 C   0  0  0  0  0  0  0  0  0  0  0  0
    8.9777  -18.5035   23.8921 O   0  0  0  0  0  0  0  0  0  0  0  0
    9.9454  -16.4211   23.5470 N   0  0  0  0  0  0  0  0  0  0  0  0
   11.2730  -16.9622   23.5707 C   0  0  1  0  0  0  0  0  0  0  0  0
   12.1713  -16.2912   22.5326 C   0  0  0  0  0  0  0  0  0  0  0  0
   11.6671  -16.5027   21.1548 C   0  0  0  0  0  0  0  0  0  0  0  0
   10.8162  -15.6884   20.4372 C   0  0  0  0  0  0  0  0  0  0  0  0
   10.5913  -16.2174   19.2252 N   0  0  0  0  0  0  0  0  0  0  0  0
   11.2835  -17.3626   19.1454 C   0  0  0  0  0  0  0  0  0  0  0  0
   11.9440  -17.5387   20.3290 N   0  0  0  0  0  0  0  0  0  0  0  0
   11.9119  -16.8085   24.9115 C   0  0  0  0  0  0  0  0  0  0  0  0
   13.1583  -16.8760   25.0450 O   0  0  0  0  0  0  0  0  0  0  0  0
    9.5489  -15.5120   28.4577 C   0  0  0  0  0  0  0  0  0  0  0  0
   10.9724  -15.2104   28.1206 C   0  0  2  0  0  0  0  0  0  0  0  0
   11.1626  -13.8859   27.4147 C   0  0  0  0  0  0  0  0  0  0  0  0
   11.6773  -16.3359   27.3948 C   0  0  2  0  0  0  0  0  0  0  0  0
   11.1311  -16.5813   26.0784 N   0  0  0  0  0  0  0  0  0  0  0  0
   11.5801  -17.5838   28.1928 C   0  0  0  0  0  0  0  0  0  0  0  0
   10.9740  -18.5841   27.7555 O   0  0  0  0  0  0  0  0  0  0  0  0
   12.1784  -17.6482   29.4636 O   0  0  0  0  0  0  0  0  0  0  0  0
  2  1  1  1
  3  2  1  0
  3  4  1  0
  4  5  2  0
  5  6  1  0
  7  6  1  0
  8  7  2  0
  9  8  1  0
 10 11  1  0
 10  9  2  0
 11 12  2  0
 12  4  1  0
 12  7  1  0
 13  2  1  0
 13 14  2  0
 15 13  1  0
 16 15  1  0
 16 17  1  6
 18 22  1  0
 18 17  1  0
 19 18  2  0
 20 19  1  0
 20 21  1  0
 21 22  2  0
 23 16  1  0
 24 23  2  0
 26 25  1  6
 27 26  1  0
 28 26  1  0
 28 29  1  6
 29 23  1  0
 30 28  1  0
 31 30  2  0
 32 30  1  0
M  END
$$$$
