WHV.pdb
     RDKit          3D

 32 34  0  0  1  0  0  0  0  0999 V2000
    7.4667  -18.7541   20.7468 N   0  0  0  0  0  0  0  0  0  0  0  0
    7.7402  -17.4639   21.2879 C   0  0  1  0  0  0  0  0  0  0  0  0
    6.6577  -16.5050   20.9678 C   0  0  0  0  0  0  0  0  0  0  0  0
    7.0644  -15.3557   20.1437 C   0  0  0  0  0  0  0  0  0  0  0  0
    7.2823  -15.2312   18.8067 C   0  0  0  0  0  0  0  0  0  0  0  0
    7.6383  -13.9846   18.5389 N   0  0  0  0  0  0  0  0  0  0  0  0
    7.6637  -13.2674   19.6743 C   0  0  0  0  0  0  0  0  0  0  0  0
    7.9674  -11.9458   19.9210 C   0  0  0  0  0  0  0  0  0  0  0  0
    7.9030  -11.4944   21.2144 C   0  0  0  0  0  0  0  0  0  0  0  0
    7.5473  -12.3130   22.2663 C   0  0  0  0  0  0  0  0  0  0  0  0
    7.2447  -13.6304   22.0183 C   0  0  0  0  0  0  0  0  0  0  0  0
    7.3063  -14.1017   20.7090 C   0  0  0  0  0  0  0  0  0  0  0  0
    8.1174  -17.5109   22.7214 C   0  0  0  0  0  0  0  0  0  0  0  0
    7.1833  -17.6561   23.5576 O   0  0  0  0  0  0  0  0  0  0  0  0
    9.4574  -17.4002   23.1644 N   0  0  0  0  0  0  0  0  0  0  0  0
    9.7501  -17.4892   24.5652 C   0  0  1  0  0  0  0  0  0  0  0  0
   11.0043  -18.3225   24.8248 C   0  0  0  0  0  0  0  0  0  0  0  0
   11.2176  -18.5525   26.2736 C   0  0  0  0  0  0  0  0  0  0  0  0
   10.2562  -18.7131   27.2494 C   0  0  0  0  0  0  0  0  0  0  0  0
   10.8419  -18.9007   28.4415 N   0  0  0  0  0  0  0  0  0  0  0  0
   12.1688  -18.8645   28.2540 C   0  0  0  0  0  0  0  0  0  0  0  0
   12.4004  -18.6510   26.9240 N   0  0  0  0  0  0  0  0  0  0  0  0
    9.9484  -16.1421   25.1782 C   0  0  0  0  0  0  0  0  0  0  0  0
   10.6704  -15.2789   24.6220 O   0  0  0  0  0  0  0  0  0  0  0  0
    7.1920  -14.2177   27.8510 C   0  0  0  0  0  0  0  0  0  0  0  0
    8.3847  -13.6434   27.1590 C   0  0  2  0  0  0  0  0  0  0  0  0
    8.0823  -13.0917   25.7832 C   0  0  0  0  0  0  0  0  0  0  0  0
    9.5807  -14.5707   27.1379 C   0  0  2  0  0  0  0  0  0  0  0  0
    9.3273  -15.7941   26.4095 N   0  0  0  0  0  0  0  0  0  0  0  0
    9.9715  -14.9143   28.5280 C   0  0  0  0  0  0  0  0  0  0  0  0
    9.8673  -16.0820   28.9580 O   0  0  0  0  0  0  0  0  0  0  0  0
   10.4688  -13.9134   29.3812 O   0  0  0  0  0  0  0  0  0  0  0  0
  2  1  1  1
  3  2  1  0
  3  4  1  0
  4  5  2  0
  5  6  1  0
  7  6  1  0
  8  7  2  0
  9  8  1  0
 10 11  1  0
 10  9  2  0
 11 12  2  0
 12  4  1  0
 12  7  1  0
 13  2  1  0
 13 14  2  0
 15 13  1  0
 16 15  1  0
 16 17  1  6
 18 22  1  0
 18 17  1  0
 19 18  2  0
 20 19  1  0
 20 21  1  0
 21 22  2  0
 23 16  1  0
 24 23  2  0
 26 25  1  6
 27 26  1  0
 28 26  1  0
 28 29  1  6
 29 23  1  0
 30 28  1  0
 31 30  2  0
 32 30  1  0
M  END
$$$$
