WHV.pdb
     RDKit          3D

 32 34  0  0  1  0  0  0  0  0999 V2000
    6.1973  -17.4070   25.0981 N   0  0  0  0  0  0  0  0  0  0  0  0
    7.2696  -16.5507   24.7116 C   0  0  1  0  0  0  0  0  0  0  0  0
    7.2633  -15.2932   25.4941 C   0  0  0  0  0  0  0  0  0  0  0  0
    6.6261  -14.1460   24.8282 C   0  0  0  0  0  0  0  0  0  0  0  0
    5.6186  -13.3182   25.2159 C   0  0  0  0  0  0  0  0  0  0  0  0
    5.3968  -12.4277   24.2618 N   0  0  0  0  0  0  0  0  0  0  0  0
    6.2388  -12.6425   23.2376 C   0  0  0  0  0  0  0  0  0  0  0  0
    6.4024  -11.9977   22.0305 C   0  0  0  0  0  0  0  0  0  0  0  0
    7.3676  -12.4593   21.1725 C   0  0  0  0  0  0  0  0  0  0  0  0
    8.1720  -13.5381   21.4761 C   0  0  0  0  0  0  0  0  0  0  0  0
    8.0074  -14.1797   22.6802 C   0  0  0  0  0  0  0  0  0  0  0  0
    7.0307  -13.7208   23.5609 C   0  0  0  0  0  0  0  0  0  0  0  0
    8.5777  -17.2486   24.6776 C   0  0  0  0  0  0  0  0  0  0  0  0
    8.6768  -18.3176   25.3412 O   0  0  0  0  0  0  0  0  0  0  0  0
    9.6858  -16.7623   23.9430 N   0  0  0  0  0  0  0  0  0  0  0  0
   10.9610  -17.4041   24.0765 C   0  0  1  0  0  0  0  0  0  0  0  0
   11.8962  -17.0398   22.9243 C   0  0  0  0  0  0  0  0  0  0  0  0
   13.1977  -17.7408   23.0341 C   0  0  0  0  0  0  0  0  0  0  0  0
   14.3936  -17.2260   23.4891 C   0  0  0  0  0  0  0  0  0  0  0  0
   15.3460  -18.1693   23.4383 N   0  0  0  0  0  0  0  0  0  0  0  0
   14.7862  -19.2884   22.9574 C   0  0  0  0  0  0  0  0  0  0  0  0
   13.4679  -19.0266   22.7090 N   0  0  0  0  0  0  0  0  0  0  0  0
   11.6347  -17.0404   25.3585 C   0  0  0  0  0  0  0  0  0  0  0  0
   12.8028  -17.4271   25.6071 O   0  0  0  0  0  0  0  0  0  0  0  0
    9.4788  -15.3812   28.9934 C   0  0  0  0  0  0  0  0  0  0  0  0
   10.7276  -14.8603   28.3607 C   0  0  2  0  0  0  0  0  0  0  0  0
   10.5077  -13.6368   27.4986 C   0  0  0  0  0  0  0  0  0  0  0  0
   11.5283  -15.9189   27.6337 C   0  0  2  0  0  0  0  0  0  0  0  0
   10.9764  -16.2459   26.3375 N   0  0  0  0  0  0  0  0  0  0  0  0
   11.5854  -17.1543   28.4544 C   0  0  0  0  0  0  0  0  0  0  0  0
   11.0481  -18.2126   28.0663 O   0  0  0  0  0  0  0  0  0  0  0  0
   12.2545  -17.1407   29.6911 O   0  0  0  0  0  0  0  0  0  0  0  0
  2  1  1  1
  3  2  1  0
  3  4  1  0
  4  5  2  0
  5  6  1  0
  7  6  1  0
  8  7  2  0
  9  8  1  0
 10 11  1  0
 10  9  2  0
 11 12  2  0
 12  4  1  0
 12  7  1  0
 13  2  1  0
 13 14  2  0
 15 13  1  0
 16 15  1  0
 16 17  1  6
 18 22  1  0
 18 17  1  0
 19 18  2  0
 20 19  1  0
 20 21  1  0
 21 22  2  0
 23 16  1  0
 24 23  2  0
 26 25  1  6
 27 26  1  0
 28 26  1  0
 28 29  1  6
 29 23  1  0
 30 28  1  0
 31 30  2  0
 32 30  1  0
M  END
$$$$
