YLV.pdb
     RDKit          3D

 28 28  0  0  1  0  0  0  0  0999 V2000
   13.0085  -22.4269    6.6593 O   0  0  0  0  0  0  0  0  0  0  0  0
   14.0930  -21.5583    6.7526 C   0  0  0  0  0  0  0  0  0  0  0  0
   13.8812  -20.2446    7.0862 C   0  0  0  0  0  0  0  0  0  0  0  0
   14.9566  -19.3928    7.1764 C   0  0  0  0  0  0  0  0  0  0  0  0
   16.2374  -19.8620    6.9319 C   0  0  0  0  0  0  0  0  0  0  0  0
   17.3914  -18.9364    7.0314 C   0  0  0  0  0  0  0  0  0  0  0  0
   17.3785  -17.9242    5.9006 C   0  0  2  0  0  0  0  0  0  0  0  0
   17.6483  -18.6231    4.6606 N   0  0  0  0  0  0  0  0  0  0  0  0
   18.4663  -16.9269    6.1903 C   0  0  0  0  0  0  0  0  0  0  0  0
   19.6536  -17.1905    5.9017 O   0  0  0  0  0  0  0  0  0  0  0  0
   16.4439  -21.1756    6.5988 C   0  0  0  0  0  0  0  0  0  0  0  0
   15.3655  -22.0366    6.5068 C   0  0  0  0  0  0  0  0  0  0  0  0
   19.4263  -12.6948    4.7739 C   0  0  0  0  0  0  0  0  0  0  0  0
   18.1481  -12.9146    5.5738 C   0  0  2  0  0  0  0  0  0  0  0  0
   17.4140  -11.5973    5.6067 C   0  0  0  0  0  0  0  0  0  0  0  0
   18.5602  -13.3241    6.9602 C   0  0  0  0  0  0  0  0  0  0  0  0
   19.2152  -14.6762    7.0161 C   0  0  2  0  0  0  0  0  0  0  0  0
   18.1681  -15.6837    6.7893 N   0  0  0  0  0  0  0  0  0  0  0  0
   19.8405  -14.9738    8.3147 C   0  0  0  0  0  0  0  0  0  0  0  0
   19.1886  -15.3510    9.3219 O   0  0  0  0  0  0  0  0  0  0  0  0
   22.3491  -17.4910    9.2169 C   0  0  0  0  0  0  0  0  0  0  0  0
   22.9725  -16.1903    9.6661 C   0  0  1  0  0  0  0  0  0  0  0  0
   24.1043  -15.7633    8.7849 C   0  0  0  0  0  0  0  0  0  0  0  0
   21.8894  -15.1414    9.7777 C   0  0  2  0  0  0  0  0  0  0  0  0
   21.2632  -14.8509    8.5225 N   0  0  0  0  0  0  0  0  0  0  0  0
   22.3998  -13.9281   10.4603 C   0  0  0  0  0  0  0  0  0  0  0  0
   22.5039  -12.6776    9.8745 O   0  0  0  0  0  0  0  0  0  0  0  0
   22.7636  -14.0434   11.6559 O   0  0  0  0  0  0  0  0  0  0  0  0
  2  1  1  0
  3  2  2  0
  4  3  1  0
  5  4  2  0
  5 11  1  0
  6  5  1  0
  7  9  1  0
  7  6  1  0
  7  8  1  6
  9 18  1  0
 10  9  2  0
 11 12  2  0
 12  2  1  0
 14 13  1  6
 14 15  1  0
 17 16  1  1
 16 14  1  0
 18 17  1  0
 19 17  1  0
 19 20  2  0
 22 21  1  6
 22 24  1  0
 23 22  1  0
 24 25  1  6
 24 26  1  0
 25 19  1  0
 26 27  1  0
 28 26  2  0
M  END
$$$$
