YLV.pdb
     RDKit          3D

 28 28  0  0  1  0  0  0  0  0999 V2000
   18.4611  -14.8993  -23.3401 O   0  0  0  0  0  0  0  0  0  0  0  0
   18.6475  -14.0193  -22.2769 C   0  0  0  0  0  0  0  0  0  0  0  0
   19.8900  -13.4832  -22.0519 C   0  0  0  0  0  0  0  0  0  0  0  0
   20.0666  -12.6152  -21.0005 C   0  0  0  0  0  0  0  0  0  0  0  0
   18.9977  -12.2894  -20.1810 C   0  0  0  0  0  0  0  0  0  0  0  0
   19.1972  -11.3524  -19.0494 C   0  0  0  0  0  0  0  0  0  0  0  0
   19.8875  -12.0404  -17.8860 C   0  0  2  0  0  0  0  0  0  0  0  0
   18.9785  -13.0243  -17.3343 N   0  0  0  0  0  0  0  0  0  0  0  0
   20.1958  -10.9783  -16.8668 C   0  0  0  0  0  0  0  0  0  0  0  0
   19.3447  -10.6681  -16.0055 O   0  0  0  0  0  0  0  0  0  0  0  0
   17.7580  -12.8277  -20.4099 C   0  0  0  0  0  0  0  0  0  0  0  0
   17.5750  -13.7015  -21.4663 C   0  0  0  0  0  0  0  0  0  0  0  0
   23.0655  -10.1816  -13.3705 C   0  0  0  0  0  0  0  0  0  0  0  0
   23.6052  -10.4296  -14.7738 C   0  0  2  0  0  0  0  0  0  0  0  0
   25.1078  -10.5040  -14.6637 C   0  0  0  0  0  0  0  0  0  0  0  0
   23.1952   -9.2554  -15.6181 C   0  0  0  0  0  0  0  0  0  0  0  0
   21.7236   -9.2219  -15.9240 C   0  0  2  0  0  0  0  0  0  0  0  0
   21.4432  -10.3172  -16.8645 N   0  0  0  0  0  0  0  0  0  0  0  0
   21.2834   -7.9700  -16.5603 C   0  0  0  0  0  0  0  0  0  0  0  0
   21.7820   -7.5279  -17.6270 O   0  0  0  0  0  0  0  0  0  0  0  0
   17.4497   -6.4717  -16.2172 C   0  0  0  0  0  0  0  0  0  0  0  0
   18.4591   -6.0077  -17.2410 C   0  0  1  0  0  0  0  0  0  0  0  0
   18.0521   -4.7318  -17.9090 C   0  0  0  0  0  0  0  0  0  0  0  0
   19.8171   -5.9167  -16.5829 C   0  0  2  0  0  0  0  0  0  0  0  0
   20.2358   -7.1542  -15.9952 N   0  0  0  0  0  0  0  0  0  0  0  0
   19.8653   -4.7819  -15.6297 C   0  0  0  0  0  0  0  0  0  0  0  0
   19.9238   -3.4471  -15.9939 O   0  0  0  0  0  0  0  0  0  0  0  0
   19.8522   -5.0513  -14.4041 O   0  0  0  0  0  0  0  0  0  0  0  0
  2  1  1  0
  3  2  2  0
  4  3  1  0
  5  4  2  0
  5 11  1  0
  6  5  1  0
  7  9  1  0
  7  6  1  0
  7  8  1  1
  9 18  1  0
 10  9  2  0
 11 12  2  0
 12  2  1  0
 14 13  1  1
 14 15  1  0
 17 16  1  6
 16 14  1  0
 18 17  1  0
 19 17  1  0
 19 20  2  0
 22 21  1  1
 22 24  1  0
 23 22  1  0
 24 25  1  1
 24 26  1  0
 25 19  1  0
 26 27  1  0
 28 26  2  0
M  END
$$$$
