YLV.pdb
     RDKit          3D

 28 28  0  0  1  0  0  0  0  0999 V2000
   19.5504  -23.6314   -8.2437 O   0  0  0  0  0  0  0  0  0  0  0  0
   20.5223  -22.8045   -8.8014 C   0  0  0  0  0  0  0  0  0  0  0  0
   20.7036  -22.7946  -10.1612 C   0  0  0  0  0  0  0  0  0  0  0  0
   21.6650  -21.9758  -10.7046 C   0  0  0  0  0  0  0  0  0  0  0  0
   22.4389  -21.1720   -9.8829 C   0  0  0  0  0  0  0  0  0  0  0  0
   23.4735  -20.2920  -10.4777 C   0  0  0  0  0  0  0  0  0  0  0  0
   24.6434  -21.1031  -11.0038 C   0  0  2  0  0  0  0  0  0  0  0  0
   25.4078  -21.5870   -9.8723 N   0  0  0  0  0  0  0  0  0  0  0  0
   25.4776  -20.1772  -11.8456 C   0  0  0  0  0  0  0  0  0  0  0  0
   26.2601  -19.3678  -11.3024 O   0  0  0  0  0  0  0  0  0  0  0  0
   22.2540  -21.1854   -8.5248 C   0  0  0  0  0  0  0  0  0  0  0  0
   21.2882  -22.0073   -7.9729 C   0  0  0  0  0  0  0  0  0  0  0  0
   28.9168  -20.4107  -13.2210 C   0  0  0  0  0  0  0  0  0  0  0  0
   27.9669  -21.2791  -14.0368 C   0  0  2  0  0  0  0  0  0  0  0  0
   28.8182  -22.1753  -14.9013 C   0  0  0  0  0  0  0  0  0  0  0  0
   27.1428  -20.3531  -14.8870 C   0  0  0  0  0  0  0  0  0  0  0  0
   26.2970  -19.4001  -14.0890 C   0  0  2  0  0  0  0  0  0  0  0  0
   25.3924  -20.2053  -13.2546 N   0  0  0  0  0  0  0  0  0  0  0  0
   25.4627  -18.5170  -14.9196 C   0  0  0  0  0  0  0  0  0  0  0  0
   24.3945  -18.8938  -15.4663 O   0  0  0  0  0  0  0  0  0  0  0  0
   26.7818  -14.5611  -15.9577 C   0  0  0  0  0  0  0  0  0  0  0  0
   25.3129  -14.7983  -15.6963 C   0  0  1  0  0  0  0  0  0  0  0  0
   24.4349  -13.8771  -16.4839 C   0  0  0  0  0  0  0  0  0  0  0  0
   25.0014  -16.2571  -15.9426 C   0  0  2  0  0  0  0  0  0  0  0  0
   25.8190  -17.1406  -15.1661 N   0  0  0  0  0  0  0  0  0  0  0  0
   25.0371  -16.5656  -17.3925 C   0  0  0  0  0  0  0  0  0  0  0  0
   26.0230  -17.3113  -18.0168 O   0  0  0  0  0  0  0  0  0  0  0  0
   24.1061  -16.1180  -18.1051 O   0  0  0  0  0  0  0  0  0  0  0  0
  2  1  1  0
  3  2  2  0
  4  3  1  0
  5  4  2  0
  5 11  1  0
  6  5  1  0
  7  9  1  0
  7  6  1  0
  7  8  1  1
  9 18  1  0
 10  9  2  0
 11 12  2  0
 12  2  1  0
 14 13  1  1
 14 15  1  0
 17 16  1  6
 16 14  1  0
 18 17  1  0
 19 17  1  0
 19 20  2  0
 22 21  1  6
 22 24  1  0
 23 22  1  0
 24 25  1  1
 24 26  1  0
 25 19  1  0
 26 27  1  0
 28 26  2  0
M  END
$$$$
