YLV.pdb
     RDKit          3D

 28 28  0  0  1  0  0  0  0  0999 V2000
   28.2965  -14.1435  -17.6260 O   0  0  0  0  0  0  0  0  0  0  0  0
   27.8350  -15.2298  -16.8870 C   0  0  0  0  0  0  0  0  0  0  0  0
   27.7567  -15.1347  -15.5206 C   0  0  0  0  0  0  0  0  0  0  0  0
   27.3001  -16.2111  -14.7976 C   0  0  0  0  0  0  0  0  0  0  0  0
   26.9247  -17.3761  -15.4473 C   0  0  0  0  0  0  0  0  0  0  0  0
   26.4334  -18.5321  -14.6594 C   0  0  0  0  0  0  0  0  0  0  0  0
   27.5880  -19.3211  -14.0697 C   0  0  2  0  0  0  0  0  0  0  0  0
   28.3455  -19.9031  -15.1588 N   0  0  0  0  0  0  0  0  0  0  0  0
   26.9897  -20.3997  -13.2090 C   0  0  0  0  0  0  0  0  0  0  0  0
   26.7043  -21.5118  -13.7031 O   0  0  0  0  0  0  0  0  0  0  0  0
   27.0048  -17.4663  -16.8127 C   0  0  0  0  0  0  0  0  0  0  0  0
   27.4634  -16.3863  -17.5449 C   0  0  0  0  0  0  0  0  0  0  0  0
   25.0370  -19.6068   -8.7079 C   0  0  0  0  0  0  0  0  0  0  0  0
   25.6303  -21.0012   -8.5476 C   0  0  2  0  0  0  0  0  0  0  0  0
   26.3366  -21.0315   -7.2151 C   0  0  0  0  0  0  0  0  0  0  0  0
   26.6116  -21.1948   -9.6697 C   0  0  0  0  0  0  0  0  0  0  0  0
   25.9803  -21.1451  -11.0333 C   0  0  2  0  0  0  0  0  0  0  0  0
   26.7415  -20.1769  -11.8371 N   0  0  0  0  0  0  0  0  0  0  0  0
   24.5779  -20.6992  -11.0164 C   0  0  0  0  0  0  0  0  0  0  0  0
   24.2365  -19.5106  -10.7872 O   0  0  0  0  0  0  0  0  0  0  0  0
   22.8565  -20.6574  -13.9526 C   0  0  0  0  0  0  0  0  0  0  0  0
   21.8673  -21.4177  -13.1006 C   0  0  1  0  0  0  0  0  0  0  0  0
   21.8242  -22.8756  -13.4362 C   0  0  0  0  0  0  0  0  0  0  0  0
   22.1779  -21.1612  -11.6435 C   0  0  2  0  0  0  0  0  0  0  0  0
   23.4852  -21.6082  -11.2649 N   0  0  0  0  0  0  0  0  0  0  0  0
   21.1088  -21.7073  -10.7732 C   0  0  0  0  0  0  0  0  0  0  0  0
   19.7937  -21.2734  -10.7715 O   0  0  0  0  0  0  0  0  0  0  0  0
   21.4190  -22.6297   -9.9808 O   0  0  0  0  0  0  0  0  0  0  0  0
  2  1  1  0
  3  2  2  0
  4  3  1  0
  5  4  2  0
  5 11  1  0
  6  5  1  0
  7  9  1  0
  7  6  1  0
  7  8  1  6
  9 18  1  0
 10  9  2  0
 11 12  2  0
 12  2  1  0
 14 13  1  6
 14 15  1  0
 17 16  1  1
 16 14  1  0
 18 17  1  0
 19 17  1  0
 19 20  2  0
 22 21  1  6
 22 24  1  0
 23 22  1  0
 24 25  1  1
 24 26  1  0
 25 19  1  0
 26 27  1  0
 28 26  2  0
M  END
$$$$
