YLV.pdb
     RDKit          3D

 28 28  0  0  1  0  0  0  0  0999 V2000
   14.9295  -15.0958  -22.1675 O   0  0  0  0  0  0  0  0  0  0  0  0
   15.5844  -14.3852  -21.1647 C   0  0  0  0  0  0  0  0  0  0  0  0
   15.0845  -14.4007  -19.8873 C   0  0  0  0  0  0  0  0  0  0  0  0
   15.7364  -13.6969  -18.9025 C   0  0  0  0  0  0  0  0  0  0  0  0
   16.8848  -12.9819  -19.2031 C   0  0  0  0  0  0  0  0  0  0  0  0
   17.5813  -12.2257  -18.1348 C   0  0  0  0  0  0  0  0  0  0  0  0
   18.8123  -12.9708  -17.6523 C   0  0  2  0  0  0  0  0  0  0  0  0
   18.3782  -14.1641  -16.9548 N   0  0  0  0  0  0  0  0  0  0  0  0
   19.5447  -12.0503  -16.7152 C   0  0  0  0  0  0  0  0  0  0  0  0
   19.2518  -12.0274  -15.5003 O   0  0  0  0  0  0  0  0  0  0  0  0
   17.3803  -12.9695  -20.4811 C   0  0  0  0  0  0  0  0  0  0  0  0
   16.7284  -13.6759  -21.4755 C   0  0  0  0  0  0  0  0  0  0  0  0
   23.0196  -11.5665  -14.1578 C   0  0  0  0  0  0  0  0  0  0  0  0
   23.1356  -11.8605  -15.6484 C   0  0  2  0  0  0  0  0  0  0  0  0
   24.5786  -12.2052  -15.9209 C   0  0  0  0  0  0  0  0  0  0  0  0
   22.7458  -10.6051  -16.3774 C   0  0  0  0  0  0  0  0  0  0  0  0
   21.2796  -10.2868  -16.2813 C   0  0  2  0  0  0  0  0  0  0  0  0
   20.5691  -11.2014  -17.1877 N   0  0  0  0  0  0  0  0  0  0  0  0
   20.9479   -8.9128  -16.6911 C   0  0  0  0  0  0  0  0  0  0  0  0
   20.8075   -8.5680  -17.8925 O   0  0  0  0  0  0  0  0  0  0  0  0
   18.7178   -7.3248  -17.7004 C   0  0  0  0  0  0  0  0  0  0  0  0
   18.9664   -6.3878  -16.5417 C   0  0  1  0  0  0  0  0  0  0  0  0
   18.0018   -6.5991  -15.4171 C   0  0  0  0  0  0  0  0  0  0  0  0
   20.4089   -6.5178  -16.1080 C   0  0  2  0  0  0  0  0  0  0  0  0
   20.7588   -7.8542  -15.7290 N   0  0  0  0  0  0  0  0  0  0  0  0
   20.7364   -5.5188  -15.0624 C   0  0  0  0  0  0  0  0  0  0  0  0
   21.1092   -5.8276  -13.7649 O   0  0  0  0  0  0  0  0  0  0  0  0
   20.6708   -4.3056  -15.3767 O   0  0  0  0  0  0  0  0  0  0  0  0
  2  1  1  0
  3  2  2  0
  4  3  1  0
  5  4  2  0
  5 11  1  0
  6  5  1  0
  7  9  1  0
  7  6  1  0
  7  8  1  1
  9 18  1  0
 10  9  2  0
 11 12  2  0
 12  2  1  0
 14 13  1  1
 14 15  1  0
 17 16  1  6
 16 14  1  0
 18 17  1  0
 19 17  1  0
 19 20  2  0
 22 21  1  6
 22 24  1  0
 23 22  1  0
 24 25  1  1
 24 26  1  0
 25 19  1  0
 26 27  1  0
 28 26  2  0
M  END
$$$$
