YLV.pdb
     RDKit          3D

 28 28  0  0  1  0  0  0  0  0999 V2000
   19.5892  -23.6840   -6.7443 O   0  0  0  0  0  0  0  0  0  0  0  0
   20.3555  -22.8690   -7.5737 C   0  0  0  0  0  0  0  0  0  0  0  0
   20.3320  -23.0711   -8.9304 C   0  0  0  0  0  0  0  0  0  0  0  0
   21.0910  -22.2627   -9.7431 C   0  0  0  0  0  0  0  0  0  0  0  0
   21.8689  -21.2569   -9.1920 C   0  0  0  0  0  0  0  0  0  0  0  0
   22.6844  -20.3897  -10.0760 C   0  0  0  0  0  0  0  0  0  0  0  0
   24.0377  -21.0161  -10.3577 C   0  0  2  0  0  0  0  0  0  0  0  0
   24.8930  -20.7878   -9.2109 N   0  0  0  0  0  0  0  0  0  0  0  0
   24.5950  -20.3308  -11.5749 C   0  0  0  0  0  0  0  0  0  0  0  0
   25.1078  -19.1950  -11.4770 O   0  0  0  0  0  0  0  0  0  0  0  0
   21.8889  -21.0589   -7.8357 C   0  0  0  0  0  0  0  0  0  0  0  0
   21.1272  -21.8693   -7.0137 C   0  0  0  0  0  0  0  0  0  0  0  0
   27.9602  -19.4574  -13.9454 C   0  0  0  0  0  0  0  0  0  0  0  0
   27.5145  -20.8941  -13.7019 C   0  0  2  0  0  0  0  0  0  0  0  0
   28.6240  -21.7910  -14.1916 C   0  0  0  0  0  0  0  0  0  0  0  0
   26.2651  -21.1111  -14.5090 C   0  0  0  0  0  0  0  0  0  0  0  0
   25.0961  -20.2926  -14.0357 C   0  0  2  0  0  0  0  0  0  0  0  0
   24.5492  -20.9535  -12.8411 N   0  0  0  0  0  0  0  0  0  0  0  0
   24.0088  -20.1943  -15.0227 C   0  0  0  0  0  0  0  0  0  0  0  0
   23.1878  -21.1227  -15.2367 O   0  0  0  0  0  0  0  0  0  0  0  0
   21.2329  -17.3366  -17.9783 C   0  0  0  0  0  0  0  0  0  0  0  0
   22.3223  -17.4042  -16.9337 C   0  0  1  0  0  0  0  0  0  0  0  0
   21.9484  -16.6954  -15.6697 C   0  0  0  0  0  0  0  0  0  0  0  0
   22.6923  -18.8522  -16.7056 C   0  0  2  0  0  0  0  0  0  0  0  0
   23.8089  -19.0098  -15.8222 N   0  0  0  0  0  0  0  0  0  0  0  0
   22.8759  -19.5584  -17.9964 C   0  0  0  0  0  0  0  0  0  0  0  0
   21.8864  -20.2686  -18.6554 O   0  0  0  0  0  0  0  0  0  0  0  0
   24.0108  -19.5085  -18.5299 O   0  0  0  0  0  0  0  0  0  0  0  0
  2  1  1  0
  3  2  2  0
  4  3  1  0
  5  4  2  0
  5 11  1  0
  6  5  1  0
  7  9  1  0
  7  6  1  0
  7  8  1  1
  9 18  1  0
 10  9  2  0
 11 12  2  0
 12  2  1  0
 14 13  1  6
 14 15  1  0
 17 16  1  6
 16 14  1  0
 18 17  1  0
 19 17  1  0
 19 20  2  0
 22 21  1  6
 22 24  1  0
 23 22  1  0
 24 25  1  1
 24 26  1  0
 25 19  1  0
 26 27  1  0
 28 26  2  0
M  END
$$$$
