YLV.pdb
     RDKit          3D

 28 28  0  0  1  0  0  0  0  0999 V2000
   30.2013  -19.7077   -3.5101 O   0  0  0  0  0  0  0  0  0  0  0  0
   29.2941  -19.8520   -4.5568 C   0  0  0  0  0  0  0  0  0  0  0  0
   29.1389  -21.0773   -5.1539 C   0  0  0  0  0  0  0  0  0  0  0  0
   28.2415  -21.2123   -6.1866 C   0  0  0  0  0  0  0  0  0  0  0  0
   27.5050  -20.1194   -6.6149 C   0  0  0  0  0  0  0  0  0  0  0  0
   26.5394  -20.2741   -7.7294 C   0  0  0  0  0  0  0  0  0  0  0  0
   27.2584  -20.4771   -9.0504 C   0  0  2  0  0  0  0  0  0  0  0  0
   28.3500  -19.5276   -9.1256 N   0  0  0  0  0  0  0  0  0  0  0  0
   26.2567  -20.2153  -10.1413 C   0  0  0  0  0  0  0  0  0  0  0  0
   25.5947  -19.1551  -10.1453 O   0  0  0  0  0  0  0  0  0  0  0  0
   27.6637  -18.8971   -6.0151 C   0  0  0  0  0  0  0  0  0  0  0  0
   28.5652  -18.7558   -4.9757 C   0  0  0  0  0  0  0  0  0  0  0  0
   28.0283  -21.2187  -15.1111 C   0  0  0  0  0  0  0  0  0  0  0  0
   27.3387  -20.5111  -13.9510 C   0  0  2  0  0  0  0  0  0  0  0  0
   28.3348  -20.4399  -12.8205 C   0  0  0  0  0  0  0  0  0  0  0  0
   26.1564  -21.3534  -13.5607 C   0  0  0  0  0  0  0  0  0  0  0  0
   25.3628  -20.7803  -12.4195 C   0  0  2  0  0  0  0  0  0  0  0  0
   26.0475  -21.1559  -11.1732 N   0  0  0  0  0  0  0  0  0  0  0  0
   23.9874  -21.2980  -12.3409 C   0  0  0  0  0  0  0  0  0  0  0  0
   23.6987  -22.4092  -11.8272 O   0  0  0  0  0  0  0  0  0  0  0  0
   20.9365  -19.7594  -10.7929 C   0  0  0  0  0  0  0  0  0  0  0  0
   20.5451  -20.0507  -12.2227 C   0  0  1  0  0  0  0  0  0  0  0  0
   20.4293  -18.8084  -13.0492 C   0  0  0  0  0  0  0  0  0  0  0  0
   21.5191  -21.0510  -12.8025 C   0  0  2  0  0  0  0  0  0  0  0  0
   22.8622  -20.5554  -12.8552 N   0  0  0  0  0  0  0  0  0  0  0  0
   21.0399  -21.5542  -14.1123 C   0  0  0  0  0  0  0  0  0  0  0  0
   19.8922  -22.3069  -14.2969 O   0  0  0  0  0  0  0  0  0  0  0  0
   21.7246  -21.2775  -15.1270 O   0  0  0  0  0  0  0  0  0  0  0  0
  2  1  1  0
  3  2  2  0
  4  3  1  0
  5  4  2  0
  5 11  1  0
  6  5  1  0
  7  9  1  0
  7  6  1  0
  7  8  1  6
  9 18  1  0
 10  9  2  0
 11 12  2  0
 12  2  1  0
 14 13  1  6
 14 15  1  0
 17 16  1  6
 16 14  1  0
 18 17  1  0
 19 17  1  0
 19 20  2  0
 22 21  1  1
 22 24  1  0
 23 22  1  0
 24 25  1  6
 24 26  1  0
 25 19  1  0
 26 27  1  0
 28 26  2  0
M  END
$$$$
