YLV.pdb
     RDKit          3D

 28 28  0  0  1  0  0  0  0  0999 V2000
   31.4739   -7.8115  -18.8079 O   0  0  0  0  0  0  0  0  0  0  0  0
   30.1109   -7.8527  -18.5253 C   0  0  0  0  0  0  0  0  0  0  0  0
   29.6482   -8.6923  -17.5440 C   0  0  0  0  0  0  0  0  0  0  0  0
   28.3014   -8.7277  -17.2705 C   0  0  0  0  0  0  0  0  0  0  0  0
   27.4263   -7.9220  -17.9814 C   0  0  0  0  0  0  0  0  0  0  0  0
   25.9753   -7.9666  -17.6797 C   0  0  0  0  0  0  0  0  0  0  0  0
   25.4201   -9.3657  -17.8737 C   0  0  2  0  0  0  0  0  0  0  0  0
   25.5083   -9.6997  -19.2806 N   0  0  0  0  0  0  0  0  0  0  0  0
   23.9837   -9.3348  -17.4289 C   0  0  0  0  0  0  0  0  0  0  0  0
   23.0637   -9.3366  -18.2751 O   0  0  0  0  0  0  0  0  0  0  0  0
   27.8935   -7.0846  -18.9609 C   0  0  0  0  0  0  0  0  0  0  0  0
   29.2475   -7.0452  -19.2401 C   0  0  0  0  0  0  0  0  0  0  0  0
   21.0779  -12.0742  -15.2307 C   0  0  0  0  0  0  0  0  0  0  0  0
   22.3359  -11.6106  -14.5065 C   0  0  2  0  0  0  0  0  0  0  0  0
   22.3618  -12.3111  -13.1709 C   0  0  0  0  0  0  0  0  0  0  0  0
   22.2153  -10.1238  -14.3206 C   0  0  0  0  0  0  0  0  0  0  0  0
   22.2505   -9.3535  -15.6113 C   0  0  2  0  0  0  0  0  0  0  0  0
   23.6511   -9.3032  -16.0572 N   0  0  0  0  0  0  0  0  0  0  0  0
   21.7784   -7.9657  -15.4812 C   0  0  0  0  0  0  0  0  0  0  0  0
   22.3581   -7.1055  -14.7698 O   0  0  0  0  0  0  0  0  0  0  0  0
   19.1020   -6.3330  -18.3257 C   0  0  0  0  0  0  0  0  0  0  0  0
   20.0509   -5.5010  -17.4952 C   0  0  1  0  0  0  0  0  0  0  0  0
   19.6520   -4.0595  -17.4418 C   0  0  0  0  0  0  0  0  0  0  0  0
   20.1768   -6.1250  -16.1239 C   0  0  2  0  0  0  0  0  0  0  0  0
   20.6025   -7.4920  -16.1704 N   0  0  0  0  0  0  0  0  0  0  0  0
   18.9302   -5.9369  -15.3434 C   0  0  0  0  0  0  0  0  0  0  0  0
   18.5431   -4.7477  -14.7488 O   0  0  0  0  0  0  0  0  0  0  0  0
   18.1714   -6.9278  -15.2125 O   0  0  0  0  0  0  0  0  0  0  0  0
  2  1  1  0
  3  2  2  0
  4  3  1  0
  5  4  2  0
  5 11  1  0
  6  5  1  0
  7  9  1  0
  7  6  1  0
  7  8  1  6
  9 18  1  0
 10  9  2  0
 11 12  2  0
 12  2  1  0
 14 13  1  6
 14 15  1  0
 17 16  1  1
 16 14  1  0
 18 17  1  0
 19 17  1  0
 19 20  2  0
 22 21  1  6
 22 24  1  0
 23 22  1  0
 24 25  1  6
 24 26  1  0
 25 19  1  0
 26 27  1  0
 28 26  2  0
M  END
$$$$
