YLV.pdb
     RDKit          3D

 28 28  0  0  1  0  0  0  0  0999 V2000
   23.9641  -21.0197   -8.7630 O   0  0  0  0  0  0  0  0  0  0  0  0
   23.6507  -20.4649  -10.0013 C   0  0  0  0  0  0  0  0  0  0  0  0
   22.3916  -19.9666  -10.2206 C   0  0  0  0  0  0  0  0  0  0  0  0
   22.0895  -19.4204  -11.4456 C   0  0  0  0  0  0  0  0  0  0  0  0
   23.0503  -19.3767  -12.4432 C   0  0  0  0  0  0  0  0  0  0  0  0
   22.7157  -18.7858  -13.7613 C   0  0  0  0  0  0  0  0  0  0  0  0
   21.8849  -19.7445  -14.5943 C   0  0  2  0  0  0  0  0  0  0  0  0
   22.7160  -20.8764  -14.9505 N   0  0  0  0  0  0  0  0  0  0  0  0
   21.4556  -18.9978  -15.8273 C   0  0  0  0  0  0  0  0  0  0  0  0
   22.2342  -18.8893  -16.7991 O   0  0  0  0  0  0  0  0  0  0  0  0
   24.3071  -19.8759  -12.2192 C   0  0  0  0  0  0  0  0  0  0  0  0
   24.6162  -20.4265  -10.9887 C   0  0  0  0  0  0  0  0  0  0  0  0
   17.0209  -18.8746  -19.5304 C   0  0  0  0  0  0  0  0  0  0  0  0
   18.1246  -17.9466  -19.0378 C   0  0  2  0  0  0  0  0  0  0  0  0
   19.1802  -17.9033  -20.1144 C   0  0  0  0  0  0  0  0  0  0  0  0
   18.6796  -18.5509  -17.7783 C   0  0  0  0  0  0  0  0  0  0  0  0
   19.7351  -17.7050  -17.1221 C   0  0  2  0  0  0  0  0  0  0  0  0
   20.1746  -18.4101  -15.9086 N   0  0  0  0  0  0  0  0  0  0  0  0
   19.2529  -16.3767  -16.7109 C   0  0  0  0  0  0  0  0  0  0  0  0
   18.6482  -16.1692  -15.6278 O   0  0  0  0  0  0  0  0  0  0  0  0
   20.1859  -12.8103  -18.9982 C   0  0  0  0  0  0  0  0  0  0  0  0
   19.9921  -12.8151  -17.4999 C   0  0  1  0  0  0  0  0  0  0  0  0
   19.5962  -11.4729  -16.9694 C   0  0  0  0  0  0  0  0  0  0  0  0
   19.0059  -13.9021  -17.1375 C   0  0  2  0  0  0  0  0  0  0  0  0
   19.4439  -15.2071  -17.5341 N   0  0  0  0  0  0  0  0  0  0  0  0
   17.6506  -13.5726  -17.6407 C   0  0  0  0  0  0  0  0  0  0  0  0
   16.7686  -12.7029  -17.0216 O   0  0  0  0  0  0  0  0  0  0  0  0
   17.2763  -14.1222  -18.7050 O   0  0  0  0  0  0  0  0  0  0  0  0
  2  1  1  0
  3  2  2  0
  4  3  1  0
  5  4  2  0
  5 11  1  0
  6  5  1  0
  7  9  1  0
  7  6  1  0
  7  8  1  6
  9 18  1  0
 10  9  2  0
 11 12  2  0
 12  2  1  0
 14 13  1  6
 14 15  1  0
 17 16  1  1
 16 14  1  0
 18 17  1  0
 19 17  1  0
 19 20  2  0
 22 21  1  6
 22 24  1  0
 23 22  1  0
 24 25  1  6
 24 26  1  0
 25 19  1  0
 26 27  1  0
 28 26  2  0
M  END
$$$$
