YLV.pdb
     RDKit          3D

 28 28  0  0  1  0  0  0  0  0999 V2000
   20.7802  -17.5993  -16.3522 O   0  0  0  0  0  0  0  0  0  0  0  0
   21.5003  -18.2023  -15.3240 C   0  0  0  0  0  0  0  0  0  0  0  0
   22.8016  -17.8302  -15.1004 C   0  0  0  0  0  0  0  0  0  0  0  0
   23.5063  -18.4298  -14.0836 C   0  0  0  0  0  0  0  0  0  0  0  0
   22.9034  -19.3983  -13.2969 C   0  0  0  0  0  0  0  0  0  0  0  0
   23.6709  -20.0397  -12.2024 C   0  0  0  0  0  0  0  0  0  0  0  0
   24.9127  -20.7290  -12.7376 C   0  0  2  0  0  0  0  0  0  0  0  0
   24.4965  -21.8799  -13.5127 N   0  0  0  0  0  0  0  0  0  0  0  0
   25.7236  -21.1612  -11.5470 C   0  0  0  0  0  0  0  0  0  0  0  0
   25.2724  -22.0186  -10.7572 O   0  0  0  0  0  0  0  0  0  0  0  0
   21.6028  -19.7667  -13.5243 C   0  0  0  0  0  0  0  0  0  0  0  0
   20.8894  -19.1667  -14.5459 C   0  0  0  0  0  0  0  0  0  0  0  0
   29.8099  -22.9612  -10.9563 C   0  0  0  0  0  0  0  0  0  0  0  0
   29.8639  -21.5259  -11.4652 C   0  0  2  0  0  0  0  0  0  0  0  0
   31.3201  -21.1701  -11.6335 C   0  0  0  0  0  0  0  0  0  0  0  0
   29.2271  -20.6608  -10.4138 C   0  0  0  0  0  0  0  0  0  0  0  0
   27.7938  -21.0165  -10.1322 C   0  0  2  0  0  0  0  0  0  0  0  0
   27.0002  -20.6102  -11.3018 N   0  0  0  0  0  0  0  0  0  0  0  0
   27.2359  -20.3258   -8.9585 C   0  0  0  0  0  0  0  0  0  0  0  0
   26.7015  -19.1889   -9.0188 O   0  0  0  0  0  0  0  0  0  0  0  0
   26.1615  -20.1652   -4.1345 C   0  0  0  0  0  0  0  0  0  0  0  0
   26.2726  -20.9862   -5.3978 C   0  0  1  0  0  0  0  0  0  0  0  0
   24.9483  -21.5081   -5.8601 C   0  0  0  0  0  0  0  0  0  0  0  0
   26.9798  -20.1668   -6.4533 C   0  0  2  0  0  0  0  0  0  0  0  0
   27.2650  -20.9146   -7.6414 N   0  0  0  0  0  0  0  0  0  0  0  0
   28.1801  -19.5040   -5.8888 C   0  0  0  0  0  0  0  0  0  0  0  0
   28.1572  -18.3562   -5.1143 O   0  0  0  0  0  0  0  0  0  0  0  0
   29.2975  -20.0213   -6.1309 O   0  0  0  0  0  0  0  0  0  0  0  0
  2  1  1  0
  3  2  2  0
  4  3  1  0
  5  4  2  0
  5 11  1  0
  6  5  1  0
  7  9  1  0
  7  6  1  0
  7  8  1  1
  9 18  1  0
 10  9  2  0
 11 12  2  0
 12  2  1  0
 14 13  1  1
 14 15  1  0
 17 16  1  6
 16 14  1  0
 18 17  1  0
 19 17  1  0
 19 20  2  0
 22 21  1  1
 22 24  1  0
 23 22  1  0
 24 25  1  6
 24 26  1  0
 25 19  1  0
 26 27  1  0
 28 26  2  0
M  END
$$$$
