YLV.pdb
     RDKit          3D

 28 28  0  0  1  0  0  0  0  0999 V2000
   12.2458   -9.1046    5.0497 O   0  0  0  0  0  0  0  0  0  0  0  0
   12.8597  -10.3546    5.0359 C   0  0  0  0  0  0  0  0  0  0  0  0
   14.0969  -10.4948    4.4601 C   0  0  0  0  0  0  0  0  0  0  0  0
   14.6968  -11.7318    4.4502 C   0  0  0  0  0  0  0  0  0  0  0  0
   14.0539  -12.8207    5.0170 C   0  0  0  0  0  0  0  0  0  0  0  0
   14.7082  -14.1511    5.0018 C   0  0  0  0  0  0  0  0  0  0  0  0
   14.4944  -14.8495    3.6715 C   0  0  2  0  0  0  0  0  0  0  0  0
   13.1117  -15.2755    3.5977 N   0  0  0  0  0  0  0  0  0  0  0  0
   15.4140  -16.0394    3.6464 C   0  0  0  0  0  0  0  0  0  0  0  0
   14.9829  -17.1732    3.9483 O   0  0  0  0  0  0  0  0  0  0  0  0
   12.8176  -12.6755    5.5911 C   0  0  0  0  0  0  0  0  0  0  0  0
   12.2097  -11.4333    5.6038 C   0  0  0  0  0  0  0  0  0  0  0  0
   21.0244  -17.2178    1.4387 C   0  0  0  0  0  0  0  0  0  0  0  0
   19.8611  -17.7877    2.2412 C   0  0  2  0  0  0  0  0  0  0  0  0
   19.3289  -18.9703    1.4708 C   0  0  0  0  0  0  0  0  0  0  0  0
   18.8199  -16.7077    2.3365 C   0  0  0  0  0  0  0  0  0  0  0  0
   17.6744  -17.0580    3.2451 C   0  0  2  0  0  0  0  0  0  0  0  0
   16.7712  -15.8980    3.2840 N   0  0  0  0  0  0  0  0  0  0  0  0
   18.0870  -17.3430    4.6287 C   0  0  0  0  0  0  0  0  0  0  0  0
   18.5312  -16.4626    5.4094 O   0  0  0  0  0  0  0  0  0  0  0  0
   16.5280  -18.0056    7.6630 C   0  0  0  0  0  0  0  0  0  0  0  0
   17.3421  -19.2646    7.4763 C   0  0  1  0  0  0  0  0  0  0  0  0
   16.5036  -20.4321    7.0595 C   0  0  0  0  0  0  0  0  0  0  0  0
   18.4699  -18.9793    6.5109 C   0  0  2  0  0  0  0  0  0  0  0  0
   18.0087  -18.6698    5.1904 N   0  0  0  0  0  0  0  0  0  0  0  0
   19.4686  -20.0752    6.5292 C   0  0  0  0  0  0  0  0  0  0  0  0
   20.2708  -20.3941    7.6120 O   0  0  0  0  0  0  0  0  0  0  0  0
   19.5955  -20.7633    5.4874 O   0  0  0  0  0  0  0  0  0  0  0  0
  2  1  1  0
  3  2  2  0
  4  3  1  0
  5  4  2  0
  5 11  1  0
  6  5  1  0
  7  9  1  0
  7  6  1  0
  7  8  1  1
  9 18  1  0
 10  9  2  0
 11 12  2  0
 12  2  1  0
 14 13  1  6
 14 15  1  0
 17 16  1  6
 16 14  1  0
 18 17  1  0
 19 17  1  0
 19 20  2  0
 22 21  1  6
 22 24  1  0
 23 22  1  0
 24 25  1  6
 24 26  1  0
 25 19  1  0
 26 27  1  0
 28 26  2  0
M  END
$$$$
