YLV.pdb
     RDKit          3D

 28 28  0  0  1  0  0  0  0  0999 V2000
   20.1662  -16.7238  -17.5110 O   0  0  0  0  0  0  0  0  0  0  0  0
   20.9128  -17.4492  -16.5860 C   0  0  0  0  0  0  0  0  0  0  0  0
   20.3015  -18.4223  -15.8367 C   0  0  0  0  0  0  0  0  0  0  0  0
   21.0448  -19.1344  -14.9254 C   0  0  0  0  0  0  0  0  0  0  0  0
   22.3958  -18.8676  -14.7702 C   0  0  0  0  0  0  0  0  0  0  0  0
   23.1898  -19.6406  -13.7850 C   0  0  0  0  0  0  0  0  0  0  0  0
   24.1575  -20.5803  -14.4806 C   0  0  2  0  0  0  0  0  0  0  0  0
   23.3918  -21.6290  -15.1231 N   0  0  0  0  0  0  0  0  0  0  0  0
   25.0517  -21.1569  -13.4177 C   0  0  0  0  0  0  0  0  0  0  0  0
   24.6208  -22.0402  -12.6453 O   0  0  0  0  0  0  0  0  0  0  0  0
   23.0021  -17.8943  -15.5212 C   0  0  0  0  0  0  0  0  0  0  0  0
   22.2589  -17.1750  -16.4394 C   0  0  0  0  0  0  0  0  0  0  0  0
   30.9137  -20.4654  -11.6497 C   0  0  0  0  0  0  0  0  0  0  0  0
   29.5387  -20.9690  -11.2280 C   0  0  2  0  0  0  0  0  0  0  0  0
   29.6806  -22.4387  -10.9196 C   0  0  0  0  0  0  0  0  0  0  0  0
   28.6155  -20.7613  -12.3960 C   0  0  0  0  0  0  0  0  0  0  0  0
   27.1740  -21.0476  -12.0790 C   0  0  2  0  0  0  0  0  0  0  0  0
   26.3845  -20.7139  -13.2741 N   0  0  0  0  0  0  0  0  0  0  0  0
   26.6466  -20.2457  -10.9633 C   0  0  0  0  0  0  0  0  0  0  0  0
   26.3864  -19.0190  -11.0603 O   0  0  0  0  0  0  0  0  0  0  0  0
   23.6001  -20.4089   -8.9556 C   0  0  0  0  0  0  0  0  0  0  0  0
   24.6948  -20.5013   -7.9185 C   0  0  1  0  0  0  0  0  0  0  0  0
   24.7980  -21.8669   -7.3148 C   0  0  0  0  0  0  0  0  0  0  0  0
   25.9937  -20.0341   -8.5352 C   0  0  2  0  0  0  0  0  0  0  0  0
   26.3891  -20.8208   -9.6652 N   0  0  0  0  0  0  0  0  0  0  0  0
   27.0569  -19.9289   -7.5071 C   0  0  0  0  0  0  0  0  0  0  0  0
   27.0750  -18.9972   -6.4827 O   0  0  0  0  0  0  0  0  0  0  0  0
   28.0092  -20.7438   -7.5704 O   0  0  0  0  0  0  0  0  0  0  0  0
  2  1  1  0
  3  2  2  0
  4  3  1  0
  5  4  2  0
  5 11  1  0
  6  5  1  0
  7  9  1  0
  7  6  1  0
  7  8  1  1
  9 18  1  0
 10  9  2  0
 11 12  2  0
 12  2  1  0
 14 13  1  6
 14 15  1  0
 17 16  1  6
 16 14  1  0
 18 17  1  0
 19 17  1  0
 19 20  2  0
 22 21  1  6
 22 24  1  0
 23 22  1  0
 24 25  1  6
 24 26  1  0
 25 19  1  0
 26 27  1  0
 28 26  2  0
M  END
$$$$
