YLV.pdb
     RDKit          3D

 28 28  0  0  1  0  0  0  0  0999 V2000
   28.4062  -19.7520   -4.7733 O   0  0  0  0  0  0  0  0  0  0  0  0
   27.7446  -19.8109   -5.9973 C   0  0  0  0  0  0  0  0  0  0  0  0
   26.9603  -20.8974   -6.2912 C   0  0  0  0  0  0  0  0  0  0  0  0
   26.3101  -20.9486   -7.5014 C   0  0  0  0  0  0  0  0  0  0  0  0
   26.4495  -19.9115   -8.4099 C   0  0  0  0  0  0  0  0  0  0  0  0
   25.7446  -19.9752   -9.7128 C   0  0  0  0  0  0  0  0  0  0  0  0
   26.2132  -21.1656  -10.5294 C   0  0  2  0  0  0  0  0  0  0  0  0
   27.6397  -21.0360  -10.7464 N   0  0  0  0  0  0  0  0  0  0  0  0
   25.4749  -21.1188  -11.8389 C   0  0  0  0  0  0  0  0  0  0  0  0
   25.7159  -20.2112  -12.6640 O   0  0  0  0  0  0  0  0  0  0  0  0
   27.2343  -18.8280   -8.1116 C   0  0  0  0  0  0  0  0  0  0  0  0
   27.8906  -18.7714   -6.8955 C   0  0  0  0  0  0  0  0  0  0  0  0
   25.5454  -22.3324  -15.8449 C   0  0  0  0  0  0  0  0  0  0  0  0
   25.4730  -23.3671  -14.7285 C   0  0  2  0  0  0  0  0  0  0  0  0
   25.7495  -24.7122  -15.3527 C   0  0  0  0  0  0  0  0  0  0  0  0
   24.0771  -23.3198  -14.1730 C   0  0  0  0  0  0  0  0  0  0  0  0
   23.7698  -22.0485  -13.4315 C   0  0  2  0  0  0  0  0  0  0  0  0
   24.5033  -22.0923  -12.1575 N   0  0  0  0  0  0  0  0  0  0  0  0
   22.3424  -21.8831  -13.1137 C   0  0  0  0  0  0  0  0  0  0  0  0
   21.7932  -22.4173  -12.1162 O   0  0  0  0  0  0  0  0  0  0  0  0
   20.2854  -18.7808  -12.5297 C   0  0  0  0  0  0  0  0  0  0  0  0
   19.6037  -19.5097  -13.6638 C   0  0  1  0  0  0  0  0  0  0  0  0
   19.8064  -18.8331  -14.9833 C   0  0  0  0  0  0  0  0  0  0  0  0
   20.0645  -20.9496  -13.6672 C   0  0  2  0  0  0  0  0  0  0  0  0
   21.4649  -21.0861  -13.9365 N   0  0  0  0  0  0  0  0  0  0  0  0
   19.2223  -21.7698  -14.5708 C   0  0  0  0  0  0  0  0  0  0  0  0
   17.9067  -22.1221  -14.3201 O   0  0  0  0  0  0  0  0  0  0  0  0
   19.7400  -22.1739  -15.6402 O   0  0  0  0  0  0  0  0  0  0  0  0
  2  1  1  0
  3  2  2  0
  4  3  1  0
  5  4  2  0
  5 11  1  0
  6  5  1  0
  7  9  1  0
  7  6  1  0
  7  8  1  6
  9 18  1  0
 10  9  2  0
 11 12  2  0
 12  2  1  0
 14 13  1  6
 14 15  1  0
 17 16  1  1
 16 14  1  0
 18 17  1  0
 19 17  1  0
 19 20  2  0
 22 21  1  1
 22 24  1  0
 23 22  1  0
 24 25  1  6
 24 26  1  0
 25 19  1  0
 26 27  1  0
 28 26  2  0
M  END
$$$$
