VDG.pdb
     RDKit          3D

 20 19  0  0  1  0  0  0  0  0999 V2000
   16.8952  -10.5299  -15.1127 C   0  0  0  0  0  0  0  0  0  0  0  0
   17.3218  -11.9879  -15.0615 C   0  0  1  0  0  0  0  0  0  0  0  0
   16.0861  -12.8455  -15.1392 C   0  0  0  0  0  0  0  0  0  0  0  0
   18.2710  -12.2328  -16.2219 C   0  0  2  0  0  0  0  0  0  0  0  0
   18.6599  -13.6165  -16.2191 N   0  0  0  0  0  0  0  0  0  0  0  0
   19.4262  -11.3114  -16.1786 C   0  0  0  0  0  0  0  0  0  0  0  0
   20.4044  -11.5248  -15.4198 O   0  0  0  0  0  0  0  0  0  0  0  0
   19.4357  -10.1634  -17.0090 N   0  0  0  0  0  0  0  0  0  0  0  0
   20.5630   -9.2472  -17.0596 C   0  0  1  0  0  0  0  0  0  0  0  0
   20.5316   -8.5264  -18.3883 C   0  0  0  0  0  0  0  0  0  0  0  0
   21.6584   -7.6167  -18.6031 C   0  0  0  0  0  0  0  0  0  0  0  0
   21.7335   -6.8991  -19.6495 O   0  0  0  0  0  0  0  0  0  0  0  0
   20.5480   -8.3756  -15.8900 C   0  0  0  0  0  0  0  0  0  0  0  0
   19.5218   -7.7720  -15.4704 O   0  0  0  0  0  0  0  0  0  0  0  0
   22.7156   -7.4661  -17.7002 O   0  0  0  0  0  0  0  0  0  0  0  0
   21.7514   -8.1702  -15.1491 N   0  0  0  0  0  0  0  0  0  0  0  0
   21.7660   -7.4555  -13.8926 C   0  0  0  0  0  0  0  0  0  0  0  0
   21.6912   -5.9937  -14.1315 C   0  0  0  0  0  0  0  0  0  0  0  0
   21.6269   -5.5824  -15.3171 O   0  0  0  0  0  0  0  0  0  0  0  0
   21.6908   -5.0836  -13.0893 O   0  0  0  0  0  0  0  0  0  0  0  0
  2  1  1  6
  3  2  1  0
  4  2  1  0
  4  5  1  1
  6  7  2  0
  6  4  1  0
  8  6  1  0
  9  8  1  0
  9 13  1  0
  9 10  1  6
 11 10  1  0
 11 15  1  0
 12 11  2  0
 13 16  1  0
 14 13  2  0
 16 17  1  0
 17 18  1  0
 18 19  2  0
 18 20  1  0
M  END
$$$$
