VDG.pdb
     RDKit          3D

 20 19  0  0  1  0  0  0  0  0999 V2000
   14.9888   -8.9992  -16.7113 C   0  0  0  0  0  0  0  0  0  0  0  0
   16.2693   -8.7016  -15.9483 C   0  0  1  0  0  0  0  0  0  0  0  0
   15.9107   -8.4243  -14.5119 C   0  0  0  0  0  0  0  0  0  0  0  0
   17.1850   -9.9046  -16.0951 C   0  0  2  0  0  0  0  0  0  0  0  0
   16.5053  -11.0686  -15.5960 N   0  0  0  0  0  0  0  0  0  0  0  0
   18.4887   -9.6746  -15.4372 C   0  0  0  0  0  0  0  0  0  0  0  0
   18.7328  -10.1311  -14.2925 O   0  0  0  0  0  0  0  0  0  0  0  0
   19.4871   -8.9257  -16.1079 N   0  0  0  0  0  0  0  0  0  0  0  0
   20.7688   -8.6130  -15.4976 C   0  0  1  0  0  0  0  0  0  0  0  0
   21.8587   -8.8981  -16.5061 C   0  0  0  0  0  0  0  0  0  0  0  0
   22.7814   -9.9621  -16.1062 C   0  0  0  0  0  0  0  0  0  0  0  0
   23.0786  -10.1498  -14.8848 O   0  0  0  0  0  0  0  0  0  0  0  0
   20.7541   -7.2487  -14.9818 C   0  0  0  0  0  0  0  0  0  0  0  0
   20.1265   -6.2951  -15.5207 O   0  0  0  0  0  0  0  0  0  0  0  0
   23.3948  -10.8356  -17.0097 O   0  0  0  0  0  0  0  0  0  0  0  0
   21.4835   -6.9366  -13.7944 N   0  0  0  0  0  0  0  0  0  0  0  0
   21.5042   -5.6038  -13.2349 C   0  0  0  0  0  0  0  0  0  0  0  0
   22.1562   -4.6610  -14.1759 C   0  0  0  0  0  0  0  0  0  0  0  0
   23.1798   -5.0443  -14.7958 O   0  0  0  0  0  0  0  0  0  0  0  0
   21.6674   -3.3833  -14.3836 O   0  0  0  0  0  0  0  0  0  0  0  0
  2  1  1  6
  3  2  1  0
  4  2  1  0
  4  5  1  1
  6  7  2  0
  6  4  1  0
  8  6  1  0
  9  8  1  0
  9 13  1  0
  9 10  1  6
 11 10  1  0
 11 15  1  0
 12 11  2  0
 13 16  1  0
 14 13  2  0
 16 17  1  0
 17 18  1  0
 18 19  2  0
 18 20  1  0
M  END
$$$$
