VDG.pdb
     RDKit          3D

 20 19  0  0  1  0  0  0  0  0999 V2000
   13.0138   -9.1969  -11.8804 C   0  0  0  0  0  0  0  0  0  0  0  0
   13.6532   -9.9179  -10.7049 C   0  0  1  0  0  0  0  0  0  0  0  0
   13.0165  -11.2772  -10.5803 C   0  0  0  0  0  0  0  0  0  0  0  0
   15.1467   -9.9996  -10.9697 C   0  0  2  0  0  0  0  0  0  0  0  0
   15.7675  -10.7358   -9.9027 N   0  0  0  0  0  0  0  0  0  0  0  0
   15.7358   -8.6571  -11.1600 C   0  0  0  0  0  0  0  0  0  0  0  0
   15.4466   -7.9518  -12.1586 O   0  0  0  0  0  0  0  0  0  0  0  0
   16.6449   -8.1506  -10.1984 N   0  0  0  0  0  0  0  0  0  0  0  0
   17.2950   -6.8587  -10.3449 C   0  0  1  0  0  0  0  0  0  0  0  0
   16.9983   -6.0338   -9.1130 C   0  0  0  0  0  0  0  0  0  0  0  0
   15.6050   -5.5974   -9.0057 C   0  0  0  0  0  0  0  0  0  0  0  0
   14.8818   -5.4469  -10.0400 O   0  0  0  0  0  0  0  0  0  0  0  0
   18.7135   -7.0456  -10.6292 C   0  0  0  0  0  0  0  0  0  0  0  0
   19.4766   -7.7958   -9.9597 O   0  0  0  0  0  0  0  0  0  0  0  0
   14.9722   -5.3179   -7.7904 O   0  0  0  0  0  0  0  0  0  0  0  0
   19.3092   -6.3526  -11.7266 N   0  0  0  0  0  0  0  0  0  0  0  0
   20.7024   -6.5196  -12.0740 C   0  0  0  0  0  0  0  0  0  0  0  0
   21.0765   -5.5850  -13.1631 C   0  0  0  0  0  0  0  0  0  0  0  0
   20.1622   -4.9646  -13.7613 O   0  0  0  0  0  0  0  0  0  0  0  0
   22.3953   -5.3840  -13.5305 O   0  0  0  0  0  0  0  0  0  0  0  0
  2  1  1  6
  3  2  1  0
  4  2  1  0
  4  5  1  1
  6  7  2  0
  6  4  1  0
  8  6  1  0
  9  8  1  0
  9 13  1  0
  9 10  1  1
 11 10  1  0
 11 15  1  0
 12 11  2  0
 13 16  1  0
 14 13  2  0
 16 17  1  0
 17 18  1  0
 18 19  2  0
 18 20  1  0
M  END
$$$$
