VDG.pdb
     RDKit          3D

 20 19  0  0  1  0  0  0  0  0999 V2000
   20.8404  -13.9107  -18.3341 C   0  0  0  0  0  0  0  0  0  0  0  0
   20.1072  -12.5819  -18.2505 C   0  0  1  0  0  0  0  0  0  0  0  0
   18.8582  -12.7813  -17.4326 C   0  0  0  0  0  0  0  0  0  0  0  0
   21.0533  -11.5705  -17.6264 C   0  0  2  0  0  0  0  0  0  0  0  0
   21.5298  -12.0920  -16.3746 N   0  0  0  0  0  0  0  0  0  0  0  0
   20.4135  -10.2448  -17.4901 C   0  0  0  0  0  0  0  0  0  0  0  0
   20.0158   -9.6045  -18.4951 O   0  0  0  0  0  0  0  0  0  0  0  0
   20.2419   -9.6812  -16.2015 N   0  0  0  0  0  0  0  0  0  0  0  0
   19.6858   -8.3534  -15.9992 C   0  0  1  0  0  0  0  0  0  0  0  0
   18.4301   -8.4847  -15.1673 C   0  0  0  0  0  0  0  0  0  0  0  0
   17.3917   -9.3170  -15.7773 C   0  0  0  0  0  0  0  0  0  0  0  0
   16.9544   -9.0716  -16.9452 O   0  0  0  0  0  0  0  0  0  0  0  0
   20.7017   -7.4694  -15.4386 C   0  0  0  0  0  0  0  0  0  0  0  0
   21.7136   -7.8700  -14.7991 O   0  0  0  0  0  0  0  0  0  0  0  0
   16.8113  -10.4202  -15.1435 O   0  0  0  0  0  0  0  0  0  0  0  0
   20.5757   -6.0567  -15.6053 N   0  0  0  0  0  0  0  0  0  0  0  0
   21.6314   -5.1429  -15.2306 C   0  0  0  0  0  0  0  0  0  0  0  0
   21.7791   -5.1049  -13.7554 C   0  0  0  0  0  0  0  0  0  0  0  0
   22.9229   -4.9125  -13.2721 O   0  0  0  0  0  0  0  0  0  0  0  0
   20.6973   -5.2749  -12.9096 O   0  0  0  0  0  0  0  0  0  0  0  0
  2  1  1  1
  3  2  1  0
  4  2  1  0
  4  5  1  1
  6  7  2  0
  6  4  1  0
  8  6  1  0
  9  8  1  0
  9 13  1  0
  9 10  1  1
 11 10  1  0
 11 15  1  0
 12 11  2  0
 13 16  1  0
 14 13  2  0
 16 17  1  0
 17 18  1  0
 18 19  2  0
 18 20  1  0
M  END
$$$$
