VDG.pdb
     RDKit          3D

 20 19  0  0  1  0  0  0  0  0999 V2000
   22.9905  -12.7874  -14.5075 C   0  0  0  0  0  0  0  0  0  0  0  0
   23.6050  -13.0135  -15.8792 C   0  0  1  0  0  0  0  0  0  0  0  0
   22.6771  -13.8944  -16.6740 C   0  0  0  0  0  0  0  0  0  0  0  0
   23.8076  -11.6535  -16.5248 C   0  0  2  0  0  0  0  0  0  0  0  0
   24.7538  -10.9053  -15.7432 N   0  0  0  0  0  0  0  0  0  0  0  0
   22.5230  -10.9443  -16.7048 C   0  0  0  0  0  0  0  0  0  0  0  0
   21.7167  -11.2722  -17.6106 O   0  0  0  0  0  0  0  0  0  0  0  0
   22.1894   -9.8729  -15.8397 N   0  0  0  0  0  0  0  0  0  0  0  0
   20.9081   -9.1894  -15.9037 C   0  0  1  0  0  0  0  0  0  0  0  0
   19.8185  -10.1896  -15.5901 C   0  0  0  0  0  0  0  0  0  0  0  0
   18.4629   -9.6417  -15.6642 C   0  0  0  0  0  0  0  0  0  0  0  0
   18.0485   -9.0525  -16.7114 O   0  0  0  0  0  0  0  0  0  0  0  0
   20.9278   -8.0147  -15.0391 C   0  0  0  0  0  0  0  0  0  0  0  0
   21.0526   -8.0619  -13.7839 O   0  0  0  0  0  0  0  0  0  0  0  0
   17.5378   -9.7192  -14.6185 O   0  0  0  0  0  0  0  0  0  0  0  0
   20.8014   -6.7140  -15.6150 N   0  0  0  0  0  0  0  0  0  0  0  0
   20.9356   -5.5098  -14.8267 C   0  0  0  0  0  0  0  0  0  0  0  0
   22.3167   -5.3915  -14.2993 C   0  0  0  0  0  0  0  0  0  0  0  0
   22.4749   -5.2329  -13.0629 O   0  0  0  0  0  0  0  0  0  0  0  0
   23.4219   -5.4513  -15.1296 O   0  0  0  0  0  0  0  0  0  0  0  0
  2  1  1  1
  3  2  1  0
  4  2  1  0
  4  5  1  1
  6  7  2  0
  6  4  1  0
  8  6  1  0
  9  8  1  0
  9 13  1  0
  9 10  1  1
 11 10  1  0
 11 15  1  0
 12 11  2  0
 13 16  1  0
 14 13  2  0
 16 17  1  0
 17 18  1  0
 18 19  2  0
 18 20  1  0
M  END
$$$$
