VDG.pdb
     RDKit          3D

 20 19  0  0  1  0  0  0  0  0999 V2000
   13.4645  -11.1544  -10.2432 C   0  0  0  0  0  0  0  0  0  0  0  0
   12.1267  -10.5066   -9.9250 C   0  0  1  0  0  0  0  0  0  0  0  0
   11.1778  -11.5820   -9.4649 C   0  0  0  0  0  0  0  0  0  0  0  0
   12.3663   -9.4506   -8.8597 C   0  0  2  0  0  0  0  0  0  0  0  0
   11.0968   -8.9453   -8.4136 N   0  0  0  0  0  0  0  0  0  0  0  0
   13.2689   -8.3863   -9.3474 C   0  0  0  0  0  0  0  0  0  0  0  0
   12.9020   -7.5723  -10.2312 O   0  0  0  0  0  0  0  0  0  0  0  0
   14.5750   -8.2771   -8.8093 N   0  0  0  0  0  0  0  0  0  0  0  0
   15.5649   -7.3578   -9.3460 C   0  0  1  0  0  0  0  0  0  0  0  0
   15.8243   -6.2823   -8.3154 C   0  0  0  0  0  0  0  0  0  0  0  0
   14.7163   -5.3417   -8.1394 C   0  0  0  0  0  0  0  0  0  0  0  0
   14.2456   -5.0889   -6.9861 O   0  0  0  0  0  0  0  0  0  0  0  0
   16.7490   -8.0957   -9.7717 C   0  0  0  0  0  0  0  0  0  0  0  0
   17.4331   -8.8356   -9.0115 O   0  0  0  0  0  0  0  0  0  0  0  0
   14.1014   -4.6624   -9.1958 O   0  0  0  0  0  0  0  0  0  0  0  0
   17.1901   -7.9986  -11.1265 N   0  0  0  0  0  0  0  0  0  0  0  0
   18.4312   -8.5900  -11.5734 C   0  0  0  0  0  0  0  0  0  0  0  0
   18.6523   -8.2974  -13.0104 C   0  0  0  0  0  0  0  0  0  0  0  0
   17.7156   -7.7782  -13.6677 O   0  0  0  0  0  0  0  0  0  0  0  0
   19.8537   -8.5804  -13.6357 O   0  0  0  0  0  0  0  0  0  0  0  0
  2  1  1  1
  3  2  1  0
  4  2  1  0
  4  5  1  6
  6  7  2  0
  6  4  1  0
  8  6  1  0
  9  8  1  0
  9 13  1  0
  9 10  1  1
 11 10  1  0
 11 15  1  0
 12 11  2  0
 13 16  1  0
 14 13  2  0
 16 17  1  0
 17 18  1  0
 18 19  2  0
 18 20  1  0
M  END
$$$$
