VDG.pdb
     RDKit          3D

 20 19  0  0  1  0  0  0  0  0999 V2000
   21.5300  -15.0741  -19.6411 C   0  0  0  0  0  0  0  0  0  0  0  0
   21.9731  -14.1085  -18.5540 C   0  0  1  0  0  0  0  0  0  0  0  0
   20.9381  -14.1206  -17.4598 C   0  0  0  0  0  0  0  0  0  0  0  0
   23.3389  -14.5586  -18.0647 C   0  0  2  0  0  0  0  0  0  0  0  0
   23.2359  -15.9067  -17.5769 N   0  0  0  0  0  0  0  0  0  0  0  0
   23.8873  -13.6241  -17.0590 C   0  0  0  0  0  0  0  0  0  0  0  0
   23.7703  -13.8462  -15.8281 O   0  0  0  0  0  0  0  0  0  0  0  0
   24.5607  -12.4533  -17.4872 N   0  0  0  0  0  0  0  0  0  0  0  0
   25.1263  -11.4937  -16.5533 C   0  0  1  0  0  0  0  0  0  0  0  0
   26.6021  -11.3532  -16.8502 C   0  0  0  0  0  0  0  0  0  0  0  0
   27.3046  -10.4199  -15.9677 C   0  0  0  0  0  0  0  0  0  0  0  0
   26.6867   -9.7867  -15.0552 O   0  0  0  0  0  0  0  0  0  0  0  0
   24.3706  -10.2470  -16.6033 C   0  0  0  0  0  0  0  0  0  0  0  0
   24.0666   -9.6460  -17.6709 O   0  0  0  0  0  0  0  0  0  0  0  0
   28.6750  -10.1554  -16.0531 O   0  0  0  0  0  0  0  0  0  0  0  0
   23.9305   -9.6409  -15.3874 N   0  0  0  0  0  0  0  0  0  0  0  0
   23.1756   -8.4081  -15.3742 C   0  0  0  0  0  0  0  0  0  0  0  0
   23.9975   -7.2959  -15.9100 C   0  0  0  0  0  0  0  0  0  0  0  0
   25.1707   -7.5442  -16.2854 O   0  0  0  0  0  0  0  0  0  0  0  0
   23.5063   -6.0059  -16.0041 O   0  0  0  0  0  0  0  0  0  0  0  0
  2  1  1  6
  3  2  1  0
  4  2  1  0
  4  5  1  1
  6  7  2  0
  6  4  1  0
  8  6  1  0
  9  8  1  0
  9 13  1  0
  9 10  1  6
 11 10  1  0
 11 15  1  0
 12 11  2  0
 13 16  1  0
 14 13  2  0
 16 17  1  0
 17 18  1  0
 18 19  2  0
 18 20  1  0
M  END
$$$$
