VDG.pdb
     RDKit          3D

 20 19  0  0  1  0  0  0  0  0999 V2000
   25.7525  -20.7958   -9.1730 C   0  0  0  0  0  0  0  0  0  0  0  0
   26.1423  -20.6356  -10.6334 C   0  0  1  0  0  0  0  0  0  0  0  0
   26.9573  -21.8353  -11.0399 C   0  0  0  0  0  0  0  0  0  0  0  0
   24.8629  -20.5034  -11.4414 C   0  0  2  0  0  0  0  0  0  0  0  0
   24.0589  -21.6764  -11.2325 N   0  0  0  0  0  0  0  0  0  0  0  0
   25.1496  -20.2504  -12.8694 C   0  0  0  0  0  0  0  0  0  0  0  0
   25.6849  -19.1791  -13.2489 O   0  0  0  0  0  0  0  0  0  0  0  0
   24.8168  -21.2339  -13.8336 N   0  0  0  0  0  0  0  0  0  0  0  0
   25.0083  -21.0242  -15.2592 C   0  0  1  0  0  0  0  0  0  0  0  0
   26.0084  -22.0414  -15.7601 C   0  0  0  0  0  0  0  0  0  0  0  0
   27.4032  -21.6064  -15.6669 C   0  0  0  0  0  0  0  0  0  0  0  0
   27.6997  -20.3835  -15.4882 O   0  0  0  0  0  0  0  0  0  0  0  0
   23.7195  -21.0454  -15.9421 C   0  0  0  0  0  0  0  0  0  0  0  0
   22.9416  -22.0394  -15.9547 O   0  0  0  0  0  0  0  0  0  0  0  0
   28.4940  -22.4759  -15.7640 O   0  0  0  0  0  0  0  0  0  0  0  0
   23.2783  -19.8863  -16.6500 N   0  0  0  0  0  0  0  0  0  0  0  0
   22.0506  -19.8747  -17.4132 C   0  0  0  0  0  0  0  0  0  0  0  0
   21.9038  -18.5855  -18.1315 C   0  0  0  0  0  0  0  0  0  0  0  0
   20.9338  -17.8426  -17.8380 O   0  0  0  0  0  0  0  0  0  0  0  0
   22.8012  -18.1878  -19.1067 O   0  0  0  0  0  0  0  0  0  0  0  0
  2  1  1  1
  3  2  1  0
  4  2  1  0
  4  5  1  6
  6  7  2  0
  6  4  1  0
  8  6  1  0
  9  8  1  0
  9 13  1  0
  9 10  1  6
 11 10  1  0
 11 15  1  0
 12 11  2  0
 13 16  1  0
 14 13  2  0
 16 17  1  0
 17 18  1  0
 18 19  2  0
 18 20  1  0
M  END
$$$$
