VDG.pdb
     RDKit          3D

 20 19  0  0  1  0  0  0  0  0999 V2000
   15.6309   -8.9621  -16.3360 C   0  0  0  0  0  0  0  0  0  0  0  0
   15.8158  -10.0398  -15.2802 C   0  0  1  0  0  0  0  0  0  0  0  0
   15.5204  -11.3754  -15.9107 C   0  0  0  0  0  0  0  0  0  0  0  0
   17.2423   -9.9441  -14.7670 C   0  0  2  0  0  0  0  0  0  0  0  0
   17.4805  -11.0283  -13.8539 N   0  0  0  0  0  0  0  0  0  0  0  0
   17.5135   -8.6196  -14.1690 C   0  0  0  0  0  0  0  0  0  0  0  0
   17.4742   -7.5705  -14.8590 O   0  0  0  0  0  0  0  0  0  0  0  0
   17.8232   -8.5261  -12.7896 N   0  0  0  0  0  0  0  0  0  0  0  0
   18.1436   -7.2625  -12.1464 C   0  0  1  0  0  0  0  0  0  0  0  0
   17.5492   -7.2716  -10.7562 C   0  0  0  0  0  0  0  0  0  0  0  0
   17.8310   -6.0651   -9.9763 C   0  0  0  0  0  0  0  0  0  0  0  0
   18.0823   -4.9575  -10.5467 O   0  0  0  0  0  0  0  0  0  0  0  0
   19.5829   -7.0309  -12.1951 C   0  0  0  0  0  0  0  0  0  0  0  0
   20.4399   -7.7878  -11.6602 O   0  0  0  0  0  0  0  0  0  0  0  0
   17.8466   -6.0324   -8.5783 O   0  0  0  0  0  0  0  0  0  0  0  0
   20.0894   -5.8865  -12.8829 N   0  0  0  0  0  0  0  0  0  0  0  0
   21.5053   -5.6787  -13.0871 C   0  0  0  0  0  0  0  0  0  0  0  0
   21.7311   -4.5146  -13.9779 C   0  0  0  0  0  0  0  0  0  0  0  0
   20.7312   -3.9224  -14.4557 O   0  0  0  0  0  0  0  0  0  0  0  0
   23.0041   -4.0718  -14.2906 O   0  0  0  0  0  0  0  0  0  0  0  0
  2  1  1  6
  3  2  1  0
  4  2  1  0
  4  5  1  1
  6  7  2  0
  6  4  1  0
  8  6  1  0
  9  8  1  0
  9 13  1  0
  9 10  1  1
 11 10  1  0
 11 15  1  0
 12 11  2  0
 13 16  1  0
 14 13  2  0
 16 17  1  0
 17 18  1  0
 18 19  2  0
 18 20  1  0
M  END
$$$$
