GKS.pdb
     RDKit          3D

 20 19  0  0  1  0  0  0  0  0999 V2000
   19.4555  -22.6197  -12.0052 N   0  0  0  0  0  0  0  0  0  0  0  0
   19.7538  -22.6767  -13.4121 C   0  0  0  0  0  0  0  0  0  0  0  0
   20.4528  -21.4266  -13.8220 C   0  0  0  0  0  0  0  0  0  0  0  0
   20.1705  -20.3649  -13.2383 O   0  0  0  0  0  0  0  0  0  0  0  0
   21.4195  -21.4787  -14.8643 N   0  0  0  0  0  0  0  0  0  0  0  0
   21.9780  -20.2925  -15.4072 C   0  0  1  0  0  0  0  0  0  0  0  0
   23.2962  -20.3686  -16.0629 C   0  0  0  0  0  0  0  0  0  0  0  0
   24.3575  -21.1070  -15.3146 C   0  0  0  0  0  0  0  0  0  0  0  0
   25.6201  -21.3843  -16.0402 C   0  0  0  0  0  0  0  0  0  0  0  0
   26.5488  -22.2373  -15.1979 C   0  0  0  0  0  0  0  0  0  0  0  0
   27.7702  -22.5096  -15.9608 N   0  0  0  0  0  0  0  0  0  0  0  0
   20.9384  -19.6529  -16.3102 C   0  0  0  0  0  0  0  0  0  0  0  0
   20.1229  -20.3434  -16.9695 O   0  0  0  0  0  0  0  0  0  0  0  0
   19.1792  -16.1288  -15.6445 O   0  0  0  0  0  0  0  0  0  0  0  0
   19.6412  -16.1970  -16.9465 C   0  0  0  0  0  0  0  0  0  0  0  0
   19.8345  -17.6446  -17.3503 C   0  0  2  0  0  0  0  0  0  0  0  0
   20.8302  -18.2482  -16.4586 N   0  0  0  0  0  0  0  0  0  0  0  0
   20.2458  -17.7433  -18.7594 C   0  0  0  0  0  0  0  0  0  0  0  0
   19.3511  -17.3002  -19.7228 O   0  0  0  0  0  0  0  0  0  0  0  0
   21.3554  -18.2049  -19.1148 O   0  0  0  0  0  0  0  0  0  0  0  0
  2  1  1  0
  3  4  2  0
  3  2  1  0
  5  3  1  0
  6  5  1  0
  6  7  1  6
  8  7  1  0
  9  8  1  0
 10 11  1  0
 10  9  1  0
 12  6  1  0
 12 13  2  0
 15 14  1  0
 16 15  1  1
 17 16  1  0
 17 12  1  0
 18 19  1  0
 18 16  1  0
 20 18  2  0
M  END
$$$$
