GKS.pdb
     RDKit          3D

 20 19  0  0  1  0  0  0  0  0999 V2000
   20.9452  -14.3144  -17.1118 N   0  0  0  0  0  0  0  0  0  0  0  0
   19.9270  -13.8555  -18.0197 C   0  0  0  0  0  0  0  0  0  0  0  0
   19.7344  -12.3882  -17.8484 C   0  0  0  0  0  0  0  0  0  0  0  0
   20.5171  -11.6112  -18.4241 O   0  0  0  0  0  0  0  0  0  0  0  0
   18.6667  -11.9159  -17.0357 N   0  0  0  0  0  0  0  0  0  0  0  0
   18.3843  -10.5294  -16.9279 C   0  0  1  0  0  0  0  0  0  0  0  0
   16.9891  -10.1082  -16.7057 C   0  0  0  0  0  0  0  0  0  0  0  0
   16.7423   -8.6348  -16.7076 C   0  0  0  0  0  0  0  0  0  0  0  0
   15.3457   -8.1885  -16.4885 C   0  0  0  0  0  0  0  0  0  0  0  0
   15.2369   -6.6809  -16.6109 C   0  0  0  0  0  0  0  0  0  0  0  0
   13.8208   -6.3035  -16.6191 N   0  0  0  0  0  0  0  0  0  0  0  0
   19.3210   -9.9372  -15.8901 C   0  0  0  0  0  0  0  0  0  0  0  0
   19.3428  -10.3551  -14.7063 O   0  0  0  0  0  0  0  0  0  0  0  0
   22.7416   -7.9391  -16.9614 O   0  0  0  0  0  0  0  0  0  0  0  0
   22.5882   -8.6294  -15.7726 C   0  0  0  0  0  0  0  0  0  0  0  0
   21.1969   -8.3997  -15.2183 C   0  0  2  0  0  0  0  0  0  0  0  0
   20.2191   -8.8855  -16.1975 N   0  0  0  0  0  0  0  0  0  0  0  0
   20.9860   -6.9768  -14.9096 C   0  0  0  0  0  0  0  0  0  0  0  0
   21.7723   -6.4112  -13.9162 O   0  0  0  0  0  0  0  0  0  0  0  0
   20.1369   -6.2697  -15.5009 O   0  0  0  0  0  0  0  0  0  0  0  0
  2  1  1  0
  3  4  2  0
  3  2  1  0
  5  3  1  0
  6  5  1  0
  6  7  1  1
  8  7  1  0
  9  8  1  0
 10 11  1  0
 10  9  1  0
 12  6  1  0
 12 13  2  0
 15 14  1  0
 16 15  1  6
 17 16  1  0
 17 12  1  0
 18 19  1  0
 18 16  1  0
 20 18  2  0
M  END
$$$$
