GKS.pdb
     RDKit          3D

 20 19  0  0  1  0  0  0  0  0999 V2000
   25.6784  -32.9258    2.4058 N   0  0  0  0  0  0  0  0  0  0  0  0
   26.8099  -32.6349    1.5652 C   0  0  0  0  0  0  0  0  0  0  0  0
   27.3430  -33.9036    0.9945 C   0  0  0  0  0  0  0  0  0  0  0  0
   26.9658  -34.9838    1.4828 O   0  0  0  0  0  0  0  0  0  0  0  0
   28.2643  -33.8475   -0.0880 N   0  0  0  0  0  0  0  0  0  0  0  0
   28.7838  -35.0322   -0.6715 C   0  0  1  0  0  0  0  0  0  0  0  0
   29.2914  -34.9741   -2.0544 C   0  0  0  0  0  0  0  0  0  0  0  0
   28.2569  -34.8716   -3.1272 C   0  0  0  0  0  0  0  0  0  0  0  0
   28.7297  -34.9845   -4.5278 C   0  0  0  0  0  0  0  0  0  0  0  0
   27.5684  -34.8837   -5.4977 C   0  0  0  0  0  0  0  0  0  0  0  0
   28.0878  -34.9040   -6.8681 N   0  0  0  0  0  0  0  0  0  0  0  0
   29.8142  -35.6133    0.2802 C   0  0  0  0  0  0  0  0  0  0  0  0
   30.8361  -34.9678    0.6202 O   0  0  0  0  0  0  0  0  0  0  0  0
   29.2048  -37.4321    3.6578 O   0  0  0  0  0  0  0  0  0  0  0  0
   29.9310  -38.2649    2.8257 C   0  0  0  0  0  0  0  0  0  0  0  0
   30.6638  -37.4431    1.7849 C   0  0  2  0  0  0  0  0  0  0  0  0
   29.6811  -36.9097    0.8357 N   0  0  0  0  0  0  0  0  0  0  0  0
   31.6840  -38.2542    1.1024 C   0  0  0  0  0  0  0  0  0  0  0  0
   31.5974  -38.3679   -0.2777 O   0  0  0  0  0  0  0  0  0  0  0  0
   32.6119  -38.8358    1.7117 O   0  0  0  0  0  0  0  0  0  0  0  0
  2  1  1  0
  3  4  2  0
  3  2  1  0
  5  3  1  0
  6  5  1  0
  6  7  1  6
  8  7  1  0
  9  8  1  0
 10 11  1  0
 10  9  1  0
 12  6  1  0
 12 13  2  0
 15 14  1  0
 16 15  1  1
 17 16  1  0
 17 12  1  0
 18 19  1  0
 18 16  1  0
 20 18  2  0
M  END
$$$$
