GKS.pdb
     RDKit          3D

 20 19  0  0  1  0  0  0  0  0999 V2000
   17.2803  -12.3310  -14.0864 N   0  0  0  0  0  0  0  0  0  0  0  0
   17.3586  -12.1347  -12.6627 C   0  0  0  0  0  0  0  0  0  0  0  0
   16.5018  -10.9799  -12.2734 C   0  0  0  0  0  0  0  0  0  0  0  0
   16.1888  -10.1475  -13.1433 O   0  0  0  0  0  0  0  0  0  0  0  0
   16.0659  -10.8593  -10.9246 N   0  0  0  0  0  0  0  0  0  0  0  0
   15.2100   -9.8015  -10.5218 C   0  0  1  0  0  0  0  0  0  0  0  0
   14.0929  -10.1058   -9.6092 C   0  0  0  0  0  0  0  0  0  0  0  0
   12.9948  -10.9450  -10.1763 C   0  0  0  0  0  0  0  0  0  0  0  0
   11.8196  -11.1889   -9.3062 C   0  0  0  0  0  0  0  0  0  0  0  0
   10.7945  -12.0524  -10.0157 C   0  0  0  0  0  0  0  0  0  0  0  0
    9.6449  -12.2545   -9.1293 N   0  0  0  0  0  0  0  0  0  0  0  0
   16.0748   -8.6714   -9.9924 C   0  0  0  0  0  0  0  0  0  0  0  0
   16.9275   -8.8603   -9.0903 O   0  0  0  0  0  0  0  0  0  0  0  0
   17.7358   -4.1651  -10.5745 O   0  0  0  0  0  0  0  0  0  0  0  0
   16.9846   -5.2242  -11.0514 C   0  0  0  0  0  0  0  0  0  0  0  0
   16.8118   -6.2652   -9.9641 C   0  0  2  0  0  0  0  0  0  0  0  0
   15.9693   -7.3471  -10.4844 N   0  0  0  0  0  0  0  0  0  0  0  0
   16.2284   -5.6649   -8.7543 C   0  0  0  0  0  0  0  0  0  0  0  0
   17.0915   -5.0373   -7.8677 O   0  0  0  0  0  0  0  0  0  0  0  0
   15.0017   -5.6994   -8.5000 O   0  0  0  0  0  0  0  0  0  0  0  0
  2  1  1  0
  3  4  2  0
  3  2  1  0
  5  3  1  0
  6  5  1  0
  6  7  1  1
  8  7  1  0
  9  8  1  0
 10 11  1  0
 10  9  1  0
 12  6  1  0
 12 13  2  0
 15 14  1  0
 16 15  1  6
 17 16  1  0
 17 12  1  0
 18 19  1  0
 18 16  1  0
 20 18  2  0
M  END
$$$$
