GKS.pdb
     RDKit          3D

 20 19  0  0  1  0  0  0  0  0999 V2000
   20.8550  -11.1527  -16.4765 N   0  0  0  0  0  0  0  0  0  0  0  0
   20.6714  -10.9766  -15.0598 C   0  0  0  0  0  0  0  0  0  0  0  0
   19.2901  -10.4849  -14.7960 C   0  0  0  0  0  0  0  0  0  0  0  0
   18.4996  -10.3816  -15.7510 O   0  0  0  0  0  0  0  0  0  0  0  0
   18.9126  -10.1482  -13.4664 N   0  0  0  0  0  0  0  0  0  0  0  0
   17.6240   -9.6279  -13.1789 C   0  0  1  0  0  0  0  0  0  0  0  0
   16.8865  -10.1677  -12.0222 C   0  0  0  0  0  0  0  0  0  0  0  0
   15.4854   -9.6779  -11.8531 C   0  0  0  0  0  0  0  0  0  0  0  0
   14.7606  -10.1248  -10.6395 C   0  0  0  0  0  0  0  0  0  0  0  0
   13.4207   -9.4240  -10.5241 C   0  0  0  0  0  0  0  0  0  0  0  0
   12.7874   -9.8100   -9.2600 N   0  0  0  0  0  0  0  0  0  0  0  0
   17.7296   -8.1144  -13.1200 C   0  0  0  0  0  0  0  0  0  0  0  0
   18.4433   -7.5358  -12.2643 O   0  0  0  0  0  0  0  0  0  0  0  0
   16.7784   -5.8363  -16.3107 O   0  0  0  0  0  0  0  0  0  0  0  0
   17.6028   -5.3173  -15.3287 C   0  0  0  0  0  0  0  0  0  0  0  0
   17.1600   -5.8141  -13.9675 C   0  0  2  0  0  0  0  0  0  0  0  0
   17.0327   -7.2741  -14.0230 N   0  0  0  0  0  0  0  0  0  0  0  0
   15.8947   -5.1798  -13.5662 C   0  0  0  0  0  0  0  0  0  0  0  0
   15.9035   -3.8097  -13.3475 O   0  0  0  0  0  0  0  0  0  0  0  0
   14.8281   -5.8207  -13.4175 O   0  0  0  0  0  0  0  0  0  0  0  0
  2  1  1  0
  3  4  2  0
  3  2  1  0
  5  3  1  0
  6  5  1  0
  6  7  1  1
  8  7  1  0
  9  8  1  0
 10 11  1  0
 10  9  1  0
 12  6  1  0
 12 13  2  0
 15 14  1  0
 16 15  1  6
 17 16  1  0
 17 12  1  0
 18 19  1  0
 18 16  1  0
 20 18  2  0
M  END
$$$$
