GKS.pdb
     RDKit          3D

 20 19  0  0  1  0  0  0  0  0999 V2000
   19.6297  -20.7203  -13.9542 N   0  0  0  0  0  0  0  0  0  0  0  0
   20.4437  -20.3256  -15.0737 C   0  0  0  0  0  0  0  0  0  0  0  0
   21.6585  -19.6193  -14.5790 C   0  0  0  0  0  0  0  0  0  0  0  0
   21.6058  -18.3884  -14.4062 O   0  0  0  0  0  0  0  0  0  0  0  0
   22.8409  -20.3661  -14.3183 N   0  0  0  0  0  0  0  0  0  0  0  0
   24.0053  -19.7402  -13.8024 C   0  0  1  0  0  0  0  0  0  0  0  0
   24.7124  -20.3811  -12.6786 C   0  0  0  0  0  0  0  0  0  0  0  0
   24.0704  -20.2417  -11.3369 C   0  0  0  0  0  0  0  0  0  0  0  0
   24.7205  -20.9460  -10.2060 C   0  0  0  0  0  0  0  0  0  0  0  0
   23.9797  -20.6810   -8.9095 C   0  0  0  0  0  0  0  0  0  0  0  0
   24.6233  -21.4340   -7.8294 N   0  0  0  0  0  0  0  0  0  0  0  0
   24.9406  -19.4550  -14.9639 C   0  0  0  0  0  0  0  0  0  0  0  0
   25.0836  -20.2674  -15.9105 O   0  0  0  0  0  0  0  0  0  0  0  0
   28.1291  -16.3806  -16.9943 O   0  0  0  0  0  0  0  0  0  0  0  0
   27.1434  -16.5978  -16.0485 C   0  0  0  0  0  0  0  0  0  0  0  0
   26.6430  -18.0249  -16.1431 C   0  0  2  0  0  0  0  0  0  0  0  0
   25.7004  -18.2620  -15.0448 N   0  0  0  0  0  0  0  0  0  0  0  0
   27.7651  -18.9756  -16.1022 C   0  0  0  0  0  0  0  0  0  0  0  0
   28.5814  -19.0551  -17.2213 O   0  0  0  0  0  0  0  0  0  0  0  0
   28.0060  -19.7033  -15.1107 O   0  0  0  0  0  0  0  0  0  0  0  0
  2  1  1  0
  3  4  2  0
  3  2  1  0
  5  3  1  0
  6  5  1  0
  6  7  1  1
  8  7  1  0
  9  8  1  0
 10 11  1  0
 10  9  1  0
 12  6  1  0
 12 13  2  0
 15 14  1  0
 16 15  1  1
 17 16  1  0
 17 12  1  0
 18 19  1  0
 18 16  1  0
 20 18  2  0
M  END
$$$$
