GKS.pdb
     RDKit          3D

 20 19  0  0  1  0  0  0  0  0999 V2000
   14.1301  -11.7243  -14.1969 N   0  0  0  0  0  0  0  0  0  0  0  0
   14.6122  -10.5207  -14.8219 C   0  0  0  0  0  0  0  0  0  0  0  0
   16.0992  -10.5650  -14.9023 C   0  0  0  0  0  0  0  0  0  0  0  0
   16.7502  -10.7219  -13.8539 O   0  0  0  0  0  0  0  0  0  0  0  0
   16.7328  -10.4276  -16.1685 N   0  0  0  0  0  0  0  0  0  0  0  0
   18.1470  -10.4339  -16.2860 C   0  0  1  0  0  0  0  0  0  0  0  0
   18.7486  -10.9031  -17.5475 C   0  0  0  0  0  0  0  0  0  0  0  0
   19.3992  -12.2470  -17.5020 C   0  0  0  0  0  0  0  0  0  0  0  0
   18.5061  -13.4194  -17.3417 C   0  0  0  0  0  0  0  0  0  0  0  0
   19.3129  -14.6966  -17.2095 C   0  0  0  0  0  0  0  0  0  0  0  0
   18.4024  -15.8090  -16.9236 N   0  0  0  0  0  0  0  0  0  0  0  0
   18.6580   -9.0577  -15.8987 C   0  0  0  0  0  0  0  0  0  0  0  0
   17.9975   -8.0172  -16.1390 O   0  0  0  0  0  0  0  0  0  0  0  0
   20.6332   -7.9515  -12.5874 O   0  0  0  0  0  0  0  0  0  0  0  0
   21.3458   -7.6518  -13.7345 C   0  0  0  0  0  0  0  0  0  0  0  0
   20.4006   -7.5329  -14.9128 C   0  0  2  0  0  0  0  0  0  0  0  0
   19.9021   -8.8710  -15.2473 N   0  0  0  0  0  0  0  0  0  0  0  0
   21.0745   -6.9083  -16.0619 C   0  0  0  0  0  0  0  0  0  0  0  0
   21.4997   -5.5951  -15.9218 O   0  0  0  0  0  0  0  0  0  0  0  0
   21.2747   -7.5089  -17.1435 O   0  0  0  0  0  0  0  0  0  0  0  0
  2  1  1  0
  3  4  2  0
  3  2  1  0
  5  3  1  0
  6  5  1  0
  6  7  1  6
  8  7  1  0
  9  8  1  0
 10 11  1  0
 10  9  1  0
 12  6  1  0
 12 13  2  0
 15 14  1  0
 16 15  1  1
 17 16  1  0
 17 12  1  0
 18 19  1  0
 18 16  1  0
 20 18  2  0
M  END
$$$$
