GKS.pdb
     RDKit          3D

 20 19  0  0  1  0  0  0  0  0999 V2000
   35.2366  -10.7688  -17.4370 N   0  0  0  0  0  0  0  0  0  0  0  0
   34.1193  -10.2171  -16.7166 C   0  0  0  0  0  0  0  0  0  0  0  0
   32.9363  -10.1411  -17.6188 C   0  0  0  0  0  0  0  0  0  0  0  0
   33.0406  -10.5762  -18.7795 O   0  0  0  0  0  0  0  0  0  0  0  0
   31.7246   -9.5761  -17.1326 N   0  0  0  0  0  0  0  0  0  0  0  0
   30.5675   -9.5057  -17.9510 C   0  0  1  0  0  0  0  0  0  0  0  0
   29.3656  -10.2542  -17.5404 C   0  0  0  0  0  0  0  0  0  0  0  0
   28.2277  -10.2465  -18.5083 C   0  0  0  0  0  0  0  0  0  0  0  0
   26.9542  -10.8522  -18.0510 C   0  0  0  0  0  0  0  0  0  0  0  0
   25.8859  -10.7310  -19.1204 C   0  0  0  0  0  0  0  0  0  0  0  0
   24.6454  -11.3354  -18.6267 N   0  0  0  0  0  0  0  0  0  0  0  0
   30.2572   -8.0410  -18.2029 C   0  0  0  0  0  0  0  0  0  0  0  0
   29.9622   -7.2586  -17.2662 O   0  0  0  0  0  0  0  0  0  0  0  0
   30.8972   -6.4449  -21.9090 O   0  0  0  0  0  0  0  0  0  0  0  0
   30.9855   -5.5807  -20.8326 C   0  0  0  0  0  0  0  0  0  0  0  0
   30.0645   -6.0437  -19.7221 C   0  0  2  0  0  0  0  0  0  0  0  0
   30.2835   -7.4771  -19.5023 N   0  0  0  0  0  0  0  0  0  0  0  0
   28.6601   -5.7602  -20.0560 C   0  0  0  0  0  0  0  0  0  0  0  0
   27.8143   -6.8427  -20.2501 O   0  0  0  0  0  0  0  0  0  0  0  0
   28.2080   -4.5968  -20.1695 O   0  0  0  0  0  0  0  0  0  0  0  0
  2  1  1  0
  3  4  2  0
  3  2  1  0
  5  3  1  0
  6  5  1  0
  6  7  1  1
  8  7  1  0
  9  8  1  0
 10 11  1  0
 10  9  1  0
 12  6  1  0
 12 13  2  0
 15 14  1  0
 16 15  1  6
 17 16  1  0
 17 12  1  0
 18 19  1  0
 18 16  1  0
 20 18  2  0
M  END
$$$$
