GKS.pdb
     RDKit          3D

 20 19  0  0  1  0  0  0  0  0999 V2000
   19.6181  -21.4817  -13.5011 N   0  0  0  0  0  0  0  0  0  0  0  0
   20.3905  -22.5474  -12.9186 C   0  0  0  0  0  0  0  0  0  0  0  0
   19.4714  -23.5684  -12.3423 C   0  0  0  0  0  0  0  0  0  0  0  0
   18.2463  -23.4332  -12.5110 O   0  0  0  0  0  0  0  0  0  0  0  0
   20.0151  -24.6655  -11.6181 N   0  0  0  0  0  0  0  0  0  0  0  0
   19.1761  -25.6665  -11.0632 C   0  0  1  0  0  0  0  0  0  0  0  0
   19.7876  -26.9297  -10.6116 C   0  0  0  0  0  0  0  0  0  0  0  0
   18.8374  -28.0261  -10.2558 C   0  0  0  0  0  0  0  0  0  0  0  0
   18.6609  -29.1100  -11.2517 C   0  0  0  0  0  0  0  0  0  0  0  0
   17.7291  -30.1822  -10.7208 C   0  0  0  0  0  0  0  0  0  0  0  0
   17.4982  -31.1771  -11.7719 N   0  0  0  0  0  0  0  0  0  0  0  0
   18.3388  -25.0266   -9.9703 C   0  0  0  0  0  0  0  0  0  0  0  0
   18.8662  -24.4418   -8.9923 O   0  0  0  0  0  0  0  0  0  0  0  0
   14.5295  -22.6200   -8.7238 O   0  0  0  0  0  0  0  0  0  0  0  0
   15.2594  -23.3248   -9.6639 C   0  0  0  0  0  0  0  0  0  0  0  0
   16.1256  -24.3596   -8.9749 C   0  0  2  0  0  0  0  0  0  0  0  0
   16.9225  -25.0525   -9.9925 N   0  0  0  0  0  0  0  0  0  0  0  0
   15.2998  -25.3031   -8.2053 C   0  0  0  0  0  0  0  0  0  0  0  0
   15.0229  -24.9850   -6.8835 O   0  0  0  0  0  0  0  0  0  0  0  0
   14.8456  -26.3650   -8.6917 O   0  0  0  0  0  0  0  0  0  0  0  0
  2  1  1  0
  3  4  2  0
  3  2  1  0
  5  3  1  0
  6  5  1  0
  6  7  1  1
  8  7  1  0
  9  8  1  0
 10 11  1  0
 10  9  1  0
 12  6  1  0
 12 13  2  0
 15 14  1  0
 16 15  1  6
 17 16  1  0
 17 12  1  0
 18 19  1  0
 18 16  1  0
 20 18  2  0
M  END
$$$$
