GKS.pdb
     RDKit          3D

 20 19  0  0  1  0  0  0  0  0999 V2000
   17.3958  -13.1856  -12.9340 N   0  0  0  0  0  0  0  0  0  0  0  0
   17.6946  -12.3493  -11.8014 C   0  0  0  0  0  0  0  0  0  0  0  0
   17.0664  -11.0121  -11.9928 C   0  0  0  0  0  0  0  0  0  0  0  0
   16.9750  -10.5539  -13.1458 O   0  0  0  0  0  0  0  0  0  0  0  0
   16.5899  -10.2974  -10.8588 N   0  0  0  0  0  0  0  0  0  0  0  0
   15.8843   -9.0750  -11.0051 C   0  0  1  0  0  0  0  0  0  0  0  0
   15.0252   -8.6187   -9.8973 C   0  0  0  0  0  0  0  0  0  0  0  0
   13.7275   -9.3408   -9.7355 C   0  0  0  0  0  0  0  0  0  0  0  0
   12.8853   -8.9553   -8.5780 C   0  0  0  0  0  0  0  0  0  0  0  0
   11.5570   -9.6861   -8.6117 C   0  0  0  0  0  0  0  0  0  0  0  0
   10.7366   -9.2377   -7.4831 N   0  0  0  0  0  0  0  0  0  0  0  0
   16.8773   -8.0049  -11.4221 C   0  0  0  0  0  0  0  0  0  0  0  0
   17.9638   -7.8405  -10.8146 O   0  0  0  0  0  0  0  0  0  0  0  0
   19.3695   -5.9343  -14.5957 O   0  0  0  0  0  0  0  0  0  0  0  0
   18.4542   -6.8362  -14.0838 C   0  0  0  0  0  0  0  0  0  0  0  0
   17.6499   -6.1837  -12.9778 C   0  0  2  0  0  0  0  0  0  0  0  0
   16.6355   -7.1364  -12.5149 N   0  0  0  0  0  0  0  0  0  0  0  0
   17.0361   -4.9318  -13.4473 C   0  0  0  0  0  0  0  0  0  0  0  0
   17.7756   -3.7650  -13.3172 O   0  0  0  0  0  0  0  0  0  0  0  0
   15.8899   -4.8819  -13.9516 O   0  0  0  0  0  0  0  0  0  0  0  0
  2  1  1  0
  3  4  2  0
  3  2  1  0
  5  3  1  0
  6  5  1  0
  6  7  1  1
  8  7  1  0
  9  8  1  0
 10 11  1  0
 10  9  1  0
 12  6  1  0
 12 13  2  0
 15 14  1  0
 16 15  1  6
 17 16  1  0
 17 12  1  0
 18 19  1  0
 18 16  1  0
 20 18  2  0
M  END
$$$$
