GKS.pdb
     RDKit          3D

 20 19  0  0  1  0  0  0  0  0999 V2000
   26.5560  -11.9935  -16.1868 N   0  0  0  0  0  0  0  0  0  0  0  0
   25.3601  -12.2418  -15.4254 C   0  0  0  0  0  0  0  0  0  0  0  0
   24.2671  -11.3562  -15.9156 C   0  0  0  0  0  0  0  0  0  0  0  0
   24.4532  -10.6948  -16.9527 O   0  0  0  0  0  0  0  0  0  0  0  0
   23.0457  -11.2897  -15.1894 N   0  0  0  0  0  0  0  0  0  0  0  0
   21.9218  -10.5941  -15.7059 C   0  0  1  0  0  0  0  0  0  0  0  0
   20.5808  -11.1744  -15.5094 C   0  0  0  0  0  0  0  0  0  0  0  0
   19.6474  -11.0730  -16.6713 C   0  0  0  0  0  0  0  0  0  0  0  0
   18.2871  -11.6337  -16.4896 C   0  0  0  0  0  0  0  0  0  0  0  0
   17.4896  -11.5387  -17.7759 C   0  0  0  0  0  0  0  0  0  0  0  0
   16.1938  -12.1960  -17.5839 N   0  0  0  0  0  0  0  0  0  0  0  0
   21.9894   -9.1591  -15.2145 C   0  0  0  0  0  0  0  0  0  0  0  0
   22.2953   -8.8816  -14.0288 O   0  0  0  0  0  0  0  0  0  0  0  0
   23.1329   -6.1952  -17.5507 O   0  0  0  0  0  0  0  0  0  0  0  0
   22.0418   -5.7792  -16.8092 C   0  0  0  0  0  0  0  0  0  0  0  0
   21.8683   -6.6750  -15.5994 C   0  0  2  0  0  0  0  0  0  0  0  0
   21.7131   -8.0580  -16.0620 N   0  0  0  0  0  0  0  0  0  0  0  0
   20.7150   -6.2460  -14.7930 C   0  0  0  0  0  0  0  0  0  0  0  0
   20.8105   -5.0311  -14.1298 O   0  0  0  0  0  0  0  0  0  0  0  0
   19.6679   -6.9262  -14.6854 O   0  0  0  0  0  0  0  0  0  0  0  0
  2  1  1  0
  3  4  2  0
  3  2  1  0
  5  3  1  0
  6  5  1  0
  6  7  1  1
  8  7  1  0
  9  8  1  0
 10 11  1  0
 10  9  1  0
 12  6  1  0
 12 13  2  0
 15 14  1  0
 16 15  1  6
 17 16  1  0
 17 12  1  0
 18 19  1  0
 18 16  1  0
 20 18  2  0
M  END
$$$$
