GKS.pdb
     RDKit          3D

 20 19  0  0  1  0  0  0  0  0999 V2000
   17.0026   -9.5844  -11.1407 N   0  0  0  0  0  0  0  0  0  0  0  0
   16.7929   -8.9657  -12.4232 C   0  0  0  0  0  0  0  0  0  0  0  0
   18.0992   -8.8253  -13.1257 C   0  0  0  0  0  0  0  0  0  0  0  0
   19.1376   -8.7413  -12.4459 O   0  0  0  0  0  0  0  0  0  0  0  0
   18.1253   -8.7911  -14.5476 N   0  0  0  0  0  0  0  0  0  0  0  0
   19.3387   -8.5864  -15.2545 C   0  0  1  0  0  0  0  0  0  0  0  0
   19.4091   -8.9950  -16.6693 C   0  0  0  0  0  0  0  0  0  0  0  0
   20.3715  -10.0929  -16.9860 C   0  0  0  0  0  0  0  0  0  0  0  0
   19.8213  -11.4677  -17.0549 C   0  0  0  0  0  0  0  0  0  0  0  0
   20.9023  -12.4618  -17.4328 C   0  0  0  0  0  0  0  0  0  0  0  0
   20.3135  -13.8018  -17.5080 N   0  0  0  0  0  0  0  0  0  0  0  0
   19.7540   -7.1380  -15.0677 C   0  0  0  0  0  0  0  0  0  0  0  0
   18.9260   -6.1981  -15.1536 O   0  0  0  0  0  0  0  0  0  0  0  0
   22.2818   -3.8684  -12.9345 O   0  0  0  0  0  0  0  0  0  0  0  0
   21.8476   -5.1661  -13.1363 C   0  0  0  0  0  0  0  0  0  0  0  0
   21.4761   -5.3655  -14.5917 C   0  0  2  0  0  0  0  0  0  0  0  0
   21.0922   -6.7675  -14.7868 N   0  0  0  0  0  0  0  0  0  0  0  0
   22.5922   -4.9869  -15.4722 C   0  0  0  0  0  0  0  0  0  0  0  0
   22.6551   -3.6685  -15.8997 O   0  0  0  0  0  0  0  0  0  0  0  0
   23.4726   -5.7978  -15.8436 O   0  0  0  0  0  0  0  0  0  0  0  0
  2  1  1  0
  3  4  2  0
  3  2  1  0
  5  3  1  0
  6  5  1  0
  6  7  1  6
  8  7  1  0
  9  8  1  0
 10 11  1  0
 10  9  1  0
 12  6  1  0
 12 13  2  0
 15 14  1  0
 16 15  1  1
 17 16  1  0
 17 12  1  0
 18 19  1  0
 18 16  1  0
 20 18  2  0
M  END
$$$$
