HPE.pdb
     RDKit          3D

 27 28  0  0  1  0  0  0  0  0999 V2000
   10.3748  -14.0854   20.6288 N   0  0  0  0  0  0  0  0  0  0  0  0
    9.1774  -14.0215   21.3890 C   0  0  1  0  0  0  0  0  0  0  0  0
    8.0194  -14.7506   20.7179 C   0  0  0  0  0  0  0  0  0  0  0  0
    7.8538  -14.3215   19.3096 C   0  0  0  0  0  0  0  0  0  0  0  0
    7.9564  -13.0584   18.7812 C   0  0  0  0  0  0  0  0  0  0  0  0
    7.7246  -13.1560   17.4570 N   0  0  0  0  0  0  0  0  0  0  0  0
    7.4830  -14.4448   17.1612 C   0  0  0  0  0  0  0  0  0  0  0  0
    7.5644  -15.1463   18.2982 N   0  0  0  0  0  0  0  0  0  0  0  0
    9.3172  -14.4819   22.8092 C   0  0  0  0  0  0  0  0  0  0  0  0
   10.3604  -15.1780   23.0735 O   0  0  0  0  0  0  0  0  0  0  0  0
    8.3619  -14.1729   23.8161 N   0  0  0  0  0  0  0  0  0  0  0  0
    7.0756  -13.5518   23.7091 C   0  0  0  0  0  0  0  0  0  0  0  0
    6.4316  -13.6913   25.0562 C   0  0  0  0  0  0  0  0  0  0  0  0
    7.6264  -13.5959   25.9755 C   0  0  0  0  0  0  0  0  0  0  0  0
    8.6028  -14.4625   25.2146 C   0  0  1  0  0  0  0  0  0  0  0  0
    8.4320  -15.8955   25.5276 C   0  0  0  0  0  0  0  0  0  0  0  0
    7.3346  -16.4479   25.1908 O   0  0  0  0  0  0  0  0  0  0  0  0
    9.3906  -16.6889   26.1691 N   0  0  0  0  0  0  0  0  0  0  0  0
    9.2712  -18.1436   26.3897 C   0  0  1  0  0  0  0  0  0  0  0  0
   10.2085  -18.8796   25.5194 C   0  0  0  0  0  0  0  0  0  0  0  0
   11.5065  -19.2105   26.1672 C   0  0  0  0  0  0  0  0  0  0  0  0
   12.6235  -19.4820   25.2354 C   0  0  0  0  0  0  0  0  0  0  0  0
   12.5144  -19.4518   23.9731 O   0  0  0  0  0  0  0  0  0  0  0  0
    9.1017  -18.4887   27.7705 C   0  0  0  0  0  0  0  0  0  0  0  0
    8.7118  -19.5762   28.2710 O   0  0  0  0  0  0  0  0  0  0  0  0
   13.9030  -19.7962   25.7315 O   0  0  0  0  0  0  0  0  0  0  0  0
    9.4086  -17.4853   28.7276 O   0  0  0  0  0  0  0  0  0  0  0  0
  2  1  1  6
  2  9  1  0
  3  4  1  0
  3  2  1  0
  4  8  1  0
  4  5  2  0
  5  6  1  0
  7  6  1  0
  8  7  2  0
  9 11  1  0
  9 10  2  0
 11 12  1  0
 13 12  1  0
 14 15  1  0
 14 13  1  0
 15 11  1  0
 15 16  1  6
 16 17  2  0
 18 16  1  0
 19 18  1  0
 19 20  1  1
 21 20  1  0
 22 21  1  0
 23 22  2  0
 24 19  1  0
 25 24  2  0
 26 22  1  0
 27 24  1  0
M  END
$$$$
