HPE.pdb
     RDKit          3D

 27 28  0  0  1  0  0  0  0  0999 V2000
    9.9792  -13.6832   20.8350 N   0  0  0  0  0  0  0  0  0  0  0  0
    8.7694  -13.8001   21.5688 C   0  0  1  0  0  0  0  0  0  0  0  0
    7.7520  -14.7010   20.8789 C   0  0  0  0  0  0  0  0  0  0  0  0
    7.5992  -14.3474   19.4483 C   0  0  0  0  0  0  0  0  0  0  0  0
    7.4833  -13.1024   18.8811 C   0  0  0  0  0  0  0  0  0  0  0  0
    7.3651  -13.2760   17.5498 N   0  0  0  0  0  0  0  0  0  0  0  0
    7.4055  -14.5936   17.2872 C   0  0  0  0  0  0  0  0  0  0  0  0
    7.5485  -15.2373   18.4520 N   0  0  0  0  0  0  0  0  0  0  0  0
    8.9463  -14.2273   22.9953 C   0  0  0  0  0  0  0  0  0  0  0  0
   10.0627  -14.7897   23.2785 O   0  0  0  0  0  0  0  0  0  0  0  0
    7.9484  -14.0270   23.9881 N   0  0  0  0  0  0  0  0  0  0  0  0
    6.5725  -13.6525   23.8520 C   0  0  0  0  0  0  0  0  0  0  0  0
    5.9595  -13.8149   25.2109 C   0  0  0  0  0  0  0  0  0  0  0  0
    7.1156  -13.4485   26.1115 C   0  0  0  0  0  0  0  0  0  0  0  0
    8.2327  -14.1764   25.4004 C   0  0  1  0  0  0  0  0  0  0  0  0
    8.3182  -15.5931   25.8081 C   0  0  0  0  0  0  0  0  0  0  0  0
    7.4605  -16.4009   25.3237 O   0  0  0  0  0  0  0  0  0  0  0  0
    9.2748  -16.1104   26.6897 N   0  0  0  0  0  0  0  0  0  0  0  0
    9.6384  -17.5369   26.7980 C   0  0  1  0  0  0  0  0  0  0  0  0
   10.8670  -17.8195   26.0310 C   0  0  0  0  0  0  0  0  0  0  0  0
   11.3120  -19.2378   26.0975 C   0  0  0  0  0  0  0  0  0  0  0  0
   12.5496  -19.5448   25.3468 C   0  0  0  0  0  0  0  0  0  0  0  0
   13.4638  -20.3116   25.7742 O   0  0  0  0  0  0  0  0  0  0  0  0
    9.4373  -18.0679   28.1141 C   0  0  0  0  0  0  0  0  0  0  0  0
    9.3901  -17.4570   29.2139 O   0  0  0  0  0  0  0  0  0  0  0  0
   12.7710  -18.9769   24.0779 O   0  0  0  0  0  0  0  0  0  0  0  0
    9.2644  -19.4735   28.2220 O   0  0  0  0  0  0  0  0  0  0  0  0
  2  1  1  6
  2  9  1  0
  3  4  1  0
  3  2  1  0
  4  8  1  0
  4  5  2  0
  5  6  1  0
  7  6  1  0
  8  7  2  0
  9 11  1  0
  9 10  2  0
 11 12  1  0
 13 12  1  0
 14 15  1  0
 14 13  1  0
 15 11  1  0
 15 16  1  1
 16 17  2  0
 18 16  1  0
 19 18  1  0
 19 20  1  1
 21 20  1  0
 22 21  1  0
 23 22  2  0
 24 19  1  0
 25 24  2  0
 26 22  1  0
 27 24  1  0
M  END
$$$$
