HPE.pdb
     RDKit          3D

 27 28  0  0  1  0  0  0  0  0999 V2000
   10.8748  -14.8819   16.2084 N   0  0  0  0  0  0  0  0  0  0  0  0
    9.7036  -14.8764   17.0110 C   0  0  1  0  0  0  0  0  0  0  0  0
    8.8780  -16.1472   16.8490 C   0  0  0  0  0  0  0  0  0  0  0  0
    8.5105  -16.3762   15.4321 C   0  0  0  0  0  0  0  0  0  0  0  0
    7.4292  -15.8916   14.7385 C   0  0  0  0  0  0  0  0  0  0  0  0
    7.5121  -16.3673   13.4801 N   0  0  0  0  0  0  0  0  0  0  0  0
    8.6149  -17.1299   13.3853 C   0  0  0  0  0  0  0  0  0  0  0  0
    9.2159  -17.1282   14.5813 N   0  0  0  0  0  0  0  0  0  0  0  0
    9.9480  -14.6074   18.4658 C   0  0  0  0  0  0  0  0  0  0  0  0
   11.1295  -14.8613   18.8928 O   0  0  0  0  0  0  0  0  0  0  0  0
    8.9431  -14.0994   19.3340 N   0  0  0  0  0  0  0  0  0  0  0  0
    7.5885  -13.7236   19.0586 C   0  0  0  0  0  0  0  0  0  0  0  0
    6.9450  -13.4770   20.3905 C   0  0  0  0  0  0  0  0  0  0  0  0
    8.1007  -12.9202   21.1879 C   0  0  0  0  0  0  0  0  0  0  0  0
    9.1954  -13.8608   20.7402 C   0  0  1  0  0  0  0  0  0  0  0  0
    9.2084  -15.1102   21.5271 C   0  0  0  0  0  0  0  0  0  0  0  0
    8.4456  -16.0569   21.1466 O   0  0  0  0  0  0  0  0  0  0  0  0
    9.9989  -15.3269   22.6620 N   0  0  0  0  0  0  0  0  0  0  0  0
   10.2064  -16.6378   23.3081 C   0  0  1  0  0  0  0  0  0  0  0  0
   11.5052  -17.2136   22.9092 C   0  0  0  0  0  0  0  0  0  0  0  0
   12.6732  -16.3400   23.2035 C   0  0  0  0  0  0  0  0  0  0  0  0
   13.9868  -16.8886   22.8000 C   0  0  0  0  0  0  0  0  0  0  0  0
   14.7910  -16.2960   22.0200 O   0  0  0  0  0  0  0  0  0  0  0  0
    9.7588  -16.6685   24.6694 C   0  0  0  0  0  0  0  0  0  0  0  0
    9.3054  -15.7284   25.3735 O   0  0  0  0  0  0  0  0  0  0  0  0
   14.4146  -18.1390   23.2852 O   0  0  0  0  0  0  0  0  0  0  0  0
    9.8243  -17.9183   25.3408 O   0  0  0  0  0  0  0  0  0  0  0  0
  2  1  1  6
  2  9  1  0
  3  4  1  0
  3  2  1  0
  4  8  1  0
  4  5  2  0
  5  6  1  0
  7  6  1  0
  8  7  2  0
  9 11  1  0
  9 10  2  0
 11 12  1  0
 13 12  1  0
 14 15  1  0
 14 13  1  0
 15 11  1  0
 15 16  1  1
 16 17  2  0
 18 16  1  0
 19 18  1  0
 19 20  1  1
 21 20  1  0
 22 21  1  0
 23 22  2  0
 24 19  1  0
 25 24  2  0
 26 22  1  0
 27 24  1  0
M  END
$$$$
