HPE.pdb
     RDKit          3D

 27 28  0  0  1  0  0  0  0  0999 V2000
   10.1318  -14.5240   20.6318 N   0  0  0  0  0  0  0  0  0  0  0  0
    8.9645  -14.2147   21.3784 C   0  0  1  0  0  0  0  0  0  0  0  0
    7.6933  -14.7348   20.7179 C   0  0  0  0  0  0  0  0  0  0  0  0
    7.6567  -14.3978   19.2756 C   0  0  0  0  0  0  0  0  0  0  0  0
    7.7529  -13.1637   18.6815 C   0  0  0  0  0  0  0  0  0  0  0  0
    7.6673  -13.3506   17.3494 N   0  0  0  0  0  0  0  0  0  0  0  0
    7.5213  -14.6657   17.1127 C   0  0  0  0  0  0  0  0  0  0  0  0
    7.5161  -15.2946   18.2942 N   0  0  0  0  0  0  0  0  0  0  0  0
    9.0103  -14.6498   22.8127 C   0  0  0  0  0  0  0  0  0  0  0  0
    9.8537  -15.5735   23.0924 O   0  0  0  0  0  0  0  0  0  0  0  0
    8.1780  -14.0822   23.8161 N   0  0  0  0  0  0  0  0  0  0  0  0
    7.1432  -13.0975   23.7093 C   0  0  0  0  0  0  0  0  0  0  0  0
    6.4656  -13.0576   25.0465 C   0  0  0  0  0  0  0  0  0  0  0  0
    7.6179  -13.3459   25.9797 C   0  0  0  0  0  0  0  0  0  0  0  0
    8.2969  -14.4553   25.2106 C   0  0  1  0  0  0  0  0  0  0  0  0
    7.6936  -15.7736   25.4913 C   0  0  0  0  0  0  0  0  0  0  0  0
    6.8239  -16.2130   24.6706 O   0  0  0  0  0  0  0  0  0  0  0  0
    8.0095  -16.5735   26.5960 N   0  0  0  0  0  0  0  0  0  0  0  0
    8.8390  -17.7934   26.5447 C   0  0  1  0  0  0  0  0  0  0  0  0
    9.8489  -17.6902   25.4737 C   0  0  0  0  0  0  0  0  0  0  0  0
   10.7799  -18.8488   25.4029 C   0  0  0  0  0  0  0  0  0  0  0  0
   11.8784  -18.7142   24.4207 C   0  0  0  0  0  0  0  0  0  0  0  0
   11.9569  -19.3893   23.3510 O   0  0  0  0  0  0  0  0  0  0  0  0
    9.1726  -18.2991   27.8437 C   0  0  0  0  0  0  0  0  0  0  0  0
    9.5773  -17.6700   28.8564 O   0  0  0  0  0  0  0  0  0  0  0  0
   12.9212  -17.7947   24.6418 O   0  0  0  0  0  0  0  0  0  0  0  0
    9.0371  -19.6985   28.0444 O   0  0  0  0  0  0  0  0  0  0  0  0
  2  1  1  6
  2  9  1  0
  3  4  1  0
  3  2  1  0
  4  8  1  0
  4  5  2  0
  5  6  1  0
  7  6  1  0
  8  7  2  0
  9 11  1  0
  9 10  2  0
 11 12  1  0
 13 12  1  0
 14 15  1  0
 14 13  1  0
 15 11  1  0
 15 16  1  6
 16 17  2  0
 18 16  1  0
 19 18  1  0
 19 20  1  1
 21 20  1  0
 22 21  1  0
 23 22  2  0
 24 19  1  0
 25 24  2  0
 26 22  1  0
 27 24  1  0
M  END
$$$$
