HPE.pdb
     RDKit          3D

 27 28  0  0  1  0  0  0  0  0999 V2000
   10.4743  -15.0848   15.1817 N   0  0  0  0  0  0  0  0  0  0  0  0
    9.4404  -15.0372   16.1537 C   0  0  1  0  0  0  0  0  0  0  0  0
    8.7083  -16.3665   16.2938 C   0  0  0  0  0  0  0  0  0  0  0  0
    8.0636  -16.7655   15.0209 C   0  0  0  0  0  0  0  0  0  0  0  0
    7.6972  -15.9732   13.9610 C   0  0  0  0  0  0  0  0  0  0  0  0
    7.1466  -16.7767   13.0294 N   0  0  0  0  0  0  0  0  0  0  0  0
    7.1662  -18.0390   13.4908 C   0  0  0  0  0  0  0  0  0  0  0  0
    7.7275  -18.0204   14.7058 N   0  0  0  0  0  0  0  0  0  0  0  0
    9.8772  -14.5494   17.5027 C   0  0  0  0  0  0  0  0  0  0  0  0
   11.1349  -14.6113   17.7418 O   0  0  0  0  0  0  0  0  0  0  0  0
    8.9664  -14.0432   18.4700 N   0  0  0  0  0  0  0  0  0  0  0  0
    7.5445  -13.8824   18.4044 C   0  0  0  0  0  0  0  0  0  0  0  0
    7.1014  -13.5183   19.7900 C   0  0  0  0  0  0  0  0  0  0  0  0
    8.2785  -12.7099   20.2828 C   0  0  0  0  0  0  0  0  0  0  0  0
    9.4104  -13.5658   19.7634 C   0  0  1  0  0  0  0  0  0  0  0  0
    9.7377  -14.6709   20.6866 C   0  0  0  0  0  0  0  0  0  0  0  0
    9.0273  -15.7263   20.6213 O   0  0  0  0  0  0  0  0  0  0  0  0
   10.7729  -14.6398   21.6285 N   0  0  0  0  0  0  0  0  0  0  0  0
   11.2651  -15.8108   22.3803 C   0  0  1  0  0  0  0  0  0  0  0  0
   12.7011  -16.0291   22.1201 C   0  0  0  0  0  0  0  0  0  0  0  0
   13.5366  -14.8057   22.2593 C   0  0  0  0  0  0  0  0  0  0  0  0
   14.9698  -14.9825   21.9365 C   0  0  0  0  0  0  0  0  0  0  0  0
   15.5839  -14.3105   21.0546 O   0  0  0  0  0  0  0  0  0  0  0  0
   10.7215  -15.8957   23.7039 C   0  0  0  0  0  0  0  0  0  0  0  0
    9.9729  -15.0808   24.3044 O   0  0  0  0  0  0  0  0  0  0  0  0
   15.7403  -15.9403   22.6224 O   0  0  0  0  0  0  0  0  0  0  0  0
   11.0568  -17.0468   24.4653 O   0  0  0  0  0  0  0  0  0  0  0  0
  2  1  1  6
  2  9  1  0
  3  4  1  0
  3  2  1  0
  4  8  1  0
  4  5  2  0
  5  6  1  0
  7  6  1  0
  8  7  2  0
  9 11  1  0
  9 10  2  0
 11 12  1  0
 13 12  1  0
 14 15  1  0
 14 13  1  0
 15 11  1  0
 15 16  1  1
 16 17  2  0
 18 16  1  0
 19 18  1  0
 19 20  1  1
 21 20  1  0
 22 21  1  0
 23 22  2  0
 24 19  1  0
 25 24  2  0
 26 22  1  0
 27 24  1  0
M  END
$$$$
