HPE.pdb
     RDKit          3D

 27 28  0  0  1  0  0  0  0  0999 V2000
    8.8542  -17.5086   17.4838 N   0  0  0  0  0  0  0  0  0  0  0  0
    7.9883  -17.2896   18.5875 C   0  0  1  0  0  0  0  0  0  0  0  0
    7.1105  -18.4981   18.8904 C   0  0  0  0  0  0  0  0  0  0  0  0
    6.1285  -18.1989   19.9586 C   0  0  0  0  0  0  0  0  0  0  0  0
    6.1852  -18.5264   21.2908 C   0  0  0  0  0  0  0  0  0  0  0  0
    5.0678  -18.0459   21.8714 N   0  0  0  0  0  0  0  0  0  0  0  0
    4.3289  -17.4333   20.9303 C   0  0  0  0  0  0  0  0  0  0  0  0
    4.9852  -17.5327   19.7679 N   0  0  0  0  0  0  0  0  0  0  0  0
    8.6782  -16.8324   19.8379 C   0  0  0  0  0  0  0  0  0  0  0  0
    9.7252  -17.4907   20.1741 O   0  0  0  0  0  0  0  0  0  0  0  0
    8.2150  -15.7356   20.6153 N   0  0  0  0  0  0  0  0  0  0  0  0
    7.0144  -14.9631   20.4992 C   0  0  0  0  0  0  0  0  0  0  0  0
    6.9573  -14.0946   21.7203 C   0  0  0  0  0  0  0  0  0  0  0  0
    8.4222  -13.8208   21.9671 C   0  0  0  0  0  0  0  0  0  0  0  0
    8.9843  -15.2015   21.7202 C   0  0  1  0  0  0  0  0  0  0  0  0
    8.9050  -16.0550   22.9227 C   0  0  0  0  0  0  0  0  0  0  0  0
    7.7598  -16.5022   23.2562 O   0  0  0  0  0  0  0  0  0  0  0  0
    9.9995  -16.4062   23.7219 N   0  0  0  0  0  0  0  0  0  0  0  0
    9.9173  -17.2010   24.9631 C   0  0  1  0  0  0  0  0  0  0  0  0
   10.9084  -18.2941   24.9465 C   0  0  0  0  0  0  0  0  0  0  0  0
   11.2155  -18.8151   23.5869 C   0  0  0  0  0  0  0  0  0  0  0  0
   12.2927  -19.8280   23.5297 C   0  0  0  0  0  0  0  0  0  0  0  0
   12.6884  -20.3794   22.4594 O   0  0  0  0  0  0  0  0  0  0  0  0
    9.7078  -16.3964   26.1306 C   0  0  0  0  0  0  0  0  0  0  0  0
    9.7070  -15.1418   26.2359 O   0  0  0  0  0  0  0  0  0  0  0  0
   12.9482  -20.2361   24.7068 O   0  0  0  0  0  0  0  0  0  0  0  0
    9.4653  -17.0822   27.3505 O   0  0  0  0  0  0  0  0  0  0  0  0
  2  1  1  6
  2  9  1  0
  3  4  1  0
  3  2  1  0
  4  8  1  0
  4  5  2  0
  5  6  1  0
  7  6  1  0
  8  7  2  0
  9 11  1  0
  9 10  2  0
 11 12  1  0
 13 12  1  0
 14 15  1  0
 14 13  1  0
 15 11  1  0
 15 16  1  1
 16 17  2  0
 18 16  1  0
 19 18  1  0
 19 20  1  1
 21 20  1  0
 22 21  1  0
 23 22  2  0
 24 19  1  0
 25 24  2  0
 26 22  1  0
 27 24  1  0
M  END
$$$$
