HPE.pdb
     RDKit          3D

 27 28  0  0  1  0  0  0  0  0999 V2000
   10.1330  -14.1051   21.1117 N   0  0  0  0  0  0  0  0  0  0  0  0
    8.9311  -13.9359   21.8483 C   0  0  1  0  0  0  0  0  0  0  0  0
    7.7347  -14.5974   21.1746 C   0  0  0  0  0  0  0  0  0  0  0  0
    7.5580  -14.1101   19.7867 C   0  0  0  0  0  0  0  0  0  0  0  0
    8.3395  -13.2276   19.0826 C   0  0  0  0  0  0  0  0  0  0  0  0
    7.7871  -13.0867   17.8613 N   0  0  0  0  0  0  0  0  0  0  0  0
    6.6888  -13.8592   17.7993 C   0  0  0  0  0  0  0  0  0  0  0  0
    6.5588  -14.4785   18.9788 N   0  0  0  0  0  0  0  0  0  0  0  0
    9.0143  -14.3682   23.2818 C   0  0  0  0  0  0  0  0  0  0  0  0
    9.9752  -15.1648   23.5730 O   0  0  0  0  0  0  0  0  0  0  0  0
    8.0936  -13.9296   24.2726 N   0  0  0  0  0  0  0  0  0  0  0  0
    6.8840  -13.1739   24.1393 C   0  0  0  0  0  0  0  0  0  0  0  0
    6.2215  -13.2063   25.4842 C   0  0  0  0  0  0  0  0  0  0  0  0
    7.4147  -13.2186   26.4105 C   0  0  0  0  0  0  0  0  0  0  0  0
    8.2937  -14.2072   25.6800 C   0  0  1  0  0  0  0  0  0  0  0  0
    7.9645  -15.6039   26.0281 C   0  0  0  0  0  0  0  0  0  0  0  0
    7.0982  -16.2036   25.3121 O   0  0  0  0  0  0  0  0  0  0  0  0
    8.5366  -16.3147   27.0899 N   0  0  0  0  0  0  0  0  0  0  0  0
    8.8648  -17.7535   27.0624 C   0  0  1  0  0  0  0  0  0  0  0  0
    9.4480  -18.1284   25.7597 C   0  0  0  0  0  0  0  0  0  0  0  0
   10.8615  -17.6991   25.5808 C   0  0  0  0  0  0  0  0  0  0  0  0
   11.7836  -18.7531   25.1030 C   0  0  0  0  0  0  0  0  0  0  0  0
   13.0177  -18.5662   24.8831 O   0  0  0  0  0  0  0  0  0  0  0  0
    9.4209  -18.2251   28.2964 C   0  0  0  0  0  0  0  0  0  0  0  0
    9.5260  -19.4078   28.7150 O   0  0  0  0  0  0  0  0  0  0  0  0
   11.3104  -20.0574   24.8648 O   0  0  0  0  0  0  0  0  0  0  0  0
    9.9311  -17.2451   29.1890 O   0  0  0  0  0  0  0  0  0  0  0  0
  2  1  1  6
  2  9  1  0
  3  4  1  0
  3  2  1  0
  4  8  1  0
  4  5  2  0
  5  6  1  0
  7  6  1  0
  8  7  2  0
  9 11  1  0
  9 10  2  0
 11 12  1  0
 13 12  1  0
 14 15  1  0
 14 13  1  0
 15 11  1  0
 15 16  1  6
 16 17  2  0
 18 16  1  0
 19 18  1  0
 19 20  1  6
 21 20  1  0
 22 21  1  0
 23 22  2  0
 24 19  1  0
 25 24  2  0
 26 22  1  0
 27 24  1  0
M  END
$$$$
