HPE.pdb
     RDKit          3D

 27 28  0  0  1  0  0  0  0  0999 V2000
   10.2676  -15.2281   15.2369 N   0  0  0  0  0  0  0  0  0  0  0  0
    9.2506  -15.2421   16.2275 C   0  0  1  0  0  0  0  0  0  0  0  0
    8.5427  -16.5887   16.3193 C   0  0  0  0  0  0  0  0  0  0  0  0
    7.9249  -16.9640   15.0261 C   0  0  0  0  0  0  0  0  0  0  0  0
    7.5401  -16.1475   13.9915 C   0  0  0  0  0  0  0  0  0  0  0  0
    7.0277  -16.9358   13.0258 N   0  0  0  0  0  0  0  0  0  0  0  0
    7.0887  -18.2126   13.4417 C   0  0  0  0  0  0  0  0  0  0  0  0
    7.6374  -18.2179   14.6626 N   0  0  0  0  0  0  0  0  0  0  0  0
    9.7034  -14.8085   17.5897 C   0  0  0  0  0  0  0  0  0  0  0  0
   10.9450  -14.9882   17.8521 O   0  0  0  0  0  0  0  0  0  0  0  0
    8.8238  -14.2291   18.5448 N   0  0  0  0  0  0  0  0  0  0  0  0
    7.4203  -13.9552   18.4609 C   0  0  0  0  0  0  0  0  0  0  0  0
    6.9903  -13.5539   19.8403 C   0  0  0  0  0  0  0  0  0  0  0  0
    8.2219  -12.8412   20.3472 C   0  0  0  0  0  0  0  0  0  0  0  0
    9.2882  -13.7860   19.8433 C   0  0  1  0  0  0  0  0  0  0  0  0
    9.5144  -14.9119   20.7717 C   0  0  0  0  0  0  0  0  0  0  0  0
    8.9038  -16.0048   20.5360 O   0  0  0  0  0  0  0  0  0  0  0  0
   10.3516  -14.8620   21.8927 N   0  0  0  0  0  0  0  0  0  0  0  0
   11.0375  -16.0267   22.4858 C   0  0  1  0  0  0  0  0  0  0  0  0
   12.4991  -15.8233   22.4878 C   0  0  0  0  0  0  0  0  0  0  0  0
   13.2702  -16.9623   23.0554 C   0  0  0  0  0  0  0  0  0  0  0  0
   14.7344  -16.7594   23.1228 C   0  0  0  0  0  0  0  0  0  0  0  0
   15.2881  -15.6212   23.1875 O   0  0  0  0  0  0  0  0  0  0  0  0
   10.3529  -16.5585   23.6273 C   0  0  0  0  0  0  0  0  0  0  0  0
    9.5442  -15.9837   24.4023 O   0  0  0  0  0  0  0  0  0  0  0  0
   15.6063  -17.8646   23.1184 O   0  0  0  0  0  0  0  0  0  0  0  0
   10.6021  -17.9186   23.9518 O   0  0  0  0  0  0  0  0  0  0  0  0
  2  1  1  6
  2  9  1  0
  3  4  1  0
  3  2  1  0
  4  8  1  0
  4  5  2  0
  5  6  1  0
  7  6  1  0
  8  7  2  0
  9 11  1  0
  9 10  2  0
 11 12  1  0
 13 12  1  0
 14 15  1  0
 14 13  1  0
 15 11  1  0
 15 16  1  1
 16 17  2  0
 18 16  1  0
 19 18  1  0
 19 20  1  1
 21 20  1  0
 22 21  1  0
 23 22  2  0
 24 19  1  0
 25 24  2  0
 26 22  1  0
 27 24  1  0
M  END
$$$$
