HPE.pdb
     RDKit          3D

 27 28  0  0  1  0  0  0  0  0999 V2000
    7.2170  -14.7896   20.1989 N   0  0  0  0  0  0  0  0  0  0  0  0
    8.6111  -15.0409   20.2943 C   0  0  1  0  0  0  0  0  0  0  0  0
    9.4270  -14.1805   19.3369 C   0  0  0  0  0  0  0  0  0  0  0  0
    8.8951  -14.2549   17.9561 C   0  0  0  0  0  0  0  0  0  0  0  0
    8.0907  -13.3574   17.2984 C   0  0  0  0  0  0  0  0  0  0  0  0
    7.8647  -13.8489   16.0639 N   0  0  0  0  0  0  0  0  0  0  0  0
    8.5092  -15.0229   15.9487 C   0  0  0  0  0  0  0  0  0  0  0  0
    9.1340  -15.2605   17.1083 N   0  0  0  0  0  0  0  0  0  0  0  0
    9.1690  -14.9316   21.6819 C   0  0  0  0  0  0  0  0  0  0  0  0
   10.4106  -15.2220   21.8122 O   0  0  0  0  0  0  0  0  0  0  0  0
    8.3844  -14.5297   22.7975 N   0  0  0  0  0  0  0  0  0  0  0  0
    7.0279  -14.0733   22.8559 C   0  0  0  0  0  0  0  0  0  0  0  0
    6.6708  -14.0116   24.3110 C   0  0  0  0  0  0  0  0  0  0  0  0
    7.9911  -13.6198   24.9316 C   0  0  0  0  0  0  0  0  0  0  0  0
    8.9184  -14.5158   24.1438 C   0  0  1  0  0  0  0  0  0  0  0  0
    9.0066  -15.8702   24.7256 C   0  0  0  0  0  0  0  0  0  0  0  0
    8.1826  -16.7478   24.3090 O   0  0  0  0  0  0  0  0  0  0  0  0
    9.9312  -16.2568   25.7032 N   0  0  0  0  0  0  0  0  0  0  0  0
   10.5760  -17.5826   25.7773 C   0  0  1  0  0  0  0  0  0  0  0  0
   11.6345  -17.7032   24.7562 C   0  0  0  0  0  0  0  0  0  0  0  0
   12.3223  -19.0226   24.7472 C   0  0  0  0  0  0  0  0  0  0  0  0
   13.7343  -18.9930   24.3055 C   0  0  0  0  0  0  0  0  0  0  0  0
   14.3712  -17.9289   24.0445 O   0  0  0  0  0  0  0  0  0  0  0  0
   10.7774  -18.0332   27.1230 C   0  0  0  0  0  0  0  0  0  0  0  0
   10.8170  -19.2117   27.5641 O   0  0  0  0  0  0  0  0  0  0  0  0
   14.4566  -20.1916   24.1520 O   0  0  0  0  0  0  0  0  0  0  0  0
   10.9603  -17.0344   28.1160 O   0  0  0  0  0  0  0  0  0  0  0  0
  2  1  1  1
  2  9  1  0
  3  4  1  0
  3  2  1  0
  4  8  1  0
  4  5  2  0
  5  6  1  0
  7  6  1  0
  8  7  2  0
  9 11  1  0
  9 10  2  0
 11 12  1  0
 13 12  1  0
 14 15  1  0
 14 13  1  0
 15 11  1  0
 15 16  1  1
 16 17  2  0
 18 16  1  0
 19 18  1  0
 19 20  1  1
 21 20  1  0
 22 21  1  0
 23 22  2  0
 24 19  1  0
 25 24  2  0
 26 22  1  0
 27 24  1  0
M  END
$$$$
