HPE.pdb
     RDKit          3D

 27 28  0  0  1  0  0  0  0  0999 V2000
    9.2916  -17.3223   16.9977 N   0  0  0  0  0  0  0  0  0  0  0  0
    8.4565  -17.0737   18.1187 C   0  0  1  0  0  0  0  0  0  0  0  0
    7.7953  -18.3410   18.6474 C   0  0  0  0  0  0  0  0  0  0  0  0
    7.0196  -19.0282   17.5886 C   0  0  0  0  0  0  0  0  0  0  0  0
    5.8965  -18.5926   16.9298 C   0  0  0  0  0  0  0  0  0  0  0  0
    5.5450  -19.5548   16.0539 N   0  0  0  0  0  0  0  0  0  0  0  0
    6.4227  -20.5674   16.1592 C   0  0  0  0  0  0  0  0  0  0  0  0
    7.3174  -20.2355   17.0979 N   0  0  0  0  0  0  0  0  0  0  0  0
    9.1256  -16.3393   19.2418 C   0  0  0  0  0  0  0  0  0  0  0  0
   10.3893  -16.5201   19.3566 O   0  0  0  0  0  0  0  0  0  0  0  0
    8.4182  -15.4878   20.1341 N   0  0  0  0  0  0  0  0  0  0  0  0
    7.0222  -15.1732   20.1986 C   0  0  0  0  0  0  0  0  0  0  0  0
    6.8257  -14.4067   21.4724 C   0  0  0  0  0  0  0  0  0  0  0  0
    8.1296  -13.6513   21.5767 C   0  0  0  0  0  0  0  0  0  0  0  0
    9.0913  -14.7479   21.1817 C   0  0  1  0  0  0  0  0  0  0  0  0
    9.4553  -15.6049   22.3279 C   0  0  0  0  0  0  0  0  0  0  0  0
    8.8070  -16.6903   22.4843 O   0  0  0  0  0  0  0  0  0  0  0  0
   10.4616  -15.3079   23.2546 N   0  0  0  0  0  0  0  0  0  0  0  0
   11.3969  -16.2945   23.8297 C   0  0  1  0  0  0  0  0  0  0  0  0
   12.7891  -15.9604   23.4720 C   0  0  0  0  0  0  0  0  0  0  0  0
   13.8031  -16.8829   24.0507 C   0  0  0  0  0  0  0  0  0  0  0  0
   15.2119  -16.5120   23.7911 C   0  0  0  0  0  0  0  0  0  0  0  0
   15.5635  -15.4860   23.1353 O   0  0  0  0  0  0  0  0  0  0  0  0
   11.0400  -16.6967   25.1583 C   0  0  0  0  0  0  0  0  0  0  0  0
   10.2753  -16.1243   25.9786 O   0  0  0  0  0  0  0  0  0  0  0  0
   16.2601  -17.3136   24.2814 O   0  0  0  0  0  0  0  0  0  0  0  0
   11.6127  -17.9030   25.6418 O   0  0  0  0  0  0  0  0  0  0  0  0
  2  1  1  6
  2  9  1  0
  3  4  1  0
  3  2  1  0
  4  8  1  0
  4  5  2  0
  5  6  1  0
  7  6  1  0
  8  7  2  0
  9 11  1  0
  9 10  2  0
 11 12  1  0
 13 12  1  0
 14 15  1  0
 14 13  1  0
 15 11  1  0
 15 16  1  1
 16 17  2  0
 18 16  1  0
 19 18  1  0
 19 20  1  1
 21 20  1  0
 22 21  1  0
 23 22  2  0
 24 19  1  0
 25 24  2  0
 26 22  1  0
 27 24  1  0
M  END
$$$$
