TLT.pdb
     RDKit          3D

 23 22  0  0  1  0  0  0  0  0999 V2000
   20.7113   -7.6632  -19.2597 C   0  0  0  0  0  0  0  0  0  0  0  0
   19.7215   -8.7740  -19.0726 C   0  0  1  0  0  0  0  0  0  0  0  0
   19.6455   -9.5974  -20.1875 O   0  0  0  0  0  0  0  0  0  0  0  0
   19.9893   -9.6152  -17.8632 C   0  0  2  0  0  0  0  0  0  0  0  0
   19.0919  -10.7459  -17.7748 N   0  0  0  0  0  0  0  0  0  0  0  0
   20.0054   -8.8647  -16.6055 C   0  0  0  0  0  0  0  0  0  0  0  0
   18.9666   -8.4965  -16.0020 O   0  0  0  0  0  0  0  0  0  0  0  0
   22.7998  -10.4350  -12.4135 C   0  0  0  0  0  0  0  0  0  0  0  0
   21.8448   -9.6784  -13.2696 C   0  0  1  0  0  0  0  0  0  0  0  0
   20.6102   -9.3596  -12.4048 C   0  0  0  0  0  0  0  0  0  0  0  0
   22.3305   -8.4144  -13.8827 C   0  0  0  0  0  0  0  0  0  0  0  0
   21.3661   -7.7269  -14.8145 C   0  0  2  0  0  0  0  0  0  0  0  0
   21.2484   -8.5216  -16.0146 N   0  0  0  0  0  0  0  0  0  0  0  0
   21.7714   -6.3373  -15.0120 C   0  0  0  0  0  0  0  0  0  0  0  0
   23.0100   -6.0684  -15.0189 O   0  0  0  0  0  0  0  0  0  0  0  0
   21.7025   -4.3021  -17.9587 C   0  0  0  0  0  0  0  0  0  0  0  0
   20.9121   -3.5026  -16.9213 C   0  0  1  0  0  0  0  0  0  0  0  0
   19.5770   -3.8721  -17.0754 O   0  0  0  0  0  0  0  0  0  0  0  0
   21.3265   -3.9036  -15.5174 C   0  0  2  0  0  0  0  0  0  0  0  0
   20.8961   -5.2498  -15.2024 N   0  0  0  0  0  0  0  0  0  0  0  0
   20.6243   -2.9727  -14.6003 C   0  0  0  0  0  0  0  0  0  0  0  0
   20.9153   -1.5994  -14.5856 O   0  0  0  0  0  0  0  0  0  0  0  0
   19.7332   -3.3300  -13.7819 O   0  0  0  0  0  0  0  0  0  0  0  0
  2  1  1  6
  2  3  1  0
  4  2  1  0
  4  6  1  0
  4  5  1  1
  6 13  1  0
  6  7  2  0
  9  8  1  1
  9 10  1  0
 11  9  1  0
 12 11  1  1
 13 12  1  0
 14 12  1  0
 14 15  2  0
 17 16  1  6
 17 19  1  0
 18 17  1  0
 19 20  1  1
 20 14  1  0
 21 19  1  0
 22 21  1  0
 23 21  2  0
M  END
$$$$
