TLT.pdb
     RDKit          3D

 23 22  0  0  1  0  0  0  0  0999 V2000
   21.2886  -10.5843  -20.4767 C   0  0  0  0  0  0  0  0  0  0  0  0
   20.7626  -11.7021  -19.6267 C   0  0  1  0  0  0  0  0  0  0  0  0
   20.5053  -12.8455  -20.3705 O   0  0  0  0  0  0  0  0  0  0  0  0
   21.6616  -12.0570  -18.4832 C   0  0  2  0  0  0  0  0  0  0  0  0
   21.2399  -13.2664  -17.8119 N   0  0  0  0  0  0  0  0  0  0  0  0
   21.8610  -10.9707  -17.5210 C   0  0  0  0  0  0  0  0  0  0  0  0
   20.9771  -10.5837  -16.7162 O   0  0  0  0  0  0  0  0  0  0  0  0
   26.9730  -10.2551  -15.5711 C   0  0  0  0  0  0  0  0  0  0  0  0
   25.4929  -10.2680  -15.7345 C   0  0  1  0  0  0  0  0  0  0  0  0
   24.8799  -10.4274  -14.3300 C   0  0  0  0  0  0  0  0  0  0  0  0
   24.8677   -9.0901  -16.3912 C   0  0  0  0  0  0  0  0  0  0  0  0
   23.3792   -9.1769  -16.6095 C   0  0  2  0  0  0  0  0  0  0  0  0
   23.1111  -10.3021  -17.4741 N   0  0  0  0  0  0  0  0  0  0  0  0
   22.8688   -7.8879  -17.0704 C   0  0  0  0  0  0  0  0  0  0  0  0
   23.5641   -7.2289  -17.9003 O   0  0  0  0  0  0  0  0  0  0  0  0
   20.2122   -7.1731  -19.3344 C   0  0  0  0  0  0  0  0  0  0  0  0
   19.8505   -6.3961  -18.0674 C   0  0  1  0  0  0  0  0  0  0  0  0
   19.0567   -7.2461  -17.2992 O   0  0  0  0  0  0  0  0  0  0  0  0
   21.0982   -6.0973  -17.2565 C   0  0  2  0  0  0  0  0  0  0  0  0
   21.6511   -7.3014  -16.6725 N   0  0  0  0  0  0  0  0  0  0  0  0
   20.6656   -5.2093  -16.1496 C   0  0  0  0  0  0  0  0  0  0  0  0
   20.2741   -3.8818  -16.3850 O   0  0  0  0  0  0  0  0  0  0  0  0
   20.6158   -5.5654  -14.9405 O   0  0  0  0  0  0  0  0  0  0  0  0
  2  1  1  6
  2  3  1  0
  4  2  1  0
  4  6  1  0
  4  5  1  1
  6 13  1  0
  6  7  2  0
  9  8  1  1
  9 10  1  0
 11  9  1  0
 12 11  1  6
 13 12  1  0
 14 12  1  0
 14 15  2  0
 17 16  1  6
 17 19  1  0
 18 17  1  0
 19 20  1  1
 20 14  1  0
 21 19  1  0
 22 21  1  0
 23 21  2  0
M  END
$$$$
