TLT.pdb
     RDKit          3D

 23 22  0  0  1  0  0  0  0  0999 V2000
   19.5874  -23.5530  -12.7394 C   0  0  0  0  0  0  0  0  0  0  0  0
   20.4620  -22.5437  -13.4214 C   0  0  1  0  0  0  0  0  0  0  0  0
   19.8913  -22.0673  -14.5936 O   0  0  0  0  0  0  0  0  0  0  0  0
   20.8255  -21.3820  -12.5495 C   0  0  2  0  0  0  0  0  0  0  0  0
   19.6677  -20.6075  -12.1609 N   0  0  0  0  0  0  0  0  0  0  0  0
   21.8655  -20.5166  -13.1107 C   0  0  0  0  0  0  0  0  0  0  0  0
   21.6419  -19.3683  -13.5693 O   0  0  0  0  0  0  0  0  0  0  0  0
   27.1433  -18.8324  -13.4331 C   0  0  0  0  0  0  0  0  0  0  0  0
   26.8216  -20.2224  -13.8596 C   0  0  1  0  0  0  0  0  0  0  0  0
   28.0276  -21.1053  -13.4856 C   0  0  0  0  0  0  0  0  0  0  0  0
   25.5919  -20.8416  -13.2993 C   0  0  0  0  0  0  0  0  0  0  0  0
   24.2903  -20.2159  -13.7298 C   0  0  2  0  0  0  0  0  0  0  0  0
   23.2071  -20.9754  -13.1508 N   0  0  0  0  0  0  0  0  0  0  0  0
   24.2619  -20.0793  -15.1840 C   0  0  0  0  0  0  0  0  0  0  0  0
   24.2444  -21.1345  -15.8860 O   0  0  0  0  0  0  0  0  0  0  0  0
   21.7594  -18.1864  -17.6479 C   0  0  0  0  0  0  0  0  0  0  0  0
   23.1974  -17.6773  -17.7621 C   0  0  1  0  0  0  0  0  0  0  0  0
   23.3162  -16.6301  -16.8501 O   0  0  0  0  0  0  0  0  0  0  0  0
   24.1753  -18.7556  -17.3327 C   0  0  2  0  0  0  0  0  0  0  0  0
   24.2485  -18.8602  -15.8904 N   0  0  0  0  0  0  0  0  0  0  0  0
   25.5055  -18.3243  -17.8279 C   0  0  0  0  0  0  0  0  0  0  0  0
   25.8086  -18.3110  -19.1987 O   0  0  0  0  0  0  0  0  0  0  0  0
   26.4464  -17.9450  -17.0780 O   0  0  0  0  0  0  0  0  0  0  0  0
  2  1  1  1
  2  3  1  0
  4  2  1  0
  4  6  1  0
  4  5  1  6
  6 13  1  0
  6  7  2  0
  9  8  1  1
  9 10  1  0
 11  9  1  0
 12 11  1  6
 13 12  1  0
 14 12  1  0
 14 15  2  0
 17 16  1  1
 17 19  1  0
 18 17  1  0
 19 20  1  1
 20 14  1  0
 21 19  1  0
 22 21  1  0
 23 21  2  0
M  END
$$$$
