TLT.pdb
     RDKit          3D

 23 22  0  0  1  0  0  0  0  0999 V2000
   25.7211  -19.1870  -16.7383 C   0  0  0  0  0  0  0  0  0  0  0  0
   26.6936  -20.3276  -16.7790 C   0  0  1  0  0  0  0  0  0  0  0  0
   27.8794  -19.9789  -17.4107 O   0  0  0  0  0  0  0  0  0  0  0  0
   27.0090  -20.8921  -15.4285 C   0  0  2  0  0  0  0  0  0  0  0  0
   28.0164  -21.9278  -15.4912 N   0  0  0  0  0  0  0  0  0  0  0  0
   25.8344  -21.3537  -14.6851 C   0  0  0  0  0  0  0  0  0  0  0  0
   25.1969  -22.3982  -14.9706 O   0  0  0  0  0  0  0  0  0  0  0  0
   25.9763  -20.3230   -9.3988 C   0  0  0  0  0  0  0  0  0  0  0  0
   25.6947  -20.8598  -10.7589 C   0  0  1  0  0  0  0  0  0  0  0  0
   25.7560  -22.3965  -10.6649 C   0  0  0  0  0  0  0  0  0  0  0  0
   24.4049  -20.4770  -11.3910 C   0  0  0  0  0  0  0  0  0  0  0  0
   24.2027  -20.9557  -12.8055 C   0  0  2  0  0  0  0  0  0  0  0  0
   25.3697  -20.5989  -13.5777 N   0  0  0  0  0  0  0  0  0  0  0  0
   22.9275  -20.4616  -13.3195 C   0  0  0  0  0  0  0  0  0  0  0  0
   22.7684  -19.2087  -13.4271 O   0  0  0  0  0  0  0  0  0  0  0  0
   21.5004  -20.5569  -16.6122 C   0  0  0  0  0  0  0  0  0  0  0  0
   20.4319  -21.1936  -15.7217 C   0  0  1  0  0  0  0  0  0  0  0  0
   20.6599  -22.5681  -15.7571 O   0  0  0  0  0  0  0  0  0  0  0  0
   20.6106  -20.7489  -14.2817 C   0  0  2  0  0  0  0  0  0  0  0  0
   21.8401  -21.2647  -13.7169 N   0  0  0  0  0  0  0  0  0  0  0  0
   19.4780  -21.3383  -13.5263 C   0  0  0  0  0  0  0  0  0  0  0  0
   18.1520  -20.9455  -13.7682 O   0  0  0  0  0  0  0  0  0  0  0  0
   19.6109  -22.2160  -12.6301 O   0  0  0  0  0  0  0  0  0  0  0  0
  2  1  1  1
  2  3  1  0
  4  2  1  0
  4  6  1  0
  4  5  1  6
  6 13  1  0
  6  7  2  0
  9  8  1  1
  9 10  1  0
 11  9  1  0
 12 11  1  1
 13 12  1  0
 14 12  1  0
 14 15  2  0
 17 16  1  6
 17 19  1  0
 18 17  1  0
 19 20  1  1
 20 14  1  0
 21 19  1  0
 22 21  1  0
 23 21  2  0
M  END
$$$$
