TLT.pdb
     RDKit          3D

 23 22  0  0  1  0  0  0  0  0999 V2000
   21.8687   -6.8774  -20.5846 C   0  0  0  0  0  0  0  0  0  0  0  0
   20.6092   -7.5543  -21.0363 C   0  0  1  0  0  0  0  0  0  0  0  0
   20.5977   -7.7718  -22.4072 O   0  0  0  0  0  0  0  0  0  0  0  0
   20.3432   -8.8503  -20.3353 C   0  0  2  0  0  0  0  0  0  0  0  0
   19.1310   -9.4854  -20.8029 N   0  0  0  0  0  0  0  0  0  0  0  0
   20.3475   -8.7506  -18.8739 C   0  0  0  0  0  0  0  0  0  0  0  0
   19.3332   -8.4539  -18.1942 O   0  0  0  0  0  0  0  0  0  0  0  0
   21.5346   -9.9716  -13.8217 C   0  0  0  0  0  0  0  0  0  0  0  0
   22.7319   -9.8694  -14.7011 C   0  0  1  0  0  0  0  0  0  0  0  0
   23.6805  -11.0209  -14.3164 C   0  0  0  0  0  0  0  0  0  0  0  0
   22.5069   -9.9142  -16.1697 C   0  0  0  0  0  0  0  0  0  0  0  0
   21.6899   -8.7841  -16.7408 C   0  0  2  0  0  0  0  0  0  0  0  0
   21.5493   -8.9975  -18.1622 N   0  0  0  0  0  0  0  0  0  0  0  0
   22.2708   -7.5028  -16.3469 C   0  0  0  0  0  0  0  0  0  0  0  0
   23.4961   -7.2967  -16.5975 O   0  0  0  0  0  0  0  0  0  0  0  0
   21.2066   -4.1210  -17.5409 C   0  0  0  0  0  0  0  0  0  0  0  0
   21.2526   -4.0457  -16.0137 C   0  0  1  0  0  0  0  0  0  0  0  0
   19.9568   -4.3029  -15.5692 O   0  0  0  0  0  0  0  0  0  0  0  0
   22.1410   -5.1432  -15.4571 C   0  0  2  0  0  0  0  0  0  0  0  0
   21.5807   -6.4550  -15.7057 N   0  0  0  0  0  0  0  0  0  0  0  0
   22.1811   -4.9339  -13.9890 C   0  0  0  0  0  0  0  0  0  0  0  0
   22.8477   -3.8356  -13.4230 O   0  0  0  0  0  0  0  0  0  0  0  0
   21.6346   -5.7047  -13.1533 O   0  0  0  0  0  0  0  0  0  0  0  0
  2  1  1  1
  2  3  1  0
  4  2  1  0
  4  6  1  0
  4  5  1  6
  6 13  1  0
  6  7  2  0
  9  8  1  1
  9 10  1  0
 11  9  1  0
 12 11  1  6
 13 12  1  0
 14 12  1  0
 14 15  2  0
 17 16  1  6
 17 19  1  0
 18 17  1  0
 19 20  1  1
 20 14  1  0
 21 19  1  0
 22 21  1  0
 23 21  2  0
M  END
$$$$
