TLT.pdb
     RDKit          3D

 23 22  0  0  1  0  0  0  0  0999 V2000
   20.8095  -34.6536  -13.6278 C   0  0  0  0  0  0  0  0  0  0  0  0
   21.4683  -33.8195  -14.6857 C   0  0  1  0  0  0  0  0  0  0  0  0
   20.9013  -34.0215  -15.9365 O   0  0  0  0  0  0  0  0  0  0  0  0
   21.4635  -32.3539  -14.3797 C   0  0  2  0  0  0  0  0  0  0  0  0
   22.1027  -31.5770  -15.4186 N   0  0  0  0  0  0  0  0  0  0  0  0
   22.0141  -32.0166  -13.0649 C   0  0  0  0  0  0  0  0  0  0  0  0
   23.2379  -31.8280  -12.8511 O   0  0  0  0  0  0  0  0  0  0  0  0
   19.7013  -28.3197   -9.8014 C   0  0  0  0  0  0  0  0  0  0  0  0
   20.6214  -29.2889  -10.4583 C   0  0  1  0  0  0  0  0  0  0  0  0
   22.0495  -28.7269  -10.3220 C   0  0  0  0  0  0  0  0  0  0  0  0
   20.6145  -30.6871   -9.9538 C   0  0  0  0  0  0  0  0  0  0  0  0
   21.5953  -31.6239  -10.6106 C   0  0  2  0  0  0  0  0  0  0  0  0
   21.1401  -31.8897  -11.9551 N   0  0  0  0  0  0  0  0  0  0  0  0
   21.8006  -32.7991   -9.7673 C   0  0  0  0  0  0  0  0  0  0  0  0
   20.8459  -33.6235   -9.6436 O   0  0  0  0  0  0  0  0  0  0  0  0
   24.7705  -35.3548   -9.9927 C   0  0  0  0  0  0  0  0  0  0  0  0
   24.6021  -34.8745   -8.5501 C   0  0  1  0  0  0  0  0  0  0  0  0
   25.4816  -33.8056   -8.3874 O   0  0  0  0  0  0  0  0  0  0  0  0
   23.2001  -34.3354   -8.3329 C   0  0  2  0  0  0  0  0  0  0  0  0
   22.9851  -33.1073   -9.0692 N   0  0  0  0  0  0  0  0  0  0  0  0
   23.0993  -34.0245   -6.8859 C   0  0  0  0  0  0  0  0  0  0  0  0
   23.1787  -35.0328   -5.9121 O   0  0  0  0  0  0  0  0  0  0  0  0
   22.9385  -32.8610   -6.4258 O   0  0  0  0  0  0  0  0  0  0  0  0
  2  1  1  1
  2  3  1  0
  4  2  1  0
  4  6  1  0
  4  5  1  6
  6 13  1  0
  6  7  2  0
  9  8  1  1
  9 10  1  0
 11  9  1  0
 12 11  1  1
 13 12  1  0
 14 12  1  0
 14 15  2  0
 17 16  1  6
 17 19  1  0
 18 17  1  0
 19 20  1  6
 20 14  1  0
 21 19  1  0
 22 21  1  0
 23 21  2  0
M  END
$$$$
