TLT.pdb
     RDKit          3D

 23 22  0  0  1  0  0  0  0  0999 V2000
   40.0909   -7.2784  -10.5380 C   0  0  0  0  0  0  0  0  0  0  0  0
   39.5283   -6.3561   -9.4980 C   0  0  1  0  0  0  0  0  0  0  0  0
   38.9273   -5.2394  -10.0624 O   0  0  0  0  0  0  0  0  0  0  0  0
   38.5537   -7.0197   -8.5753 C   0  0  2  0  0  0  0  0  0  0  0  0
   37.9288   -6.0787   -7.6724 N   0  0  0  0  0  0  0  0  0  0  0  0
   39.1089   -8.1573   -7.8382 C   0  0  0  0  0  0  0  0  0  0  0  0
   39.7122   -8.0476   -6.7414 O   0  0  0  0  0  0  0  0  0  0  0  0
   36.6745  -13.0777   -8.4228 C   0  0  0  0  0  0  0  0  0  0  0  0
   37.4657  -11.9359   -7.8862 C   0  0  1  0  0  0  0  0  0  0  0  0
   37.3776  -12.0018   -6.3494 C   0  0  0  0  0  0  0  0  0  0  0  0
   38.8985  -11.8556   -8.2736 C   0  0  0  0  0  0  0  0  0  0  0  0
   39.6323  -10.6228   -7.8124 C   0  0  2  0  0  0  0  0  0  0  0  0
   38.9719   -9.4654   -8.3691 N   0  0  0  0  0  0  0  0  0  0  0  0
   41.0553  -10.7484   -8.1181 C   0  0  0  0  0  0  0  0  0  0  0  0
   41.3909  -11.0452   -9.3038 O   0  0  0  0  0  0  0  0  0  0  0  0
   43.6278   -8.3206   -8.4825 C   0  0  0  0  0  0  0  0  0  0  0  0
   44.1846   -9.2818   -7.4308 C   0  0  1  0  0  0  0  0  0  0  0  0
   43.8317   -8.7533   -6.1903 O   0  0  0  0  0  0  0  0  0  0  0  0
   43.5122  -10.6377   -7.5454 C   0  0  2  0  0  0  0  0  0  0  0  0
   42.1080  -10.5632   -7.2000 N   0  0  0  0  0  0  0  0  0  0  0  0
   44.1815  -11.5132   -6.5523 C   0  0  0  0  0  0  0  0  0  0  0  0
   43.5084  -11.9739   -5.4097 O   0  0  0  0  0  0  0  0  0  0  0  0
   45.3768  -11.9039   -6.6514 O   0  0  0  0  0  0  0  0  0  0  0  0
  2  1  1  6
  2  3  1  0
  4  2  1  0
  4  6  1  0
  4  5  1  1
  6 13  1  0
  6  7  2  0
  9  8  1  6
  9 10  1  0
 11  9  1  0
 12 11  1  6
 13 12  1  0
 14 12  1  0
 14 15  2  0
 17 16  1  6
 17 19  1  0
 18 17  1  0
 19 20  1  1
 20 14  1  0
 21 19  1  0
 22 21  1  0
 23 21  2  0
M  END
$$$$
