TLT.pdb
     RDKit          3D

 23 22  0  0  1  0  0  0  0  0999 V2000
   26.9062  -18.0407  -15.0327 C   0  0  0  0  0  0  0  0  0  0  0  0
   27.4021  -19.2731  -15.7282 C   0  0  1  0  0  0  0  0  0  0  0  0
   28.4997  -19.0094  -16.5360 O   0  0  0  0  0  0  0  0  0  0  0  0
   27.7435  -20.3907  -14.7921 C   0  0  2  0  0  0  0  0  0  0  0  0
   28.3931  -21.4911  -15.4693 N   0  0  0  0  0  0  0  0  0  0  0  0
   26.6122  -20.8670  -13.9930 C   0  0  0  0  0  0  0  0  0  0  0  0
   25.9069  -21.8582  -14.3077 O   0  0  0  0  0  0  0  0  0  0  0  0
   26.3544  -20.0364   -8.3143 C   0  0  0  0  0  0  0  0  0  0  0  0
   26.0504  -20.6931   -9.6157 C   0  0  1  0  0  0  0  0  0  0  0  0
   25.2442  -21.9690   -9.3058 C   0  0  0  0  0  0  0  0  0  0  0  0
   25.3039  -19.8969  -10.6249 C   0  0  0  0  0  0  0  0  0  0  0  0
   25.1365  -20.5448  -11.9751 C   0  0  2  0  0  0  0  0  0  0  0  0
   26.2724  -20.1906  -12.7935 N   0  0  0  0  0  0  0  0  0  0  0  0
   23.8271  -20.2079  -12.5287 C   0  0  0  0  0  0  0  0  0  0  0  0
   23.3234  -19.0820  -12.2368 O   0  0  0  0  0  0  0  0  0  0  0  0
   22.8485  -19.3943  -15.8816 C   0  0  0  0  0  0  0  0  0  0  0  0
   21.9198  -20.5446  -15.4887 C   0  0  1  0  0  0  0  0  0  0  0  0
   22.5381  -21.7148  -15.9259 O   0  0  0  0  0  0  0  0  0  0  0  0
   21.8049  -20.6386  -13.9783 C   0  0  2  0  0  0  0  0  0  0  0  0
   23.0607  -21.0333  -13.3753 N   0  0  0  0  0  0  0  0  0  0  0  0
   20.8120  -21.7071  -13.7077 C   0  0  0  0  0  0  0  0  0  0  0  0
   19.4617  -21.5603  -14.0629 O   0  0  0  0  0  0  0  0  0  0  0  0
   21.0929  -22.8042  -13.1519 O   0  0  0  0  0  0  0  0  0  0  0  0
  2  1  1  1
  2  3  1  0
  4  2  1  0
  4  6  1  0
  4  5  1  6
  6 13  1  0
  6  7  2  0
  9  8  1  1
  9 10  1  0
 11  9  1  0
 12 11  1  1
 13 12  1  0
 14 12  1  0
 14 15  2  0
 17 16  1  1
 17 19  1  0
 18 17  1  0
 19 20  1  1
 20 14  1  0
 21 19  1  0
 22 21  1  0
 23 21  2  0
M  END
$$$$
