TLT.pdb
     RDKit          3D

 23 22  0  0  1  0  0  0  0  0999 V2000
   18.7637   -8.3800  -18.8917 C   0  0  0  0  0  0  0  0  0  0  0  0
   17.9097   -9.4765  -18.3288 C   0  0  1  0  0  0  0  0  0  0  0  0
   17.1350  -10.0869  -19.3055 O   0  0  0  0  0  0  0  0  0  0  0  0
   18.6895  -10.5261  -17.5992 C   0  0  2  0  0  0  0  0  0  0  0  0
   17.8470  -11.6019  -17.1257 N   0  0  0  0  0  0  0  0  0  0  0  0
   19.5245  -10.0039  -16.5150 C   0  0  0  0  0  0  0  0  0  0  0  0
   19.0675   -9.6137  -15.4115 O   0  0  0  0  0  0  0  0  0  0  0  0
   24.5101  -12.1284  -15.5631 C   0  0  0  0  0  0  0  0  0  0  0  0
   23.2043  -11.4221  -15.4470 C   0  0  1  0  0  0  0  0  0  0  0  0
   22.7525  -11.5364  -13.9785 C   0  0  0  0  0  0  0  0  0  0  0  0
   23.1648   -9.9898  -15.8426 C   0  0  0  0  0  0  0  0  0  0  0  0
   21.8203   -9.3180  -15.7325 C   0  0  2  0  0  0  0  0  0  0  0  0
   20.9293   -9.9234  -16.6943 N   0  0  0  0  0  0  0  0  0  0  0  0
   21.9786   -7.8696  -15.8394 C   0  0  0  0  0  0  0  0  0  0  0  0
   22.5673   -7.4038  -16.8606 O   0  0  0  0  0  0  0  0  0  0  0  0
   19.6093   -5.3741  -16.5745 C   0  0  0  0  0  0  0  0  0  0  0  0
   20.2353   -4.8760  -15.2706 C   0  0  1  0  0  0  0  0  0  0  0  0
   19.4243   -5.3488  -14.2404 O   0  0  0  0  0  0  0  0  0  0  0  0
   21.6088   -5.4915  -15.0750 C   0  0  2  0  0  0  0  0  0  0  0  0
   21.5255   -6.9260  -14.8962 N   0  0  0  0  0  0  0  0  0  0  0  0
   22.1470   -4.9053  -13.8230 C   0  0  0  0  0  0  0  0  0  0  0  0
   22.3611   -5.6901  -12.6788 O   0  0  0  0  0  0  0  0  0  0  0  0
   22.4475   -3.6875  -13.6888 O   0  0  0  0  0  0  0  0  0  0  0  0
  2  1  1  6
  2  3  1  0
  4  2  1  0
  4  6  1  0
  4  5  1  1
  6 13  1  0
  6  7  2  0
  9  8  1  1
  9 10  1  0
 11  9  1  0
 12 11  1  6
 13 12  1  0
 14 12  1  0
 14 15  2  0
 17 16  1  6
 17 19  1  0
 18 17  1  0
 19 20  1  1
 20 14  1  0
 21 19  1  0
 22 21  1  0
 23 21  2  0
M  END
$$$$
