TLT.pdb
     RDKit          3D

 23 22  0  0  1  0  0  0  0  0999 V2000
   26.5232  -10.5863  -15.4039 C   0  0  0  0  0  0  0  0  0  0  0  0
   26.5574  -11.5722  -16.5333 C   0  0  1  0  0  0  0  0  0  0  0  0
   27.4183  -12.6300  -16.2754 O   0  0  0  0  0  0  0  0  0  0  0  0
   25.2097  -12.1172  -16.8915 C   0  0  2  0  0  0  0  0  0  0  0  0
   25.2913  -13.1698  -17.8797 N   0  0  0  0  0  0  0  0  0  0  0  0
   24.2415  -11.0961  -17.2982 C   0  0  0  0  0  0  0  0  0  0  0  0
   24.1351  -10.6681  -18.4749 O   0  0  0  0  0  0  0  0  0  0  0  0
   19.3175  -10.6998  -15.1504 C   0  0  0  0  0  0  0  0  0  0  0  0
   20.5894  -11.0418  -15.8453 C   0  0  1  0  0  0  0  0  0  0  0  0
   20.3951  -12.4232  -16.4993 C   0  0  0  0  0  0  0  0  0  0  0  0
   21.0784  -10.0942  -16.8808 C   0  0  0  0  0  0  0  0  0  0  0  0
   22.4297   -9.4804  -16.6195 C   0  0  2  0  0  0  0  0  0  0  0  0
   23.3638  -10.5433  -16.3308 N   0  0  0  0  0  0  0  0  0  0  0  0
   22.3147   -8.4429  -15.5975 C   0  0  0  0  0  0  0  0  0  0  0  0
   22.6115   -8.7421  -14.4021 O   0  0  0  0  0  0  0  0  0  0  0  0
   23.0294   -4.4849  -16.3856 C   0  0  0  0  0  0  0  0  0  0  0  0
   23.0812   -5.1318  -15.0004 C   0  0  1  0  0  0  0  0  0  0  0  0
   22.9243   -4.0981  -14.0787 O   0  0  0  0  0  0  0  0  0  0  0  0
   21.9083   -6.0769  -14.8144 C   0  0  2  0  0  0  0  0  0  0  0  0
   21.9000   -7.1154  -15.8234 N   0  0  0  0  0  0  0  0  0  0  0  0
   20.6864   -5.2551  -14.9940 C   0  0  0  0  0  0  0  0  0  0  0  0
   20.3469   -4.2383  -14.0874 O   0  0  0  0  0  0  0  0  0  0  0  0
   19.8756   -5.3995  -15.9496 O   0  0  0  0  0  0  0  0  0  0  0  0
  2  1  1  1
  2  3  1  0
  4  2  1  0
  4  6  1  0
  4  5  1  6
  6 13  1  0
  6  7  2  0
  9  8  1  6
  9 10  1  0
 11  9  1  0
 12 11  1  1
 13 12  1  0
 14 12  1  0
 14 15  2  0
 17 16  1  6
 17 19  1  0
 18 17  1  0
 19 20  1  6
 20 14  1  0
 21 19  1  0
 22 21  1  0
 23 21  2  0
M  END
$$$$
