TLT.pdb
     RDKit          3D

 23 22  0  0  1  0  0  0  0  0999 V2000
   20.4095  -23.5805  -14.0874 C   0  0  0  0  0  0  0  0  0  0  0  0
   19.5069  -22.8657  -13.1266 C   0  0  1  0  0  0  0  0  0  0  0  0
   18.4445  -23.6611  -12.7199 O   0  0  0  0  0  0  0  0  0  0  0  0
   20.2164  -22.3442  -11.9157 C   0  0  2  0  0  0  0  0  0  0  0  0
   19.3001  -21.8018  -10.9371 N   0  0  0  0  0  0  0  0  0  0  0  0
   21.2839  -21.3869  -12.2151 C   0  0  0  0  0  0  0  0  0  0  0  0
   21.0765  -20.1811  -12.5013 O   0  0  0  0  0  0  0  0  0  0  0  0
   25.8925  -21.3106   -9.3295 C   0  0  0  0  0  0  0  0  0  0  0  0
   24.7438  -21.0202  -10.2316 C   0  0  1  0  0  0  0  0  0  0  0  0
   24.4083  -19.5245  -10.0764 C   0  0  0  0  0  0  0  0  0  0  0  0
   24.9186  -21.3169  -11.6776 C   0  0  0  0  0  0  0  0  0  0  0  0
   23.7466  -20.9759  -12.5613 C   0  0  2  0  0  0  0  0  0  0  0  0
   22.6348  -21.8184  -12.1875 N   0  0  0  0  0  0  0  0  0  0  0  0
   24.1471  -21.0411  -13.9647 C   0  0  0  0  0  0  0  0  0  0  0  0
   25.0162  -21.9000  -14.3018 O   0  0  0  0  0  0  0  0  0  0  0  0
   22.3698  -22.2247  -16.9220 C   0  0  0  0  0  0  0  0  0  0  0  0
   22.7649  -20.7766  -17.2171 C   0  0  1  0  0  0  0  0  0  0  0  0
   21.7034  -19.9843  -16.7834 O   0  0  0  0  0  0  0  0  0  0  0  0
   23.9795  -20.3827  -16.3967 C   0  0  2  0  0  0  0  0  0  0  0  0
   23.6444  -20.2244  -14.9970 N   0  0  0  0  0  0  0  0  0  0  0  0
   24.4143  -19.0624  -16.9149 C   0  0  0  0  0  0  0  0  0  0  0  0
   24.9172  -18.9154  -18.2174 O   0  0  0  0  0  0  0  0  0  0  0  0
   24.3686  -17.9941  -16.2455 O   0  0  0  0  0  0  0  0  0  0  0  0
  2  1  1  6
  2  3  1  0
  4  2  1  0
  4  6  1  0
  4  5  1  1
  6 13  1  0
  6  7  2  0
  9  8  1  1
  9 10  1  0
 11  9  1  0
 12 11  1  1
 13 12  1  0
 14 12  1  0
 14 15  2  0
 17 16  1  1
 17 19  1  0
 18 17  1  0
 19 20  1  1
 20 14  1  0
 21 19  1  0
 22 21  1  0
 23 21  2  0
M  END
$$$$
