TLT.pdb
     RDKit          3D

 23 22  0  0  1  0  0  0  0  0999 V2000
   15.6098   -9.4509  -16.5955 C   0  0  0  0  0  0  0  0  0  0  0  0
   15.3408  -10.0666  -15.2549 C   0  0  1  0  0  0  0  0  0  0  0  0
   14.3367  -11.0232  -15.3131 O   0  0  0  0  0  0  0  0  0  0  0  0
   16.5546  -10.6724  -14.6214 C   0  0  2  0  0  0  0  0  0  0  0  0
   16.2432  -11.3508  -13.3828 N   0  0  0  0  0  0  0  0  0  0  0  0
   17.6629   -9.7330  -14.4353 C   0  0  0  0  0  0  0  0  0  0  0  0
   17.6457   -8.7937  -13.6009 O   0  0  0  0  0  0  0  0  0  0  0  0
   23.1859  -10.9051  -14.9711 C   0  0  0  0  0  0  0  0  0  0  0  0
   21.9018  -10.2447  -14.6074 C   0  0  1  0  0  0  0  0  0  0  0  0
   22.2128   -9.2214  -13.4984 C   0  0  0  0  0  0  0  0  0  0  0  0
   21.1579   -9.5528  -15.6925 C   0  0  0  0  0  0  0  0  0  0  0  0
   19.8779   -8.8742  -15.2779 C   0  0  2  0  0  0  0  0  0  0  0  0
   18.8317   -9.8685  -15.2275 N   0  0  0  0  0  0  0  0  0  0  0  0
   19.6204   -7.7271  -16.1451 C   0  0  0  0  0  0  0  0  0  0  0  0
   19.6735   -7.8990  -17.3998 O   0  0  0  0  0  0  0  0  0  0  0  0
   16.5446   -5.9339  -16.7770 C   0  0  0  0  0  0  0  0  0  0  0  0
   17.5428   -4.8542  -16.3548 C   0  0  1  0  0  0  0  0  0  0  0  0
   17.3864   -4.6918  -14.9794 O   0  0  0  0  0  0  0  0  0  0  0  0
   18.9652   -5.3291  -16.5888 C   0  0  2  0  0  0  0  0  0  0  0  0
   19.3096   -6.4245  -15.7068 N   0  0  0  0  0  0  0  0  0  0  0  0
   19.8419   -4.1800  -16.2546 C   0  0  0  0  0  0  0  0  0  0  0  0
   19.8607   -3.0186  -17.0431 O   0  0  0  0  0  0  0  0  0  0  0  0
   20.6201   -4.1541  -15.2621 O   0  0  0  0  0  0  0  0  0  0  0  0
  2  1  1  6
  2  3  1  0
  4  2  1  0
  4  6  1  0
  4  5  1  1
  6 13  1  0
  6  7  2  0
  9  8  1  6
  9 10  1  0
 11  9  1  0
 12 11  1  6
 13 12  1  0
 14 12  1  0
 14 15  2  0
 17 16  1  1
 17 19  1  0
 18 17  1  0
 19 20  1  1
 20 14  1  0
 21 19  1  0
 22 21  1  0
 23 21  2  0
M  END
$$$$
