TLT.pdb
     RDKit          3D

 23 22  0  0  1  0  0  0  0  0999 V2000
   31.7122  -20.4161  -12.2905 C   0  0  0  0  0  0  0  0  0  0  0  0
   30.5532  -20.5991  -11.3567 C   0  0  1  0  0  0  0  0  0  0  0  0
   29.4303  -21.0884  -12.0097 O   0  0  0  0  0  0  0  0  0  0  0  0
   30.8613  -21.4836  -10.1885 C   0  0  2  0  0  0  0  0  0  0  0  0
   31.3110  -22.7950  -10.6000 N   0  0  0  0  0  0  0  0  0  0  0  0
   29.7715  -21.5891   -9.2156 C   0  0  0  0  0  0  0  0  0  0  0  0
   28.9790  -22.5628   -9.1621 O   0  0  0  0  0  0  0  0  0  0  0  0
   27.3830  -20.5997   -4.3927 C   0  0  0  0  0  0  0  0  0  0  0  0
   27.6864  -19.4062   -5.2298 C   0  0  1  0  0  0  0  0  0  0  0  0
   28.0854  -18.2667   -4.2727 C   0  0  0  0  0  0  0  0  0  0  0  0
   28.7462  -19.5475   -6.2626 C   0  0  0  0  0  0  0  0  0  0  0  0
   28.4150  -20.4548   -7.4193 C   0  0  2  0  0  0  0  0  0  0  0  0
   29.5776  -20.5492   -8.2707 N   0  0  0  0  0  0  0  0  0  0  0  0
   27.1881  -20.0018   -8.0703 C   0  0  0  0  0  0  0  0  0  0  0  0
   26.9855  -18.7544   -8.1680 O   0  0  0  0  0  0  0  0  0  0  0  0
   26.4885  -20.1932  -11.5386 C   0  0  0  0  0  0  0  0  0  0  0  0
   25.2780  -20.8631  -10.8859 C   0  0  1  0  0  0  0  0  0  0  0  0
   25.5690  -22.2248  -10.8245 O   0  0  0  0  0  0  0  0  0  0  0  0
   25.1119  -20.3778   -9.4575 C   0  0  2  0  0  0  0  0  0  0  0  0
   26.1931  -20.8394   -8.6123 N   0  0  0  0  0  0  0  0  0  0  0  0
   23.8526  -20.9850   -8.9613 C   0  0  0  0  0  0  0  0  0  0  0  0
   22.6213  -20.7341   -9.5874 O   0  0  0  0  0  0  0  0  0  0  0  0
   23.7879  -21.7548   -7.9641 O   0  0  0  0  0  0  0  0  0  0  0  0
  2  1  1  6
  2  3  1  0
  4  2  1  0
  4  6  1  0
  4  5  1  6
  6 13  1  0
  6  7  2  0
  9  8  1  1
  9 10  1  0
 11  9  1  0
 12 11  1  1
 13 12  1  0
 14 12  1  0
 14 15  2  0
 17 16  1  1
 17 19  1  0
 18 17  1  0
 19 20  1  1
 20 14  1  0
 21 19  1  0
 22 21  1  0
 23 21  2  0
M  END
$$$$
