TLT.pdb
     RDKit          3D

 23 22  0  0  1  0  0  0  0  0999 V2000
   23.8483  -10.3655  -14.9412 C   0  0  0  0  0  0  0  0  0  0  0  0
   24.3730  -10.6368  -16.3195 C   0  0  1  0  0  0  0  0  0  0  0  0
   25.1057  -11.8144  -16.3755 O   0  0  0  0  0  0  0  0  0  0  0  0
   23.3050  -10.6773  -17.3680 C   0  0  2  0  0  0  0  0  0  0  0  0
   23.8386  -10.9688  -18.6802 N   0  0  0  0  0  0  0  0  0  0  0  0
   22.4585   -9.4825  -17.4046 C   0  0  0  0  0  0  0  0  0  0  0  0
   22.7748   -8.4243  -18.0039 O   0  0  0  0  0  0  0  0  0  0  0  0
   17.0154   -9.9440  -18.1326 C   0  0  0  0  0  0  0  0  0  0  0  0
   18.3650   -9.3164  -18.0870 C   0  0  1  0  0  0  0  0  0  0  0  0
   18.3197   -8.0701  -18.9919 C   0  0  0  0  0  0  0  0  0  0  0  0
   18.8864   -8.9132  -16.7547 C   0  0  0  0  0  0  0  0  0  0  0  0
   20.2941   -8.3755  -16.7389 C   0  0  2  0  0  0  0  0  0  0  0  0
   21.2081   -9.4936  -16.7352 N   0  0  0  0  0  0  0  0  0  0  0  0
   20.4505   -7.4256  -15.6400 C   0  0  0  0  0  0  0  0  0  0  0  0
   20.2641   -7.8401  -14.4569 O   0  0  0  0  0  0  0  0  0  0  0  0
   23.5406   -5.8124  -14.5210 C   0  0  0  0  0  0  0  0  0  0  0  0
   22.5448   -4.6768  -14.7637 C   0  0  1  0  0  0  0  0  0  0  0  0
   22.7411   -4.2573  -16.0783 O   0  0  0  0  0  0  0  0  0  0  0  0
   21.1209   -5.1933  -14.6684 C   0  0  2  0  0  0  0  0  0  0  0  0
   20.7994   -6.0673  -15.7772 N   0  0  0  0  0  0  0  0  0  0  0  0
   20.2443   -3.9999  -14.7579 C   0  0  0  0  0  0  0  0  0  0  0  0
   20.1921   -3.0495  -13.7259 O   0  0  0  0  0  0  0  0  0  0  0  0
   19.4954   -3.7492  -15.7416 O   0  0  0  0  0  0  0  0  0  0  0  0
  2  1  1  1
  2  3  1  0
  4  2  1  0
  4  6  1  0
  4  5  1  6
  6 13  1  0
  6  7  2  0
  9  8  1  1
  9 10  1  0
 11  9  1  0
 12 11  1  1
 13 12  1  0
 14 12  1  0
 14 15  2  0
 17 16  1  6
 17 19  1  0
 18 17  1  0
 19 20  1  6
 20 14  1  0
 21 19  1  0
 22 21  1  0
 23 21  2  0
M  END
$$$$
