IIW.pdb
     RDKit          3D

 31 32  0  0  1  0  0  0  0  0999 V2000
   30.1479  -18.3529  -15.4193 C   0  0  0  0  0  0  0  0  0  0  0  0
   28.8350  -19.0892  -15.4983 C   0  0  0  0  0  0  0  0  0  0  0  0
   27.9845  -18.8979  -14.2787 C   0  0  2  0  0  0  0  0  0  0  0  0
   28.6597  -19.4324  -13.0492 C   0  0  0  0  0  0  0  0  0  0  0  0
   26.6751  -19.6020  -14.4644 C   0  0  2  0  0  0  0  0  0  0  0  0
   25.9910  -19.2046  -15.6828 N   0  0  0  0  0  0  0  0  0  0  0  0
   25.7801  -19.4404  -13.2792 C   0  0  0  0  0  0  0  0  0  0  0  0
   25.3747  -18.2952  -12.9551 O   0  0  0  0  0  0  0  0  0  0  0  0
   21.0974  -20.0054  -13.3369 C   0  0  0  0  0  0  0  0  0  0  0  0
   22.5036  -19.7905  -12.9017 C   0  0  0  0  0  0  0  0  0  0  0  0
   22.9920  -20.6607  -11.7962 C   0  0  2  0  0  0  0  0  0  0  0  0
   22.0948  -20.4404  -10.5941 C   0  0  0  0  0  0  0  0  0  0  0  0
   24.4142  -20.3818  -11.3726 C   0  0  2  0  0  0  0  0  0  0  0  0
   25.3425  -20.5243  -12.4695 N   0  0  0  0  0  0  0  0  0  0  0  0
   24.8226  -21.1012  -10.1456 C   0  0  0  0  0  0  0  0  0  0  0  0
   25.1323  -22.3186  -10.1975 O   0  0  0  0  0  0  0  0  0  0  0  0
   24.8896  -20.4771   -8.8703 N   0  0  0  0  0  0  0  0  0  0  0  0
   25.1513  -21.2439   -7.6517 C   0  0  1  0  0  0  0  0  0  0  0  0
   25.4844  -20.3052   -6.5042 C   0  0  0  0  0  0  0  0  0  0  0  0
   26.7891  -19.6497   -6.7404 C   0  0  0  0  0  0  0  0  0  0  0  0
   27.2470  -19.0078   -7.8935 C   0  0  0  0  0  0  0  0  0  0  0  0
   28.4906  -18.5746   -7.6249 N   0  0  0  0  0  0  0  0  0  0  0  0
   28.8574  -18.8930   -6.3875 C   0  0  0  0  0  0  0  0  0  0  0  0
   29.9929  -18.6968   -5.6248 C   0  0  0  0  0  0  0  0  0  0  0  0
   30.0930  -19.1500   -4.3368 C   0  0  0  0  0  0  0  0  0  0  0  0
   29.0358  -19.8258   -3.7674 C   0  0  0  0  0  0  0  0  0  0  0  0
   27.8960  -20.0299   -4.5143 C   0  0  0  0  0  0  0  0  0  0  0  0
   27.8121  -19.5654   -5.8130 C   0  0  0  0  0  0  0  0  0  0  0  0
   23.9555  -22.0301   -7.2623 C   0  0  0  0  0  0  0  0  0  0  0  0
   24.0009  -23.2967   -6.7026 O   0  0  0  0  0  0  0  0  0  0  0  0
   22.7904  -21.5567   -7.4335 O   0  0  0  0  0  0  0  0  0  0  0  0
  2  1  1  0
  2  3  1  0
  3  4  1  1
  5  3  1  0
  5  6  1  6
  7  5  1  0
  7  8  2  0
  9 10  1  0
 10 11  1  0
 11 13  1  0
 11 12  1  1
 13 14  1  6
 13 15  1  0
 14  7  1  0
 15 17  1  0
 16 15  2  0
 17 18  1  0
 18 19  1  1
 19 20  1  0
 20 21  2  0
 22 21  1  0
 23 22  1  0
 24 23  2  0
 25 24  1  0
 26 27  1  0
 26 25  2  0
 27 28  2  0
 28 20  1  0
 28 23  1  0
 29 18  1  0
 30 29  1  0
 31 29  2  0
M  END
$$$$
