IIW.pdb
     RDKit          3D

 31 32  0  0  1  0  0  0  0  0999 V2000
   30.5604  -21.1614  -16.3331 C   0  0  0  0  0  0  0  0  0  0  0  0
   29.0615  -21.2865  -16.4317 C   0  0  0  0  0  0  0  0  0  0  0  0
   28.5667  -22.6592  -16.0882 C   0  0  2  0  0  0  0  0  0  0  0  0
   29.1559  -23.6985  -16.9969 C   0  0  0  0  0  0  0  0  0  0  0  0
   27.0733  -22.6977  -16.2027 C   0  0  2  0  0  0  0  0  0  0  0  0
   26.6049  -22.4123  -17.5479 N   0  0  0  0  0  0  0  0  0  0  0  0
   26.4128  -21.7963  -15.2110 C   0  0  0  0  0  0  0  0  0  0  0  0
   26.3667  -20.5585  -15.4271 O   0  0  0  0  0  0  0  0  0  0  0  0
   21.6234  -21.1290  -14.6576 C   0  0  0  0  0  0  0  0  0  0  0  0
   23.1017  -21.0729  -14.5014 C   0  0  0  0  0  0  0  0  0  0  0  0
   23.6413  -21.4910  -13.1778 C   0  0  2  0  0  0  0  0  0  0  0  0
   23.0317  -20.5945  -12.1179 C   0  0  0  0  0  0  0  0  0  0  0  0
   25.1435  -21.3914  -13.0635 C   0  0  2  0  0  0  0  0  0  0  0  0
   25.8155  -22.2557  -14.0052 N   0  0  0  0  0  0  0  0  0  0  0  0
   25.6451  -21.5126  -11.6765 C   0  0  0  0  0  0  0  0  0  0  0  0
   25.5538  -22.6057  -11.0623 O   0  0  0  0  0  0  0  0  0  0  0  0
   26.2454  -20.4319  -10.9750 N   0  0  0  0  0  0  0  0  0  0  0  0
   26.5725  -20.5261   -9.5518 C   0  0  1  0  0  0  0  0  0  0  0  0
   27.4705  -19.3702   -9.1437 C   0  0  0  0  0  0  0  0  0  0  0  0
   27.5583  -19.2850   -7.6697 C   0  0  0  0  0  0  0  0  0  0  0  0
   26.6817  -18.6622   -6.7781 C   0  0  0  0  0  0  0  0  0  0  0  0
   27.1849  -18.8536   -5.5466 N   0  0  0  0  0  0  0  0  0  0  0  0
   28.3156  -19.5513   -5.5888 C   0  0  0  0  0  0  0  0  0  0  0  0
   29.2140  -20.0125   -4.6454 C   0  0  0  0  0  0  0  0  0  0  0  0
   30.3286  -20.7290   -4.9897 C   0  0  0  0  0  0  0  0  0  0  0  0
   30.5775  -21.0080   -6.3159 C   0  0  0  0  0  0  0  0  0  0  0  0
   29.6916  -20.5554   -7.2693 C   0  0  0  0  0  0  0  0  0  0  0  0
   28.5713  -19.8336   -6.9039 C   0  0  0  0  0  0  0  0  0  0  0  0
   25.3415  -20.4573   -8.7272 C   0  0  0  0  0  0  0  0  0  0  0  0
   25.1221  -21.2113   -7.5858 O   0  0  0  0  0  0  0  0  0  0  0  0
   24.3963  -19.6727   -9.0462 O   0  0  0  0  0  0  0  0  0  0  0  0
  2  1  1  0
  2  3  1  0
  3  4  1  6
  5  3  1  0
  5  6  1  6
  7  5  1  0
  7  8  2  0
  9 10  1  0
 10 11  1  0
 11 13  1  0
 11 12  1  1
 13 14  1  6
 13 15  1  0
 14  7  1  0
 15 17  1  0
 16 15  2  0
 17 18  1  0
 18 19  1  1
 19 20  1  0
 20 21  2  0
 22 21  1  0
 23 22  1  0
 24 23  2  0
 25 24  1  0
 26 27  1  0
 26 25  2  0
 27 28  2  0
 28 20  1  0
 28 23  1  0
 29 18  1  0
 30 29  1  0
 31 29  2  0
M  END
$$$$
