IIW.pdb
     RDKit          3D

 31 32  0  0  1  0  0  0  0  0999 V2000
   20.7324  -16.6590  -15.4981 C   0  0  0  0  0  0  0  0  0  0  0  0
   22.0442  -17.0286  -16.1420 C   0  0  0  0  0  0  0  0  0  0  0  0
   22.7749  -18.1071  -15.4003 C   0  0  2  0  0  0  0  0  0  0  0  0
   22.9956  -17.7326  -13.9636 C   0  0  0  0  0  0  0  0  0  0  0  0
   24.1012  -18.3544  -16.0519 C   0  0  2  0  0  0  0  0  0  0  0  0
   23.9814  -18.6953  -17.4590 N   0  0  0  0  0  0  0  0  0  0  0  0
   24.8981  -19.3875  -15.3240 C   0  0  0  0  0  0  0  0  0  0  0  0
   24.6016  -20.6034  -15.4448 O   0  0  0  0  0  0  0  0  0  0  0  0
   29.8223  -20.0507  -16.2456 C   0  0  0  0  0  0  0  0  0  0  0  0
   28.4221  -20.1071  -15.7468 C   0  0  0  0  0  0  0  0  0  0  0  0
   28.2450  -20.0375  -14.2697 C   0  0  2  0  0  0  0  0  0  0  0  0
   28.9634  -21.2224  -13.6544 C   0  0  0  0  0  0  0  0  0  0  0  0
   26.8051  -20.0803  -13.8173 C   0  0  2  0  0  0  0  0  0  0  0  0
   26.0006  -19.0809  -14.4800 N   0  0  0  0  0  0  0  0  0  0  0  0
   26.6428  -20.1005  -12.3465 C   0  0  0  0  0  0  0  0  0  0  0  0
   26.7031  -19.0319  -11.6870 O   0  0  0  0  0  0  0  0  0  0  0  0
   26.4132  -21.2950  -11.6110 N   0  0  0  0  0  0  0  0  0  0  0  0
   26.0461  -21.2674  -10.1947 C   0  0  1  0  0  0  0  0  0  0  0  0
   26.9909  -20.3581   -9.4269 C   0  0  0  0  0  0  0  0  0  0  0  0
   26.6980  -20.4203   -7.9785 C   0  0  0  0  0  0  0  0  0  0  0  0
   25.5482  -20.8914   -7.3403 C   0  0  0  0  0  0  0  0  0  0  0  0
   25.7519  -20.7420   -6.0203 N   0  0  0  0  0  0  0  0  0  0  0  0
   26.9451  -20.2113   -5.7717 C   0  0  0  0  0  0  0  0  0  0  0  0
   27.6373  -19.8573   -4.6292 C   0  0  0  0  0  0  0  0  0  0  0  0
   28.8926  -19.3130   -4.6769 C   0  0  0  0  0  0  0  0  0  0  0  0
   29.4998  -19.1046   -5.8962 C   0  0  0  0  0  0  0  0  0  0  0  0
   28.8232  -19.4520   -7.0451 C   0  0  0  0  0  0  0  0  0  0  0  0
   27.5567  -20.0006   -6.9784 C   0  0  0  0  0  0  0  0  0  0  0  0
   24.6700  -20.7417  -10.0220 C   0  0  0  0  0  0  0  0  0  0  0  0
   23.7317  -21.2772   -9.1546 O   0  0  0  0  0  0  0  0  0  0  0  0
   24.2762  -19.7372  -10.6904 O   0  0  0  0  0  0  0  0  0  0  0  0
  2  1  1  0
  2  3  1  0
  3  4  1  1
  5  3  1  0
  5  6  1  6
  7  5  1  0
  7  8  2  0
  9 10  1  0
 10 11  1  0
 11 13  1  0
 11 12  1  1
 13 14  1  1
 13 15  1  0
 14  7  1  0
 15 17  1  0
 16 15  2  0
 17 18  1  0
 18 19  1  1
 19 20  1  0
 20 21  2  0
 22 21  1  0
 23 22  1  0
 24 23  2  0
 25 24  1  0
 26 27  1  0
 26 25  2  0
 27 28  2  0
 28 20  1  0
 28 23  1  0
 29 18  1  0
 30 29  1  0
 31 29  2  0
M  END
$$$$
