IIW.pdb
     RDKit          3D

 31 32  0  0  1  0  0  0  0  0999 V2000
   29.1049  -17.7408  -18.2760 C   0  0  0  0  0  0  0  0  0  0  0  0
   28.9998  -18.8190  -17.2280 C   0  0  0  0  0  0  0  0  0  0  0  0
   27.9549  -18.5272  -16.1934 C   0  0  2  0  0  0  0  0  0  0  0  0
   28.1955  -17.2033  -15.5283 C   0  0  0  0  0  0  0  0  0  0  0  0
   27.9624  -19.6065  -15.1542 C   0  0  2  0  0  0  0  0  0  0  0  0
   27.9565  -20.9406  -15.7291 N   0  0  0  0  0  0  0  0  0  0  0  0
   26.8450  -19.4481  -14.1752 C   0  0  0  0  0  0  0  0  0  0  0  0
   26.6628  -18.3395  -13.6106 O   0  0  0  0  0  0  0  0  0  0  0  0
   21.7551  -20.6420  -15.0234 C   0  0  0  0  0  0  0  0  0  0  0  0
   23.0388  -20.1376  -14.4662 C   0  0  0  0  0  0  0  0  0  0  0  0
   23.5882  -20.8811  -13.2985 C   0  0  2  0  0  0  0  0  0  0  0  0
   22.6005  -20.7555  -12.1551 C   0  0  0  0  0  0  0  0  0  0  0  0
   24.9255  -20.3727  -12.8159 C   0  0  2  0  0  0  0  0  0  0  0  0
   25.9476  -20.4952  -13.8286 N   0  0  0  0  0  0  0  0  0  0  0  0
   25.3248  -20.9067  -11.4948 C   0  0  0  0  0  0  0  0  0  0  0  0
   25.3720  -22.1479  -11.3004 O   0  0  0  0  0  0  0  0  0  0  0  0
   25.6714  -20.0729  -10.3971 N   0  0  0  0  0  0  0  0  0  0  0  0
   25.9956  -20.6276   -9.0824 C   0  0  1  0  0  0  0  0  0  0  0  0
   26.7596  -19.6057   -8.2572 C   0  0  0  0  0  0  0  0  0  0  0  0
   27.1321  -20.1804   -6.9463 C   0  0  0  0  0  0  0  0  0  0  0  0
   26.7763  -21.4172   -6.4031 C   0  0  0  0  0  0  0  0  0  0  0  0
   27.3547  -21.4865   -5.1919 N   0  0  0  0  0  0  0  0  0  0  0  0
   28.0515  -20.3865   -4.9246 C   0  0  0  0  0  0  0  0  0  0  0  0
   28.8147  -19.9491   -3.8589 C   0  0  0  0  0  0  0  0  0  0  0  0
   29.4365  -18.7294   -3.8597 C   0  0  0  0  0  0  0  0  0  0  0  0
   29.3070  -17.8986   -4.9514 C   0  0  0  0  0  0  0  0  0  0  0  0
   28.5495  -18.3195   -6.0226 C   0  0  0  0  0  0  0  0  0  0  0  0
   27.9289  -19.5540   -6.0048 C   0  0  0  0  0  0  0  0  0  0  0  0
   24.7581  -20.9747   -8.3422 C   0  0  0  0  0  0  0  0  0  0  0  0
   24.6356  -22.0597   -7.4893 O   0  0  0  0  0  0  0  0  0  0  0  0
   23.7141  -20.2634   -8.4647 O   0  0  0  0  0  0  0  0  0  0  0  0
  2  1  1  0
  2  3  1  0
  3  4  1  1
  5  3  1  0
  5  6  1  6
  7  5  1  0
  7  8  2  0
  9 10  1  0
 10 11  1  0
 11 13  1  0
 11 12  1  1
 13 14  1  6
 13 15  1  0
 14  7  1  0
 15 17  1  0
 16 15  2  0
 17 18  1  0
 18 19  1  1
 19 20  1  0
 20 21  2  0
 22 21  1  0
 23 22  1  0
 24 23  2  0
 25 24  1  0
 26 27  1  0
 26 25  2  0
 27 28  2  0
 28 20  1  0
 28 23  1  0
 29 18  1  0
 30 29  1  0
 31 29  2  0
M  END
$$$$
