IIW.pdb
     RDKit          3D

 31 32  0  0  1  0  0  0  0  0999 V2000
   31.4062  -23.7739  -17.2024 C   0  0  0  0  0  0  0  0  0  0  0  0
   29.9689  -23.3654  -17.4004 C   0  0  0  0  0  0  0  0  0  0  0  0
   29.5431  -22.2632  -16.4778 C   0  0  2  0  0  0  0  0  0  0  0  0
   29.5525  -22.7119  -15.0454 C   0  0  0  0  0  0  0  0  0  0  0  0
   28.1618  -21.8103  -16.8407 C   0  0  2  0  0  0  0  0  0  0  0  0
   28.0999  -21.1910  -18.1534 N   0  0  0  0  0  0  0  0  0  0  0  0
   27.5782  -20.9079  -15.8028 C   0  0  0  0  0  0  0  0  0  0  0  0
   27.9384  -19.7045  -15.7487 O   0  0  0  0  0  0  0  0  0  0  0  0
   23.5231  -18.6860  -16.4569 C   0  0  0  0  0  0  0  0  0  0  0  0
   24.7774  -19.1555  -15.8095 C   0  0  0  0  0  0  0  0  0  0  0  0
   24.6175  -19.9430  -14.5556 C   0  0  2  0  0  0  0  0  0  0  0  0
   23.9336  -19.0597  -13.5305 C   0  0  0  0  0  0  0  0  0  0  0  0
   25.9177  -20.4265  -13.9595 C   0  0  2  0  0  0  0  0  0  0  0  0
   26.6155  -21.3290  -14.8448 N   0  0  0  0  0  0  0  0  0  0  0  0
   25.7878  -20.9288  -12.5736 C   0  0  0  0  0  0  0  0  0  0  0  0
   25.1382  -21.9791  -12.3380 O   0  0  0  0  0  0  0  0  0  0  0  0
   26.3743  -20.2743  -11.4565 N   0  0  0  0  0  0  0  0  0  0  0  0
   26.0658  -20.6728  -10.0826 C   0  0  1  0  0  0  0  0  0  0  0  0
   26.6803  -19.6883   -9.1017 C   0  0  0  0  0  0  0  0  0  0  0  0
   26.6714  -20.2534   -7.7349 C   0  0  0  0  0  0  0  0  0  0  0  0
   25.7274  -21.0983   -7.1462 C   0  0  0  0  0  0  0  0  0  0  0  0
   26.1526  -21.3372   -5.8938 N   0  0  0  0  0  0  0  0  0  0  0  0
   27.2960  -20.7076   -5.6424 C   0  0  0  0  0  0  0  0  0  0  0  0
   28.1390  -20.6129   -4.5515 C   0  0  0  0  0  0  0  0  0  0  0  0
   29.2864  -19.8664   -4.5798 C   0  0  0  0  0  0  0  0  0  0  0  0
   29.6261  -19.1809   -5.7258 C   0  0  0  0  0  0  0  0  0  0  0  0
   28.7963  -19.2646   -6.8226 C   0  0  0  0  0  0  0  0  0  0  0  0
   27.6421  -20.0230   -6.7766 C   0  0  0  0  0  0  0  0  0  0  0  0
   24.5997  -20.6820   -9.8580 C   0  0  0  0  0  0  0  0  0  0  0  0
   23.7091  -19.8181  -10.4745 O   0  0  0  0  0  0  0  0  0  0  0  0
   24.0767  -21.5158   -9.0568 O   0  0  0  0  0  0  0  0  0  0  0  0
  2  1  1  0
  2  3  1  0
  3  4  1  1
  5  3  1  0
  5  6  1  6
  7  5  1  0
  7  8  2  0
  9 10  1  0
 10 11  1  0
 11 13  1  0
 11 12  1  1
 13 14  1  6
 13 15  1  0
 14  7  1  0
 15 17  1  0
 16 15  2  0
 17 18  1  0
 18 19  1  1
 19 20  1  0
 20 21  2  0
 22 21  1  0
 23 22  1  0
 24 23  2  0
 25 24  1  0
 26 27  1  0
 26 25  2  0
 27 28  2  0
 28 20  1  0
 28 23  1  0
 29 18  1  0
 30 29  1  0
 31 29  2  0
M  END
$$$$
