IIW.pdb
     RDKit          3D

 31 32  0  0  1  0  0  0  0  0999 V2000
   13.0062  -21.8119   -0.0674 C   0  0  0  0  0  0  0  0  0  0  0  0
   14.4369  -21.6175    0.3656 C   0  0  0  0  0  0  0  0  0  0  0  0
   14.5572  -21.1068    1.7699 C   0  0  2  0  0  0  0  0  0  0  0  0
   13.7885  -19.8314    1.9580 C   0  0  0  0  0  0  0  0  0  0  0  0
   15.9996  -20.8622    2.0932 C   0  0  2  0  0  0  0  0  0  0  0  0
   16.8638  -21.9487    1.6651 N   0  0  0  0  0  0  0  0  0  0  0  0
   16.2051  -20.5633    3.5425 C   0  0  0  0  0  0  0  0  0  0  0  0
   15.5263  -19.6611    4.0956 O   0  0  0  0  0  0  0  0  0  0  0  0
   18.5862  -24.4779    6.0585 C   0  0  0  0  0  0  0  0  0  0  0  0
   17.5967  -23.3878    6.2716 C   0  0  0  0  0  0  0  0  0  0  0  0
   18.1532  -22.0188    6.4561 C   0  0  2  0  0  0  0  0  0  0  0  0
   18.1522  -21.7078    7.9400 C   0  0  0  0  0  0  0  0  0  0  0  0
   17.3725  -20.9345    5.7530 C   0  0  2  0  0  0  0  0  0  0  0  0
   17.1426  -21.2492    4.3625 N   0  0  0  0  0  0  0  0  0  0  0  0
   17.9076  -19.5732    5.9780 C   0  0  0  0  0  0  0  0  0  0  0  0
   18.9122  -19.1727    5.3369 O   0  0  0  0  0  0  0  0  0  0  0  0
   17.3337  -18.6610    6.9046 N   0  0  0  0  0  0  0  0  0  0  0  0
   17.8174  -17.2855    7.0296 C   0  0  1  0  0  0  0  0  0  0  0  0
   17.6230  -16.5414    5.7190 C   0  0  0  0  0  0  0  0  0  0  0  0
   18.1384  -15.1598    5.8327 C   0  0  0  0  0  0  0  0  0  0  0  0
   18.5311  -14.4667    6.9802 C   0  0  0  0  0  0  0  0  0  0  0  0
   18.9231  -13.2459    6.5774 N   0  0  0  0  0  0  0  0  0  0  0  0
   18.8091  -13.1111    5.2599 C   0  0  0  0  0  0  0  0  0  0  0  0
   19.0644  -12.0970    4.3565 C   0  0  0  0  0  0  0  0  0  0  0  0
   18.8447  -12.2452    3.0133 C   0  0  0  0  0  0  0  0  0  0  0  0
   18.3530  -13.4382    2.5301 C   0  0  0  0  0  0  0  0  0  0  0  0
   18.0931  -14.4597    3.4175 C   0  0  0  0  0  0  0  0  0  0  0  0
   18.3209  -14.2929    4.7702 C   0  0  0  0  0  0  0  0  0  0  0  0
   17.0625  -16.5596    8.0798 C   0  0  0  0  0  0  0  0  0  0  0  0
   17.6337  -15.6848    8.9897 O   0  0  0  0  0  0  0  0  0  0  0  0
   15.8083  -16.7164    8.1954 O   0  0  0  0  0  0  0  0  0  0  0  0
  2  1  1  0
  2  3  1  0
  3  4  1  6
  5  3  1  0
  5  6  1  1
  7  5  1  0
  7  8  2  0
  9 10  1  0
 10 11  1  0
 11 13  1  0
 11 12  1  1
 13 14  1  6
 13 15  1  0
 14  7  1  0
 15 17  1  0
 16 15  2  0
 17 18  1  0
 18 19  1  6
 19 20  1  0
 20 21  2  0
 22 21  1  0
 23 22  1  0
 24 23  2  0
 25 24  1  0
 26 27  1  0
 26 25  2  0
 27 28  2  0
 28 20  1  0
 28 23  1  0
 29 18  1  0
 30 29  1  0
 31 29  2  0
M  END
$$$$
