IIW.pdb
     RDKit          3D

 31 32  0  0  1  0  0  0  0  0999 V2000
   31.1997  -22.3235  -19.6015 C   0  0  0  0  0  0  0  0  0  0  0  0
   30.0595  -22.8432  -18.7636 C   0  0  0  0  0  0  0  0  0  0  0  0
   29.2120  -21.7487  -18.1883 C   0  0  2  0  0  0  0  0  0  0  0  0
   30.0278  -20.8021  -17.3568 C   0  0  0  0  0  0  0  0  0  0  0  0
   28.1329  -22.3445  -17.3366 C   0  0  2  0  0  0  0  0  0  0  0  0
   27.3386  -23.3329  -18.0454 N   0  0  0  0  0  0  0  0  0  0  0  0
   27.2559  -21.2974  -16.7312 C   0  0  0  0  0  0  0  0  0  0  0  0
   27.7511  -20.4422  -15.9537 O   0  0  0  0  0  0  0  0  0  0  0  0
   24.3715  -18.1502  -19.6406 C   0  0  0  0  0  0  0  0  0  0  0  0
   25.0839  -18.7490  -18.4801 C   0  0  0  0  0  0  0  0  0  0  0  0
   24.2342  -19.4325  -17.4658 C   0  0  2  0  0  0  0  0  0  0  0  0
   23.3943  -18.3790  -16.7703 C   0  0  0  0  0  0  0  0  0  0  0  0
   25.0128  -20.1788  -16.4091 C   0  0  2  0  0  0  0  0  0  0  0  0
   25.8597  -21.1987  -16.9816 N   0  0  0  0  0  0  0  0  0  0  0  0
   24.1816  -20.6547  -15.2811 C   0  0  0  0  0  0  0  0  0  0  0  0
   23.3787  -21.6085  -15.4431 O   0  0  0  0  0  0  0  0  0  0  0  0
   24.2400  -20.0803  -13.9822 N   0  0  0  0  0  0  0  0  0  0  0  0
   23.3415  -20.5102  -12.9102 C   0  0  1  0  0  0  0  0  0  0  0  0
   23.7970  -19.9302  -11.5816 C   0  0  0  0  0  0  0  0  0  0  0  0
   22.9453  -20.4353  -10.4829 C   0  0  0  0  0  0  0  0  0  0  0  0
   23.2296  -21.4317   -9.5461 C   0  0  0  0  0  0  0  0  0  0  0  0
   22.1484  -21.5357   -8.7546 N   0  0  0  0  0  0  0  0  0  0  0  0
   21.1983  -20.6799   -9.1180 C   0  0  0  0  0  0  0  0  0  0  0  0
   19.9291  -20.3788   -8.6619 C   0  0  0  0  0  0  0  0  0  0  0  0
   19.1519  -19.4179   -9.2510 C   0  0  0  0  0  0  0  0  0  0  0  0
   19.6362  -18.7191  -10.3353 C   0  0  0  0  0  0  0  0  0  0  0  0
   20.9000  -19.0070  -10.8027 C   0  0  0  0  0  0  0  0  0  0  0  0
   21.6709  -19.9800  -10.1957 C   0  0  0  0  0  0  0  0  0  0  0  0
   21.9601  -20.0333  -13.1637 C   0  0  0  0  0  0  0  0  0  0  0  0
   20.8309  -20.8326  -13.0877 O   0  0  0  0  0  0  0  0  0  0  0  0
   21.7445  -18.8221  -13.4754 O   0  0  0  0  0  0  0  0  0  0  0  0
  2  1  1  0
  2  3  1  0
  3  4  1  1
  5  3  1  0
  5  6  1  6
  7  5  1  0
  7  8  2  0
  9 10  1  0
 10 11  1  0
 11 13  1  0
 11 12  1  1
 13 14  1  6
 13 15  1  0
 14  7  1  0
 15 17  1  0
 16 15  2  0
 17 18  1  0
 18 19  1  1
 19 20  1  0
 20 21  2  0
 22 21  1  0
 23 22  1  0
 24 23  2  0
 25 24  1  0
 26 27  1  0
 26 25  2  0
 27 28  2  0
 28 20  1  0
 28 23  1  0
 29 18  1  0
 30 29  1  0
 31 29  2  0
M  END
$$$$
