IIW.pdb
     RDKit          3D

 31 32  0  0  1  0  0  0  0  0999 V2000
   18.9172  -19.4246  -13.8208 C   0  0  0  0  0  0  0  0  0  0  0  0
   20.1251  -19.9114  -14.5798 C   0  0  0  0  0  0  0  0  0  0  0  0
   21.2126  -20.4195  -13.6819 C   0  0  2  0  0  0  0  0  0  0  0  0
   21.6132  -19.3886  -12.6671 C   0  0  0  0  0  0  0  0  0  0  0  0
   22.4096  -20.7899  -14.5034 C   0  0  2  0  0  0  0  0  0  0  0  0
   22.1137  -21.8002  -15.5045 N   0  0  0  0  0  0  0  0  0  0  0  0
   23.5633  -21.2111  -13.6527 C   0  0  0  0  0  0  0  0  0  0  0  0
   23.5239  -22.3137  -13.0497 O   0  0  0  0  0  0  0  0  0  0  0  0
   28.5247  -21.4064  -15.3691 C   0  0  0  0  0  0  0  0  0  0  0  0
   27.2702  -21.5437  -14.5817 C   0  0  0  0  0  0  0  0  0  0  0  0
   27.1666  -20.7056  -13.3549 C   0  0  2  0  0  0  0  0  0  0  0  0
   28.2594  -21.1385  -12.3972 C   0  0  0  0  0  0  0  0  0  0  0  0
   25.8443  -20.8237  -12.6358 C   0  0  2  0  0  0  0  0  0  0  0  0
   24.7366  -20.4280  -13.4734 N   0  0  0  0  0  0  0  0  0  0  0  0
   25.8361  -20.1950  -11.2961 C   0  0  0  0  0  0  0  0  0  0  0  0
   25.7002  -18.9506  -11.1804 O   0  0  0  0  0  0  0  0  0  0  0  0
   25.9753  -20.9389  -10.0929 N   0  0  0  0  0  0  0  0  0  0  0  0
   26.2464  -20.2853   -8.8119 C   0  0  1  0  0  0  0  0  0  0  0  0
   26.0305  -21.2637   -7.6694 C   0  0  0  0  0  0  0  0  0  0  0  0
   26.3299  -20.6140   -6.3749 C   0  0  0  0  0  0  0  0  0  0  0  0
   25.4391  -20.0889   -5.4356 C   0  0  0  0  0  0  0  0  0  0  0  0
   26.1841  -19.6059   -4.4266 N   0  0  0  0  0  0  0  0  0  0  0  0
   27.4815  -19.7846   -4.6542 C   0  0  0  0  0  0  0  0  0  0  0  0
   28.6432  -19.4870   -3.9675 C   0  0  0  0  0  0  0  0  0  0  0  0
   29.8816  -19.7993   -4.4608 C   0  0  0  0  0  0  0  0  0  0  0  0
   29.9907  -20.4311   -5.6804 C   0  0  0  0  0  0  0  0  0  0  0  0
   28.8420  -20.7350   -6.3781 C   0  0  0  0  0  0  0  0  0  0  0  0
   27.6000  -20.4126   -5.8651 C   0  0  0  0  0  0  0  0  0  0  0  0
   27.6532  -19.8194   -8.7506 C   0  0  0  0  0  0  0  0  0  0  0  0
   28.0475  -18.5869   -8.2557 O   0  0  0  0  0  0  0  0  0  0  0  0
   28.5953  -20.5605   -9.1676 O   0  0  0  0  0  0  0  0  0  0  0  0
  2  1  1  0
  2  3  1  0
  3  4  1  1
  5  3  1  0
  5  6  1  6
  7  5  1  0
  7  8  2  0
  9 10  1  0
 10 11  1  0
 11 13  1  0
 11 12  1  1
 13 14  1  6
 13 15  1  0
 14  7  1  0
 15 17  1  0
 16 15  2  0
 17 18  1  0
 18 19  1  1
 19 20  1  0
 20 21  2  0
 22 21  1  0
 23 22  1  0
 24 23  2  0
 25 24  1  0
 26 27  1  0
 26 25  2  0
 27 28  2  0
 28 20  1  0
 28 23  1  0
 29 18  1  0
 30 29  1  0
 31 29  2  0
M  END
$$$$
