IIW.pdb
     RDKit          3D

 31 32  0  0  1  0  0  0  0  0999 V2000
   28.0423  -16.4955  -16.8837 C   0  0  0  0  0  0  0  0  0  0  0  0
   26.9125  -15.7802  -16.1880 C   0  0  0  0  0  0  0  0  0  0  0  0
   26.3708  -16.5445  -15.0177 C   0  0  2  0  0  0  0  0  0  0  0  0
   27.4500  -16.8668  -14.0254 C   0  0  0  0  0  0  0  0  0  0  0  0
   25.7477  -17.8202  -15.4962 C   0  0  2  0  0  0  0  0  0  0  0  0
   24.7716  -17.6080  -16.5510 N   0  0  0  0  0  0  0  0  0  0  0  0
   25.1511  -18.6065  -14.3747 C   0  0  0  0  0  0  0  0  0  0  0  0
   24.2091  -18.1165  -13.7013 O   0  0  0  0  0  0  0  0  0  0  0  0
   22.4660  -22.8921  -14.6240 C   0  0  0  0  0  0  0  0  0  0  0  0
   23.1709  -21.6737  -14.1431 C   0  0  0  0  0  0  0  0  0  0  0  0
   24.3620  -21.8992  -13.2780 C   0  0  2  0  0  0  0  0  0  0  0  0
   23.9001  -22.6046  -12.0179 C   0  0  0  0  0  0  0  0  0  0  0  0
   25.0760  -20.6337  -12.8675 C   0  0  2  0  0  0  0  0  0  0  0  0
   25.5881  -19.9085  -14.0064 N   0  0  0  0  0  0  0  0  0  0  0  0
   26.0693  -20.8329  -11.7888 C   0  0  0  0  0  0  0  0  0  0  0  0
   27.1112  -21.5034  -12.0019 O   0  0  0  0  0  0  0  0  0  0  0  0
   25.9114  -20.2920  -10.4838 N   0  0  0  0  0  0  0  0  0  0  0  0
   26.7660  -20.7072   -9.3708 C   0  0  1  0  0  0  0  0  0  0  0  0
   27.5448  -19.5167   -8.8368 C   0  0  0  0  0  0  0  0  0  0  0  0
   28.5329  -19.9606   -7.8297 C   0  0  0  0  0  0  0  0  0  0  0  0
   29.6196  -20.8227   -7.9944 C   0  0  0  0  0  0  0  0  0  0  0  0
   30.2186  -20.9206   -6.7953 N   0  0  0  0  0  0  0  0  0  0  0  0
   29.5941  -20.1852   -5.8808 C   0  0  0  0  0  0  0  0  0  0  0  0
   29.7832  -19.9332   -4.5353 C   0  0  0  0  0  0  0  0  0  0  0  0
   28.9552  -19.1055   -3.8255 C   0  0  0  0  0  0  0  0  0  0  0  0
   27.8939  -18.4960   -4.4586 C   0  0  0  0  0  0  0  0  0  0  0  0
   27.6913  -18.7366   -5.8001 C   0  0  0  0  0  0  0  0  0  0  0  0
   28.5371  -19.5749   -6.5011 C   0  0  0  0  0  0  0  0  0  0  0  0
   25.9485  -21.2504   -8.2588 C   0  0  0  0  0  0  0  0  0  0  0  0
   26.4137  -22.1506   -7.3139 O   0  0  0  0  0  0  0  0  0  0  0  0
   24.7366  -20.8999   -8.1203 O   0  0  0  0  0  0  0  0  0  0  0  0
  2  1  1  0
  2  3  1  0
  3  4  1  1
  5  3  1  0
  5  6  1  6
  7  5  1  0
  7  8  2  0
  9 10  1  0
 10 11  1  0
 11 13  1  0
 11 12  1  1
 13 14  1  6
 13 15  1  0
 14  7  1  0
 15 17  1  0
 16 15  2  0
 17 18  1  0
 18 19  1  1
 19 20  1  0
 20 21  2  0
 22 21  1  0
 23 22  1  0
 24 23  2  0
 25 24  1  0
 26 27  1  0
 26 25  2  0
 27 28  2  0
 28 20  1  0
 28 23  1  0
 29 18  1  0
 30 29  1  0
 31 29  2  0
M  END
$$$$
