VTA.pdb
     RDKit          3D

 20 19  0  0  1  0  0  0  0  0999 V2000
   16.5133  -12.6371  -15.6129 C   0  0  0  0  0  0  0  0  0  0  0  0
   17.4678  -11.4852  -15.5003 C   0  0  1  0  0  0  0  0  0  0  0  0
   18.2985  -11.5281  -14.2606 C   0  0  0  0  0  0  0  0  0  0  0  0
   18.2863  -11.2705  -16.7573 C   0  0  2  0  0  0  0  0  0  0  0  0
   18.9687  -12.5555  -16.9865 N   0  0  0  0  0  0  0  0  0  0  0  0
   19.3074  -10.2366  -16.6391 C   0  0  0  0  0  0  0  0  0  0  0  0
   20.5337  -10.5401  -16.4311 O   0  0  0  0  0  0  0  0  0  0  0  0
   20.2431   -7.7480  -19.1133 C   0  0  0  0  0  0  0  0  0  0  0  0
   19.9390   -6.9221  -17.8779 C   0  0  1  0  0  0  0  0  0  0  0  0
   18.6363   -6.4289  -17.9207 O   0  0  0  0  0  0  0  0  0  0  0  0
   20.1227   -7.8416  -16.6621 C   0  0  2  0  0  0  0  0  0  0  0  0
   19.0809   -8.8360  -16.7351 N   0  0  0  0  0  0  0  0  0  0  0  0
   19.9864   -6.9608  -15.4697 C   0  0  0  0  0  0  0  0  0  0  0  0
   18.9318   -6.7961  -14.8316 O   0  0  0  0  0  0  0  0  0  0  0  0
   22.6429   -4.9348  -13.6443 C   0  0  0  0  0  0  0  0  0  0  0  0
   21.2190   -5.3858  -13.9301 C   0  0  2  0  0  0  0  0  0  0  0  0
   21.1655   -6.2752  -15.0602 N   0  0  0  0  0  0  0  0  0  0  0  0
   20.4599   -4.1395  -14.2960 C   0  0  0  0  0  0  0  0  0  0  0  0
   20.2773   -3.7844  -15.4779 O   0  0  0  0  0  0  0  0  0  0  0  0
   19.9277   -3.3289  -13.2956 O   0  0  0  0  0  0  0  0  0  0  0  0
  2  1  1  6
  2  4  1  0
  3  2  1  0
  4  5  1  1
  6  4  1  0
  7  6  2  0
  9  8  1  6
  9 11  1  0
 10  9  1  0
 11 12  1  1
 11 13  1  0
 12  6  1  0
 13 17  1  0
 14 13  2  0
 16 18  1  0
 16 15  1  6
 17 16  1  0
 18 20  1  0
 19 18  2  0
M  END
$$$$
