VTA.pdb
     RDKit          3D

 20 19  0  0  1  0  0  0  0  0999 V2000
   18.5188  -14.6205  -17.5526 C   0  0  0  0  0  0  0  0  0  0  0  0
   19.2434  -15.8550  -17.1035 C   0  0  1  0  0  0  0  0  0  0  0  0
   18.8882  -17.0679  -17.8982 C   0  0  0  0  0  0  0  0  0  0  0  0
   20.7385  -15.6478  -16.9712 C   0  0  2  0  0  0  0  0  0  0  0  0
   21.2334  -16.8759  -16.3259 N   0  0  0  0  0  0  0  0  0  0  0  0
   21.1155  -14.5178  -16.1306 C   0  0  0  0  0  0  0  0  0  0  0  0
   20.8230  -14.4950  -14.8844 O   0  0  0  0  0  0  0  0  0  0  0  0
   24.4301  -13.1024  -15.3935 C   0  0  0  0  0  0  0  0  0  0  0  0
   23.6351  -11.9376  -15.9521 C   0  0  1  0  0  0  0  0  0  0  0  0
   23.8843  -11.7759  -17.3137 O   0  0  0  0  0  0  0  0  0  0  0  0
   22.1503  -12.2470  -15.7135 C   0  0  2  0  0  0  0  0  0  0  0  0
   21.8182  -13.3610  -16.5668 N   0  0  0  0  0  0  0  0  0  0  0  0
   21.4177  -11.0059  -16.0865 C   0  0  0  0  0  0  0  0  0  0  0  0
   20.6600  -10.9022  -17.0671 O   0  0  0  0  0  0  0  0  0  0  0  0
   19.5121   -8.6431  -15.2179 C   0  0  0  0  0  0  0  0  0  0  0  0
   21.0128   -8.5950  -15.4592 C   0  0  2  0  0  0  0  0  0  0  0  0
   21.6227   -9.8798  -15.2393 N   0  0  0  0  0  0  0  0  0  0  0  0
   21.5634   -7.6478  -14.4282 C   0  0  0  0  0  0  0  0  0  0  0  0
   22.2206   -8.0345  -13.4407 O   0  0  0  0  0  0  0  0  0  0  0  0
   21.3467   -6.2774  -14.5547 O   0  0  0  0  0  0  0  0  0  0  0  0
  2  1  1  6
  2  4  1  0
  3  2  1  0
  4  5  1  1
  6  4  1  0
  7  6  2  0
  9  8  1  6
  9 11  1  0
 10  9  1  0
 11 12  1  6
 11 13  1  0
 12  6  1  0
 13 17  1  0
 14 13  2  0
 16 18  1  0
 16 15  1  1
 17 16  1  0
 18 20  1  0
 19 18  2  0
M  END
$$$$
