VTA.pdb
     RDKit          3D

 20 19  0  0  1  0  0  0  0  0999 V2000
   16.7117  -10.1253  -16.8974 C   0  0  0  0  0  0  0  0  0  0  0  0
   17.4196  -11.3531  -16.4053 C   0  0  1  0  0  0  0  0  0  0  0  0
   16.7318  -12.6218  -16.7872 C   0  0  0  0  0  0  0  0  0  0  0  0
   18.8983  -11.3555  -16.7359 C   0  0  2  0  0  0  0  0  0  0  0  0
   19.3068  -12.7663  -16.6250 N   0  0  0  0  0  0  0  0  0  0  0  0
   19.7200  -10.5782  -15.8159 C   0  0  0  0  0  0  0  0  0  0  0  0
   19.7435  -10.8457  -14.5641 O   0  0  0  0  0  0  0  0  0  0  0  0
   23.2270  -10.2235  -15.3889 C   0  0  0  0  0  0  0  0  0  0  0  0
   22.7815   -8.7977  -15.6524 C   0  0  1  0  0  0  0  0  0  0  0  0
   22.9223   -8.4765  -17.0012 O   0  0  0  0  0  0  0  0  0  0  0  0
   21.3087   -8.6982  -15.2303 C   0  0  2  0  0  0  0  0  0  0  0  0
   20.5542   -9.4841  -16.1751 N   0  0  0  0  0  0  0  0  0  0  0  0
   20.9703   -7.2500  -15.2957 C   0  0  0  0  0  0  0  0  0  0  0  0
   20.5502   -6.6692  -16.3120 O   0  0  0  0  0  0  0  0  0  0  0  0
   19.9408   -4.8400  -12.7786 C   0  0  0  0  0  0  0  0  0  0  0  0
   20.8526   -5.1081  -13.9657 C   0  0  2  0  0  0  0  0  0  0  0  0
   21.1527   -6.5098  -14.0928 N   0  0  0  0  0  0  0  0  0  0  0  0
   22.1410   -4.3929  -13.6627 C   0  0  0  0  0  0  0  0  0  0  0  0
   23.1028   -4.9488  -13.0951 O   0  0  0  0  0  0  0  0  0  0  0  0
   22.2955   -3.0547  -14.0186 O   0  0  0  0  0  0  0  0  0  0  0  0
  2  1  1  6
  2  4  1  0
  3  2  1  0
  4  5  1  1
  6  4  1  0
  7  6  2  0
  9  8  1  6
  9 11  1  0
 10  9  1  0
 11 12  1  6
 11 13  1  0
 12  6  1  0
 13 17  1  0
 14 13  2  0
 16 18  1  0
 16 15  1  1
 17 16  1  0
 18 20  1  0
 19 18  2  0
M  END
$$$$
