VTA.pdb
     RDKit          3D

 20 19  0  0  1  0  0  0  0  0999 V2000
   17.4250  -13.4195  -17.0611 C   0  0  0  0  0  0  0  0  0  0  0  0
   18.2968  -12.6666  -16.0999 C   0  0  1  0  0  0  0  0  0  0  0  0
   19.7171  -13.1262  -16.1096 C   0  0  0  0  0  0  0  0  0  0  0  0
   18.1573  -11.1633  -16.2280 C   0  0  2  0  0  0  0  0  0  0  0  0
   18.4683  -10.8750  -17.6386 N   0  0  0  0  0  0  0  0  0  0  0  0
   19.0854  -10.4020  -15.4006 C   0  0  0  0  0  0  0  0  0  0  0  0
   18.9673  -10.3782  -14.1261 O   0  0  0  0  0  0  0  0  0  0  0  0
   22.6413  -10.6282  -14.5521 C   0  0  0  0  0  0  0  0  0  0  0  0
   22.4733   -9.3149  -15.2921 C   0  0  1  0  0  0  0  0  0  0  0  0
   22.6951   -9.4843  -16.6575 O   0  0  0  0  0  0  0  0  0  0  0  0
   21.0374   -8.8333  -15.0396 C   0  0  2  0  0  0  0  0  0  0  0  0
   20.1801   -9.6317  -15.8806 N   0  0  0  0  0  0  0  0  0  0  0  0
   21.0256   -7.3936  -15.4180 C   0  0  0  0  0  0  0  0  0  0  0  0
   20.8214   -6.9686  -16.5688 O   0  0  0  0  0  0  0  0  0  0  0  0
   19.9831   -4.3901  -14.2387 C   0  0  0  0  0  0  0  0  0  0  0  0
   21.3211   -5.0417  -14.5512 C   0  0  2  0  0  0  0  0  0  0  0  0
   21.2686   -6.4676  -14.3638 N   0  0  0  0  0  0  0  0  0  0  0  0
   22.2922   -4.4864  -13.5453 C   0  0  0  0  0  0  0  0  0  0  0  0
   22.7639   -3.3344  -13.6290 O   0  0  0  0  0  0  0  0  0  0  0  0
   22.6998   -5.2670  -12.4656 O   0  0  0  0  0  0  0  0  0  0  0  0
  2  1  1  6
  2  4  1  0
  3  2  1  0
  4  5  1  6
  6  4  1  0
  7  6  2  0
  9  8  1  1
  9 11  1  0
 10  9  1  0
 11 12  1  6
 11 13  1  0
 12  6  1  0
 13 17  1  0
 14 13  2  0
 16 18  1  0
 16 15  1  1
 17 16  1  0
 18 20  1  0
 19 18  2  0
M  END
$$$$
