VTA.pdb
     RDKit          3D

 20 19  0  0  1  0  0  0  0  0999 V2000
   22.0665  -11.6193  -20.2488 C   0  0  0  0  0  0  0  0  0  0  0  0
   21.8721  -10.1333  -20.1785 C   0  0  1  0  0  0  0  0  0  0  0  0
   20.5713   -9.6820  -20.7555 C   0  0  0  0  0  0  0  0  0  0  0  0
   22.1392   -9.5667  -18.7989 C   0  0  2  0  0  0  0  0  0  0  0  0
   21.2630  -10.3365  -17.8994 N   0  0  0  0  0  0  0  0  0  0  0  0
   21.8007   -8.1560  -18.6538 C   0  0  0  0  0  0  0  0  0  0  0  0
   22.5229   -7.2450  -19.1900 O   0  0  0  0  0  0  0  0  0  0  0  0
   18.4818   -4.6612  -17.9868 C   0  0  0  0  0  0  0  0  0  0  0  0
   18.8563   -6.1217  -18.1519 C   0  0  1  0  0  0  0  0  0  0  0  0
   18.5880   -6.5581  -19.4479 O   0  0  0  0  0  0  0  0  0  0  0  0
   20.3563   -6.2418  -17.8473 C   0  0  2  0  0  0  0  0  0  0  0  0
   20.6851   -7.6430  -17.9367 N   0  0  0  0  0  0  0  0  0  0  0  0
   20.5297   -5.7030  -16.4704 C   0  0  0  0  0  0  0  0  0  0  0  0
   20.2716   -4.5342  -16.1329 O   0  0  0  0  0  0  0  0  0  0  0  0
   21.5830   -7.5131  -13.2912 C   0  0  0  0  0  0  0  0  0  0  0  0
   21.1921   -6.2907  -14.1069 C   0  0  2  0  0  0  0  0  0  0  0  0
   21.0274   -6.6174  -15.4987 N   0  0  0  0  0  0  0  0  0  0  0  0
   22.3509   -5.3374  -13.9976 C   0  0  0  0  0  0  0  0  0  0  0  0
   23.0907   -5.0627  -14.9638 O   0  0  0  0  0  0  0  0  0  0  0  0
   22.6337   -4.7211  -12.7805 O   0  0  0  0  0  0  0  0  0  0  0  0
  2  1  1  1
  2  4  1  0
  3  2  1  0
  4  5  1  1
  6  4  1  0
  7  6  2  0
  9  8  1  6
  9 11  1  0
 10  9  1  0
 11 12  1  1
 11 13  1  0
 12  6  1  0
 13 17  1  0
 14 13  2  0
 16 18  1  0
 16 15  1  1
 17 16  1  0
 18 20  1  0
 19 18  2  0
M  END
$$$$
