VTA.pdb
     RDKit          3D

 20 19  0  0  1  0  0  0  0  0999 V2000
   15.4209  -12.0302  -15.1511 C   0  0  0  0  0  0  0  0  0  0  0  0
   16.6430  -11.1718  -15.0083 C   0  0  1  0  0  0  0  0  0  0  0  0
   17.4202  -11.4564  -13.7658 C   0  0  0  0  0  0  0  0  0  0  0  0
   17.5023  -11.1541  -16.2561 C   0  0  2  0  0  0  0  0  0  0  0  0
   17.9072  -12.5563  -16.4546 N   0  0  0  0  0  0  0  0  0  0  0  0
   18.7135  -10.3511  -16.1392 C   0  0  0  0  0  0  0  0  0  0  0  0
   19.8205  -10.8757  -15.7672 O   0  0  0  0  0  0  0  0  0  0  0  0
   20.6372   -8.4649  -18.5653 C   0  0  0  0  0  0  0  0  0  0  0  0
   20.2682   -7.4271  -17.5226 C   0  0  1  0  0  0  0  0  0  0  0  0
   19.1325   -6.7184  -17.9099 O   0  0  0  0  0  0  0  0  0  0  0  0
   20.0074   -8.1780  -16.2089 C   0  0  2  0  0  0  0  0  0  0  0  0
   18.8115   -8.9585  -16.4097 N   0  0  0  0  0  0  0  0  0  0  0  0
   19.8318   -7.1234  -15.1730 C   0  0  0  0  0  0  0  0  0  0  0  0
   18.7315   -6.7231  -14.7538 O   0  0  0  0  0  0  0  0  0  0  0  0
   22.4575   -5.2335  -13.1681 C   0  0  0  0  0  0  0  0  0  0  0  0
   21.0480   -5.4967  -13.6748 C   0  0  2  0  0  0  0  0  0  0  0  0
   21.0280   -6.5563  -14.6483 N   0  0  0  0  0  0  0  0  0  0  0  0
   20.6195   -4.2329  -14.3693 C   0  0  0  0  0  0  0  0  0  0  0  0
   20.7390   -4.0667  -15.6000 O   0  0  0  0  0  0  0  0  0  0  0  0
   20.0632   -3.1881  -13.6343 O   0  0  0  0  0  0  0  0  0  0  0  0
  2  1  1  6
  2  4  1  0
  3  2  1  0
  4  5  1  1
  6  4  1  0
  7  6  2  0
  9  8  1  6
  9 11  1  0
 10  9  1  0
 11 12  1  6
 11 13  1  0
 12  6  1  0
 13 17  1  0
 14 13  2  0
 16 18  1  0
 16 15  1  6
 17 16  1  0
 18 20  1  0
 19 18  2  0
M  END
$$$$
