VTA.pdb
     RDKit          3D

 20 19  0  0  1  0  0  0  0  0999 V2000
   19.9037  -13.3887  -17.1527 C   0  0  0  0  0  0  0  0  0  0  0  0
   18.8319  -12.3391  -17.1723 C   0  0  1  0  0  0  0  0  0  0  0  0
   17.4830  -12.8817  -17.5113 C   0  0  0  0  0  0  0  0  0  0  0  0
   18.8292  -11.4735  -15.9287 C   0  0  2  0  0  0  0  0  0  0  0  0
   17.5349  -10.7712  -15.9614 N   0  0  0  0  0  0  0  0  0  0  0  0
   19.8836  -10.4671  -15.8960 C   0  0  0  0  0  0  0  0  0  0  0  0
   21.0935  -10.7866  -15.6257 O   0  0  0  0  0  0  0  0  0  0  0  0
   21.7081   -8.6228  -18.2999 C   0  0  0  0  0  0  0  0  0  0  0  0
   20.9540   -7.5667  -17.5147 C   0  0  1  0  0  0  0  0  0  0  0  0
   19.7146   -7.3080  -18.0968 O   0  0  0  0  0  0  0  0  0  0  0  0
   20.7725   -8.1062  -16.0887 C   0  0  2  0  0  0  0  0  0  0  0  0
   19.7091   -9.0784  -16.1472 N   0  0  0  0  0  0  0  0  0  0  0  0
   20.4185   -6.9244  -15.2555 C   0  0  0  0  0  0  0  0  0  0  0  0
   19.2614   -6.5002  -15.0892 O   0  0  0  0  0  0  0  0  0  0  0  0
   22.6226   -4.8307  -12.9780 C   0  0  0  0  0  0  0  0  0  0  0  0
   21.3461   -5.1224  -13.7513 C   0  0  2  0  0  0  0  0  0  0  0  0
   21.5052   -6.2586  -14.6202 N   0  0  0  0  0  0  0  0  0  0  0  0
   21.1077   -3.9166  -14.6186 C   0  0  0  0  0  0  0  0  0  0  0  0
   21.3999   -3.8903  -15.8312 O   0  0  0  0  0  0  0  0  0  0  0  0
   20.5387   -2.7676  -14.0733 O   0  0  0  0  0  0  0  0  0  0  0  0
  2  1  1  1
  2  4  1  0
  3  2  1  0
  4  5  1  6
  6  4  1  0
  7  6  2  0
  9  8  1  6
  9 11  1  0
 10  9  1  0
 11 12  1  6
 11 13  1  0
 12  6  1  0
 13 17  1  0
 14 13  2  0
 16 18  1  0
 16 15  1  6
 17 16  1  0
 18 20  1  0
 19 18  2  0
M  END
$$$$
