VTA.pdb
     RDKit          3D

 20 19  0  0  1  0  0  0  0  0999 V2000
   14.4979  -13.1841  -16.1871 C   0  0  0  0  0  0  0  0  0  0  0  0
   15.8128  -13.2559  -15.4683 C   0  0  1  0  0  0  0  0  0  0  0  0
   16.4001  -14.6283  -15.4515 C   0  0  0  0  0  0  0  0  0  0  0  0
   16.7941  -12.1948  -15.9231 C   0  0  2  0  0  0  0  0  0  0  0  0
   17.9837  -12.3947  -15.0780 N   0  0  0  0  0  0  0  0  0  0  0  0
   16.3312  -10.8261  -15.7273 C   0  0  0  0  0  0  0  0  0  0  0  0
   15.3334  -10.3660  -16.3844 O   0  0  0  0  0  0  0  0  0  0  0  0
   15.1053   -9.1515  -12.6630 C   0  0  0  0  0  0  0  0  0  0  0  0
   16.2768   -8.3136  -13.1387 C   0  0  1  0  0  0  0  0  0  0  0  0
   17.4507   -8.6898  -12.4886 O   0  0  0  0  0  0  0  0  0  0  0  0
   16.4087   -8.5374  -14.6519 C   0  0  2  0  0  0  0  0  0  0  0  0
   16.8999   -9.8815  -14.8294 N   0  0  0  0  0  0  0  0  0  0  0  0
   17.3765   -7.5103  -15.1257 C   0  0  0  0  0  0  0  0  0  0  0  0
   18.6118   -7.6542  -15.1299 O   0  0  0  0  0  0  0  0  0  0  0  0
   16.7141   -4.2967  -17.0127 C   0  0  0  0  0  0  0  0  0  0  0  0
   17.5874   -5.2319  -16.1909 C   0  0  2  0  0  0  0  0  0  0  0  0
   16.8133   -6.2913  -15.5999 N   0  0  0  0  0  0  0  0  0  0  0  0
   18.1430   -4.3953  -15.0708 C   0  0  0  0  0  0  0  0  0  0  0  0
   18.9674   -3.4782  -15.2597 O   0  0  0  0  0  0  0  0  0  0  0  0
   17.7388   -4.6310  -13.7584 O   0  0  0  0  0  0  0  0  0  0  0  0
  2  1  1  6
  2  4  1  0
  3  2  1  0
  4  5  1  1
  6  4  1  0
  7  6  2  0
  9  8  1  1
  9 11  1  0
 10  9  1  0
 11 12  1  1
 11 13  1  0
 12  6  1  0
 13 17  1  0
 14 13  2  0
 16 18  1  0
 16 15  1  6
 17 16  1  0
 18 20  1  0
 19 18  2  0
M  END
$$$$
