VTA.pdb
     RDKit          3D

 20 19  0  0  1  0  0  0  0  0999 V2000
   22.8816  -19.8875  -11.8828 C   0  0  0  0  0  0  0  0  0  0  0  0
   23.7310  -20.2873  -10.7125 C   0  0  1  0  0  0  0  0  0  0  0  0
   22.9709  -21.0187   -9.6561 C   0  0  0  0  0  0  0  0  0  0  0  0
   25.0079  -20.9925  -11.1223 C   0  0  2  0  0  0  0  0  0  0  0  0
   25.7499  -21.1890   -9.8651 N   0  0  0  0  0  0  0  0  0  0  0  0
   25.8548  -20.2231  -12.0259 C   0  0  0  0  0  0  0  0  0  0  0  0
   26.5911  -19.2705  -11.5905 O   0  0  0  0  0  0  0  0  0  0  0  0
   28.3118  -21.3472  -14.6299 C   0  0  0  0  0  0  0  0  0  0  0  0
   27.3554  -20.4320  -15.3704 C   0  0  1  0  0  0  0  0  0  0  0  0
   26.4028  -21.1720  -16.0684 O   0  0  0  0  0  0  0  0  0  0  0  0
   26.6759  -19.5418  -14.3200 C   0  0  2  0  0  0  0  0  0  0  0  0
   25.9632  -20.4241  -13.4294 N   0  0  0  0  0  0  0  0  0  0  0  0
   25.7647  -18.6458  -15.0835 C   0  0  0  0  0  0  0  0  0  0  0  0
   24.5883  -18.9216  -15.3779 O   0  0  0  0  0  0  0  0  0  0  0  0
   26.1168  -14.9828  -15.8463 C   0  0  0  0  0  0  0  0  0  0  0  0
   25.5470  -16.3625  -16.1367 C   0  0  2  0  0  0  0  0  0  0  0  0
   26.3117  -17.3949  -15.4883 N   0  0  0  0  0  0  0  0  0  0  0  0
   25.6853  -16.5588  -17.6218 C   0  0  0  0  0  0  0  0  0  0  0  0
   24.9629  -15.9682  -18.4497 O   0  0  0  0  0  0  0  0  0  0  0  0
   26.6509  -17.4296  -18.1225 O   0  0  0  0  0  0  0  0  0  0  0  0
  2  1  1  6
  2  4  1  0
  3  2  1  0
  4  5  1  1
  6  4  1  0
  7  6  2  0
  9  8  1  1
  9 11  1  0
 10  9  1  0
 11 12  1  1
 11 13  1  0
 12  6  1  0
 13 17  1  0
 14 13  2  0
 16 18  1  0
 16 15  1  6
 17 16  1  0
 18 20  1  0
 19 18  2  0
M  END
$$$$
