VTA.pdb
     RDKit          3D

 20 19  0  0  1  0  0  0  0  0999 V2000
   18.2474   -9.7366  -18.8711 C   0  0  0  0  0  0  0  0  0  0  0  0
   18.2505  -11.1862  -18.4844 C   0  0  1  0  0  0  0  0  0  0  0  0
   17.8013  -12.0898  -19.5847 C   0  0  0  0  0  0  0  0  0  0  0  0
   19.5537  -11.6257  -17.8487 C   0  0  2  0  0  0  0  0  0  0  0  0
   19.2883  -12.9845  -17.3461 N   0  0  0  0  0  0  0  0  0  0  0  0
   19.9770  -10.8059  -16.7197 C   0  0  0  0  0  0  0  0  0  0  0  0
   19.2614  -10.7187  -15.6618 O   0  0  0  0  0  0  0  0  0  0  0  0
   22.8652  -11.0344  -14.5709 C   0  0  0  0  0  0  0  0  0  0  0  0
   22.9595   -9.6254  -15.1245 C   0  0  1  0  0  0  0  0  0  0  0  0
   23.8190   -9.5807  -16.2206 O   0  0  0  0  0  0  0  0  0  0  0  0
   21.5419   -9.2062  -15.5395 C   0  0  2  0  0  0  0  0  0  0  0  0
   21.1744  -10.0416  -16.6560 N   0  0  0  0  0  0  0  0  0  0  0  0
   21.6427   -7.7686  -15.9128 C   0  0  0  0  0  0  0  0  0  0  0  0
   21.8537   -7.3527  -17.0657 O   0  0  0  0  0  0  0  0  0  0  0  0
   20.2009   -4.7497  -14.9070 C   0  0  0  0  0  0  0  0  0  0  0  0
   21.5670   -5.4075  -15.0243 C   0  0  2  0  0  0  0  0  0  0  0  0
   21.4811   -6.8336  -14.8511 N   0  0  0  0  0  0  0  0  0  0  0  0
   22.3847   -4.8597  -13.8865 C   0  0  0  0  0  0  0  0  0  0  0  0
   22.5357   -5.4713  -12.8097 O   0  0  0  0  0  0  0  0  0  0  0  0
   23.0107   -3.6212  -14.0114 O   0  0  0  0  0  0  0  0  0  0  0  0
  2  1  1  6
  2  4  1  0
  3  2  1  0
  4  5  1  1
  6  4  1  0
  7  6  2  0
  9  8  1  6
  9 11  1  0
 10  9  1  0
 11 12  1  6
 11 13  1  0
 12  6  1  0
 13 17  1  0
 14 13  2  0
 16 18  1  0
 16 15  1  1
 17 16  1  0
 18 20  1  0
 19 18  2  0
M  END
$$$$
