VTA.pdb
     RDKit          3D

 20 19  0  0  1  0  0  0  0  0999 V2000
   17.0698  -11.5270  -16.6543 C   0  0  0  0  0  0  0  0  0  0  0  0
   18.4762  -11.0766  -16.9191 C   0  0  1  0  0  0  0  0  0  0  0  0
   18.5810  -10.1091  -18.0512 C   0  0  0  0  0  0  0  0  0  0  0  0
   19.1924  -10.6084  -15.6686 C   0  0  2  0  0  0  0  0  0  0  0  0
   18.3815   -9.4852  -15.1682 N   0  0  0  0  0  0  0  0  0  0  0  0
   20.5447  -10.1153  -15.9007 C   0  0  0  0  0  0  0  0  0  0  0  0
   21.4847  -10.9081  -16.2569 O   0  0  0  0  0  0  0  0  0  0  0  0
   22.2608   -9.6956  -18.1927 C   0  0  0  0  0  0  0  0  0  0  0  0
   22.2348   -8.2527  -17.7259 C   0  0  1  0  0  0  0  0  0  0  0  0
   21.0915   -7.6036  -18.1879 O   0  0  0  0  0  0  0  0  0  0  0  0
   22.2543   -8.2730  -16.1907 C   0  0  2  0  0  0  0  0  0  0  0  0
   20.9660   -8.7637  -15.7677 N   0  0  0  0  0  0  0  0  0  0  0  0
   22.4914   -6.8635  -15.7746 C   0  0  0  0  0  0  0  0  0  0  0  0
   23.5121   -6.2090  -16.0510 O   0  0  0  0  0  0  0  0  0  0  0  0
   20.1283   -4.3535  -14.2312 C   0  0  0  0  0  0  0  0  0  0  0  0
   21.5168   -4.9026  -14.5196 C   0  0  2  0  0  0  0  0  0  0  0  0
   21.4569   -6.2548  -15.0085 N   0  0  0  0  0  0  0  0  0  0  0  0
   22.2304   -4.9289  -13.1955 C   0  0  0  0  0  0  0  0  0  0  0  0
   22.5856   -3.8914  -12.6008 O   0  0  0  0  0  0  0  0  0  0  0  0
   22.5198   -6.1470  -12.5841 O   0  0  0  0  0  0  0  0  0  0  0  0
  2  1  1  1
  2  4  1  0
  3  2  1  0
  4  5  1  6
  6  4  1  0
  7  6  2  0
  9  8  1  6
  9 11  1  0
 10  9  1  0
 11 12  1  1
 11 13  1  0
 12  6  1  0
 13 17  1  0
 14 13  2  0
 16 18  1  0
 16 15  1  1
 17 16  1  0
 18 20  1  0
 19 18  2  0
M  END
$$$$
