VTA.pdb
     RDKit          3D

 20 19  0  0  1  0  0  0  0  0999 V2000
   21.6291  -13.6257  -19.6618 C   0  0  0  0  0  0  0  0  0  0  0  0
   20.8624  -12.4645  -19.1006 C   0  0  1  0  0  0  0  0  0  0  0  0
   20.1292  -12.7959  -17.8432 C   0  0  0  0  0  0  0  0  0  0  0  0
   21.6962  -11.2044  -18.9883 C   0  0  2  0  0  0  0  0  0  0  0  0
   22.8150  -11.5706  -18.1030 N   0  0  0  0  0  0  0  0  0  0  0  0
   20.9988  -10.0754  -18.3843 C   0  0  0  0  0  0  0  0  0  0  0  0
   20.1070   -9.4258  -19.0337 O   0  0  0  0  0  0  0  0  0  0  0  0
   18.4898   -9.7349  -15.9798 C   0  0  0  0  0  0  0  0  0  0  0  0
   19.6537   -8.9886  -15.3563 C   0  0  1  0  0  0  0  0  0  0  0  0
   20.4056   -9.8346  -14.5433 O   0  0  0  0  0  0  0  0  0  0  0  0
   20.5147   -8.4493  -16.5075 C   0  0  2  0  0  0  0  0  0  0  0  0
   21.2108   -9.5811  -17.0680 N   0  0  0  0  0  0  0  0  0  0  0  0
   21.4402   -7.4621  -15.8869 C   0  0  0  0  0  0  0  0  0  0  0  0
   22.6235   -7.6975  -15.5855 O   0  0  0  0  0  0  0  0  0  0  0  0
   20.8615   -3.7814  -15.1047 C   0  0  0  0  0  0  0  0  0  0  0  0
   21.6669   -5.0714  -15.1102 C   0  0  2  0  0  0  0  0  0  0  0  0
   20.8988   -6.1692  -15.6354 N   0  0  0  0  0  0  0  0  0  0  0  0
   21.9653   -5.3744  -13.6672 C   0  0  0  0  0  0  0  0  0  0  0  0
   21.2968   -6.1873  -12.9973 O   0  0  0  0  0  0  0  0  0  0  0  0
   23.0251   -4.7366  -13.0259 O   0  0  0  0  0  0  0  0  0  0  0  0
  2  1  1  1
  2  4  1  0
  3  2  1  0
  4  5  1  1
  6  4  1  0
  7  6  2  0
  9  8  1  6
  9 11  1  0
 10  9  1  0
 11 12  1  1
 11 13  1  0
 12  6  1  0
 13 17  1  0
 14 13  2  0
 16 18  1  0
 16 15  1  1
 17 16  1  0
 18 20  1  0
 19 18  2  0
M  END
$$$$
