VTA.pdb
     RDKit          3D

 20 19  0  0  1  0  0  0  0  0999 V2000
   18.8813  -13.2804  -19.4175 C   0  0  0  0  0  0  0  0  0  0  0  0
   18.1629  -11.9710  -19.5600 C   0  0  1  0  0  0  0  0  0  0  0  0
   17.0169  -11.8226  -18.6148 C   0  0  0  0  0  0  0  0  0  0  0  0
   19.0986  -10.7793  -19.5519 C   0  0  2  0  0  0  0  0  0  0  0  0
   19.8585  -10.9055  -18.2965 N   0  0  0  0  0  0  0  0  0  0  0  0
   18.4239   -9.4868  -19.5384 C   0  0  0  0  0  0  0  0  0  0  0  0
   17.7911   -9.0613  -20.5668 O   0  0  0  0  0  0  0  0  0  0  0  0
   15.5382   -8.3011  -17.8648 C   0  0  0  0  0  0  0  0  0  0  0  0
   16.6298   -7.3731  -17.3670 C   0  0  1  0  0  0  0  0  0  0  0  0
   17.1745   -7.8447  -16.1741 O   0  0  0  0  0  0  0  0  0  0  0  0
   17.7068   -7.3136  -18.4596 C   0  0  2  0  0  0  0  0  0  0  0  0
   18.3864   -8.5853  -18.4394 N   0  0  0  0  0  0  0  0  0  0  0  0
   18.5999   -6.1846  -18.0805 C   0  0  0  0  0  0  0  0  0  0  0  0
   19.5936   -6.2897  -17.3401 O   0  0  0  0  0  0  0  0  0  0  0  0
   18.6032   -2.5955  -19.3328 C   0  0  0  0  0  0  0  0  0  0  0  0
   19.0502   -3.7241  -18.4168 C   0  0  2  0  0  0  0  0  0  0  0  0
   18.2629   -4.9112  -18.6214 N   0  0  0  0  0  0  0  0  0  0  0  0
   18.7904   -3.2419  -17.0156 C   0  0  0  0  0  0  0  0  0  0  0  0
   17.8568   -3.6811  -16.3143 O   0  0  0  0  0  0  0  0  0  0  0  0
   19.6092   -2.2659  -16.4515 O   0  0  0  0  0  0  0  0  0  0  0  0
  2  1  1  1
  2  4  1  0
  3  2  1  0
  4  5  1  1
  6  4  1  0
  7  6  2  0
  9  8  1  6
  9 11  1  0
 10  9  1  0
 11 12  1  1
 11 13  1  0
 12  6  1  0
 13 17  1  0
 14 13  2  0
 16 18  1  0
 16 15  1  6
 17 16  1  0
 18 20  1  0
 19 18  2  0
M  END
$$$$
