NPH.pdb
     RDKit          3D

 26 27  0  0  1  0  0  0  0  0999 V2000
   14.5336  -15.9287  -15.8909 N   0  0  0  0  0  0  0  0  0  0  0  0
   14.9923  -14.6692  -16.3460 C   0  0  0  0  0  0  0  0  0  0  0  0
   14.6467  -14.2920  -17.4883 O   0  0  0  0  0  0  0  0  0  0  0  0
   15.8531  -13.7889  -15.5389 C   0  0  0  0  0  0  0  0  0  0  0  0
   17.1843  -13.5122  -16.2137 C   0  0  2  0  0  0  0  0  0  0  0  0
   17.9915  -14.7422  -16.2409 N   0  0  0  0  0  0  0  0  0  0  0  0
   17.9303  -12.4371  -15.5323 C   0  0  0  0  0  0  0  0  0  0  0  0
   18.6449  -12.7689  -14.5252 O   0  0  0  0  0  0  0  0  0  0  0  0
   17.9103  -11.0698  -15.9145 N   0  0  0  0  0  0  0  0  0  0  0  0
   17.2049  -10.4758  -17.0258 C   0  0  0  0  0  0  0  0  0  0  0  0
   18.2222   -9.4705  -17.5520 C   0  0  0  0  0  0  0  0  0  0  0  0
   19.1403   -9.1873  -16.4014 C   0  0  0  0  0  0  0  0  0  0  0  0
   18.6130   -9.9879  -15.2595 C   0  0  1  0  0  0  0  0  0  0  0  0
   17.7170   -9.2363  -14.3564 C   0  0  0  0  0  0  0  0  0  0  0  0
   16.5027   -9.1387  -14.6816 O   0  0  0  0  0  0  0  0  0  0  0  0
   18.1548   -8.6266  -13.1544 N   0  0  0  0  0  0  0  0  0  0  0  0
   17.2064   -8.0958  -12.1811 C   0  0  1  0  0  0  0  0  0  0  0  0
   17.3108   -8.7850  -10.8679 C   0  0  0  0  0  0  0  0  0  0  0  0
   16.3846   -8.1820   -9.8895 C   0  0  0  0  0  0  0  0  0  0  0  0
   15.1254   -8.6072   -9.4787 C   0  0  0  0  0  0  0  0  0  0  0  0
   14.6019   -7.7605   -8.5840 N   0  0  0  0  0  0  0  0  0  0  0  0
   15.5164   -6.7919   -8.4157 C   0  0  0  0  0  0  0  0  0  0  0  0
   16.5879   -7.0268   -9.1873 N   0  0  0  0  0  0  0  0  0  0  0  0
   17.3305   -6.6278  -12.0704 C   0  0  0  0  0  0  0  0  0  0  0  0
   16.1967   -5.8216  -11.8121 O   0  0  0  0  0  0  0  0  0  0  0  0
   18.3977   -5.9808  -12.1881 O   0  0  0  0  0  0  0  0  0  0  0  0
  2  1  1  0
  3  2  2  0
  4  2  1  0
  5  4  1  0
  5  6  1  1
  7  5  1  0
  7  9  1  0
  8  7  2  0
  9 13  1  0
 10  9  1  0
 10 11  1  0
 11 12  1  0
 13 14  1  6
 13 12  1  0
 14 15  2  0
 16 17  1  0
 16 14  1  0
 17 18  1  1
 18 19  1  0
 19 23  1  0
 20 19  2  0
 20 21  1  0
 21 22  1  0
 23 22  2  0
 24 25  1  0
 24 17  1  0
 26 24  2  0
M  END
$$$$
