NPH.pdb
     RDKit          3D

 26 27  0  0  1  0  0  0  0  0999 V2000
   23.3176  -26.2397  -18.7046 N   0  0  0  0  0  0  0  0  0  0  0  0
   23.5591  -25.5711  -17.4805 C   0  0  0  0  0  0  0  0  0  0  0  0
   22.8519  -25.8729  -16.4928 O   0  0  0  0  0  0  0  0  0  0  0  0
   24.5998  -24.5423  -17.3195 C   0  0  0  0  0  0  0  0  0  0  0  0
   25.9190  -25.1289  -16.8509 C   0  0  2  0  0  0  0  0  0  0  0  0
   26.9072  -24.0524  -16.6792 N   0  0  0  0  0  0  0  0  0  0  0  0
   26.4352  -26.1384  -17.7949 C   0  0  0  0  0  0  0  0  0  0  0  0
   25.6127  -27.0251  -18.2104 O   0  0  0  0  0  0  0  0  0  0  0  0
   27.7717  -26.1934  -18.2709 N   0  0  0  0  0  0  0  0  0  0  0  0
   28.8334  -25.2453  -18.0273 C   0  0  0  0  0  0  0  0  0  0  0  0
   29.5157  -25.1700  -19.3880 C   0  0  0  0  0  0  0  0  0  0  0  0
   29.1611  -26.4477  -20.0872 C   0  0  0  0  0  0  0  0  0  0  0  0
   28.3376  -27.2228  -19.1156 C   0  0  1  0  0  0  0  0  0  0  0  0
   29.1039  -28.2057  -18.3219 C   0  0  0  0  0  0  0  0  0  0  0  0
   29.6103  -27.8161  -17.2350 O   0  0  0  0  0  0  0  0  0  0  0  0
   29.2938  -29.5519  -18.7218 N   0  0  0  0  0  0  0  0  0  0  0  0
   29.1881  -30.6511  -17.7682 C   0  0  1  0  0  0  0  0  0  0  0  0
   27.9937  -30.5170  -16.8930 C   0  0  0  0  0  0  0  0  0  0  0  0
   27.8787  -31.6784  -15.9893 C   0  0  0  0  0  0  0  0  0  0  0  0
   28.8529  -32.3047  -15.2188 C   0  0  0  0  0  0  0  0  0  0  0  0
   28.3402  -33.3455  -14.5513 N   0  0  0  0  0  0  0  0  0  0  0  0
   27.0411  -33.3936  -14.8873 C   0  0  0  0  0  0  0  0  0  0  0  0
   26.7472  -32.4057  -15.7453 N   0  0  0  0  0  0  0  0  0  0  0  0
   29.2503  -31.9559  -18.4586 C   0  0  0  0  0  0  0  0  0  0  0  0
   29.5425  -32.0316  -19.8410 O   0  0  0  0  0  0  0  0  0  0  0  0
   29.0604  -33.0706  -17.9176 O   0  0  0  0  0  0  0  0  0  0  0  0
  2  1  1  0
  3  2  2  0
  4  2  1  0
  5  4  1  0
  5  6  1  6
  7  5  1  0
  7  9  1  0
  8  7  2  0
  9 13  1  0
 10  9  1  0
 10 11  1  0
 11 12  1  0
 13 14  1  1
 13 12  1  0
 14 15  2  0
 16 17  1  0
 16 14  1  0
 17 18  1  6
 18 19  1  0
 19 23  1  0
 20 19  2  0
 20 21  1  0
 21 22  1  0
 23 22  2  0
 24 25  1  0
 24 17  1  0
 26 24  2  0
M  END
$$$$
