NPH.pdb
     RDKit          3D

 26 27  0  0  1  0  0  0  0  0999 V2000
   22.7087  -14.8801  -21.3094 N   0  0  0  0  0  0  0  0  0  0  0  0
   23.7179  -14.0966  -20.6999 C   0  0  0  0  0  0  0  0  0  0  0  0
   24.8621  -14.1080  -21.2073 O   0  0  0  0  0  0  0  0  0  0  0  0
   23.4817  -13.2736  -19.5023 C   0  0  0  0  0  0  0  0  0  0  0  0
   24.4916  -13.5547  -18.4045 C   0  0  2  0  0  0  0  0  0  0  0  0
   24.3908  -14.9620  -17.9866 N   0  0  0  0  0  0  0  0  0  0  0  0
   24.2949  -12.6700  -17.2403 C   0  0  0  0  0  0  0  0  0  0  0  0
   23.4605  -13.0520  -16.3499 O   0  0  0  0  0  0  0  0  0  0  0  0
   24.9632  -11.4332  -17.0412 N   0  0  0  0  0  0  0  0  0  0  0  0
   25.9881  -10.8421  -17.8692 C   0  0  0  0  0  0  0  0  0  0  0  0
   26.9483  -10.2702  -16.8332 C   0  0  0  0  0  0  0  0  0  0  0  0
   26.1347  -10.0885  -15.5874 C   0  0  0  0  0  0  0  0  0  0  0  0
   24.7508  -10.5126  -15.9453 C   0  0  1  0  0  0  0  0  0  0  0  0
   23.8616   -9.4018  -16.3435 C   0  0  0  0  0  0  0  0  0  0  0  0
   23.9430   -8.9804  -17.5290 O   0  0  0  0  0  0  0  0  0  0  0  0
   22.9313   -8.7946  -15.4636 N   0  0  0  0  0  0  0  0  0  0  0  0
   21.8477   -7.9550  -15.9631 C   0  0  1  0  0  0  0  0  0  0  0  0
   20.5493   -8.2759  -15.3139 C   0  0  0  0  0  0  0  0  0  0  0  0
   20.1284   -9.6513  -15.6454 C   0  0  0  0  0  0  0  0  0  0  0  0
   19.9778  -10.2595  -16.8873 C   0  0  0  0  0  0  0  0  0  0  0  0
   19.5530  -11.5219  -16.7544 N   0  0  0  0  0  0  0  0  0  0  0  0
   19.4287  -11.7306  -15.4339 C   0  0  0  0  0  0  0  0  0  0  0  0
   19.7679  -10.6245  -14.7556 N   0  0  0  0  0  0  0  0  0  0  0  0
   22.2010   -6.5239  -15.8641 C   0  0  0  0  0  0  0  0  0  0  0  0
   21.3649   -5.5301  -16.4257 O   0  0  0  0  0  0  0  0  0  0  0  0
   23.2244   -6.0684  -15.3015 O   0  0  0  0  0  0  0  0  0  0  0  0
  2  1  1  0
  3  2  2  0
  4  2  1  0
  5  4  1  0
  5  6  1  1
  7  5  1  0
  7  9  1  0
  8  7  2  0
  9 13  1  0
 10  9  1  0
 10 11  1  0
 11 12  1  0
 13 14  1  6
 13 12  1  0
 14 15  2  0
 16 17  1  0
 16 14  1  0
 17 18  1  1
 18 19  1  0
 19 23  1  0
 20 19  2  0
 20 21  1  0
 21 22  1  0
 23 22  2  0
 24 25  1  0
 24 17  1  0
 26 24  2  0
M  END
$$$$
