NPH.pdb
     RDKit          3D

 26 27  0  0  1  0  0  0  0  0999 V2000
   27.2957  -17.8822  -18.5329 N   0  0  0  0  0  0  0  0  0  0  0  0
   27.8004  -18.0150  -17.2170 C   0  0  0  0  0  0  0  0  0  0  0  0
   28.7417  -17.2679  -16.8669 O   0  0  0  0  0  0  0  0  0  0  0  0
   27.2693  -18.9878  -16.2480 C   0  0  0  0  0  0  0  0  0  0  0  0
   28.1842  -20.1871  -16.0787 C   0  0  2  0  0  0  0  0  0  0  0  0
   28.0959  -21.0498  -17.2675 N   0  0  0  0  0  0  0  0  0  0  0  0
   27.8509  -20.9633  -14.8692 C   0  0  0  0  0  0  0  0  0  0  0  0
   27.0494  -21.9497  -15.0099 O   0  0  0  0  0  0  0  0  0  0  0  0
   28.3546  -20.6935  -13.5694 N   0  0  0  0  0  0  0  0  0  0  0  0
   29.2677  -19.6452  -13.1785 C   0  0  0  0  0  0  0  0  0  0  0  0
   30.1731  -20.3617  -12.1839 C   0  0  0  0  0  0  0  0  0  0  0  0
   29.3789  -21.5322  -11.6876 C   0  0  0  0  0  0  0  0  0  0  0  0
   28.0538  -21.4351  -12.3641 C   0  0  1  0  0  0  0  0  0  0  0  0
   27.0139  -20.7567  -11.5631 C   0  0  0  0  0  0  0  0  0  0  0  0
   26.9343  -19.5011  -11.6466 O   0  0  0  0  0  0  0  0  0  0  0  0
   26.1115  -21.4448  -10.7144 N   0  0  0  0  0  0  0  0  0  0  0  0
   24.7966  -20.8974  -10.3981 C   0  0  1  0  0  0  0  0  0  0  0  0
   23.7595  -21.9584  -10.3017 C   0  0  0  0  0  0  0  0  0  0  0  0
   22.4446  -21.3717   -9.9770 C   0  0  0  0  0  0  0  0  0  0  0  0
   22.0909  -20.0421   -9.7720 C   0  0  0  0  0  0  0  0  0  0  0  0
   20.7905  -19.9324   -9.4743 N   0  0  0  0  0  0  0  0  0  0  0  0
   20.3040  -21.1839   -9.4861 C   0  0  0  0  0  0  0  0  0  0  0  0
   21.2774  -22.0569   -9.7843 N   0  0  0  0  0  0  0  0  0  0  0  0
   24.8568  -20.0424   -9.1948 C   0  0  0  0  0  0  0  0  0  0  0  0
   24.0640  -18.8747   -9.0944 O   0  0  0  0  0  0  0  0  0  0  0  0
   25.5793  -20.2537   -8.1924 O   0  0  0  0  0  0  0  0  0  0  0  0
  2  1  1  0
  3  2  2  0
  4  2  1  0
  5  4  1  0
  5  6  1  6
  7  5  1  0
  7  9  1  0
  8  7  2  0
  9 13  1  0
 10  9  1  0
 10 11  1  0
 11 12  1  0
 13 14  1  1
 13 12  1  0
 14 15  2  0
 16 17  1  0
 16 14  1  0
 17 18  1  1
 18 19  1  0
 19 23  1  0
 20 19  2  0
 20 21  1  0
 21 22  1  0
 23 22  2  0
 24 25  1  0
 24 17  1  0
 26 24  2  0
M  END
$$$$
