NPH.pdb
     RDKit          3D

 26 27  0  0  1  0  0  0  0  0999 V2000
   25.4788  -20.1618   -9.7605 N   0  0  0  0  0  0  0  0  0  0  0  0
   25.5854  -21.1938  -10.7236 C   0  0  0  0  0  0  0  0  0  0  0  0
   24.6403  -22.0083  -10.8240 O   0  0  0  0  0  0  0  0  0  0  0  0
   26.7527  -21.3498  -11.6070 C   0  0  0  0  0  0  0  0  0  0  0  0
   27.8618  -20.3696  -11.2708 C   0  0  2  0  0  0  0  0  0  0  0  0
   27.3929  -18.9934  -11.4976 N   0  0  0  0  0  0  0  0  0  0  0  0
   29.0770  -20.6237  -12.0680 C   0  0  0  0  0  0  0  0  0  0  0  0
   29.3052  -19.8399  -13.0522 O   0  0  0  0  0  0  0  0  0  0  0  0
   30.0041  -21.6702  -11.8200 N   0  0  0  0  0  0  0  0  0  0  0  0
   29.9040  -22.7206  -10.8341 C   0  0  0  0  0  0  0  0  0  0  0  0
   31.3357  -22.8170  -10.3206 C   0  0  0  0  0  0  0  0  0  0  0  0
   32.1932  -22.2479  -11.4105 C   0  0  0  0  0  0  0  0  0  0  0  0
   31.2561  -21.8861  -12.5123 C   0  0  1  0  0  0  0  0  0  0  0  0
   31.1195  -22.9236  -13.5554 C   0  0  0  0  0  0  0  0  0  0  0  0
   30.4691  -23.9645  -13.2669 O   0  0  0  0  0  0  0  0  0  0  0  0
   31.6799  -22.8040  -14.8515 N   0  0  0  0  0  0  0  0  0  0  0  0
   31.4287  -23.8034  -15.8843 C   0  0  1  0  0  0  0  0  0  0  0  0
   31.0040  -23.1843  -17.1676 C   0  0  0  0  0  0  0  0  0  0  0  0
   29.7013  -22.5079  -17.0122 C   0  0  0  0  0  0  0  0  0  0  0  0
   28.7590  -22.6173  -15.9948 C   0  0  0  0  0  0  0  0  0  0  0  0
   27.6933  -21.8465  -16.2436 N   0  0  0  0  0  0  0  0  0  0  0  0
   27.9434  -21.2409  -17.4156 C   0  0  0  0  0  0  0  0  0  0  0  0
   29.1381  -21.6237  -17.8897 N   0  0  0  0  0  0  0  0  0  0  0  0
   32.5886  -24.7055  -16.0383 C   0  0  0  0  0  0  0  0  0  0  0  0
   32.4077  -26.0690  -16.3704 O   0  0  0  0  0  0  0  0  0  0  0  0
   33.7886  -24.3718  -15.8974 O   0  0  0  0  0  0  0  0  0  0  0  0
  2  1  1  0
  3  2  2  0
  4  2  1  0
  5  4  1  0
  5  6  1  6
  7  5  1  0
  7  9  1  0
  8  7  2  0
  9 13  1  0
 10  9  1  0
 10 11  1  0
 11 12  1  0
 13 14  1  6
 13 12  1  0
 14 15  2  0
 16 17  1  0
 16 14  1  0
 17 18  1  6
 18 19  1  0
 19 23  1  0
 20 19  2  0
 20 21  1  0
 21 22  1  0
 23 22  2  0
 24 25  1  0
 24 17  1  0
 26 24  2  0
M  END
$$$$
