NPH.pdb
     RDKit          3D

 26 27  0  0  1  0  0  0  0  0999 V2000
   27.5755  -23.3762  -16.4801 N   0  0  0  0  0  0  0  0  0  0  0  0
   28.8822  -23.6346  -16.0008 C   0  0  0  0  0  0  0  0  0  0  0  0
   29.2558  -23.0503  -14.9589 O   0  0  0  0  0  0  0  0  0  0  0  0
   29.8153  -24.5554  -16.6707 C   0  0  0  0  0  0  0  0  0  0  0  0
   30.8878  -23.8179  -17.4517 C   0  0  2  0  0  0  0  0  0  0  0  0
   30.2586  -22.9501  -18.4598 N   0  0  0  0  0  0  0  0  0  0  0  0
   31.8262  -24.7493  -18.1063 C   0  0  0  0  0  0  0  0  0  0  0  0
   31.6025  -25.0399  -19.3313 O   0  0  0  0  0  0  0  0  0  0  0  0
   32.9524  -25.3407  -17.4756 N   0  0  0  0  0  0  0  0  0  0  0  0
   33.2906  -25.3148  -16.0719 C   0  0  0  0  0  0  0  0  0  0  0  0
   34.8002  -25.1093  -16.1085 C   0  0  0  0  0  0  0  0  0  0  0  0
   35.2393  -25.5924  -17.4579 C   0  0  0  0  0  0  0  0  0  0  0  0
   34.0041  -26.0892  -18.1290 C   0  0  1  0  0  0  0  0  0  0  0  0
   33.7875  -27.5448  -17.9966 C   0  0  0  0  0  0  0  0  0  0  0  0
   33.4284  -27.9851  -16.8711 O   0  0  0  0  0  0  0  0  0  0  0  0
   33.9627  -28.4590  -19.0650 N   0  0  0  0  0  0  0  0  0  0  0  0
   33.7426  -29.8901  -18.8858 C   0  0  1  0  0  0  0  0  0  0  0  0
   32.8533  -30.4532  -19.9359 C   0  0  0  0  0  0  0  0  0  0  0  0
   31.5169  -29.8297  -19.8741 C   0  0  0  0  0  0  0  0  0  0  0  0
   31.0194  -28.7248  -20.5573 C   0  0  0  0  0  0  0  0  0  0  0  0
   29.7558  -28.4682  -20.1981 N   0  0  0  0  0  0  0  0  0  0  0  0
   29.4360  -29.4014  -19.2871 C   0  0  0  0  0  0  0  0  0  0  0  0
   30.4755  -30.2233  -19.0808 N   0  0  0  0  0  0  0  0  0  0  0  0
   35.0273  -30.6113  -18.7742 C   0  0  0  0  0  0  0  0  0  0  0  0
   35.0581  -32.0160  -18.6069 O   0  0  0  0  0  0  0  0  0  0  0  0
   36.1616  -30.0793  -18.8142 O   0  0  0  0  0  0  0  0  0  0  0  0
  2  1  1  0
  3  2  2  0
  4  2  1  0
  5  4  1  0
  5  6  1  6
  7  5  1  0
  7  9  1  0
  8  7  2  0
  9 13  1  0
 10  9  1  0
 10 11  1  0
 11 12  1  0
 13 14  1  1
 13 12  1  0
 14 15  2  0
 16 17  1  0
 16 14  1  0
 17 18  1  6
 18 19  1  0
 19 23  1  0
 20 19  2  0
 20 21  1  0
 21 22  1  0
 23 22  2  0
 24 25  1  0
 24 17  1  0
 26 24  2  0
M  END
$$$$
