NPH.pdb
     RDKit          3D

 26 27  0  0  1  0  0  0  0  0999 V2000
   25.1553  -16.6384  -18.9439 N   0  0  0  0  0  0  0  0  0  0  0  0
   24.1130  -16.2147  -18.0848 C   0  0  0  0  0  0  0  0  0  0  0  0
   23.2385  -17.0494  -17.7605 O   0  0  0  0  0  0  0  0  0  0  0  0
   24.0137  -14.8432  -17.5591 C   0  0  0  0  0  0  0  0  0  0  0  0
   24.9777  -14.5968  -16.4128 C   0  0  2  0  0  0  0  0  0  0  0  0
   24.9404  -15.7344  -15.4803 N   0  0  0  0  0  0  0  0  0  0  0  0
   24.6645  -13.3474  -15.6932 C   0  0  0  0  0  0  0  0  0  0  0  0
   23.8851  -13.4340  -14.6832 O   0  0  0  0  0  0  0  0  0  0  0  0
   25.1647  -12.0651  -16.0415 N   0  0  0  0  0  0  0  0  0  0  0  0
   26.0938  -11.7390  -17.0979 C   0  0  0  0  0  0  0  0  0  0  0  0
   26.9802  -10.6916  -16.4346 C   0  0  0  0  0  0  0  0  0  0  0  0
   26.1622  -10.1234  -15.3142 C   0  0  0  0  0  0  0  0  0  0  0  0
   24.8432  -10.8148  -15.3883 C   0  0  1  0  0  0  0  0  0  0  0  0
   23.8106  -10.0691  -16.1373 C   0  0  0  0  0  0  0  0  0  0  0  0
   23.3763  -10.5795  -17.2053 O   0  0  0  0  0  0  0  0  0  0  0  0
   23.2913   -8.8201  -15.7150 N   0  0  0  0  0  0  0  0  0  0  0  0
   21.8542   -8.5775  -15.6462 C   0  0  1  0  0  0  0  0  0  0  0  0
   21.1640   -9.5613  -14.7709 C   0  0  0  0  0  0  0  0  0  0  0  0
   20.6190  -10.6758  -15.5708 C   0  0  0  0  0  0  0  0  0  0  0  0
   20.6789  -10.8974  -16.9428 C   0  0  0  0  0  0  0  0  0  0  0  0
   20.0353  -12.0230  -17.2750 N   0  0  0  0  0  0  0  0  0  0  0  0
   19.5609  -12.5282  -16.1249 C   0  0  0  0  0  0  0  0  0  0  0  0
   19.8996  -11.7370  -15.0964 N   0  0  0  0  0  0  0  0  0  0  0  0
   21.5734   -7.1770  -15.2687 C   0  0  0  0  0  0  0  0  0  0  0  0
   20.5296   -6.4532  -15.8922 O   0  0  0  0  0  0  0  0  0  0  0  0
   22.1990   -6.5216  -14.4024 O   0  0  0  0  0  0  0  0  0  0  0  0
  2  1  1  0
  3  2  2  0
  4  2  1  0
  5  4  1  0
  5  6  1  1
  7  5  1  0
  7  9  1  0
  8  7  2  0
  9 13  1  0
 10  9  1  0
 10 11  1  0
 11 12  1  0
 13 14  1  6
 13 12  1  0
 14 15  2  0
 16 17  1  0
 16 14  1  0
 17 18  1  1
 18 19  1  0
 19 23  1  0
 20 19  2  0
 20 21  1  0
 21 22  1  0
 23 22  2  0
 24 25  1  0
 24 17  1  0
 26 24  2  0
M  END
$$$$
