NPH.pdb
     RDKit          3D

 26 27  0  0  1  0  0  0  0  0999 V2000
   21.6889  -16.2259  -18.2916 N   0  0  0  0  0  0  0  0  0  0  0  0
   21.3681  -17.0148  -17.1609 C   0  0  0  0  0  0  0  0  0  0  0  0
   20.2615  -16.8298  -16.6060 O   0  0  0  0  0  0  0  0  0  0  0  0
   22.2740  -18.0375  -16.6125 C   0  0  0  0  0  0  0  0  0  0  0  0
   23.5625  -18.1484  -17.4073 C   0  0  2  0  0  0  0  0  0  0  0  0
   23.3041  -18.8488  -18.6753 N   0  0  0  0  0  0  0  0  0  0  0  0
   24.6140  -18.8532  -16.6496 C   0  0  0  0  0  0  0  0  0  0  0  0
   24.7830  -20.0955  -16.9012 O   0  0  0  0  0  0  0  0  0  0  0  0
   25.4454  -18.2525  -15.6678 N   0  0  0  0  0  0  0  0  0  0  0  0
   25.4655  -16.8680  -15.2578 C   0  0  0  0  0  0  0  0  0  0  0  0
   26.9576  -16.6008  -15.1006 C   0  0  0  0  0  0  0  0  0  0  0  0
   27.5863  -17.9441  -14.8832 C   0  0  0  0  0  0  0  0  0  0  0  0
   26.4591  -18.9200  -14.8802 C   0  0  1  0  0  0  0  0  0  0  0  0
   25.9547  -19.2576  -13.5331 C   0  0  0  0  0  0  0  0  0  0  0  0
   25.0621  -18.5175  -13.0377 O   0  0  0  0  0  0  0  0  0  0  0  0
   26.4227  -20.3631  -12.7801 N   0  0  0  0  0  0  0  0  0  0  0  0
   25.6786  -20.8725  -11.6333 C   0  0  1  0  0  0  0  0  0  0  0  0
   25.4973  -22.3469  -11.6965 C   0  0  0  0  0  0  0  0  0  0  0  0
   24.7834  -22.7301  -12.9303 C   0  0  0  0  0  0  0  0  0  0  0  0
   23.4234  -22.9290  -13.1447 C   0  0  0  0  0  0  0  0  0  0  0  0
   23.1860  -23.2933  -14.4106 N   0  0  0  0  0  0  0  0  0  0  0  0
   24.3853  -23.3306  -15.0133 C   0  0  0  0  0  0  0  0  0  0  0  0
   25.3512  -22.9972  -14.1448 N   0  0  0  0  0  0  0  0  0  0  0  0
   26.2906  -20.4232  -10.3658 C   0  0  0  0  0  0  0  0  0  0  0  0
   27.5766  -19.8333  -10.3507 O   0  0  0  0  0  0  0  0  0  0  0  0
   25.7600  -20.5145   -9.2338 O   0  0  0  0  0  0  0  0  0  0  0  0
  2  1  1  0
  3  2  2  0
  4  2  1  0
  5  4  1  0
  5  6  1  6
  7  5  1  0
  7  9  1  0
  8  7  2  0
  9 13  1  0
 10  9  1  0
 10 11  1  0
 11 12  1  0
 13 14  1  1
 13 12  1  0
 14 15  2  0
 16 17  1  0
 16 14  1  0
 17 18  1  1
 18 19  1  0
 19 23  1  0
 20 19  2  0
 20 21  1  0
 21 22  1  0
 23 22  2  0
 24 25  1  0
 24 17  1  0
 26 24  2  0
M  END
$$$$
