NPH.pdb
     RDKit          3D

 26 27  0  0  1  0  0  0  0  0999 V2000
   20.6975  -13.3454  -21.1041 N   0  0  0  0  0  0  0  0  0  0  0  0
   21.5178  -13.0612  -19.9860 C   0  0  0  0  0  0  0  0  0  0  0  0
   22.7338  -13.3493  -20.0567 O   0  0  0  0  0  0  0  0  0  0  0  0
   21.0058  -12.4449  -18.7509 C   0  0  0  0  0  0  0  0  0  0  0  0
   21.5801  -13.0943  -17.5049 C   0  0  2  0  0  0  0  0  0  0  0  0
   21.0940  -14.4790  -17.3984 N   0  0  0  0  0  0  0  0  0  0  0  0
   21.2282  -12.3434  -16.2846 C   0  0  0  0  0  0  0  0  0  0  0  0
   20.1364  -12.6589  -15.6984 O   0  0  0  0  0  0  0  0  0  0  0  0
   22.0118  -11.3027  -15.7199 N   0  0  0  0  0  0  0  0  0  0  0  0
   23.2410  -10.7467  -16.2350 C   0  0  0  0  0  0  0  0  0  0  0  0
   24.0662  -10.5613  -14.9672 C   0  0  0  0  0  0  0  0  0  0  0  0
   23.0724  -10.4889  -13.8473 C   0  0  0  0  0  0  0  0  0  0  0  0
   21.7318  -10.5908  -14.4918 C   0  0  1  0  0  0  0  0  0  0  0  0
   21.0900   -9.2877  -14.7623 C   0  0  0  0  0  0  0  0  0  0  0  0
   21.4007   -8.6900  -15.8280 O   0  0  0  0  0  0  0  0  0  0  0  0
   20.1511   -8.6852  -13.8884 N   0  0  0  0  0  0  0  0  0  0  0  0
   19.3727   -7.5199  -14.2942 C   0  0  1  0  0  0  0  0  0  0  0  0
   17.9096   -7.7627  -14.1894 C   0  0  0  0  0  0  0  0  0  0  0  0
   17.5540   -8.2150  -12.8301 C   0  0  0  0  0  0  0  0  0  0  0  0
   17.4092   -9.5060  -12.3326 C   0  0  0  0  0  0  0  0  0  0  0  0
   17.0536   -9.4854  -11.0424 N   0  0  0  0  0  0  0  0  0  0  0  0
   16.9683   -8.1884  -10.7054 C   0  0  0  0  0  0  0  0  0  0  0  0
   17.2637   -7.4149  -11.7604 N   0  0  0  0  0  0  0  0  0  0  0  0
   19.8084   -6.3134  -13.5612 C   0  0  0  0  0  0  0  0  0  0  0  0
   20.6866   -6.4139  -12.4562 O   0  0  0  0  0  0  0  0  0  0  0  0
   19.4621   -5.1390  -13.8297 O   0  0  0  0  0  0  0  0  0  0  0  0
  2  1  1  0
  3  2  2  0
  4  2  1  0
  5  4  1  0
  5  6  1  1
  7  5  1  0
  7  9  1  0
  8  7  2  0
  9 13  1  0
 10  9  1  0
 10 11  1  0
 11 12  1  0
 13 14  1  6
 13 12  1  0
 14 15  2  0
 16 17  1  0
 16 14  1  0
 17 18  1  1
 18 19  1  0
 19 23  1  0
 20 19  2  0
 20 21  1  0
 21 22  1  0
 23 22  2  0
 24 25  1  0
 24 17  1  0
 26 24  2  0
M  END
$$$$
