NPH.pdb
     RDKit          3D

 26 27  0  0  1  0  0  0  0  0999 V2000
   18.8294  -28.2180  -11.9000 N   0  0  0  0  0  0  0  0  0  0  0  0
   17.4694  -28.1235  -11.5188 C   0  0  0  0  0  0  0  0  0  0  0  0
   16.6004  -28.1443  -12.4195 O   0  0  0  0  0  0  0  0  0  0  0  0
   17.0351  -28.0027  -10.1173 C   0  0  0  0  0  0  0  0  0  0  0  0
   18.2083  -27.9513   -9.1555 C   0  0  2  0  0  0  0  0  0  0  0  0
   18.7584  -29.3036   -8.9717 N   0  0  0  0  0  0  0  0  0  0  0  0
   17.8208  -27.3851   -7.8494 C   0  0  0  0  0  0  0  0  0  0  0  0
   17.5127  -28.2104   -6.9225 O   0  0  0  0  0  0  0  0  0  0  0  0
   17.7668  -25.9978   -7.5521 N   0  0  0  0  0  0  0  0  0  0  0  0
   18.0045  -24.8939   -8.4523 C   0  0  0  0  0  0  0  0  0  0  0  0
   18.7956  -23.9296   -7.5766 C   0  0  0  0  0  0  0  0  0  0  0  0
   18.4546  -24.2967   -6.1638 C   0  0  0  0  0  0  0  0  0  0  0  0
   17.4675  -25.4096   -6.2645 C   0  0  1  0  0  0  0  0  0  0  0  0
   16.0571  -24.9759   -6.1884 C   0  0  0  0  0  0  0  0  0  0  0  0
   15.4968  -24.6098   -7.2569 O   0  0  0  0  0  0  0  0  0  0  0  0
   15.3129  -24.9529   -4.9826 N   0  0  0  0  0  0  0  0  0  0  0  0
   13.8789  -24.6843   -4.9785 C   0  0  1  0  0  0  0  0  0  0  0  0
   13.2542  -25.0110   -3.6695 C   0  0  0  0  0  0  0  0  0  0  0  0
   13.8189  -24.1661   -2.5990 C   0  0  0  0  0  0  0  0  0  0  0  0
   15.0802  -24.1988   -2.0133 C   0  0  0  0  0  0  0  0  0  0  0  0
   15.1876  -23.2710   -1.0545 N   0  0  0  0  0  0  0  0  0  0  0  0
   14.0026  -22.6406   -1.0188 C   0  0  0  0  0  0  0  0  0  0  0  0
   13.1725  -23.1616   -1.9342 N   0  0  0  0  0  0  0  0  0  0  0  0
   13.6001  -23.3017   -5.4185 C   0  0  0  0  0  0  0  0  0  0  0  0
   12.3205  -22.9384   -5.9009 O   0  0  0  0  0  0  0  0  0  0  0  0
   14.4263  -22.3590   -5.4096 O   0  0  0  0  0  0  0  0  0  0  0  0
  2  1  1  0
  3  2  2  0
  4  2  1  0
  5  4  1  0
  5  6  1  1
  7  5  1  0
  7  9  1  0
  8  7  2  0
  9 13  1  0
 10  9  1  0
 10 11  1  0
 11 12  1  0
 13 14  1  6
 13 12  1  0
 14 15  2  0
 16 17  1  0
 16 14  1  0
 17 18  1  1
 18 19  1  0
 19 23  1  0
 20 19  2  0
 20 21  1  0
 21 22  1  0
 23 22  2  0
 24 25  1  0
 24 17  1  0
 26 24  2  0
M  END
$$$$
