NPH.pdb
     RDKit          3D

 26 27  0  0  1  0  0  0  0  0999 V2000
   29.2102  -18.9501  -16.1011 N   0  0  0  0  0  0  0  0  0  0  0  0
   27.8548  -18.5466  -16.1640 C   0  0  0  0  0  0  0  0  0  0  0  0
   27.5808  -17.4891  -16.7749 O   0  0  0  0  0  0  0  0  0  0  0  0
   26.7599  -19.3123  -15.5458 C   0  0  0  0  0  0  0  0  0  0  0  0
   27.2508  -20.5936  -14.8967 C   0  0  2  0  0  0  0  0  0  0  0  0
   27.8178  -21.4833  -15.9224 N   0  0  0  0  0  0  0  0  0  0  0  0
   26.1704  -21.2883  -14.1710 C   0  0  0  0  0  0  0  0  0  0  0  0
   25.6364  -22.2987  -14.7446 O   0  0  0  0  0  0  0  0  0  0  0  0
   25.6860  -20.9160  -12.8893 N   0  0  0  0  0  0  0  0  0  0  0  0
   26.1944  -19.8789  -12.0225 C   0  0  0  0  0  0  0  0  0  0  0  0
   26.1090  -20.5362  -10.6502 C   0  0  0  0  0  0  0  0  0  0  0  0
   25.0748  -21.6131  -10.7835 C   0  0  0  0  0  0  0  0  0  0  0  0
   24.5757  -21.5202  -12.1854 C   0  0  1  0  0  0  0  0  0  0  0  0
   23.3445  -20.7176  -12.3374 C   0  0  0  0  0  0  0  0  0  0  0  0
   23.4714  -19.4772  -12.5248 O   0  0  0  0  0  0  0  0  0  0  0  0
   22.0414  -21.2717  -12.2828 N   0  0  0  0  0  0  0  0  0  0  0  0
   20.9274  -20.6693  -13.0072 C   0  0  1  0  0  0  0  0  0  0  0  0
   21.0963  -20.7782  -14.4803 C   0  0  0  0  0  0  0  0  0  0  0  0
   19.9517  -20.1643  -15.1814 C   0  0  0  0  0  0  0  0  0  0  0  0
   19.3269  -18.9411  -14.9611 C   0  0  0  0  0  0  0  0  0  0  0  0
   18.3035  -18.7666  -15.8061 N   0  0  0  0  0  0  0  0  0  0  0  0
   18.2651  -19.8704  -16.5697 C   0  0  0  0  0  0  0  0  0  0  0  0
   19.2419  -20.7164  -16.2111 N   0  0  0  0  0  0  0  0  0  0  0  0
   19.6367  -21.2121  -12.5357 C   0  0  0  0  0  0  0  0  0  0  0  0
   18.5124  -20.3690  -12.3705 O   0  0  0  0  0  0  0  0  0  0  0  0
   19.4180  -22.4126  -12.2489 O   0  0  0  0  0  0  0  0  0  0  0  0
  2  1  1  0
  3  2  2  0
  4  2  1  0
  5  4  1  0
  5  6  1  6
  7  5  1  0
  7  9  1  0
  8  7  2  0
  9 13  1  0
 10  9  1  0
 10 11  1  0
 11 12  1  0
 13 14  1  1
 13 12  1  0
 14 15  2  0
 16 17  1  0
 16 14  1  0
 17 18  1  6
 18 19  1  0
 19 23  1  0
 20 19  2  0
 20 21  1  0
 21 22  1  0
 23 22  2  0
 24 25  1  0
 24 17  1  0
 26 24  2  0
M  END
$$$$
