NPH.pdb
     RDKit          3D

 26 27  0  0  1  0  0  0  0  0999 V2000
   19.0581  -12.5731  -20.3030 N   0  0  0  0  0  0  0  0  0  0  0  0
   20.2725  -12.0477  -19.8000 C   0  0  0  0  0  0  0  0  0  0  0  0
   21.3200  -12.2498  -20.4546 O   0  0  0  0  0  0  0  0  0  0  0  0
   20.3565  -11.2783  -18.5476 C   0  0  0  0  0  0  0  0  0  0  0  0
   21.0157  -12.0685  -17.4318 C   0  0  2  0  0  0  0  0  0  0  0  0
   20.1601  -13.2055  -17.0570 N   0  0  0  0  0  0  0  0  0  0  0  0
   21.2805  -11.2280  -16.2485 C   0  0  0  0  0  0  0  0  0  0  0  0
   20.3467  -11.1293  -15.3806 O   0  0  0  0  0  0  0  0  0  0  0  0
   22.4913  -10.5265  -16.0080 N   0  0  0  0  0  0  0  0  0  0  0  0
   23.6560  -10.4617  -16.8594 C   0  0  0  0  0  0  0  0  0  0  0  0
   24.7960  -10.5573  -15.8526 C   0  0  0  0  0  0  0  0  0  0  0  0
   24.2170  -10.1070  -14.5452 C   0  0  0  0  0  0  0  0  0  0  0  0
   22.8035   -9.7343  -14.8383 C   0  0  1  0  0  0  0  0  0  0  0  0
   22.5988   -8.2939  -15.0966 C   0  0  0  0  0  0  0  0  0  0  0  0
   22.9904   -7.8343  -16.2035 O   0  0  0  0  0  0  0  0  0  0  0  0
   21.9890   -7.4146  -14.1676 N   0  0  0  0  0  0  0  0  0  0  0  0
   21.6772   -6.0333  -14.5190 C   0  0  1  0  0  0  0  0  0  0  0  0
   20.2161   -5.7622  -14.4711 C   0  0  0  0  0  0  0  0  0  0  0  0
   19.5049   -6.5662  -15.4843 C   0  0  0  0  0  0  0  0  0  0  0  0
   19.6460   -6.5788  -16.8681 C   0  0  0  0  0  0  0  0  0  0  0  0
   18.7907   -7.4420  -17.4293 N   0  0  0  0  0  0  0  0  0  0  0  0
   18.0989   -7.9858  -16.4150 C   0  0  0  0  0  0  0  0  0  0  0  0
   18.5117   -7.4748  -15.2458 N   0  0  0  0  0  0  0  0  0  0  0  0
   22.4633   -5.0899  -13.6976 C   0  0  0  0  0  0  0  0  0  0  0  0
   22.5646   -3.7253  -14.0576 O   0  0  0  0  0  0  0  0  0  0  0  0
   23.0883   -5.3874  -12.6525 O   0  0  0  0  0  0  0  0  0  0  0  0
  2  1  1  0
  3  2  2  0
  4  2  1  0
  5  4  1  0
  5  6  1  1
  7  5  1  0
  7  9  1  0
  8  7  2  0
  9 13  1  0
 10  9  1  0
 10 11  1  0
 11 12  1  0
 13 14  1  6
 13 12  1  0
 14 15  2  0
 16 17  1  0
 16 14  1  0
 17 18  1  1
 18 19  1  0
 19 23  1  0
 20 19  2  0
 20 21  1  0
 21 22  1  0
 23 22  2  0
 24 25  1  0
 24 17  1  0
 26 24  2  0
M  END
$$$$
