NPH.pdb
     RDKit          3D

 26 27  0  0  1  0  0  0  0  0999 V2000
   24.6863  -17.8211  -19.0960 N   0  0  0  0  0  0  0  0  0  0  0  0
   25.6781  -18.0800  -18.1196 C   0  0  0  0  0  0  0  0  0  0  0  0
   26.8149  -17.5833  -18.2859 O   0  0  0  0  0  0  0  0  0  0  0  0
   25.4321  -18.9033  -16.9242 C   0  0  0  0  0  0  0  0  0  0  0  0
   26.3443  -20.1150  -16.8642 C   0  0  2  0  0  0  0  0  0  0  0  0
   25.9328  -21.0962  -17.8806 N   0  0  0  0  0  0  0  0  0  0  0  0
   26.3348  -20.7416  -15.5286 C   0  0  0  0  0  0  0  0  0  0  0  0
   25.5011  -21.6916  -15.3344 O   0  0  0  0  0  0  0  0  0  0  0  0
   27.1808  -20.3662  -14.4519 N   0  0  0  0  0  0  0  0  0  0  0  0
   28.2743  -19.4233  -14.4781 C   0  0  0  0  0  0  0  0  0  0  0  0
   29.3183  -20.1175  -13.6118 C   0  0  0  0  0  0  0  0  0  0  0  0
   28.5523  -21.0697  -12.7437 C   0  0  0  0  0  0  0  0  0  0  0  0
   27.1176  -20.8715  -13.0976 C   0  0  1  0  0  0  0  0  0  0  0  0
   26.3992  -19.9344  -12.2093 C   0  0  0  0  0  0  0  0  0  0  0  0
   26.1319  -18.7872  -12.6588 O   0  0  0  0  0  0  0  0  0  0  0  0
   26.0009  -20.2623  -10.8894 N   0  0  0  0  0  0  0  0  0  0  0  0
   24.5929  -20.3207  -10.5118 C   0  0  1  0  0  0  0  0  0  0  0  0
   23.8080  -21.1977  -11.4202 C   0  0  0  0  0  0  0  0  0  0  0  0
   22.8251  -20.4060  -12.1857 C   0  0  0  0  0  0  0  0  0  0  0  0
   23.0186  -19.5604  -13.2731 C   0  0  0  0  0  0  0  0  0  0  0  0
   21.8626  -19.0108  -13.6646 N   0  0  0  0  0  0  0  0  0  0  0  0
   20.9251  -19.4972  -12.8355 C   0  0  0  0  0  0  0  0  0  0  0  0
   21.4813  -20.3322  -11.9455 N   0  0  0  0  0  0  0  0  0  0  0  0
   24.4435  -20.6880   -9.0885 C   0  0  0  0  0  0  0  0  0  0  0  0
   25.1071  -21.8195   -8.5581 O   0  0  0  0  0  0  0  0  0  0  0  0
   23.7494  -20.0665   -8.2498 O   0  0  0  0  0  0  0  0  0  0  0  0
  2  1  1  0
  3  2  2  0
  4  2  1  0
  5  4  1  0
  5  6  1  6
  7  5  1  0
  7  9  1  0
  8  7  2  0
  9 13  1  0
 10  9  1  0
 10 11  1  0
 11 12  1  0
 13 14  1  1
 13 12  1  0
 14 15  2  0
 16 17  1  0
 16 14  1  0
 17 18  1  6
 18 19  1  0
 19 23  1  0
 20 19  2  0
 20 21  1  0
 21 22  1  0
 23 22  2  0
 24 25  1  0
 24 17  1  0
 26 24  2  0
M  END
$$$$
