NPH.pdb
     RDKit          3D

 26 27  0  0  1  0  0  0  0  0999 V2000
   26.1123  -19.0267  -17.8945 N   0  0  0  0  0  0  0  0  0  0  0  0
   25.1421  -18.9386  -16.8675 C   0  0  0  0  0  0  0  0  0  0  0  0
   24.2424  -18.0753  -16.9770 O   0  0  0  0  0  0  0  0  0  0  0  0
   25.1451  -19.8131  -15.6832 C   0  0  0  0  0  0  0  0  0  0  0  0
   26.2675  -20.8341  -15.7267 C   0  0  2  0  0  0  0  0  0  0  0  0
   25.9396  -21.8904  -16.6971 N   0  0  0  0  0  0  0  0  0  0  0  0
   26.5166  -21.4305  -14.4004 C   0  0  0  0  0  0  0  0  0  0  0  0
   25.8943  -22.5116  -14.1193 O   0  0  0  0  0  0  0  0  0  0  0  0
   27.3929  -20.8916  -13.4219 N   0  0  0  0  0  0  0  0  0  0  0  0
   28.2122  -19.7072  -13.5294 C   0  0  0  0  0  0  0  0  0  0  0  0
   29.5057  -20.1487  -12.8552 C   0  0  0  0  0  0  0  0  0  0  0  0
   29.1236  -21.2875  -11.9584 C   0  0  0  0  0  0  0  0  0  0  0  0
   27.6478  -21.4391  -12.1071 C   0  0  1  0  0  0  0  0  0  0  0  0
   26.8603  -20.7371  -11.0726 C   0  0  0  0  0  0  0  0  0  0  0  0
   26.6872  -19.4956  -11.2079 O   0  0  0  0  0  0  0  0  0  0  0  0
   26.2964  -21.3881   -9.9472 N   0  0  0  0  0  0  0  0  0  0  0  0
   25.2445  -20.7617   -9.1537 C   0  0  1  0  0  0  0  0  0  0  0  0
   25.6321  -19.4046   -8.6861 C   0  0  0  0  0  0  0  0  0  0  0  0
   26.7402  -19.4866   -7.7145 C   0  0  0  0  0  0  0  0  0  0  0  0
   27.3317  -20.6034   -7.1333 C   0  0  0  0  0  0  0  0  0  0  0  0
   28.2984  -20.2444   -6.2799 N   0  0  0  0  0  0  0  0  0  0  0  0
   28.3333  -18.9024   -6.3077 C   0  0  0  0  0  0  0  0  0  0  0  0
   27.4098  -18.4321   -7.1589 N   0  0  0  0  0  0  0  0  0  0  0  0
   23.9582  -20.7728   -9.8805 C   0  0  0  0  0  0  0  0  0  0  0  0
   23.8712  -20.2906  -11.2079 O   0  0  0  0  0  0  0  0  0  0  0  0
   22.8697  -21.1890   -9.4187 O   0  0  0  0  0  0  0  0  0  0  0  0
  2  1  1  0
  3  2  2  0
  4  2  1  0
  5  4  1  0
  5  6  1  6
  7  5  1  0
  7  9  1  0
  8  7  2  0
  9 13  1  0
 10  9  1  0
 10 11  1  0
 11 12  1  0
 13 14  1  1
 13 12  1  0
 14 15  2  0
 16 17  1  0
 16 14  1  0
 17 18  1  6
 18 19  1  0
 19 23  1  0
 20 19  2  0
 20 21  1  0
 21 22  1  0
 23 22  2  0
 24 25  1  0
 24 17  1  0
 26 24  2  0
M  END
$$$$
