NPH.pdb
     RDKit          3D

 26 27  0  0  1  0  0  0  0  0999 V2000
   26.3591   -9.4207  -22.5295 N   0  0  0  0  0  0  0  0  0  0  0  0
   25.3386   -9.9197  -21.6848 C   0  0  0  0  0  0  0  0  0  0  0  0
   24.5585  -10.7827  -22.1468 O   0  0  0  0  0  0  0  0  0  0  0  0
   25.1560   -9.4705  -20.2948 C   0  0  0  0  0  0  0  0  0  0  0  0
   26.2093   -8.4614  -19.8748 C   0  0  2  0  0  0  0  0  0  0  0  0
   27.5010   -9.1412  -19.6887 N   0  0  0  0  0  0  0  0  0  0  0  0
   25.8294   -7.7574  -18.6352 C   0  0  0  0  0  0  0  0  0  0  0  0
   26.2695   -8.2344  -17.5335 O   0  0  0  0  0  0  0  0  0  0  0  0
   25.0152   -6.5954  -18.5809 N   0  0  0  0  0  0  0  0  0  0  0  0
   24.4353   -5.8734  -19.6889 C   0  0  0  0  0  0  0  0  0  0  0  0
   24.6236   -4.4228  -19.2613 C   0  0  0  0  0  0  0  0  0  0  0  0
   24.7603   -4.4578  -17.7689 C   0  0  0  0  0  0  0  0  0  0  0  0
   24.6090   -5.8904  -17.3845 C   0  0  1  0  0  0  0  0  0  0  0  0
   23.2386   -6.2667  -16.9802 C   0  0  0  0  0  0  0  0  0  0  0  0
   22.4336   -6.6146  -17.8861 O   0  0  0  0  0  0  0  0  0  0  0  0
   22.7920   -6.2549  -15.6353 N   0  0  0  0  0  0  0  0  0  0  0  0
   21.5036   -6.8250  -15.2563 C   0  0  1  0  0  0  0  0  0  0  0  0
   21.6381   -8.2130  -14.7406 C   0  0  0  0  0  0  0  0  0  0  0  0
   20.3160   -8.7666  -14.3878 C   0  0  0  0  0  0  0  0  0  0  0  0
   19.4820   -8.4619  -13.3171 C   0  0  0  0  0  0  0  0  0  0  0  0
   18.3723   -9.2098  -13.3459 N   0  0  0  0  0  0  0  0  0  0  0  0
   18.4865   -9.9950  -14.4291 C   0  0  0  0  0  0  0  0  0  0  0  0
   19.6410   -9.7444  -15.0639 N   0  0  0  0  0  0  0  0  0  0  0  0
   20.7863   -5.9326  -14.3226 C   0  0  0  0  0  0  0  0  0  0  0  0
   19.3799   -5.7923  -14.3896 O   0  0  0  0  0  0  0  0  0  0  0  0
   21.3232   -5.2446  -13.4227 O   0  0  0  0  0  0  0  0  0  0  0  0
  2  1  1  0
  3  2  2  0
  4  2  1  0
  5  4  1  0
  5  6  1  1
  7  5  1  0
  7  9  1  0
  8  7  2  0
  9 13  1  0
 10  9  1  0
 10 11  1  0
 11 12  1  0
 13 14  1  6
 13 12  1  0
 14 15  2  0
 16 17  1  0
 16 14  1  0
 17 18  1  1
 18 19  1  0
 19 23  1  0
 20 19  2  0
 20 21  1  0
 21 22  1  0
 23 22  2  0
 24 25  1  0
 24 17  1  0
 26 24  2  0
M  END
$$$$
