NPH.pdb
     RDKit          3D

 26 27  0  0  1  0  0  0  0  0999 V2000
   27.3577  -21.8281  -21.7842 N   0  0  0  0  0  0  0  0  0  0  0  0
   27.7201  -21.0560  -20.6544 C   0  0  0  0  0  0  0  0  0  0  0  0
   28.5280  -20.1138  -20.8170 O   0  0  0  0  0  0  0  0  0  0  0  0
   27.1912  -21.3114  -19.3044 C   0  0  0  0  0  0  0  0  0  0  0  0
   28.2792  -21.7277  -18.3312 C   0  0  2  0  0  0  0  0  0  0  0  0
   28.7585  -23.0768  -18.6707 N   0  0  0  0  0  0  0  0  0  0  0  0
   27.8039  -21.7004  -16.9347 C   0  0  0  0  0  0  0  0  0  0  0  0
   27.5724  -22.8260  -16.3738 O   0  0  0  0  0  0  0  0  0  0  0  0
   27.5877  -20.5200  -16.1758 N   0  0  0  0  0  0  0  0  0  0  0  0
   27.6826  -19.1520  -16.6283 C   0  0  0  0  0  0  0  0  0  0  0  0
   28.3618  -18.4690  -15.4473 C   0  0  0  0  0  0  0  0  0  0  0  0
   28.0816  -19.3426  -14.2618 C   0  0  0  0  0  0  0  0  0  0  0  0
   27.2336  -20.4566  -14.7744 C   0  0  1  0  0  0  0  0  0  0  0  0
   25.7823  -20.2428  -14.5977 C   0  0  0  0  0  0  0  0  0  0  0  0
   25.3559  -19.0565  -14.6250 O   0  0  0  0  0  0  0  0  0  0  0  0
   24.8573  -21.2982  -14.4012 N   0  0  0  0  0  0  0  0  0  0  0  0
   24.0064  -21.3538  -13.2173 C   0  0  1  0  0  0  0  0  0  0  0  0
   24.7852  -21.1826  -11.9625 C   0  0  0  0  0  0  0  0  0  0  0  0
   23.8860  -21.1567  -10.7922 C   0  0  0  0  0  0  0  0  0  0  0  0
   22.4996  -21.2538  -10.7346 C   0  0  0  0  0  0  0  0  0  0  0  0
   22.0648  -21.1632   -9.4719 N   0  0  0  0  0  0  0  0  0  0  0  0
   23.1632  -21.0081   -8.7153 C   0  0  0  0  0  0  0  0  0  0  0  0
   24.2603  -21.0017   -9.4866 N   0  0  0  0  0  0  0  0  0  0  0  0
   22.8830  -20.4009  -13.3302 C   0  0  0  0  0  0  0  0  0  0  0  0
   21.5430  -20.8554  -13.3213 O   0  0  0  0  0  0  0  0  0  0  0  0
   22.9970  -19.1574  -13.4398 O   0  0  0  0  0  0  0  0  0  0  0  0
  2  1  1  0
  3  2  2  0
  4  2  1  0
  5  4  1  0
  5  6  1  6
  7  5  1  0
  7  9  1  0
  8  7  2  0
  9 13  1  0
 10  9  1  0
 10 11  1  0
 11 12  1  0
 13 14  1  6
 13 12  1  0
 14 15  2  0
 16 17  1  0
 16 14  1  0
 17 18  1  1
 18 19  1  0
 19 23  1  0
 20 19  2  0
 20 21  1  0
 21 22  1  0
 23 22  2  0
 24 25  1  0
 24 17  1  0
 26 24  2  0
M  END
$$$$
