LKY.pdb
     RDKit          3D

 30 30  0  0  1  0  0  0  0  0999 V2000
    6.4154  -12.6221   17.9362 C   0  0  0  0  0  0  0  0  0  0  0  0
    7.7773  -13.1884   18.1486 C   0  0  1  0  0  0  0  0  0  0  0  0
    8.7558  -12.0548   18.3546 C   0  0  0  0  0  0  0  0  0  0  0  0
    7.8822  -14.1317   19.3063 C   0  0  0  0  0  0  0  0  0  0  0  0
    9.2522  -14.6638   19.5504 C   0  0  2  0  0  0  0  0  0  0  0  0
    9.8642  -15.2784   18.4132 N   0  0  0  0  0  0  0  0  0  0  0  0
    9.1712  -15.6394   20.6719 C   0  0  0  0  0  0  0  0  0  0  0  0
    8.3681  -15.4026   21.6380 O   0  0  0  0  0  0  0  0  0  0  0  0
    9.9502  -16.8160   20.7052 N   0  0  0  0  0  0  0  0  0  0  0  0
    9.8025  -17.7811   21.7615 C   0  0  1  0  0  0  0  0  0  0  0  0
   10.5550  -19.0684   21.4937 C   0  0  0  0  0  0  0  0  0  0  0  0
    9.9569  -19.7386   20.2827 C   0  0  0  0  0  0  0  0  0  0  0  0
   10.7936  -20.9554   19.9070 C   0  0  0  0  0  0  0  0  0  0  0  0
   10.0808  -21.6322   18.7341 C   0  0  0  0  0  0  0  0  0  0  0  0
   10.8844  -22.7693   18.3358 N   0  0  0  0  0  0  0  0  0  0  0  0
   10.4027  -17.1928   22.9980 C   0  0  0  0  0  0  0  0  0  0  0  0
   11.6196  -16.8534   23.0412 O   0  0  0  0  0  0  0  0  0  0  0  0
   11.1292  -14.3939   31.2520 O   0  0  0  0  0  0  0  0  0  0  0  0
   10.6276  -14.7247   29.9967 C   0  0  0  0  0  0  0  0  0  0  0  0
   10.1052  -15.9737   29.7295 C   0  0  0  0  0  0  0  0  0  0  0  0
    9.6125  -16.2841   28.4802 C   0  0  0  0  0  0  0  0  0  0  0  0
    9.6157  -15.3643   27.4338 C   0  0  0  0  0  0  0  0  0  0  0  0
    9.0873  -15.7570   26.1086 C   0  0  0  0  0  0  0  0  0  0  0  0
   10.1844  -16.4968   25.3535 C   0  0  2  0  0  0  0  0  0  0  0  0
    9.5940  -17.0176   24.1262 N   0  0  0  0  0  0  0  0  0  0  0  0
   10.8198  -17.5666   26.1308 C   0  0  0  0  0  0  0  0  0  0  0  0
   10.2917  -18.8193   26.3714 O   0  0  0  0  0  0  0  0  0  0  0  0
   10.1385  -14.1193   27.7061 C   0  0  0  0  0  0  0  0  0  0  0  0
   10.6354  -13.8073   28.9674 C   0  0  0  0  0  0  0  0  0  0  0  0
   11.9688  -17.3447   26.6456 O   0  0  0  0  0  0  0  0  0  0  0  0
  2  4  1  0
  2  1  1  1
  3  2  1  0
  4  5  1  0
  5  7  1  0
  5  6  1  6
  7  8  2  0
  9  7  1  0
  9 10  1  0
 10 16  1  0
 10 11  1  6
 11 12  1  0
 12 13  1  0
 13 14  1  0
 15 14  1  0
 16 17  2  0
 18 19  1  0
 19 29  2  0
 19 20  1  0
 20 21  2  0
 21 22  1  0
 22 23  1  0
 24 23  1  1
 24 26  1  0
 25 24  1  0
 25 16  1  0
 26 30  2  0
 26 27  1  0
 28 22  2  0
 29 28  1  0
M  END
$$$$
