LKY.pdb
     RDKit          3D

 30 30  0  0  1  0  0  0  0  0999 V2000
    6.3328  -11.8032   26.7787 C   0  0  0  0  0  0  0  0  0  0  0  0
    6.1170  -12.7368   25.6376 C   0  0  1  0  0  0  0  0  0  0  0  0
    6.5328  -12.0525   24.3555 C   0  0  0  0  0  0  0  0  0  0  0  0
    6.8537  -14.0351   25.7515 C   0  0  0  0  0  0  0  0  0  0  0  0
    6.4089  -15.0866   24.7945 C   0  0  2  0  0  0  0  0  0  0  0  0
    5.6226  -16.1292   25.3779 N   0  0  0  0  0  0  0  0  0  0  0  0
    7.6216  -15.6644   24.1530 C   0  0  0  0  0  0  0  0  0  0  0  0
    8.2248  -16.6306   24.7336 O   0  0  0  0  0  0  0  0  0  0  0  0
    8.1279  -15.1825   22.9269 N   0  0  0  0  0  0  0  0  0  0  0  0
    9.3146  -15.7411   22.3364 C   0  0  1  0  0  0  0  0  0  0  0  0
    9.6322  -15.1495   20.9784 C   0  0  0  0  0  0  0  0  0  0  0  0
    8.3488  -14.6838   20.3385 C   0  0  0  0  0  0  0  0  0  0  0  0
    8.6254  -14.2305   18.9102 C   0  0  0  0  0  0  0  0  0  0  0  0
    7.2644  -13.9604   18.2648 C   0  0  0  0  0  0  0  0  0  0  0  0
    7.5040  -13.5922   16.8849 N   0  0  0  0  0  0  0  0  0  0  0  0
   10.4665  -15.3961   23.2249 C   0  0  0  0  0  0  0  0  0  0  0  0
   10.5506  -14.2654   23.7838 O   0  0  0  0  0  0  0  0  0  0  0  0
   10.6000  -14.6197   30.6678 O   0  0  0  0  0  0  0  0  0  0  0  0
   10.6097  -15.2356   29.4198 C   0  0  0  0  0  0  0  0  0  0  0  0
   11.0901  -16.5175   29.2464 C   0  0  0  0  0  0  0  0  0  0  0  0
   11.0920  -17.1121   28.0028 C   0  0  0  0  0  0  0  0  0  0  0  0
   10.6146  -16.4581   26.8690 C   0  0  0  0  0  0  0  0  0  0  0  0
   10.6546  -17.1396   25.5562 C   0  0  0  0  0  0  0  0  0  0  0  0
   11.8855  -16.6551   24.8002 C   0  0  2  0  0  0  0  0  0  0  0  0
   11.4679  -16.3500   23.4370 N   0  0  0  0  0  0  0  0  0  0  0  0
   13.0003  -17.6089   24.8115 C   0  0  0  0  0  0  0  0  0  0  0  0
   14.0777  -17.5889   25.6746 O   0  0  0  0  0  0  0  0  0  0  0  0
   10.1365  -15.1787   27.0480 C   0  0  0  0  0  0  0  0  0  0  0  0
   10.1351  -14.5799   28.3036 C   0  0  0  0  0  0  0  0  0  0  0  0
   12.9999  -18.5555   23.9522 O   0  0  0  0  0  0  0  0  0  0  0  0
  2  4  1  0
  2  1  1  1
  3  2  1  0
  4  5  1  0
  5  7  1  0
  5  6  1  1
  7  8  2  0
  9  7  1  0
  9 10  1  0
 10 16  1  0
 10 11  1  6
 11 12  1  0
 12 13  1  0
 13 14  1  0
 15 14  1  0
 16 17  2  0
 18 19  1  0
 19 29  2  0
 19 20  1  0
 20 21  2  0
 21 22  1  0
 22 23  1  0
 24 23  1  1
 24 26  1  0
 25 24  1  0
 25 16  1  0
 26 30  2  0
 26 27  1  0
 28 22  2  0
 29 28  1  0
M  END
$$$$
