LKY.pdb
     RDKit          3D

 30 30  0  0  1  0  0  0  0  0999 V2000
    7.2675  -20.0221   17.4842 C   0  0  0  0  0  0  0  0  0  0  0  0
    7.3989  -20.0703   18.9678 C   0  0  1  0  0  0  0  0  0  0  0  0
    7.3334  -21.5107   19.4217 C   0  0  0  0  0  0  0  0  0  0  0  0
    8.6559  -19.4546   19.4987 C   0  0  0  0  0  0  0  0  0  0  0  0
    8.6241  -19.1369   20.9539 C   0  0  2  0  0  0  0  0  0  0  0  0
    7.3116  -19.0050   21.5066 N   0  0  0  0  0  0  0  0  0  0  0  0
    9.3919  -17.8790   21.1647 C   0  0  0  0  0  0  0  0  0  0  0  0
   10.6065  -17.8248   20.7694 O   0  0  0  0  0  0  0  0  0  0  0  0
    8.8253  -16.7451   21.7855 N   0  0  0  0  0  0  0  0  0  0  0  0
    9.5802  -15.5335   21.9619 C   0  0  1  0  0  0  0  0  0  0  0  0
    8.8426  -14.3030   21.4752 C   0  0  0  0  0  0  0  0  0  0  0  0
    8.4452  -14.5116   20.0358 C   0  0  0  0  0  0  0  0  0  0  0  0
    8.2962  -13.1610   19.3462 C   0  0  0  0  0  0  0  0  0  0  0  0
    7.7974  -13.4458   17.9278 C   0  0  0  0  0  0  0  0  0  0  0  0
    7.5696  -12.1690   17.2835 N   0  0  0  0  0  0  0  0  0  0  0  0
    9.7925  -15.3433   23.4296 C   0  0  0  0  0  0  0  0  0  0  0  0
   10.4827  -14.3826   23.8753 O   0  0  0  0  0  0  0  0  0  0  0  0
    5.8529  -10.9319   26.0512 O   0  0  0  0  0  0  0  0  0  0  0  0
    6.4034  -12.2060   26.1532 C   0  0  0  0  0  0  0  0  0  0  0  0
    7.6083  -12.4277   26.7883 C   0  0  0  0  0  0  0  0  0  0  0  0
    8.1389  -13.6965   26.8802 C   0  0  0  0  0  0  0  0  0  0  0  0
    7.4943  -14.8089   26.3433 C   0  0  0  0  0  0  0  0  0  0  0  0
    8.1177  -16.1460   26.4585 C   0  0  0  0  0  0  0  0  0  0  0  0
    9.4661  -16.1105   25.7501 C   0  0  2  0  0  0  0  0  0  0  0  0
    9.2118  -16.2516   24.3214 N   0  0  0  0  0  0  0  0  0  0  0  0
   10.4099  -17.1294   26.2230 C   0  0  0  0  0  0  0  0  0  0  0  0
   10.8976  -17.2503   27.5090 O   0  0  0  0  0  0  0  0  0  0  0  0
    6.2922  -14.5817   25.7103 C   0  0  0  0  0  0  0  0  0  0  0  0
    5.7578  -13.3007   25.6184 C   0  0  0  0  0  0  0  0  0  0  0  0
   10.8377  -17.9972   25.3875 O   0  0  0  0  0  0  0  0  0  0  0  0
  2  4  1  0
  2  1  1  6
  3  2  1  0
  4  5  1  0
  5  7  1  0
  5  6  1  6
  7  8  2  0
  9  7  1  0
  9 10  1  0
 10 16  1  0
 10 11  1  1
 11 12  1  0
 12 13  1  0
 13 14  1  0
 15 14  1  0
 16 17  2  0
 18 19  1  0
 19 29  2  0
 19 20  1  0
 20 21  2  0
 21 22  1  0
 22 23  1  0
 24 23  1  1
 24 26  1  0
 25 24  1  0
 25 16  1  0
 26 30  2  0
 26 27  1  0
 28 22  2  0
 29 28  1  0
M  END
$$$$
