LKY.pdb
     RDKit          3D

 30 30  0  0  1  0  0  0  0  0999 V2000
    6.8090  -12.4858   19.2949 C   0  0  0  0  0  0  0  0  0  0  0  0
    8.1067  -13.2182   19.3034 C   0  0  1  0  0  0  0  0  0  0  0  0
    9.2378  -12.2162   19.3437 C   0  0  0  0  0  0  0  0  0  0  0  0
    8.2703  -14.1753   20.4429 C   0  0  0  0  0  0  0  0  0  0  0  0
    9.6221  -14.7934   20.5444 C   0  0  2  0  0  0  0  0  0  0  0  0
   10.1578  -15.2620   19.3038 N   0  0  0  0  0  0  0  0  0  0  0  0
    9.5400  -15.9165   21.5180 C   0  0  0  0  0  0  0  0  0  0  0  0
    8.8671  -15.7526   22.5925 O   0  0  0  0  0  0  0  0  0  0  0  0
   10.1791  -17.1551   21.2955 N   0  0  0  0  0  0  0  0  0  0  0  0
   10.1036  -18.2196   22.2600 C   0  0  1  0  0  0  0  0  0  0  0  0
   10.2032  -19.5939   21.6306 C   0  0  0  0  0  0  0  0  0  0  0  0
    8.9695  -19.8386   20.7989 C   0  0  0  0  0  0  0  0  0  0  0  0
    9.0676  -21.2038   20.1291 C   0  0  0  0  0  0  0  0  0  0  0  0
    7.7891  -21.3816   19.3072 C   0  0  0  0  0  0  0  0  0  0  0  0
    7.8621  -22.6781   18.6662 N   0  0  0  0  0  0  0  0  0  0  0  0
   11.2819  -18.0881   23.1709 C   0  0  0  0  0  0  0  0  0  0  0  0
   12.3415  -17.5095   22.7964 O   0  0  0  0  0  0  0  0  0  0  0  0
    9.7512  -13.2484   29.9136 O   0  0  0  0  0  0  0  0  0  0  0  0
    9.8705  -14.0647   28.7928 C   0  0  0  0  0  0  0  0  0  0  0  0
    8.9867  -13.9812   27.7362 C   0  0  0  0  0  0  0  0  0  0  0  0
    9.1201  -14.7977   26.6337 C   0  0  0  0  0  0  0  0  0  0  0  0
   10.1418  -15.7390   26.5291 C   0  0  0  0  0  0  0  0  0  0  0  0
   10.2279  -16.5996   25.3284 C   0  0  0  0  0  0  0  0  0  0  0  0
   11.2255  -17.7167   25.6080 C   0  0  2  0  0  0  0  0  0  0  0  0
   11.2018  -18.6190   24.4630 N   0  0  0  0  0  0  0  0  0  0  0  0
   10.9683  -18.4406   26.8579 C   0  0  0  0  0  0  0  0  0  0  0  0
    9.9142  -19.2995   27.0970 O   0  0  0  0  0  0  0  0  0  0  0  0
   11.0207  -15.8182   27.5867 C   0  0  0  0  0  0  0  0  0  0  0  0
   10.8852  -14.9936   28.6987 C   0  0  0  0  0  0  0  0  0  0  0  0
   11.7790  -18.2782   27.8330 O   0  0  0  0  0  0  0  0  0  0  0  0
  2  4  1  0
  2  1  1  1
  3  2  1  0
  4  5  1  0
  5  7  1  0
  5  6  1  6
  7  8  2  0
  9  7  1  0
  9 10  1  0
 10 16  1  0
 10 11  1  6
 11 12  1  0
 12 13  1  0
 13 14  1  0
 15 14  1  0
 16 17  2  0
 18 19  1  0
 19 29  2  0
 19 20  1  0
 20 21  2  0
 21 22  1  0
 22 23  1  0
 24 23  1  6
 24 26  1  0
 25 24  1  0
 25 16  1  0
 26 30  2  0
 26 27  1  0
 28 22  2  0
 29 28  1  0
M  END
$$$$
