LKY.pdb
     RDKit          3D

 30 30  0  0  1  0  0  0  0  0999 V2000
    5.2818  -22.4876   22.6177 C   0  0  0  0  0  0  0  0  0  0  0  0
    5.4506  -21.3230   23.5318 C   0  0  1  0  0  0  0  0  0  0  0  0
    5.7110  -21.8293   24.9321 C   0  0  0  0  0  0  0  0  0  0  0  0
    6.5530  -20.3868   23.1453 C   0  0  0  0  0  0  0  0  0  0  0  0
    6.7056  -19.2054   24.0401 C   0  0  2  0  0  0  0  0  0  0  0  0
    5.4758  -18.6754   24.5423 N   0  0  0  0  0  0  0  0  0  0  0  0
    7.4416  -18.1530   23.2872 C   0  0  0  0  0  0  0  0  0  0  0  0
    8.5384  -18.4626   22.7081 O   0  0  0  0  0  0  0  0  0  0  0  0
    6.9703  -16.8260   23.1910 N   0  0  0  0  0  0  0  0  0  0  0  0
    7.6798  -15.8338   22.4288 C   0  0  1  0  0  0  0  0  0  0  0  0
    6.7627  -14.8004   21.8074 C   0  0  0  0  0  0  0  0  0  0  0  0
    7.5894  -13.8560   20.9719 C   0  0  0  0  0  0  0  0  0  0  0  0
    7.0132  -13.7824   19.5632 C   0  0  0  0  0  0  0  0  0  0  0  0
    7.8906  -12.8022   18.7815 C   0  0  0  0  0  0  0  0  0  0  0  0
    7.3419  -12.6993   17.4452 N   0  0  0  0  0  0  0  0  0  0  0  0
    8.5710  -15.0916   23.3724 C   0  0  0  0  0  0  0  0  0  0  0  0
    8.3885  -13.8662   23.6232 O   0  0  0  0  0  0  0  0  0  0  0  0
    9.6833  -16.5686   30.6684 O   0  0  0  0  0  0  0  0  0  0  0  0
    9.7947  -15.9536   29.4250 C   0  0  0  0  0  0  0  0  0  0  0  0
    9.9873  -14.5927   29.3026 C   0  0  0  0  0  0  0  0  0  0  0  0
   10.0957  -14.0003   28.0627 C   0  0  0  0  0  0  0  0  0  0  0  0
   10.0173  -14.7354   26.8818 C   0  0  0  0  0  0  0  0  0  0  0  0
   10.1255  -14.0446   25.5777 C   0  0  0  0  0  0  0  0  0  0  0  0
   10.7262  -15.0146   24.5681 C   0  0  2  0  0  0  0  0  0  0  0  0
    9.6265  -15.7749   23.9862 N   0  0  0  0  0  0  0  0  0  0  0  0
   11.7435  -15.9059   25.1366 C   0  0  0  0  0  0  0  0  0  0  0  0
   11.6531  -17.2796   25.2408 O   0  0  0  0  0  0  0  0  0  0  0  0
    9.8247  -16.0933   27.0100 C   0  0  0  0  0  0  0  0  0  0  0  0
    9.7157  -16.6899   28.2618 C   0  0  0  0  0  0  0  0  0  0  0  0
   12.8229  -15.3889   25.5860 O   0  0  0  0  0  0  0  0  0  0  0  0
  2  4  1  0
  2  1  1  6
  3  2  1  0
  4  5  1  0
  5  7  1  0
  5  6  1  6
  7  8  2  0
  9  7  1  0
  9 10  1  0
 10 16  1  0
 10 11  1  1
 11 12  1  0
 12 13  1  0
 13 14  1  0
 15 14  1  0
 16 17  2  0
 18 19  1  0
 19 29  2  0
 19 20  1  0
 20 21  2  0
 21 22  1  0
 22 23  1  0
 24 23  1  1
 24 26  1  0
 25 24  1  0
 25 16  1  0
 26 30  2  0
 26 27  1  0
 28 22  2  0
 29 28  1  0
M  END
$$$$
