LKY.pdb
     RDKit          3D

 30 30  0  0  1  0  0  0  0  0999 V2000
    6.1207  -12.6014   18.1336 C   0  0  0  0  0  0  0  0  0  0  0  0
    7.5246  -13.0775   18.2845 C   0  0  1  0  0  0  0  0  0  0  0  0
    8.4403  -11.8810   18.4069 C   0  0  0  0  0  0  0  0  0  0  0  0
    7.7502  -13.9788   19.4584 C   0  0  0  0  0  0  0  0  0  0  0  0
    9.1812  -14.2804   19.7427 C   0  0  2  0  0  0  0  0  0  0  0  0
    9.9608  -14.6117   18.5903 N   0  0  0  0  0  0  0  0  0  0  0  0
    9.2271  -15.3983   20.7246 C   0  0  0  0  0  0  0  0  0  0  0  0
    8.3935  -15.4019   21.6939 O   0  0  0  0  0  0  0  0  0  0  0  0
   10.1588  -16.4536   20.6224 N   0  0  0  0  0  0  0  0  0  0  0  0
   10.1502  -17.5516   21.5515 C   0  0  1  0  0  0  0  0  0  0  0  0
   11.0251  -18.7062   21.1083 C   0  0  0  0  0  0  0  0  0  0  0  0
   10.4760  -19.2660   19.8204 C   0  0  0  0  0  0  0  0  0  0  0  0
   11.3871  -20.3794   19.3180 C   0  0  0  0  0  0  0  0  0  0  0  0
   10.7790  -20.8857   18.0081 C   0  0  0  0  0  0  0  0  0  0  0  0
   11.6540  -21.9190   17.4945 N   0  0  0  0  0  0  0  0  0  0  0  0
   10.7268  -17.0577   22.8396 C   0  0  0  0  0  0  0  0  0  0  0  0
   11.9483  -16.7477   22.9374 O   0  0  0  0  0  0  0  0  0  0  0  0
   11.3135  -14.6560   31.2232 O   0  0  0  0  0  0  0  0  0  0  0  0
   10.8229  -14.9467   29.9537 C   0  0  0  0  0  0  0  0  0  0  0  0
   10.3812  -16.2101   29.6175 C   0  0  0  0  0  0  0  0  0  0  0  0
    9.8982  -16.4801   28.3551 C   0  0  0  0  0  0  0  0  0  0  0  0
    9.8313  -15.5035   27.3637 C   0  0  0  0  0  0  0  0  0  0  0  0
    9.3174  -15.8535   26.0210 C   0  0  0  0  0  0  0  0  0  0  0  0
   10.4506  -16.4851   25.2220 C   0  0  2  0  0  0  0  0  0  0  0  0
    9.8903  -16.9392   23.9549 N   0  0  0  0  0  0  0  0  0  0  0  0
   11.1302  -17.5801   25.9231 C   0  0  0  0  0  0  0  0  0  0  0  0
   10.6488  -18.8640   26.0842 O   0  0  0  0  0  0  0  0  0  0  0  0
   10.2737  -14.2444   27.7048 C   0  0  0  0  0  0  0  0  0  0  0  0
   10.7608  -13.9731   28.9792 C   0  0  0  0  0  0  0  0  0  0  0  0
   12.2751  -17.3514   26.4439 O   0  0  0  0  0  0  0  0  0  0  0  0
  2  4  1  0
  2  1  1  1
  3  2  1  0
  4  5  1  0
  5  7  1  0
  5  6  1  6
  7  8  2  0
  9  7  1  0
  9 10  1  0
 10 16  1  0
 10 11  1  6
 11 12  1  0
 12 13  1  0
 13 14  1  0
 15 14  1  0
 16 17  2  0
 18 19  1  0
 19 29  2  0
 19 20  1  0
 20 21  2  0
 21 22  1  0
 22 23  1  0
 24 23  1  1
 24 26  1  0
 25 24  1  0
 25 16  1  0
 26 30  2  0
 26 27  1  0
 28 22  2  0
 29 28  1  0
M  END
$$$$
