LKY.pdb
     RDKit          3D

 30 30  0  0  1  0  0  0  0  0999 V2000
    6.3382  -12.5505   18.7742 C   0  0  0  0  0  0  0  0  0  0  0  0
    7.6462  -13.2538   18.8962 C   0  0  1  0  0  0  0  0  0  0  0  0
    8.7508  -12.2267   18.9945 C   0  0  0  0  0  0  0  0  0  0  0  0
    7.7443  -14.1804   20.0680 C   0  0  0  0  0  0  0  0  0  0  0  0
    9.0853  -14.8013   20.2570 C   0  0  2  0  0  0  0  0  0  0  0  0
    9.6964  -15.2773   19.0546 N   0  0  0  0  0  0  0  0  0  0  0  0
    8.9391  -15.9196   21.2287 C   0  0  0  0  0  0  0  0  0  0  0  0
    8.2401  -15.7328   22.2827 O   0  0  0  0  0  0  0  0  0  0  0  0
    9.5454  -17.1781   21.0264 N   0  0  0  0  0  0  0  0  0  0  0  0
    9.3369  -18.2650   21.9450 C   0  0  1  0  0  0  0  0  0  0  0  0
    9.6939  -19.6135   21.3541 C   0  0  0  0  0  0  0  0  0  0  0  0
    8.5928  -20.0407   20.4167 C   0  0  0  0  0  0  0  0  0  0  0  0
    8.9295  -21.4017   19.8198 C   0  0  0  0  0  0  0  0  0  0  0  0
    7.8323  -21.7168   18.8007 C   0  0  0  0  0  0  0  0  0  0  0  0
    8.0831  -23.0490   18.2912 N   0  0  0  0  0  0  0  0  0  0  0  0
   10.2564  -18.0581   23.1057 C   0  0  0  0  0  0  0  0  0  0  0  0
   11.4109  -17.5672   22.9508 O   0  0  0  0  0  0  0  0  0  0  0  0
   11.0794  -13.9799   30.6512 O   0  0  0  0  0  0  0  0  0  0  0  0
   10.6941  -14.5967   29.4647 C   0  0  0  0  0  0  0  0  0  0  0  0
   10.8860  -13.9950   28.2378 C   0  0  0  0  0  0  0  0  0  0  0  0
   10.4982  -14.6207   27.0724 C   0  0  0  0  0  0  0  0  0  0  0  0
    9.8992  -15.8786   27.0717 C   0  0  0  0  0  0  0  0  0  0  0  0
    9.4895  -16.4966   25.7912 C   0  0  0  0  0  0  0  0  0  0  0  0
   10.3644  -17.7195   25.5458 C   0  0  2  0  0  0  0  0  0  0  0  0
    9.8224  -18.4178   24.3863 N   0  0  0  0  0  0  0  0  0  0  0  0
   10.4673  -18.6154   26.7030 C   0  0  0  0  0  0  0  0  0  0  0  0
   11.4589  -18.5911   27.6634 O   0  0  0  0  0  0  0  0  0  0  0  0
    9.7099  -16.4743   28.2992 C   0  0  0  0  0  0  0  0  0  0  0  0
   10.1018  -15.8419   29.4745 C   0  0  0  0  0  0  0  0  0  0  0  0
    9.5696  -19.5119   26.8602 O   0  0  0  0  0  0  0  0  0  0  0  0
  2  4  1  0
  2  1  1  1
  3  2  1  0
  4  5  1  0
  5  7  1  0
  5  6  1  6
  7  8  2  0
  9  7  1  0
  9 10  1  0
 10 16  1  0
 10 11  1  6
 11 12  1  0
 12 13  1  0
 13 14  1  0
 15 14  1  0
 16 17  2  0
 18 19  1  0
 19 29  2  0
 19 20  1  0
 20 21  2  0
 21 22  1  0
 22 23  1  0
 24 23  1  1
 24 26  1  0
 25 24  1  0
 25 16  1  0
 26 30  2  0
 26 27  1  0
 28 22  2  0
 29 28  1  0
M  END
$$$$
