LKY.pdb
     RDKit          3D

 30 30  0  0  1  0  0  0  0  0999 V2000
    6.8529  -12.1770   18.1074 C   0  0  0  0  0  0  0  0  0  0  0  0
    7.9147  -13.1907   18.3629 C   0  0  1  0  0  0  0  0  0  0  0  0
    9.1903  -12.4804   18.7542 C   0  0  0  0  0  0  0  0  0  0  0  0
    7.5745  -14.1898   19.4247 C   0  0  0  0  0  0  0  0  0  0  0  0
    8.6846  -15.1169   19.7823 C   0  0  2  0  0  0  0  0  0  0  0  0
    9.0718  -16.0139   18.7378 N   0  0  0  0  0  0  0  0  0  0  0  0
    8.2670  -15.8887   20.9848 C   0  0  0  0  0  0  0  0  0  0  0  0
    7.7634  -15.2590   21.9770 O   0  0  0  0  0  0  0  0  0  0  0  0
    8.4079  -17.2906   21.0671 N   0  0  0  0  0  0  0  0  0  0  0  0
    7.9397  -18.0234   22.2129 C   0  0  1  0  0  0  0  0  0  0  0  0
    8.0933  -19.5225   22.0573 C   0  0  0  0  0  0  0  0  0  0  0  0
    7.1146  -20.0064   21.0174 C   0  0  0  0  0  0  0  0  0  0  0  0
    7.3781  -21.4760   20.7127 C   0  0  0  0  0  0  0  0  0  0  0  0
    6.3773  -21.8854   19.6299 C   0  0  0  0  0  0  0  0  0  0  0  0
    6.8032  -21.2695   18.3903 N   0  0  0  0  0  0  0  0  0  0  0  0
    8.7912  -17.6323   23.3779 C   0  0  0  0  0  0  0  0  0  0  0  0
   10.0531  -17.6666   23.3113 O   0  0  0  0  0  0  0  0  0  0  0  0
   11.1136  -14.5260   31.2445 O   0  0  0  0  0  0  0  0  0  0  0  0
   10.4170  -14.8320   30.0792 C   0  0  0  0  0  0  0  0  0  0  0  0
   10.3152  -13.9334   29.0369 C   0  0  0  0  0  0  0  0  0  0  0  0
    9.6212  -14.2534   27.8897 C   0  0  0  0  0  0  0  0  0  0  0  0
    8.9936  -15.4861   27.7239 C   0  0  0  0  0  0  0  0  0  0  0  0
    8.2496  -15.7700   26.4768 C   0  0  0  0  0  0  0  0  0  0  0  0
    8.9937  -16.8558   25.7095 C   0  0  2  0  0  0  0  0  0  0  0  0
    8.1708  -17.2211   24.5627 N   0  0  0  0  0  0  0  0  0  0  0  0
    9.3239  -18.0330   26.5206 C   0  0  0  0  0  0  0  0  0  0  0  0
   10.5242  -18.2670   27.1614 O   0  0  0  0  0  0  0  0  0  0  0  0
    9.0983  -16.3790   28.7676 C   0  0  0  0  0  0  0  0  0  0  0  0
    9.7990  -16.0549   29.9247 C   0  0  0  0  0  0  0  0  0  0  0  0
    8.4367  -18.9424   26.6625 O   0  0  0  0  0  0  0  0  0  0  0  0
  2  4  1  0
  2  1  1  1
  3  2  1  0
  4  5  1  0
  5  7  1  0
  5  6  1  6
  7  8  2  0
  9  7  1  0
  9 10  1  0
 10 16  1  0
 10 11  1  6
 11 12  1  0
 12 13  1  0
 13 14  1  0
 15 14  1  0
 16 17  2  0
 18 19  1  0
 19 29  2  0
 19 20  1  0
 20 21  2  0
 21 22  1  0
 22 23  1  0
 24 23  1  1
 24 26  1  0
 25 24  1  0
 25 16  1  0
 26 30  2  0
 26 27  1  0
 28 22  2  0
 29 28  1  0
M  END
$$$$
