LKY.pdb
     RDKit          3D

 30 30  0  0  1  0  0  0  0  0999 V2000
    7.9573  -13.5999   18.9883 C   0  0  0  0  0  0  0  0  0  0  0  0
    7.8677  -13.9575   20.4320 C   0  0  1  0  0  0  0  0  0  0  0  0
    7.0812  -12.8890   21.1565 C   0  0  0  0  0  0  0  0  0  0  0  0
    7.2361  -15.2875   20.7027 C   0  0  0  0  0  0  0  0  0  0  0  0
    7.1683  -15.6601   22.1436 C   0  0  2  0  0  0  0  0  0  0  0  0
    7.1013  -14.5505   23.0436 N   0  0  0  0  0  0  0  0  0  0  0  0
    8.3598  -16.4958   22.4569 C   0  0  0  0  0  0  0  0  0  0  0  0
    8.3730  -17.7168   22.0779 O   0  0  0  0  0  0  0  0  0  0  0  0
    9.4744  -15.9870   23.1573 N   0  0  0  0  0  0  0  0  0  0  0  0
   10.5687  -16.8379   23.5413 C   0  0  1  0  0  0  0  0  0  0  0  0
   11.8731  -16.4606   22.8695 C   0  0  0  0  0  0  0  0  0  0  0  0
   11.7944  -16.8332   21.4106 C   0  0  0  0  0  0  0  0  0  0  0  0
   13.1129  -16.4952   20.7253 C   0  0  0  0  0  0  0  0  0  0  0  0
   12.9526  -16.8799   19.2529 C   0  0  0  0  0  0  0  0  0  0  0  0
   14.0988  -16.3549   18.5401 N   0  0  0  0  0  0  0  0  0  0  0  0
   10.7855  -16.6600   25.0099 C   0  0  0  0  0  0  0  0  0  0  0  0
   11.9472  -16.5399   25.4935 O   0  0  0  0  0  0  0  0  0  0  0  0
    7.0329  -11.1992   25.2202 O   0  0  0  0  0  0  0  0  0  0  0  0
    7.4137  -12.3682   25.8722 C   0  0  0  0  0  0  0  0  0  0  0  0
    6.5901  -13.4744   25.9199 C   0  0  0  0  0  0  0  0  0  0  0  0
    6.9836  -14.6243   26.5702 C   0  0  0  0  0  0  0  0  0  0  0  0
    8.2189  -14.7292   27.2060 C   0  0  0  0  0  0  0  0  0  0  0  0
    8.5830  -15.9834   27.9017 C   0  0  0  0  0  0  0  0  0  0  0  0
    9.8794  -16.5091   27.2982 C   0  0  2  0  0  0  0  0  0  0  0  0
    9.6743  -16.6267   25.8595 N   0  0  0  0  0  0  0  0  0  0  0  0
   10.3273  -17.7816   27.8749 C   0  0  0  0  0  0  0  0  0  0  0  0
   10.9751  -17.9423   29.0835 O   0  0  0  0  0  0  0  0  0  0  0  0
    9.0367  -13.6219   27.1554 C   0  0  0  0  0  0  0  0  0  0  0  0
    8.6385  -12.4622   26.4987 C   0  0  0  0  0  0  0  0  0  0  0  0
   10.1117  -18.8569   27.2179 O   0  0  0  0  0  0  0  0  0  0  0  0
  2  4  1  0
  2  1  1  6
  3  2  1  0
  4  5  1  0
  5  7  1  0
  5  6  1  1
  7  8  2  0
  9  7  1  0
  9 10  1  0
 10 16  1  0
 10 11  1  6
 11 12  1  0
 12 13  1  0
 13 14  1  0
 15 14  1  0
 16 17  2  0
 18 19  1  0
 19 29  2  0
 19 20  1  0
 20 21  2  0
 21 22  1  0
 22 23  1  0
 24 23  1  1
 24 26  1  0
 25 24  1  0
 25 16  1  0
 26 30  2  0
 26 27  1  0
 28 22  2  0
 29 28  1  0
M  END
$$$$
