LKY.pdb
     RDKit          3D

 30 30  0  0  1  0  0  0  0  0999 V2000
    6.7837  -11.9875   27.1350 C   0  0  0  0  0  0  0  0  0  0  0  0
    6.1069  -13.0986   26.4086 C   0  0  1  0  0  0  0  0  0  0  0  0
    5.0796  -12.5167   25.4647 C   0  0  0  0  0  0  0  0  0  0  0  0
    7.0305  -13.9827   25.6298 C   0  0  0  0  0  0  0  0  0  0  0  0
    6.3677  -15.1396   24.9650 C   0  0  2  0  0  0  0  0  0  0  0  0
    5.6969  -16.0348   25.8561 N   0  0  0  0  0  0  0  0  0  0  0  0
    7.4029  -15.8767   24.1897 C   0  0  0  0  0  0  0  0  0  0  0  0
    7.9583  -16.8989   24.7199 O   0  0  0  0  0  0  0  0  0  0  0  0
    7.7921  -15.4860   22.8905 N   0  0  0  0  0  0  0  0  0  0  0  0
    8.6975  -16.2850   22.1090 C   0  0  1  0  0  0  0  0  0  0  0  0
    8.6787  -15.9280   20.6368 C   0  0  0  0  0  0  0  0  0  0  0  0
    9.5876  -16.8752   19.8950 C   0  0  0  0  0  0  0  0  0  0  0  0
    9.5560  -16.5525   18.4061 C   0  0  0  0  0  0  0  0  0  0  0  0
   10.5834  -17.4684   17.7373 C   0  0  0  0  0  0  0  0  0  0  0  0
   10.6987  -17.0542   16.3544 N   0  0  0  0  0  0  0  0  0  0  0  0
   10.0834  -16.0007   22.5927 C   0  0  0  0  0  0  0  0  0  0  0  0
   10.6305  -14.8778   22.3985 O   0  0  0  0  0  0  0  0  0  0  0  0
   12.1704  -14.6478   30.5295 O   0  0  0  0  0  0  0  0  0  0  0  0
   11.6681  -15.0223   29.2868 C   0  0  0  0  0  0  0  0  0  0  0  0
   11.2895  -16.3218   29.0183 C   0  0  0  0  0  0  0  0  0  0  0  0
   10.7938  -16.6751   27.7815 C   0  0  0  0  0  0  0  0  0  0  0  0
   10.6506  -15.7499   26.7497 C   0  0  0  0  0  0  0  0  0  0  0  0
   10.1267  -16.1883   25.4372 C   0  0  0  0  0  0  0  0  0  0  0  0
   11.2865  -16.7367   24.6154 C   0  0  2  0  0  0  0  0  0  0  0  0
   10.7823  -17.0035   23.2735 N   0  0  0  0  0  0  0  0  0  0  0  0
   11.9089  -17.9325   25.1945 C   0  0  0  0  0  0  0  0  0  0  0  0
   11.3783  -19.2071   25.1906 O   0  0  0  0  0  0  0  0  0  0  0  0
   11.0304  -14.4544   27.0233 C   0  0  0  0  0  0  0  0  0  0  0  0
   11.5304  -14.0992   28.2719 C   0  0  0  0  0  0  0  0  0  0  0  0
   13.0475  -17.8111   25.7629 O   0  0  0  0  0  0  0  0  0  0  0  0
  2  4  1  0
  2  1  1  6
  3  2  1  0
  4  5  1  0
  5  7  1  0
  5  6  1  1
  7  8  2  0
  9  7  1  0
  9 10  1  0
 10 16  1  0
 10 11  1  6
 11 12  1  0
 12 13  1  0
 13 14  1  0
 15 14  1  0
 16 17  2  0
 18 19  1  0
 19 29  2  0
 19 20  1  0
 20 21  2  0
 21 22  1  0
 22 23  1  0
 24 23  1  1
 24 26  1  0
 25 24  1  0
 25 16  1  0
 26 30  2  0
 26 27  1  0
 28 22  2  0
 29 28  1  0
M  END
$$$$
