LKY.pdb
     RDKit          3D

 30 30  0  0  1  0  0  0  0  0999 V2000
    6.3159  -12.5182   18.0383 C   0  0  0  0  0  0  0  0  0  0  0  0
    7.6664  -13.1013   18.2762 C   0  0  1  0  0  0  0  0  0  0  0  0
    8.6360  -11.9858   18.5934 C   0  0  0  0  0  0  0  0  0  0  0  0
    7.7188  -14.1130   19.3784 C   0  0  0  0  0  0  0  0  0  0  0  0
    9.0822  -14.6337   19.6780 C   0  0  2  0  0  0  0  0  0  0  0  0
    9.7710  -15.1833   18.5515 N   0  0  0  0  0  0  0  0  0  0  0  0
    8.9547  -15.6627   20.7461 C   0  0  0  0  0  0  0  0  0  0  0  0
    8.1631  -15.4401   21.7250 O   0  0  0  0  0  0  0  0  0  0  0  0
    9.6774  -16.8747   20.7152 N   0  0  0  0  0  0  0  0  0  0  0  0
    9.5024  -17.8760   21.7330 C   0  0  1  0  0  0  0  0  0  0  0  0
   10.1807  -19.1872   21.3931 C   0  0  0  0  0  0  0  0  0  0  0  0
    9.1500  -20.1394   20.8414 C   0  0  0  0  0  0  0  0  0  0  0  0
    9.6350  -20.7025   19.5112 C   0  0  0  0  0  0  0  0  0  0  0  0
    8.5207  -21.6113   18.9876 C   0  0  0  0  0  0  0  0  0  0  0  0
    8.8994  -22.0395   17.6569 N   0  0  0  0  0  0  0  0  0  0  0  0
   10.1591  -17.3735   22.9786 C   0  0  0  0  0  0  0  0  0  0  0  0
   11.4013  -17.1428   23.0202 O   0  0  0  0  0  0  0  0  0  0  0  0
   11.1765  -14.4923   31.1676 O   0  0  0  0  0  0  0  0  0  0  0  0
   10.6149  -14.8611   29.9488 C   0  0  0  0  0  0  0  0  0  0  0  0
   10.2409  -16.1631   29.6860 C   0  0  0  0  0  0  0  0  0  0  0  0
    9.6859  -16.5106   28.4730 C   0  0  0  0  0  0  0  0  0  0  0  0
    9.4759  -15.5769   27.4605 C   0  0  0  0  0  0  0  0  0  0  0  0
    8.8899  -16.0091   26.1723 C   0  0  0  0  0  0  0  0  0  0  0  0
    9.9979  -16.6136   25.3189 C   0  0  2  0  0  0  0  0  0  0  0  0
    9.3756  -17.1566   24.1173 N   0  0  0  0  0  0  0  0  0  0  0  0
   10.7891  -17.6354   26.0134 C   0  0  0  0  0  0  0  0  0  0  0  0
   12.0195  -17.4436   26.6097 O   0  0  0  0  0  0  0  0  0  0  0  0
    9.8514  -14.2789   27.7283 C   0  0  0  0  0  0  0  0  0  0  0  0
   10.4112  -13.9295   28.9528 C   0  0  0  0  0  0  0  0  0  0  0  0
   10.3201  -18.8225   26.0867 O   0  0  0  0  0  0  0  0  0  0  0  0
  2  4  1  0
  2  1  1  1
  3  2  1  0
  4  5  1  0
  5  7  1  0
  5  6  1  6
  7  8  2  0
  9  7  1  0
  9 10  1  0
 10 16  1  0
 10 11  1  6
 11 12  1  0
 12 13  1  0
 13 14  1  0
 15 14  1  0
 16 17  2  0
 18 19  1  0
 19 29  2  0
 19 20  1  0
 20 21  2  0
 21 22  1  0
 22 23  1  0
 24 23  1  1
 24 26  1  0
 25 24  1  0
 25 16  1  0
 26 30  2  0
 26 27  1  0
 28 22  2  0
 29 28  1  0
M  END
$$$$
