LKY.pdb
     RDKit          3D

 30 30  0  0  1  0  0  0  0  0999 V2000
    7.6937  -11.8957   19.3264 C   0  0  0  0  0  0  0  0  0  0  0  0
    7.7016  -13.3048   18.8421 C   0  0  1  0  0  0  0  0  0  0  0  0
    8.5620  -13.3950   17.6024 C   0  0  0  0  0  0  0  0  0  0  0  0
    8.1949  -14.3015   19.8443 C   0  0  0  0  0  0  0  0  0  0  0  0
    8.2138  -15.7104   19.3602 C   0  0  2  0  0  0  0  0  0  0  0  0
    6.9360  -16.2260   18.9770 N   0  0  0  0  0  0  0  0  0  0  0  0
    8.8002  -16.5562   20.4358 C   0  0  0  0  0  0  0  0  0  0  0  0
    8.1043  -16.7931   21.4818 O   0  0  0  0  0  0  0  0  0  0  0  0
   10.0970  -17.1050   20.3405 N   0  0  0  0  0  0  0  0  0  0  0  0
   10.6309  -17.9471   21.3772 C   0  0  1  0  0  0  0  0  0  0  0  0
   11.9427  -18.5988   20.9907 C   0  0  0  0  0  0  0  0  0  0  0  0
   12.3845  -19.5051   22.1118 C   0  0  0  0  0  0  0  0  0  0  0  0
   13.7121  -20.1584   21.7474 C   0  0  0  0  0  0  0  0  0  0  0  0
   14.0659  -21.1033   22.8979 C   0  0  0  0  0  0  0  0  0  0  0  0
   15.3059  -21.7654   22.5498 N   0  0  0  0  0  0  0  0  0  0  0  0
   10.9251  -17.0783   22.5580 C   0  0  0  0  0  0  0  0  0  0  0  0
   11.7652  -16.1364   22.4885 O   0  0  0  0  0  0  0  0  0  0  0  0
   10.8137  -14.0069   30.7506 O   0  0  0  0  0  0  0  0  0  0  0  0
   10.4531  -14.5961   29.5425 C   0  0  0  0  0  0  0  0  0  0  0  0
   10.3823  -15.9664   29.3954 C   0  0  0  0  0  0  0  0  0  0  0  0
   10.0231  -16.5329   28.1912 C   0  0  0  0  0  0  0  0  0  0  0  0
    9.7161  -15.7613   27.0725 C   0  0  0  0  0  0  0  0  0  0  0  0
    9.3511  -16.4238   25.8007 C   0  0  0  0  0  0  0  0  0  0  0  0
   10.6051  -16.5436   24.9437 C   0  0  2  0  0  0  0  0  0  0  0  0
   10.2522  -17.3194   23.7608 N   0  0  0  0  0  0  0  0  0  0  0  0
   11.7472  -17.1390   25.6462 C   0  0  0  0  0  0  0  0  0  0  0  0
   11.8712  -18.4626   26.0191 O   0  0  0  0  0  0  0  0  0  0  0  0
    9.7887  -14.3943   27.2251 C   0  0  0  0  0  0  0  0  0  0  0  0
   10.1512  -13.8237   28.4408 C   0  0  0  0  0  0  0  0  0  0  0  0
   12.7322  -16.3848   25.9549 O   0  0  0  0  0  0  0  0  0  0  0  0
  2  4  1  0
  2  1  1  1
  3  2  1  0
  4  5  1  0
  5  7  1  0
  5  6  1  1
  7  8  2  0
  9  7  1  0
  9 10  1  0
 10 16  1  0
 10 11  1  6
 11 12  1  0
 12 13  1  0
 13 14  1  0
 15 14  1  0
 16 17  2  0
 18 19  1  0
 19 29  2  0
 19 20  1  0
 20 21  2  0
 21 22  1  0
 22 23  1  0
 24 23  1  1
 24 26  1  0
 25 24  1  0
 25 16  1  0
 26 30  2  0
 26 27  1  0
 28 22  2  0
 29 28  1  0
M  END
$$$$
