LKY.pdb
     RDKit          3D

 30 30  0  0  1  0  0  0  0  0999 V2000
    7.6412  -11.9503   20.6692 C   0  0  0  0  0  0  0  0  0  0  0  0
    7.3526  -13.3494   20.2453 C   0  0  1  0  0  0  0  0  0  0  0  0
    7.5504  -13.4623   18.7509 C   0  0  0  0  0  0  0  0  0  0  0  0
    8.1923  -14.3875   20.9222 C   0  0  0  0  0  0  0  0  0  0  0  0
    7.8387  -15.7930   20.5769 C   0  0  2  0  0  0  0  0  0  0  0  0
    6.4742  -16.1424   20.8253 N   0  0  0  0  0  0  0  0  0  0  0  0
    8.7408  -16.6940   21.3453 C   0  0  0  0  0  0  0  0  0  0  0  0
    8.3433  -17.1497   22.4717 O   0  0  0  0  0  0  0  0  0  0  0  0
   10.0191  -17.0620   20.8734 N   0  0  0  0  0  0  0  0  0  0  0  0
   10.8993  -17.8829   21.6609 C   0  0  1  0  0  0  0  0  0  0  0  0
   12.0579  -18.4418   20.8606 C   0  0  0  0  0  0  0  0  0  0  0  0
   11.5724  -19.6267   20.0645 C   0  0  0  0  0  0  0  0  0  0  0  0
   12.3410  -19.7092   18.7513 C   0  0  0  0  0  0  0  0  0  0  0  0
   11.7651  -20.8992   17.9806 C   0  0  0  0  0  0  0  0  0  0  0  0
   12.4568  -20.9690   16.7101 N   0  0  0  0  0  0  0  0  0  0  0  0
   11.4999  -17.0147   22.7197 C   0  0  0  0  0  0  0  0  0  0  0  0
   11.5457  -15.7579   22.5920 O   0  0  0  0  0  0  0  0  0  0  0  0
   10.2282  -13.8842   30.4561 O   0  0  0  0  0  0  0  0  0  0  0  0
   10.3074  -14.5234   29.2223 C   0  0  0  0  0  0  0  0  0  0  0  0
   10.5088  -13.8206   28.0520 C   0  0  0  0  0  0  0  0  0  0  0  0
   10.5848  -14.4701   26.8386 C   0  0  0  0  0  0  0  0  0  0  0  0
   10.4637  -15.8540   26.7310 C   0  0  0  0  0  0  0  0  0  0  0  0
   10.5385  -16.4968   25.4004 C   0  0  0  0  0  0  0  0  0  0  0  0
   11.9883  -16.8814   25.1330 C   0  0  2  0  0  0  0  0  0  0  0  0
   12.0197  -17.6134   23.8724 N   0  0  0  0  0  0  0  0  0  0  0  0
   12.6027  -17.6609   26.2134 C   0  0  0  0  0  0  0  0  0  0  0  0
   12.2989  -18.9655   26.5479 O   0  0  0  0  0  0  0  0  0  0  0  0
   10.2625  -16.5502   27.9024 C   0  0  0  0  0  0  0  0  0  0  0  0
   10.1862  -15.8935   29.1263 C   0  0  0  0  0  0  0  0  0  0  0  0
   13.5049  -17.1045   26.9281 O   0  0  0  0  0  0  0  0  0  0  0  0
  2  4  1  0
  2  1  1  1
  3  2  1  0
  4  5  1  0
  5  7  1  0
  5  6  1  1
  7  8  2  0
  9  7  1  0
  9 10  1  0
 10 16  1  0
 10 11  1  6
 11 12  1  0
 12 13  1  0
 13 14  1  0
 15 14  1  0
 16 17  2  0
 18 19  1  0
 19 29  2  0
 19 20  1  0
 20 21  2  0
 21 22  1  0
 22 23  1  0
 24 23  1  1
 24 26  1  0
 25 24  1  0
 25 16  1  0
 26 30  2  0
 26 27  1  0
 28 22  2  0
 29 28  1  0
M  END
$$$$
