LKY.pdb
     RDKit          3D

 30 30  0  0  1  0  0  0  0  0999 V2000
    6.3138  -12.6649   19.6612 C   0  0  0  0  0  0  0  0  0  0  0  0
    7.5605  -13.4513   19.8797 C   0  0  1  0  0  0  0  0  0  0  0  0
    8.7556  -12.5614   19.6246 C   0  0  0  0  0  0  0  0  0  0  0  0
    7.6861  -14.0459   21.2478 C   0  0  0  0  0  0  0  0  0  0  0  0
    8.9517  -14.7954   21.4845 C   0  0  2  0  0  0  0  0  0  0  0  0
    9.3619  -15.6303   20.3982 N   0  0  0  0  0  0  0  0  0  0  0  0
    8.7754  -15.6143   22.7151 C   0  0  0  0  0  0  0  0  0  0  0  0
    7.8035  -15.3448   23.5007 O   0  0  0  0  0  0  0  0  0  0  0  0
    9.6437  -16.6773   23.0440 N   0  0  0  0  0  0  0  0  0  0  0  0
    9.4806  -17.4273   24.2604 C   0  0  1  0  0  0  0  0  0  0  0  0
   10.2386  -18.7389   24.2508 C   0  0  0  0  0  0  0  0  0  0  0  0
    9.5936  -19.6662   23.2520 C   0  0  0  0  0  0  0  0  0  0  0  0
   10.4013  -20.9547   23.1556 C   0  0  0  0  0  0  0  0  0  0  0  0
    9.7772  -21.7799   22.0280 C   0  0  0  0  0  0  0  0  0  0  0  0
   10.5585  -22.9918   21.8936 N   0  0  0  0  0  0  0  0  0  0  0  0
   10.0607  -16.6147   25.3733 C   0  0  0  0  0  0  0  0  0  0  0  0
   11.1425  -15.9772   25.2276 O   0  0  0  0  0  0  0  0  0  0  0  0
    6.8058  -11.2279   24.7113 O   0  0  0  0  0  0  0  0  0  0  0  0
    7.3157  -12.1621   25.6081 C   0  0  0  0  0  0  0  0  0  0  0  0
    6.6387  -13.3270   25.9065 C   0  0  0  0  0  0  0  0  0  0  0  0
    7.1587  -14.2413   26.7972 C   0  0  0  0  0  0  0  0  0  0  0  0
    8.3806  -14.0401   27.4358 C   0  0  0  0  0  0  0  0  0  0  0  0
    8.8836  -15.0488   28.3944 C   0  0  0  0  0  0  0  0  0  0  0  0
    9.9891  -15.8478   27.7158 C   0  0  2  0  0  0  0  0  0  0  0  0
    9.3862  -16.5642   26.5981 N   0  0  0  0  0  0  0  0  0  0  0  0
   10.6927  -16.7677   28.6165 C   0  0  0  0  0  0  0  0  0  0  0  0
   10.7692  -18.1394   28.4789 O   0  0  0  0  0  0  0  0  0  0  0  0
    9.0517  -12.8756   27.1344 C   0  0  0  0  0  0  0  0  0  0  0  0
    8.5259  -11.9537   26.2351 C   0  0  0  0  0  0  0  0  0  0  0  0
   11.2985  -16.2810   29.6316 O   0  0  0  0  0  0  0  0  0  0  0  0
  2  4  1  0
  2  1  1  1
  3  2  1  0
  4  5  1  0
  5  7  1  0
  5  6  1  6
  7  8  2  0
  9  7  1  0
  9 10  1  0
 10 16  1  0
 10 11  1  6
 11 12  1  0
 12 13  1  0
 13 14  1  0
 15 14  1  0
 16 17  2  0
 18 19  1  0
 19 29  2  0
 19 20  1  0
 20 21  2  0
 21 22  1  0
 22 23  1  0
 24 23  1  1
 24 26  1  0
 25 24  1  0
 25 16  1  0
 26 30  2  0
 26 27  1  0
 28 22  2  0
 29 28  1  0
M  END
$$$$
