FVA.pdb
     RDKit          3D

 24 24  0  0  1  0  0  0  0  0999 V2000
    6.0286  -17.6741   25.5761 N   0  0  0  0  0  0  0  0  0  0  0  0
    6.5186  -16.3382   25.3045 C   0  0  1  0  0  0  0  0  0  0  0  0
    7.1111  -15.8156   26.5968 C   0  0  0  0  0  0  0  0  0  0  0  0
    6.9048  -14.3578   26.6919 C   0  0  0  0  0  0  0  0  0  0  0  0
    5.6346  -13.8356   26.6713 C   0  0  0  0  0  0  0  0  0  0  0  0
    5.4112  -12.4603   26.7596 C   0  0  0  0  0  0  0  0  0  0  0  0
    6.4732  -11.5813   26.8710 C   0  0  0  0  0  0  0  0  0  0  0  0
    7.7437  -12.1053   26.8915 C   0  0  0  0  0  0  0  0  0  0  0  0
    7.9473  -13.4662   26.8034 C   0  0  0  0  0  0  0  0  0  0  0  0
    7.5313  -16.4259   24.2278 C   0  0  0  0  0  0  0  0  0  0  0  0
    8.4133  -17.3183   24.2703 O   0  0  0  0  0  0  0  0  0  0  0  0
    8.4439  -13.1343   21.7342 C   0  0  0  0  0  0  0  0  0  0  0  0
    8.2110  -14.4794   21.0975 C   0  0  2  0  0  0  0  0  0  0  0  0
    6.7889  -14.6290   20.6462 C   0  0  0  0  0  0  0  0  0  0  0  0
    8.5408  -15.6178   22.0481 C   0  0  2  0  0  0  0  0  0  0  0  0
    7.5731  -15.5440   23.1200 N   0  0  0  0  0  0  0  0  0  0  0  0
    9.9290  -15.4600   22.5404 C   0  0  0  0  0  0  0  0  0  0  0  0
   10.1442  -14.8671   23.6272 O   0  0  0  0  0  0  0  0  0  0  0  0
   12.0509  -17.3699   23.5371 C   0  0  0  0  0  0  0  0  0  0  0  0
   12.3184  -16.2826   22.4876 C   0  0  2  0  0  0  0  0  0  0  0  0
   11.0648  -15.9511   21.8405 N   0  0  0  0  0  0  0  0  0  0  0  0
   13.3390  -16.7581   21.5541 C   0  0  0  0  0  0  0  0  0  0  0  0
   14.5132  -16.9257   21.9591 O   0  0  0  0  0  0  0  0  0  0  0  0
   13.0845  -17.0403   20.2253 O   0  0  0  0  0  0  0  0  0  0  0  0
  2  1  1  1
  3  2  1  0
  4  5  2  0
  4  3  1  0
  6  5  1  0
  7  6  2  0
  8  7  1  0
  8  9  2  0
  9  4  1  0
 10  2  1  0
 10 11  2  0
 13 12  1  1
 13 14  1  0
 15 16  1  1
 15 13  1  0
 16 10  1  0
 17 15  1  0
 18 17  2  0
 20 19  1  1
 20 21  1  0
 21 17  1  0
 22 20  1  0
 22 24  1  0
 23 22  2  0
M  END
$$$$
