FVA.pdb
     RDKit          3D

 24 24  0  0  1  0  0  0  0  0999 V2000
    8.2262  -16.2542   21.7167 N   0  0  0  0  0  0  0  0  0  0  0  0
    9.0949  -15.2903   22.3606 C   0  0  1  0  0  0  0  0  0  0  0  0
    8.3278  -13.9862   22.4332 C   0  0  0  0  0  0  0  0  0  0  0  0
    7.9794  -13.5308   21.0738 C   0  0  0  0  0  0  0  0  0  0  0  0
    6.7452  -13.8162   20.5430 C   0  0  0  0  0  0  0  0  0  0  0  0
    6.3899  -13.3975   19.2594 C   0  0  0  0  0  0  0  0  0  0  0  0
    7.2803  -12.6781   18.4831 C   0  0  0  0  0  0  0  0  0  0  0  0
    8.5150  -12.3932   19.0155 C   0  0  0  0  0  0  0  0  0  0  0  0
    8.8504  -12.8141   20.2850 C   0  0  0  0  0  0  0  0  0  0  0  0
    9.4406  -15.8037   23.7057 C   0  0  0  0  0  0  0  0  0  0  0  0
   10.1598  -15.1163   24.4716 O   0  0  0  0  0  0  0  0  0  0  0  0
    7.8084  -19.0803   26.8634 C   0  0  0  0  0  0  0  0  0  0  0  0
    7.9385  -17.7275   26.2138 C   0  0  2  0  0  0  0  0  0  0  0  0
    6.8535  -17.5023   25.2035 C   0  0  0  0  0  0  0  0  0  0  0  0
    9.2834  -17.5586   25.5275 C   0  0  2  0  0  0  0  0  0  0  0  0
    9.0013  -17.0560   24.2013 N   0  0  0  0  0  0  0  0  0  0  0  0
    9.9830  -18.8638   25.4903 C   0  0  0  0  0  0  0  0  0  0  0  0
    9.4599  -19.8377   24.8931 O   0  0  0  0  0  0  0  0  0  0  0  0
   13.4112  -20.1565   26.2836 C   0  0  0  0  0  0  0  0  0  0  0  0
   11.9012  -20.3814   26.1276 C   0  0  2  0  0  0  0  0  0  0  0  0
   11.2447  -19.0896   26.1052 N   0  0  0  0  0  0  0  0  0  0  0  0
   11.4311  -21.2464   27.2093 C   0  0  0  0  0  0  0  0  0  0  0  0
   11.5841  -22.4868   27.1159 O   0  0  0  0  0  0  0  0  0  0  0  0
   10.8158  -20.7717   28.3522 O   0  0  0  0  0  0  0  0  0  0  0  0
  2  1  1  1
  3  2  1  0
  4  5  2  0
  4  3  1  0
  6  5  1  0
  7  6  2  0
  8  7  1  0
  8  9  2  0
  9  4  1  0
 10  2  1  0
 10 11  2  0
 13 12  1  6
 13 14  1  0
 15 16  1  6
 15 13  1  0
 16 10  1  0
 17 15  1  0
 18 17  2  0
 20 19  1  1
 20 21  1  0
 21 17  1  0
 22 20  1  0
 22 24  1  0
 23 22  2  0
M  END
$$$$
