FVA.pdb
     RDKit          3D

 24 24  0  0  1  0  0  0  0  0999 V2000
    5.8888  -18.1323   25.2954 N   0  0  0  0  0  0  0  0  0  0  0  0
    6.3942  -16.7810   25.1657 C   0  0  1  0  0  0  0  0  0  0  0  0
    7.0765  -16.4389   26.4741 C   0  0  0  0  0  0  0  0  0  0  0  0
    7.3275  -14.9868   26.5463 C   0  0  0  0  0  0  0  0  0  0  0  0
    8.6141  -14.5079   26.5894 C   0  0  0  0  0  0  0  0  0  0  0  0
    8.8797  -13.1390   26.6580 C   0  0  0  0  0  0  0  0  0  0  0  0
    7.8442  -12.2225   26.6846 C   0  0  0  0  0  0  0  0  0  0  0  0
    6.5572  -12.7032   26.6415 C   0  0  0  0  0  0  0  0  0  0  0  0
    6.3119  -14.0583   26.5738 C   0  0  0  0  0  0  0  0  0  0  0  0
    7.3375  -16.7463   24.0249 C   0  0  0  0  0  0  0  0  0  0  0  0
    8.1261  -17.7048   23.8363 O   0  0  0  0  0  0  0  0  0  0  0  0
    8.2622  -13.1119   22.0856 C   0  0  0  0  0  0  0  0  0  0  0  0
    8.0003  -14.3295   21.2383 C   0  0  2  0  0  0  0  0  0  0  0  0
    6.5708  -14.3823   20.7887 C   0  0  0  0  0  0  0  0  0  0  0  0
    8.3227  -15.6142   21.9826 C   0  0  2  0  0  0  0  0  0  0  0  0
    7.4122  -15.6721   23.1044 N   0  0  0  0  0  0  0  0  0  0  0  0
    9.7388  -15.5882   22.4166 C   0  0  0  0  0  0  0  0  0  0  0  0
   10.6568  -15.6100   21.5590 O   0  0  0  0  0  0  0  0  0  0  0  0
   11.5610  -15.1105   25.6908 C   0  0  0  0  0  0  0  0  0  0  0  0
   11.5194  -15.5062   24.2086 C   0  0  2  0  0  0  0  0  0  0  0  0
   10.1351  -15.5386   23.7810 N   0  0  0  0  0  0  0  0  0  0  0  0
   12.2048  -16.7865   24.0349 C   0  0  0  0  0  0  0  0  0  0  0  0
   11.5699  -17.7681   23.5828 O   0  0  0  0  0  0  0  0  0  0  0  0
   13.5369  -16.9862   24.3444 O   0  0  0  0  0  0  0  0  0  0  0  0
  2  1  1  1
  3  2  1  0
  4  5  2  0
  4  3  1  0
  6  5  1  0
  7  6  2  0
  8  7  1  0
  8  9  2  0
  9  4  1  0
 10  2  1  0
 10 11  2  0
 13 12  1  1
 13 14  1  0
 15 16  1  1
 15 13  1  0
 16 10  1  0
 17 15  1  0
 18 17  2  0
 20 19  1  1
 20 21  1  0
 21 17  1  0
 22 20  1  0
 22 24  1  0
 23 22  2  0
M  END
$$$$
