FVA.pdb
     RDKit          3D

 24 24  0  0  1  0  0  0  0  0999 V2000
    5.8388  -18.1781   25.2236 N   0  0  0  0  0  0  0  0  0  0  0  0
    6.3164  -16.8214   25.0516 C   0  0  1  0  0  0  0  0  0  0  0  0
    7.0073  -16.4312   26.3419 C   0  0  0  0  0  0  0  0  0  0  0  0
    7.1181  -14.9626   26.4293 C   0  0  0  0  0  0  0  0  0  0  0  0
    5.9917  -14.1786   26.3723 C   0  0  0  0  0  0  0  0  0  0  0  0
    6.0682  -12.7869   26.4526 C   0  0  0  0  0  0  0  0  0  0  0  0
    7.2915  -12.1571   26.5929 C   0  0  0  0  0  0  0  0  0  0  0  0
    8.4179  -12.9428   26.6498 C   0  0  0  0  0  0  0  0  0  0  0  0
    8.3251  -14.3161   26.5691 C   0  0  0  0  0  0  0  0  0  0  0  0
    7.2453  -16.7996   23.8988 C   0  0  0  0  0  0  0  0  0  0  0  0
    8.0134  -17.7719   23.6962 O   0  0  0  0  0  0  0  0  0  0  0  0
    8.0597  -13.2072   21.8028 C   0  0  0  0  0  0  0  0  0  0  0  0
    7.7854  -14.4658   21.0219 C   0  0  2  0  0  0  0  0  0  0  0  0
    6.3384  -14.5659   20.6416 C   0  0  0  0  0  0  0  0  0  0  0  0
    8.1686  -15.7100   21.8051 C   0  0  2  0  0  0  0  0  0  0  0  0
    7.3282  -15.7231   22.9817 N   0  0  0  0  0  0  0  0  0  0  0  0
    9.6078  -15.6491   22.1504 C   0  0  0  0  0  0  0  0  0  0  0  0
   10.4718  -15.6705   21.2383 O   0  0  0  0  0  0  0  0  0  0  0  0
   11.6705  -14.9591   25.2144 C   0  0  0  0  0  0  0  0  0  0  0  0
   11.4922  -15.6063   23.8344 C   0  0  2  0  0  0  0  0  0  0  0  0
   10.0860  -15.5656   23.4866 N   0  0  0  0  0  0  0  0  0  0  0  0
   12.0372  -16.9632   23.8673 C   0  0  0  0  0  0  0  0  0  0  0  0
   13.2455  -17.1343   24.1528 O   0  0  0  0  0  0  0  0  0  0  0  0
   11.2875  -18.0925   23.5977 O   0  0  0  0  0  0  0  0  0  0  0  0
  2  1  1  1
  3  2  1  0
  4  5  2  0
  4  3  1  0
  6  5  1  0
  7  6  2  0
  8  7  1  0
  8  9  2  0
  9  4  1  0
 10  2  1  0
 10 11  2  0
 13 12  1  1
 13 14  1  0
 15 16  1  1
 15 13  1  0
 16 10  1  0
 17 15  1  0
 18 17  2  0
 20 19  1  1
 20 21  1  0
 21 17  1  0
 22 20  1  0
 22 24  1  0
 23 22  2  0
M  END
$$$$
