FVA.pdb
     RDKit          3D

 24 24  0  0  1  0  0  0  0  0999 V2000
    6.1870  -17.9561   25.7219 N   0  0  0  0  0  0  0  0  0  0  0  0
    6.5529  -16.5878   25.4183 C   0  0  1  0  0  0  0  0  0  0  0  0
    7.5285  -16.1453   26.4891 C   0  0  0  0  0  0  0  0  0  0  0  0
    7.3915  -14.6956   26.7268 C   0  0  0  0  0  0  0  0  0  0  0  0
    8.5031  -13.9252   26.9666 C   0  0  0  0  0  0  0  0  0  0  0  0
    8.4017  -12.5516   27.1946 C   0  0  0  0  0  0  0  0  0  0  0  0
    7.1680  -11.9265   27.1846 C   0  0  0  0  0  0  0  0  0  0  0  0
    6.0565  -12.6986   26.9445 C   0  0  0  0  0  0  0  0  0  0  0  0
    6.1737  -14.0542   26.7212 C   0  0  0  0  0  0  0  0  0  0  0  0
    7.1627  -16.5594   24.0693 C   0  0  0  0  0  0  0  0  0  0  0  0
    7.7502  -17.5771   23.6272 O   0  0  0  0  0  0  0  0  0  0  0  0
    7.8686  -13.8406   19.9252 C   0  0  0  0  0  0  0  0  0  0  0  0
    7.4100  -13.9894   21.3523 C   0  0  2  0  0  0  0  0  0  0  0  0
    8.0381  -12.9541   22.2366 C   0  0  0  0  0  0  0  0  0  0  0  0
    7.7359  -15.3651   21.9087 C   0  0  2  0  0  0  0  0  0  0  0  0
    7.1267  -15.4273   23.2186 N   0  0  0  0  0  0  0  0  0  0  0  0
    9.2062  -15.5341   21.9706 C   0  0  0  0  0  0  0  0  0  0  0  0
    9.8778  -15.5671   20.9092 O   0  0  0  0  0  0  0  0  0  0  0  0
   11.9050  -15.1090   24.4688 C   0  0  0  0  0  0  0  0  0  0  0  0
   11.3584  -15.8694   23.2530 C   0  0  2  0  0  0  0  0  0  0  0  0
    9.9251  -15.6648   23.1902 N   0  0  0  0  0  0  0  0  0  0  0  0
   11.7336  -17.2790   23.3608 C   0  0  0  0  0  0  0  0  0  0  0  0
   12.9467  -17.5912   23.4051 O   0  0  0  0  0  0  0  0  0  0  0  0
   10.8151  -18.3101   23.4182 O   0  0  0  0  0  0  0  0  0  0  0  0
  2  1  1  1
  3  2  1  0
  4  5  2  0
  4  3  1  0
  6  5  1  0
  7  6  2  0
  8  7  1  0
  8  9  2  0
  9  4  1  0
 10  2  1  0
 10 11  2  0
 13 12  1  6
 13 14  1  0
 15 16  1  1
 15 13  1  0
 16 10  1  0
 17 15  1  0
 18 17  2  0
 20 19  1  1
 20 21  1  0
 21 17  1  0
 22 20  1  0
 22 24  1  0
 23 22  2  0
M  END
$$$$
