FVA.pdb
     RDKit          3D

 24 24  0  0  1  0  0  0  0  0999 V2000
    5.6626  -17.8828   25.6018 N   0  0  0  0  0  0  0  0  0  0  0  0
    6.1080  -16.5221   25.3816 C   0  0  1  0  0  0  0  0  0  0  0  0
    6.7252  -16.0456   26.6802 C   0  0  0  0  0  0  0  0  0  0  0  0
    6.8283  -14.5738   26.6783 C   0  0  0  0  0  0  0  0  0  0  0  0
    5.6936  -13.8002   26.6998 C   0  0  0  0  0  0  0  0  0  0  0  0
    5.7627  -12.4058   26.6984 C   0  0  0  0  0  0  0  0  0  0  0  0
    6.9869  -11.7627   26.6751 C   0  0  0  0  0  0  0  0  0  0  0  0
    8.1216  -12.5380   26.6536 C   0  0  0  0  0  0  0  0  0  0  0  0
    8.0361  -13.9142   26.6553 C   0  0  0  0  0  0  0  0  0  0  0  0
    7.0895  -16.5293   24.2731 C   0  0  0  0  0  0  0  0  0  0  0  0
    7.9488  -17.4421   24.2047 O   0  0  0  0  0  0  0  0  0  0  0  0
    8.5683  -14.2417   20.0683 C   0  0  0  0  0  0  0  0  0  0  0  0
    7.7441  -14.3065   21.3275 C   0  0  2  0  0  0  0  0  0  0  0  0
    8.0251  -13.1368   22.2227 C   0  0  0  0  0  0  0  0  0  0  0  0
    8.0023  -15.5859   22.1051 C   0  0  2  0  0  0  0  0  0  0  0  0
    7.1252  -15.5459   23.2540 N   0  0  0  0  0  0  0  0  0  0  0  0
    9.4297  -15.6427   22.4970 C   0  0  0  0  0  0  0  0  0  0  0  0
    9.9064  -14.7613   23.2549 O   0  0  0  0  0  0  0  0  0  0  0  0
   12.1997  -18.1761   22.2312 C   0  0  0  0  0  0  0  0  0  0  0  0
   11.7049  -16.7435   22.4718 C   0  0  2  0  0  0  0  0  0  0  0  0
   10.3189  -16.6609   22.0567 N   0  0  0  0  0  0  0  0  0  0  0  0
   12.5754  -15.8095   21.7582 C   0  0  0  0  0  0  0  0  0  0  0  0
   12.3136  -15.5099   20.5697 O   0  0  0  0  0  0  0  0  0  0  0  0
   13.6920  -15.2240   22.3243 O   0  0  0  0  0  0  0  0  0  0  0  0
  2  1  1  1
  3  2  1  0
  4  5  2  0
  4  3  1  0
  6  5  1  0
  7  6  2  0
  8  7  1  0
  8  9  2  0
  9  4  1  0
 10  2  1  0
 10 11  2  0
 13 12  1  6
 13 14  1  0
 15 16  1  1
 15 13  1  0
 16 10  1  0
 17 15  1  0
 18 17  2  0
 20 19  1  6
 20 21  1  0
 21 17  1  0
 22 20  1  0
 22 24  1  0
 23 22  2  0
M  END
$$$$
