FVA.pdb
     RDKit          3D

 24 24  0  0  1  0  0  0  0  0999 V2000
    5.7290  -18.0360   25.3613 N   0  0  0  0  0  0  0  0  0  0  0  0
    6.2478  -16.6973   25.1689 C   0  0  1  0  0  0  0  0  0  0  0  0
    7.1751  -16.4134   26.3325 C   0  0  0  0  0  0  0  0  0  0  0  0
    7.4061  -14.9608   26.4492 C   0  0  0  0  0  0  0  0  0  0  0  0
    8.6847  -14.4594   26.4316 C   0  0  0  0  0  0  0  0  0  0  0  0
    8.9313  -13.0896   26.5404 C   0  0  0  0  0  0  0  0  0  0  0  0
    7.8845  -12.1949   26.6698 C   0  0  0  0  0  0  0  0  0  0  0  0
    6.6055  -12.6981   26.6872 C   0  0  0  0  0  0  0  0  0  0  0  0
    6.3789  -14.0538   26.5787 C   0  0  0  0  0  0  0  0  0  0  0  0
    6.9608  -16.6584   23.8718 C   0  0  0  0  0  0  0  0  0  0  0  0
    7.5364  -17.6888   23.4436 O   0  0  0  0  0  0  0  0  0  0  0  0
    8.0987  -13.8725   19.8708 C   0  0  0  0  0  0  0  0  0  0  0  0
    7.4525  -14.0601   21.2185 C   0  0  2  0  0  0  0  0  0  0  0  0
    7.9031  -13.0096   22.1890 C   0  0  0  0  0  0  0  0  0  0  0  0
    7.7600  -15.4272   21.8058 C   0  0  2  0  0  0  0  0  0  0  0  0
    7.0395  -15.5022   23.0572 N   0  0  0  0  0  0  0  0  0  0  0  0
    9.2227  -15.5617   21.9973 C   0  0  0  0  0  0  0  0  0  0  0  0
    9.9897  -15.5324   21.0025 O   0  0  0  0  0  0  0  0  0  0  0  0
   11.7402  -14.7704   24.4128 C   0  0  0  0  0  0  0  0  0  0  0  0
   11.2591  -15.8744   23.4617 C   0  0  2  0  0  0  0  0  0  0  0  0
    9.8300  -15.7263   23.2722 N   0  0  0  0  0  0  0  0  0  0  0  0
   11.6342  -17.1771   24.0107 C   0  0  0  0  0  0  0  0  0  0  0  0
   10.7380  -18.0041   24.3002 O   0  0  0  0  0  0  0  0  0  0  0  0
   12.9426  -17.5617   24.2350 O   0  0  0  0  0  0  0  0  0  0  0  0
  2  1  1  1
  3  2  1  0
  4  5  2  0
  4  3  1  0
  6  5  1  0
  7  6  2  0
  8  7  1  0
  8  9  2  0
  9  4  1  0
 10  2  1  0
 10 11  2  0
 13 12  1  6
 13 14  1  0
 15 16  1  1
 15 13  1  0
 16 10  1  0
 17 15  1  0
 18 17  2  0
 20 19  1  1
 20 21  1  0
 21 17  1  0
 22 20  1  0
 22 24  1  0
 23 22  2  0
M  END
$$$$
