QYK.pdb
     RDKit          3D

 31 31  0  0  1  0  0  0  0  0999 V2000
   22.6088  -20.6060  -10.1592 N   0  0  0  0  0  0  0  0  0  0  0  0
   23.3338  -21.2025   -9.0898 C   0  0  0  0  0  0  0  0  0  0  0  0
   22.6766  -21.7172   -8.1687 O   0  0  0  0  0  0  0  0  0  0  0  0
   24.7966  -21.1683   -9.1553 C   0  0  0  0  0  0  0  0  0  0  0  0
   25.4214  -20.3936  -10.2475 C   0  0  0  0  0  0  0  0  0  0  0  0
   25.5111  -21.0177  -11.5870 C   0  0  2  0  0  0  0  0  0  0  0  0
   26.7178  -21.7834  -11.7255 N   0  0  0  0  0  0  0  0  0  0  0  0
   25.4277  -20.0364  -12.7010 C   0  0  0  0  0  0  0  0  0  0  0  0
   24.4046  -19.3176  -12.8294 O   0  0  0  0  0  0  0  0  0  0  0  0
   27.9107  -13.7020  -18.2485 O   0  0  0  0  0  0  0  0  0  0  0  0
   27.8329  -14.7450  -17.3033 C   0  0  0  0  0  0  0  0  0  0  0  0
   28.5429  -15.9114  -17.4716 C   0  0  0  0  0  0  0  0  0  0  0  0
   28.4427  -16.9091  -16.5278 C   0  0  0  0  0  0  0  0  0  0  0  0
   27.6568  -16.8080  -15.3992 C   0  0  0  0  0  0  0  0  0  0  0  0
   27.5822  -17.8959  -14.4207 C   0  0  0  0  0  0  0  0  0  0  0  0
   26.4474  -18.8708  -14.7095 C   0  0  2  0  0  0  0  0  0  0  0  0
   26.4777  -19.8737  -13.6460 N   0  0  0  0  0  0  0  0  0  0  0  0
   26.5207  -19.4580  -16.0415 C   0  0  0  0  0  0  0  0  0  0  0  0
   27.3719  -20.3890  -16.2429 O   0  0  0  0  0  0  0  0  0  0  0  0
   26.9537  -15.6346  -15.2471 C   0  0  0  0  0  0  0  0  0  0  0  0
   27.0433  -14.6287  -16.1811 C   0  0  0  0  0  0  0  0  0  0  0  0
   25.7160  -19.0701  -17.1193 N   0  0  0  0  0  0  0  0  0  0  0  0
   25.8123  -19.8098  -18.3971 C   0  0  1  0  0  0  0  0  0  0  0  0
   24.4397  -20.0589  -18.9334 C   0  0  0  0  0  0  0  0  0  0  0  0
   24.5066  -20.7972  -20.2388 C   0  0  0  0  0  0  0  0  0  0  0  0
   23.1081  -21.0527  -20.7937 C   0  0  0  0  0  0  0  0  0  0  0  0
   23.2879  -21.8563  -22.0719 C   0  0  0  0  0  0  0  0  0  0  0  0
   23.6592  -23.1980  -21.6758 N   0  0  0  0  0  0  0  0  0  0  0  0
   26.5754  -18.9639  -19.3326 C   0  0  0  0  0  0  0  0  0  0  0  0
   27.5553  -19.4838  -19.9655 O   0  0  0  0  0  0  0  0  0  0  0  0
   26.3186  -17.6249  -19.5959 O   0  0  0  0  0  0  0  0  0  0  0  0
  1  2  1  0
  2  3  2  0
  4  5  1  0
  4  2  1  0
  6  5  1  0
  6  7  1  1
  8  9  2  0
  8  6  1  0
 10 11  1  0
 11 12  2  0
 12 13  1  0
 14 13  2  0
 14 15  1  0
 16 15  1  1
 16 17  1  0
 17  8  1  0
 18 16  1  0
 19 18  2  0
 20 14  1  0
 21 11  1  0
 21 20  2  0
 22 18  1  0
 23 29  1  0
 23 22  1  0
 23 24  1  6
 25 24  1  0
 26 25  1  0
 26 27  1  0
 27 28  1  0
 29 31  1  0
 30 29  2  0
M  END
$$$$
