QYK.pdb
     RDKit          3D

 31 31  0  0  1  0  0  0  0  0999 V2000
   21.7355  -13.0109  -23.2023 N   0  0  0  0  0  0  0  0  0  0  0  0
   22.5441  -12.5968  -22.1070 C   0  0  0  0  0  0  0  0  0  0  0  0
   22.6791  -13.3923  -21.1613 O   0  0  0  0  0  0  0  0  0  0  0  0
   23.1580  -11.2688  -22.1766 C   0  0  0  0  0  0  0  0  0  0  0  0
   23.0913  -10.4129  -20.9740 C   0  0  0  0  0  0  0  0  0  0  0  0
   21.7614   -9.9527  -20.5143 C   0  0  2  0  0  0  0  0  0  0  0  0
   21.2907   -8.8487  -21.3026 N   0  0  0  0  0  0  0  0  0  0  0  0
   21.7344   -9.5703  -19.0776 C   0  0  0  0  0  0  0  0  0  0  0  0
   22.0461  -10.4122  -18.1978 O   0  0  0  0  0  0  0  0  0  0  0  0
   27.6611   -7.4245  -18.0364 O   0  0  0  0  0  0  0  0  0  0  0  0
   26.2854   -7.2175  -17.8094 C   0  0  0  0  0  0  0  0  0  0  0  0
   25.5000   -6.5759  -18.7392 C   0  0  0  0  0  0  0  0  0  0  0  0
   24.1596   -6.3912  -18.4837 C   0  0  0  0  0  0  0  0  0  0  0  0
   23.5428   -6.8196  -17.3272 C   0  0  0  0  0  0  0  0  0  0  0  0
   22.1120   -6.6018  -17.0991 C   0  0  0  0  0  0  0  0  0  0  0  0
   21.2922   -7.8783  -17.2408 C   0  0  2  0  0  0  0  0  0  0  0  0
   21.3635   -8.2663  -18.6486 N   0  0  0  0  0  0  0  0  0  0  0  0
   19.9225   -7.7364  -16.7629 C   0  0  0  0  0  0  0  0  0  0  0  0
   19.0892   -7.1101  -17.5014 O   0  0  0  0  0  0  0  0  0  0  0  0
   24.3433   -7.4592  -16.4084 C   0  0  0  0  0  0  0  0  0  0  0  0
   25.6840   -7.6514  -16.6489 C   0  0  0  0  0  0  0  0  0  0  0  0
   19.4560   -8.2443  -15.5447 N   0  0  0  0  0  0  0  0  0  0  0  0
   18.0139   -8.1520  -15.2271 C   0  0  1  0  0  0  0  0  0  0  0  0
   17.5462   -9.4496  -14.6517 C   0  0  0  0  0  0  0  0  0  0  0  0
   16.0728   -9.4033  -14.3682 C   0  0  0  0  0  0  0  0  0  0  0  0
   15.5808  -10.7388  -13.8172 C   0  0  0  0  0  0  0  0  0  0  0  0
   14.0617  -10.6956  -13.8656 C   0  0  0  0  0  0  0  0  0  0  0  0
   13.5911  -12.0025  -13.4591 N   0  0  0  0  0  0  0  0  0  0  0  0
   17.8553   -7.0723  -14.2360 C   0  0  0  0  0  0  0  0  0  0  0  0
   18.7938   -6.8750  -13.3926 O   0  0  0  0  0  0  0  0  0  0  0  0
   16.7557   -6.2303  -14.1356 O   0  0  0  0  0  0  0  0  0  0  0  0
  1  2  1  0
  2  3  2  0
  4  5  1  0
  4  2  1  0
  6  5  1  0
  6  7  1  6
  8  9  2  0
  8  6  1  0
 10 11  1  0
 11 12  2  0
 12 13  1  0
 14 13  2  0
 14 15  1  0
 16 15  1  6
 16 17  1  0
 17  8  1  0
 18 16  1  0
 19 18  2  0
 20 14  1  0
 21 11  1  0
 21 20  2  0
 22 18  1  0
 23 29  1  0
 23 22  1  0
 23 24  1  1
 25 24  1  0
 26 25  1  0
 26 27  1  0
 27 28  1  0
 29 31  1  0
 30 29  2  0
M  END
$$$$
