QYK.pdb
     RDKit          3D

 31 31  0  0  1  0  0  0  0  0999 V2000
   25.1101  -20.1602  -18.3065 N   0  0  0  0  0  0  0  0  0  0  0  0
   24.3678  -19.1123  -17.6934 C   0  0  0  0  0  0  0  0  0  0  0  0
   23.5047  -18.5421  -18.3827 O   0  0  0  0  0  0  0  0  0  0  0  0
   24.6732  -18.7865  -16.2984 C   0  0  0  0  0  0  0  0  0  0  0  0
   23.5693  -18.8434  -15.3180 C   0  0  0  0  0  0  0  0  0  0  0  0
   23.1839  -20.1645  -14.7723 C   0  0  2  0  0  0  0  0  0  0  0  0
   22.7483  -21.0517  -15.8139 N   0  0  0  0  0  0  0  0  0  0  0  0
   22.1282  -20.0857  -13.7282 C   0  0  0  0  0  0  0  0  0  0  0  0
   22.3207  -19.4022  -12.6910 O   0  0  0  0  0  0  0  0  0  0  0  0
   19.1145  -14.3846  -14.1167 O   0  0  0  0  0  0  0  0  0  0  0  0
   18.9930  -15.7834  -13.9902 C   0  0  0  0  0  0  0  0  0  0  0  0
   18.9901  -16.5998  -15.0977 C   0  0  0  0  0  0  0  0  0  0  0  0
   18.8697  -17.9620  -14.9362 C   0  0  0  0  0  0  0  0  0  0  0  0
   18.7492  -18.5712  -13.7050 C   0  0  0  0  0  0  0  0  0  0  0  0
   18.6246  -20.0258  -13.5817 C   0  0  0  0  0  0  0  0  0  0  0  0
   19.8123  -20.6600  -12.8685 C   0  0  2  0  0  0  0  0  0  0  0  0
   20.8853  -20.7645  -13.8561 N   0  0  0  0  0  0  0  0  0  0  0  0
   19.4917  -21.9384  -12.2460 C   0  0  0  0  0  0  0  0  0  0  0  0
   19.5338  -22.9888  -12.9718 O   0  0  0  0  0  0  0  0  0  0  0  0
   18.7539  -17.7394  -12.6085 C   0  0  0  0  0  0  0  0  0  0  0  0
   18.8734  -16.3767  -12.7532 C   0  0  0  0  0  0  0  0  0  0  0  0
   19.1411  -22.0936  -10.8996 N   0  0  0  0  0  0  0  0  0  0  0  0
   18.6917  -23.4181  -10.4170 C   0  0  1  0  0  0  0  0  0  0  0  0
   18.6684  -23.4224   -8.9227 C   0  0  0  0  0  0  0  0  0  0  0  0
   18.2164  -24.7565   -8.4035 C   0  0  0  0  0  0  0  0  0  0  0  0
   18.0859  -24.7348   -6.8831 C   0  0  0  0  0  0  0  0  0  0  0  0
   17.4865  -26.0726   -6.4794 C   0  0  0  0  0  0  0  0  0  0  0  0
   17.4017  -26.0759   -5.0345 N   0  0  0  0  0  0  0  0  0  0  0  0
   17.3326  -23.6349  -10.9451 C   0  0  0  0  0  0  0  0  0  0  0  0
   16.5314  -22.6416  -10.9954 O   0  0  0  0  0  0  0  0  0  0  0  0
   16.8342  -24.8466  -11.4053 O   0  0  0  0  0  0  0  0  0  0  0  0
  1  2  1  0
  2  3  2  0
  4  5  1  0
  4  2  1  0
  6  5  1  0
  6  7  1  6
  8  9  2  0
  8  6  1  0
 10 11  1  0
 11 12  2  0
 12 13  1  0
 14 13  2  0
 14 15  1  0
 16 15  1  6
 16 17  1  0
 17  8  1  0
 18 16  1  0
 19 18  2  0
 20 14  1  0
 21 11  1  0
 21 20  2  0
 22 18  1  0
 23 29  1  0
 23 22  1  0
 23 24  1  1
 25 24  1  0
 26 25  1  0
 26 27  1  0
 27 28  1  0
 29 31  1  0
 30 29  2  0
M  END
$$$$
