QYK.pdb
     RDKit          3D

 31 31  0  0  1  0  0  0  0  0999 V2000
   26.2243  -26.9688  -17.4056 N   0  0  0  0  0  0  0  0  0  0  0  0
   27.0740  -26.0653  -18.1034 C   0  0  0  0  0  0  0  0  0  0  0  0
   27.5807  -26.4608  -19.1674 O   0  0  0  0  0  0  0  0  0  0  0  0
   27.2852  -24.7389  -17.5189 C   0  0  0  0  0  0  0  0  0  0  0  0
   26.5674  -24.4122  -16.2695 C   0  0  0  0  0  0  0  0  0  0  0  0
   26.0492  -23.0360  -16.0982 C   0  0  2  0  0  0  0  0  0  0  0  0
   27.0572  -22.0584  -16.3987 N   0  0  0  0  0  0  0  0  0  0  0  0
   25.5092  -22.7746  -14.7377 C   0  0  0  0  0  0  0  0  0  0  0  0
   24.5205  -23.4279  -14.3184 O   0  0  0  0  0  0  0  0  0  0  0  0
   25.0047  -19.4624   -6.4834 O   0  0  0  0  0  0  0  0  0  0  0  0
   25.4070  -19.8048   -7.7903 C   0  0  0  0  0  0  0  0  0  0  0  0
   25.2565  -21.0864   -8.2677 C   0  0  0  0  0  0  0  0  0  0  0  0
   25.6608  -21.3849   -9.5498 C   0  0  0  0  0  0  0  0  0  0  0  0
   26.2195  -20.4570  -10.4032 C   0  0  0  0  0  0  0  0  0  0  0  0
   26.6340  -20.8203  -11.7607 C   0  0  0  0  0  0  0  0  0  0  0  0
   25.5124  -21.4642  -12.5663 C   0  0  2  0  0  0  0  0  0  0  0  0
   26.0755  -21.7974  -13.8738 N   0  0  0  0  0  0  0  0  0  0  0  0
   24.3215  -20.6290  -12.6608 C   0  0  0  0  0  0  0  0  0  0  0  0
   24.4006  -19.5409  -13.3255 O   0  0  0  0  0  0  0  0  0  0  0  0
   26.3625  -19.1804   -9.9092 C   0  0  0  0  0  0  0  0  0  0  0  0
   25.9636  -18.8665   -8.6307 C   0  0  0  0  0  0  0  0  0  0  0  0
   23.0908  -20.9414  -12.0713 N   0  0  0  0  0  0  0  0  0  0  0  0
   21.9543  -20.0077  -12.2312 C   0  0  1  0  0  0  0  0  0  0  0  0
   21.4449  -20.0783  -13.6344 C   0  0  0  0  0  0  0  0  0  0  0  0
   20.9901  -21.4706  -13.9638 C   0  0  0  0  0  0  0  0  0  0  0  0
   20.5527  -21.5711  -15.4224 C   0  0  0  0  0  0  0  0  0  0  0  0
   20.1415  -23.0165  -15.6540 C   0  0  0  0  0  0  0  0  0  0  0  0
   19.7858  -23.1332  -17.0521 N   0  0  0  0  0  0  0  0  0  0  0  0
   20.9043  -20.4358  -11.2893 C   0  0  0  0  0  0  0  0  0  0  0  0
   19.8665  -19.7032  -11.1576 O   0  0  0  0  0  0  0  0  0  0  0  0
   20.9403  -21.5896  -10.5175 O   0  0  0  0  0  0  0  0  0  0  0  0
  1  2  1  0
  2  3  2  0
  4  5  1  0
  4  2  1  0
  6  5  1  0
  6  7  1  1
  8  9  2  0
  8  6  1  0
 10 11  1  0
 11 12  2  0
 12 13  1  0
 14 13  2  0
 14 15  1  0
 16 15  1  1
 16 17  1  0
 17  8  1  0
 18 16  1  0
 19 18  2  0
 20 14  1  0
 21 11  1  0
 21 20  2  0
 22 18  1  0
 23 29  1  0
 23 22  1  0
 23 24  1  6
 25 24  1  0
 26 25  1  0
 26 27  1  0
 27 28  1  0
 29 31  1  0
 30 29  2  0
M  END
$$$$
