QYK.pdb
     RDKit          3D

 31 31  0  0  1  0  0  0  0  0999 V2000
   19.2785  -24.8674  -13.0626 N   0  0  0  0  0  0  0  0  0  0  0  0
   19.1156  -25.7004  -14.2049 C   0  0  0  0  0  0  0  0  0  0  0  0
   18.7924  -26.8846  -14.0092 O   0  0  0  0  0  0  0  0  0  0  0  0
   19.3374  -25.1010  -15.5229 C   0  0  0  0  0  0  0  0  0  0  0  0
   19.8028  -23.6996  -15.5751 C   0  0  0  0  0  0  0  0  0  0  0  0
   21.0758  -23.4094  -16.2729 C   0  0  2  0  0  0  0  0  0  0  0  0
   22.1787  -24.0827  -15.6467 N   0  0  0  0  0  0  0  0  0  0  0  0
   21.3808  -21.9569  -16.3625 C   0  0  0  0  0  0  0  0  0  0  0  0
   20.5746  -21.1801  -16.9340 O   0  0  0  0  0  0  0  0  0  0  0  0
   18.6401  -19.9507  -10.9988 O   0  0  0  0  0  0  0  0  0  0  0  0
   19.7655  -19.8578  -11.8426 C   0  0  0  0  0  0  0  0  0  0  0  0
   20.7505  -20.8182  -11.8224 C   0  0  0  0  0  0  0  0  0  0  0  0
   21.8359  -20.6949  -12.6608 C   0  0  0  0  0  0  0  0  0  0  0  0
   21.9993  -19.6442  -13.5388 C   0  0  0  0  0  0  0  0  0  0  0  0
   23.1713  -19.5554  -14.4136 C   0  0  0  0  0  0  0  0  0  0  0  0
   22.8674  -19.9674  -15.8487 C   0  0  2  0  0  0  0  0  0  0  0  0
   22.5699  -21.3985  -15.8182 N   0  0  0  0  0  0  0  0  0  0  0  0
   23.9374  -19.6330  -16.7803 C   0  0  0  0  0  0  0  0  0  0  0  0
   25.0480  -20.2544  -16.6696 O   0  0  0  0  0  0  0  0  0  0  0  0
   21.0047  -18.6930  -13.5456 C   0  0  0  0  0  0  0  0  0  0  0  0
   19.9142  -18.8020  -12.7142 C   0  0  0  0  0  0  0  0  0  0  0  0
   23.8288  -18.6737  -17.7941 N   0  0  0  0  0  0  0  0  0  0  0  0
   24.9817  -18.4340  -18.6898 C   0  0  1  0  0  0  0  0  0  0  0  0
   24.7882  -19.1898  -19.9645 C   0  0  0  0  0  0  0  0  0  0  0  0
   25.9777  -19.0236  -20.8651 C   0  0  0  0  0  0  0  0  0  0  0  0
   25.7727  -19.7661  -22.1825 C   0  0  0  0  0  0  0  0  0  0  0  0
   27.0482  -19.5801  -22.9890 C   0  0  0  0  0  0  0  0  0  0  0  0
   26.9260  -20.4129  -24.1664 N   0  0  0  0  0  0  0  0  0  0  0  0
   25.0270  -16.9859  -18.9618 C   0  0  0  0  0  0  0  0  0  0  0  0
   23.9419  -16.3165  -18.8880 O   0  0  0  0  0  0  0  0  0  0  0  0
   26.1675  -16.2673  -19.2954 O   0  0  0  0  0  0  0  0  0  0  0  0
  1  2  1  0
  2  3  2  0
  4  5  1  0
  4  2  1  0
  6  5  1  0
  6  7  1  1
  8  9  2  0
  8  6  1  0
 10 11  1  0
 11 12  2  0
 12 13  1  0
 14 13  2  0
 14 15  1  0
 16 15  1  1
 16 17  1  0
 17  8  1  0
 18 16  1  0
 19 18  2  0
 20 14  1  0
 21 11  1  0
 21 20  2  0
 22 18  1  0
 23 29  1  0
 23 22  1  0
 23 24  1  6
 25 24  1  0
 26 25  1  0
 26 27  1  0
 27 28  1  0
 29 31  1  0
 30 29  2  0
M  END
$$$$
