QYK.pdb
     RDKit          3D

 31 31  0  0  1  0  0  0  0  0999 V2000
   28.1033  -23.4391  -20.7298 N   0  0  0  0  0  0  0  0  0  0  0  0
   29.2146  -22.6075  -20.4157 C   0  0  0  0  0  0  0  0  0  0  0  0
   30.0266  -22.3681  -21.3260 O   0  0  0  0  0  0  0  0  0  0  0  0
   29.3169  -22.0943  -19.0477 C   0  0  0  0  0  0  0  0  0  0  0  0
   28.2338  -22.4311  -18.1007 C   0  0  0  0  0  0  0  0  0  0  0  0
   27.4418  -21.3237  -17.5191 C   0  0  2  0  0  0  0  0  0  0  0  0
   28.2180  -20.1191  -17.4290 N   0  0  0  0  0  0  0  0  0  0  0  0
   26.8801  -21.6412  -16.1795 C   0  0  0  0  0  0  0  0  0  0  0  0
   26.2009  -22.6860  -16.0150 O   0  0  0  0  0  0  0  0  0  0  0  0
   24.8941  -20.4032   -7.5470 O   0  0  0  0  0  0  0  0  0  0  0  0
   25.4881  -20.3955   -8.8254 C   0  0  0  0  0  0  0  0  0  0  0  0
   25.6609  -19.2217   -9.5220 C   0  0  0  0  0  0  0  0  0  0  0  0
   26.2450  -19.2521  -10.7686 C   0  0  0  0  0  0  0  0  0  0  0  0
   26.6768  -20.4130  -11.3748 C   0  0  0  0  0  0  0  0  0  0  0  0
   27.2944  -20.3967  -12.7032 C   0  0  0  0  0  0  0  0  0  0  0  0
   26.3889  -20.9802  -13.7808 C   0  0  2  0  0  0  0  0  0  0  0  0
   27.0828  -20.7957  -15.0543 N   0  0  0  0  0  0  0  0  0  0  0  0
   25.0500  -20.4038  -13.7787 C   0  0  0  0  0  0  0  0  0  0  0  0
   24.9161  -19.1912  -14.1573 O   0  0  0  0  0  0  0  0  0  0  0  0
   26.4960  -21.5775  -10.6637 C   0  0  0  0  0  0  0  0  0  0  0  0
   25.9142  -21.5636   -9.4174 C   0  0  0  0  0  0  0  0  0  0  0  0
   23.8955  -21.0936  -13.3901 N   0  0  0  0  0  0  0  0  0  0  0  0
   22.6051  -20.3719  -13.3366 C   0  0  1  0  0  0  0  0  0  0  0  0
   21.8395  -20.6259  -14.5948 C   0  0  0  0  0  0  0  0  0  0  0  0
   21.8469  -19.4094  -15.4744 C   0  0  0  0  0  0  0  0  0  0  0  0
   21.0802  -19.6671  -16.7686 C   0  0  0  0  0  0  0  0  0  0  0  0
   21.1418  -18.3788  -17.5740 C   0  0  0  0  0  0  0  0  0  0  0  0
   20.4236  -18.6196  -18.8072 N   0  0  0  0  0  0  0  0  0  0  0  0
   21.8614  -20.8964  -12.1769 C   0  0  0  0  0  0  0  0  0  0  0  0
   22.0067  -22.1260  -11.8638 O   0  0  0  0  0  0  0  0  0  0  0  0
   21.0008  -20.1586  -11.3749 O   0  0  0  0  0  0  0  0  0  0  0  0
  1  2  1  0
  2  3  2  0
  4  5  1  0
  4  2  1  0
  6  5  1  0
  6  7  1  1
  8  9  2  0
  8  6  1  0
 10 11  1  0
 11 12  2  0
 12 13  1  0
 14 13  2  0
 14 15  1  0
 16 15  1  1
 16 17  1  0
 17  8  1  0
 18 16  1  0
 19 18  2  0
 20 14  1  0
 21 11  1  0
 21 20  2  0
 22 18  1  0
 23 29  1  0
 23 22  1  0
 23 24  1  6
 25 24  1  0
 26 25  1  0
 26 27  1  0
 27 28  1  0
 29 31  1  0
 30 29  2  0
M  END
$$$$
