QYK.pdb
     RDKit          3D

 31 31  0  0  1  0  0  0  0  0999 V2000
   17.6985  -14.6725  -16.1874 N   0  0  0  0  0  0  0  0  0  0  0  0
   17.5574  -13.9009  -17.3747 C   0  0  0  0  0  0  0  0  0  0  0  0
   17.4136  -14.5169  -18.4448 O   0  0  0  0  0  0  0  0  0  0  0  0
   17.5890  -12.4421  -17.2474 C   0  0  0  0  0  0  0  0  0  0  0  0
   17.7926  -11.8704  -15.9003 C   0  0  0  0  0  0  0  0  0  0  0  0
   17.8472  -10.3971  -15.7651 C   0  0  2  0  0  0  0  0  0  0  0  0
   18.8254   -9.8285  -16.6491 N   0  0  0  0  0  0  0  0  0  0  0  0
   18.1244   -9.9426  -14.3767 C   0  0  0  0  0  0  0  0  0  0  0  0
   17.4029  -10.3438  -13.4289 O   0  0  0  0  0  0  0  0  0  0  0  0
   22.9933   -6.8849   -7.5769 O   0  0  0  0  0  0  0  0  0  0  0  0
   22.5066   -7.2453   -8.8498 C   0  0  0  0  0  0  0  0  0  0  0  0
   22.0198   -6.2968   -9.7195 C   0  0  0  0  0  0  0  0  0  0  0  0
   21.5523   -6.6854  -10.9551 C   0  0  0  0  0  0  0  0  0  0  0  0
   21.5422   -7.9961  -11.3834 C   0  0  0  0  0  0  0  0  0  0  0  0
   21.0359   -8.3626  -12.7084 C   0  0  0  0  0  0  0  0  0  0  0  0
   19.5433   -8.6690  -12.7044 C   0  0  2  0  0  0  0  0  0  0  0  0
   19.1927   -9.0557  -14.0701 N   0  0  0  0  0  0  0  0  0  0  0  0
   18.7326   -7.5656  -12.2043 C   0  0  0  0  0  0  0  0  0  0  0  0
   18.5687   -6.5486  -12.9596 O   0  0  0  0  0  0  0  0  0  0  0  0
   22.0327   -8.9313  -10.5007 C   0  0  0  0  0  0  0  0  0  0  0  0
   22.5032   -8.5590   -9.2628 C   0  0  0  0  0  0  0  0  0  0  0  0
   18.1171   -7.5464  -10.9472 N   0  0  0  0  0  0  0  0  0  0  0  0
   17.3307   -6.3596  -10.5448 C   0  0  1  0  0  0  0  0  0  0  0  0
   15.8738   -6.6912  -10.5813 C   0  0  0  0  0  0  0  0  0  0  0  0
   15.3740   -7.0356   -9.2083 C   0  0  0  0  0  0  0  0  0  0  0  0
   13.8584   -7.2140   -9.2081 C   0  0  0  0  0  0  0  0  0  0  0  0
   13.4539   -7.4918   -7.7689 C   0  0  0  0  0  0  0  0  0  0  0  0
   13.4454   -8.9298   -7.6051 N   0  0  0  0  0  0  0  0  0  0  0  0
   17.7369   -6.0145   -9.1704 C   0  0  0  0  0  0  0  0  0  0  0  0
   18.3711   -6.8852   -8.4843 O   0  0  0  0  0  0  0  0  0  0  0  0
   17.4899   -4.8015   -8.5411 O   0  0  0  0  0  0  0  0  0  0  0  0
  1  2  1  0
  2  3  2  0
  4  5  1  0
  4  2  1  0
  6  5  1  0
  6  7  1  6
  8  9  2  0
  8  6  1  0
 10 11  1  0
 11 12  2  0
 12 13  1  0
 14 13  2  0
 14 15  1  0
 16 15  1  6
 16 17  1  0
 17  8  1  0
 18 16  1  0
 19 18  2  0
 20 14  1  0
 21 11  1  0
 21 20  2  0
 22 18  1  0
 23 29  1  0
 23 22  1  0
 23 24  1  1
 25 24  1  0
 26 25  1  0
 26 27  1  0
 27 28  1  0
 29 31  1  0
 30 29  2  0
M  END
$$$$
