QYK.pdb
     RDKit          3D

 31 31  0  0  1  0  0  0  0  0999 V2000
   23.8406  -11.8524  -22.1605 N   0  0  0  0  0  0  0  0  0  0  0  0
   24.5847  -11.0629  -23.0815 C   0  0  0  0  0  0  0  0  0  0  0  0
   24.4123  -11.2808  -24.2931 O   0  0  0  0  0  0  0  0  0  0  0  0
   25.4937  -10.0529  -22.5346 C   0  0  0  0  0  0  0  0  0  0  0  0
   25.5088   -9.8575  -21.0701 C   0  0  0  0  0  0  0  0  0  0  0  0
   25.0731   -8.5485  -20.5331 C   0  0  2  0  0  0  0  0  0  0  0  0
   26.1418   -7.5901  -20.5653 N   0  0  0  0  0  0  0  0  0  0  0  0
   24.5341   -8.6290  -19.1496 C   0  0  0  0  0  0  0  0  0  0  0  0
   25.0498   -9.4199  -18.3199 O   0  0  0  0  0  0  0  0  0  0  0  0
   27.5455  -11.7420  -15.1075 O   0  0  0  0  0  0  0  0  0  0  0  0
   26.7057  -10.6624  -15.4483 C   0  0  0  0  0  0  0  0  0  0  0  0
   27.1460   -9.6512  -16.2708 C   0  0  0  0  0  0  0  0  0  0  0  0
   26.2979   -8.6121  -16.5826 C   0  0  0  0  0  0  0  0  0  0  0  0
   25.0056   -8.5212  -16.1101 C   0  0  0  0  0  0  0  0  0  0  0  0
   24.1383   -7.3965  -16.4698 C   0  0  0  0  0  0  0  0  0  0  0  0
   22.9577   -7.8170  -17.3364 C   0  0  2  0  0  0  0  0  0  0  0  0
   23.4380   -7.8330  -18.7172 N   0  0  0  0  0  0  0  0  0  0  0  0
   21.7842   -6.9713  -17.1566 C   0  0  0  0  0  0  0  0  0  0  0  0
   21.8155   -5.7883  -17.6375 O   0  0  0  0  0  0  0  0  0  0  0  0
   24.5820   -9.5411  -15.2888 C   0  0  0  0  0  0  0  0  0  0  0  0
   25.4172  -10.5860  -14.9681 C   0  0  0  0  0  0  0  0  0  0  0  0
   20.6192   -7.3708  -16.4912 N   0  0  0  0  0  0  0  0  0  0  0  0
   19.4806   -6.4306  -16.3981 C   0  0  1  0  0  0  0  0  0  0  0  0
   18.1973   -7.1931  -16.4703 C   0  0  0  0  0  0  0  0  0  0  0  0
   17.0261   -6.2825  -16.2410 C   0  0  0  0  0  0  0  0  0  0  0  0
   15.7092   -7.0406  -16.3840 C   0  0  0  0  0  0  0  0  0  0  0  0
   14.5980   -6.0274  -16.1586 C   0  0  0  0  0  0  0  0  0  0  0  0
   13.3507   -6.7613  -16.1750 N   0  0  0  0  0  0  0  0  0  0  0  0
   19.5890   -5.7439  -15.0982 C   0  0  0  0  0  0  0  0  0  0  0  0
   20.0042   -6.4082  -14.0896 O   0  0  0  0  0  0  0  0  0  0  0  0
   19.2766   -4.4110  -14.8661 O   0  0  0  0  0  0  0  0  0  0  0  0
  1  2  1  0
  2  3  2  0
  4  5  1  0
  4  2  1  0
  6  5  1  0
  6  7  1  1
  8  9  2  0
  8  6  1  0
 10 11  1  0
 11 12  2  0
 12 13  1  0
 14 13  2  0
 14 15  1  0
 16 15  1  1
 16 17  1  0
 17  8  1  0
 18 16  1  0
 19 18  2  0
 20 14  1  0
 21 11  1  0
 21 20  2  0
 22 18  1  0
 23 29  1  0
 23 22  1  0
 23 24  1  1
 25 24  1  0
 26 25  1  0
 26 27  1  0
 27 28  1  0
 29 31  1  0
 30 29  2  0
M  END
$$$$
