QYK.pdb
     RDKit          3D

 31 31  0  0  1  0  0  0  0  0999 V2000
   20.8272  -20.7191  -14.8677 N   0  0  0  0  0  0  0  0  0  0  0  0
   19.9303  -20.9786  -13.7938 C   0  0  0  0  0  0  0  0  0  0  0  0
   18.8271  -21.4770  -14.0762 O   0  0  0  0  0  0  0  0  0  0  0  0
   20.3740  -20.6429  -12.4388 C   0  0  0  0  0  0  0  0  0  0  0  0
   21.7691  -20.1902  -12.2610 C   0  0  0  0  0  0  0  0  0  0  0  0
   22.8550  -21.0331  -12.8108 C   0  0  2  0  0  0  0  0  0  0  0  0
   22.8494  -22.3415  -12.2193 N   0  0  0  0  0  0  0  0  0  0  0  0
   24.2058  -20.4329  -12.6499 C   0  0  0  0  0  0  0  0  0  0  0  0
   24.3623  -19.1931  -12.7856 O   0  0  0  0  0  0  0  0  0  0  0  0
   26.1171  -19.3565   -6.0731 O   0  0  0  0  0  0  0  0  0  0  0  0
   26.4430  -19.8642   -7.3471 C   0  0  0  0  0  0  0  0  0  0  0  0
   25.5413  -20.6154   -8.0651 C   0  0  0  0  0  0  0  0  0  0  0  0
   25.8940  -21.0951   -9.3067 C   0  0  0  0  0  0  0  0  0  0  0  0
   27.1232  -20.8632   -9.8872 C   0  0  0  0  0  0  0  0  0  0  0  0
   27.4540  -21.3932  -11.2124 C   0  0  0  0  0  0  0  0  0  0  0  0
   26.7102  -20.6796  -12.3345 C   0  0  2  0  0  0  0  0  0  0  0  0
   25.3509  -21.2181  -12.3429 N   0  0  0  0  0  0  0  0  0  0  0  0
   27.3723  -20.7980  -13.6276 C   0  0  0  0  0  0  0  0  0  0  0  0
   28.6495  -20.7948  -13.6524 O   0  0  0  0  0  0  0  0  0  0  0  0
   28.0125  -20.1101   -9.1550 C   0  0  0  0  0  0  0  0  0  0  0  0
   27.6751  -19.6238   -7.9133 C   0  0  0  0  0  0  0  0  0  0  0  0
   26.6998  -20.9176  -14.8495 N   0  0  0  0  0  0  0  0  0  0  0  0
   27.4652  -21.2726  -16.0649 C   0  0  1  0  0  0  0  0  0  0  0  0
   27.6996  -22.7483  -16.0930 C   0  0  0  0  0  0  0  0  0  0  0  0
   28.4827  -23.1375  -17.3133 C   0  0  0  0  0  0  0  0  0  0  0  0
   28.6867  -24.6488  -17.3718 C   0  0  0  0  0  0  0  0  0  0  0  0
   29.6014  -24.9181  -18.5562 C   0  0  0  0  0  0  0  0  0  0  0  0
   29.9571  -26.3200  -18.5020 N   0  0  0  0  0  0  0  0  0  0  0  0
   26.6512  -20.8671  -17.2251 C   0  0  0  0  0  0  0  0  0  0  0  0
   25.3789  -20.8915  -17.1168 O   0  0  0  0  0  0  0  0  0  0  0  0
   27.1528  -20.4494  -18.4507 O   0  0  0  0  0  0  0  0  0  0  0  0
  1  2  1  0
  2  3  2  0
  4  5  1  0
  4  2  1  0
  6  5  1  0
  6  7  1  1
  8  9  2  0
  8  6  1  0
 10 11  1  0
 11 12  2  0
 12 13  1  0
 14 13  2  0
 14 15  1  0
 16 15  1  1
 16 17  1  0
 17  8  1  0
 18 16  1  0
 19 18  2  0
 20 14  1  0
 21 11  1  0
 21 20  2  0
 22 18  1  0
 23 29  1  0
 23 22  1  0
 23 24  1  6
 25 24  1  0
 26 25  1  0
 26 27  1  0
 27 28  1  0
 29 31  1  0
 30 29  2  0
M  END
$$$$
