QYK.pdb
     RDKit          3D

 31 31  0  0  1  0  0  0  0  0999 V2000
   13.8535  -12.2319  -17.2509 N   0  0  0  0  0  0  0  0  0  0  0  0
   14.3471  -11.0657  -16.6018 C   0  0  0  0  0  0  0  0  0  0  0  0
   14.8200  -10.1673  -17.3191 O   0  0  0  0  0  0  0  0  0  0  0  0
   14.2587  -11.0096  -15.1408 C   0  0  0  0  0  0  0  0  0  0  0  0
   15.4848  -11.2846  -14.3634 C   0  0  0  0  0  0  0  0  0  0  0  0
   16.6934  -10.4802  -14.6530 C   0  0  2  0  0  0  0  0  0  0  0  0
   17.7556  -11.3008  -15.1631 N   0  0  0  0  0  0  0  0  0  0  0  0
   17.1900   -9.7183  -13.4767 C   0  0  0  0  0  0  0  0  0  0  0  0
   17.4569  -10.3200  -12.4059 O   0  0  0  0  0  0  0  0  0  0  0  0
   23.3798  -10.0719  -14.5892 O   0  0  0  0  0  0  0  0  0  0  0  0
   22.3146   -9.2469  -14.1747 C   0  0  0  0  0  0  0  0  0  0  0  0
   21.5236   -8.5930  -15.0910 C   0  0  0  0  0  0  0  0  0  0  0  0
   20.4917   -7.7951  -14.6498 C   0  0  0  0  0  0  0  0  0  0  0  0
   20.1962   -7.6074  -13.3160 C   0  0  0  0  0  0  0  0  0  0  0  0
   19.0865   -6.7493  -12.8931 C   0  0  0  0  0  0  0  0  0  0  0  0
   17.8918   -7.5426  -12.3784 C   0  0  2  0  0  0  0  0  0  0  0  0
   17.3796   -8.3095  -13.5129 N   0  0  0  0  0  0  0  0  0  0  0  0
   16.8730   -6.7063  -11.7562 C   0  0  0  0  0  0  0  0  0  0  0  0
   16.1500   -5.9745  -12.5136 O   0  0  0  0  0  0  0  0  0  0  0  0
   20.9975   -8.2690  -12.4136 C   0  0  0  0  0  0  0  0  0  0  0  0
   22.0322   -9.0696  -12.8385 C   0  0  0  0  0  0  0  0  0  0  0  0
   16.6309   -6.6524  -10.3785 N   0  0  0  0  0  0  0  0  0  0  0  0
   15.5888   -5.7377   -9.8622 C   0  0  1  0  0  0  0  0  0  0  0  0
   14.8980   -6.3744   -8.6999 C   0  0  0  0  0  0  0  0  0  0  0  0
   13.9511   -7.4420   -9.1660 C   0  0  0  0  0  0  0  0  0  0  0  0
   13.3227   -8.1695   -7.9807 C   0  0  0  0  0  0  0  0  0  0  0  0
   12.4795   -9.2949   -8.5592 C   0  0  0  0  0  0  0  0  0  0  0  0
   11.8304   -9.9496   -7.4435 N   0  0  0  0  0  0  0  0  0  0  0  0
   16.2689   -4.5025   -9.4323 C   0  0  0  0  0  0  0  0  0  0  0  0
   17.5380   -4.5219   -9.2905 O   0  0  0  0  0  0  0  0  0  0  0  0
   15.6420   -3.2928   -9.1642 O   0  0  0  0  0  0  0  0  0  0  0  0
  1  2  1  0
  2  3  2  0
  4  5  1  0
  4  2  1  0
  6  5  1  0
  6  7  1  1
  8  9  2  0
  8  6  1  0
 10 11  1  0
 11 12  2  0
 12 13  1  0
 14 13  2  0
 14 15  1  0
 16 15  1  6
 16 17  1  0
 17  8  1  0
 18 16  1  0
 19 18  2  0
 20 14  1  0
 21 11  1  0
 21 20  2  0
 22 18  1  0
 23 29  1  0
 23 22  1  0
 23 24  1  1
 25 24  1  0
 26 25  1  0
 26 27  1  0
 27 28  1  0
 29 31  1  0
 30 29  2  0
M  END
$$$$
