QYK.pdb
     RDKit          3D

 31 31  0  0  1  0  0  0  0  0999 V2000
   28.5392  -26.5798  -16.1304 N   0  0  0  0  0  0  0  0  0  0  0  0
   29.0400  -25.9704  -17.3149 C   0  0  0  0  0  0  0  0  0  0  0  0
   29.4306  -26.7219  -18.2248 O   0  0  0  0  0  0  0  0  0  0  0  0
   29.0548  -24.5070  -17.3747 C   0  0  0  0  0  0  0  0  0  0  0  0
   28.5532  -23.7624  -16.2013 C   0  0  0  0  0  0  0  0  0  0  0  0
   27.4637  -22.7814  -16.4070 C   0  0  2  0  0  0  0  0  0  0  0  0
   27.9765  -21.5221  -16.8685 N   0  0  0  0  0  0  0  0  0  0  0  0
   26.6383  -22.5538  -15.1913 C   0  0  0  0  0  0  0  0  0  0  0  0
   26.0371  -23.5166  -14.6513 O   0  0  0  0  0  0  0  0  0  0  0  0
   28.7107  -21.4074   -7.7761 O   0  0  0  0  0  0  0  0  0  0  0  0
   28.1085  -21.0196   -8.9902 C   0  0  0  0  0  0  0  0  0  0  0  0
   26.7831  -20.6542   -9.0417 C   0  0  0  0  0  0  0  0  0  0  0  0
   26.2283  -20.2810  -10.2455 C   0  0  0  0  0  0  0  0  0  0  0  0
   26.9358  -20.2503  -11.4286 C   0  0  0  0  0  0  0  0  0  0  0  0
   26.3033  -19.8448  -12.6864 C   0  0  0  0  0  0  0  0  0  0  0  0
   25.6648  -21.0128  -13.4278 C   0  0  2  0  0  0  0  0  0  0  0  0
   26.4977  -21.2673  -14.6022 N   0  0  0  0  0  0  0  0  0  0  0  0
   24.2663  -20.7813  -13.7671 C   0  0  0  0  0  0  0  0  0  0  0  0
   24.0029  -19.9499  -14.7005 O   0  0  0  0  0  0  0  0  0  0  0  0
   28.2600  -20.6188  -11.3586 C   0  0  0  0  0  0  0  0  0  0  0  0
   28.8289  -20.9942  -10.1637 C   0  0  0  0  0  0  0  0  0  0  0  0
   23.1875  -21.4132  -13.1374 N   0  0  0  0  0  0  0  0  0  0  0  0
   21.8076  -21.0526  -13.5312 C   0  0  1  0  0  0  0  0  0  0  0  0
   21.0489  -22.2920  -13.8804 C   0  0  0  0  0  0  0  0  0  0  0  0
   19.6118  -21.9695  -14.1709 C   0  0  0  0  0  0  0  0  0  0  0  0
   18.8346  -23.2289  -14.5438 C   0  0  0  0  0  0  0  0  0  0  0  0
   17.4097  -22.7882  -14.8397 C   0  0  0  0  0  0  0  0  0  0  0  0
   16.6559  -23.9843  -15.1493 N   0  0  0  0  0  0  0  0  0  0  0  0
   21.1848  -20.3874  -12.3724 C   0  0  0  0  0  0  0  0  0  0  0  0
   21.6812  -20.5890  -11.2131 O   0  0  0  0  0  0  0  0  0  0  0  0
   20.0852  -19.5411  -12.4283 O   0  0  0  0  0  0  0  0  0  0  0  0
  1  2  1  0
  2  3  2  0
  4  5  1  0
  4  2  1  0
  6  5  1  0
  6  7  1  1
  8  9  2  0
  8  6  1  0
 10 11  1  0
 11 12  2  0
 12 13  1  0
 14 13  2  0
 14 15  1  0
 16 15  1  6
 16 17  1  0
 17  8  1  0
 18 16  1  0
 19 18  2  0
 20 14  1  0
 21 11  1  0
 21 20  2  0
 22 18  1  0
 23 29  1  0
 23 22  1  0
 23 24  1  1
 25 24  1  0
 26 25  1  0
 26 27  1  0
 27 28  1  0
 29 31  1  0
 30 29  2  0
M  END
$$$$
