QYK.pdb
     RDKit          3D

 31 31  0  0  1  0  0  0  0  0999 V2000
   19.7223  -22.5880  -12.5973 N   0  0  0  0  0  0  0  0  0  0  0  0
   19.3514  -22.3032  -13.9413 C   0  0  0  0  0  0  0  0  0  0  0  0
   18.5930  -23.1079  -14.5093 O   0  0  0  0  0  0  0  0  0  0  0  0
   19.8869  -21.0846  -14.5527 C   0  0  0  0  0  0  0  0  0  0  0  0
   20.6930  -20.1827  -13.7042 C   0  0  0  0  0  0  0  0  0  0  0  0
   21.5456  -20.7844  -12.6541 C   0  0  2  0  0  0  0  0  0  0  0  0
   21.0123  -20.5367  -11.3442 N   0  0  0  0  0  0  0  0  0  0  0  0
   22.9563  -20.3167  -12.7008 C   0  0  0  0  0  0  0  0  0  0  0  0
   23.2128  -19.0878  -12.6375 O   0  0  0  0  0  0  0  0  0  0  0  0
   26.4306  -19.5726   -6.5059 O   0  0  0  0  0  0  0  0  0  0  0  0
   26.3628  -20.1050   -7.8094 C   0  0  0  0  0  0  0  0  0  0  0  0
   27.3824  -19.9078   -8.7119 C   0  0  0  0  0  0  0  0  0  0  0  0
   27.2820  -20.4427   -9.9768 C   0  0  0  0  0  0  0  0  0  0  0  0
   26.1979  -21.1804  -10.4034 C   0  0  0  0  0  0  0  0  0  0  0  0
   26.1353  -21.7316  -11.7595 C   0  0  0  0  0  0  0  0  0  0  0  0
   25.4466  -20.7951  -12.7445 C   0  0  2  0  0  0  0  0  0  0  0  0
   24.0492  -21.2191  -12.8164 N   0  0  0  0  0  0  0  0  0  0  0  0
   26.0935  -20.7594  -14.0502 C   0  0  0  0  0  0  0  0  0  0  0  0
   25.7554  -21.6379  -14.9137 O   0  0  0  0  0  0  0  0  0  0  0  0
   25.1875  -21.3677   -9.4878 C   0  0  0  0  0  0  0  0  0  0  0  0
   25.2729  -20.8397   -8.2205 C   0  0  0  0  0  0  0  0  0  0  0  0
   27.0633  -19.8216  -14.4239 N   0  0  0  0  0  0  0  0  0  0  0  0
   27.5409  -19.7934  -15.8240 C   0  0  1  0  0  0  0  0  0  0  0  0
   28.4966  -18.6582  -16.0019 C   0  0  0  0  0  0  0  0  0  0  0  0
   28.9596  -18.5736  -17.4274 C   0  0  0  0  0  0  0  0  0  0  0  0
   29.9722  -17.4460  -17.6063 C   0  0  0  0  0  0  0  0  0  0  0  0
   30.3030  -17.3903  -19.0893 C   0  0  0  0  0  0  0  0  0  0  0  0
   31.2544  -16.3142  -19.2674 N   0  0  0  0  0  0  0  0  0  0  0  0
   28.2245  -21.0749  -16.0759 C   0  0  0  0  0  0  0  0  0  0  0  0
   28.8342  -21.6424  -15.1078 O   0  0  0  0  0  0  0  0  0  0  0  0
   28.2645  -21.7369  -17.2959 O   0  0  0  0  0  0  0  0  0  0  0  0
  1  2  1  0
  2  3  2  0
  4  5  1  0
  4  2  1  0
  6  5  1  0
  6  7  1  1
  8  9  2  0
  8  6  1  0
 10 11  1  0
 11 12  2  0
 12 13  1  0
 14 13  2  0
 14 15  1  0
 16 15  1  1
 16 17  1  0
 17  8  1  0
 18 16  1  0
 19 18  2  0
 20 14  1  0
 21 11  1  0
 21 20  2  0
 22 18  1  0
 23 29  1  0
 23 22  1  0
 23 24  1  1
 25 24  1  0
 26 25  1  0
 26 27  1  0
 27 28  1  0
 29 31  1  0
 30 29  2  0
M  END
$$$$
