MHP.pdb
     RDKit          3D

 26 27  0  0  1  0  0  0  0  0999 V2000
   20.3238  -16.1559  -13.7376 C   0  0  0  0  0  0  0  0  0  0  0  0
   18.5334  -16.4543  -13.5149 S   0  0  0  0  0  0  0  0  0  0  0  0
   18.2115  -18.1162  -14.2169 C   0  0  0  0  0  0  0  0  0  0  0  0
   19.3340  -19.0067  -13.7976 C   0  0  0  0  0  0  0  0  0  0  0  0
   19.3393  -20.3180  -14.5415 C   0  0  2  0  0  0  0  0  0  0  0  0
   18.1917  -21.1296  -14.2896 N   0  0  0  0  0  0  0  0  0  0  0  0
   20.5760  -21.0904  -14.2722 C   0  0  0  0  0  0  0  0  0  0  0  0
   20.7414  -21.6839  -13.1766 O   0  0  0  0  0  0  0  0  0  0  0  0
   21.5963  -21.1680  -15.2591 N   0  0  0  0  0  0  0  0  0  0  0  0
   22.8768  -21.8368  -15.0080 C   0  0  1  0  0  0  0  0  0  0  0  0
   23.2360  -22.6659  -16.2155 C   0  0  0  0  0  0  0  0  0  0  0  0
   24.5360  -23.3160  -16.0531 C   0  0  0  0  0  0  0  0  0  0  0  0
   24.8641  -24.5366  -15.5119 C   0  0  0  0  0  0  0  0  0  0  0  0
   26.1920  -24.7125  -15.5402 N   0  0  0  0  0  0  0  0  0  0  0  0
   26.7153  -23.6123  -16.0960 C   0  0  0  0  0  0  0  0  0  0  0  0
   25.7245  -22.7617  -16.4099 N   0  0  0  0  0  0  0  0  0  0  0  0
   23.9307  -20.9036  -14.6377 C   0  0  0  0  0  0  0  0  0  0  0  0
   23.9211  -19.7844  -15.2658 O   0  0  0  0  0  0  0  0  0  0  0  0
   24.9291  -21.1185  -13.6774 N   0  0  0  0  0  0  0  0  0  0  0  0
   25.1779  -22.2511  -12.8308 C   0  0  0  0  0  0  0  0  0  0  0  0
   26.6278  -22.0225  -12.3641 C   0  0  0  0  0  0  0  0  0  0  0  0
   26.5571  -20.5211  -12.0684 C   0  0  0  0  0  0  0  0  0  0  0  0
   25.9426  -20.0716  -13.3992 C   0  0  1  0  0  0  0  0  0  0  0  0
   26.9934  -20.2029  -14.4328 C   0  0  0  0  0  0  0  0  0  0  0  0
   26.9191  -21.0758  -15.3510 O   0  0  0  0  0  0  0  0  0  0  0  0
   28.1179  -19.3827  -14.4595 O   0  0  0  0  0  0  0  0  0  0  0  0
  2  1  1  0
  3  2  1  0
  4  5  1  0
  4  3  1  0
  5  7  1  0
  5  6  1  1
  7  8  2  0
  9 10  1  0
  9  7  1  0
 11 12  1  0
 10 11  1  6
 12 16  1  0
 13 12  2  0
 13 14  1  0
 14 15  1  0
 16 15  2  0
 17 18  2  0
 17 10  1  0
 19 17  1  0
 20 19  1  0
 20 21  1  0
 22 21  1  0
 23 22  1  0
 23 19  1  0
 23 24  1  6
 25 24  2  0
 26 24  1  0
M  END
$$$$
