MHP.pdb
     RDKit          3D

 26 27  0  0  1  0  0  0  0  0999 V2000
   27.4728  -26.4851  -18.5156 C   0  0  0  0  0  0  0  0  0  0  0  0
   27.3008  -25.3185  -17.1179 S   0  0  0  0  0  0  0  0  0  0  0  0
   26.0998  -24.0492  -17.6698 C   0  0  0  0  0  0  0  0  0  0  0  0
   25.9504  -23.0595  -16.5622 C   0  0  0  0  0  0  0  0  0  0  0  0
   24.9680  -21.9652  -16.8944 C   0  0  2  0  0  0  0  0  0  0  0  0
   25.3502  -21.1663  -18.0147 N   0  0  0  0  0  0  0  0  0  0  0  0
   24.7021  -21.0990  -15.7207 C   0  0  0  0  0  0  0  0  0  0  0  0
   25.2918  -19.9974  -15.5839 O   0  0  0  0  0  0  0  0  0  0  0  0
   23.7695  -21.5095  -14.7295 N   0  0  0  0  0  0  0  0  0  0  0  0
   23.4545  -20.6800  -13.5621 C   0  0  1  0  0  0  0  0  0  0  0  0
   21.9748  -20.3882  -13.5594 C   0  0  0  0  0  0  0  0  0  0  0  0
   21.6045  -19.4808  -14.6450 C   0  0  0  0  0  0  0  0  0  0  0  0
   22.2042  -18.3260  -15.0890 C   0  0  0  0  0  0  0  0  0  0  0  0
   21.4985  -17.7976  -16.0980 N   0  0  0  0  0  0  0  0  0  0  0  0
   20.4516  -18.6070  -16.3021 C   0  0  0  0  0  0  0  0  0  0  0  0
   20.5050  -19.6273  -15.4302 N   0  0  0  0  0  0  0  0  0  0  0  0
   23.9082  -21.2768  -12.3145 C   0  0  0  0  0  0  0  0  0  0  0  0
   23.5205  -22.4828  -12.1077 O   0  0  0  0  0  0  0  0  0  0  0  0
   24.7126  -20.6616  -11.3451 N   0  0  0  0  0  0  0  0  0  0  0  0
   25.3053  -19.3542  -11.3207 C   0  0  0  0  0  0  0  0  0  0  0  0
   25.6671  -19.1660   -9.8355 C   0  0  0  0  0  0  0  0  0  0  0  0
   26.2434  -20.5553   -9.5448 C   0  0  0  0  0  0  0  0  0  0  0  0
   25.0843  -21.3872  -10.1058 C   0  0  1  0  0  0  0  0  0  0  0  0
   23.9496  -21.2460   -9.1664 C   0  0  0  0  0  0  0  0  0  0  0  0
   22.9297  -20.5479   -9.4542 O   0  0  0  0  0  0  0  0  0  0  0  0
   23.9335  -21.8661   -7.9202 O   0  0  0  0  0  0  0  0  0  0  0  0
  2  1  1  0
  3  2  1  0
  4  5  1  0
  4  3  1  0
  5  7  1  0
  5  6  1  6
  7  8  2  0
  9 10  1  0
  9  7  1  0
 11 12  1  0
 10 11  1  1
 12 16  1  0
 13 12  2  0
 13 14  1  0
 14 15  1  0
 16 15  2  0
 17 18  2  0
 17 10  1  0
 19 17  1  0
 20 19  1  0
 20 21  1  0
 22 21  1  0
 23 22  1  0
 23 19  1  0
 23 24  1  1
 25 24  2  0
 26 24  1  0
M  END
$$$$
