MHP.pdb
     RDKit          3D

 26 27  0  0  1  0  0  0  0  0999 V2000
   38.9913   -1.5862  -13.5190 C   0  0  0  0  0  0  0  0  0  0  0  0
   39.4666   -3.2237  -14.1800 S   0  0  0  0  0  0  0  0  0  0  0  0
   38.1382   -4.3763  -13.6655 C   0  0  0  0  0  0  0  0  0  0  0  0
   38.5467   -5.7495  -14.0851 C   0  0  0  0  0  0  0  0  0  0  0  0
   37.4805   -6.7789  -13.8081 C   0  0  2  0  0  0  0  0  0  0  0  0
   36.2104   -6.4631  -14.3794 N   0  0  0  0  0  0  0  0  0  0  0  0
   37.3342   -7.0319  -12.3544 C   0  0  0  0  0  0  0  0  0  0  0  0
   36.4371   -6.4590  -11.6859 O   0  0  0  0  0  0  0  0  0  0  0  0
   38.2151   -7.9329  -11.6963 N   0  0  0  0  0  0  0  0  0  0  0  0
   38.0955   -8.2384  -10.2671 C   0  0  1  0  0  0  0  0  0  0  0  0
   38.6465   -9.6202  -10.0187 C   0  0  0  0  0  0  0  0  0  0  0  0
   38.3803  -10.0667   -8.6517 C   0  0  0  0  0  0  0  0  0  0  0  0
   37.6663   -9.4704   -7.6394 C   0  0  0  0  0  0  0  0  0  0  0  0
   37.7116  -10.2270   -6.5345 N   0  0  0  0  0  0  0  0  0  0  0  0
   38.4500  -11.3032   -6.8338 C   0  0  0  0  0  0  0  0  0  0  0  0
   38.8594  -11.2173   -8.1100 N   0  0  0  0  0  0  0  0  0  0  0  0
   38.7207   -7.2283   -9.4261 C   0  0  0  0  0  0  0  0  0  0  0  0
   39.9565   -6.9897   -9.6780 O   0  0  0  0  0  0  0  0  0  0  0  0
   38.1029   -6.5123   -8.3913 N   0  0  0  0  0  0  0  0  0  0  0  0
   36.7929   -6.6470   -7.8193 C   0  0  0  0  0  0  0  0  0  0  0  0
   36.9184   -5.8885   -6.4847 C   0  0  0  0  0  0  0  0  0  0  0  0
   37.7009   -4.6643   -6.9703 C   0  0  0  0  0  0  0  0  0  0  0  0
   38.8201   -5.4074   -7.7090 C   0  0  1  0  0  0  0  0  0  0  0  0
   39.6873   -6.0256   -6.6816 C   0  0  0  0  0  0  0  0  0  0  0  0
   39.5769   -7.2497   -6.3658 O   0  0  0  0  0  0  0  0  0  0  0  0
   40.6687   -5.3064   -6.0052 O   0  0  0  0  0  0  0  0  0  0  0  0
  2  1  1  0
  3  2  1  0
  4  5  1  0
  4  3  1  0
  5  7  1  0
  5  6  1  1
  7  8  2  0
  9 10  1  0
  9  7  1  0
 11 12  1  0
 10 11  1  6
 12 16  1  0
 13 12  2  0
 13 14  1  0
 14 15  1  0
 16 15  2  0
 17 18  2  0
 17 10  1  0
 19 17  1  0
 20 19  1  0
 20 21  1  0
 22 21  1  0
 23 22  1  0
 23 19  1  0
 23 24  1  1
 25 24  2  0
 26 24  1  0
M  END
$$$$
