MHP.pdb
     RDKit          3D

 26 27  0  0  1  0  0  0  0  0999 V2000
   15.4900  -18.0517  -17.4367 C   0  0  0  0  0  0  0  0  0  0  0  0
   16.6902  -16.9657  -16.5856 S   0  0  0  0  0  0  0  0  0  0  0  0
   16.9795  -15.5545  -17.7183 C   0  0  0  0  0  0  0  0  0  0  0  0
   17.8966  -14.6021  -17.0250 C   0  0  0  0  0  0  0  0  0  0  0  0
   19.2661  -14.5582  -17.6540 C   0  0  2  0  0  0  0  0  0  0  0  0
   19.8805  -15.8401  -17.7903 N   0  0  0  0  0  0  0  0  0  0  0  0
   20.1701  -13.6374  -16.9236 C   0  0  0  0  0  0  0  0  0  0  0  0
   21.0409  -14.0795  -16.1323 O   0  0  0  0  0  0  0  0  0  0  0  0
   20.0598  -12.2327  -17.1125 N   0  0  0  0  0  0  0  0  0  0  0  0
   21.0027  -11.2867  -16.5073 C   0  0  1  0  0  0  0  0  0  0  0  0
   22.1434  -11.0578  -17.4670 C   0  0  0  0  0  0  0  0  0  0  0  0
   21.6720  -10.5200  -18.7428 C   0  0  0  0  0  0  0  0  0  0  0  0
   21.3560   -9.2328  -19.1085 C   0  0  0  0  0  0  0  0  0  0  0  0
   20.9325   -9.2046  -20.3793 N   0  0  0  0  0  0  0  0  0  0  0  0
   20.9757  -10.4652  -20.8286 C   0  0  0  0  0  0  0  0  0  0  0  0
   21.4210  -11.2687  -19.8488 N   0  0  0  0  0  0  0  0  0  0  0  0
   20.3620  -10.0465  -16.0953 C   0  0  0  0  0  0  0  0  0  0  0  0
   19.3655   -9.6759  -16.8144 O   0  0  0  0  0  0  0  0  0  0  0  0
   20.7317   -9.2435  -15.0073 N   0  0  0  0  0  0  0  0  0  0  0  0
   21.7898   -9.4028  -14.0501 C   0  0  0  0  0  0  0  0  0  0  0  0
   21.9107   -7.9978  -13.4308 C   0  0  0  0  0  0  0  0  0  0  0  0
   20.4227   -7.6732  -13.2653 C   0  0  0  0  0  0  0  0  0  0  0  0
   19.9725   -8.0087  -14.6919 C   0  0  1  0  0  0  0  0  0  0  0  0
   20.4942   -6.9437  -15.5771 C   0  0  0  0  0  0  0  0  0  0  0  0
   21.5090   -7.1295  -16.3160 O   0  0  0  0  0  0  0  0  0  0  0  0
   19.9069   -5.6837  -15.6516 O   0  0  0  0  0  0  0  0  0  0  0  0
  2  1  1  0
  3  2  1  0
  4  5  1  0
  4  3  1  0
  5  7  1  0
  5  6  1  1
  7  8  2  0
  9 10  1  0
  9  7  1  0
 11 12  1  0
 10 11  1  6
 12 16  1  0
 13 12  2  0
 13 14  1  0
 14 15  1  0
 16 15  2  0
 17 18  2  0
 17 10  1  0
 19 17  1  0
 20 19  1  0
 20 21  1  0
 22 21  1  0
 23 22  1  0
 23 19  1  0
 23 24  1  6
 25 24  2  0
 26 24  1  0
M  END
$$$$
