MHP.pdb
     RDKit          3D

 26 27  0  0  1  0  0  0  0  0999 V2000
   15.4017  -33.0679   -1.7467 C   0  0  0  0  0  0  0  0  0  0  0  0
   16.1395  -31.7964   -0.6590 S   0  0  0  0  0  0  0  0  0  0  0  0
   15.7175  -30.1824   -1.4174 C   0  0  0  0  0  0  0  0  0  0  0  0
   16.3920  -29.1188   -0.6159 C   0  0  0  0  0  0  0  0  0  0  0  0
   16.0597  -27.7311   -1.1028 C   0  0  2  0  0  0  0  0  0  0  0  0
   16.2738  -27.5432   -2.5021 N   0  0  0  0  0  0  0  0  0  0  0  0
   16.7917  -26.6958   -0.3340 C   0  0  0  0  0  0  0  0  0  0  0  0
   17.8759  -26.2220   -0.7582 O   0  0  0  0  0  0  0  0  0  0  0  0
   16.2701  -26.2248    0.9017 N   0  0  0  0  0  0  0  0  0  0  0  0
   16.9086  -25.1425    1.6574 C   0  0  1  0  0  0  0  0  0  0  0  0
   15.8416  -24.1910    2.1377 C   0  0  0  0  0  0  0  0  0  0  0  0
   15.2755  -23.4172    1.0333 C   0  0  0  0  0  0  0  0  0  0  0  0
   15.8705  -22.5358    0.1618 C   0  0  0  0  0  0  0  0  0  0  0  0
   14.9574  -22.0291   -0.6777 N   0  0  0  0  0  0  0  0  0  0  0  0
   13.7826  -22.5808   -0.3488 C   0  0  0  0  0  0  0  0  0  0  0  0
   13.9624  -23.4211    0.6834 N   0  0  0  0  0  0  0  0  0  0  0  0
   17.7452  -25.6366    2.7411 C   0  0  0  0  0  0  0  0  0  0  0  0
   17.2373  -26.5857    3.4403 O   0  0  0  0  0  0  0  0  0  0  0  0
   19.0258  -25.1756    3.0767 N   0  0  0  0  0  0  0  0  0  0  0  0
   19.8427  -24.1673    2.4624 C   0  0  0  0  0  0  0  0  0  0  0  0
   20.8887  -23.8592    3.5501 C   0  0  0  0  0  0  0  0  0  0  0  0
   21.1987  -25.2888    4.0051 C   0  0  0  0  0  0  0  0  0  0  0  0
   19.7563  -25.7574    4.2293 C   0  0  1  0  0  0  0  0  0  0  0  0
   19.2585  -25.0750    5.4444 C   0  0  0  0  0  0  0  0  0  0  0  0
   18.5232  -24.0431    5.3747 O   0  0  0  0  0  0  0  0  0  0  0  0
   19.5649  -25.5211    6.7270 O   0  0  0  0  0  0  0  0  0  0  0  0
  2  1  1  0
  3  2  1  0
  4  5  1  0
  4  3  1  0
  5  7  1  0
  5  6  1  6
  7  8  2  0
  9 10  1  0
  9  7  1  0
 11 12  1  0
 10 11  1  1
 12 16  1  0
 13 12  2  0
 13 14  1  0
 14 15  1  0
 16 15  2  0
 17 18  2  0
 17 10  1  0
 19 17  1  0
 20 19  1  0
 20 21  1  0
 22 21  1  0
 23 22  1  0
 23 19  1  0
 23 24  1  1
 25 24  2  0
 26 24  1  0
M  END
$$$$
