MHP.pdb
     RDKit          3D

 26 27  0  0  1  0  0  0  0  0999 V2000
   20.5928  -26.0255    1.5850 C   0  0  0  0  0  0  0  0  0  0  0  0
   19.6965  -24.4592    1.8813 S   0  0  0  0  0  0  0  0  0  0  0  0
   20.3169  -23.8225    3.4838 C   0  0  0  0  0  0  0  0  0  0  0  0
   19.6824  -22.4911    3.7148 C   0  0  0  0  0  0  0  0  0  0  0  0
   18.1818  -22.5791    3.8307 C   0  0  2  0  0  0  0  0  0  0  0  0
   17.4831  -22.0337    2.7110 N   0  0  0  0  0  0  0  0  0  0  0  0
   17.6962  -21.9549    5.0849 C   0  0  0  0  0  0  0  0  0  0  0  0
   17.6863  -20.7056    5.2231 O   0  0  0  0  0  0  0  0  0  0  0  0
   17.2331  -22.7704    6.1532 N   0  0  0  0  0  0  0  0  0  0  0  0
   16.7025  -22.2020    7.3965 C   0  0  1  0  0  0  0  0  0  0  0  0
   15.2243  -22.4921    7.4703 C   0  0  0  0  0  0  0  0  0  0  0  0
   14.4701  -21.6842    6.5124 C   0  0  0  0  0  0  0  0  0  0  0  0
   14.2202  -20.3325    6.4839 C   0  0  0  0  0  0  0  0  0  0  0  0
   13.4508  -20.0272    5.4303 N   0  0  0  0  0  0  0  0  0  0  0  0
   13.2071  -21.1749    4.7849 C   0  0  0  0  0  0  0  0  0  0  0  0
   13.8178  -22.1827    5.4293 N   0  0  0  0  0  0  0  0  0  0  0  0
   17.4220  -22.6655    8.5738 C   0  0  0  0  0  0  0  0  0  0  0  0
   17.7479  -23.9069    8.5669 O   0  0  0  0  0  0  0  0  0  0  0  0
   17.7800  -21.8903    9.6855 N   0  0  0  0  0  0  0  0  0  0  0  0
   17.4553  -20.5314   10.0162 C   0  0  0  0  0  0  0  0  0  0  0  0
   17.7763  -20.4552   11.5207 C   0  0  0  0  0  0  0  0  0  0  0  0
   19.1037  -21.2199   11.5279 C   0  0  0  0  0  0  0  0  0  0  0  0
   18.6391  -22.4585   10.7532 C   0  0  1  0  0  0  0  0  0  0  0  0
   17.7543  -23.2312   11.6531 C   0  0  0  0  0  0  0  0  0  0  0  0
   16.4944  -23.2409   11.5013 O   0  0  0  0  0  0  0  0  0  0  0  0
   18.2477  -23.9880   12.7123 O   0  0  0  0  0  0  0  0  0  0  0  0
  2  1  1  0
  3  2  1  0
  4  5  1  0
  4  3  1  0
  5  7  1  0
  5  6  1  6
  7  8  2  0
  9 10  1  0
  9  7  1  0
 11 12  1  0
 10 11  1  1
 12 16  1  0
 13 12  2  0
 13 14  1  0
 14 15  1  0
 16 15  2  0
 17 18  2  0
 17 10  1  0
 19 17  1  0
 20 19  1  0
 20 21  1  0
 22 21  1  0
 23 22  1  0
 23 19  1  0
 23 24  1  1
 25 24  2  0
 26 24  1  0
M  END
$$$$
