MHP.pdb
     RDKit          3D

 26 27  0  0  1  0  0  0  0  0999 V2000
   27.3713  -13.1375  -14.3465 C   0  0  0  0  0  0  0  0  0  0  0  0
   27.6147  -14.5549  -15.4760 S   0  0  0  0  0  0  0  0  0  0  0  0
   25.9470  -15.2574  -15.7647 C   0  0  0  0  0  0  0  0  0  0  0  0
   25.0274  -14.1219  -16.0704 C   0  0  0  0  0  0  0  0  0  0  0  0
   23.5918  -14.5621  -16.2064 C   0  0  2  0  0  0  0  0  0  0  0  0
   23.4077  -15.6654  -17.0942 N   0  0  0  0  0  0  0  0  0  0  0  0
   22.7140  -13.4364  -16.6073 C   0  0  0  0  0  0  0  0  0  0  0  0
   22.6040  -13.1006  -17.8135 O   0  0  0  0  0  0  0  0  0  0  0  0
   21.9815  -12.7191  -15.6224 N   0  0  0  0  0  0  0  0  0  0  0  0
   21.0434  -11.6479  -15.9727 C   0  0  1  0  0  0  0  0  0  0  0  0
   19.6661  -12.0336  -15.4944 C   0  0  0  0  0  0  0  0  0  0  0  0
   19.1406  -13.1784  -16.2375 C   0  0  0  0  0  0  0  0  0  0  0  0
   18.9761  -14.4902  -15.8602 C   0  0  0  0  0  0  0  0  0  0  0  0
   18.4854  -15.2063  -16.8809 N   0  0  0  0  0  0  0  0  0  0  0  0
   18.3349  -14.3609  -17.9083 C   0  0  0  0  0  0  0  0  0  0  0  0
   18.7275  -13.1330  -17.5314 N   0  0  0  0  0  0  0  0  0  0  0  0
   21.4660  -10.3492  -15.4695 C   0  0  0  0  0  0  0  0  0  0  0  0
   21.9194  -10.3446  -14.2687 O   0  0  0  0  0  0  0  0  0  0  0  0
   21.4212   -9.1345  -16.1678 N   0  0  0  0  0  0  0  0  0  0  0  0
   20.9164   -8.8318  -17.4773 C   0  0  0  0  0  0  0  0  0  0  0  0
   20.7696   -7.2989  -17.4459 C   0  0  0  0  0  0  0  0  0  0  0  0
   22.0862   -6.9401  -16.7496 C   0  0  0  0  0  0  0  0  0  0  0  0
   21.9627   -7.8957  -15.5572 C   0  0  1  0  0  0  0  0  0  0  0  0
   20.9082   -7.3552  -14.6707 C   0  0  0  0  0  0  0  0  0  0  0  0
   19.7325   -7.8327  -14.6663 O   0  0  0  0  0  0  0  0  0  0  0  0
   21.1416   -6.2985  -13.7950 O   0  0  0  0  0  0  0  0  0  0  0  0
  2  1  1  0
  3  2  1  0
  4  5  1  0
  4  3  1  0
  5  7  1  0
  5  6  1  6
  7  8  2  0
  9 10  1  0
  9  7  1  0
 11 12  1  0
 10 11  1  1
 12 16  1  0
 13 12  2  0
 13 14  1  0
 14 15  1  0
 16 15  2  0
 17 18  2  0
 17 10  1  0
 19 17  1  0
 20 19  1  0
 20 21  1  0
 22 21  1  0
 23 22  1  0
 23 19  1  0
 23 24  1  1
 25 24  2  0
 26 24  1  0
M  END
$$$$
