MHP.pdb
     RDKit          3D

 26 27  0  0  1  0  0  0  0  0999 V2000
   26.1947  -12.0322  -15.8407 C   0  0  0  0  0  0  0  0  0  0  0  0
   27.8962  -12.2488  -16.4748 S   0  0  0  0  0  0  0  0  0  0  0  0
   28.0898  -14.0442  -16.7862 C   0  0  0  0  0  0  0  0  0  0  0  0
   27.2158  -14.7661  -15.8148 C   0  0  0  0  0  0  0  0  0  0  0  0
   27.1034  -16.2378  -16.1223 C   0  0  2  0  0  0  0  0  0  0  0  0
   26.6336  -16.5179  -17.4414 N   0  0  0  0  0  0  0  0  0  0  0  0
   26.2604  -16.9386  -15.1240 C   0  0  0  0  0  0  0  0  0  0  0  0
   26.1808  -16.5236  -13.9402 O   0  0  0  0  0  0  0  0  0  0  0  0
   25.5272  -18.0973  -15.4990 N   0  0  0  0  0  0  0  0  0  0  0  0
   24.6591  -18.8112  -14.5572 C   0  0  1  0  0  0  0  0  0  0  0  0
   23.2639  -18.8635  -15.1275 C   0  0  0  0  0  0  0  0  0  0  0  0
   22.3556  -19.6092  -14.2570 C   0  0  0  0  0  0  0  0  0  0  0  0
   21.9049  -20.9057  -14.3356 C   0  0  0  0  0  0  0  0  0  0  0  0
   21.0525  -21.1599  -13.3335 N   0  0  0  0  0  0  0  0  0  0  0  0
   20.9554  -20.0344  -12.6147 C   0  0  0  0  0  0  0  0  0  0  0  0
   21.7381  -19.0907  -13.1630 N   0  0  0  0  0  0  0  0  0  0  0  0
   25.1722  -20.1295  -14.2145 C   0  0  0  0  0  0  0  0  0  0  0  0
   25.4547  -20.8869  -15.2115 O   0  0  0  0  0  0  0  0  0  0  0  0
   25.3788  -20.6286  -12.9210 N   0  0  0  0  0  0  0  0  0  0  0  0
   25.1469  -20.0212  -11.6409 C   0  0  0  0  0  0  0  0  0  0  0  0
   25.1589  -21.2245  -10.6795 C   0  0  0  0  0  0  0  0  0  0  0  0
   26.3628  -21.9818  -11.2486 C   0  0  0  0  0  0  0  0  0  0  0  0
   25.9318  -21.9904  -12.7198 C   0  0  1  0  0  0  0  0  0  0  0  0
   24.8007  -22.9371  -12.8389 C   0  0  0  0  0  0  0  0  0  0  0  0
   24.9795  -24.1934  -12.8264 O   0  0  0  0  0  0  0  0  0  0  0  0
   23.4826  -22.5090  -12.9707 O   0  0  0  0  0  0  0  0  0  0  0  0
  2  1  1  0
  3  2  1  0
  4  5  1  0
  4  3  1  0
  5  7  1  0
  5  6  1  6
  7  8  2  0
  9 10  1  0
  9  7  1  0
 11 12  1  0
 10 11  1  6
 12 16  1  0
 13 12  2  0
 13 14  1  0
 14 15  1  0
 16 15  2  0
 17 18  2  0
 17 10  1  0
 19 17  1  0
 20 19  1  0
 20 21  1  0
 22 21  1  0
 23 22  1  0
 23 19  1  0
 23 24  1  1
 25 24  2  0
 26 24  1  0
M  END
$$$$
