MHP.pdb
     RDKit          3D

 26 27  0  0  1  0  0  0  0  0999 V2000
   20.7591  -11.3754  -19.6240 C   0  0  0  0  0  0  0  0  0  0  0  0
   19.0450  -11.6785  -19.0634 S   0  0  0  0  0  0  0  0  0  0  0  0
   19.1329  -11.8223  -17.2387 C   0  0  0  0  0  0  0  0  0  0  0  0
   18.9534  -10.4535  -16.6705 C   0  0  0  0  0  0  0  0  0  0  0  0
   19.2817  -10.3912  -15.2003 C   0  0  2  0  0  0  0  0  0  0  0  0
   18.4445  -11.2132  -14.3862 N   0  0  0  0  0  0  0  0  0  0  0  0
   19.2650   -8.9960  -14.6986 C   0  0  0  0  0  0  0  0  0  0  0  0
   18.1839   -8.4315  -14.3945 O   0  0  0  0  0  0  0  0  0  0  0  0
   20.4825   -8.2762  -14.5556 N   0  0  0  0  0  0  0  0  0  0  0  0
   20.5299   -6.9274  -13.9821 C   0  0  1  0  0  0  0  0  0  0  0  0
   21.5487   -6.9085  -12.8703 C   0  0  0  0  0  0  0  0  0  0  0  0
   20.9273   -6.6241  -11.5773 C   0  0  0  0  0  0  0  0  0  0  0  0
   19.6374   -6.2651  -11.2648 C   0  0  0  0  0  0  0  0  0  0  0  0
   19.5188   -6.0716   -9.9443 N   0  0  0  0  0  0  0  0  0  0  0  0
   20.7245   -6.3047   -9.4104 C   0  0  0  0  0  0  0  0  0  0  0  0
   21.5833   -6.6392  -10.3872 N   0  0  0  0  0  0  0  0  0  0  0  0
   20.7790   -5.9028  -14.9855 C   0  0  0  0  0  0  0  0  0  0  0  0
   21.7880   -6.1143  -15.7501 O   0  0  0  0  0  0  0  0  0  0  0  0
   20.0291   -4.7349  -15.1822 N   0  0  0  0  0  0  0  0  0  0  0  0
   18.8111   -4.2954  -14.5621 C   0  0  0  0  0  0  0  0  0  0  0  0
   18.7776   -2.7914  -14.8925 C   0  0  0  0  0  0  0  0  0  0  0  0
   19.2136   -2.8523  -16.3599 C   0  0  0  0  0  0  0  0  0  0  0  0
   20.4633   -3.7206  -16.1738 C   0  0  1  0  0  0  0  0  0  0  0  0
   21.4855   -2.8801  -15.5117 C   0  0  0  0  0  0  0  0  0  0  0  0
   22.1410   -2.0012  -16.1508 O   0  0  0  0  0  0  0  0  0  0  0  0
   21.7868   -3.0025  -14.1581 O   0  0  0  0  0  0  0  0  0  0  0  0
  2  1  1  0
  3  2  1  0
  4  5  1  0
  4  3  1  0
  5  7  1  0
  5  6  1  1
  7  8  2  0
  9 10  1  0
  9  7  1  0
 11 12  1  0
 10 11  1  1
 12 16  1  0
 13 12  2  0
 13 14  1  0
 14 15  1  0
 16 15  2  0
 17 18  2  0
 17 10  1  0
 19 17  1  0
 20 19  1  0
 20 21  1  0
 22 21  1  0
 23 22  1  0
 23 19  1  0
 23 24  1  1
 25 24  2  0
 26 24  1  0
M  END
$$$$
