MHP.pdb
     RDKit          3D

 26 27  0  0  1  0  0  0  0  0999 V2000
   27.2767  -30.8259  -17.1108 C   0  0  0  0  0  0  0  0  0  0  0  0
   27.0416  -29.2477  -16.2174 S   0  0  0  0  0  0  0  0  0  0  0  0
   25.9047  -28.2507  -17.2526 C   0  0  0  0  0  0  0  0  0  0  0  0
   25.5696  -27.0127  -16.4886 C   0  0  0  0  0  0  0  0  0  0  0  0
   26.4200  -25.8359  -16.8947 C   0  0  2  0  0  0  0  0  0  0  0  0
   27.8002  -25.9763  -16.5558 N   0  0  0  0  0  0  0  0  0  0  0  0
   25.8890  -24.5659  -16.3435 C   0  0  0  0  0  0  0  0  0  0  0  0
   26.2482  -24.1523  -15.2122 O   0  0  0  0  0  0  0  0  0  0  0  0
   24.9596  -23.7968  -17.0955 N   0  0  0  0  0  0  0  0  0  0  0  0
   24.4370  -22.5140  -16.6144 C   0  0  1  0  0  0  0  0  0  0  0  0
   24.2559  -21.5911  -17.7934 C   0  0  0  0  0  0  0  0  0  0  0  0
   23.6759  -20.3108  -17.3891 C   0  0  0  0  0  0  0  0  0  0  0  0
   22.3740  -19.8697  -17.4188 C   0  0  0  0  0  0  0  0  0  0  0  0
   22.3043  -18.6062  -16.9785 N   0  0  0  0  0  0  0  0  0  0  0  0
   23.5531  -18.2365  -16.6674 C   0  0  0  0  0  0  0  0  0  0  0  0
   24.3902  -19.2581  -16.9112 N   0  0  0  0  0  0  0  0  0  0  0  0
   23.2193  -22.6656  -15.8316 C   0  0  0  0  0  0  0  0  0  0  0  0
   22.3828  -23.5315  -16.2764 O   0  0  0  0  0  0  0  0  0  0  0  0
   22.8918  -21.9641  -14.6630 N   0  0  0  0  0  0  0  0  0  0  0  0
   23.5930  -20.9132  -13.9808 C   0  0  0  0  0  0  0  0  0  0  0  0
   22.5104  -20.3127  -13.0645 C   0  0  0  0  0  0  0  0  0  0  0  0
   21.8689  -21.6091  -12.5597 C   0  0  0  0  0  0  0  0  0  0  0  0
   21.6470  -22.2797  -13.9204 C   0  0  1  0  0  0  0  0  0  0  0  0
   20.5475  -21.5522  -14.5927 C   0  0  0  0  0  0  0  0  0  0  0  0
   20.7656  -20.7660  -15.5646 O   0  0  0  0  0  0  0  0  0  0  0  0
   19.2181  -21.6861  -14.2018 O   0  0  0  0  0  0  0  0  0  0  0  0
  2  1  1  0
  3  2  1  0
  4  5  1  0
  4  3  1  0
  5  7  1  0
  5  6  1  1
  7  8  2  0
  9 10  1  0
  9  7  1  0
 11 12  1  0
 10 11  1  6
 12 16  1  0
 13 12  2  0
 13 14  1  0
 14 15  1  0
 16 15  2  0
 17 18  2  0
 17 10  1  0
 19 17  1  0
 20 19  1  0
 20 21  1  0
 22 21  1  0
 23 22  1  0
 23 19  1  0
 23 24  1  6
 25 24  2  0
 26 24  1  0
M  END
$$$$
