MHP.pdb
     RDKit          3D

 26 27  0  0  1  0  0  0  0  0999 V2000
   18.7087  -29.7187   -9.1408 C   0  0  0  0  0  0  0  0  0  0  0  0
   19.8808  -28.3162   -9.0824 S   0  0  0  0  0  0  0  0  0  0  0  0
   21.2545  -28.7644  -10.2095 C   0  0  0  0  0  0  0  0  0  0  0  0
   21.7736  -30.0961   -9.7786 C   0  0  0  0  0  0  0  0  0  0  0  0
   22.8881  -30.5950  -10.6630 C   0  0  2  0  0  0  0  0  0  0  0  0
   22.4782  -30.8868  -11.9995 N   0  0  0  0  0  0  0  0  0  0  0  0
   23.5651  -31.7738  -10.0711 C   0  0  0  0  0  0  0  0  0  0  0  0
   23.1029  -32.9318  -10.2300 O   0  0  0  0  0  0  0  0  0  0  0  0
   24.7544  -31.6046   -9.3108 N   0  0  0  0  0  0  0  0  0  0  0  0
   25.4475  -32.7341   -8.6831 C   0  0  1  0  0  0  0  0  0  0  0  0
   26.8367  -32.8330   -9.2618 C   0  0  0  0  0  0  0  0  0  0  0  0
   26.8247  -33.4618  -10.5822 C   0  0  0  0  0  0  0  0  0  0  0  0
   25.7971  -34.0439  -11.2862 C   0  0  0  0  0  0  0  0  0  0  0  0
   26.2501  -34.5246  -12.4519 N   0  0  0  0  0  0  0  0  0  0  0  0
   27.5606  -34.2536  -12.4980 C   0  0  0  0  0  0  0  0  0  0  0  0
   27.9190  -33.6118  -11.3740 N   0  0  0  0  0  0  0  0  0  0  0  0
   25.4527  -32.6480   -7.2301 C   0  0  0  0  0  0  0  0  0  0  0  0
   25.8604  -31.5314   -6.7459 O   0  0  0  0  0  0  0  0  0  0  0  0
   25.0597  -33.6554   -6.3381 N   0  0  0  0  0  0  0  0  0  0  0  0
   24.6829  -35.0192   -6.5818 C   0  0  0  0  0  0  0  0  0  0  0  0
   24.8024  -35.6655   -5.1888 C   0  0  0  0  0  0  0  0  0  0  0  0
   24.1545  -34.5604   -4.3487 C   0  0  0  0  0  0  0  0  0  0  0  0
   24.9739  -33.3799   -4.8830 C   0  0  1  0  0  0  0  0  0  0  0  0
   26.3427  -33.5147   -4.3371 C   0  0  0  0  0  0  0  0  0  0  0  0
   27.2728  -34.0677   -5.0001 O   0  0  0  0  0  0  0  0  0  0  0  0
   26.6893  -33.0462   -3.0728 O   0  0  0  0  0  0  0  0  0  0  0  0
  2  1  1  0
  3  2  1  0
  4  5  1  0
  4  3  1  0
  5  7  1  0
  5  6  1  6
  7  8  2  0
  9 10  1  0
  9  7  1  0
 11 12  1  0
 10 11  1  6
 12 16  1  0
 13 12  2  0
 13 14  1  0
 14 15  1  0
 16 15  2  0
 17 18  2  0
 17 10  1  0
 19 17  1  0
 20 19  1  0
 20 21  1  0
 22 21  1  0
 23 22  1  0
 23 19  1  0
 23 24  1  1
 25 24  2  0
 26 24  1  0
M  END
$$$$
