MHP.pdb
     RDKit          3D

 26 27  0  0  1  0  0  0  0  0999 V2000
   23.8539  -20.2782  -22.8363 C   0  0  0  0  0  0  0  0  0  0  0  0
   22.5656  -21.1216  -21.8498 S   0  0  0  0  0  0  0  0  0  0  0  0
   22.5834  -20.3121  -20.2059 C   0  0  0  0  0  0  0  0  0  0  0  0
   23.7287  -20.8819  -19.4363 C   0  0  0  0  0  0  0  0  0  0  0  0
   24.7843  -19.8517  -19.1245 C   0  0  2  0  0  0  0  0  0  0  0  0
   25.8031  -19.7491  -20.1199 N   0  0  0  0  0  0  0  0  0  0  0  0
   25.3964  -20.0862  -17.7945 C   0  0  0  0  0  0  0  0  0  0  0  0
   26.3098  -20.9365  -17.6444 O   0  0  0  0  0  0  0  0  0  0  0  0
   24.9520  -19.3453  -16.6656 N   0  0  0  0  0  0  0  0  0  0  0  0
   25.6145  -19.4375  -15.3606 C   0  0  1  0  0  0  0  0  0  0  0  0
   26.1121  -18.0680  -14.9714 C   0  0  0  0  0  0  0  0  0  0  0  0
   27.1940  -17.6206  -15.8480 C   0  0  0  0  0  0  0  0  0  0  0  0
   28.5038  -18.0302  -15.9323 C   0  0  0  0  0  0  0  0  0  0  0  0
   29.1513  -17.3179  -16.8643 N   0  0  0  0  0  0  0  0  0  0  0  0
   28.2641  -16.4556  -17.3765 C   0  0  0  0  0  0  0  0  0  0  0  0
   27.0783  -16.6292  -16.7702 N   0  0  0  0  0  0  0  0  0  0  0  0
   24.7612  -20.0319  -14.3422 C   0  0  0  0  0  0  0  0  0  0  0  0
   23.4991  -19.9194  -14.5467 O   0  0  0  0  0  0  0  0  0  0  0  0
   25.1906  -20.7000  -13.1871 N   0  0  0  0  0  0  0  0  0  0  0  0
   26.5085  -20.8617  -12.6409 C   0  0  0  0  0  0  0  0  0  0  0  0
   26.2308  -21.2931  -11.1887 C   0  0  0  0  0  0  0  0  0  0  0  0
   25.0992  -22.2942  -11.4417 C   0  0  0  0  0  0  0  0  0  0  0  0
   24.2140  -21.3974  -12.3149 C   0  0  1  0  0  0  0  0  0  0  0  0
   23.6193  -20.3729  -11.4280 C   0  0  0  0  0  0  0  0  0  0  0  0
   24.1105  -19.2065  -11.3347 O   0  0  0  0  0  0  0  0  0  0  0  0
   22.4936  -20.6257  -10.6489 O   0  0  0  0  0  0  0  0  0  0  0  0
  2  1  1  0
  3  2  1  0
  4  5  1  0
  4  3  1  0
  5  7  1  0
  5  6  1  6
  7  8  2  0
  9 10  1  0
  9  7  1  0
 11 12  1  0
 10 11  1  1
 12 16  1  0
 13 12  2  0
 13 14  1  0
 14 15  1  0
 16 15  2  0
 17 18  2  0
 17 10  1  0
 19 17  1  0
 20 19  1  0
 20 21  1  0
 22 21  1  0
 23 22  1  0
 23 19  1  0
 23 24  1  1
 25 24  2  0
 26 24  1  0
M  END
$$$$
