MHP.pdb
     RDKit          3D

 26 27  0  0  1  0  0  0  0  0999 V2000
   28.2542  -20.2435   -6.6899 C   0  0  0  0  0  0  0  0  0  0  0  0
   26.4599  -20.5944   -6.6495 S   0  0  0  0  0  0  0  0  0  0  0  0
   26.1897  -21.9595   -7.8418 C   0  0  0  0  0  0  0  0  0  0  0  0
   25.6227  -21.3631   -9.0874 C   0  0  0  0  0  0  0  0  0  0  0  0
   26.2154  -20.0132   -9.4027 C   0  0  2  0  0  0  0  0  0  0  0  0
   25.8464  -18.9900   -8.4773 N   0  0  0  0  0  0  0  0  0  0  0  0
   25.8918  -19.5873  -10.7855 C   0  0  0  0  0  0  0  0  0  0  0  0
   24.7602  -19.1195  -11.0695 O   0  0  0  0  0  0  0  0  0  0  0  0
   26.8667  -19.7049  -11.8134 N   0  0  0  0  0  0  0  0  0  0  0  0
   26.6249  -19.2257  -13.1780 C   0  0  1  0  0  0  0  0  0  0  0  0
   27.9436  -18.8308  -13.7943 C   0  0  0  0  0  0  0  0  0  0  0  0
   27.7620  -18.2466  -15.1226 C   0  0  0  0  0  0  0  0  0  0  0  0
   27.3942  -16.9761  -15.4981 C   0  0  0  0  0  0  0  0  0  0  0  0
   27.3212  -16.8920  -16.8333 N   0  0  0  0  0  0  0  0  0  0  0  0
   27.6400  -18.1004  -17.3141 C   0  0  0  0  0  0  0  0  0  0  0  0
   27.9082  -18.9269  -16.2900 N   0  0  0  0  0  0  0  0  0  0  0  0
   25.8969  -20.1915  -13.9879 C   0  0  0  0  0  0  0  0  0  0  0  0
   26.3638  -21.3870  -13.9719 O   0  0  0  0  0  0  0  0  0  0  0  0
   24.7582  -19.9328  -14.7634 N   0  0  0  0  0  0  0  0  0  0  0  0
   24.0244  -18.7148  -14.9620 C   0  0  0  0  0  0  0  0  0  0  0  0
   23.1962  -19.0120  -16.2261 C   0  0  0  0  0  0  0  0  0  0  0  0
   22.7418  -20.4366  -15.8931 C   0  0  0  0  0  0  0  0  0  0  0  0
   24.1149  -21.0202  -15.5408 C   0  0  1  0  0  0  0  0  0  0  0  0
   24.8719  -21.1522  -16.8055 C   0  0  0  0  0  0  0  0  0  0  0  0
   25.8622  -20.4041  -17.0702 O   0  0  0  0  0  0  0  0  0  0  0  0
   24.5450  -22.0980  -17.7733 O   0  0  0  0  0  0  0  0  0  0  0  0
  2  1  1  0
  3  2  1  0
  4  5  1  0
  4  3  1  0
  5  7  1  0
  5  6  1  1
  7  8  2  0
  9 10  1  0
  9  7  1  0
 11 12  1  0
 10 11  1  6
 12 16  1  0
 13 12  2  0
 13 14  1  0
 14 15  1  0
 16 15  2  0
 17 18  2  0
 17 10  1  0
 19 17  1  0
 20 19  1  0
 20 21  1  0
 22 21  1  0
 23 22  1  0
 23 19  1  0
 23 24  1  6
 25 24  2  0
 26 24  1  0
M  END
$$$$
