MHP.pdb
     RDKit          3D

 26 27  0  0  1  0  0  0  0  0999 V2000
   25.1202  -12.6601  -15.8103 C   0  0  0  0  0  0  0  0  0  0  0  0
   25.9893  -13.5848  -17.1271 S   0  0  0  0  0  0  0  0  0  0  0  0
   26.8278  -14.9817  -16.2882 C   0  0  0  0  0  0  0  0  0  0  0  0
   25.8203  -15.6512  -15.4133 C   0  0  0  0  0  0  0  0  0  0  0  0
   24.9880  -16.6621  -16.1605 C   0  0  2  0  0  0  0  0  0  0  0  0
   23.9636  -16.0825  -16.9691 N   0  0  0  0  0  0  0  0  0  0  0  0
   24.4014  -17.6679  -15.2424 C   0  0  0  0  0  0  0  0  0  0  0  0
   23.4390  -17.3724  -14.4900 O   0  0  0  0  0  0  0  0  0  0  0  0
   24.9265  -18.9884  -15.2036 N   0  0  0  0  0  0  0  0  0  0  0  0
   24.4057  -20.0096  -14.2893 C   0  0  1  0  0  0  0  0  0  0  0  0
   23.9168  -21.1833  -15.1007 C   0  0  0  0  0  0  0  0  0  0  0  0
   22.6016  -20.9219  -15.6844 C   0  0  0  0  0  0  0  0  0  0  0  0
   21.3422  -21.0683  -15.1527 C   0  0  0  0  0  0  0  0  0  0  0  0
   20.4155  -20.7381  -16.0624 N   0  0  0  0  0  0  0  0  0  0  0  0
   21.0742  -20.3814  -17.1723 C   0  0  0  0  0  0  0  0  0  0  0  0
   22.3954  -20.4884  -16.9558 N   0  0  0  0  0  0  0  0  0  0  0  0
   25.3748  -20.3970  -13.2747 C   0  0  0  0  0  0  0  0  0  0  0  0
   26.5610  -20.6294  -13.7063 O   0  0  0  0  0  0  0  0  0  0  0  0
   25.1283  -20.5337  -11.9016 N   0  0  0  0  0  0  0  0  0  0  0  0
   23.9085  -20.3970  -11.1568 C   0  0  0  0  0  0  0  0  0  0  0  0
   24.2385  -21.0908   -9.8218 C   0  0  0  0  0  0  0  0  0  0  0  0
   25.6446  -20.5276   -9.5930 C   0  0  0  0  0  0  0  0  0  0  0  0
   26.2335  -20.8625  -10.9683 C   0  0  1  0  0  0  0  0  0  0  0  0
   26.4191  -22.3297  -11.0193 C   0  0  0  0  0  0  0  0  0  0  0  0
   25.5827  -23.0871  -11.6000 O   0  0  0  0  0  0  0  0  0  0  0  0
   27.5145  -22.9621  -10.4376 O   0  0  0  0  0  0  0  0  0  0  0  0
  2  1  1  0
  3  2  1  0
  4  5  1  0
  4  3  1  0
  5  7  1  0
  5  6  1  1
  7  8  2  0
  9 10  1  0
  9  7  1  0
 11 12  1  0
 10 11  1  6
 12 16  1  0
 13 12  2  0
 13 14  1  0
 14 15  1  0
 16 15  2  0
 17 18  2  0
 17 10  1  0
 19 17  1  0
 20 19  1  0
 20 21  1  0
 22 21  1  0
 23 22  1  0
 23 19  1  0
 23 24  1  1
 25 24  2  0
 26 24  1  0
M  END
$$$$
