GKP.pdb
     RDKit          3D

 21 21  0  0  1  0  0  0  0  0999 V2000
   19.1005  -23.8395   -7.9070 N   0  0  0  0  0  0  0  0  0  0  0  0
   18.6045  -25.1022   -7.4583 C   0  0  0  0  0  0  0  0  0  0  0  0
   17.7393  -25.0080   -6.2569 C   0  0  0  0  0  0  0  0  0  0  0  0
   18.0795  -24.1713   -5.3803 O   0  0  0  0  0  0  0  0  0  0  0  0
   16.5651  -25.8278   -6.0895 N   0  0  0  0  0  0  0  0  0  0  0  0
   15.7727  -25.6335   -4.9408 C   0  0  1  0  0  0  0  0  0  0  0  0
   14.3068  -25.5618   -5.3913 C   0  0  0  0  0  0  0  0  0  0  0  0
   13.4183  -25.0517   -4.3043 C   0  0  0  0  0  0  0  0  0  0  0  0
   12.0063  -24.9899   -4.8427 C   0  0  0  0  0  0  0  0  0  0  0  0
   11.0251  -24.4183   -3.8692 C   0  0  0  0  0  0  0  0  0  0  0  0
    9.7064  -24.4841   -4.5196 N   0  0  0  0  0  0  0  0  0  0  0  0
   15.9474  -26.5287   -3.8030 C   0  0  0  0  0  0  0  0  0  0  0  0
   16.0048  -27.7730   -4.1407 O   0  0  0  0  0  0  0  0  0  0  0  0
   16.0565  -26.2448   -2.4367 N   0  0  0  0  0  0  0  0  0  0  0  0
   16.1663  -24.9309   -1.8522 C   0  0  0  0  0  0  0  0  0  0  0  0
   16.5442  -25.1361   -0.3903 C   0  0  0  0  0  0  0  0  0  0  0  0
   15.8722  -26.4402   -0.0706 C   0  0  0  0  0  0  0  0  0  0  0  0
   16.0983  -27.2182   -1.3778 C   0  0  1  0  0  0  0  0  0  0  0  0
   15.0769  -28.2878   -1.4962 C   0  0  0  0  0  0  0  0  0  0  0  0
   14.0997  -28.3141   -2.2425 O   0  0  0  0  0  0  0  0  0  0  0  0
   15.2636  -29.3892   -0.6513 O   0  0  0  0  0  0  0  0  0  0  0  0
  2  1  1  0
  3  2  1  0
  4  3  2  0
  5  3  1  0
  6 12  1  0
  6  5  1  0
  6  7  1  6
  8  7  1  0
  9  8  1  0
 10  9  1  0
 11 10  1  0
 12 14  1  0
 13 12  2  0
 14 18  1  0
 14 15  1  0
 15 16  1  0
 17 16  1  0
 18 17  1  0
 19 21  1  0
 18 19  1  6
 20 19  2  0
M  END
$$$$
