GKP.pdb
     RDKit          3D

 21 21  0  0  1  0  0  0  0  0999 V2000
   26.1963  -26.0375  -16.0332 N   0  0  0  0  0  0  0  0  0  0  0  0
   25.3540  -24.9495  -16.4187 C   0  0  0  0  0  0  0  0  0  0  0  0
   25.6079  -23.7022  -15.6565 C   0  0  0  0  0  0  0  0  0  0  0  0
   26.3850  -23.7916  -14.6703 O   0  0  0  0  0  0  0  0  0  0  0  0
   25.0015  -22.4447  -16.0166 N   0  0  0  0  0  0  0  0  0  0  0  0
   25.1973  -21.3401  -15.1644 C   0  0  1  0  0  0  0  0  0  0  0  0
   24.8717  -20.0702  -15.9633 C   0  0  0  0  0  0  0  0  0  0  0  0
   25.2338  -18.8334  -15.2081 C   0  0  0  0  0  0  0  0  0  0  0  0
   26.3944  -18.1729  -15.9183 C   0  0  0  0  0  0  0  0  0  0  0  0
   26.8480  -16.9074  -15.2627 C   0  0  0  0  0  0  0  0  0  0  0  0
   27.9248  -16.3640  -16.1063 N   0  0  0  0  0  0  0  0  0  0  0  0
   24.5561  -21.3365  -13.8547 C   0  0  0  0  0  0  0  0  0  0  0  0
   23.2852  -21.5537  -13.9117 O   0  0  0  0  0  0  0  0  0  0  0  0
   25.1007  -21.1353  -12.5810 N   0  0  0  0  0  0  0  0  0  0  0  0
   26.5048  -21.0304  -12.2687 C   0  0  0  0  0  0  0  0  0  0  0  0
   26.6188  -21.1042  -10.7509 C   0  0  0  0  0  0  0  0  0  0  0  0
   25.3328  -20.4693  -10.3065 C   0  0  0  0  0  0  0  0  0  0  0  0
   24.3530  -21.0181  -11.3572 C   0  0  1  0  0  0  0  0  0  0  0  0
   23.1762  -20.1193  -11.4490 C   0  0  0  0  0  0  0  0  0  0  0  0
   22.9571  -19.2520  -12.2931 O   0  0  0  0  0  0  0  0  0  0  0  0
   22.2115  -20.2929  -10.4484 O   0  0  0  0  0  0  0  0  0  0  0  0
  2  1  1  0
  3  2  1  0
  4  3  2  0
  5  3  1  0
  6 12  1  0
  6  5  1  0
  6  7  1  6
  8  7  1  0
  9  8  1  0
 10  9  1  0
 11 10  1  0
 12 14  1  0
 13 12  2  0
 14 18  1  0
 14 15  1  0
 15 16  1  0
 17 16  1  0
 18 17  1  0
 19 21  1  0
 18 19  1  6
 20 19  2  0
M  END
$$$$
