GKP.pdb
     RDKit          3D

 21 21  0  0  1  0  0  0  0  0999 V2000
   25.1058  -12.1472  -20.4373 N   0  0  0  0  0  0  0  0  0  0  0  0
   25.2076  -10.8952  -19.7562 C   0  0  0  0  0  0  0  0  0  0  0  0
   23.9303  -10.4407  -19.1537 C   0  0  0  0  0  0  0  0  0  0  0  0
   23.1904   -9.7216  -19.8746 O   0  0  0  0  0  0  0  0  0  0  0  0
   23.5440  -10.7977  -17.8113 N   0  0  0  0  0  0  0  0  0  0  0  0
   22.2702  -10.4045  -17.3555 C   0  0  1  0  0  0  0  0  0  0  0  0
   21.7428  -11.5110  -16.4311 C   0  0  0  0  0  0  0  0  0  0  0  0
   20.3591  -11.9315  -16.8051 C   0  0  0  0  0  0  0  0  0  0  0  0
   20.3523  -13.4357  -16.9628 C   0  0  0  0  0  0  0  0  0  0  0  0
   19.0627  -13.9696  -17.5004 C   0  0  0  0  0  0  0  0  0  0  0  0
   19.2276  -15.4284  -17.6060 N   0  0  0  0  0  0  0  0  0  0  0  0
   22.1093   -9.0812  -16.7644 C   0  0  0  0  0  0  0  0  0  0  0  0
   22.9651   -8.8357  -15.8300 O   0  0  0  0  0  0  0  0  0  0  0  0
   21.1877   -8.0677  -17.0517 N   0  0  0  0  0  0  0  0  0  0  0  0
   20.2938   -8.0335  -18.1831 C   0  0  0  0  0  0  0  0  0  0  0  0
   19.7025   -6.6298  -18.2271 C   0  0  0  0  0  0  0  0  0  0  0  0
   19.6669   -6.2565  -16.7732 C   0  0  0  0  0  0  0  0  0  0  0  0
   20.9861   -6.8720  -16.2770 C   0  0  1  0  0  0  0  0  0  0  0  0
   20.9007   -7.1042  -14.8141 C   0  0  0  0  0  0  0  0  0  0  0  0
   20.7524   -8.1768  -14.2310 O   0  0  0  0  0  0  0  0  0  0  0  0
   21.0030   -5.9554  -14.0193 O   0  0  0  0  0  0  0  0  0  0  0  0
  2  1  1  0
  3  2  1  0
  4  3  2  0
  5  3  1  0
  6 12  1  0
  6  5  1  0
  6  7  1  1
  8  7  1  0
  9  8  1  0
 10  9  1  0
 11 10  1  0
 12 14  1  0
 13 12  2  0
 14 18  1  0
 14 15  1  0
 15 16  1  0
 17 16  1  0
 18 17  1  0
 19 21  1  0
 18 19  1  1
 20 19  2  0
M  END
$$$$
