GKP.pdb
     RDKit          3D

 21 21  0  0  1  0  0  0  0  0999 V2000
   20.6302  -17.4778  -15.0257 N   0  0  0  0  0  0  0  0  0  0  0  0
   19.6508  -16.5593  -14.5370 C   0  0  0  0  0  0  0  0  0  0  0  0
   19.3699  -15.4388  -15.4680 C   0  0  0  0  0  0  0  0  0  0  0  0
   20.1789  -15.2787  -16.4189 O   0  0  0  0  0  0  0  0  0  0  0  0
   18.2314  -14.5698  -15.3031 N   0  0  0  0  0  0  0  0  0  0  0  0
   18.0096  -13.5683  -16.2690 C   0  0  1  0  0  0  0  0  0  0  0  0
   16.4973  -13.4887  -16.5205 C   0  0  0  0  0  0  0  0  0  0  0  0
   16.0201  -14.6109  -17.3833 C   0  0  0  0  0  0  0  0  0  0  0  0
   15.3715  -15.6457  -16.4910 C   0  0  0  0  0  0  0  0  0  0  0  0
   14.7729  -16.7890  -17.2471 C   0  0  0  0  0  0  0  0  0  0  0  0
   14.2533  -17.7280  -16.2398 N   0  0  0  0  0  0  0  0  0  0  0  0
   18.5960  -12.2488  -16.0652 C   0  0  0  0  0  0  0  0  0  0  0  0
   18.4697  -11.8191  -14.8548 O   0  0  0  0  0  0  0  0  0  0  0  0
   19.2548  -11.4026  -16.9647 N   0  0  0  0  0  0  0  0  0  0  0  0
   19.5808  -11.7140  -18.3347 C   0  0  0  0  0  0  0  0  0  0  0  0
   20.5294  -10.6222  -18.8144 C   0  0  0  0  0  0  0  0  0  0  0  0
   20.0634   -9.4312  -18.0278 C   0  0  0  0  0  0  0  0  0  0  0  0
   19.7399  -10.0801  -16.6715 C   0  0  1  0  0  0  0  0  0  0  0  0
   18.7726   -9.2280  -15.9372 C   0  0  0  0  0  0  0  0  0  0  0  0
   17.5590   -9.3934  -15.8259 O   0  0  0  0  0  0  0  0  0  0  0  0
   19.3240   -8.1080  -15.3020 O   0  0  0  0  0  0  0  0  0  0  0  0
  2  1  1  0
  3  2  1  0
  4  3  2  0
  5  3  1  0
  6 12  1  0
  6  5  1  0
  6  7  1  1
  8  7  1  0
  9  8  1  0
 10  9  1  0
 11 10  1  0
 12 14  1  0
 13 12  2  0
 14 18  1  0
 14 15  1  0
 15 16  1  0
 17 16  1  0
 18 17  1  0
 19 21  1  0
 18 19  1  6
 20 19  2  0
M  END
$$$$
