GKP.pdb
     RDKit          3D

 21 21  0  0  1  0  0  0  0  0999 V2000
   23.9156  -18.9302  -15.2806 N   0  0  0  0  0  0  0  0  0  0  0  0
   22.7494  -18.6564  -14.5017 C   0  0  0  0  0  0  0  0  0  0  0  0
   21.6897  -17.9373  -15.2507 C   0  0  0  0  0  0  0  0  0  0  0  0
   21.9310  -17.6741  -16.4577 O   0  0  0  0  0  0  0  0  0  0  0  0
   20.4418  -17.5536  -14.6388 N   0  0  0  0  0  0  0  0  0  0  0  0
   19.4644  -16.9368  -15.4445 C   0  0  1  0  0  0  0  0  0  0  0  0
   18.0927  -17.4649  -15.0013 C   0  0  0  0  0  0  0  0  0  0  0  0
   17.0054  -17.0254  -15.9265 C   0  0  0  0  0  0  0  0  0  0  0  0
   16.5603  -18.2261  -16.7314 C   0  0  0  0  0  0  0  0  0  0  0  0
   15.5007  -17.9058  -17.7372 C   0  0  0  0  0  0  0  0  0  0  0  0
   15.2238  -19.1560  -18.4630 N   0  0  0  0  0  0  0  0  0  0  0  0
   19.4704  -15.4844  -15.5744 C   0  0  0  0  0  0  0  0  0  0  0  0
   19.3399  -14.8736  -14.4449 O   0  0  0  0  0  0  0  0  0  0  0  0
   19.5912  -14.6781  -16.7121 N   0  0  0  0  0  0  0  0  0  0  0  0
   19.8612  -15.1404  -18.0514 C   0  0  0  0  0  0  0  0  0  0  0  0
   20.1828  -13.9035  -18.8812 C   0  0  0  0  0  0  0  0  0  0  0  0
   19.3405  -12.8515  -18.2192 C   0  0  0  0  0  0  0  0  0  0  0  0
   19.4865  -13.2432  -16.7392 C   0  0  1  0  0  0  0  0  0  0  0  0
   18.3364  -12.7043  -15.9723 C   0  0  0  0  0  0  0  0  0  0  0  0
   17.2589  -13.2535  -15.7485 O   0  0  0  0  0  0  0  0  0  0  0  0
   18.5168  -11.4177  -15.4489 O   0  0  0  0  0  0  0  0  0  0  0  0
  2  1  1  0
  3  2  1  0
  4  3  2  0
  5  3  1  0
  6 12  1  0
  6  5  1  0
  6  7  1  1
  8  7  1  0
  9  8  1  0
 10  9  1  0
 11 10  1  0
 12 14  1  0
 13 12  2  0
 14 18  1  0
 14 15  1  0
 15 16  1  0
 17 16  1  0
 18 17  1  0
 19 21  1  0
 18 19  1  1
 20 19  2  0
M  END
$$$$
