GKP.pdb
     RDKit          3D

 21 21  0  0  1  0  0  0  0  0999 V2000
   21.0070  -17.8011  -19.9786 N   0  0  0  0  0  0  0  0  0  0  0  0
   21.5100  -16.4709  -19.8401 C   0  0  0  0  0  0  0  0  0  0  0  0
   20.6910  -15.6158  -18.9461 C   0  0  0  0  0  0  0  0  0  0  0  0
   19.4692  -15.5103  -19.2295 O   0  0  0  0  0  0  0  0  0  0  0  0
   21.2540  -14.9346  -17.8069 N   0  0  0  0  0  0  0  0  0  0  0  0
   20.3968  -14.1588  -17.0015 C   0  0  1  0  0  0  0  0  0  0  0  0
   20.7085  -14.4888  -15.5350 C   0  0  0  0  0  0  0  0  0  0  0  0
   19.7027  -15.4274  -14.9532 C   0  0  0  0  0  0  0  0  0  0  0  0
   20.2317  -16.8360  -15.1066 C   0  0  0  0  0  0  0  0  0  0  0  0
   19.2961  -17.8806  -14.5863 C   0  0  0  0  0  0  0  0  0  0  0  0
   19.9034  -19.1818  -14.9092 N   0  0  0  0  0  0  0  0  0  0  0  0
   20.3232  -12.7205  -17.2303 C   0  0  0  0  0  0  0  0  0  0  0  0
   21.4779  -12.1442  -17.2112 O   0  0  0  0  0  0  0  0  0  0  0  0
   19.2154  -11.8961  -17.4587 N   0  0  0  0  0  0  0  0  0  0  0  0
   17.8609  -12.3410  -17.6767 C   0  0  0  0  0  0  0  0  0  0  0  0
   17.0765  -11.1259  -18.1566 C   0  0  0  0  0  0  0  0  0  0  0  0
   17.7745  -10.0002  -17.4494 C   0  0  0  0  0  0  0  0  0  0  0  0
   19.2397  -10.4594  -17.5356 C   0  0  1  0  0  0  0  0  0  0  0  0
   20.0235   -9.8074  -16.4578 C   0  0  0  0  0  0  0  0  0  0  0  0
   20.3613  -10.2891  -15.3778 O   0  0  0  0  0  0  0  0  0  0  0  0
   20.4164   -8.4884  -16.7182 O   0  0  0  0  0  0  0  0  0  0  0  0
  2  1  1  0
  3  2  1  0
  4  3  2  0
  5  3  1  0
  6 12  1  0
  6  5  1  0
  6  7  1  1
  8  7  1  0
  9  8  1  0
 10  9  1  0
 11 10  1  0
 12 14  1  0
 13 12  2  0
 14 18  1  0
 14 15  1  0
 15 16  1  0
 17 16  1  0
 18 17  1  0
 19 21  1  0
 18 19  1  1
 20 19  2  0
M  END
$$$$
