GKP.pdb
     RDKit          3D

 21 21  0  0  1  0  0  0  0  0999 V2000
   15.6444  -21.1727    1.5240 N   0  0  0  0  0  0  0  0  0  0  0  0
   15.2023  -20.1419    2.4092 C   0  0  0  0  0  0  0  0  0  0  0  0
   16.3084  -19.4519    3.1175 C   0  0  0  0  0  0  0  0  0  0  0  0
   17.4683  -19.9023    2.9275 O   0  0  0  0  0  0  0  0  0  0  0  0
   16.0798  -18.3213    3.9826 N   0  0  0  0  0  0  0  0  0  0  0  0
   17.1971  -17.6775    4.5501 C   0  0  1  0  0  0  0  0  0  0  0  0
   16.8559  -16.1874    4.6909 C   0  0  0  0  0  0  0  0  0  0  0  0
   18.0587  -15.3754    5.0447 C   0  0  0  0  0  0  0  0  0  0  0  0
   17.6529  -13.9185    5.0621 C   0  0  0  0  0  0  0  0  0  0  0  0
   18.7950  -12.9880    5.3205 C   0  0  0  0  0  0  0  0  0  0  0  0
   18.2411  -11.6252    5.2718 N   0  0  0  0  0  0  0  0  0  0  0  0
   17.7781  -18.2190    5.7731 C   0  0  0  0  0  0  0  0  0  0  0  0
   16.9068  -18.4155    6.7047 O   0  0  0  0  0  0  0  0  0  0  0  0
   19.1048  -18.5454    6.0773 N   0  0  0  0  0  0  0  0  0  0  0  0
   20.2333  -18.4126    5.1891 C   0  0  0  0  0  0  0  0  0  0  0  0
   21.3939  -19.1474    5.8486 C   0  0  0  0  0  0  0  0  0  0  0  0
   21.1020  -18.9527    7.3085 C   0  0  0  0  0  0  0  0  0  0  0  0
   19.5704  -19.0901    7.3252 C   0  0  1  0  0  0  0  0  0  0  0  0
   19.0285  -18.4065    8.5253 C   0  0  0  0  0  0  0  0  0  0  0  0
   18.4276  -17.3344    8.5722 O   0  0  0  0  0  0  0  0  0  0  0  0
   19.2346  -19.0752    9.7386 O   0  0  0  0  0  0  0  0  0  0  0  0
  2  1  1  0
  3  2  1  0
  4  3  2  0
  5  3  1  0
  6 12  1  0
  6  5  1  0
  6  7  1  1
  8  7  1  0
  9  8  1  0
 10  9  1  0
 11 10  1  0
 12 14  1  0
 13 12  2  0
 14 18  1  0
 14 15  1  0
 15 16  1  0
 17 16  1  0
 18 17  1  0
 19 21  1  0
 18 19  1  1
 20 19  2  0
M  END
$$$$
