GKP.pdb
     RDKit          3D

 21 21  0  0  1  0  0  0  0  0999 V2000
   25.7604  -23.4366  -13.2676 N   0  0  0  0  0  0  0  0  0  0  0  0
   25.0267  -22.3711  -12.6607 C   0  0  0  0  0  0  0  0  0  0  0  0
   24.0159  -21.7591  -13.5577 C   0  0  0  0  0  0  0  0  0  0  0  0
   24.2819  -21.7545  -14.7880 O   0  0  0  0  0  0  0  0  0  0  0  0
   22.7868  -21.1945  -13.0583 N   0  0  0  0  0  0  0  0  0  0  0  0
   21.8085  -20.7940  -13.9896 C   0  0  1  0  0  0  0  0  0  0  0  0
   20.4483  -21.2932  -13.4821 C   0  0  0  0  0  0  0  0  0  0  0  0
   19.9371  -22.4335  -14.3004 C   0  0  0  0  0  0  0  0  0  0  0  0
   20.5397  -23.7093  -13.7555 C   0  0  0  0  0  0  0  0  0  0  0  0
   20.1028  -24.9341  -14.4944 C   0  0  0  0  0  0  0  0  0  0  0  0
   20.8676  -26.0571  -13.9284 N   0  0  0  0  0  0  0  0  0  0  0  0
   21.7547  -19.3956  -14.3996 C   0  0  0  0  0  0  0  0  0  0  0  0
   21.6248  -18.5808  -13.4072 O   0  0  0  0  0  0  0  0  0  0  0  0
   21.8189  -18.8235  -15.6754 N   0  0  0  0  0  0  0  0  0  0  0  0
   22.1190  -19.5218  -16.9012 C   0  0  0  0  0  0  0  0  0  0  0  0
   22.3542  -18.4543  -17.9628 C   0  0  0  0  0  0  0  0  0  0  0  0
   21.4422  -17.3513  -17.5089 C   0  0  0  0  0  0  0  0  0  0  0  0
   21.6158  -17.4325  -15.9830 C   0  0  1  0  0  0  0  0  0  0  0  0
   20.4321  -16.8313  -15.3208 C   0  0  0  0  0  0  0  0  0  0  0  0
   19.5139  -17.4158  -14.7481 O   0  0  0  0  0  0  0  0  0  0  0  0
   20.3694  -15.4327  -15.3626 O   0  0  0  0  0  0  0  0  0  0  0  0
  2  1  1  0
  3  2  1  0
  4  3  2  0
  5  3  1  0
  6 12  1  0
  6  5  1  0
  6  7  1  1
  8  7  1  0
  9  8  1  0
 10  9  1  0
 11 10  1  0
 12 14  1  0
 13 12  2  0
 14 18  1  0
 14 15  1  0
 15 16  1  0
 17 16  1  0
 18 17  1  0
 19 21  1  0
 18 19  1  1
 20 19  2  0
M  END
$$$$
