GKP.pdb
     RDKit          3D

 21 21  0  0  1  0  0  0  0  0999 V2000
   29.0670  -21.5219  -17.4675 N   0  0  0  0  0  0  0  0  0  0  0  0
   28.1862  -22.2492  -16.6090 C   0  0  0  0  0  0  0  0  0  0  0  0
   27.6495  -21.4417  -15.4861 C   0  0  0  0  0  0  0  0  0  0  0  0
   28.3517  -21.3886  -14.4428 O   0  0  0  0  0  0  0  0  0  0  0  0
   26.3886  -20.7479  -15.5726 N   0  0  0  0  0  0  0  0  0  0  0  0
   25.9639  -19.9926  -14.4617 C   0  0  1  0  0  0  0  0  0  0  0  0
   25.2651  -18.7331  -14.9928 C   0  0  0  0  0  0  0  0  0  0  0  0
   26.1755  -17.5490  -14.9816 C   0  0  0  0  0  0  0  0  0  0  0  0
   26.8802  -17.4862  -16.3184 C   0  0  0  0  0  0  0  0  0  0  0  0
   27.8716  -16.3705  -16.4142 C   0  0  0  0  0  0  0  0  0  0  0  0
   28.5805  -16.5517  -17.6914 N   0  0  0  0  0  0  0  0  0  0  0  0
   25.1824  -20.6481  -13.4195 C   0  0  0  0  0  0  0  0  0  0  0  0
   24.1662  -21.2970  -13.8800 O   0  0  0  0  0  0  0  0  0  0  0  0
   25.3657  -20.6741  -12.0321 N   0  0  0  0  0  0  0  0  0  0  0  0
   26.5022  -20.1444  -11.3193 C   0  0  0  0  0  0  0  0  0  0  0  0
   26.3916  -20.6522   -9.8868 C   0  0  0  0  0  0  0  0  0  0  0  0
   24.9047  -20.7394   -9.6967 C   0  0  0  0  0  0  0  0  0  0  0  0
   24.4594  -21.2531  -11.0762 C   0  0  1  0  0  0  0  0  0  0  0  0
   23.0360  -20.8976  -11.2972 C   0  0  0  0  0  0  0  0  0  0  0  0
   22.0421  -21.4500  -10.8286 O   0  0  0  0  0  0  0  0  0  0  0  0
   22.8175  -19.8015  -12.1415 O   0  0  0  0  0  0  0  0  0  0  0  0
  2  1  1  0
  3  2  1  0
  4  3  2  0
  5  3  1  0
  6 12  1  0
  6  5  1  0
  6  7  1  6
  8  7  1  0
  9  8  1  0
 10  9  1  0
 11 10  1  0
 12 14  1  0
 13 12  2  0
 14 18  1  0
 14 15  1  0
 15 16  1  0
 17 16  1  0
 18 17  1  0
 19 21  1  0
 18 19  1  6
 20 19  2  0
M  END
$$$$
