GKP.pdb
     RDKit          3D

 21 21  0  0  1  0  0  0  0  0999 V2000
   28.7887  -23.4051  -16.6459 N   0  0  0  0  0  0  0  0  0  0  0  0
   27.4805  -23.6781  -16.1401 C   0  0  0  0  0  0  0  0  0  0  0  0
   26.8825  -22.5432  -15.3949 C   0  0  0  0  0  0  0  0  0  0  0  0
   27.5992  -22.0098  -14.5082 O   0  0  0  0  0  0  0  0  0  0  0  0
   25.5488  -22.0655  -15.6629 N   0  0  0  0  0  0  0  0  0  0  0  0
   25.0489  -21.0056  -14.8808 C   0  0  1  0  0  0  0  0  0  0  0  0
   24.1834  -20.1219  -15.7902 C   0  0  0  0  0  0  0  0  0  0  0  0
   24.0239  -18.7448  -15.2342 C   0  0  0  0  0  0  0  0  0  0  0  0
   23.2114  -17.9327  -16.2180 C   0  0  0  0  0  0  0  0  0  0  0  0
   23.3168  -16.4570  -15.9983 C   0  0  0  0  0  0  0  0  0  0  0  0
   22.3613  -15.8286  -16.9249 N   0  0  0  0  0  0  0  0  0  0  0  0
   24.3772  -21.3119  -13.6232 C   0  0  0  0  0  0  0  0  0  0  0  0
   23.2962  -21.9993  -13.7800 O   0  0  0  0  0  0  0  0  0  0  0  0
   24.7216  -20.9773  -12.3085 N   0  0  0  0  0  0  0  0  0  0  0  0
   25.9671  -20.3860  -11.8850 C   0  0  0  0  0  0  0  0  0  0  0  0
   25.9936  -20.4721  -10.3638 C   0  0  0  0  0  0  0  0  0  0  0  0
   24.5373  -20.3603  -10.0159 C   0  0  0  0  0  0  0  0  0  0  0  0
   23.8986  -21.1843  -11.1465 C   0  0  1  0  0  0  0  0  0  0  0  0
   22.4857  -20.7665  -11.3215 C   0  0  0  0  0  0  0  0  0  0  0  0
   22.0169  -20.0553  -12.2086 O   0  0  0  0  0  0  0  0  0  0  0  0
   21.5954  -21.2481  -10.3534 O   0  0  0  0  0  0  0  0  0  0  0  0
  2  1  1  0
  3  2  1  0
  4  3  2  0
  5  3  1  0
  6 12  1  0
  6  5  1  0
  6  7  1  6
  8  7  1  0
  9  8  1  0
 10  9  1  0
 11 10  1  0
 12 14  1  0
 13 12  2  0
 14 18  1  0
 14 15  1  0
 15 16  1  0
 17 16  1  0
 18 17  1  0
 19 21  1  0
 18 19  1  6
 20 19  2  0
M  END
$$$$
