GKP.pdb
     RDKit          3D

 21 21  0  0  1  0  0  0  0  0999 V2000
   27.8648  -19.4128  -18.2896 N   0  0  0  0  0  0  0  0  0  0  0  0
   28.3952  -19.6374  -16.9820 C   0  0  0  0  0  0  0  0  0  0  0  0
   27.4119  -19.4098  -15.8946 C   0  0  0  0  0  0  0  0  0  0  0  0
   27.5021  -18.3202  -15.2709 O   0  0  0  0  0  0  0  0  0  0  0  0
   26.3993  -20.3797  -15.5589 N   0  0  0  0  0  0  0  0  0  0  0  0
   25.4634  -20.0497  -14.5587 C   0  0  1  0  0  0  0  0  0  0  0  0
   24.0674  -20.0805  -15.1968 C   0  0  0  0  0  0  0  0  0  0  0  0
   23.0156  -19.6032  -14.2497 C   0  0  0  0  0  0  0  0  0  0  0  0
   21.6702  -19.7678  -14.9208 C   0  0  0  0  0  0  0  0  0  0  0  0
   20.5363  -19.2101  -14.1206 C   0  0  0  0  0  0  0  0  0  0  0  0
   19.3192  -19.4184  -14.9216 N   0  0  0  0  0  0  0  0  0  0  0  0
   25.4977  -20.7738  -13.2934 C   0  0  0  0  0  0  0  0  0  0  0  0
   25.2401  -22.0319  -13.4219 O   0  0  0  0  0  0  0  0  0  0  0  0
   25.7591  -20.3173  -11.9963 N   0  0  0  0  0  0  0  0  0  0  0  0
   26.3185  -19.0343  -11.6481 C   0  0  0  0  0  0  0  0  0  0  0  0
   26.6792  -19.1046  -10.1693 C   0  0  0  0  0  0  0  0  0  0  0  0
   25.6358  -20.0423   -9.6341 C   0  0  0  0  0  0  0  0  0  0  0  0
   25.5330  -21.0585  -10.7839 C   0  0  1  0  0  0  0  0  0  0  0  0
   24.2148  -21.7367  -10.7243 C   0  0  0  0  0  0  0  0  0  0  0  0
   23.2348  -21.5386  -11.4406 O   0  0  0  0  0  0  0  0  0  0  0  0
   24.0898  -22.7146   -9.7293 O   0  0  0  0  0  0  0  0  0  0  0  0
  2  1  1  0
  3  2  1  0
  4  3  2  0
  5  3  1  0
  6 12  1  0
  6  5  1  0
  6  7  1  6
  8  7  1  0
  9  8  1  0
 10  9  1  0
 11 10  1  0
 12 14  1  0
 13 12  2  0
 14 18  1  0
 14 15  1  0
 15 16  1  0
 17 16  1  0
 18 17  1  0
 19 21  1  0
 18 19  1  6
 20 19  2  0
M  END
$$$$
