GKP.pdb
     RDKit          3D

 21 21  0  0  1  0  0  0  0  0999 V2000
   27.0091  -21.3079  -13.6061 N   0  0  0  0  0  0  0  0  0  0  0  0
   27.8950  -21.4071  -12.4894 C   0  0  0  0  0  0  0  0  0  0  0  0
   27.3752  -20.7616  -11.2590 C   0  0  0  0  0  0  0  0  0  0  0  0
   27.2483  -19.5096  -11.2888 O   0  0  0  0  0  0  0  0  0  0  0  0
   27.0290  -21.5184  -10.0816 N   0  0  0  0  0  0  0  0  0  0  0  0
   26.5191  -20.8240   -8.9668 C   0  0  1  0  0  0  0  0  0  0  0  0
   25.0496  -21.2332   -8.7938 C   0  0  0  0  0  0  0  0  0  0  0  0
   24.1191  -20.1312   -9.1820 C   0  0  0  0  0  0  0  0  0  0  0  0
   22.7717  -20.7431   -9.4948 C   0  0  0  0  0  0  0  0  0  0  0  0
   21.7796  -19.7551  -10.0207 C   0  0  0  0  0  0  0  0  0  0  0  0
   20.5352  -20.5030  -10.2627 N   0  0  0  0  0  0  0  0  0  0  0  0
   27.2498  -20.8792   -7.7061 C   0  0  0  0  0  0  0  0  0  0  0  0
   27.3201  -22.0696   -7.2123 O   0  0  0  0  0  0  0  0  0  0  0  0
   27.8666  -19.8593   -6.9722 N   0  0  0  0  0  0  0  0  0  0  0  0
   27.9550  -18.4730   -7.3603 C   0  0  0  0  0  0  0  0  0  0  0  0
   28.9451  -17.8170   -6.4057 C   0  0  0  0  0  0  0  0  0  0  0  0
   28.7373  -18.6052   -5.1447 C   0  0  0  0  0  0  0  0  0  0  0  0
   28.5383  -20.0215   -5.7101 C   0  0  1  0  0  0  0  0  0  0  0  0
   27.7910  -20.8431   -4.7263 C   0  0  0  0  0  0  0  0  0  0  0  0
   26.6380  -21.2610   -4.8181 O   0  0  0  0  0  0  0  0  0  0  0  0
   28.4974  -21.1718   -3.5623 O   0  0  0  0  0  0  0  0  0  0  0  0
  2  1  1  0
  3  2  1  0
  4  3  2  0
  5  3  1  0
  6 12  1  0
  6  5  1  0
  6  7  1  1
  8  7  1  0
  9  8  1  0
 10  9  1  0
 11 10  1  0
 12 14  1  0
 13 12  2  0
 14 18  1  0
 14 15  1  0
 15 16  1  0
 17 16  1  0
 18 17  1  0
 19 21  1  0
 18 19  1  1
 20 19  2  0
M  END
$$$$
