SKK.pdb
     RDKit          3D

 25 24  0  0  1  0  0  0  0  0999 V2000
   26.4159  -18.0856  -16.0340 O   0  0  0  0  0  0  0  0  0  0  0  0
   27.7693  -17.7600  -16.0996 C   0  0  0  0  0  0  0  0  0  0  0  0
   28.5896  -19.0273  -16.1738 C   0  0  2  0  0  0  0  0  0  0  0  0
   28.4175  -19.6367  -17.4751 N   0  0  0  0  0  0  0  0  0  0  0  0
   28.2493  -19.9691  -15.0750 C   0  0  0  0  0  0  0  0  0  0  0  0
   27.5001  -20.9695  -15.2619 O   0  0  0  0  0  0  0  0  0  0  0  0
   28.7390  -19.8103  -13.7503 N   0  0  0  0  0  0  0  0  0  0  0  0
   28.3801  -20.6883  -12.6601 C   0  0  1  0  0  0  0  0  0  0  0  0
   29.3665  -20.6321  -11.5170 C   0  0  0  0  0  0  0  0  0  0  0  0
   30.4898  -21.5713  -11.8200 C   0  0  0  0  0  0  0  0  0  0  0  0
   31.5316  -21.6390  -10.7557 C   0  0  0  0  0  0  0  0  0  0  0  0
   32.5851  -22.6499  -11.2105 C   0  0  0  0  0  0  0  0  0  0  0  0
   33.6477  -22.7707  -10.2556 N   0  0  0  0  0  0  0  0  0  0  0  0
   27.0224  -20.2354  -12.1818 C   0  0  0  0  0  0  0  0  0  0  0  0
   26.7377  -19.0003  -12.1208 O   0  0  0  0  0  0  0  0  0  0  0  0
   26.0426  -21.1776  -11.7930 N   0  0  0  0  0  0  0  0  0  0  0  0
   24.7389  -20.6593  -11.3391 C   0  0  1  0  0  0  0  0  0  0  0  0
   23.6598  -21.2241  -12.2177 C   0  0  0  0  0  0  0  0  0  0  0  0
   22.3114  -20.7988  -11.7226 C   0  0  0  0  0  0  0  0  0  0  0  0
   21.2004  -21.3238  -12.5944 C   0  0  0  0  0  0  0  0  0  0  0  0
   19.8502  -20.8491  -12.1751 C   0  0  0  0  0  0  0  0  0  0  0  0
   18.7962  -21.2954  -13.0491 N   0  0  0  0  0  0  0  0  0  0  0  0
   24.6184  -21.0331   -9.9229 C   0  0  0  0  0  0  0  0  0  0  0  0
   23.7091  -20.4612   -9.0281 O   0  0  0  0  0  0  0  0  0  0  0  0
   25.3751  -21.9389   -9.4180 O   0  0  0  0  0  0  0  0  0  0  0  0
  2  1  1  0
  3  2  1  0
  3  4  1  6
  5  3  1  0
  6  5  2  0
  7  5  1  0
  8  7  1  0
  8  9  1  1
 10  9  1  0
 11 10  1  0
 12 11  1  0
 13 12  1  0
 14 15  2  0
 14  8  1  0
 16 14  1  0
 17 16  1  0
 17 18  1  6
 19 20  1  0
 19 18  1  0
 20 21  1  0
 22 21  1  0
 23 17  1  0
 24 23  1  0
 25 23  2  0
M  END
$$$$
