SKK.pdb
     RDKit          3D

 25 24  0  0  1  0  0  0  0  0999 V2000
   23.2882  -25.5865  -14.8653 O   0  0  0  0  0  0  0  0  0  0  0  0
   23.6175  -24.7649  -15.9416 C   0  0  0  0  0  0  0  0  0  0  0  0
   24.3019  -23.5173  -15.4324 C   0  0  2  0  0  0  0  0  0  0  0  0
   25.5413  -23.8805  -14.7794 N   0  0  0  0  0  0  0  0  0  0  0  0
   23.4161  -22.7303  -14.5345 C   0  0  0  0  0  0  0  0  0  0  0  0
   23.6620  -22.5997  -13.3018 O   0  0  0  0  0  0  0  0  0  0  0  0
   22.2420  -22.0764  -14.9968 N   0  0  0  0  0  0  0  0  0  0  0  0
   21.3510  -21.3377  -14.1316 C   0  0  1  0  0  0  0  0  0  0  0  0
   20.5688  -20.2763  -14.8692 C   0  0  0  0  0  0  0  0  0  0  0  0
   21.3908  -19.0277  -14.9053 C   0  0  0  0  0  0  0  0  0  0  0  0
   22.1498  -18.8342  -16.1738 C   0  0  0  0  0  0  0  0  0  0  0  0
   22.9699  -17.5520  -16.0250 C   0  0  0  0  0  0  0  0  0  0  0  0
   23.8608  -17.3637  -17.1325 N   0  0  0  0  0  0  0  0  0  0  0  0
   20.4006  -22.3498  -13.5401 C   0  0  0  0  0  0  0  0  0  0  0  0
   20.0055  -23.3424  -14.2248 O   0  0  0  0  0  0  0  0  0  0  0  0
   19.9327  -22.2114  -12.2131 N   0  0  0  0  0  0  0  0  0  0  0  0
   19.1538  -23.3266  -11.6440 C   0  0  1  0  0  0  0  0  0  0  0  0
   19.4259  -23.4053  -10.1692 C   0  0  0  0  0  0  0  0  0  0  0  0
   18.6843  -24.5583   -9.5651 C   0  0  0  0  0  0  0  0  0  0  0  0
   18.9656  -24.6986   -8.0916 C   0  0  0  0  0  0  0  0  0  0  0  0
   18.1436  -25.7554   -7.4346 C   0  0  0  0  0  0  0  0  0  0  0  0
   18.4934  -25.9682   -6.0538 N   0  0  0  0  0  0  0  0  0  0  0  0
   17.7485  -23.0615  -11.9829 C   0  0  0  0  0  0  0  0  0  0  0  0
   17.1655  -21.7910  -12.0033 O   0  0  0  0  0  0  0  0  0  0  0  0
   16.9553  -24.0240  -12.2870 O   0  0  0  0  0  0  0  0  0  0  0  0
  2  1  1  0
  3  2  1  0
  3  4  1  1
  5  3  1  0
  6  5  2  0
  7  5  1  0
  8  7  1  0
  8  9  1  6
 10  9  1  0
 11 10  1  0
 12 11  1  0
 13 12  1  0
 14 15  2  0
 14  8  1  0
 16 14  1  0
 17 16  1  0
 17 18  1  1
 19 20  1  0
 19 18  1  0
 20 21  1  0
 22 21  1  0
 23 17  1  0
 24 23  1  0
 25 23  2  0
M  END
$$$$
