SKK.pdb
     RDKit          3D

 25 24  0  0  1  0  0  0  0  0999 V2000
   16.5242  -13.4621  -18.3932 O   0  0  0  0  0  0  0  0  0  0  0  0
   17.2177  -12.7691  -17.4029 C   0  0  0  0  0  0  0  0  0  0  0  0
   18.3263  -13.6411  -16.8597 C   0  0  2  0  0  0  0  0  0  0  0  0
   17.7547  -14.7073  -16.0653 N   0  0  0  0  0  0  0  0  0  0  0  0
   19.3208  -12.8507  -16.0873 C   0  0  0  0  0  0  0  0  0  0  0  0
   19.0896  -12.4565  -14.9091 O   0  0  0  0  0  0  0  0  0  0  0  0
   20.5888  -12.4875  -16.6164 N   0  0  0  0  0  0  0  0  0  0  0  0
   21.5651  -11.7164  -15.8813 C   0  0  1  0  0  0  0  0  0  0  0  0
   22.9830  -12.0029  -16.3172 C   0  0  0  0  0  0  0  0  0  0  0  0
   23.3835  -13.3340  -15.7660 C   0  0  0  0  0  0  0  0  0  0  0  0
   24.7612  -13.7605  -16.1436 C   0  0  0  0  0  0  0  0  0  0  0  0
   24.9862  -15.1537  -15.5547 C   0  0  0  0  0  0  0  0  0  0  0  0
   26.2874  -15.6604  -15.8799 N   0  0  0  0  0  0  0  0  0  0  0  0
   21.2383  -10.2657  -16.1378 C   0  0  0  0  0  0  0  0  0  0  0  0
   20.8732   -9.8795  -17.2900 O   0  0  0  0  0  0  0  0  0  0  0  0
   21.3328   -9.3099  -15.1002 N   0  0  0  0  0  0  0  0  0  0  0  0
   20.8939   -7.9339  -15.3973 C   0  0  1  0  0  0  0  0  0  0  0  0
   19.4418   -7.9597  -15.7793 C   0  0  0  0  0  0  0  0  0  0  0  0
   18.9321   -6.5651  -15.9775 C   0  0  0  0  0  0  0  0  0  0  0  0
   17.4978   -6.5502  -16.4388 C   0  0  0  0  0  0  0  0  0  0  0  0
   16.9599   -5.1740  -16.6409 C   0  0  0  0  0  0  0  0  0  0  0  0
   16.8502   -4.4233  -15.4168 N   0  0  0  0  0  0  0  0  0  0  0  0
   21.1853   -7.1408  -14.1947 C   0  0  0  0  0  0  0  0  0  0  0  0
   21.4412   -5.7663  -14.1960 O   0  0  0  0  0  0  0  0  0  0  0  0
   21.2226   -7.6954  -13.0376 O   0  0  0  0  0  0  0  0  0  0  0  0
  2  1  1  0
  3  2  1  0
  3  4  1  1
  5  3  1  0
  6  5  2  0
  7  5  1  0
  8  7  1  0
  8  9  1  6
 10  9  1  0
 11 10  1  0
 12 11  1  0
 13 12  1  0
 14 15  2  0
 14  8  1  0
 16 14  1  0
 17 16  1  0
 17 18  1  1
 19 20  1  0
 19 18  1  0
 20 21  1  0
 22 21  1  0
 23 17  1  0
 24 23  1  0
 25 23  2  0
M  END
$$$$
