SKK.pdb
     RDKit          3D

 25 24  0  0  1  0  0  0  0  0999 V2000
   14.0903  -15.4025  -13.5184 O   0  0  0  0  0  0  0  0  0  0  0  0
   15.0619  -14.4898  -13.1124 C   0  0  0  0  0  0  0  0  0  0  0  0
   14.4812  -13.0945  -13.1295 C   0  0  2  0  0  0  0  0  0  0  0  0
   14.0344  -12.7754  -14.4685 N   0  0  0  0  0  0  0  0  0  0  0  0
   15.4487  -12.0887  -12.6170 C   0  0  0  0  0  0  0  0  0  0  0  0
   15.9929  -12.2044  -11.4823 O   0  0  0  0  0  0  0  0  0  0  0  0
   15.8246  -10.9380  -13.3615 N   0  0  0  0  0  0  0  0  0  0  0  0
   16.7218   -9.9237  -12.8573 C   0  0  1  0  0  0  0  0  0  0  0  0
   17.4225   -9.1645  -13.9597 C   0  0  0  0  0  0  0  0  0  0  0  0
   18.5783   -9.9861  -14.4341 C   0  0  0  0  0  0  0  0  0  0  0  0
   19.4154   -9.3186  -15.4715 C   0  0  0  0  0  0  0  0  0  0  0  0
   20.5412  -10.2850  -15.8421 C   0  0  0  0  0  0  0  0  0  0  0  0
   21.3416   -9.7757  -16.9170 N   0  0  0  0  0  0  0  0  0  0  0  0
   15.8741   -8.9744  -12.0464 C   0  0  0  0  0  0  0  0  0  0  0  0
   14.8373   -8.4434  -12.5496 O   0  0  0  0  0  0  0  0  0  0  0  0
   16.2186   -8.6589  -10.7120 N   0  0  0  0  0  0  0  0  0  0  0  0
   15.4017   -7.6470  -10.0169 C   0  0  1  0  0  0  0  0  0  0  0  0
   14.2678   -8.3377   -9.3151 C   0  0  0  0  0  0  0  0  0  0  0  0
   13.4333   -7.3406   -8.5709 C   0  0  0  0  0  0  0  0  0  0  0  0
   12.3062   -7.9995   -7.8190 C   0  0  0  0  0  0  0  0  0  0  0  0
   11.4575   -7.0317   -7.0658 C   0  0  0  0  0  0  0  0  0  0  0  0
   10.4188   -7.6678   -6.2973 N   0  0  0  0  0  0  0  0  0  0  0  0
   16.3156   -6.9272   -9.1187 C   0  0  0  0  0  0  0  0  0  0  0  0
   17.6843   -7.1892   -9.0066 O   0  0  0  0  0  0  0  0  0  0  0  0
   15.8826   -5.9856   -8.3611 O   0  0  0  0  0  0  0  0  0  0  0  0
  2  1  1  0
  3  2  1  0
  3  4  1  6
  5  3  1  0
  6  5  2  0
  7  5  1  0
  8  7  1  0
  8  9  1  6
 10  9  1  0
 11 10  1  0
 12 11  1  0
 13 12  1  0
 14 15  2  0
 14  8  1  0
 16 14  1  0
 17 16  1  0
 17 18  1  1
 19 20  1  0
 19 18  1  0
 20 21  1  0
 22 21  1  0
 23 17  1  0
 24 23  1  0
 25 23  2  0
M  END
$$$$
