SKK.pdb
     RDKit          3D

 25 24  0  0  1  0  0  0  0  0999 V2000
   24.3070  -32.7817  -21.6958 O   0  0  0  0  0  0  0  0  0  0  0  0
   24.7401  -31.4743  -21.9082 C   0  0  0  0  0  0  0  0  0  0  0  0
   25.8519  -31.4717  -22.9319 C   0  0  2  0  0  0  0  0  0  0  0  0
   25.7221  -32.6322  -23.7868 N   0  0  0  0  0  0  0  0  0  0  0  0
   27.1916  -31.4070  -22.2904 C   0  0  0  0  0  0  0  0  0  0  0  0
   27.7948  -32.4463  -21.8995 O   0  0  0  0  0  0  0  0  0  0  0  0
   27.8797  -30.1824  -22.0746 N   0  0  0  0  0  0  0  0  0  0  0  0
   29.2416  -30.1099  -21.5971 C   0  0  1  0  0  0  0  0  0  0  0  0
   29.9531  -28.8570  -22.0517 C   0  0  0  0  0  0  0  0  0  0  0  0
   31.3470  -28.8866  -21.5111 C   0  0  0  0  0  0  0  0  0  0  0  0
   32.1859  -27.7257  -21.9247 C   0  0  0  0  0  0  0  0  0  0  0  0
   33.6087  -27.9904  -21.4304 C   0  0  0  0  0  0  0  0  0  0  0  0
   34.4962  -26.9195  -21.7783 N   0  0  0  0  0  0  0  0  0  0  0  0
   29.1631  -30.1308  -20.0902 C   0  0  0  0  0  0  0  0  0  0  0  0
   28.2637  -29.4750  -19.4809 O   0  0  0  0  0  0  0  0  0  0  0  0
   30.0892  -30.8807  -19.3293 N   0  0  0  0  0  0  0  0  0  0  0  0
   29.8325  -31.0183  -17.8838 C   0  0  1  0  0  0  0  0  0  0  0  0
   28.5823  -31.8270  -17.6880 C   0  0  0  0  0  0  0  0  0  0  0  0
   28.3810  -32.1281  -16.2343 C   0  0  0  0  0  0  0  0  0  0  0  0
   26.9208  -32.1704  -15.8653 C   0  0  0  0  0  0  0  0  0  0  0  0
   26.5459  -33.3877  -15.0895 C   0  0  0  0  0  0  0  0  0  0  0  0
   25.1449  -33.4402  -14.7601 N   0  0  0  0  0  0  0  0  0  0  0  0
   31.0395  -31.6282  -17.3082 C   0  0  0  0  0  0  0  0  0  0  0  0
   31.1847  -31.9778  -15.9624 O   0  0  0  0  0  0  0  0  0  0  0  0
   32.0617  -31.8776  -18.0437 O   0  0  0  0  0  0  0  0  0  0  0  0
  2  1  1  0
  3  2  1  0
  3  4  1  1
  5  3  1  0
  6  5  2  0
  7  5  1  0
  8  7  1  0
  8  9  1  1
 10  9  1  0
 11 10  1  0
 12 11  1  0
 13 12  1  0
 14 15  2  0
 14  8  1  0
 16 14  1  0
 17 16  1  0
 17 18  1  6
 19 20  1  0
 19 18  1  0
 20 21  1  0
 22 21  1  0
 23 17  1  0
 24 23  1  0
 25 23  2  0
M  END
$$$$
