SKK.pdb
     RDKit          3D

 25 24  0  0  1  0  0  0  0  0999 V2000
   16.3278  -13.3317  -13.3966 O   0  0  0  0  0  0  0  0  0  0  0  0
   17.2307  -12.4634  -14.0070 C   0  0  0  0  0  0  0  0  0  0  0  0
   16.5686  -11.7992  -15.1923 C   0  0  2  0  0  0  0  0  0  0  0  0
   16.3480  -12.7806  -16.2328 N   0  0  0  0  0  0  0  0  0  0  0  0
   17.3578  -10.6402  -15.6863 C   0  0  0  0  0  0  0  0  0  0  0  0
   18.2623  -10.7724  -16.5590 O   0  0  0  0  0  0  0  0  0  0  0  0
   17.1510   -9.3154  -15.2152 N   0  0  0  0  0  0  0  0  0  0  0  0
   17.8605   -8.1681  -15.7333 C   0  0  1  0  0  0  0  0  0  0  0  0
   17.1670   -6.8630  -15.4197 C   0  0  0  0  0  0  0  0  0  0  0  0
   15.9012   -6.8016  -16.2135 C   0  0  0  0  0  0  0  0  0  0  0  0
   15.0778   -5.5861  -15.9545 C   0  0  0  0  0  0  0  0  0  0  0  0
   13.7628   -5.7536  -16.7170 C   0  0  0  0  0  0  0  0  0  0  0  0
   12.8461   -4.6896  -16.4286 N   0  0  0  0  0  0  0  0  0  0  0  0
   19.2239   -8.1867  -15.0869 C   0  0  0  0  0  0  0  0  0  0  0  0
   19.3426   -8.3437  -13.8334 O   0  0  0  0  0  0  0  0  0  0  0  0
   20.3940   -8.0298  -15.8649 N   0  0  0  0  0  0  0  0  0  0  0  0
   21.6903   -8.2723  -15.2052 C   0  0  1  0  0  0  0  0  0  0  0  0
   22.5076   -9.1929  -16.0653 C   0  0  0  0  0  0  0  0  0  0  0  0
   23.8149   -9.4998  -15.4011 C   0  0  0  0  0  0  0  0  0  0  0  0
   24.6497  -10.4537  -16.2156 C   0  0  0  0  0  0  0  0  0  0  0  0
   25.8751  -10.9175  -15.5032 C   0  0  0  0  0  0  0  0  0  0  0  0
   26.5477  -11.9976  -16.1778 N   0  0  0  0  0  0  0  0  0  0  0  0
   22.2972   -6.9506  -14.9931 C   0  0  0  0  0  0  0  0  0  0  0  0
   22.1318   -5.8574  -15.8488 O   0  0  0  0  0  0  0  0  0  0  0  0
   23.0409   -6.7278  -13.9708 O   0  0  0  0  0  0  0  0  0  0  0  0
  2  1  1  0
  3  2  1  0
  3  4  1  6
  5  3  1  0
  6  5  2  0
  7  5  1  0
  8  7  1  0
  8  9  1  1
 10  9  1  0
 11 10  1  0
 12 11  1  0
 13 12  1  0
 14 15  2  0
 14  8  1  0
 16 14  1  0
 17 16  1  0
 17 18  1  6
 19 20  1  0
 19 18  1  0
 20 21  1  0
 22 21  1  0
 23 17  1  0
 24 23  1  0
 25 23  2  0
M  END
$$$$
