SKK.pdb
     RDKit          3D

 25 24  0  0  1  0  0  0  0  0999 V2000
   23.7294  -18.4315  -23.7065 O   0  0  0  0  0  0  0  0  0  0  0  0
   22.6553  -17.9983  -22.9315 C   0  0  0  0  0  0  0  0  0  0  0  0
   22.8947  -16.5727  -22.4902 C   0  0  2  0  0  0  0  0  0  0  0  0
   24.2970  -16.3937  -22.1804 N   0  0  0  0  0  0  0  0  0  0  0  0
   22.0250  -16.1971  -21.3444 C   0  0  0  0  0  0  0  0  0  0  0  0
   20.7820  -16.4253  -21.3476 O   0  0  0  0  0  0  0  0  0  0  0  0
   22.5273  -15.5611  -20.1770 N   0  0  0  0  0  0  0  0  0  0  0  0
   21.6983  -15.1998  -19.0500 C   0  0  1  0  0  0  0  0  0  0  0  0
   22.4257  -15.3134  -17.7306 C   0  0  0  0  0  0  0  0  0  0  0  0
   21.4131  -15.5439  -16.6548 C   0  0  0  0  0  0  0  0  0  0  0  0
   21.0523  -16.9765  -16.4542 C   0  0  0  0  0  0  0  0  0  0  0  0
   19.8614  -17.0183  -15.4957 C   0  0  0  0  0  0  0  0  0  0  0  0
   19.4316  -18.3631  -15.2462 N   0  0  0  0  0  0  0  0  0  0  0  0
   21.2776  -13.7684  -19.2762 C   0  0  0  0  0  0  0  0  0  0  0  0
   22.1174  -12.9027  -19.6703 O   0  0  0  0  0  0  0  0  0  0  0  0
   19.9409  -13.3649  -19.0535 N   0  0  0  0  0  0  0  0  0  0  0  0
   19.5824  -11.9745  -19.3894 C   0  0  1  0  0  0  0  0  0  0  0  0
   18.0860  -11.8579  -19.4384 C   0  0  0  0  0  0  0  0  0  0  0  0
   17.6864  -10.4802  -19.8703 C   0  0  0  0  0  0  0  0  0  0  0  0
   16.1917  -10.3422  -19.9997 C   0  0  0  0  0  0  0  0  0  0  0  0
   15.7674   -9.0104  -20.5198 C   0  0  0  0  0  0  0  0  0  0  0  0
   14.3395   -8.8862  -20.6611 N   0  0  0  0  0  0  0  0  0  0  0  0
   20.2185  -11.1282  -18.3700 C   0  0  0  0  0  0  0  0  0  0  0  0
   20.8073   -9.8866  -18.6273 O   0  0  0  0  0  0  0  0  0  0  0  0
   20.2680  -11.5051  -17.1438 O   0  0  0  0  0  0  0  0  0  0  0  0
  2  1  1  0
  3  2  1  0
  3  4  1  1
  5  3  1  0
  6  5  2  0
  7  5  1  0
  8  7  1  0
  8  9  1  1
 10  9  1  0
 11 10  1  0
 12 11  1  0
 13 12  1  0
 14 15  2  0
 14  8  1  0
 16 14  1  0
 17 16  1  0
 17 18  1  1
 19 20  1  0
 19 18  1  0
 20 21  1  0
 22 21  1  0
 23 17  1  0
 24 23  1  0
 25 23  2  0
M  END
$$$$
