SKK.pdb
     RDKit          3D

 25 24  0  0  1  0  0  0  0  0999 V2000
   20.0908   -8.8916  -13.5412 O   0  0  0  0  0  0  0  0  0  0  0  0
   18.8588   -8.3238  -13.2221 C   0  0  0  0  0  0  0  0  0  0  0  0
   18.0122   -9.3371  -12.4868 C   0  0  2  0  0  0  0  0  0  0  0  0
   17.6068  -10.3814  -13.4030 N   0  0  0  0  0  0  0  0  0  0  0  0
   16.8432   -8.7012  -11.8240 C   0  0  0  0  0  0  0  0  0  0  0  0
   15.7969   -8.3973  -12.4644 O   0  0  0  0  0  0  0  0  0  0  0  0
   16.8222   -8.3940  -10.4366 N   0  0  0  0  0  0  0  0  0  0  0  0
   15.7219   -7.7168   -9.7894 C   0  0  1  0  0  0  0  0  0  0  0  0
   15.5520   -8.1281   -8.3455 C   0  0  0  0  0  0  0  0  0  0  0  0
   14.3025   -7.4956   -7.8214 C   0  0  0  0  0  0  0  0  0  0  0  0
   13.0708   -8.3065   -8.0401 C   0  0  0  0  0  0  0  0  0  0  0  0
   11.8879   -7.4925   -7.5142 C   0  0  0  0  0  0  0  0  0  0  0  0
   10.6442   -8.1759   -7.7189 N   0  0  0  0  0  0  0  0  0  0  0  0
   16.0306   -6.2415   -9.8640 C   0  0  0  0  0  0  0  0  0  0  0  0
   17.1859   -5.8074   -9.5688 O   0  0  0  0  0  0  0  0  0  0  0  0
   15.0396   -5.3158  -10.2640 N   0  0  0  0  0  0  0  0  0  0  0  0
   15.4390   -3.9025  -10.3963 C   0  0  1  0  0  0  0  0  0  0  0  0
   14.9225   -3.3728  -11.7032 C   0  0  0  0  0  0  0  0  0  0  0  0
   15.2868   -1.9280  -11.8582 C   0  0  0  0  0  0  0  0  0  0  0  0
   14.8768   -1.3853  -13.2027 C   0  0  0  0  0  0  0  0  0  0  0  0
   15.2103    0.0574  -13.3805 C   0  0  0  0  0  0  0  0  0  0  0  0
   14.9914    0.5279  -14.7239 N   0  0  0  0  0  0  0  0  0  0  0  0
   14.9046   -3.2119   -9.2141 C   0  0  0  0  0  0  0  0  0  0  0  0
   15.4276   -2.0281   -8.6854 O   0  0  0  0  0  0  0  0  0  0  0  0
   13.8911   -3.6833   -8.5828 O   0  0  0  0  0  0  0  0  0  0  0  0
  2  1  1  0
  3  2  1  0
  3  4  1  6
  5  3  1  0
  6  5  2  0
  7  5  1  0
  8  7  1  0
  8  9  1  1
 10  9  1  0
 11 10  1  0
 12 11  1  0
 13 12  1  0
 14 15  2  0
 14  8  1  0
 16 14  1  0
 17 16  1  0
 17 18  1  6
 19 20  1  0
 19 18  1  0
 20 21  1  0
 22 21  1  0
 23 17  1  0
 24 23  1  0
 25 23  2  0
M  END
$$$$
