SKK.pdb
     RDKit          3D

 25 24  0  0  1  0  0  0  0  0999 V2000
   15.0010  -12.5678  -15.3870 O   0  0  0  0  0  0  0  0  0  0  0  0
   15.4050  -11.9714  -14.1941 C   0  0  0  0  0  0  0  0  0  0  0  0
   16.2288  -10.7415  -14.4992 C   0  0  2  0  0  0  0  0  0  0  0  0
   17.3158  -11.0979  -15.3858 N   0  0  0  0  0  0  0  0  0  0  0  0
   16.7216  -10.0867  -13.2588 C   0  0  0  0  0  0  0  0  0  0  0  0
   16.4913  -10.5686  -12.1135 O   0  0  0  0  0  0  0  0  0  0  0  0
   17.4789   -8.8843  -13.2758 N   0  0  0  0  0  0  0  0  0  0  0  0
   18.0422   -8.2834  -12.0885 C   0  0  1  0  0  0  0  0  0  0  0  0
   19.1417   -7.2951  -12.4004 C   0  0  0  0  0  0  0  0  0  0  0  0
   20.3222   -8.0539  -12.9166 C   0  0  0  0  0  0  0  0  0  0  0  0
   20.8935   -7.5067  -14.1802 C   0  0  0  0  0  0  0  0  0  0  0  0
   22.0799   -8.3910  -14.5664 C   0  0  0  0  0  0  0  0  0  0  0  0
   22.7602   -7.8860  -15.7230 N   0  0  0  0  0  0  0  0  0  0  0  0
   16.9056   -7.5754  -11.3928 C   0  0  0  0  0  0  0  0  0  0  0  0
   16.0655   -6.8945  -12.0567 O   0  0  0  0  0  0  0  0  0  0  0  0
   16.7551   -7.6572   -9.9894 N   0  0  0  0  0  0  0  0  0  0  0  0
   15.7016   -6.8345   -9.3665 C   0  0  1  0  0  0  0  0  0  0  0  0
   14.6545   -7.7431   -8.7892 C   0  0  0  0  0  0  0  0  0  0  0  0
   13.5760   -6.9393   -8.1297 C   0  0  0  0  0  0  0  0  0  0  0  0
   12.4854   -7.8143   -7.5683 C   0  0  0  0  0  0  0  0  0  0  0  0
   11.3732   -7.0401   -6.9455 C   0  0  0  0  0  0  0  0  0  0  0  0
   10.3764   -7.8771   -6.3290 N   0  0  0  0  0  0  0  0  0  0  0  0
   16.3758   -5.9864   -8.3734 C   0  0  0  0  0  0  0  0  0  0  0  0
   17.6679   -6.2100   -7.8885 O   0  0  0  0  0  0  0  0  0  0  0  0
   15.7853   -4.9582   -7.8815 O   0  0  0  0  0  0  0  0  0  0  0  0
  2  1  1  0
  3  2  1  0
  3  4  1  6
  5  3  1  0
  6  5  2  0
  7  5  1  0
  8  7  1  0
  8  9  1  6
 10  9  1  0
 11 10  1  0
 12 11  1  0
 13 12  1  0
 14 15  2  0
 14  8  1  0
 16 14  1  0
 17 16  1  0
 17 18  1  1
 19 20  1  0
 19 18  1  0
 20 21  1  0
 22 21  1  0
 23 17  1  0
 24 23  1  0
 25 23  2  0
M  END
$$$$
