SKK.pdb
     RDKit          3D

 25 24  0  0  1  0  0  0  0  0999 V2000
   18.7303  -23.0476   -6.1571 O   0  0  0  0  0  0  0  0  0  0  0  0
   19.8101  -23.0634   -7.0378 C   0  0  0  0  0  0  0  0  0  0  0  0
   19.3083  -23.2822   -8.4466 C   0  0  2  0  0  0  0  0  0  0  0  0
   18.4286  -22.1950   -8.8187 N   0  0  0  0  0  0  0  0  0  0  0  0
   18.6444  -24.6041   -8.5960 C   0  0  0  0  0  0  0  0  0  0  0  0
   17.3862  -24.7196   -8.6201 O   0  0  0  0  0  0  0  0  0  0  0  0
   19.3729  -25.8179   -8.7210 N   0  0  0  0  0  0  0  0  0  0  0  0
   18.7455  -27.1037   -8.9238 C   0  0  1  0  0  0  0  0  0  0  0  0
   19.7313  -28.1778   -9.3202 C   0  0  0  0  0  0  0  0  0  0  0  0
   18.9625  -29.3988   -9.7123 C   0  0  0  0  0  0  0  0  0  0  0  0
   19.2390  -29.8744  -11.0979 C   0  0  0  0  0  0  0  0  0  0  0  0
   20.7577  -29.9438  -11.2631 C   0  0  0  0  0  0  0  0  0  0  0  0
   21.1265  -30.3594  -12.5848 N   0  0  0  0  0  0  0  0  0  0  0  0
   18.0967  -27.4694   -7.6113 C   0  0  0  0  0  0  0  0  0  0  0  0
   18.7278  -27.3340   -6.5187 O   0  0  0  0  0  0  0  0  0  0  0  0
   16.7748  -27.9693   -7.5739 N   0  0  0  0  0  0  0  0  0  0  0  0
   16.1415  -28.1269   -6.2515 C   0  0  1  0  0  0  0  0  0  0  0  0
   14.8610  -27.3425   -6.2305 C   0  0  0  0  0  0  0  0  0  0  0  0
   14.1614  -27.5256   -4.9185 C   0  0  0  0  0  0  0  0  0  0  0  0
   12.8569  -26.7736   -4.8664 C   0  0  0  0  0  0  0  0  0  0  0  0
   12.1087  -26.9825   -3.5933 C   0  0  0  0  0  0  0  0  0  0  0  0
   10.8734  -26.2444   -3.5347 N   0  0  0  0  0  0  0  0  0  0  0  0
   15.9649  -29.5720   -6.0499 C   0  0  0  0  0  0  0  0  0  0  0  0
   15.8606  -30.1896   -4.8000 O   0  0  0  0  0  0  0  0  0  0  0  0
   15.8973  -30.3698   -7.0533 O   0  0  0  0  0  0  0  0  0  0  0  0
  2  1  1  0
  3  2  1  0
  3  4  1  1
  5  3  1  0
  6  5  2  0
  7  5  1  0
  8  7  1  0
  8  9  1  1
 10  9  1  0
 11 10  1  0
 12 11  1  0
 13 12  1  0
 14 15  2  0
 14  8  1  0
 16 14  1  0
 17 16  1  0
 17 18  1  6
 19 20  1  0
 19 18  1  0
 20 21  1  0
 22 21  1  0
 23 17  1  0
 24 23  1  0
 25 23  2  0
M  END
$$$$
