SKK.pdb
     RDKit          3D

 25 24  0  0  1  0  0  0  0  0999 V2000
   28.1844  -23.3083  -16.3931 O   0  0  0  0  0  0  0  0  0  0  0  0
   27.1986  -23.0383  -17.3403 C   0  0  0  0  0  0  0  0  0  0  0  0
   26.5222  -21.7290  -17.0046 C   0  0  2  0  0  0  0  0  0  0  0  0
   27.5232  -20.6945  -16.8549 N   0  0  0  0  0  0  0  0  0  0  0  0
   25.6651  -21.8456  -15.7955 C   0  0  0  0  0  0  0  0  0  0  0  0
   24.7261  -22.6882  -15.7222 O   0  0  0  0  0  0  0  0  0  0  0  0
   25.8415  -21.0247  -14.6489 N   0  0  0  0  0  0  0  0  0  0  0  0
   25.0148  -21.1216  -13.4677 C   0  0  1  0  0  0  0  0  0  0  0  0
   25.5619  -20.3256  -12.3059 C   0  0  0  0  0  0  0  0  0  0  0  0
   24.5936  -20.4259  -11.1709 C   0  0  0  0  0  0  0  0  0  0  0  0
   25.2174  -20.7963   -9.8685 C   0  0  0  0  0  0  0  0  0  0  0  0
   24.0915  -20.9212   -8.8412 C   0  0  0  0  0  0  0  0  0  0  0  0
   24.6031  -21.1658   -7.5244 N   0  0  0  0  0  0  0  0  0  0  0  0
   23.6583  -20.5863  -13.8558 C   0  0  0  0  0  0  0  0  0  0  0  0
   23.5443  -19.4414  -14.3909 O   0  0  0  0  0  0  0  0  0  0  0  0
   22.4896  -21.3496  -13.6309 N   0  0  0  0  0  0  0  0  0  0  0  0
   21.2005  -20.7609  -14.0387 C   0  0  1  0  0  0  0  0  0  0  0  0
   20.6840  -21.5061  -15.2358 C   0  0  0  0  0  0  0  0  0  0  0  0
   19.3902  -20.9103  -15.6998 C   0  0  0  0  0  0  0  0  0  0  0  0
   18.8283  -21.6427  -16.8905 C   0  0  0  0  0  0  0  0  0  0  0  0
   17.5897  -21.0154  -17.4352 C   0  0  0  0  0  0  0  0  0  0  0  0
   17.1606  -21.5975  -18.6807 N   0  0  0  0  0  0  0  0  0  0  0  0
   20.3245  -20.8338  -12.8608 C   0  0  0  0  0  0  0  0  0  0  0  0
   20.6241  -21.5442  -11.6946 O   0  0  0  0  0  0  0  0  0  0  0  0
   19.1943  -20.2252  -12.8466 O   0  0  0  0  0  0  0  0  0  0  0  0
  2  1  1  0
  3  2  1  0
  3  4  1  1
  5  3  1  0
  6  5  2  0
  7  5  1  0
  8  7  1  0
  8  9  1  1
 10  9  1  0
 11 10  1  0
 12 11  1  0
 13 12  1  0
 14 15  2  0
 14  8  1  0
 16 14  1  0
 17 16  1  0
 17 18  1  6
 19 20  1  0
 19 18  1  0
 20 21  1  0
 22 21  1  0
 23 17  1  0
 24 23  1  0
 25 23  2  0
M  END
$$$$
