SKK.pdb
     RDKit          3D

 25 24  0  0  1  0  0  0  0  0999 V2000
   27.5912   -8.8298  -17.2594 O   0  0  0  0  0  0  0  0  0  0  0  0
   27.6443   -9.5061  -16.0422 C   0  0  0  0  0  0  0  0  0  0  0  0
   26.9524  -10.8430  -16.1778 C   0  0  2  0  0  0  0  0  0  0  0  0
   27.6744  -11.6649  -17.1252 N   0  0  0  0  0  0  0  0  0  0  0  0
   25.5238  -10.6879  -16.5593 C   0  0  0  0  0  0  0  0  0  0  0  0
   25.1280  -10.8604  -17.7470 O   0  0  0  0  0  0  0  0  0  0  0  0
   24.5140  -10.3382  -15.6225 N   0  0  0  0  0  0  0  0  0  0  0  0
   23.1223  -10.1782  -15.9772 C   0  0  1  0  0  0  0  0  0  0  0  0
   22.1932  -10.9136  -15.0398 C   0  0  0  0  0  0  0  0  0  0  0  0
   20.7916  -10.7266  -15.5261 C   0  0  0  0  0  0  0  0  0  0  0  0
   19.7580  -11.3783  -14.6720 C   0  0  0  0  0  0  0  0  0  0  0  0
   18.4041  -11.1668  -15.3506 C   0  0  0  0  0  0  0  0  0  0  0  0
   17.3664  -11.9148  -14.7030 N   0  0  0  0  0  0  0  0  0  0  0  0
   22.8379   -8.6974  -15.9158 C   0  0  0  0  0  0  0  0  0  0  0  0
   23.2040   -8.0101  -14.9139 O   0  0  0  0  0  0  0  0  0  0  0  0
   22.1586   -8.0483  -16.9723 N   0  0  0  0  0  0  0  0  0  0  0  0
   21.8912   -6.6054  -16.8276 C   0  0  1  0  0  0  0  0  0  0  0  0
   21.5268   -6.0425  -18.1713 C   0  0  0  0  0  0  0  0  0  0  0  0
   21.2666   -4.5711  -18.0647 C   0  0  0  0  0  0  0  0  0  0  0  0
   20.9321   -3.9603  -19.4008 C   0  0  0  0  0  0  0  0  0  0  0  0
   20.7596   -2.4801  -19.3435 C   0  0  0  0  0  0  0  0  0  0  0  0
   20.5620   -1.8824  -20.6388 N   0  0  0  0  0  0  0  0  0  0  0  0
   20.8311   -6.4832  -15.8169 C   0  0  0  0  0  0  0  0  0  0  0  0
   20.8353   -5.5516  -14.7745 O   0  0  0  0  0  0  0  0  0  0  0  0
   19.8091   -7.2596  -15.8426 O   0  0  0  0  0  0  0  0  0  0  0  0
  2  1  1  0
  3  2  1  0
  3  4  1  6
  5  3  1  0
  6  5  2  0
  7  5  1  0
  8  7  1  0
  8  9  1  1
 10  9  1  0
 11 10  1  0
 12 11  1  0
 13 12  1  0
 14 15  2  0
 14  8  1  0
 16 14  1  0
 17 16  1  0
 17 18  1  6
 19 20  1  0
 19 18  1  0
 20 21  1  0
 22 21  1  0
 23 17  1  0
 24 23  1  0
 25 23  2  0
M  END
$$$$
