SKK.pdb
     RDKit          3D

 25 24  0  0  1  0  0  0  0  0999 V2000
   20.5693  -17.2394  -17.0764 O   0  0  0  0  0  0  0  0  0  0  0  0
   21.8223  -16.8536  -16.6041 C   0  0  0  0  0  0  0  0  0  0  0  0
   22.8546  -17.8763  -17.0202 C   0  0  2  0  0  0  0  0  0  0  0  0
   22.9903  -17.8647  -18.4609 N   0  0  0  0  0  0  0  0  0  0  0  0
   22.5239  -19.2325  -16.5087 C   0  0  0  0  0  0  0  0  0  0  0  0
   22.0080  -20.1172  -17.2492 O   0  0  0  0  0  0  0  0  0  0  0  0
   22.7634  -19.6238  -15.1637 N   0  0  0  0  0  0  0  0  0  0  0  0
   22.4583  -20.9408  -14.6531 C   0  0  1  0  0  0  0  0  0  0  0  0
   23.3109  -21.3173  -13.4640 C   0  0  0  0  0  0  0  0  0  0  0  0
   23.8186  -22.7083  -13.6723 C   0  0  0  0  0  0  0  0  0  0  0  0
   24.8247  -22.8327  -14.7653 C   0  0  0  0  0  0  0  0  0  0  0  0
   25.1179  -24.3221  -14.9498 C   0  0  0  0  0  0  0  0  0  0  0  0
   26.0270  -24.5508  -16.0346 N   0  0  0  0  0  0  0  0  0  0  0  0
   21.0053  -20.9107  -14.2468 C   0  0  0  0  0  0  0  0  0  0  0  0
   20.5440  -19.9427  -13.5683 O   0  0  0  0  0  0  0  0  0  0  0  0
   20.1310  -21.9594  -14.6140 N   0  0  0  0  0  0  0  0  0  0  0  0
   18.7181  -21.8442  -14.2082 C   0  0  1  0  0  0  0  0  0  0  0  0
   17.9393  -22.9621  -14.8399 C   0  0  0  0  0  0  0  0  0  0  0  0
   16.4730  -22.7764  -14.5953 C   0  0  0  0  0  0  0  0  0  0  0  0
   15.6644  -23.9370  -15.1141 C   0  0  0  0  0  0  0  0  0  0  0  0
   14.1939  -23.6908  -15.0793 C   0  0  0  0  0  0  0  0  0  0  0  0
   13.4296  -24.7355  -15.7107 N   0  0  0  0  0  0  0  0  0  0  0  0
   18.7098  -21.8611  -12.7386 C   0  0  0  0  0  0  0  0  0  0  0  0
   19.4550  -22.7457  -11.9532 O   0  0  0  0  0  0  0  0  0  0  0  0
   17.9864  -21.0315  -12.0781 O   0  0  0  0  0  0  0  0  0  0  0  0
  2  1  1  0
  3  2  1  0
  3  4  1  6
  5  3  1  0
  6  5  2  0
  7  5  1  0
  8  7  1  0
  8  9  1  1
 10  9  1  0
 11 10  1  0
 12 11  1  0
 13 12  1  0
 14 15  2  0
 14  8  1  0
 16 14  1  0
 17 16  1  0
 17 18  1  6
 19 20  1  0
 19 18  1  0
 20 21  1  0
 22 21  1  0
 23 17  1  0
 24 23  1  0
 25 23  2  0
M  END
$$$$
