HRC.pdb
     RDKit          3D

 28 28  0  0  1  0  0  0  0  0999 V2000
    8.1702  -17.0957   19.2730 N   0  0  0  0  0  0  0  0  0  0  0  0
    8.4584  -15.8345   19.9723 C   0  0  1  0  0  0  0  0  0  0  0  0
    7.3303  -14.9058   19.5365 C   0  0  0  0  0  0  0  0  0  0  0  0
    7.6034  -14.5247   18.1276 C   0  0  0  0  0  0  0  0  0  0  0  0
    8.3166  -13.4425   17.6567 C   0  0  0  0  0  0  0  0  0  0  0  0
    8.3199  -13.4695   16.3124 N   0  0  0  0  0  0  0  0  0  0  0  0
    7.6119  -14.5642   15.9506 C   0  0  0  0  0  0  0  0  0  0  0  0
    7.1841  -15.1937   17.0414 N   0  0  0  0  0  0  0  0  0  0  0  0
    8.3985  -16.1128   21.4229 C   0  0  0  0  0  0  0  0  0  0  0  0
    7.3587  -16.6119   21.9066 O   0  0  0  0  0  0  0  0  0  0  0  0
   13.7282  -18.6624   23.9692 N   0  0  0  0  0  0  0  0  0  0  0  0
   12.9122  -19.6730   24.5588 C   0  0  0  0  0  0  0  0  0  0  0  0
   13.0107  -20.8903   24.1720 N   0  0  0  0  0  0  0  0  0  0  0  0
   11.9981  -19.3149   25.5711 N   0  0  0  0  0  0  0  0  0  0  0  0
   11.9355  -17.9413   26.0611 C   0  0  0  0  0  0  0  0  0  0  0  0
   10.6089  -17.3320   25.6917 C   0  0  0  0  0  0  0  0  0  0  0  0
   10.5980  -16.8811   24.2944 C   0  0  0  0  0  0  0  0  0  0  0  0
    9.4003  -16.2359   23.7312 C   0  0  2  0  0  0  0  0  0  0  0  0
    9.4524  -15.8555   22.3459 N   0  0  0  0  0  0  0  0  0  0  0  0
    9.2668  -14.9241   24.4872 C   0  0  0  0  0  0  0  0  0  0  0  0
    9.4050  -13.8101   23.9290 O   0  0  0  0  0  0  0  0  0  0  0  0
   12.5113  -21.6894   24.6088 N   0  0  0  0  0  0  0  0  0  0  0  0
    8.9756  -14.9213   25.8730 C   0  0  2  0  0  0  0  0  0  0  0  0
    8.3471  -13.7921   26.5387 C   0  0  0  0  0  0  0  0  0  0  0  0
    6.9561  -13.5447   25.9746 S   0  0  0  0  0  0  0  0  0  0  0  0
    6.0990  -12.2429   26.8606 C   0  0  0  0  0  0  0  0  0  0  0  0
    8.2970  -14.0161   28.0023 O   0  0  0  0  0  0  0  0  0  0  0  0
    8.0709  -15.1751   28.4258 O   0  0  0  0  0  0  0  0  0  0  0  0
  2  1  1  6
  2  9  1  0
  3  2  1  0
  4  5  2  0
  4  3  1  0
  6  5  1  0
  7  8  2  0
  7  6  1  0
  8  4  1  0
  9 10  2  0
 11 12  1  0
 12 14  1  0
 13 12  2  0
 14 15  1  0
 16 17  1  0
 16 15  1  0
 18 17  1  1
 18 20  1  0
 19  9  1  0
 19 18  1  0
 20 21  2  0
 22 23  1  0
 22 20  1  0
 23 26  1  0
 23 24  1  6
 25 24  1  0
 26 27  2  0
 26 28  1  0
M  END
$$$$
