HRC.pdb
     RDKit          3D

 28 28  0  0  1  0  0  0  0  0999 V2000
    5.1926  -17.1267   12.8710 N   0  0  0  0  0  0  0  0  0  0  0  0
    4.8321  -18.5513   12.8154 C   0  0  1  0  0  0  0  0  0  0  0  0
    6.0928  -19.2298   12.2909 C   0  0  0  0  0  0  0  0  0  0  0  0
    6.1390  -18.9852   10.8272 C   0  0  0  0  0  0  0  0  0  0  0  0
    5.3394  -19.5276    9.8432 C   0  0  0  0  0  0  0  0  0  0  0  0
    5.7195  -19.0397    8.6494 N   0  0  0  0  0  0  0  0  0  0  0  0
    6.7506  -18.1979    8.8914 C   0  0  0  0  0  0  0  0  0  0  0  0
    6.9990  -18.1682   10.1978 N   0  0  0  0  0  0  0  0  0  0  0  0
    4.5225  -18.9803   14.1957 C   0  0  0  0  0  0  0  0  0  0  0  0
    5.1711  -18.4919   15.1471 O   0  0  0  0  0  0  0  0  0  0  0  0
   -2.2131  -23.3918   16.5700 N   0  0  0  0  0  0  0  0  0  0  0  0
   -1.0308  -24.0675   16.9947 C   0  0  0  0  0  0  0  0  0  0  0  0
   -1.0603  -25.3223   17.2510 N   0  0  0  0  0  0  0  0  0  0  0  0
    0.1682  -23.3373   17.1281 N   0  0  0  0  0  0  0  0  0  0  0  0
    0.1407  -21.9337   17.5278 C   0  0  0  0  0  0  0  0  0  0  0  0
    1.5373  -21.3713   17.4979 C   0  0  0  0  0  0  0  0  0  0  0  0
    1.9154  -20.9498   16.1432 C   0  0  0  0  0  0  0  0  0  0  0  0
    3.2025  -20.2749   15.9071 C   0  0  2  0  0  0  0  0  0  0  0  0
    3.5202  -19.9290   14.5484 N   0  0  0  0  0  0  0  0  0  0  0  0
    4.2597  -21.2922   16.3039 C   0  0  0  0  0  0  0  0  0  0  0  0
    5.1275  -21.7076   15.5000 O   0  0  0  0  0  0  0  0  0  0  0  0
   -0.2423  -25.8782   17.5680 N   0  0  0  0  0  0  0  0  0  0  0  0
    4.2971  -21.8113   17.6208 C   0  0  2  0  0  0  0  0  0  0  0  0
    5.5408  -22.1411   18.2974 C   0  0  0  0  0  0  0  0  0  0  0  0
    6.4677  -20.9353   18.3312 S   0  0  0  0  0  0  0  0  0  0  0  0
    7.9815  -21.2827   19.2269 C   0  0  0  0  0  0  0  0  0  0  0  0
    5.2693  -22.6435   19.6644 O   0  0  0  0  0  0  0  0  0  0  0  0
    4.6177  -21.9178   20.4533 O   0  0  0  0  0  0  0  0  0  0  0  0
  2  1  1  1
  2  9  1  0
  3  2  1  0
  4  5  2  0
  4  3  1  0
  6  5  1  0
  7  8  2  0
  7  6  1  0
  8  4  1  0
  9 10  2  0
 11 12  1  0
 12 14  1  0
 13 12  2  0
 14 15  1  0
 16 17  1  0
 16 15  1  0
 18 17  1  6
 18 20  1  0
 19  9  1  0
 19 18  1  0
 20 21  2  0
 22 23  1  0
 22 20  1  0
 23 26  1  0
 23 24  1  1
 25 24  1  0
 26 27  2  0
 26 28  1  0
M  END
$$$$
