HRC.pdb
     RDKit          3D

 28 28  0  0  1  0  0  0  0  0999 V2000
    7.9091  -16.8808   19.6996 N   0  0  0  0  0  0  0  0  0  0  0  0
    8.8539  -16.6536   20.8035 C   0  0  1  0  0  0  0  0  0  0  0  0
    9.6857  -15.4639   20.3370 C   0  0  0  0  0  0  0  0  0  0  0  0
    8.7450  -14.4907   19.7268 C   0  0  0  0  0  0  0  0  0  0  0  0
    7.4058  -14.6575   19.4430 C   0  0  0  0  0  0  0  0  0  0  0  0
    6.9294  -13.5276   18.8914 N   0  0  0  0  0  0  0  0  0  0  0  0
    7.9685  -12.6631   18.8334 C   0  0  0  0  0  0  0  0  0  0  0  0
    9.0548  -13.2442   19.3349 N   0  0  0  0  0  0  0  0  0  0  0  0
    8.0564  -16.3179   22.0021 C   0  0  0  0  0  0  0  0  0  0  0  0
    6.8839  -15.9065   21.8601 O   0  0  0  0  0  0  0  0  0  0  0  0
    7.9249  -21.7718   24.0668 N   0  0  0  0  0  0  0  0  0  0  0  0
    6.6332  -21.8841   24.6615 C   0  0  0  0  0  0  0  0  0  0  0  0
    5.8366  -22.8217   24.3045 N   0  0  0  0  0  0  0  0  0  0  0  0
    6.2460  -20.9514   25.6458 N   0  0  0  0  0  0  0  0  0  0  0  0
    7.1207  -19.8362   25.9951 C   0  0  0  0  0  0  0  0  0  0  0  0
    7.0488  -18.7813   24.9229 C   0  0  0  0  0  0  0  0  0  0  0  0
    7.6137  -17.5079   25.3866 C   0  0  0  0  0  0  0  0  0  0  0  0
    7.6529  -16.3416   24.4888 C   0  0  2  0  0  0  0  0  0  0  0  0
    8.5194  -16.4254   23.3448 N   0  0  0  0  0  0  0  0  0  0  0  0
    8.2317  -15.2158   25.3300 C   0  0  0  0  0  0  0  0  0  0  0  0
    9.4656  -15.0177   25.4296 O   0  0  0  0  0  0  0  0  0  0  0  0
    4.8862  -22.9684   24.6967 N   0  0  0  0  0  0  0  0  0  0  0  0
    7.3766  -14.3387   26.0405 C   0  0  2  0  0  0  0  0  0  0  0  0
    7.8783  -13.3283   26.9574 C   0  0  0  0  0  0  0  0  0  0  0  0
    6.7457  -12.4358   27.4421 S   0  0  0  0  0  0  0  0  0  0  0  0
    5.5770  -12.0709   26.1325 C   0  0  0  0  0  0  0  0  0  0  0  0
    8.5800  -13.9652   28.0962 O   0  0  0  0  0  0  0  0  0  0  0  0
    8.5471  -15.2150   28.1998 O   0  0  0  0  0  0  0  0  0  0  0  0
  2  1  1  6
  2  9  1  0
  3  2  1  0
  4  5  2  0
  4  3  1  0
  6  5  1  0
  7  8  2  0
  7  6  1  0
  8  4  1  0
  9 10  2  0
 11 12  1  0
 12 14  1  0
 13 12  2  0
 14 15  1  0
 16 17  1  0
 16 15  1  0
 18 17  1  1
 18 20  1  0
 19  9  1  0
 19 18  1  0
 20 21  2  0
 22 23  1  0
 22 20  1  0
 23 26  1  0
 23 24  1  6
 25 24  1  0
 26 27  2  0
 26 28  1  0
M  END
$$$$
