HRC.pdb
     RDKit          3D

 28 28  0  0  1  0  0  0  0  0999 V2000
    6.8673  -21.6310   12.9600 N   0  0  0  0  0  0  0  0  0  0  0  0
    8.0666  -20.7972   13.1304 C   0  0  1  0  0  0  0  0  0  0  0  0
    7.5176  -19.4541   13.5990 C   0  0  0  0  0  0  0  0  0  0  0  0
    6.9670  -18.7701   12.4017 C   0  0  0  0  0  0  0  0  0  0  0  0
    6.9705  -19.2020   11.0920 C   0  0  0  0  0  0  0  0  0  0  0  0
    6.3701  -18.2772   10.3226 N   0  0  0  0  0  0  0  0  0  0  0  0
    5.9954  -17.2755   11.1513 C   0  0  0  0  0  0  0  0  0  0  0  0
    6.3551  -17.5748   12.3964 N   0  0  0  0  0  0  0  0  0  0  0  0
    8.8994  -21.4334   14.1729 C   0  0  0  0  0  0  0  0  0  0  0  0
    8.3546  -21.8554   15.2166 O   0  0  0  0  0  0  0  0  0  0  0  0
   16.1951  -23.8760   11.3086 N   0  0  0  0  0  0  0  0  0  0  0  0
   15.1101  -24.7658   11.0519 C   0  0  0  0  0  0  0  0  0  0  0  0
   15.1668  -25.5877   10.0708 N   0  0  0  0  0  0  0  0  0  0  0  0
   13.9772  -24.7290   11.8908 N   0  0  0  0  0  0  0  0  0  0  0  0
   13.8953  -23.7647   12.9836 C   0  0  0  0  0  0  0  0  0  0  0  0
   12.4852  -23.7146   13.5098 C   0  0  0  0  0  0  0  0  0  0  0  0
   12.3838  -22.8413   14.6857 C   0  0  0  0  0  0  0  0  0  0  0  0
   11.0792  -22.2958   15.0959 C   0  0  2  0  0  0  0  0  0  0  0  0
   10.3099  -21.6140   14.0909 N   0  0  0  0  0  0  0  0  0  0  0  0
   11.4053  -21.2255   16.1247 C   0  0  0  0  0  0  0  0  0  0  0  0
   11.5193  -20.0145   15.8212 O   0  0  0  0  0  0  0  0  0  0  0  0
   14.3963  -26.2257    9.7915 N   0  0  0  0  0  0  0  0  0  0  0  0
   11.5931  -21.5717   17.4849 C   0  0  1  0  0  0  0  0  0  0  0  0
   11.8426  -20.5798   18.5180 C   0  0  0  0  0  0  0  0  0  0  0  0
   10.6722  -20.5104   19.4872 S   0  0  0  0  0  0  0  0  0  0  0  0
   10.8494  -19.1583   20.6512 C   0  0  0  0  0  0  0  0  0  0  0  0
   13.1070  -20.8799   19.2294 O   0  0  0  0  0  0  0  0  0  0  0  0
   13.4823  -22.0741   19.3108 O   0  0  0  0  0  0  0  0  0  0  0  0
  2  1  1  1
  2  9  1  0
  3  2  1  0
  4  5  2  0
  4  3  1  0
  6  5  1  0
  7  8  2  0
  7  6  1  0
  8  4  1  0
  9 10  2  0
 11 12  1  0
 12 14  1  0
 13 12  2  0
 14 15  1  0
 16 17  1  0
 16 15  1  0
 18 17  1  6
 18 20  1  0
 19  9  1  0
 19 18  1  0
 20 21  2  0
 22 23  1  0
 22 20  1  0
 23 26  1  0
 23 24  1  1
 25 24  1  0
 26 27  2  0
 26 28  1  0
M  END
$$$$
