HRC.pdb
     RDKit          3D

 28 28  0  0  1  0  0  0  0  0999 V2000
    8.5963  -20.0383   24.1009 N   0  0  0  0  0  0  0  0  0  0  0  0
    7.6707  -19.0518   24.6778 C   0  0  1  0  0  0  0  0  0  0  0  0
    7.9526  -19.1140   26.1749 C   0  0  0  0  0  0  0  0  0  0  0  0
    7.3237  -20.3596   26.6824 C   0  0  0  0  0  0  0  0  0  0  0  0
    6.6145  -21.3090   25.9770 C   0  0  0  0  0  0  0  0  0  0  0  0
    6.2172  -22.2776   26.8207 N   0  0  0  0  0  0  0  0  0  0  0  0
    6.6781  -21.9308   28.0446 C   0  0  0  0  0  0  0  0  0  0  0  0
    7.3405  -20.7807   27.9574 N   0  0  0  0  0  0  0  0  0  0  0  0
    8.0286  -17.7324   24.1154 C   0  0  0  0  0  0  0  0  0  0  0  0
    9.2336  -17.4051   24.0447 O   0  0  0  0  0  0  0  0  0  0  0  0
    8.6531  -12.4430   17.8562 N   0  0  0  0  0  0  0  0  0  0  0  0
    8.4769  -13.8128   17.4992 C   0  0  0  0  0  0  0  0  0  0  0  0
    8.7411  -14.2098   16.3102 N   0  0  0  0  0  0  0  0  0  0  0  0
    8.0094  -14.7219   18.4706 N   0  0  0  0  0  0  0  0  0  0  0  0
    7.7187  -14.2714   19.8283 C   0  0  0  0  0  0  0  0  0  0  0  0
    7.0921  -15.3949   20.6112 C   0  0  0  0  0  0  0  0  0  0  0  0
    6.7332  -14.9657   21.9686 C   0  0  0  0  0  0  0  0  0  0  0  0
    7.4758  -15.4800   23.1313 C   0  0  2  0  0  0  0  0  0  0  0  0
    7.0939  -16.7723   23.6321 N   0  0  0  0  0  0  0  0  0  0  0  0
    7.1538  -14.5170   24.2623 C   0  0  0  0  0  0  0  0  0  0  0  0
    5.9809  -14.1658   24.5320 O   0  0  0  0  0  0  0  0  0  0  0  0
    8.7434  -15.2035   16.0079 N   0  0  0  0  0  0  0  0  0  0  0  0
    8.1904  -13.9773   25.0618 C   0  0  1  0  0  0  0  0  0  0  0  0
    7.9338  -13.0732   26.1709 C   0  0  0  0  0  0  0  0  0  0  0  0
    6.4491  -12.7574   26.2714 S   0  0  0  0  0  0  0  0  0  0  0  0
    6.0730  -11.7750   27.7232 C   0  0  0  0  0  0  0  0  0  0  0  0
    8.4433  -13.6493   27.4371 O   0  0  0  0  0  0  0  0  0  0  0  0
    8.3778  -12.9576   28.4817 O   0  0  0  0  0  0  0  0  0  0  0  0
  2  1  1  6
  2  9  1  0
  3  2  1  0
  4  5  2  0
  4  3  1  0
  6  5  1  0
  7  8  2  0
  7  6  1  0
  8  4  1  0
  9 10  2  0
 11 12  1  0
 12 14  1  0
 13 12  2  0
 14 15  1  0
 16 17  1  0
 16 15  1  0
 18 17  1  6
 18 20  1  0
 19  9  1  0
 19 18  1  0
 20 21  2  0
 22 23  1  0
 22 20  1  0
 23 26  1  0
 23 24  1  6
 25 24  1  0
 26 27  2  0
 26 28  1  0
M  END
$$$$
