HRC.pdb
     RDKit          3D

 28 28  0  0  1  0  0  0  0  0999 V2000
   13.5470  -18.3281   13.8675 N   0  0  0  0  0  0  0  0  0  0  0  0
   14.5487  -19.1271   14.5893 C   0  0  1  0  0  0  0  0  0  0  0  0
   15.6448  -18.1231   14.9294 C   0  0  0  0  0  0  0  0  0  0  0  0
   16.4210  -17.8917   13.6851 C   0  0  0  0  0  0  0  0  0  0  0  0
   17.2960  -18.7480   13.0505 C   0  0  0  0  0  0  0  0  0  0  0  0
   17.7857  -18.1431   11.9542 N   0  0  0  0  0  0  0  0  0  0  0  0
   17.2168  -16.9164   11.9084 C   0  0  0  0  0  0  0  0  0  0  0  0
   16.3996  -16.7697   12.9476 N   0  0  0  0  0  0  0  0  0  0  0  0
   13.8976  -19.6495   15.8093 C   0  0  0  0  0  0  0  0  0  0  0  0
   13.0671  -18.9348   16.4123 O   0  0  0  0  0  0  0  0  0  0  0  0
   12.2933  -25.8037   14.0298 N   0  0  0  0  0  0  0  0  0  0  0  0
   13.5706  -26.2486   14.4826 C   0  0  0  0  0  0  0  0  0  0  0  0
   14.3490  -26.8897   13.6925 N   0  0  0  0  0  0  0  0  0  0  0  0
   13.9643  -25.9737   15.8085 N   0  0  0  0  0  0  0  0  0  0  0  0
   13.0879  -25.2211   16.7009 C   0  0  0  0  0  0  0  0  0  0  0  0
   13.1617  -23.7550   16.3652 C   0  0  0  0  0  0  0  0  0  0  0  0
   13.2938  -22.9350   17.5759 C   0  0  0  0  0  0  0  0  0  0  0  0
   13.3828  -21.4689   17.4743 C   0  0  2  0  0  0  0  0  0  0  0  0
   14.1398  -20.9340   16.3754 N   0  0  0  0  0  0  0  0  0  0  0  0
   14.1437  -21.0331   18.7158 C   0  0  0  0  0  0  0  0  0  0  0  0
   15.3707  -20.7765   18.6960 O   0  0  0  0  0  0  0  0  0  0  0  0
   15.3094  -27.2011   13.9362 N   0  0  0  0  0  0  0  0  0  0  0  0
   13.4753  -20.9007   19.9571 C   0  0  1  0  0  0  0  0  0  0  0  0
   14.1337  -20.3960   21.1509 C   0  0  0  0  0  0  0  0  0  0  0  0
   13.1402  -19.6658   22.0419 S   0  0  0  0  0  0  0  0  0  0  0  0
   12.5887  -18.1273   21.3048 C   0  0  0  0  0  0  0  0  0  0  0  0
   14.7953  -21.5007   21.8836 O   0  0  0  0  0  0  0  0  0  0  0  0
   14.5152  -22.6827   21.5703 O   0  0  0  0  0  0  0  0  0  0  0  0
  2  1  1  6
  2  9  1  0
  3  2  1  0
  4  5  2  0
  4  3  1  0
  6  5  1  0
  7  8  2  0
  7  6  1  0
  8  4  1  0
  9 10  2  0
 11 12  1  0
 12 14  1  0
 13 12  2  0
 14 15  1  0
 16 17  1  0
 16 15  1  0
 18 17  1  6
 18 20  1  0
 19  9  1  0
 19 18  1  0
 20 21  2  0
 22 23  1  0
 22 20  1  0
 23 26  1  0
 23 24  1  6
 25 24  1  0
 26 27  2  0
 26 28  1  0
M  END
$$$$
