HRC.pdb
     RDKit          3D

 28 28  0  0  1  0  0  0  0  0999 V2000
    7.9355  -17.1498   18.7704 N   0  0  0  0  0  0  0  0  0  0  0  0
    8.3818  -15.9173   19.4371 C   0  0  1  0  0  0  0  0  0  0  0  0
    7.3798  -14.8651   18.9745 C   0  0  0  0  0  0  0  0  0  0  0  0
    7.7465  -14.5006   17.5827 C   0  0  0  0  0  0  0  0  0  0  0  0
    8.7538  -15.0224   16.7985 C   0  0  0  0  0  0  0  0  0  0  0  0
    8.7420  -14.4088   15.6022 N   0  0  0  0  0  0  0  0  0  0  0  0
    7.7314  -13.5102   15.6436 C   0  0  0  0  0  0  0  0  0  0  0  0
    7.1375  -13.5683   16.8323 N   0  0  0  0  0  0  0  0  0  0  0  0
    8.2886  -16.1477   20.8943 C   0  0  0  0  0  0  0  0  0  0  0  0
    7.2150  -16.5682   21.3788 O   0  0  0  0  0  0  0  0  0  0  0  0
   10.9161  -21.3870   26.9470 N   0  0  0  0  0  0  0  0  0  0  0  0
   11.6905  -20.3507   26.3460 C   0  0  0  0  0  0  0  0  0  0  0  0
   12.6500  -20.6408   25.5483 N   0  0  0  0  0  0  0  0  0  0  0  0
   11.3861  -19.0057   26.6409 N   0  0  0  0  0  0  0  0  0  0  0  0
   11.6694  -17.9520   25.6713 C   0  0  0  0  0  0  0  0  0  0  0  0
   10.3837  -17.2873   25.2558 C   0  0  0  0  0  0  0  0  0  0  0  0
   10.3900  -16.9575   23.8251 C   0  0  0  0  0  0  0  0  0  0  0  0
    9.2498  -16.2484   23.2209 C   0  0  2  0  0  0  0  0  0  0  0  0
    9.3457  -15.9267   21.8231 N   0  0  0  0  0  0  0  0  0  0  0  0
    9.2050  -14.9021   23.9249 C   0  0  0  0  0  0  0  0  0  0  0  0
    9.4112  -13.8220   23.3226 O   0  0  0  0  0  0  0  0  0  0  0  0
   13.2080  -19.9424   25.0195 N   0  0  0  0  0  0  0  0  0  0  0  0
    8.9225  -14.8262   25.3104 C   0  0  2  0  0  0  0  0  0  0  0  0
    8.3745  -13.6325   25.9334 C   0  0  0  0  0  0  0  0  0  0  0  0
    7.1325  -13.1633   25.1909 S   0  0  0  0  0  0  0  0  0  0  0  0
    6.3556  -11.7679   26.0056 C   0  0  0  0  0  0  0  0  0  0  0  0
    8.0779  -13.8841   27.3629 O   0  0  0  0  0  0  0  0  0  0  0  0
    7.6782  -15.0237   27.7026 O   0  0  0  0  0  0  0  0  0  0  0  0
  2  1  1  6
  2  9  1  0
  3  2  1  0
  4  5  2  0
  4  3  1  0
  6  5  1  0
  7  8  2  0
  7  6  1  0
  8  4  1  0
  9 10  2  0
 11 12  1  0
 12 14  1  0
 13 12  2  0
 14 15  1  0
 16 17  1  0
 16 15  1  0
 18 17  1  1
 18 20  1  0
 19  9  1  0
 19 18  1  0
 20 21  2  0
 22 23  1  0
 22 20  1  0
 23 26  1  0
 23 24  1  6
 25 24  1  0
 26 27  2  0
 26 28  1  0
M  END
$$$$
