HRC.pdb
     RDKit          3D

 28 28  0  0  1  0  0  0  0  0999 V2000
    9.4801  -16.4392   17.3271 N   0  0  0  0  0  0  0  0  0  0  0  0
   10.1434  -15.3782   18.0999 C   0  0  1  0  0  0  0  0  0  0  0  0
    9.1267  -15.0173   19.1774 C   0  0  0  0  0  0  0  0  0  0  0  0
    8.2027  -14.0183   18.5833 C   0  0  0  0  0  0  0  0  0  0  0  0
    8.1833  -13.5314   17.2932 C   0  0  0  0  0  0  0  0  0  0  0  0
    7.1843  -12.6394   17.1750 N   0  0  0  0  0  0  0  0  0  0  0  0
    6.5859  -12.5732   18.3867 C   0  0  0  0  0  0  0  0  0  0  0  0
    7.1993  -13.4010   19.2279 N   0  0  0  0  0  0  0  0  0  0  0  0
   11.3678  -15.9625   18.6870 C   0  0  0  0  0  0  0  0  0  0  0  0
   11.3743  -17.1711   19.0087 O   0  0  0  0  0  0  0  0  0  0  0  0
   16.6883  -12.5695   16.4624 N   0  0  0  0  0  0  0  0  0  0  0  0
   17.2942  -13.6801   15.8033 C   0  0  0  0  0  0  0  0  0  0  0  0
   17.6864  -13.5750   14.5883 N   0  0  0  0  0  0  0  0  0  0  0  0
   17.4556  -14.8922   16.5057 N   0  0  0  0  0  0  0  0  0  0  0  0
   17.0193  -15.0082   17.8938 C   0  0  0  0  0  0  0  0  0  0  0  0
   15.5199  -14.8872   17.9650 C   0  0  0  0  0  0  0  0  0  0  0  0
   15.0257  -15.1527   19.3219 C   0  0  0  0  0  0  0  0  0  0  0  0
   13.7415  -15.8442   19.5229 C   0  0  2  0  0  0  0  0  0  0  0  0
   12.5773  -15.2489   18.9254 N   0  0  0  0  0  0  0  0  0  0  0  0
   13.4861  -15.7742   21.0196 C   0  0  0  0  0  0  0  0  0  0  0  0
   13.3960  -14.6859   21.6354 O   0  0  0  0  0  0  0  0  0  0  0  0
   18.2061  -14.3107   14.0713 N   0  0  0  0  0  0  0  0  0  0  0  0
   13.3385  -16.9607   21.7783 C   0  0  1  0  0  0  0  0  0  0  0  0
   13.0066  -16.9488   23.1935 C   0  0  0  0  0  0  0  0  0  0  0  0
   11.5565  -17.3562   23.4066 S   0  0  0  0  0  0  0  0  0  0  0  0
   10.4236  -16.0278   22.9985 C   0  0  0  0  0  0  0  0  0  0  0  0
   13.9252  -17.8327   23.9483 O   0  0  0  0  0  0  0  0  0  0  0  0
   14.7238  -18.5577   23.3077 O   0  0  0  0  0  0  0  0  0  0  0  0
  2  1  1  6
  2  9  1  0
  3  2  1  0
  4  5  2  0
  4  3  1  0
  6  5  1  0
  7  8  2  0
  7  6  1  0
  8  4  1  0
  9 10  2  0
 11 12  1  0
 12 14  1  0
 13 12  2  0
 14 15  1  0
 16 17  1  0
 16 15  1  0
 18 17  1  1
 18 20  1  0
 19  9  1  0
 19 18  1  0
 20 21  2  0
 22 23  1  0
 22 20  1  0
 23 26  1  0
 23 24  1  1
 25 24  1  0
 26 27  2  0
 26 28  1  0
M  END
$$$$
