HRC.pdb
     RDKit          3D

 28 28  0  0  1  0  0  0  0  0999 V2000
    7.7206  -16.7267   19.9029 N   0  0  0  0  0  0  0  0  0  0  0  0
    8.3331  -15.6708   20.7232 C   0  0  1  0  0  0  0  0  0  0  0  0
    7.3985  -14.4791   20.5467 C   0  0  0  0  0  0  0  0  0  0  0  0
    7.5834  -13.9859   19.1585 C   0  0  0  0  0  0  0  0  0  0  0  0
    6.6177  -13.6195   18.2447 C   0  0  0  0  0  0  0  0  0  0  0  0
    7.2158  -13.2339   17.1039 N   0  0  0  0  0  0  0  0  0  0  0  0
    8.5471  -13.3601   17.3090 C   0  0  0  0  0  0  0  0  0  0  0  0
    8.7632  -13.8112   18.5414 N   0  0  0  0  0  0  0  0  0  0  0  0
    8.3396  -16.1493   22.1218 C   0  0  0  0  0  0  0  0  0  0  0  0
    7.3073  -16.6763   22.5919 O   0  0  0  0  0  0  0  0  0  0  0  0
   12.1909  -20.0070   21.4341 N   0  0  0  0  0  0  0  0  0  0  0  0
   13.3298  -20.0627   22.2912 C   0  0  0  0  0  0  0  0  0  0  0  0
   14.4815  -20.3625   21.8168 N   0  0  0  0  0  0  0  0  0  0  0  0
   13.1714  -19.7837   23.6643 N   0  0  0  0  0  0  0  0  0  0  0  0
   11.8425  -19.5674   24.2282 C   0  0  0  0  0  0  0  0  0  0  0  0
   11.3973  -18.1563   23.9482 C   0  0  0  0  0  0  0  0  0  0  0  0
   10.1031  -17.8686   24.5789 C   0  0  0  0  0  0  0  0  0  0  0  0
    9.4357  -16.5764   24.3497 C   0  0  2  0  0  0  0  0  0  0  0  0
    9.4514  -16.0609   23.0078 N   0  0  0  0  0  0  0  0  0  0  0  0
   10.2366  -15.5699   25.1594 C   0  0  0  0  0  0  0  0  0  0  0  0
   10.9525  -14.6925   24.6215 O   0  0  0  0  0  0  0  0  0  0  0  0
   15.3643  -20.3542   22.3639 N   0  0  0  0  0  0  0  0  0  0  0  0
   10.1966  -15.5935   26.5747 C   0  0  1  0  0  0  0  0  0  0  0  0
    9.7638  -14.4525   27.3648 C   0  0  0  0  0  0  0  0  0  0  0  0
    8.3755  -14.0011   26.9371 S   0  0  0  0  0  0  0  0  0  0  0  0
    8.0518  -12.3020   27.4093 C   0  0  0  0  0  0  0  0  0  0  0  0
    9.7966  -14.7806   28.8091 O   0  0  0  0  0  0  0  0  0  0  0  0
   10.0720  -13.8697   29.6265 O   0  0  0  0  0  0  0  0  0  0  0  0
  2  1  1  6
  2  9  1  0
  3  2  1  0
  4  5  2  0
  4  3  1  0
  6  5  1  0
  7  8  2  0
  7  6  1  0
  8  4  1  0
  9 10  2  0
 11 12  1  0
 12 14  1  0
 13 12  2  0
 14 15  1  0
 16 17  1  0
 16 15  1  0
 18 17  1  6
 18 20  1  0
 19  9  1  0
 19 18  1  0
 20 21  2  0
 22 23  1  0
 22 20  1  0
 23 26  1  0
 23 24  1  1
 25 24  1  0
 26 27  2  0
 26 28  1  0
M  END
$$$$
