HRC.pdb
     RDKit          3D

 28 28  0  0  1  0  0  0  0  0999 V2000
    8.7791  -16.2484   20.1297 N   0  0  0  0  0  0  0  0  0  0  0  0
    8.5792  -15.0738   20.9918 C   0  0  1  0  0  0  0  0  0  0  0  0
    7.3064  -14.4322   20.4503 C   0  0  0  0  0  0  0  0  0  0  0  0
    7.6101  -13.9618   19.0751 C   0  0  0  0  0  0  0  0  0  0  0  0
    8.2245  -12.7895   18.6878 C   0  0  0  0  0  0  0  0  0  0  0  0
    8.3017  -12.7562   17.3459 N   0  0  0  0  0  0  0  0  0  0  0  0
    7.7379  -13.9033   16.9023 C   0  0  0  0  0  0  0  0  0  0  0  0
    7.3245  -14.6229   17.9417 N   0  0  0  0  0  0  0  0  0  0  0  0
    8.3892  -15.5690   22.3717 C   0  0  0  0  0  0  0  0  0  0  0  0
    7.2338  -15.8289   22.7737 O   0  0  0  0  0  0  0  0  0  0  0  0
   10.5744  -21.3029   22.2574 N   0  0  0  0  0  0  0  0  0  0  0  0
   10.8424  -21.7648   23.5801 C   0  0  0  0  0  0  0  0  0  0  0  0
   11.4591  -22.8723   23.7653 N   0  0  0  0  0  0  0  0  0  0  0  0
   10.4208  -20.9875   24.6786 N   0  0  0  0  0  0  0  0  0  0  0  0
    9.4787  -19.8884   24.4907 C   0  0  0  0  0  0  0  0  0  0  0  0
   10.2132  -18.6714   23.9937 C   0  0  0  0  0  0  0  0  0  0  0  0
   10.0848  -17.5490   24.9315 C   0  0  0  0  0  0  0  0  0  0  0  0
    9.2344  -16.3946   24.5968 C   0  0  2  0  0  0  0  0  0  0  0  0
    9.4377  -15.7830   23.3118 N   0  0  0  0  0  0  0  0  0  0  0  0
    9.6161  -15.3194   25.6010 C   0  0  0  0  0  0  0  0  0  0  0  0
   10.7001  -14.6929   25.5348 O   0  0  0  0  0  0  0  0  0  0  0  0
   11.6484  -23.2927   24.6960 N   0  0  0  0  0  0  0  0  0  0  0  0
    8.7404  -14.9860   26.6626 C   0  0  2  0  0  0  0  0  0  0  0  0
    9.0358  -13.9327   27.6198 C   0  0  0  0  0  0  0  0  0  0  0  0
    7.7532  -13.2703   28.0996 S   0  0  0  0  0  0  0  0  0  0  0  0
    6.7067  -12.7737   26.7311 C   0  0  0  0  0  0  0  0  0  0  0  0
    9.8159  -14.4713   28.7583 O   0  0  0  0  0  0  0  0  0  0  0  0
    9.9714  -15.7130   28.8467 O   0  0  0  0  0  0  0  0  0  0  0  0
  2  1  1  6
  2  9  1  0
  3  2  1  0
  4  5  2  0
  4  3  1  0
  6  5  1  0
  7  8  2  0
  7  6  1  0
  8  4  1  0
  9 10  2  0
 11 12  1  0
 12 14  1  0
 13 12  2  0
 14 15  1  0
 16 17  1  0
 16 15  1  0
 18 17  1  6
 18 20  1  0
 19  9  1  0
 19 18  1  0
 20 21  2  0
 22 23  1  0
 22 20  1  0
 23 26  1  0
 23 24  1  6
 25 24  1  0
 26 27  2  0
 26 28  1  0
M  END
$$$$
