HRC.pdb
     RDKit          3D

 28 28  0  0  1  0  0  0  0  0999 V2000
    4.8290  -23.8462   22.9468 N   0  0  0  0  0  0  0  0  0  0  0  0
    4.7667  -22.4851   23.5003 C   0  0  1  0  0  0  0  0  0  0  0  0
    3.8976  -22.6331   24.7443 C   0  0  0  0  0  0  0  0  0  0  0  0
    2.5113  -22.8856   24.2763 C   0  0  0  0  0  0  0  0  0  0  0  0
    1.7449  -24.0198   24.4433 C   0  0  0  0  0  0  0  0  0  0  0  0
    0.5474  -23.8306   23.8620 N   0  0  0  0  0  0  0  0  0  0  0  0
    0.5704  -22.5840   23.3367 C   0  0  0  0  0  0  0  0  0  0  0  0
    1.7492  -22.0211   23.5871 N   0  0  0  0  0  0  0  0  0  0  0  0
    6.1474  -22.0896   23.8502 C   0  0  0  0  0  0  0  0  0  0  0  0
    6.8217  -22.8264   24.6030 O   0  0  0  0  0  0  0  0  0  0  0  0
    8.8262  -19.4882   17.5725 N   0  0  0  0  0  0  0  0  0  0  0  0
    9.8146  -20.4309   17.9841 C   0  0  0  0  0  0  0  0  0  0  0  0
   10.2750  -21.2893   17.1520 N   0  0  0  0  0  0  0  0  0  0  0  0
   10.2771  -20.4049   19.3160 N   0  0  0  0  0  0  0  0  0  0  0  0
    9.6387  -19.5426   20.3057 C   0  0  0  0  0  0  0  0  0  0  0  0
    8.7936  -20.3754   21.2329 C   0  0  0  0  0  0  0  0  0  0  0  0
    8.9590  -19.9551   22.6299 C   0  0  0  0  0  0  0  0  0  0  0  0
    8.1657  -20.5897   23.6957 C   0  0  2  0  0  0  0  0  0  0  0  0
    6.7972  -20.9080   23.3914 N   0  0  0  0  0  0  0  0  0  0  0  0
    8.0836  -19.5479   24.7995 C   0  0  0  0  0  0  0  0  0  0  0  0
    7.0718  -18.8274   24.9691 O   0  0  0  0  0  0  0  0  0  0  0  0
   11.0327  -21.9673   17.3639 N   0  0  0  0  0  0  0  0  0  0  0  0
    9.1698  -19.3569   25.6876 C   0  0  2  0  0  0  0  0  0  0  0  0
    8.9881  -18.9398   27.0683 C   0  0  0  0  0  0  0  0  0  0  0  0
    8.0335  -19.8790   27.7899 S   0  0  0  0  0  0  0  0  0  0  0  0
    7.9532  -19.5282   29.5463 C   0  0  0  0  0  0  0  0  0  0  0  0
   10.2942  -18.8691   27.7641 O   0  0  0  0  0  0  0  0  0  0  0  0
   10.5741  -17.8332   28.4139 O   0  0  0  0  0  0  0  0  0  0  0  0
  2  1  1  1
  2  9  1  0
  3  2  1  0
  4  5  2  0
  4  3  1  0
  6  5  1  0
  7  8  2  0
  7  6  1  0
  8  4  1  0
  9 10  2  0
 11 12  1  0
 12 14  1  0
 13 12  2  0
 14 15  1  0
 16 17  1  0
 16 15  1  0
 18 17  1  6
 18 20  1  0
 19  9  1  0
 19 18  1  0
 20 21  2  0
 22 23  1  0
 22 20  1  0
 23 26  1  0
 23 24  1  6
 25 24  1  0
 26 27  2  0
 26 28  1  0
M  END
$$$$
