HRC.pdb
     RDKit          3D

 28 28  0  0  1  0  0  0  0  0999 V2000
    6.3004  -17.2755   25.7969 N   0  0  0  0  0  0  0  0  0  0  0  0
    6.6265  -15.9359   25.2851 C   0  0  1  0  0  0  0  0  0  0  0  0
    7.6200  -15.3851   26.3021 C   0  0  0  0  0  0  0  0  0  0  0  0
    7.1314  -14.0407   26.7002 C   0  0  0  0  0  0  0  0  0  0  0  0
    5.9909  -13.3868   26.2839 C   0  0  0  0  0  0  0  0  0  0  0  0
    5.9270  -12.1871   26.8874 N   0  0  0  0  0  0  0  0  0  0  0  0
    7.0232  -12.0968   27.6752 C   0  0  0  0  0  0  0  0  0  0  0  0
    7.7425  -13.2097   27.5600 N   0  0  0  0  0  0  0  0  0  0  0  0
    7.2543  -16.1134   23.9586 C   0  0  0  0  0  0  0  0  0  0  0  0
    7.8884  -17.1644   23.7186 O   0  0  0  0  0  0  0  0  0  0  0  0
    9.2951  -15.5008   16.8882 N   0  0  0  0  0  0  0  0  0  0  0  0
    8.4662  -14.4662   16.3616 C   0  0  0  0  0  0  0  0  0  0  0  0
    8.5051  -14.1793   15.1137 N   0  0  0  0  0  0  0  0  0  0  0  0
    7.6052  -13.7654   17.2311 N   0  0  0  0  0  0  0  0  0  0  0  0
    8.1137  -13.1887   18.4719 C   0  0  0  0  0  0  0  0  0  0  0  0
    8.5254  -14.2914   19.4112 C   0  0  0  0  0  0  0  0  0  0  0  0
    7.7247  -14.2727   20.6418 C   0  0  0  0  0  0  0  0  0  0  0  0
    7.8707  -15.3454   21.6397 C   0  0  2  0  0  0  0  0  0  0  0  0
    7.1987  -15.1647   22.8976 N   0  0  0  0  0  0  0  0  0  0  0  0
    9.3496  -15.3589   21.9904 C   0  0  0  0  0  0  0  0  0  0  0  0
    9.8105  -14.7452   22.9817 O   0  0  0  0  0  0  0  0  0  0  0  0
    7.9266  -13.4459   14.6596 N   0  0  0  0  0  0  0  0  0  0  0  0
   10.2696  -16.0807   21.1917 C   0  0  2  0  0  0  0  0  0  0  0  0
   11.5844  -16.4725   21.6722 C   0  0  0  0  0  0  0  0  0  0  0  0
   11.4621  -17.3692   22.8950 S   0  0  0  0  0  0  0  0  0  0  0  0
   13.0547  -18.0057   23.4173 C   0  0  0  0  0  0  0  0  0  0  0  0
   12.3513  -17.1410   20.5953 O   0  0  0  0  0  0  0  0  0  0  0  0
   11.7495  -17.9336   19.8315 O   0  0  0  0  0  0  0  0  0  0  0  0
  2  1  1  1
  2  9  1  0
  3  2  1  0
  4  5  2  0
  4  3  1  0
  6  5  1  0
  7  8  2  0
  7  6  1  0
  8  4  1  0
  9 10  2  0
 11 12  1  0
 12 14  1  0
 13 12  2  0
 14 15  1  0
 16 17  1  0
 16 15  1  0
 18 17  1  6
 18 20  1  0
 19  9  1  0
 19 18  1  0
 20 21  2  0
 22 23  1  0
 22 20  1  0
 23 26  1  0
 23 24  1  6
 25 24  1  0
 26 27  2  0
 26 28  1  0
M  END
$$$$
