HRC.pdb
     RDKit          3D

 28 28  0  0  1  0  0  0  0  0999 V2000
   12.9296  -17.1481   20.2552 N   0  0  0  0  0  0  0  0  0  0  0  0
   12.3038  -17.8432   21.3901 C   0  0  1  0  0  0  0  0  0  0  0  0
   13.4538  -18.6141   22.0289 C   0  0  0  0  0  0  0  0  0  0  0  0
   13.5029  -19.9435   21.3694 C   0  0  0  0  0  0  0  0  0  0  0  0
   12.7497  -21.0648   21.6470 C   0  0  0  0  0  0  0  0  0  0  0  0
   13.1140  -22.0560   20.8148 N   0  0  0  0  0  0  0  0  0  0  0  0
   14.0891  -21.5519   20.0239 C   0  0  0  0  0  0  0  0  0  0  0  0
   14.3193  -20.2856   20.3596 N   0  0  0  0  0  0  0  0  0  0  0  0
   11.7757  -16.8070   22.3027 C   0  0  0  0  0  0  0  0  0  0  0  0
   12.4998  -15.8332   22.6054 O   0  0  0  0  0  0  0  0  0  0  0  0
    7.8509  -12.6103   19.6873 N   0  0  0  0  0  0  0  0  0  0  0  0
    7.8053  -13.9769   19.2810 C   0  0  0  0  0  0  0  0  0  0  0  0
    8.1856  -14.3145   18.1051 N   0  0  0  0  0  0  0  0  0  0  0  0
    7.3375  -14.9491   20.1890 N   0  0  0  0  0  0  0  0  0  0  0  0
    6.9863  -14.5780   21.5564 C   0  0  0  0  0  0  0  0  0  0  0  0
    8.2386  -14.2777   22.3369 C   0  0  0  0  0  0  0  0  0  0  0  0
    8.5301  -15.3385   23.3093 C   0  0  0  0  0  0  0  0  0  0  0  0
    9.9232  -15.7087   23.6099 C   0  0  2  0  0  0  0  0  0  0  0  0
   10.4757  -16.8202   22.8847 N   0  0  0  0  0  0  0  0  0  0  0  0
    9.9060  -16.1638   25.0600 C   0  0  0  0  0  0  0  0  0  0  0  0
    9.8313  -17.3726   25.3837 O   0  0  0  0  0  0  0  0  0  0  0  0
    8.1811  -15.2872   17.7412 N   0  0  0  0  0  0  0  0  0  0  0  0
    9.9761  -15.2163   26.1100 C   0  0  2  0  0  0  0  0  0  0  0  0
    9.9328  -15.5970   27.5122 C   0  0  0  0  0  0  0  0  0  0  0  0
    9.6178  -14.3913   28.3847 S   0  0  0  0  0  0  0  0  0  0  0  0
   10.7535  -13.0366   28.0856 C   0  0  0  0  0  0  0  0  0  0  0  0
    8.9456  -16.6811   27.7243 O   0  0  0  0  0  0  0  0  0  0  0  0
    9.0640  -17.4127   28.7365 O   0  0  0  0  0  0  0  0  0  0  0  0
  2  1  1  6
  2  9  1  0
  3  2  1  0
  4  5  2  0
  4  3  1  0
  6  5  1  0
  7  8  2  0
  7  6  1  0
  8  4  1  0
  9 10  2  0
 11 12  1  0
 12 14  1  0
 13 12  2  0
 14 15  1  0
 16 17  1  0
 16 15  1  0
 18 17  1  6
 18 20  1  0
 19  9  1  0
 19 18  1  0
 20 21  2  0
 22 23  1  0
 22 20  1  0
 23 26  1  0
 23 24  1  6
 25 24  1  0
 26 27  2  0
 26 28  1  0
M  END
$$$$
