HRC.pdb
     RDKit          3D

 28 28  0  0  1  0  0  0  0  0999 V2000
    5.4133  -16.9155   21.1743 N   0  0  0  0  0  0  0  0  0  0  0  0
    6.6793  -16.1671   21.1692 C   0  0  1  0  0  0  0  0  0  0  0  0
    6.2442  -14.7074   21.2380 C   0  0  0  0  0  0  0  0  0  0  0  0
    7.2693  -13.9155   20.5122 C   0  0  0  0  0  0  0  0  0  0  0  0
    8.3998  -14.3678   19.8648 C   0  0  0  0  0  0  0  0  0  0  0  0
    9.0557  -13.3178   19.3404 N   0  0  0  0  0  0  0  0  0  0  0  0
    8.3352  -12.2184   19.6609 C   0  0  0  0  0  0  0  0  0  0  0  0
    7.2654  -12.5810   20.3633 N   0  0  0  0  0  0  0  0  0  0  0  0
    7.4293  -16.5646   22.3794 C   0  0  0  0  0  0  0  0  0  0  0  0
    6.8011  -16.8281   23.4283 O   0  0  0  0  0  0  0  0  0  0  0  0
   12.9604  -21.8040   24.6666 N   0  0  0  0  0  0  0  0  0  0  0  0
   13.5415  -20.8710   25.5757 C   0  0  0  0  0  0  0  0  0  0  0  0
   13.9777  -21.2642   26.7143 N   0  0  0  0  0  0  0  0  0  0  0  0
   13.6294  -19.5133   25.2051 N   0  0  0  0  0  0  0  0  0  0  0  0
   12.8895  -19.0105   24.0515 C   0  0  0  0  0  0  0  0  0  0  0  0
   11.6434  -18.3050   24.5176 C   0  0  0  0  0  0  0  0  0  0  0  0
   10.8450  -17.8241   23.3831 C   0  0  0  0  0  0  0  0  0  0  0  0
    9.5359  -17.1902   23.6116 C   0  0  2  0  0  0  0  0  0  0  0  0
    8.8470  -16.6777   22.4585 N   0  0  0  0  0  0  0  0  0  0  0  0
    9.8339  -15.9645   24.4596 C   0  0  0  0  0  0  0  0  0  0  0  0
    9.8949  -14.8103   23.9740 O   0  0  0  0  0  0  0  0  0  0  0  0
   14.4542  -20.6529   27.4056 N   0  0  0  0  0  0  0  0  0  0  0  0
   10.0555  -16.0926   25.8524 C   0  0  2  0  0  0  0  0  0  0  0  0
    9.9508  -14.9687   26.7684 C   0  0  0  0  0  0  0  0  0  0  0  0
    8.5830  -14.3124   26.6563 S   0  0  0  0  0  0  0  0  0  0  0  0
    8.3723  -13.0002   27.8596 C   0  0  0  0  0  0  0  0  0  0  0  0
   10.2199  -15.4064   28.1580 O   0  0  0  0  0  0  0  0  0  0  0  0
    9.9195  -16.5788   28.4880 O   0  0  0  0  0  0  0  0  0  0  0  0
  2  1  1  1
  2  9  1  0
  3  2  1  0
  4  5  2  0
  4  3  1  0
  6  5  1  0
  7  8  2  0
  7  6  1  0
  8  4  1  0
  9 10  2  0
 11 12  1  0
 12 14  1  0
 13 12  2  0
 14 15  1  0
 16 17  1  0
 16 15  1  0
 18 17  1  6
 18 20  1  0
 19  9  1  0
 19 18  1  0
 20 21  2  0
 22 23  1  0
 22 20  1  0
 23 26  1  0
 23 24  1  1
 25 24  1  0
 26 27  2  0
 26 28  1  0
M  END
$$$$
