SNC.pdb
     RDKit          3D

 21 20  0  0  1  0  0  0  0  0999 V2000
    8.2769  -12.8027   17.6367 O   0  0  0  0  0  0  0  0  0  0  0  0
    7.6289  -13.3508   16.5303 C   0  0  0  0  0  0  0  0  0  0  0  0
    8.4085  -14.5538   16.0341 C   0  0  2  0  0  0  0  0  0  0  0  0
    7.8162  -15.0055   14.8089 N   0  0  0  0  0  0  0  0  0  0  0  0
    8.3811  -15.6510   17.0691 C   0  0  0  0  0  0  0  0  0  0  0  0
    7.4500  -16.4610   17.0660 O   0  0  0  0  0  0  0  0  0  0  0  0
   12.3303  -18.4931   20.7879 N   0  0  0  0  0  0  0  0  0  0  0  0
   11.1361  -18.4186   20.0413 C   0  0  0  0  0  0  0  0  0  0  0  0
   10.2390  -19.2710   20.3728 O   0  0  0  0  0  0  0  0  0  0  0  0
   10.9540  -17.4225   18.9599 C   0  0  0  0  0  0  0  0  0  0  0  0
    9.6596  -16.6461   19.0582 C   0  0  2  0  0  0  0  0  0  0  0  0
    9.3973  -15.7271   17.9962 N   0  0  0  0  0  0  0  0  0  0  0  0
    9.7272  -15.9068   20.3369 C   0  0  0  0  0  0  0  0  0  0  0  0
   10.5125  -14.8928   20.4480 O   0  0  0  0  0  0  0  0  0  0  0  0
    8.9963  -16.2023   21.4947 N   0  0  0  0  0  0  0  0  0  0  0  0
    9.1039  -15.4710   22.7160 C   0  0  1  0  0  0  0  0  0  0  0  0
    7.7631  -15.0082   23.2470 C   0  0  0  0  0  0  0  0  0  0  0  0
    8.0902  -14.0264   24.7413 S   0  0  0  0  0  0  0  0  0  0  0  0
    9.8662  -16.1842   23.7640 C   0  0  0  0  0  0  0  0  0  0  0  0
   10.0065  -17.4327   23.7109 O   0  0  0  0  0  0  0  0  0  0  0  0
   10.4512  -15.5329   24.8326 O   0  0  0  0  0  0  0  0  0  0  0  0
  2  3  1  0
  2  1  1  0
  3  5  1  0
  3  4  1  6
  5  6  2  0
  7  8  1  0
  8 10  1  0
  8  9  2  0
 11 10  1  6
 11 13  1  0
 12 11  1  0
 12  5  1  0
 13 15  1  0
 14 13  2  0
 15 16  1  0
 16 17  1  1
 17 18  1  0
 19 21  1  0
 19 16  1  0
 20 19  2  0
M  END
$$$$
