SNC.pdb
     RDKit          3D

 21 20  0  0  1  0  0  0  0  0999 V2000
   10.2138  -13.4395   20.5578 O   0  0  0  0  0  0  0  0  0  0  0  0
    9.4771  -14.4131   19.8839 C   0  0  0  0  0  0  0  0  0  0  0  0
    7.9961  -14.1565   20.0888 C   0  0  2  0  0  0  0  0  0  0  0  0
    7.7206  -12.7902   19.7523 N   0  0  0  0  0  0  0  0  0  0  0  0
    7.6165  -14.4335   21.5223 C   0  0  0  0  0  0  0  0  0  0  0  0
    7.3600  -13.4879   22.2727 O   0  0  0  0  0  0  0  0  0  0  0  0
    6.5097  -17.5120   25.7003 N   0  0  0  0  0  0  0  0  0  0  0  0
    6.7291  -18.3559   24.5917 C   0  0  0  0  0  0  0  0  0  0  0  0
    6.5513  -19.6038   24.8207 O   0  0  0  0  0  0  0  0  0  0  0  0
    7.1340  -17.8190   23.2718 C   0  0  0  0  0  0  0  0  0  0  0  0
    7.2050  -16.3088   23.2239 C   0  0  2  0  0  0  0  0  0  0  0  0
    7.5626  -15.7373   21.9643 N   0  0  0  0  0  0  0  0  0  0  0  0
    8.2074  -15.9184   24.2384 C   0  0  0  0  0  0  0  0  0  0  0  0
    9.4535  -15.8682   23.9191 O   0  0  0  0  0  0  0  0  0  0  0  0
    7.9373  -15.5814   25.5708 N   0  0  0  0  0  0  0  0  0  0  0  0
    8.8931  -14.9994   26.4574 C   0  0  1  0  0  0  0  0  0  0  0  0
    8.3292  -13.8431   27.2567 C   0  0  0  0  0  0  0  0  0  0  0  0
    9.6980  -13.1492   28.2309 S   0  0  0  0  0  0  0  0  0  0  0  0
    9.5467  -15.9839   27.3471 C   0  0  0  0  0  0  0  0  0  0  0  0
   10.5660  -15.6643   28.0104 O   0  0  0  0  0  0  0  0  0  0  0  0
    9.0839  -17.2772   27.4939 O   0  0  0  0  0  0  0  0  0  0  0  0
  2  3  1  0
  2  1  1  0
  3  5  1  0
  3  4  1  1
  5  6  2  0
  7  8  1  0
  8 10  1  0
  8  9  2  0
 11 10  1  6
 11 13  1  0
 12 11  1  0
 12  5  1  0
 13 15  1  0
 14 13  2  0
 15 16  1  0
 16 17  1  1
 17 18  1  0
 19 21  1  0
 19 16  1  0
 20 19  2  0
M  END
$$$$
