SNC.pdb
     RDKit          3D

 21 20  0  0  1  0  0  0  0  0999 V2000
   13.2417  -13.8425   19.4563 O   0  0  0  0  0  0  0  0  0  0  0  0
   12.0562  -14.1031   20.1428 C   0  0  0  0  0  0  0  0  0  0  0  0
   11.7437  -15.5855   20.0647 C   0  0  2  0  0  0  0  0  0  0  0  0
   11.1346  -15.8553   18.7950 N   0  0  0  0  0  0  0  0  0  0  0  0
   10.8172  -15.9788   21.1884 C   0  0  0  0  0  0  0  0  0  0  0  0
    9.5991  -15.8457   21.0415 O   0  0  0  0  0  0  0  0  0  0  0  0
   10.5689  -20.5111   23.5926 N   0  0  0  0  0  0  0  0  0  0  0  0
   11.4463  -19.4429   23.3127 C   0  0  0  0  0  0  0  0  0  0  0  0
   12.2059  -19.6213   22.2968 O   0  0  0  0  0  0  0  0  0  0  0  0
   11.4709  -18.2166   24.1436 C   0  0  0  0  0  0  0  0  0  0  0  0
   10.7459  -17.0440   23.5211 C   0  0  2  0  0  0  0  0  0  0  0  0
   11.3501  -16.4800   22.3558 N   0  0  0  0  0  0  0  0  0  0  0  0
   10.6652  -16.0116   24.5765 C   0  0  0  0  0  0  0  0  0  0  0  0
   11.7014  -15.3005   24.8552 O   0  0  0  0  0  0  0  0  0  0  0  0
    9.5320  -15.7082   25.3419 N   0  0  0  0  0  0  0  0  0  0  0  0
    9.5103  -14.7352   26.3863 C   0  0  1  0  0  0  0  0  0  0  0  0
    8.2016  -13.9763   26.4590 C   0  0  0  0  0  0  0  0  0  0  0  0
    8.3689  -12.7487   27.7891 S   0  0  0  0  0  0  0  0  0  0  0  0
    9.8729  -15.2851   27.7108 C   0  0  0  0  0  0  0  0  0  0  0  0
   10.1273  -14.5151   28.6719 O   0  0  0  0  0  0  0  0  0  0  0  0
    9.9501  -16.6421   27.9578 O   0  0  0  0  0  0  0  0  0  0  0  0
  2  3  1  0
  2  1  1  0
  3  5  1  0
  3  4  1  6
  5  6  2  0
  7  8  1  0
  8 10  1  0
  8  9  2  0
 11 10  1  1
 11 13  1  0
 12 11  1  0
 12  5  1  0
 13 15  1  0
 14 13  2  0
 15 16  1  0
 16 17  1  1
 17 18  1  0
 19 21  1  0
 19 16  1  0
 20 19  2  0
M  END
$$$$
