SNC.pdb
     RDKit          3D

 21 20  0  0  1  0  0  0  0  0999 V2000
    8.3370  -14.1769   16.8187 O   0  0  0  0  0  0  0  0  0  0  0  0
    7.5445  -13.6198   17.8218 C   0  0  0  0  0  0  0  0  0  0  0  0
    8.4280  -13.1628   18.9671 C   0  0  2  0  0  0  0  0  0  0  0  0
    9.5162  -12.4019   18.4260 N   0  0  0  0  0  0  0  0  0  0  0  0
    8.9469  -14.3571   19.7287 C   0  0  0  0  0  0  0  0  0  0  0  0
    8.1481  -15.1983   20.1498 O   0  0  0  0  0  0  0  0  0  0  0  0
   13.3999  -14.3613   18.1040 N   0  0  0  0  0  0  0  0  0  0  0  0
   12.8581  -15.4945   18.7457 C   0  0  0  0  0  0  0  0  0  0  0  0
   12.6443  -16.4977   17.9782 O   0  0  0  0  0  0  0  0  0  0  0  0
   12.5662  -15.5024   20.1980 C   0  0  0  0  0  0  0  0  0  0  0  0
   11.0889  -15.5245   20.5225 C   0  0  2  0  0  0  0  0  0  0  0  0
   10.3026  -14.4850   19.9375 N   0  0  0  0  0  0  0  0  0  0  0  0
   10.9967  -15.4352   21.9955 C   0  0  0  0  0  0  0  0  0  0  0  0
   11.8523  -14.7281   22.6475 O   0  0  0  0  0  0  0  0  0  0  0  0
   10.0357  -16.0648   22.7967 N   0  0  0  0  0  0  0  0  0  0  0  0
   10.0044  -15.9816   24.2216 C   0  0  1  0  0  0  0  0  0  0  0  0
    8.6118  -15.7468   24.7688 C   0  0  0  0  0  0  0  0  0  0  0  0
    7.9296  -14.3070   23.8938 S   0  0  0  0  0  0  0  0  0  0  0  0
   10.6454  -17.1335   24.8928 C   0  0  0  0  0  0  0  0  0  0  0  0
   11.0232  -18.1298   24.2252 O   0  0  0  0  0  0  0  0  0  0  0  0
   10.8584  -17.1761   26.2570 O   0  0  0  0  0  0  0  0  0  0  0  0
  2  3  1  0
  2  1  1  0
  3  5  1  0
  3  4  1  6
  5  6  2  0
  7  8  1  0
  8 10  1  0
  8  9  2  0
 11 10  1  1
 11 13  1  0
 12 11  1  0
 12  5  1  0
 13 15  1  0
 14 13  2  0
 15 16  1  0
 16 17  1  1
 17 18  1  0
 19 21  1  0
 19 16  1  0
 20 19  2  0
M  END
$$$$
