SNC.pdb
     RDKit          3D

 21 20  0  0  1  0  0  0  0  0999 V2000
    7.3420  -14.5204   19.3881 O   0  0  0  0  0  0  0  0  0  0  0  0
    8.4633  -15.2982   19.1014 C   0  0  0  0  0  0  0  0  0  0  0  0
    8.2326  -16.7153   19.5911 C   0  0  2  0  0  0  0  0  0  0  0  0
    7.1186  -17.2674   18.8768 N   0  0  0  0  0  0  0  0  0  0  0  0
    7.9586  -16.7119   21.0745 C   0  0  0  0  0  0  0  0  0  0  0  0
    6.8028  -16.8738   21.4756 O   0  0  0  0  0  0  0  0  0  0  0  0
   10.4191  -18.1510   26.1941 N   0  0  0  0  0  0  0  0  0  0  0  0
   10.5183  -16.9848   25.4071 C   0  0  0  0  0  0  0  0  0  0  0  0
   10.6769  -15.8996   26.0690 O   0  0  0  0  0  0  0  0  0  0  0  0
   10.4421  -17.0340   23.9284 C   0  0  0  0  0  0  0  0  0  0  0  0
    9.0933  -16.6321   23.3740 C   0  0  2  0  0  0  0  0  0  0  0  0
    9.0051  -16.5294   21.9517 N   0  0  0  0  0  0  0  0  0  0  0  0
    8.7825  -15.3187   23.9778 C   0  0  0  0  0  0  0  0  0  0  0  0
    9.2837  -14.2473   23.4698 O   0  0  0  0  0  0  0  0  0  0  0  0
    7.9643  -15.1022   25.0939 N   0  0  0  0  0  0  0  0  0  0  0  0
    7.7225  -13.8188   25.6705 C   0  0  1  0  0  0  0  0  0  0  0  0
    6.3222  -13.3065   25.4045 C   0  0  0  0  0  0  0  0  0  0  0  0
    6.1361  -11.7541   26.3315 S   0  0  0  0  0  0  0  0  0  0  0  0
    8.0411  -13.7521   27.1134 C   0  0  0  0  0  0  0  0  0  0  0  0
    8.3401  -14.7956   27.7482 O   0  0  0  0  0  0  0  0  0  0  0  0
    8.0275  -12.5681   27.8250 O   0  0  0  0  0  0  0  0  0  0  0  0
  2  3  1  0
  2  1  1  0
  3  5  1  0
  3  4  1  6
  5  6  2  0
  7  8  1  0
  8 10  1  0
  8  9  2  0
 11 10  1  6
 11 13  1  0
 12 11  1  0
 12  5  1  0
 13 15  1  0
 14 13  2  0
 15 16  1  0
 16 17  1  1
 17 18  1  0
 19 21  1  0
 19 16  1  0
 20 19  2  0
M  END
$$$$
