SNC.pdb
     RDKit          3D

 21 20  0  0  1  0  0  0  0  0999 V2000
   12.0712  -18.3875    6.5827 O   0  0  0  0  0  0  0  0  0  0  0  0
   12.2643  -17.2148    5.8534 C   0  0  0  0  0  0  0  0  0  0  0  0
   11.9115  -16.0194    6.7182 C   0  0  2  0  0  0  0  0  0  0  0  0
   12.0726  -14.8288    5.9355 N   0  0  0  0  0  0  0  0  0  0  0  0
   12.8056  -15.9773    7.9324 C   0  0  0  0  0  0  0  0  0  0  0  0
   14.0278  -16.0656    7.7859 O   0  0  0  0  0  0  0  0  0  0  0  0
   10.4091  -13.1219   11.1680 N   0  0  0  0  0  0  0  0  0  0  0  0
   11.7226  -13.6355   11.1533 C   0  0  0  0  0  0  0  0  0  0  0  0
   12.6238  -12.8006   10.7902 O   0  0  0  0  0  0  0  0  0  0  0  0
   12.0154  -15.0372   11.5329 C   0  0  0  0  0  0  0  0  0  0  0  0
   12.8059  -15.7981   10.4916 C   0  0  2  0  0  0  0  0  0  0  0  0
   12.2393  -15.8398    9.1808 N   0  0  0  0  0  0  0  0  0  0  0  0
   12.9367  -17.1765   11.0102 C   0  0  0  0  0  0  0  0  0  0  0  0
   13.4593  -17.3761   12.1696 O   0  0  0  0  0  0  0  0  0  0  0  0
   12.5354  -18.3435   10.3476 N   0  0  0  0  0  0  0  0  0  0  0  0
   12.7603  -19.6625   10.8453 C   0  0  1  0  0  0  0  0  0  0  0  0
   11.4760  -20.4206   11.1097 C   0  0  0  0  0  0  0  0  0  0  0  0
   10.7487  -19.7276   12.6246 S   0  0  0  0  0  0  0  0  0  0  0  0
   13.6779  -20.4610   10.0034 C   0  0  0  0  0  0  0  0  0  0  0  0
   14.1146  -19.9959    8.9199 O   0  0  0  0  0  0  0  0  0  0  0  0
   14.0947  -21.7306   10.3536 O   0  0  0  0  0  0  0  0  0  0  0  0
  2  3  1  0
  2  1  1  0
  3  5  1  0
  3  4  1  6
  5  6  2  0
  7  8  1  0
  8 10  1  0
  8  9  2  0
 11 10  1  1
 11 13  1  0
 12 11  1  0
 12  5  1  0
 13 15  1  0
 14 13  2  0
 15 16  1  0
 16 17  1  6
 17 18  1  0
 19 21  1  0
 19 16  1  0
 20 19  2  0
M  END
$$$$
