SNC.pdb
     RDKit          3D

 21 20  0  0  1  0  0  0  0  0999 V2000
   10.7686  -14.4957   19.7597 O   0  0  0  0  0  0  0  0  0  0  0  0
   10.6830  -15.8422   20.1118 C   0  0  0  0  0  0  0  0  0  0  0  0
    9.3353  -16.3908   19.6831 C   0  0  2  0  0  0  0  0  0  0  0  0
    8.9680  -15.7752   18.4413 N   0  0  0  0  0  0  0  0  0  0  0  0
    8.2992  -16.1030   20.7412 C   0  0  0  0  0  0  0  0  0  0  0  0
    7.4210  -15.2662   20.5147 O   0  0  0  0  0  0  0  0  0  0  0  0
    6.9302  -18.6424   26.2672 N   0  0  0  0  0  0  0  0  0  0  0  0
    6.5585  -18.0744   25.0308 C   0  0  0  0  0  0  0  0  0  0  0  0
    5.3947  -17.5394   25.0115 O   0  0  0  0  0  0  0  0  0  0  0  0
    7.4610  -18.1054   23.8564 C   0  0  0  0  0  0  0  0  0  0  0  0
    7.4709  -16.8186   23.0613 C   0  0  2  0  0  0  0  0  0  0  0  0
    8.3539  -16.7817   21.9388 N   0  0  0  0  0  0  0  0  0  0  0  0
    7.8517  -15.7559   24.0162 C   0  0  0  0  0  0  0  0  0  0  0  0
    9.0920  -15.5746   24.3092 O   0  0  0  0  0  0  0  0  0  0  0  0
    6.9698  -14.8839   24.6672 N   0  0  0  0  0  0  0  0  0  0  0  0
    7.3814  -13.8618   25.5750 C   0  0  1  0  0  0  0  0  0  0  0  0
    6.2457  -12.9507   25.9924 C   0  0  0  0  0  0  0  0  0  0  0  0
    6.9506  -11.6890   27.0948 S   0  0  0  0  0  0  0  0  0  0  0  0
    8.1008  -14.3807   26.7588 C   0  0  0  0  0  0  0  0  0  0  0  0
    7.7425  -15.4575   27.3001 O   0  0  0  0  0  0  0  0  0  0  0  0
    9.1797  -13.7258   27.3204 O   0  0  0  0  0  0  0  0  0  0  0  0
  2  3  1  0
  2  1  1  0
  3  5  1  0
  3  4  1  6
  5  6  2  0
  7  8  1  0
  8 10  1  0
  8  9  2  0
 11 10  1  1
 11 13  1  0
 12 11  1  0
 12  5  1  0
 13 15  1  0
 14 13  2  0
 15 16  1  0
 16 17  1  1
 17 18  1  0
 19 21  1  0
 19 16  1  0
 20 19  2  0
M  END
$$$$
