SNC.pdb
     RDKit          3D

 21 20  0  0  1  0  0  0  0  0999 V2000
   12.9378  -18.4172   23.2597 O   0  0  0  0  0  0  0  0  0  0  0  0
   12.2089  -18.8411   22.1491 C   0  0  0  0  0  0  0  0  0  0  0  0
   12.2648  -17.7743   21.0721 C   0  0  2  0  0  0  0  0  0  0  0  0
   13.6388  -17.4418   20.8326 N   0  0  0  0  0  0  0  0  0  0  0  0
   11.4958  -16.5536   21.5126 C   0  0  0  0  0  0  0  0  0  0  0  0
   12.1109  -15.5216   21.7948 O   0  0  0  0  0  0  0  0  0  0  0  0
    7.0221  -13.2822   21.1726 N   0  0  0  0  0  0  0  0  0  0  0  0
    6.8738  -14.6395   21.5262 C   0  0  0  0  0  0  0  0  0  0  0  0
    5.8287  -14.9053   22.2177 O   0  0  0  0  0  0  0  0  0  0  0  0
    7.8636  -15.6636   21.1184 C   0  0  0  0  0  0  0  0  0  0  0  0
    9.1358  -15.6412   21.9364 C   0  0  2  0  0  0  0  0  0  0  0  0
   10.1216  -16.6154   21.5895 N   0  0  0  0  0  0  0  0  0  0  0  0
    8.7184  -15.8484   23.3396 C   0  0  0  0  0  0  0  0  0  0  0  0
    8.8930  -16.9964   23.8953 O   0  0  0  0  0  0  0  0  0  0  0  0
    8.1265  -14.8877   24.1695 N   0  0  0  0  0  0  0  0  0  0  0  0
    7.7182  -15.1362   25.5147 C   0  0  1  0  0  0  0  0  0  0  0  0
    7.1455  -13.9096   26.1939 C   0  0  0  0  0  0  0  0  0  0  0  0
    8.0516  -12.4709   25.5512 S   0  0  0  0  0  0  0  0  0  0  0  0
    6.7993  -16.2877   25.6479 C   0  0  0  0  0  0  0  0  0  0  0  0
    6.3460  -16.8621   24.6252 O   0  0  0  0  0  0  0  0  0  0  0  0
    6.3987  -16.7826   26.8738 O   0  0  0  0  0  0  0  0  0  0  0  0
  2  3  1  0
  2  1  1  0
  3  5  1  0
  3  4  1  1
  5  6  2  0
  7  8  1  0
  8 10  1  0
  8  9  2  0
 11 10  1  6
 11 13  1  0
 12 11  1  0
 12  5  1  0
 13 15  1  0
 14 13  2  0
 15 16  1  0
 16 17  1  6
 17 18  1  0
 19 21  1  0
 19 16  1  0
 20 19  2  0
M  END
$$$$
