SNC.pdb
     RDKit          3D

 21 20  0  0  1  0  0  0  0  0999 V2000
   -5.5096  -18.2455   18.8269 O   0  0  0  0  0  0  0  0  0  0  0  0
   -5.9845  -19.1462   19.7798 C   0  0  0  0  0  0  0  0  0  0  0  0
   -7.4872  -18.9898   19.9166 C   0  0  2  0  0  0  0  0  0  0  0  0
   -8.0794  -19.1358   18.6190 N   0  0  0  0  0  0  0  0  0  0  0  0
   -7.8158  -17.6368   20.4972 C   0  0  0  0  0  0  0  0  0  0  0  0
   -7.3800  -17.3359   21.6119 O   0  0  0  0  0  0  0  0  0  0  0  0
   -9.1912  -12.7119   20.8079 N   0  0  0  0  0  0  0  0  0  0  0  0
   -8.8590  -13.0207   19.4724 C   0  0  0  0  0  0  0  0  0  0  0  0
   -8.5605  -12.0103   18.7437 O   0  0  0  0  0  0  0  0  0  0  0  0
   -8.8615  -14.4148   18.9712 C   0  0  0  0  0  0  0  0  0  0  0  0
   -9.0817  -15.4504   20.0517 C   0  0  2  0  0  0  0  0  0  0  0  0
   -8.5950  -16.7638   19.7701 N   0  0  0  0  0  0  0  0  0  0  0  0
  -10.5436  -15.5077   20.2653 C   0  0  0  0  0  0  0  0  0  0  0  0
  -11.2835  -16.1709   19.4468 O   0  0  0  0  0  0  0  0  0  0  0  0
  -11.2447  -14.8909   21.3094 N   0  0  0  0  0  0  0  0  0  0  0  0
  -12.6313  -15.1023   21.5753 C   0  0  1  0  0  0  0  0  0  0  0  0
  -12.9300  -16.5001   22.0760 C   0  0  0  0  0  0  0  0  0  0  0  0
  -14.7268  -16.6041   22.3301 S   0  0  0  0  0  0  0  0  0  0  0  0
  -13.2201  -14.0854   22.4739 C   0  0  0  0  0  0  0  0  0  0  0  0
  -12.5051  -13.4969   23.3245 O   0  0  0  0  0  0  0  0  0  0  0  0
  -14.5557  -13.7355   22.4283 O   0  0  0  0  0  0  0  0  0  0  0  0
  2  3  1  0
  2  1  1  0
  3  5  1  0
  3  4  1  6
  5  6  2  0
  7  8  1  0
  8 10  1  0
  8  9  2  0
 11 10  1  6
 11 13  1  0
 12 11  1  0
 12  5  1  0
 13 15  1  0
 14 13  2  0
 15 16  1  0
 16 17  1  1
 17 18  1  0
 19 21  1  0
 19 16  1  0
 20 19  2  0
M  END
$$$$
