SNC.pdb
     RDKit          3D

 21 20  0  0  1  0  0  0  0  0999 V2000
    8.4978  -12.5933   19.8726 O   0  0  0  0  0  0  0  0  0  0  0  0
    7.9679  -13.0784   18.6774 C   0  0  0  0  0  0  0  0  0  0  0  0
    9.0883  -13.6302   17.8164 C   0  0  2  0  0  0  0  0  0  0  0  0
    8.5219  -14.1246   16.5954 N   0  0  0  0  0  0  0  0  0  0  0  0
    9.8079  -14.7351   18.5493 C   0  0  0  0  0  0  0  0  0  0  0  0
    9.2766  -15.8452   18.6406 O   0  0  0  0  0  0  0  0  0  0  0  0
   14.2348  -15.7641   17.6488 N   0  0  0  0  0  0  0  0  0  0  0  0
   13.9292  -14.6798   18.4975 C   0  0  0  0  0  0  0  0  0  0  0  0
   14.1568  -13.5227   17.9971 O   0  0  0  0  0  0  0  0  0  0  0  0
   13.3872  -14.8861   19.8607 C   0  0  0  0  0  0  0  0  0  0  0  0
   11.9290  -15.2879   19.8823 C   0  0  2  0  0  0  0  0  0  0  0  0
   11.0449  -14.4824   19.1008 N   0  0  0  0  0  0  0  0  0  0  0  0
   11.5146  -15.2312   21.3005 C   0  0  0  0  0  0  0  0  0  0  0  0
   12.3805  -14.9423   22.2081 O   0  0  0  0  0  0  0  0  0  0  0  0
   10.2228  -15.4683   21.7875 N   0  0  0  0  0  0  0  0  0  0  0  0
    9.8948  -15.5528   23.1743 C   0  0  1  0  0  0  0  0  0  0  0  0
    8.4184  -15.3504   23.4450 C   0  0  0  0  0  0  0  0  0  0  0  0
    7.9443  -13.7753   22.6715 S   0  0  0  0  0  0  0  0  0  0  0  0
   10.3825  -16.7910   23.8203 C   0  0  0  0  0  0  0  0  0  0  0  0
   10.8363  -17.7354   23.1253 O   0  0  0  0  0  0  0  0  0  0  0  0
   10.3660  -16.9725   25.1897 O   0  0  0  0  0  0  0  0  0  0  0  0
  2  3  1  0
  2  1  1  0
  3  5  1  0
  3  4  1  6
  5  6  2  0
  7  8  1  0
  8 10  1  0
  8  9  2  0
 11 10  1  1
 11 13  1  0
 12 11  1  0
 12  5  1  0
 13 15  1  0
 14 13  2  0
 15 16  1  0
 16 17  1  6
 17 18  1  0
 19 21  1  0
 19 16  1  0
 20 19  2  0
M  END
$$$$
