SNC.pdb
     RDKit          3D

 21 20  0  0  1  0  0  0  0  0999 V2000
    9.4880  -15.2397   18.1416 O   0  0  0  0  0  0  0  0  0  0  0  0
    9.3235  -15.2097   19.5260 C   0  0  0  0  0  0  0  0  0  0  0  0
    8.9133  -16.5859   20.0150 C   0  0  2  0  0  0  0  0  0  0  0  0
    8.3449  -17.3085   18.9146 N   0  0  0  0  0  0  0  0  0  0  0  0
    7.9123  -16.4595   21.1364 C   0  0  0  0  0  0  0  0  0  0  0  0
    6.7191  -16.2986   20.8655 O   0  0  0  0  0  0  0  0  0  0  0  0
    6.2058  -19.2650   24.8538 N   0  0  0  0  0  0  0  0  0  0  0  0
    7.4943  -18.8955   24.4148 C   0  0  0  0  0  0  0  0  0  0  0  0
    8.1229  -19.8026   23.7643 O   0  0  0  0  0  0  0  0  0  0  0  0
    8.0585  -17.5549   24.6959 C   0  0  0  0  0  0  0  0  0  0  0  0
    7.6556  -16.5007   23.6886 C   0  0  2  0  0  0  0  0  0  0  0  0
    8.3507  -16.5275   22.4407 N   0  0  0  0  0  0  0  0  0  0  0  0
    7.8902  -15.1990   24.3493 C   0  0  0  0  0  0  0  0  0  0  0  0
    9.0939  -14.7714   24.5092 O   0  0  0  0  0  0  0  0  0  0  0  0
    6.9004  -14.3398   24.8432 N   0  0  0  0  0  0  0  0  0  0  0  0
    7.1554  -13.2589   25.7403 C   0  0  1  0  0  0  0  0  0  0  0  0
    5.9093  -12.4688   26.0819 C   0  0  0  0  0  0  0  0  0  0  0  0
    6.4214  -11.1094   27.1746 S   0  0  0  0  0  0  0  0  0  0  0  0
    7.8704  -13.6694   26.9685 C   0  0  0  0  0  0  0  0  0  0  0  0
    7.4998  -14.6842   27.6119 O   0  0  0  0  0  0  0  0  0  0  0  0
    8.9582  -12.9765   27.4635 O   0  0  0  0  0  0  0  0  0  0  0  0
  2  3  1  0
  2  1  1  0
  3  5  1  0
  3  4  1  6
  5  6  2  0
  7  8  1  0
  8 10  1  0
  8  9  2  0
 11 10  1  1
 11 13  1  0
 12 11  1  0
 12  5  1  0
 13 15  1  0
 14 13  2  0
 15 16  1  0
 16 17  1  1
 17 18  1  0
 19 21  1  0
 19 16  1  0
 20 19  2  0
M  END
$$$$
