SNC.pdb
     RDKit          3D

 21 20  0  0  1  0  0  0  0  0999 V2000
   10.0992  -18.0365   24.5581 O   0  0  0  0  0  0  0  0  0  0  0  0
   11.2778  -18.3877   23.9008 C   0  0  0  0  0  0  0  0  0  0  0  0
   11.1592  -18.0353   22.4301 C   0  0  2  0  0  0  0  0  0  0  0  0
   12.4406  -18.2200   21.8137 N   0  0  0  0  0  0  0  0  0  0  0  0
   10.7007  -16.6065   22.2757 C   0  0  0  0  0  0  0  0  0  0  0  0
   11.5376  -15.6995   22.2833 O   0  0  0  0  0  0  0  0  0  0  0  0
    7.5517  -13.6012   19.8796 N   0  0  0  0  0  0  0  0  0  0  0  0
    6.6801  -14.4538   20.5886 C   0  0  0  0  0  0  0  0  0  0  0  0
    5.4752  -14.4752   20.1541 O   0  0  0  0  0  0  0  0  0  0  0  0
    7.1439  -15.2550   21.7452 C   0  0  0  0  0  0  0  0  0  0  0  0
    8.6243  -15.1208   22.0251 C   0  0  2  0  0  0  0  0  0  0  0  0
    9.3565  -16.3433   22.1281 N   0  0  0  0  0  0  0  0  0  0  0  0
    8.7296  -14.3807   23.3007 C   0  0  0  0  0  0  0  0  0  0  0  0
    9.0412  -13.1317   23.2909 O   0  0  0  0  0  0  0  0  0  0  0  0
    8.5175  -14.9142   24.5783 N   0  0  0  0  0  0  0  0  0  0  0  0
    8.4058  -14.1275   25.7644 C   0  0  1  0  0  0  0  0  0  0  0  0
    7.1601  -13.2662   25.7863 C   0  0  0  0  0  0  0  0  0  0  0  0
    7.2815  -12.1882   27.2448 S   0  0  0  0  0  0  0  0  0  0  0  0
    8.5191  -14.9192   27.0088 C   0  0  0  0  0  0  0  0  0  0  0  0
    8.2845  -16.1545   27.0011 O   0  0  0  0  0  0  0  0  0  0  0  0
    8.8802  -14.3576   28.2182 O   0  0  0  0  0  0  0  0  0  0  0  0
  2  3  1  0
  2  1  1  0
  3  5  1  0
  3  4  1  6
  5  6  2  0
  7  8  1  0
  8 10  1  0
  8  9  2  0
 11 10  1  1
 11 13  1  0
 12 11  1  0
 12  5  1  0
 13 15  1  0
 14 13  2  0
 15 16  1  0
 16 17  1  1
 17 18  1  0
 19 21  1  0
 19 16  1  0
 20 19  2  0
M  END
$$$$
