SNC.pdb
     RDKit          3D

 21 20  0  0  1  0  0  0  0  0999 V2000
    7.1940  -20.2035   20.0520 O   0  0  0  0  0  0  0  0  0  0  0  0
    8.1091  -19.1791   20.2921 C   0  0  0  0  0  0  0  0  0  0  0  0
    8.3266  -18.3879   19.0162 C   0  0  2  0  0  0  0  0  0  0  0  0
    8.9915  -19.2313   18.0662 N   0  0  0  0  0  0  0  0  0  0  0  0
    9.1559  -17.1609   19.3033 C   0  0  0  0  0  0  0  0  0  0  0  0
   10.3853  -17.2297   19.2197 O   0  0  0  0  0  0  0  0  0  0  0  0
    6.9750  -11.9547   18.4028 N   0  0  0  0  0  0  0  0  0  0  0  0
    7.4866  -13.2359   18.6962 C   0  0  0  0  0  0  0  0  0  0  0  0
    7.4538  -14.0658   17.7208 O   0  0  0  0  0  0  0  0  0  0  0  0
    8.0167  -13.5749   20.0374 C   0  0  0  0  0  0  0  0  0  0  0  0
    9.0241  -14.7033   20.0271 C   0  0  2  0  0  0  0  0  0  0  0  0
    8.5235  -15.9876   19.6518 N   0  0  0  0  0  0  0  0  0  0  0  0
    9.5665  -14.7739   21.4008 C   0  0  0  0  0  0  0  0  0  0  0  0
    9.7224  -13.6932   22.0826 O   0  0  0  0  0  0  0  0  0  0  0  0
    9.9470  -15.9423   22.0732 N   0  0  0  0  0  0  0  0  0  0  0  0
   10.0269  -16.0567   23.4939 C   0  0  1  0  0  0  0  0  0  0  0  0
    8.7429  -15.6583   24.1914 C   0  0  0  0  0  0  0  0  0  0  0  0
    9.0423  -15.7917   25.9793 S   0  0  0  0  0  0  0  0  0  0  0  0
   10.4832  -17.3868   23.9528 C   0  0  0  0  0  0  0  0  0  0  0  0
   10.0886  -18.4303   23.3726 O   0  0  0  0  0  0  0  0  0  0  0  0
   11.3470  -17.5509   25.0183 O   0  0  0  0  0  0  0  0  0  0  0  0
  2  3  1  0
  2  1  1  0
  3  5  1  0
  3  4  1  6
  5  6  2  0
  7  8  1  0
  8 10  1  0
  8  9  2  0
 11 10  1  1
 11 13  1  0
 12 11  1  0
 12  5  1  0
 13 15  1  0
 14 13  2  0
 15 16  1  0
 16 17  1  1
 17 18  1  0
 19 21  1  0
 19 16  1  0
 20 19  2  0
M  END
$$$$
