SNC.pdb
     RDKit          3D

 21 20  0  0  1  0  0  0  0  0999 V2000
   10.5510  -18.0585   14.7978 O   0  0  0  0  0  0  0  0  0  0  0  0
    9.2887  -17.5731   15.1377 C   0  0  0  0  0  0  0  0  0  0  0  0
    9.2395  -16.0777   14.8878 C   0  0  2  0  0  0  0  0  0  0  0  0
    9.7814  -15.8163   13.5862 N   0  0  0  0  0  0  0  0  0  0  0  0
   10.0322  -15.3500   15.9450 C   0  0  0  0  0  0  0  0  0  0  0  0
   11.1808  -14.9779   15.6894 O   0  0  0  0  0  0  0  0  0  0  0  0
    6.4493  -13.6338   19.0680 N   0  0  0  0  0  0  0  0  0  0  0  0
    7.8053  -13.2464   19.0433 C   0  0  0  0  0  0  0  0  0  0  0  0
    8.0138  -12.0373   18.6748 O   0  0  0  0  0  0  0  0  0  0  0  0
    8.8901  -14.1826   19.4188 C   0  0  0  0  0  0  0  0  0  0  0  0
    9.9123  -14.4010   18.3254 C   0  0  2  0  0  0  0  0  0  0  0  0
    9.4569  -15.1144   17.1744 N   0  0  0  0  0  0  0  0  0  0  0  0
   11.0235  -15.1475   18.9534 C   0  0  0  0  0  0  0  0  0  0  0  0
   10.9520  -16.4282   19.0619 O   0  0  0  0  0  0  0  0  0  0  0  0
   12.2004  -14.5880   19.4670 N   0  0  0  0  0  0  0  0  0  0  0  0
   13.2480  -15.3462   20.0718 C   0  0  1  0  0  0  0  0  0  0  0  0
   14.5774  -14.6206   20.0720 C   0  0  0  0  0  0  0  0  0  0  0  0
   14.9307  -14.1520   18.3516 S   0  0  0  0  0  0  0  0  0  0  0  0
   12.9149  -15.8329   21.4283 C   0  0  0  0  0  0  0  0  0  0  0  0
   11.8125  -15.5394   21.9572 O   0  0  0  0  0  0  0  0  0  0  0  0
   13.7764  -16.6176   22.1701 O   0  0  0  0  0  0  0  0  0  0  0  0
  2  3  1  0
  2  1  1  0
  3  5  1  0
  3  4  1  6
  5  6  2  0
  7  8  1  0
  8 10  1  0
  8  9  2  0
 11 10  1  1
 11 13  1  0
 12 11  1  0
 12  5  1  0
 13 15  1  0
 14 13  2  0
 15 16  1  0
 16 17  1  1
 17 18  1  0
 19 21  1  0
 19 16  1  0
 20 19  2  0
M  END
$$$$
