SNC.pdb
     RDKit          3D

 21 20  0  0  1  0  0  0  0  0999 V2000
   11.7104  -18.7255   18.1234 O   0  0  0  0  0  0  0  0  0  0  0  0
   10.7139  -18.2904   17.2503 C   0  0  0  0  0  0  0  0  0  0  0  0
   11.0229  -16.8760   16.7971 C   0  0  2  0  0  0  0  0  0  0  0  0
   12.1980  -16.9083   15.9761 N   0  0  0  0  0  0  0  0  0  0  0  0
   11.2405  -15.9849   17.9946 C   0  0  0  0  0  0  0  0  0  0  0  0
   12.3919  -15.6886   18.3258 O   0  0  0  0  0  0  0  0  0  0  0  0
    8.9848  -12.7396   17.9798 N   0  0  0  0  0  0  0  0  0  0  0  0
    8.2044  -13.0741   19.1061 C   0  0  0  0  0  0  0  0  0  0  0  0
    7.0999  -12.4331   19.2063 O   0  0  0  0  0  0  0  0  0  0  0  0
    8.6476  -14.0925   20.0864 C   0  0  0  0  0  0  0  0  0  0  0  0
   10.0314  -14.6394   19.8137 C   0  0  2  0  0  0  0  0  0  0  0  0
   10.1488  -15.5186   18.6937 N   0  0  0  0  0  0  0  0  0  0  0  0
   10.4317  -15.3585   21.0420 C   0  0  0  0  0  0  0  0  0  0  0  0
    9.6300  -16.2160   21.5704 O   0  0  0  0  0  0  0  0  0  0  0  0
   11.6442  -15.2020   21.7257 N   0  0  0  0  0  0  0  0  0  0  0  0
   12.1050  -16.0856   22.7478 C   0  0  1  0  0  0  0  0  0  0  0  0
   11.9497  -17.5465   22.3794 C   0  0  0  0  0  0  0  0  0  0  0  0
   12.4230  -18.5192   23.8402 S   0  0  0  0  0  0  0  0  0  0  0  0
   13.4862  -15.8003   23.1940 C   0  0  0  0  0  0  0  0  0  0  0  0
   14.2729  -15.1539   22.4562 O   0  0  0  0  0  0  0  0  0  0  0  0
   13.9751  -16.2186   24.4165 O   0  0  0  0  0  0  0  0  0  0  0  0
  2  3  1  0
  2  1  1  0
  3  5  1  0
  3  4  1  6
  5  6  2  0
  7  8  1  0
  8 10  1  0
  8  9  2  0
 11 10  1  1
 11 13  1  0
 12 11  1  0
 12  5  1  0
 13 15  1  0
 14 13  2  0
 15 16  1  0
 16 17  1  6
 17 18  1  0
 19 21  1  0
 19 16  1  0
 20 19  2  0
M  END
$$$$
