SNC.pdb
     RDKit          3D

 21 20  0  0  1  0  0  0  0  0999 V2000
    7.1318  -19.5449   20.9008 O   0  0  0  0  0  0  0  0  0  0  0  0
    6.3311  -18.7339   20.0974 C   0  0  0  0  0  0  0  0  0  0  0  0
    7.1624  -18.1746   18.9583 C   0  0  2  0  0  0  0  0  0  0  0  0
    7.8165  -19.2647   18.2951 N   0  0  0  0  0  0  0  0  0  0  0  0
    8.1785  -17.1956   19.4917 C   0  0  0  0  0  0  0  0  0  0  0  0
    9.3440  -17.5655   19.6585 O   0  0  0  0  0  0  0  0  0  0  0  0
    6.2580  -12.6015   18.2965 N   0  0  0  0  0  0  0  0  0  0  0  0
    7.5045  -13.1493   18.6646 C   0  0  0  0  0  0  0  0  0  0  0  0
    8.3019  -13.3785   17.6885 O   0  0  0  0  0  0  0  0  0  0  0  0
    7.8449  -13.4306   20.0786 C   0  0  0  0  0  0  0  0  0  0  0  0
    8.4964  -14.7790   20.2920 C   0  0  2  0  0  0  0  0  0  0  0  0
    7.7848  -15.9073   19.7804 N   0  0  0  0  0  0  0  0  0  0  0  0
    8.6548  -14.9250   21.7548 C   0  0  0  0  0  0  0  0  0  0  0  0
    7.6518  -14.7050   22.5312 O   0  0  0  0  0  0  0  0  0  0  0  0
    9.8313  -15.2937   22.4195 N   0  0  0  0  0  0  0  0  0  0  0  0
    9.8915  -15.6450   23.8019 C   0  0  1  0  0  0  0  0  0  0  0  0
    8.8738  -16.6981   24.1882 C   0  0  0  0  0  0  0  0  0  0  0  0
    7.5351  -15.8474   25.0759 S   0  0  0  0  0  0  0  0  0  0  0  0
   11.2460  -16.0331   24.2523 C   0  0  0  0  0  0  0  0  0  0  0  0
   11.4611  -16.3065   25.4607 O   0  0  0  0  0  0  0  0  0  0  0  0
   12.3225  -16.1142   23.3904 O   0  0  0  0  0  0  0  0  0  0  0  0
  2  3  1  0
  2  1  1  0
  3  5  1  0
  3  4  1  1
  5  6  2  0
  7  8  1  0
  8 10  1  0
  8  9  2  0
 11 10  1  1
 11 13  1  0
 12 11  1  0
 12  5  1  0
 13 15  1  0
 14 13  2  0
 15 16  1  0
 16 17  1  6
 17 18  1  0
 19 21  1  0
 19 16  1  0
 20 19  2  0
M  END
$$$$
