SNC.pdb
     RDKit          3D

 21 20  0  0  1  0  0  0  0  0999 V2000
    7.1816  -12.2331   18.5277 O   0  0  0  0  0  0  0  0  0  0  0  0
    8.0071  -13.2805   18.9352 C   0  0  0  0  0  0  0  0  0  0  0  0
    8.8404  -13.7527   17.7588 C   0  0  2  0  0  0  0  0  0  0  0  0
    7.9740  -14.4049   16.8207 N   0  0  0  0  0  0  0  0  0  0  0  0
    9.9139  -14.7007   18.2326 C   0  0  0  0  0  0  0  0  0  0  0  0
    9.7277  -15.9174   18.1429 O   0  0  0  0  0  0  0  0  0  0  0  0
   15.8608  -14.2261   20.0207 N   0  0  0  0  0  0  0  0  0  0  0  0
   14.7626  -14.8668   19.4100 C   0  0  0  0  0  0  0  0  0  0  0  0
   14.8869  -16.1343   19.2714 O   0  0  0  0  0  0  0  0  0  0  0  0
   13.5662  -14.1121   18.9700 C   0  0  0  0  0  0  0  0  0  0  0  0
   12.2597  -14.8151   19.2648 C   0  0  2  0  0  0  0  0  0  0  0  0
   11.0814  -14.1886   18.7549 N   0  0  0  0  0  0  0  0  0  0  0  0
   12.1686  -14.8987   20.7382 C   0  0  0  0  0  0  0  0  0  0  0  0
   11.7111  -13.8990   21.4078 O   0  0  0  0  0  0  0  0  0  0  0  0
   12.5428  -15.9976   21.5220 N   0  0  0  0  0  0  0  0  0  0  0  0
   11.9842  -16.2934   22.8020 C   0  0  1  0  0  0  0  0  0  0  0  0
   10.4697  -16.2975   22.7984 C   0  0  0  0  0  0  0  0  0  0  0  0
    9.9320  -16.5608   24.5147 S   0  0  0  0  0  0  0  0  0  0  0  0
   12.5115  -17.5390   23.4009 C   0  0  0  0  0  0  0  0  0  0  0  0
   12.4423  -18.6263   22.7731 O   0  0  0  0  0  0  0  0  0  0  0  0
   13.0946  -17.5744   24.6527 O   0  0  0  0  0  0  0  0  0  0  0  0
  2  3  1  0
  2  1  1  0
  3  5  1  0
  3  4  1  6
  5  6  2  0
  7  8  1  0
  8 10  1  0
  8  9  2  0
 11 10  1  1
 11 13  1  0
 12 11  1  0
 12  5  1  0
 13 15  1  0
 14 13  2  0
 15 16  1  0
 16 17  1  6
 17 18  1  0
 19 21  1  0
 19 16  1  0
 20 19  2  0
M  END
$$$$
