PSN.pdb
     RDKit          3D

 22 22  0  0  1  0  0  0  0  0999 V2000
    9.7090  -17.9382   16.8274 N   0  0  0  0  0  0  0  0  0  0  0  0
    9.8190  -18.9420   15.7832 C   0  0  0  0  0  0  0  0  0  0  0  0
   10.6581  -20.0591   16.3117 C   0  0  0  0  0  0  0  0  0  0  0  0
   11.2717  -19.4563   17.5791 C   0  0  0  0  0  0  0  0  0  0  0  0
   10.1734  -18.5462   18.0356 C   0  0  1  0  0  0  0  0  0  0  0  0
   10.5844  -17.5628   19.0595 C   0  0  0  0  0  0  0  0  0  0  0  0
   11.3310  -16.5677   18.7646 O   0  0  0  0  0  0  0  0  0  0  0  0
    9.8242  -15.4218   23.2964 O   0  0  0  0  0  0  0  0  0  0  0  0
    9.5227  -16.2957   22.2815 C   0  0  0  0  0  0  0  0  0  0  0  0
   10.7062  -16.6945   21.4269 C   0  0  2  0  0  0  0  0  0  0  0  0
   10.2053  -17.6201   20.4295 N   0  0  0  0  0  0  0  0  0  0  0  0
   11.8297  -17.2283   22.1934 C   0  0  0  0  0  0  0  0  0  0  0  0
   11.8548  -18.4564   22.5067 O   0  0  0  0  0  0  0  0  0  0  0  0
   15.5925  -17.0569   21.0263 N   0  0  0  0  0  0  0  0  0  0  0  0
   15.8141  -16.0041   21.9441 C   0  0  0  0  0  0  0  0  0  0  0  0
   16.4813  -15.0137   21.5529 O   0  0  0  0  0  0  0  0  0  0  0  0
   15.2558  -16.1261   23.2940 C   0  0  0  0  0  0  0  0  0  0  0  0
   14.0379  -16.9982   23.3860 C   0  0  2  0  0  0  0  0  0  0  0  0
   12.9195  -16.4305   22.6162 N   0  0  0  0  0  0  0  0  0  0  0  0
   13.5868  -17.0658   24.7913 C   0  0  0  0  0  0  0  0  0  0  0  0
   12.4879  -16.5466   25.0871 O   0  0  0  0  0  0  0  0  0  0  0  0
   14.3178  -17.6728   25.7915 O   0  0  0  0  0  0  0  0  0  0  0  0
  1  5  1  0
  2  3  1  0
  2  1  1  0
  3  4  1  0
  4  5  1  0
  6 11  1  0
  5  6  1  1
  7  6  2  0
  8  9  1  0
 10 11  1  0
 10  9  1  1
 12 10  1  0
 12 19  1  0
 13 12  2  0
 15 14  1  0
 16 15  2  0
 17 15  1  0
 18 19  1  0
 18 17  1  1
 20 18  1  0
 21 20  2  0
 22 20  1  0
M  END
$$$$
