PSN.pdb
     RDKit          3D

 22 22  0  0  1  0  0  0  0  0999 V2000
    7.9808  -18.0365   18.9240 N   0  0  0  0  0  0  0  0  0  0  0  0
    7.2191  -18.2684   17.7090 C   0  0  0  0  0  0  0  0  0  0  0  0
    7.6898  -17.2904   16.6826 C   0  0  0  0  0  0  0  0  0  0  0  0
    8.5140  -16.2978   17.5081 C   0  0  0  0  0  0  0  0  0  0  0  0
    9.0788  -17.1921   18.5685 C   0  0  1  0  0  0  0  0  0  0  0  0
    9.6575  -16.4751   19.7242 C   0  0  0  0  0  0  0  0  0  0  0  0
   10.8136  -15.9330   19.6600 O   0  0  0  0  0  0  0  0  0  0  0  0
    7.7351  -16.1463   23.5487 O   0  0  0  0  0  0  0  0  0  0  0  0
    8.5205  -15.1634   22.9996 C   0  0  0  0  0  0  0  0  0  0  0  0
    9.6392  -15.6754   22.1187 C   0  0  2  0  0  0  0  0  0  0  0  0
    9.0109  -16.3201   20.9819 N   0  0  0  0  0  0  0  0  0  0  0  0
   10.5874  -16.5398   22.8178 C   0  0  0  0  0  0  0  0  0  0  0  0
   10.4447  -17.7987   22.7763 O   0  0  0  0  0  0  0  0  0  0  0  0
   15.3899  -15.0085   22.8779 N   0  0  0  0  0  0  0  0  0  0  0  0
   14.8034  -16.2392   23.2540 C   0  0  0  0  0  0  0  0  0  0  0  0
   15.0405  -17.2460   22.5403 O   0  0  0  0  0  0  0  0  0  0  0  0
   13.9558  -16.2717   24.4494 C   0  0  0  0  0  0  0  0  0  0  0  0
   12.6241  -16.9340   24.2487 C   0  0  2  0  0  0  0  0  0  0  0  0
   11.6843  -16.0371   23.5574 N   0  0  0  0  0  0  0  0  0  0  0  0
   12.0226  -17.2368   25.5639 C   0  0  0  0  0  0  0  0  0  0  0  0
   12.5348  -18.1444   26.2556 O   0  0  0  0  0  0  0  0  0  0  0  0
   10.9250  -16.5678   26.0651 O   0  0  0  0  0  0  0  0  0  0  0  0
  1  5  1  0
  2  3  1  0
  2  1  1  0
  3  4  1  0
  4  5  1  0
  6 11  1  0
  5  6  1  1
  7  6  2  0
  8  9  1  0
 10 11  1  0
 10  9  1  1
 12 10  1  0
 12 19  1  0
 13 12  2  0
 15 14  1  0
 16 15  2  0
 17 15  1  0
 18 19  1  0
 18 17  1  1
 20 18  1  0
 21 20  2  0
 22 20  1  0
M  END
$$$$
