PSN.pdb
     RDKit          3D

 22 22  0  0  1  0  0  0  0  0999 V2000
    8.0058  -15.1041   18.2015 N   0  0  0  0  0  0  0  0  0  0  0  0
    7.0392  -14.6208   17.2309 C   0  0  0  0  0  0  0  0  0  0  0  0
    7.1767  -13.1355   17.1519 C   0  0  0  0  0  0  0  0  0  0  0  0
    8.0401  -12.8061   18.3735 C   0  0  0  0  0  0  0  0  0  0  0  0
    8.9070  -14.0243   18.4603 C   0  0  1  0  0  0  0  0  0  0  0  0
    9.6302  -14.1662   19.7414 C   0  0  0  0  0  0  0  0  0  0  0  0
   10.6250  -13.4169   20.0305 O   0  0  0  0  0  0  0  0  0  0  0  0
    9.7778  -16.2521   24.1664 O   0  0  0  0  0  0  0  0  0  0  0  0
    9.2166  -16.0609   22.9283 C   0  0  0  0  0  0  0  0  0  0  0  0
   10.0785  -15.2733   21.9655 C   0  0  2  0  0  0  0  0  0  0  0  0
    9.3057  -15.1172   20.7485 N   0  0  0  0  0  0  0  0  0  0  0  0
   11.3950  -15.8650   21.7382 C   0  0  0  0  0  0  0  0  0  0  0  0
   11.5070  -16.8992   21.0138 O   0  0  0  0  0  0  0  0  0  0  0  0
   13.9293  -15.5390   19.4605 N   0  0  0  0  0  0  0  0  0  0  0  0
   14.8906  -14.8509   20.2368 C   0  0  0  0  0  0  0  0  0  0  0  0
   15.6520  -14.0426   19.6485 O   0  0  0  0  0  0  0  0  0  0  0  0
   14.9449  -15.1176   21.6771 C   0  0  0  0  0  0  0  0  0  0  0  0
   13.8702  -16.0368   22.1795 C   0  0  2  0  0  0  0  0  0  0  0  0
   12.5825  -15.3341   22.2958 N   0  0  0  0  0  0  0  0  0  0  0  0
   14.2170  -16.5020   23.5384 C   0  0  0  0  0  0  0  0  0  0  0  0
   15.1752  -17.2956   23.6671 O   0  0  0  0  0  0  0  0  0  0  0  0
   13.5361  -16.1039   24.6703 O   0  0  0  0  0  0  0  0  0  0  0  0
  1  5  1  0
  2  3  1  0
  2  1  1  0
  3  4  1  0
  4  5  1  0
  6 11  1  0
  5  6  1  1
  7  6  2  0
  8  9  1  0
 10 11  1  0
 10  9  1  1
 12 10  1  0
 12 19  1  0
 13 12  2  0
 15 14  1  0
 16 15  2  0
 17 15  1  0
 18 19  1  0
 18 17  1  1
 20 18  1  0
 21 20  2  0
 22 20  1  0
M  END
$$$$
