PSN.pdb
     RDKit          3D

 22 22  0  0  1  0  0  0  0  0999 V2000
    7.7985  -15.1461   19.8210 N   0  0  0  0  0  0  0  0  0  0  0  0
    6.8808  -14.5136   18.8894 C   0  0  0  0  0  0  0  0  0  0  0  0
    7.3841  -13.1330   18.6208 C   0  0  0  0  0  0  0  0  0  0  0  0
    8.4404  -12.9352   19.7122 C   0  0  0  0  0  0  0  0  0  0  0  0
    8.9702  -14.3276   19.8669 C   0  0  1  0  0  0  0  0  0  0  0  0
    9.7784  -14.5388   21.0862 C   0  0  0  0  0  0  0  0  0  0  0  0
   10.8935  -13.9375   21.2579 O   0  0  0  0  0  0  0  0  0  0  0  0
    8.8831  -17.4420   24.0999 O   0  0  0  0  0  0  0  0  0  0  0  0
    9.2966  -16.1686   24.4029 C   0  0  0  0  0  0  0  0  0  0  0  0
   10.2008  -15.5407   23.3647 C   0  0  2  0  0  0  0  0  0  0  0  0
    9.4120  -15.4023   22.1559 N   0  0  0  0  0  0  0  0  0  0  0  0
   11.4492  -16.2705   23.1557 C   0  0  0  0  0  0  0  0  0  0  0  0
   11.5344  -17.1233   22.2216 O   0  0  0  0  0  0  0  0  0  0  0  0
   15.9903  -16.8990   22.1371 N   0  0  0  0  0  0  0  0  0  0  0  0
   16.1355  -16.1948   23.3549 C   0  0  0  0  0  0  0  0  0  0  0  0
   17.2178  -15.5896   23.5588 O   0  0  0  0  0  0  0  0  0  0  0  0
   15.0209  -16.2099   24.3068 C   0  0  0  0  0  0  0  0  0  0  0  0
   13.7935  -16.9195   23.8148 C   0  0  2  0  0  0  0  0  0  0  0  0
   12.5981  -16.0733   23.9583 N   0  0  0  0  0  0  0  0  0  0  0  0
   13.5565  -18.1217   24.6405 C   0  0  0  0  0  0  0  0  0  0  0  0
   12.8602  -18.0043   25.6729 O   0  0  0  0  0  0  0  0  0  0  0  0
   14.0654  -19.3654   24.3282 O   0  0  0  0  0  0  0  0  0  0  0  0
  1  5  1  0
  2  3  1  0
  2  1  1  0
  3  4  1  0
  4  5  1  0
  6 11  1  0
  5  6  1  1
  7  6  2  0
  8  9  1  0
 10 11  1  0
 10  9  1  1
 12 10  1  0
 12 19  1  0
 13 12  2  0
 15 14  1  0
 16 15  2  0
 17 15  1  0
 18 19  1  0
 18 17  1  1
 20 18  1  0
 21 20  2  0
 22 20  1  0
M  END
$$$$
