PSN.pdb
     RDKit          3D

 22 22  0  0  1  0  0  0  0  0999 V2000
    7.9114  -15.1352   18.0036 N   0  0  0  0  0  0  0  0  0  0  0  0
    6.8257  -14.7336   17.1260 C   0  0  0  0  0  0  0  0  0  0  0  0
    7.0698  -13.3174   16.7183 C   0  0  0  0  0  0  0  0  0  0  0  0
    8.1685  -12.8670   17.6858 C   0  0  0  0  0  0  0  0  0  0  0  0
    8.9318  -14.1409   17.8804 C   0  0  1  0  0  0  0  0  0  0  0  0
    9.8650  -14.1218   19.0264 C   0  0  0  0  0  0  0  0  0  0  0  0
   10.9993  -13.5367   18.9512 O   0  0  0  0  0  0  0  0  0  0  0  0
    9.4076  -16.4935   22.5816 O   0  0  0  0  0  0  0  0  0  0  0  0
    9.8200  -15.1844   22.6094 C   0  0  0  0  0  0  0  0  0  0  0  0
   10.5674  -14.7374   21.3718 C   0  0  2  0  0  0  0  0  0  0  0  0
    9.6065  -14.7308   20.2859 N   0  0  0  0  0  0  0  0  0  0  0  0
   11.7553  -15.5376   21.0831 C   0  0  0  0  0  0  0  0  0  0  0  0
   11.6479  -16.6119   20.4188 O   0  0  0  0  0  0  0  0  0  0  0  0
   15.0351  -13.8230   18.6920 N   0  0  0  0  0  0  0  0  0  0  0  0
   14.9960  -15.1548   19.1659 C   0  0  0  0  0  0  0  0  0  0  0  0
   14.6964  -16.0612   18.3487 O   0  0  0  0  0  0  0  0  0  0  0  0
   15.3057  -15.4026   20.5771 C   0  0  0  0  0  0  0  0  0  0  0  0
   14.2042  -16.0710   21.3467 C   0  0  2  0  0  0  0  0  0  0  0  0
   13.0523  -15.1707   21.5145 N   0  0  0  0  0  0  0  0  0  0  0  0
   14.6821  -16.3967   22.7063 C   0  0  0  0  0  0  0  0  0  0  0  0
   14.1082  -15.8622   23.6807 O   0  0  0  0  0  0  0  0  0  0  0  0
   15.7292  -17.2606   22.9527 O   0  0  0  0  0  0  0  0  0  0  0  0
  1  5  1  0
  2  3  1  0
  2  1  1  0
  3  4  1  0
  4  5  1  0
  6 11  1  0
  5  6  1  1
  7  6  2  0
  8  9  1  0
 10 11  1  0
 10  9  1  1
 12 10  1  0
 12 19  1  0
 13 12  2  0
 15 14  1  0
 16 15  2  0
 17 15  1  0
 18 19  1  0
 18 17  1  6
 20 18  1  0
 21 20  2  0
 22 20  1  0
M  END
$$$$
