PSN.pdb
     RDKit          3D

 22 22  0  0  1  0  0  0  0  0999 V2000
    7.3236  -15.1271   19.7596 N   0  0  0  0  0  0  0  0  0  0  0  0
    6.6965  -14.5084   18.6046 C   0  0  0  0  0  0  0  0  0  0  0  0
    7.4527  -13.2592   18.2903 C   0  0  0  0  0  0  0  0  0  0  0  0
    8.3189  -13.0602   19.5378 C   0  0  0  0  0  0  0  0  0  0  0  0
    8.5844  -14.4775   19.9427 C   0  0  1  0  0  0  0  0  0  0  0  0
    9.1218  -14.6286   21.3112 C   0  0  0  0  0  0  0  0  0  0  0  0
   10.3729  -14.5184   21.5508 O   0  0  0  0  0  0  0  0  0  0  0  0
    8.1869  -14.8193   26.0873 O   0  0  0  0  0  0  0  0  0  0  0  0
    7.8720  -14.5845   24.7720 C   0  0  0  0  0  0  0  0  0  0  0  0
    8.8977  -15.0932   23.7825 C   0  0  2  0  0  0  0  0  0  0  0  0
    8.3308  -14.9025   22.4616 N   0  0  0  0  0  0  0  0  0  0  0  0
    9.3218  -16.4689   24.0326 C   0  0  0  0  0  0  0  0  0  0  0  0
    8.5911  -17.4341   23.6567 O   0  0  0  0  0  0  0  0  0  0  0  0
   13.0028  -20.7102   23.7693 N   0  0  0  0  0  0  0  0  0  0  0  0
   12.8312  -19.7886   24.8282 C   0  0  0  0  0  0  0  0  0  0  0  0
   13.1147  -20.1702   25.9915 O   0  0  0  0  0  0  0  0  0  0  0  0
   12.3348  -18.4463   24.5114 C   0  0  0  0  0  0  0  0  0  0  0  0
   10.9221  -18.1877   24.9470 C   0  0  2  0  0  0  0  0  0  0  0  0
   10.5340  -16.7921   24.6877 N   0  0  0  0  0  0  0  0  0  0  0  0
   10.8134  -18.3878   26.4069 C   0  0  0  0  0  0  0  0  0  0  0  0
   10.4427  -19.5063   26.8262 O   0  0  0  0  0  0  0  0  0  0  0  0
   11.1006  -17.4020   27.3283 O   0  0  0  0  0  0  0  0  0  0  0  0
  1  5  1  0
  2  3  1  0
  2  1  1  0
  3  4  1  0
  4  5  1  0
  6 11  1  0
  5  6  1  1
  7  6  2  0
  8  9  1  0
 10 11  1  0
 10  9  1  1
 12 10  1  0
 12 19  1  0
 13 12  2  0
 15 14  1  0
 16 15  2  0
 17 15  1  0
 18 19  1  0
 18 17  1  1
 20 18  1  0
 21 20  2  0
 22 20  1  0
M  END
$$$$
