PSN.pdb
     RDKit          3D

 22 22  0  0  1  0  0  0  0  0999 V2000
    9.2015  -12.6853   18.8989 N   0  0  0  0  0  0  0  0  0  0  0  0
    8.0762  -12.0846   18.2039 C   0  0  0  0  0  0  0  0  0  0  0  0
    6.9194  -13.0233   18.3135 C   0  0  0  0  0  0  0  0  0  0  0  0
    7.5721  -14.3133   18.8196 C   0  0  0  0  0  0  0  0  0  0  0  0
    8.6795  -13.7709   19.6696 C   0  0  1  0  0  0  0  0  0  0  0  0
    9.7068  -14.7673   20.0389 C   0  0  0  0  0  0  0  0  0  0  0  0
    9.3866  -15.8975   20.5435 O   0  0  0  0  0  0  0  0  0  0  0  0
   13.4663  -15.3303   18.1880 O   0  0  0  0  0  0  0  0  0  0  0  0
   13.3887  -15.1591   19.5479 C   0  0  0  0  0  0  0  0  0  0  0  0
   12.0823  -15.6128   20.1622 C   0  0  2  0  0  0  0  0  0  0  0  0
   11.1075  -14.5781   19.8767 N   0  0  0  0  0  0  0  0  0  0  0  0
   12.1825  -15.9311   21.5847 C   0  0  0  0  0  0  0  0  0  0  0  0
   12.0437  -15.0144   22.4491 O   0  0  0  0  0  0  0  0  0  0  0  0
   13.2478  -20.3434   25.5452 N   0  0  0  0  0  0  0  0  0  0  0  0
   12.4039  -19.2428   25.2681 C   0  0  0  0  0  0  0  0  0  0  0  0
   11.8963  -18.6314   26.2416 O   0  0  0  0  0  0  0  0  0  0  0  0
   12.1697  -18.8783   23.8678 C   0  0  0  0  0  0  0  0  0  0  0  0
   12.6535  -17.5079   23.4934 C   0  0  2  0  0  0  0  0  0  0  0  0
   12.4321  -17.2393   22.0636 N   0  0  0  0  0  0  0  0  0  0  0  0
   14.1122  -17.4245   23.7137 C   0  0  0  0  0  0  0  0  0  0  0  0
   14.8701  -17.5741   22.7299 O   0  0  0  0  0  0  0  0  0  0  0  0
   14.6778  -17.1900   24.9500 O   0  0  0  0  0  0  0  0  0  0  0  0
  1  5  1  0
  2  3  1  0
  2  1  1  0
  3  4  1  0
  4  5  1  0
  6 11  1  0
  5  6  1  6
  7  6  2  0
  8  9  1  0
 10 11  1  0
 10  9  1  1
 12 10  1  0
 12 19  1  0
 13 12  2  0
 15 14  1  0
 16 15  2  0
 17 15  1  0
 18 19  1  0
 18 17  1  6
 20 18  1  0
 21 20  2  0
 22 20  1  0
M  END
$$$$
