PSN.pdb
     RDKit          3D

 22 22  0  0  1  0  0  0  0  0999 V2000
    7.1308  -14.9680   19.7059 N   0  0  0  0  0  0  0  0  0  0  0  0
    6.4736  -14.3762   18.5536 C   0  0  0  0  0  0  0  0  0  0  0  0
    7.3515  -13.2818   18.0408 C   0  0  0  0  0  0  0  0  0  0  0  0
    8.3623  -13.0933   19.1761 C   0  0  0  0  0  0  0  0  0  0  0  0
    8.4786  -14.4903   19.7036 C   0  0  1  0  0  0  0  0  0  0  0  0
    9.1317  -14.5888   21.0258 C   0  0  0  0  0  0  0  0  0  0  0  0
   10.3913  -14.4159   21.1604 O   0  0  0  0  0  0  0  0  0  0  0  0
    7.0088  -15.4178   24.6210 O   0  0  0  0  0  0  0  0  0  0  0  0
    8.1441  -14.6469   24.5873 C   0  0  0  0  0  0  0  0  0  0  0  0
    9.1332  -15.0365   23.5103 C   0  0  2  0  0  0  0  0  0  0  0  0
    8.4504  -14.8759   22.2413 N   0  0  0  0  0  0  0  0  0  0  0  0
    9.7027  -16.3698   23.6917 C   0  0  0  0  0  0  0  0  0  0  0  0
    9.1651  -17.3692   23.1267 O   0  0  0  0  0  0  0  0  0  0  0  0
   14.1879  -16.7469   22.7646 N   0  0  0  0  0  0  0  0  0  0  0  0
   13.2348  -17.7592   23.0229 C   0  0  0  0  0  0  0  0  0  0  0  0
   12.7596  -18.3838   22.0414 O   0  0  0  0  0  0  0  0  0  0  0  0
   12.8560  -18.0223   24.4143 C   0  0  0  0  0  0  0  0  0  0  0  0
   11.3790  -17.9737   24.6758 C   0  0  2  0  0  0  0  0  0  0  0  0
   10.8505  -16.6140   24.4828 N   0  0  0  0  0  0  0  0  0  0  0  0
   11.1177  -18.3278   26.0863 C   0  0  0  0  0  0  0  0  0  0  0  0
   10.5336  -17.4909   26.8095 O   0  0  0  0  0  0  0  0  0  0  0  0
   11.4861  -19.5350   26.6433 O   0  0  0  0  0  0  0  0  0  0  0  0
  1  5  1  0
  2  3  1  0
  2  1  1  0
  3  4  1  0
  4  5  1  0
  6 11  1  0
  5  6  1  1
  7  6  2  0
  8  9  1  0
 10 11  1  0
 10  9  1  1
 12 10  1  0
 12 19  1  0
 13 12  2  0
 15 14  1  0
 16 15  2  0
 17 15  1  0
 18 19  1  0
 18 17  1  1
 20 18  1  0
 21 20  2  0
 22 20  1  0
M  END
$$$$
