PSN.pdb
     RDKit          3D

 22 22  0  0  1  0  0  0  0  0999 V2000
    7.3416  -14.9501   19.1235 N   0  0  0  0  0  0  0  0  0  0  0  0
    6.7006  -14.3612   17.9606 C   0  0  0  0  0  0  0  0  0  0  0  0
    7.4008  -13.0774   17.6557 C   0  0  0  0  0  0  0  0  0  0  0  0
    8.2408  -12.8383   18.9141 C   0  0  0  0  0  0  0  0  0  0  0  0
    8.5678  -14.2417   19.3226 C   0  0  1  0  0  0  0  0  0  0  0  0
    9.0943  -14.3678   20.6978 C   0  0  0  0  0  0  0  0  0  0  0  0
   10.2965  -14.0390   20.9829 O   0  0  0  0  0  0  0  0  0  0  0  0
    6.7781  -15.7584   24.0340 O   0  0  0  0  0  0  0  0  0  0  0  0
    7.6762  -14.7213   24.0835 C   0  0  0  0  0  0  0  0  0  0  0  0
    8.8644  -14.8778   23.1596 C   0  0  2  0  0  0  0  0  0  0  0  0
    8.3447  -14.8510   21.8062 N   0  0  0  0  0  0  0  0  0  0  0  0
    9.6741  -16.0611   23.4409 C   0  0  0  0  0  0  0  0  0  0  0  0
    9.4037  -17.1618   22.8733 O   0  0  0  0  0  0  0  0  0  0  0  0
   14.3132  -15.5245   23.2997 N   0  0  0  0  0  0  0  0  0  0  0  0
   13.6148  -16.7440   23.4579 C   0  0  0  0  0  0  0  0  0  0  0  0
   13.5732  -17.5292   22.4776 O   0  0  0  0  0  0  0  0  0  0  0  0
   12.9816  -17.0229   24.7501 C   0  0  0  0  0  0  0  0  0  0  0  0
   11.5042  -17.2761   24.6760 C   0  0  2  0  0  0  0  0  0  0  0  0
   10.7716  -16.0464   24.3342 N   0  0  0  0  0  0  0  0  0  0  0  0
   11.0113  -17.7017   26.0024 C   0  0  0  0  0  0  0  0  0  0  0  0
   10.3539  -16.8825   26.6816 O   0  0  0  0  0  0  0  0  0  0  0  0
   11.2407  -18.9569   26.5269 O   0  0  0  0  0  0  0  0  0  0  0  0
  1  5  1  0
  2  3  1  0
  2  1  1  0
  3  4  1  0
  4  5  1  0
  6 11  1  0
  5  6  1  1
  7  6  2  0
  8  9  1  0
 10 11  1  0
 10  9  1  1
 12 10  1  0
 12 19  1  0
 13 12  2  0
 15 14  1  0
 16 15  2  0
 17 15  1  0
 18 19  1  0
 18 17  1  1
 20 18  1  0
 21 20  2  0
 22 20  1  0
M  END
$$$$
