PSN.pdb
     RDKit          3D

 22 22  0  0  1  0  0  0  0  0999 V2000
    6.9798  -15.0979   19.6141 N   0  0  0  0  0  0  0  0  0  0  0  0
    6.3121  -14.4957   18.4732 C   0  0  0  0  0  0  0  0  0  0  0  0
    7.1168  -13.3113   18.0475 C   0  0  0  0  0  0  0  0  0  0  0  0
    8.0767  -13.1089   19.2238 C   0  0  0  0  0  0  0  0  0  0  0  0
    8.2860  -14.5197   19.6810 C   0  0  1  0  0  0  0  0  0  0  0  0
    8.9064  -14.6403   21.0171 C   0  0  0  0  0  0  0  0  0  0  0  0
   10.1407  -14.3652   21.2050 O   0  0  0  0  0  0  0  0  0  0  0  0
    6.9789  -16.2965   24.4596 O   0  0  0  0  0  0  0  0  0  0  0  0
    7.6764  -15.1149   24.5032 C   0  0  0  0  0  0  0  0  0  0  0  0
    8.8151  -15.0235   23.5108 C   0  0  2  0  0  0  0  0  0  0  0  0
    8.2186  -15.0601   22.1896 N   0  0  0  0  0  0  0  0  0  0  0  0
    9.8451  -16.0415   23.7046 C   0  0  0  0  0  0  0  0  0  0  0  0
    9.7127  -17.1843   23.1723 O   0  0  0  0  0  0  0  0  0  0  0  0
   14.2487  -18.4316   24.0551 N   0  0  0  0  0  0  0  0  0  0  0  0
   14.5319  -17.1169   24.4924 C   0  0  0  0  0  0  0  0  0  0  0  0
   15.7377  -16.7803   24.6014 O   0  0  0  0  0  0  0  0  0  0  0  0
   13.4085  -16.2243   24.7927 C   0  0  0  0  0  0  0  0  0  0  0  0
   12.0550  -16.8463   24.6099 C   0  0  2  0  0  0  0  0  0  0  0  0
   11.0123  -15.8170   24.4728 N   0  0  0  0  0  0  0  0  0  0  0  0
   11.7098  -17.6341   25.8114 C   0  0  0  0  0  0  0  0  0  0  0  0
   11.1241  -17.0545   26.7525 O   0  0  0  0  0  0  0  0  0  0  0  0
   12.0017  -18.9758   25.9451 O   0  0  0  0  0  0  0  0  0  0  0  0
  1  5  1  0
  2  3  1  0
  2  1  1  0
  3  4  1  0
  4  5  1  0
  6 11  1  0
  5  6  1  1
  7  6  2  0
  8  9  1  0
 10 11  1  0
 10  9  1  1
 12 10  1  0
 12 19  1  0
 13 12  2  0
 15 14  1  0
 16 15  2  0
 17 15  1  0
 18 19  1  0
 18 17  1  1
 20 18  1  0
 21 20  2  0
 22 20  1  0
M  END
$$$$
