PSN.pdb
     RDKit          3D

 22 22  0  0  1  0  0  0  0  0999 V2000
    7.3345  -14.9535   19.7811 N   0  0  0  0  0  0  0  0  0  0  0  0
    6.7606  -14.3155   18.6091 C   0  0  0  0  0  0  0  0  0  0  0  0
    7.5276  -13.0595   18.3528 C   0  0  0  0  0  0  0  0  0  0  0  0
    8.3338  -12.8813   19.6429 C   0  0  0  0  0  0  0  0  0  0  0  0
    8.5837  -14.3052   20.0347 C   0  0  1  0  0  0  0  0  0  0  0  0
    9.0567  -14.4797   21.4240 C   0  0  0  0  0  0  0  0  0  0  0  0
   10.2518  -14.1775   21.7630 O   0  0  0  0  0  0  0  0  0  0  0  0
    6.5966  -15.9542   24.5944 O   0  0  0  0  0  0  0  0  0  0  0  0
    7.5482  -14.9783   24.7570 C   0  0  0  0  0  0  0  0  0  0  0  0
    8.7494  -15.1177   23.8472 C   0  0  2  0  0  0  0  0  0  0  0  0
    8.2595  -14.9840   22.4890 N   0  0  0  0  0  0  0  0  0  0  0  0
    9.5107  -16.3456   24.0652 C   0  0  0  0  0  0  0  0  0  0  0  0
    9.1928  -17.4051   23.4460 O   0  0  0  0  0  0  0  0  0  0  0  0
   13.8252  -18.9699   23.4107 N   0  0  0  0  0  0  0  0  0  0  0  0
   13.2618  -17.7344   23.8059 C   0  0  0  0  0  0  0  0  0  0  0  0
   13.2337  -16.8041   22.9616 O   0  0  0  0  0  0  0  0  0  0  0  0
   12.7445  -17.6085   25.1716 C   0  0  0  0  0  0  0  0  0  0  0  0
   11.2507  -17.7039   25.2812 C   0  0  2  0  0  0  0  0  0  0  0  0
   10.6116  -16.4200   24.9515 N   0  0  0  0  0  0  0  0  0  0  0  0
   10.8789  -18.0096   26.6782 C   0  0  0  0  0  0  0  0  0  0  0  0
   11.1371  -19.1491   27.1248 O   0  0  0  0  0  0  0  0  0  0  0  0
   10.2617  -17.1005   27.5124 O   0  0  0  0  0  0  0  0  0  0  0  0
  1  5  1  0
  2  3  1  0
  2  1  1  0
  3  4  1  0
  4  5  1  0
  6 11  1  0
  5  6  1  1
  7  6  2  0
  8  9  1  0
 10 11  1  0
 10  9  1  1
 12 10  1  0
 12 19  1  0
 13 12  2  0
 15 14  1  0
 16 15  2  0
 17 15  1  0
 18 19  1  0
 18 17  1  1
 20 18  1  0
 21 20  2  0
 22 20  1  0
M  END
$$$$
