KWC.pdb
     RDKit          3D

 30 31  0  0  1  0  0  0  0  0999 V2000
   27.0413  -22.5770  -15.2549 N   0  0  0  0  0  0  0  0  0  0  0  0
   27.2561  -21.3795  -14.4720 C   0  0  1  0  0  0  0  0  0  0  0  0
   26.6524  -20.1406  -15.0428 C   0  0  0  0  0  0  0  0  0  0  0  0
   27.3241  -19.5159  -16.2003 C   0  0  0  0  0  0  0  0  0  0  0  0
   28.6283  -18.8708  -15.8358 C   0  0  0  0  0  0  0  0  0  0  0  0
   28.7527  -17.5966  -16.7086 C   0  0  0  0  0  0  0  0  0  0  0  0
   29.3246  -18.0203  -17.9554 N   0  0  0  0  0  0  0  0  0  0  0  0
   26.6982  -21.5662  -13.1237 C   0  0  0  0  0  0  0  0  0  0  0  0
   25.7146  -22.2929  -12.9445 O   0  0  0  0  0  0  0  0  0  0  0  0
   27.2775  -20.9194  -12.0168 N   0  0  0  0  0  0  0  0  0  0  0  0
   26.7304  -20.8851  -10.7072 C   0  0  1  0  0  0  0  0  0  0  0  0
   27.5768  -20.2845   -9.6264 C   0  0  0  0  0  0  0  0  0  0  0  0
   26.9067  -20.3699   -8.3029 C   0  0  0  0  0  0  0  0  0  0  0  0
   25.5898  -20.7780   -8.0671 C   0  0  0  0  0  0  0  0  0  0  0  0
   25.3342  -20.7515   -6.7560 N   0  0  0  0  0  0  0  0  0  0  0  0
   26.4450  -20.3365   -6.1152 C   0  0  0  0  0  0  0  0  0  0  0  0
   26.6705  -20.1443   -4.7563 C   0  0  0  0  0  0  0  0  0  0  0  0
   27.9108  -19.7021   -4.3688 C   0  0  0  0  0  0  0  0  0  0  0  0
   28.9116  -19.4534   -5.3008 C   0  0  0  0  0  0  0  0  0  0  0  0
   28.6684  -19.6496   -6.6362 C   0  0  0  0  0  0  0  0  0  0  0  0
   27.4147  -20.0985   -7.0425 C   0  0  0  0  0  0  0  0  0  0  0  0
   25.4620  -20.1164  -10.7489 C   0  0  0  0  0  0  0  0  0  0  0  0
   25.5456  -18.8707  -10.9211 O   0  0  0  0  0  0  0  0  0  0  0  0
   24.1923  -20.7362  -10.6030 N   0  0  0  0  0  0  0  0  0  0  0  0
   22.9842  -19.9764  -10.7501 C   0  0  1  0  0  0  0  0  0  0  0  0
   22.4750  -19.9773  -12.1790 C   0  0  0  0  0  0  0  0  0  0  0  0
   22.5271  -21.6740  -12.8227 S   0  0  0  0  0  0  0  0  0  0  0  0
   21.9223  -20.5907   -9.9238 C   0  0  0  0  0  0  0  0  0  0  0  0
   20.6996  -19.9535   -9.8179 O   0  0  0  0  0  0  0  0  0  0  0  0
   22.1277  -21.6865   -9.3197 O   0  0  0  0  0  0  0  0  0  0  0  0
  2  8  1  0
  2  1  1  6
  3  4  1  0
  3  2  1  0
  5  6  1  0
  5  4  1  0
  6  7  1  0
  8  9  2  0
 10 11  1  0
 10  8  1  0
 11 12  1  1
 13 12  1  0
 14 13  2  0
 15 14  1  0
 16 15  1  0
 16 21  2  0
 17 16  1  0
 18 17  2  0
 18 19  1  0
 19 20  2  0
 20 21  1  0
 21 13  1  0
 22 11  1  0
 23 22  2  0
 24 22  1  0
 25 26  1  6
 25 24  1  0
 26 27  1  0
 28 29  1  0
 28 25  1  0
 30 28  2  0
M  END
$$$$
