KWC.pdb
     RDKit          3D

 30 31  0  0  1  0  0  0  0  0999 V2000
   27.9607  -31.4934  -15.9722 N   0  0  0  0  0  0  0  0  0  0  0  0
   26.5663  -31.7980  -16.2085 C   0  0  1  0  0  0  0  0  0  0  0  0
   25.9869  -32.8288  -15.2992 C   0  0  0  0  0  0  0  0  0  0  0  0
   26.3266  -34.2432  -15.5544 C   0  0  0  0  0  0  0  0  0  0  0  0
   25.4246  -34.8830  -16.5679 C   0  0  0  0  0  0  0  0  0  0  0  0
   25.8781  -36.3590  -16.6970 C   0  0  0  0  0  0  0  0  0  0  0  0
   25.0425  -36.9472  -17.7054 N   0  0  0  0  0  0  0  0  0  0  0  0
   25.7634  -30.5739  -16.0627 C   0  0  0  0  0  0  0  0  0  0  0  0
   25.9854  -29.7818  -15.1402 O   0  0  0  0  0  0  0  0  0  0  0  0
   24.7301  -30.2867  -16.9731 N   0  0  0  0  0  0  0  0  0  0  0  0
   23.9086  -29.1291  -16.9438 C   0  0  1  0  0  0  0  0  0  0  0  0
   23.2288  -28.7389  -18.2208 C   0  0  0  0  0  0  0  0  0  0  0  0
   22.5123  -27.4448  -18.0797 C   0  0  0  0  0  0  0  0  0  0  0  0
   23.0412  -26.2584  -17.5610 C   0  0  0  0  0  0  0  0  0  0  0  0
   22.1195  -25.2924  -17.6062 N   0  0  0  0  0  0  0  0  0  0  0  0
   20.9931  -25.8049  -18.1404 C   0  0  0  0  0  0  0  0  0  0  0  0
   19.7668  -25.1967  -18.3867 C   0  0  0  0  0  0  0  0  0  0  0  0
   18.7715  -25.9626  -18.9407 C   0  0  0  0  0  0  0  0  0  0  0  0
   18.9782  -27.3025  -19.2469 C   0  0  0  0  0  0  0  0  0  0  0  0
   20.1953  -27.8829  -18.9961 C   0  0  0  0  0  0  0  0  0  0  0  0
   21.2136  -27.1170  -18.4351 C   0  0  0  0  0  0  0  0  0  0  0  0
   22.8475  -29.3328  -15.9268 C   0  0  0  0  0  0  0  0  0  0  0  0
   22.2491  -30.4419  -15.9287 O   0  0  0  0  0  0  0  0  0  0  0  0
   22.5017  -28.3334  -14.9785 N   0  0  0  0  0  0  0  0  0  0  0  0
   21.4989  -28.5826  -13.9832 C   0  0  1  0  0  0  0  0  0  0  0  0
   21.6733  -27.7044  -12.7588 C   0  0  0  0  0  0  0  0  0  0  0  0
   20.4523  -28.1897  -11.5060 S   0  0  0  0  0  0  0  0  0  0  0  0
   20.1687  -28.2626  -14.5455 C   0  0  0  0  0  0  0  0  0  0  0  0
   20.0925  -27.6008  -15.7573 O   0  0  0  0  0  0  0  0  0  0  0  0
   19.1112  -28.5894  -13.9268 O   0  0  0  0  0  0  0  0  0  0  0  0
  2  8  1  0
  2  1  1  1
  3  4  1  0
  3  2  1  0
  5  6  1  0
  5  4  1  0
  6  7  1  0
  8  9  2  0
 10 11  1  0
 10  8  1  0
 11 12  1  6
 13 12  1  0
 14 13  2  0
 15 14  1  0
 16 15  1  0
 16 21  2  0
 17 16  1  0
 18 17  2  0
 18 19  1  0
 19 20  2  0
 20 21  1  0
 21 13  1  0
 22 11  1  0
 23 22  2  0
 24 22  1  0
 25 26  1  1
 25 24  1  0
 26 27  1  0
 28 29  1  0
 28 25  1  0
 30 28  2  0
M  END
$$$$
