KWC.pdb
     RDKit          3D

 30 31  0  0  1  0  0  0  0  0999 V2000
   29.0916  -21.4489  -13.4018 N   0  0  0  0  0  0  0  0  0  0  0  0
   28.1709  -20.4069  -13.0026 C   0  0  1  0  0  0  0  0  0  0  0  0
   27.5680  -19.6375  -14.1294 C   0  0  0  0  0  0  0  0  0  0  0  0
   28.4533  -19.2332  -15.2402 C   0  0  0  0  0  0  0  0  0  0  0  0
   28.5029  -20.2495  -16.3424 C   0  0  0  0  0  0  0  0  0  0  0  0
   29.4140  -19.6607  -17.4488 C   0  0  0  0  0  0  0  0  0  0  0  0
   28.6708  -18.5898  -18.0506 N   0  0  0  0  0  0  0  0  0  0  0  0
   27.0690  -20.9949  -12.2252 C   0  0  0  0  0  0  0  0  0  0  0  0
   26.7468  -22.1774  -12.3852 O   0  0  0  0  0  0  0  0  0  0  0  0
   26.3653  -20.2184  -11.2866 N   0  0  0  0  0  0  0  0  0  0  0  0
   25.3095  -20.6864  -10.4608 C   0  0  1  0  0  0  0  0  0  0  0  0
   25.0050  -19.8965   -9.2245 C   0  0  0  0  0  0  0  0  0  0  0  0
   26.2427  -19.5783   -8.4662 C   0  0  0  0  0  0  0  0  0  0  0  0
   27.1463  -18.5495   -8.7514 C   0  0  0  0  0  0  0  0  0  0  0  0
   28.1308  -18.5465   -7.8481 N   0  0  0  0  0  0  0  0  0  0  0  0
   27.9056  -19.5453   -6.9715 C   0  0  0  0  0  0  0  0  0  0  0  0
   28.6476  -19.9435   -5.8646 C   0  0  0  0  0  0  0  0  0  0  0  0
   28.1889  -21.0130   -5.1367 C   0  0  0  0  0  0  0  0  0  0  0  0
   27.0214  -21.6790   -5.4908 C   0  0  0  0  0  0  0  0  0  0  0  0
   26.3045  -21.2699   -6.5861 C   0  0  0  0  0  0  0  0  0  0  0  0
   26.7585  -20.1860   -7.3326 C   0  0  0  0  0  0  0  0  0  0  0  0
   24.0663  -20.7314  -11.2695 C   0  0  0  0  0  0  0  0  0  0  0  0
   23.9469  -19.8845  -12.1951 O   0  0  0  0  0  0  0  0  0  0  0  0
   23.0376  -21.6811  -11.0298 N   0  0  0  0  0  0  0  0  0  0  0  0
   21.8636  -21.7141  -11.8539 C   0  0  1  0  0  0  0  0  0  0  0  0
   21.1958  -23.0761  -11.8488 C   0  0  0  0  0  0  0  0  0  0  0  0
   19.6263  -22.9669  -12.7546 S   0  0  0  0  0  0  0  0  0  0  0  0
   20.8709  -20.7559  -11.3210 C   0  0  0  0  0  0  0  0  0  0  0  0
   19.7997  -20.3869  -12.1138 O   0  0  0  0  0  0  0  0  0  0  0  0
   20.9980  -20.2779  -10.1534 O   0  0  0  0  0  0  0  0  0  0  0  0
  2  8  1  0
  2  1  1  6
  3  4  1  0
  3  2  1  0
  5  6  1  0
  5  4  1  0
  6  7  1  0
  8  9  2  0
 10 11  1  0
 10  8  1  0
 11 12  1  1
 13 12  1  0
 14 13  2  0
 15 14  1  0
 16 15  1  0
 16 21  2  0
 17 16  1  0
 18 17  2  0
 18 19  1  0
 19 20  2  0
 20 21  1  0
 21 13  1  0
 22 11  1  0
 23 22  2  0
 24 22  1  0
 25 26  1  1
 25 24  1  0
 26 27  1  0
 28 29  1  0
 28 25  1  0
 30 28  2  0
M  END
$$$$
