KWC.pdb
     RDKit          3D

 30 31  0  0  1  0  0  0  0  0999 V2000
   27.5818  -19.6847  -14.4769 N   0  0  0  0  0  0  0  0  0  0  0  0
   26.2377  -20.2131  -14.3929 C   0  0  1  0  0  0  0  0  0  0  0  0
   25.9095  -21.2560  -15.4077 C   0  0  0  0  0  0  0  0  0  0  0  0
   26.3426  -21.0238  -16.8004 C   0  0  0  0  0  0  0  0  0  0  0  0
   25.7482  -19.7807  -17.3934 C   0  0  0  0  0  0  0  0  0  0  0  0
   26.2291  -19.7170  -18.8650 C   0  0  0  0  0  0  0  0  0  0  0  0
   25.7731  -18.4570  -19.3804 N   0  0  0  0  0  0  0  0  0  0  0  0
   26.0230  -20.8034  -13.0626 C   0  0  0  0  0  0  0  0  0  0  0  0
   25.2723  -21.7747  -12.9186 O   0  0  0  0  0  0  0  0  0  0  0  0
   26.6707  -20.2702  -11.9333 N   0  0  0  0  0  0  0  0  0  0  0  0
   26.4070  -20.6355  -10.5870 C   0  0  1  0  0  0  0  0  0  0  0  0
   27.4133  -20.2243   -9.5557 C   0  0  0  0  0  0  0  0  0  0  0  0
   26.9285  -20.5117   -8.1808 C   0  0  0  0  0  0  0  0  0  0  0  0
   25.8595  -21.3460   -7.8379 C   0  0  0  0  0  0  0  0  0  0  0  0
   25.7221  -21.3851   -6.5095 N   0  0  0  0  0  0  0  0  0  0  0  0
   26.6702  -20.5995   -5.9613 C   0  0  0  0  0  0  0  0  0  0  0  0
   26.9290  -20.3158   -4.6246 C   0  0  0  0  0  0  0  0  0  0  0  0
   27.9673  -19.4645   -4.3395 C   0  0  0  0  0  0  0  0  0  0  0  0
   28.7374  -18.9022   -5.3508 C   0  0  0  0  0  0  0  0  0  0  0  0
   28.4655  -19.1953   -6.6626 C   0  0  0  0  0  0  0  0  0  0  0  0
   27.4155  -20.0579   -6.9654 C   0  0  0  0  0  0  0  0  0  0  0  0
   25.1047  -20.0470  -10.1879 C   0  0  0  0  0  0  0  0  0  0  0  0
   25.0626  -18.7997  -10.0126 O   0  0  0  0  0  0  0  0  0  0  0  0
   23.9382  -20.8364  -10.0044 N   0  0  0  0  0  0  0  0  0  0  0  0
   22.6695  -20.2200   -9.7418 C   0  0  1  0  0  0  0  0  0  0  0  0
   22.1705  -19.4068  -10.9212 C   0  0  0  0  0  0  0  0  0  0  0  0
   22.0762  -20.4818  -12.3811 S   0  0  0  0  0  0  0  0  0  0  0  0
   21.6602  -21.2737   -9.4991 C   0  0  0  0  0  0  0  0  0  0  0  0
   20.4068  -20.9114   -9.0410 O   0  0  0  0  0  0  0  0  0  0  0  0
   21.9380  -22.4932   -9.7075 O   0  0  0  0  0  0  0  0  0  0  0  0
  2  8  1  0
  2  1  1  1
  3  4  1  0
  3  2  1  0
  5  6  1  0
  5  4  1  0
  6  7  1  0
  8  9  2  0
 10 11  1  0
 10  8  1  0
 11 12  1  1
 13 12  1  0
 14 13  2  0
 15 14  1  0
 16 15  1  0
 16 21  2  0
 17 16  1  0
 18 17  2  0
 18 19  1  0
 19 20  2  0
 20 21  1  0
 21 13  1  0
 22 11  1  0
 23 22  2  0
 24 22  1  0
 25 26  1  6
 25 24  1  0
 26 27  1  0
 28 29  1  0
 28 25  1  0
 30 28  2  0
M  END
$$$$
