KWC.pdb
     RDKit          3D

 30 31  0  0  1  0  0  0  0  0999 V2000
   25.8249  -19.8320  -15.5455 N   0  0  0  0  0  0  0  0  0  0  0  0
   26.7886  -19.3147  -14.5986 C   0  0  1  0  0  0  0  0  0  0  0  0
   27.3352  -17.9676  -14.9329 C   0  0  0  0  0  0  0  0  0  0  0  0
   28.3385  -17.8789  -16.0130 C   0  0  0  0  0  0  0  0  0  0  0  0
   28.2099  -18.9859  -17.0170 C   0  0  0  0  0  0  0  0  0  0  0  0
   29.2457  -18.6963  -18.1324 C   0  0  0  0  0  0  0  0  0  0  0  0
   29.1335  -19.7758  -19.0722 N   0  0  0  0  0  0  0  0  0  0  0  0
   26.1710  -19.2264  -13.2663 C   0  0  0  0  0  0  0  0  0  0  0  0
   25.4796  -18.2497  -12.9565 O   0  0  0  0  0  0  0  0  0  0  0  0
   26.3584  -20.2543  -12.3243 N   0  0  0  0  0  0  0  0  0  0  0  0
   25.6840  -20.3598  -11.0794 C   0  0  1  0  0  0  0  0  0  0  0  0
   24.6710  -21.4549  -10.9395 C   0  0  0  0  0  0  0  0  0  0  0  0
   23.4046  -21.1141  -11.6382 C   0  0  0  0  0  0  0  0  0  0  0  0
   23.1438  -21.2739  -13.0030 C   0  0  0  0  0  0  0  0  0  0  0  0
   21.8956  -20.8830  -13.2755 N   0  0  0  0  0  0  0  0  0  0  0  0
   21.3209  -20.4678  -12.1292 C   0  0  0  0  0  0  0  0  0  0  0  0
   20.0426  -19.9687  -11.9031 C   0  0  0  0  0  0  0  0  0  0  0  0
   19.7130  -19.6084  -10.6202 C   0  0  0  0  0  0  0  0  0  0  0  0
   20.6241  -19.7365   -9.5783 C   0  0  0  0  0  0  0  0  0  0  0  0
   21.8796  -20.2312   -9.8229 C   0  0  0  0  0  0  0  0  0  0  0  0
   22.2264  -20.6010  -11.1196 C   0  0  0  0  0  0  0  0  0  0  0  0
   26.6963  -20.5602  -10.0133 C   0  0  0  0  0  0  0  0  0  0  0  0
   27.6559  -21.3375  -10.2649 O   0  0  0  0  0  0  0  0  0  0  0  0
   26.6097  -19.9134   -8.7515 N   0  0  0  0  0  0  0  0  0  0  0  0
   27.2623  -20.4646   -7.5988 C   0  0  1  0  0  0  0  0  0  0  0  0
   27.6545  -19.3971   -6.5950 C   0  0  0  0  0  0  0  0  0  0  0  0
   28.7595  -18.2048   -7.4033 S   0  0  0  0  0  0  0  0  0  0  0  0
   26.3275  -21.3750   -6.9023 C   0  0  0  0  0  0  0  0  0  0  0  0
   25.0516  -21.5442   -7.4081 O   0  0  0  0  0  0  0  0  0  0  0  0
   26.6885  -21.9931   -5.8557 O   0  0  0  0  0  0  0  0  0  0  0  0
  2  8  1  0
  2  1  1  6
  3  4  1  0
  3  2  1  0
  5  6  1  0
  5  4  1  0
  6  7  1  0
  8  9  2  0
 10 11  1  0
 10  8  1  0
 11 12  1  6
 13 12  1  0
 14 13  2  0
 15 14  1  0
 16 15  1  0
 16 21  2  0
 17 16  1  0
 18 17  2  0
 18 19  1  0
 19 20  2  0
 20 21  1  0
 21 13  1  0
 22 11  1  0
 23 22  2  0
 24 22  1  0
 25 26  1  1
 25 24  1  0
 26 27  1  0
 28 29  1  0
 28 25  1  0
 30 28  2  0
M  END
$$$$
