KWC.pdb
     RDKit          3D

 30 31  0  0  1  0  0  0  0  0999 V2000
   26.4762  -25.4690  -16.0739 N   0  0  0  0  0  0  0  0  0  0  0  0
   25.2984  -26.1258  -16.5975 C   0  0  1  0  0  0  0  0  0  0  0  0
   25.4372  -27.5976  -16.7959 C   0  0  0  0  0  0  0  0  0  0  0  0
   26.5961  -28.0828  -17.5723 C   0  0  0  0  0  0  0  0  0  0  0  0
   27.7186  -28.5629  -16.7008 C   0  0  0  0  0  0  0  0  0  0  0  0
   27.7491  -30.1070  -16.8264 C   0  0  0  0  0  0  0  0  0  0  0  0
   28.6616  -30.4033  -17.8944 N   0  0  0  0  0  0  0  0  0  0  0  0
   24.1651  -25.9044  -15.6859 C   0  0  0  0  0  0  0  0  0  0  0  0
   24.3573  -25.5549  -14.5159 O   0  0  0  0  0  0  0  0  0  0  0  0
   22.8440  -26.0872  -16.1335 N   0  0  0  0  0  0  0  0  0  0  0  0
   21.6755  -25.7337  -15.4089 C   0  0  1  0  0  0  0  0  0  0  0  0
   20.5570  -25.1005  -16.1791 C   0  0  0  0  0  0  0  0  0  0  0  0
   19.4407  -24.7006  -15.2834 C   0  0  0  0  0  0  0  0  0  0  0  0
   19.4912  -23.7231  -14.2843 C   0  0  0  0  0  0  0  0  0  0  0  0
   18.2976  -23.6157  -13.6936 N   0  0  0  0  0  0  0  0  0  0  0  0
   17.4565  -24.4953  -14.2728 C   0  0  0  0  0  0  0  0  0  0  0  0
   16.1179  -24.7585  -14.0026 C   0  0  0  0  0  0  0  0  0  0  0  0
   15.4914  -25.7249  -14.7495 C   0  0  0  0  0  0  0  0  0  0  0  0
   16.1692  -26.4201  -15.7441 C   0  0  0  0  0  0  0  0  0  0  0  0
   17.4892  -26.1449  -15.9946 C   0  0  0  0  0  0  0  0  0  0  0  0
   18.1362  -25.1665  -15.2447 C   0  0  0  0  0  0  0  0  0  0  0  0
   21.1308  -26.9578  -14.7713 C   0  0  0  0  0  0  0  0  0  0  0  0
   21.0472  -27.9936  -15.4844 O   0  0  0  0  0  0  0  0  0  0  0  0
   20.7136  -26.9865  -13.4139 N   0  0  0  0  0  0  0  0  0  0  0  0
   20.2573  -28.2067  -12.8127 C   0  0  1  0  0  0  0  0  0  0  0  0
   20.8478  -28.4233  -11.4323 C   0  0  0  0  0  0  0  0  0  0  0  0
   20.6307  -26.9097  -10.4537 S   0  0  0  0  0  0  0  0  0  0  0  0
   18.7900  -28.1411  -12.6378 C   0  0  0  0  0  0  0  0  0  0  0  0
   18.1475  -26.9270  -12.7970 O   0  0  0  0  0  0  0  0  0  0  0  0
   18.1280  -29.1825  -12.3460 O   0  0  0  0  0  0  0  0  0  0  0  0
  2  8  1  0
  2  1  1  1
  3  4  1  0
  3  2  1  0
  5  6  1  0
  5  4  1  0
  6  7  1  0
  8  9  2  0
 10 11  1  0
 10  8  1  0
 11 12  1  6
 13 12  1  0
 14 13  2  0
 15 14  1  0
 16 15  1  0
 16 21  2  0
 17 16  1  0
 18 17  2  0
 18 19  1  0
 19 20  2  0
 20 21  1  0
 21 13  1  0
 22 11  1  0
 23 22  2  0
 24 22  1  0
 25 26  1  1
 25 24  1  0
 26 27  1  0
 28 29  1  0
 28 25  1  0
 30 28  2  0
M  END
$$$$
