KWC.pdb
     RDKit          3D

 30 31  0  0  1  0  0  0  0  0999 V2000
   26.9201  -19.1646  -15.2339 N   0  0  0  0  0  0  0  0  0  0  0  0
   26.8312  -20.4979  -15.7883 C   0  0  1  0  0  0  0  0  0  0  0  0
   28.1436  -21.1509  -16.0642 C   0  0  0  0  0  0  0  0  0  0  0  0
   29.1049  -20.4315  -16.9241 C   0  0  0  0  0  0  0  0  0  0  0  0
   28.4326  -19.5593  -17.9427 C   0  0  0  0  0  0  0  0  0  0  0  0
   29.5590  -18.9235  -18.7958 C   0  0  0  0  0  0  0  0  0  0  0  0
   29.4694  -19.5313  -20.0933 N   0  0  0  0  0  0  0  0  0  0  0  0
   26.0873  -21.3670  -14.8634 C   0  0  0  0  0  0  0  0  0  0  0  0
   26.2825  -22.5875  -14.8521 O   0  0  0  0  0  0  0  0  0  0  0  0
   25.1417  -20.8205  -13.9766 N   0  0  0  0  0  0  0  0  0  0  0  0
   24.3832  -21.5571  -13.0292 C   0  0  1  0  0  0  0  0  0  0  0  0
   23.9001  -20.8209  -11.8168 C   0  0  0  0  0  0  0  0  0  0  0  0
   25.0336  -20.3791  -10.9637 C   0  0  0  0  0  0  0  0  0  0  0  0
   25.0948  -19.1994  -10.2148 C   0  0  0  0  0  0  0  0  0  0  0  0
   26.2543  -19.1409   -9.5537 N   0  0  0  0  0  0  0  0  0  0  0  0
   26.9647  -20.2491   -9.8435 C   0  0  0  0  0  0  0  0  0  0  0  0
   28.2260  -20.6387   -9.4060 C   0  0  0  0  0  0  0  0  0  0  0  0
   28.7248  -21.8309   -9.8686 C   0  0  0  0  0  0  0  0  0  0  0  0
   27.9962  -22.6258  -10.7458 C   0  0  0  0  0  0  0  0  0  0  0  0
   26.7540  -22.2230  -11.1648 C   0  0  0  0  0  0  0  0  0  0  0  0
   26.2363  -21.0162  -10.7025 C   0  0  0  0  0  0  0  0  0  0  0  0
   23.1873  -22.1085  -13.7127 C   0  0  0  0  0  0  0  0  0  0  0  0
   22.8204  -21.5475  -14.7799 O   0  0  0  0  0  0  0  0  0  0  0  0
   22.4678  -23.2230  -13.2048 N   0  0  0  0  0  0  0  0  0  0  0  0
   21.3416  -23.7550  -13.9170 C   0  0  1  0  0  0  0  0  0  0  0  0
   21.1557  -25.2403  -13.6715 C   0  0  0  0  0  0  0  0  0  0  0  0
   19.5871  -25.7696  -14.4166 S   0  0  0  0  0  0  0  0  0  0  0  0
   20.1091  -23.0913  -13.4392 C   0  0  0  0  0  0  0  0  0  0  0  0
   18.9613  -23.1721  -14.2062 O   0  0  0  0  0  0  0  0  0  0  0  0
   20.1024  -22.4561  -12.3418 O   0  0  0  0  0  0  0  0  0  0  0  0
  2  8  1  0
  2  1  1  1
  3  4  1  0
  3  2  1  0
  5  6  1  0
  5  4  1  0
  6  7  1  0
  8  9  2  0
 10 11  1  0
 10  8  1  0
 11 12  1  1
 13 12  1  0
 14 13  2  0
 15 14  1  0
 16 15  1  0
 16 21  2  0
 17 16  1  0
 18 17  2  0
 18 19  1  0
 19 20  2  0
 20 21  1  0
 21 13  1  0
 22 11  1  0
 23 22  2  0
 24 22  1  0
 25 26  1  1
 25 24  1  0
 26 27  1  0
 28 29  1  0
 28 25  1  0
 30 28  2  0
M  END
$$$$
