KWC.pdb
     RDKit          3D

 30 31  0  0  1  0  0  0  0  0999 V2000
   24.5257  -19.2382  -18.6590 N   0  0  0  0  0  0  0  0  0  0  0  0
   23.6150  -20.3619  -18.6313 C   0  0  1  0  0  0  0  0  0  0  0  0
   23.9566  -21.4690  -19.5709 C   0  0  0  0  0  0  0  0  0  0  0  0
   23.2548  -21.5128  -20.8696 C   0  0  0  0  0  0  0  0  0  0  0  0
   22.6074  -20.2068  -21.2238 C   0  0  0  0  0  0  0  0  0  0  0  0
   21.9166  -20.4113  -22.5956 C   0  0  0  0  0  0  0  0  0  0  0  0
   22.8199  -19.8860  -23.5802 N   0  0  0  0  0  0  0  0  0  0  0  0
   23.5722  -20.9274  -17.2739 C   0  0  0  0  0  0  0  0  0  0  0  0
   24.0146  -22.0596  -17.0494 O   0  0  0  0  0  0  0  0  0  0  0  0
   23.0266  -20.1863  -16.2099 N   0  0  0  0  0  0  0  0  0  0  0  0
   22.9403  -20.6258  -14.8627 C   0  0  1  0  0  0  0  0  0  0  0  0
   23.2962  -19.6366  -13.7950 C   0  0  0  0  0  0  0  0  0  0  0  0
   23.3990  -20.2893  -12.4641 C   0  0  0  0  0  0  0  0  0  0  0  0
   24.3541  -21.2354  -12.0781 C   0  0  0  0  0  0  0  0  0  0  0  0
   24.1555  -21.5875  -10.8047 N   0  0  0  0  0  0  0  0  0  0  0  0
   23.0946  -20.9015  -10.3349 C   0  0  0  0  0  0  0  0  0  0  0  0
   22.5020  -20.9285   -9.0770 C   0  0  0  0  0  0  0  0  0  0  0  0
   21.4118  -20.1219   -8.8648 C   0  0  0  0  0  0  0  0  0  0  0  0
   20.9132  -19.3034   -9.8716 C   0  0  0  0  0  0  0  0  0  0  0  0
   21.5127  -19.2918  -11.1050 C   0  0  0  0  0  0  0  0  0  0  0  0
   22.6197  -20.1047  -11.3332 C   0  0  0  0  0  0  0  0  0  0  0  0
   21.5486  -21.0699  -14.6026 C   0  0  0  0  0  0  0  0  0  0  0  0
   20.6200  -20.2779  -14.9170 O   0  0  0  0  0  0  0  0  0  0  0  0
   21.2491  -22.3319  -14.0235 N   0  0  0  0  0  0  0  0  0  0  0  0
   19.8889  -22.7457  -13.8303 C   0  0  1  0  0  0  0  0  0  0  0  0
   19.7809  -24.2150  -13.4693 C   0  0  0  0  0  0  0  0  0  0  0  0
   20.9047  -25.1673  -14.5305 S   0  0  0  0  0  0  0  0  0  0  0  0
   19.3090  -21.9898  -12.6988 C   0  0  0  0  0  0  0  0  0  0  0  0
   17.9875  -22.2053  -12.3533 O   0  0  0  0  0  0  0  0  0  0  0  0
   20.0119  -21.1552  -12.0529 O   0  0  0  0  0  0  0  0  0  0  0  0
  2  8  1  0
  2  1  1  1
  3  4  1  0
  3  2  1  0
  5  6  1  0
  5  4  1  0
  6  7  1  0
  8  9  2  0
 10 11  1  0
 10  8  1  0
 11 12  1  1
 13 12  1  0
 14 13  2  0
 15 14  1  0
 16 15  1  0
 16 21  2  0
 17 16  1  0
 18 17  2  0
 18 19  1  0
 19 20  2  0
 20 21  1  0
 21 13  1  0
 22 11  1  0
 23 22  2  0
 24 22  1  0
 25 26  1  1
 25 24  1  0
 26 27  1  0
 28 29  1  0
 28 25  1  0
 30 28  2  0
M  END
$$$$
