KWC.pdb
     RDKit          3D

 30 31  0  0  1  0  0  0  0  0999 V2000
   28.7733  -19.7825  -18.4365 N   0  0  0  0  0  0  0  0  0  0  0  0
   27.3288  -19.7092  -18.4101 C   0  0  1  0  0  0  0  0  0  0  0  0
   26.6462  -20.3745  -19.5575 C   0  0  0  0  0  0  0  0  0  0  0  0
   26.5781  -19.6423  -20.8383 C   0  0  0  0  0  0  0  0  0  0  0  0
   27.3859  -18.3784  -20.8280 C   0  0  0  0  0  0  0  0  0  0  0  0
   27.1695  -17.7019  -22.2051 C   0  0  0  0  0  0  0  0  0  0  0  0
   28.0366  -16.5579  -22.2292 N   0  0  0  0  0  0  0  0  0  0  0  0
   26.8269  -20.3286  -17.1737 C   0  0  0  0  0  0  0  0  0  0  0  0
   26.0791  -21.3116  -17.2208 O   0  0  0  0  0  0  0  0  0  0  0  0
   27.1921  -19.8105  -15.9178 N   0  0  0  0  0  0  0  0  0  0  0  0
   26.8210  -20.3615  -14.6631 C   0  0  1  0  0  0  0  0  0  0  0  0
   27.5002  -19.8122  -13.4456 C   0  0  0  0  0  0  0  0  0  0  0  0
   27.1062  -20.5582  -12.2224 C   0  0  0  0  0  0  0  0  0  0  0  0
   27.0989  -21.9482  -12.0673 C   0  0  0  0  0  0  0  0  0  0  0  0
   26.7087  -22.2649  -10.8294 N   0  0  0  0  0  0  0  0  0  0  0  0
   26.4564  -21.1234  -10.1587 C   0  0  0  0  0  0  0  0  0  0  0  0
   26.0226  -20.9357   -8.8507 C   0  0  0  0  0  0  0  0  0  0  0  0
   25.8359  -19.6472   -8.4161 C   0  0  0  0  0  0  0  0  0  0  0  0
   26.0713  -18.5625   -9.2528 C   0  0  0  0  0  0  0  0  0  0  0  0
   26.4989  -18.7697  -10.5393 C   0  0  0  0  0  0  0  0  0  0  0  0
   26.6929  -20.0717  -10.9924 C   0  0  0  0  0  0  0  0  0  0  0  0
   25.3621  -20.1647  -14.4775 C   0  0  0  0  0  0  0  0  0  0  0  0
   24.8935  -19.0250  -14.7419 O   0  0  0  0  0  0  0  0  0  0  0  0
   24.5069  -21.2031  -14.0215 N   0  0  0  0  0  0  0  0  0  0  0  0
   23.0978  -20.9792  -13.8701 C   0  0  1  0  0  0  0  0  0  0  0  0
   22.2763  -22.1844  -14.2864 C   0  0  0  0  0  0  0  0  0  0  0  0
   20.5246  -21.8504  -13.9459 S   0  0  0  0  0  0  0  0  0  0  0  0
   22.7969  -20.7367  -12.4423 C   0  0  0  0  0  0  0  0  0  0  0  0
   21.7574  -19.8877  -12.1091 O   0  0  0  0  0  0  0  0  0  0  0  0
   23.4811  -21.2983  -11.5344 O   0  0  0  0  0  0  0  0  0  0  0  0
  2  8  1  0
  2  1  1  6
  3  4  1  0
  3  2  1  0
  5  6  1  0
  5  4  1  0
  6  7  1  0
  8  9  2  0
 10 11  1  0
 10  8  1  0
 11 12  1  1
 13 12  1  0
 14 13  2  0
 15 14  1  0
 16 15  1  0
 16 21  2  0
 17 16  1  0
 18 17  2  0
 18 19  1  0
 19 20  2  0
 20 21  1  0
 21 13  1  0
 22 11  1  0
 23 22  2  0
 24 22  1  0
 25 26  1  1
 25 24  1  0
 26 27  1  0
 28 29  1  0
 28 25  1  0
 30 28  2  0
M  END
$$$$
