KWC.pdb
     RDKit          3D

 30 31  0  0  1  0  0  0  0  0999 V2000
-15898.8594-11369.9014-5719.7446 N   0  0  0  0  0  0  0  0  0  0  0  0
-15898.9805-11368.5273-5719.3096 C   0  0  1  0  0  0  0  0  0  0  0  0
-15900.3018-11367.8945-5719.5869 C   0  0  0  0  0  0  0  0  0  0  0  0
-15901.5195-11368.6719-5719.2759 C   0  0  0  0  0  0  0  0  0  0  0  0
-15902.6748-11368.3223-5720.1660 C   0  0  0  0  0  0  0  0  0  0  0  0
-15903.6709-11369.5059-5720.0845 C   0  0  0  0  0  0  0  0  0  0  0  0
-15902.8779-11370.7002-5720.1509 N   0  0  0  0  0  0  0  0  0  0  0  0
-15898.7451-11368.4482-5717.8599 C   0  0  0  0  0  0  0  0  0  0  0  0
-15899.5918-11368.8633-5717.0605 O   0  0  0  0  0  0  0  0  0  0  0  0
-15897.5508-11367.8965-5717.3608 N   0  0  0  0  0  0  0  0  0  0  0  0
-15897.2910-11367.5957-5715.9976 C   0  0  1  0  0  0  0  0  0  0  0  0
-15897.4219-11368.7158-5715.0112 C   0  0  0  0  0  0  0  0  0  0  0  0
-15898.2188-11368.3047-5713.8262 C   0  0  0  0  0  0  0  0  0  0  0  0
-15898.2549-11368.9531-5712.5874 C   0  0  0  0  0  0  0  0  0  0  0  0
-15899.0615-11368.2910-5711.7524 N   0  0  0  0  0  0  0  0  0  0  0  0
-15899.5635-11367.2236-5712.4028 C   0  0  0  0  0  0  0  0  0  0  0  0
-15900.4463-11366.2451-5711.9600 C   0  0  0  0  0  0  0  0  0  0  0  0
-15900.8037-11365.2578-5712.8442 C   0  0  0  0  0  0  0  0  0  0  0  0
-15900.3027-11365.2334-5714.1392 C   0  0  0  0  0  0  0  0  0  0  0  0
-15899.4316-11366.2080-5714.5566 C   0  0  0  0  0  0  0  0  0  0  0  0
-15899.0615-11367.2148-5713.6694 C   0  0  0  0  0  0  0  0  0  0  0  0
-15895.9072-11367.0723-5715.8872 C   0  0  0  0  0  0  0  0  0  0  0  0
-15895.3477-11367.1494-5714.7603 O   0  0  0  0  0  0  0  0  0  0  0  0
-15895.2178-11366.5059-5716.9927 N   0  0  0  0  0  0  0  0  0  0  0  0
-15894.5586-11365.2373-5716.8721 C   0  0  1  0  0  0  0  0  0  0  0  0
-15894.9150-11364.5244-5715.5811 C   0  0  0  0  0  0  0  0  0  0  0  0
-15896.6719-11364.8008-5715.2197 S   0  0  0  0  0  0  0  0  0  0  0  0
-15893.0967-11365.4521-5716.8462 C   0  0  0  0  0  0  0  0  0  0  0  0
-15892.3320-11365.0107-5717.9106 O   0  0  0  0  0  0  0  0  0  0  0  0
-15892.5479-11366.0332-5715.8613 O   0  0  0  0  0  0  0  0  0  0  0  0
  2  8  1  0
  2  1  1  1
  3  4  1  0
  3  2  1  0
  5  6  1  0
  5  4  1  0
  6  7  1  0
  8  9  2  0
 10 11  1  0
 10  8  1  0
 11 12  1  1
 13 12  1  0
 14 13  2  0
 15 14  1  0
 16 15  1  0
 16 21  2  0
 17 16  1  0
 18 17  2  0
 18 19  1  0
 19 20  2  0
 20 21  1  0
 21 13  1  0
 22 11  1  0
 23 22  2  0
 24 22  1  0
 25 26  1  1
 25 24  1  0
 26 27  1  0
 28 29  1  0
 28 25  1  0
 30 28  2  0
M  END
$$$$
