KWC.pdb
     RDKit          3D

 30 31  0  0  1  0  0  0  0  0999 V2000
   28.7205  -22.2688  -15.4890 N   0  0  0  0  0  0  0  0  0  0  0  0
   27.4598  -21.5845  -15.6769 C   0  0  1  0  0  0  0  0  0  0  0  0
   26.7228  -21.9580  -16.9188 C   0  0  0  0  0  0  0  0  0  0  0  0
   27.1916  -21.3868  -18.1974 C   0  0  0  0  0  0  0  0  0  0  0  0
   28.6857  -21.2745  -18.2698 C   0  0  0  0  0  0  0  0  0  0  0  0
   29.0168  -20.6290  -19.6389 C   0  0  0  0  0  0  0  0  0  0  0  0
   30.4468  -20.5137  -19.6912 N   0  0  0  0  0  0  0  0  0  0  0  0
   26.5751  -21.8601  -14.5343 C   0  0  0  0  0  0  0  0  0  0  0  0
   25.9445  -22.9211  -14.4680 O   0  0  0  0  0  0  0  0  0  0  0  0
   26.4343  -20.9185  -13.4986 N   0  0  0  0  0  0  0  0  0  0  0  0
   25.6391  -21.0908  -12.3351 C   0  0  1  0  0  0  0  0  0  0  0  0
   25.9440  -20.2120  -11.1604 C   0  0  0  0  0  0  0  0  0  0  0  0
   27.2061  -20.6208  -10.4911 C   0  0  0  0  0  0  0  0  0  0  0  0
   28.2892  -21.2697  -11.0928 C   0  0  0  0  0  0  0  0  0  0  0  0
   29.2593  -21.4621  -10.1945 N   0  0  0  0  0  0  0  0  0  0  0  0
   28.8497  -20.9592   -9.0130 C   0  0  0  0  0  0  0  0  0  0  0  0
   29.5016  -20.9254   -7.7849 C   0  0  0  0  0  0  0  0  0  0  0  0
   28.8438  -20.3509   -6.7259 C   0  0  0  0  0  0  0  0  0  0  0  0
   27.5679  -19.8193   -6.8719 C   0  0  0  0  0  0  0  0  0  0  0  0
   26.9429  -19.8627   -8.0918 C   0  0  0  0  0  0  0  0  0  0  0  0
   27.5993  -20.4420   -9.1743 C   0  0  0  0  0  0  0  0  0  0  0  0
   24.2194  -20.8593  -12.6990 C   0  0  0  0  0  0  0  0  0  0  0  0
   23.9191  -19.7289  -13.1684 O   0  0  0  0  0  0  0  0  0  0  0  0
   23.2203  -21.8555  -12.5345 N   0  0  0  0  0  0  0  0  0  0  0  0
   21.8627  -21.6039  -12.9244 C   0  0  1  0  0  0  0  0  0  0  0  0
   21.0448  -22.8782  -13.0142 C   0  0  0  0  0  0  0  0  0  0  0  0
   19.6817  -22.6229  -14.1857 S   0  0  0  0  0  0  0  0  0  0  0  0
   21.2135  -20.7577  -11.8995 C   0  0  0  0  0  0  0  0  0  0  0  0
   19.9685  -20.2172  -12.1639 O   0  0  0  0  0  0  0  0  0  0  0  0
   21.7887  -20.5294  -10.7927 O   0  0  0  0  0  0  0  0  0  0  0  0
  2  8  1  0
  2  1  1  1
  3  4  1  0
  3  2  1  0
  5  6  1  0
  5  4  1  0
  6  7  1  0
  8  9  2  0
 10 11  1  0
 10  8  1  0
 11 12  1  1
 13 12  1  0
 14 13  2  0
 15 14  1  0
 16 15  1  0
 16 21  2  0
 17 16  1  0
 18 17  2  0
 18 19  1  0
 19 20  2  0
 20 21  1  0
 21 13  1  0
 22 11  1  0
 23 22  2  0
 24 22  1  0
 25 26  1  1
 25 24  1  0
 26 27  1  0
 28 29  1  0
 28 25  1  0
 30 28  2  0
M  END
$$$$
