RHQ.pdb
     RDKit          3D

 31 31  0  0  1  0  0  0  0  0999 V2000
   21.8882  -30.5624  -14.0220 N   0  0  0  0  0  0  0  0  0  0  0  0
   20.6323  -29.9396  -13.7690 C   0  0  0  0  0  0  0  0  0  0  0  0
   19.5755  -30.6402  -13.6900 N   0  0  0  0  0  0  0  0  0  0  0  0
   20.5623  -28.5472  -13.6071 N   0  0  0  0  0  0  0  0  0  0  0  0
   20.8996  -27.6277  -14.6646 C   0  0  0  0  0  0  0  0  0  0  0  0
   22.3446  -27.4387  -14.8817 C   0  0  0  0  0  0  0  0  0  0  0  0
   22.7180  -25.9871  -14.9183 C   0  0  0  0  0  0  0  0  0  0  0  0
   23.6177  -25.4897  -13.8512 C   0  0  2  0  0  0  0  0  0  0  0  0
   22.9659  -25.3573  -12.5847 N   0  0  0  0  0  0  0  0  0  0  0  0
   24.3553  -24.2477  -14.2415 C   0  0  0  0  0  0  0  0  0  0  0  0
   23.8937  -23.1547  -13.7856 O   0  0  0  0  0  0  0  0  0  0  0  0
   18.6793  -30.2124  -13.3497 N   0  0  0  0  0  0  0  0  0  0  0  0
   25.5023  -24.2878  -15.0693 C   0  0  2  0  0  0  0  0  0  0  0  0
   26.1798  -23.0988  -15.4886 C   0  0  0  0  0  0  0  0  0  0  0  0
   27.4011  -23.4253  -16.3416 C   0  0  0  0  0  0  0  0  0  0  0  0
   28.1384  -22.1513  -16.5496 C   0  0  0  0  0  0  0  0  0  0  0  0
   27.6401  -20.9158  -16.1795 N   0  0  0  0  0  0  0  0  0  0  0  0
   28.5679  -20.0158  -16.5215 C   0  0  0  0  0  0  0  0  0  0  0  0
   29.6065  -20.6599  -17.0838 N   0  0  0  0  0  0  0  0  0  0  0  0
   29.3423  -21.9714  -17.1008 C   0  0  0  0  0  0  0  0  0  0  0  0
   25.2977  -22.2643  -16.3466 O   0  0  0  0  0  0  0  0  0  0  0  0
   24.2447  -22.7496  -16.8706 N   0  0  0  0  0  0  0  0  0  0  0  0
   21.6020  -19.6108  -13.6980 C   0  0  0  0  0  0  0  0  0  0  0  0
   21.6089  -18.6970  -14.8133 O   0  0  0  0  0  0  0  0  0  0  0  0
   20.6787  -17.8681  -14.8422 C   0  0  0  0  0  0  0  0  0  0  0  0
   22.6612  -18.7755  -15.8236 C   0  0  0  0  0  0  0  0  0  0  0  0
   23.6944  -19.8328  -15.6245 C   0  0  2  0  0  0  0  0  0  0  0  0
   24.6809  -19.8550  -16.7449 N   0  0  0  0  0  0  0  0  0  0  0  0
   25.6655  -20.9170  -16.5607 C   0  0  0  0  0  0  0  0  0  0  0  0
   25.4018  -18.5969  -16.9518 O   0  0  0  0  0  0  0  0  0  0  0  0
   24.9205  -17.6253  -17.8035 O   0  0  0  0  0  0  0  0  0  0  0  0
  2  3  2  0
  2  1  1  0
  4  2  1  0
  5  4  1  0
  6  5  1  0
  7  6  1  0
  8 10  1  0
  8  7  1  0
  8  9  1  1
 10 11  2  0
 12 13  1  0
 12 10  1  0
 13 14  1  1
 14 15  1  0
 15 19  1  0
 15 16  2  0
 16 17  1  0
 18 17  1  0
 19 18  2  0
 20 13  1  0
 21 20  2  0
 22 23  1  0
 23 25  1  0
 23 24  2  0
 25 26  1  0
 27 26  1  6
 27 28  1  0
 28 20  1  0
 29 27  1  0
 29 30  1  0
 31 29  2  0
M  END
$$$$
