RHQ.pdb
     RDKit          3D

 31 31  0  0  1  0  0  0  0  0999 V2000
   26.5176  -26.3837  -17.2599 N   0  0  0  0  0  0  0  0  0  0  0  0
   26.9521  -25.1155  -16.7781 C   0  0  0  0  0  0  0  0  0  0  0  0
   28.1899  -24.8858  -16.6083 N   0  0  0  0  0  0  0  0  0  0  0  0
   26.0090  -24.1168  -16.4894 N   0  0  0  0  0  0  0  0  0  0  0  0
   24.6170  -24.2426  -16.8414 C   0  0  0  0  0  0  0  0  0  0  0  0
   23.8105  -23.0303  -16.6157 C   0  0  0  0  0  0  0  0  0  0  0  0
   23.2918  -22.9591  -15.2107 C   0  0  0  0  0  0  0  0  0  0  0  0
   21.8995  -23.4090  -14.9767 C   0  0  2  0  0  0  0  0  0  0  0  0
   21.0261  -23.1230  -16.0729 N   0  0  0  0  0  0  0  0  0  0  0  0
   21.3443  -22.9341  -13.6708 C   0  0  0  0  0  0  0  0  0  0  0  0
   22.0457  -23.1816  -12.6402 O   0  0  0  0  0  0  0  0  0  0  0  0
   28.5092  -23.9724  -16.2013 N   0  0  0  0  0  0  0  0  0  0  0  0
   20.1100  -22.2471  -13.5884 C   0  0  1  0  0  0  0  0  0  0  0  0
   19.5224  -21.8865  -12.3341 C   0  0  0  0  0  0  0  0  0  0  0  0
   18.6227  -20.6628  -12.4720 C   0  0  0  0  0  0  0  0  0  0  0  0
   19.4793  -19.5461  -12.9507 C   0  0  0  0  0  0  0  0  0  0  0  0
   20.8416  -19.6667  -13.1541 N   0  0  0  0  0  0  0  0  0  0  0  0
   21.2680  -18.4721  -13.5772 C   0  0  0  0  0  0  0  0  0  0  0  0
   20.2163  -17.6354  -13.6367 N   0  0  0  0  0  0  0  0  0  0  0  0
   19.1180  -18.2954  -13.2519 C   0  0  0  0  0  0  0  0  0  0  0  0
   18.6479  -22.9776  -11.8287 O   0  0  0  0  0  0  0  0  0  0  0  0
   18.1633  -23.8480  -12.6202 N   0  0  0  0  0  0  0  0  0  0  0  0
   18.6451  -24.8873   -5.6697 C   0  0  0  0  0  0  0  0  0  0  0  0
   17.6598  -25.6906   -6.3499 O   0  0  0  0  0  0  0  0  0  0  0  0
   17.1184  -26.5808   -5.6660 C   0  0  0  0  0  0  0  0  0  0  0  0
   17.3478  -25.4405   -7.7551 C   0  0  0  0  0  0  0  0  0  0  0  0
   18.1302  -24.3626   -8.4265 C   0  0  1  0  0  0  0  0  0  0  0  0
   17.6483  -24.1197   -9.8186 N   0  0  0  0  0  0  0  0  0  0  0  0
   18.3728  -23.0169  -10.4434 C   0  0  0  0  0  0  0  0  0  0  0  0
   16.2142  -23.8439   -9.9314 O   0  0  0  0  0  0  0  0  0  0  0  0
   15.3114  -24.8445  -10.2226 O   0  0  0  0  0  0  0  0  0  0  0  0
  2  3  2  0
  2  1  1  0
  4  2  1  0
  5  4  1  0
  6  5  1  0
  7  6  1  0
  8 10  1  0
  8  7  1  0
  8  9  1  6
 10 11  2  0
 12 13  1  0
 12 10  1  0
 13 14  1  1
 14 15  1  0
 15 19  1  0
 15 16  2  0
 16 17  1  0
 18 17  1  0
 19 18  2  0
 20 13  1  0
 21 20  2  0
 22 23  1  0
 23 25  1  0
 23 24  2  0
 25 26  1  0
 27 26  1  6
 27 28  1  0
 28 20  1  0
 29 27  1  0
 29 30  1  0
 31 29  2  0
M  END
$$$$
