RHQ.pdb
     RDKit          3D

 31 31  0  0  1  0  0  0  0  0999 V2000
   13.3402  -16.1295    5.2547 N   0  0  0  0  0  0  0  0  0  0  0  0
   13.0770  -14.9823    4.4523 C   0  0  0  0  0  0  0  0  0  0  0  0
   11.9436  -14.8363    3.8976 N   0  0  0  0  0  0  0  0  0  0  0  0
   14.0738  -14.0105    4.2736 N   0  0  0  0  0  0  0  0  0  0  0  0
   15.3591  -14.0928    4.9207 C   0  0  0  0  0  0  0  0  0  0  0  0
   16.2411  -12.9347    4.6928 C   0  0  0  0  0  0  0  0  0  0  0  0
   17.5330  -13.0613    5.4430 C   0  0  0  0  0  0  0  0  0  0  0  0
   18.4629  -11.9086    5.3943 C   0  0  2  0  0  0  0  0  0  0  0  0
   19.1865  -11.8235    4.1633 N   0  0  0  0  0  0  0  0  0  0  0  0
   19.3633  -11.8342    6.5872 C   0  0  0  0  0  0  0  0  0  0  0  0
   20.5399  -12.2886    6.4308 O   0  0  0  0  0  0  0  0  0  0  0  0
   11.7439  -13.9871    3.3137 N   0  0  0  0  0  0  0  0  0  0  0  0
   18.9301  -11.2874    7.8183 C   0  0  2  0  0  0  0  0  0  0  0  0
   19.7785  -11.2398    8.9701 C   0  0  0  0  0  0  0  0  0  0  0  0
   19.1985  -10.3347   10.0519 C   0  0  0  0  0  0  0  0  0  0  0  0
   20.2802  -10.0949   11.0430 C   0  0  0  0  0  0  0  0  0  0  0  0
   21.6020  -10.4353   10.8225 N   0  0  0  0  0  0  0  0  0  0  0  0
   22.2735  -10.0757   11.9214 C   0  0  0  0  0  0  0  0  0  0  0  0
   21.4085   -9.5319   12.7965 N   0  0  0  0  0  0  0  0  0  0  0  0
   20.1845   -9.5438   12.2566 C   0  0  0  0  0  0  0  0  0  0  0  0
   19.9010  -12.5855    9.5904 O   0  0  0  0  0  0  0  0  0  0  0  0
   18.9386  -13.4166    9.5469 N   0  0  0  0  0  0  0  0  0  0  0  0
   25.2779  -15.9264   10.0268 C   0  0  0  0  0  0  0  0  0  0  0  0
   24.2892  -16.6664   10.7709 O   0  0  0  0  0  0  0  0  0  0  0  0
   24.6333  -17.8022   11.1512 C   0  0  0  0  0  0  0  0  0  0  0  0
   22.9777  -16.0808   11.0383 C   0  0  0  0  0  0  0  0  0  0  0  0
   22.7162  -14.7392   10.4412 C   0  0  2  0  0  0  0  0  0  0  0  0
   21.3677  -14.2224   10.8205 N   0  0  0  0  0  0  0  0  0  0  0  0
   21.1188  -12.9114   10.2284 C   0  0  0  0  0  0  0  0  0  0  0  0
   21.1331  -14.1223   12.2629 O   0  0  0  0  0  0  0  0  0  0  0  0
   20.7537  -15.2196   13.0064 O   0  0  0  0  0  0  0  0  0  0  0  0
  2  3  2  0
  2  1  1  0
  4  2  1  0
  5  4  1  0
  6  5  1  0
  7  6  1  0
  8 10  1  0
  8  7  1  0
  8  9  1  6
 10 11  2  0
 12 13  1  0
 12 10  1  0
 13 14  1  6
 14 15  1  0
 15 19  1  0
 15 16  2  0
 16 17  1  0
 18 17  1  0
 19 18  2  0
 20 13  1  0
 21 20  2  0
 22 23  1  0
 23 25  1  0
 23 24  2  0
 25 26  1  0
 27 26  1  6
 27 28  1  0
 28 20  1  0
 29 27  1  0
 29 30  1  0
 31 29  2  0
M  END
$$$$
