RHQ.pdb
     RDKit          3D

 31 31  0  0  1  0  0  0  0  0999 V2000
   27.9086  -21.2036  -17.8471 N   0  0  0  0  0  0  0  0  0  0  0  0
   27.9241  -20.0169  -17.0593 C   0  0  0  0  0  0  0  0  0  0  0  0
   27.9022  -18.8770  -17.6196 N   0  0  0  0  0  0  0  0  0  0  0  0
   27.9644  -20.1077  -15.6592 N   0  0  0  0  0  0  0  0  0  0  0  0
   27.8991  -21.3685  -14.9637 C   0  0  0  0  0  0  0  0  0  0  0  0
   26.6186  -21.6342  -14.2849 C   0  0  0  0  0  0  0  0  0  0  0  0
   26.7445  -21.5269  -12.7948 C   0  0  0  0  0  0  0  0  0  0  0  0
   25.7571  -20.6769  -12.0889 C   0  0  2  0  0  0  0  0  0  0  0  0
   25.8926  -20.7240  -10.6656 N   0  0  0  0  0  0  0  0  0  0  0  0
   24.3498  -20.9256  -12.5327 C   0  0  0  0  0  0  0  0  0  0  0  0
   23.7902  -21.9668  -12.0655 O   0  0  0  0  0  0  0  0  0  0  0  0
   27.9430  -18.0011  -17.0425 N   0  0  0  0  0  0  0  0  0  0  0  0
   23.6798  -20.0505  -13.4202 C   0  0  2  0  0  0  0  0  0  0  0  0
   22.3287  -20.2761  -13.8354 C   0  0  0  0  0  0  0  0  0  0  0  0
   21.5220  -18.9818  -13.8327 C   0  0  0  0  0  0  0  0  0  0  0  0
   20.9072  -18.8564  -12.4850 C   0  0  0  0  0  0  0  0  0  0  0  0
   21.0557  -19.8057  -11.4907 N   0  0  0  0  0  0  0  0  0  0  0  0
   20.3685  -19.3580  -10.4347 C   0  0  0  0  0  0  0  0  0  0  0  0
   19.8108  -18.1759  -10.7530 N   0  0  0  0  0  0  0  0  0  0  0  0
   20.1420  -17.8682  -12.0122 C   0  0  0  0  0  0  0  0  0  0  0  0
   22.2840  -20.7785  -15.2340 O   0  0  0  0  0  0  0  0  0  0  0  0
   23.1363  -20.3921  -16.0961 N   0  0  0  0  0  0  0  0  0  0  0  0
   18.4680  -25.6837  -17.2211 C   0  0  0  0  0  0  0  0  0  0  0  0
   19.1764  -25.1939  -18.3773 O   0  0  0  0  0  0  0  0  0  0  0  0
   18.9550  -25.7963  -19.4457 C   0  0  0  0  0  0  0  0  0  0  0  0
   20.0882  -24.0587  -18.2566 C   0  0  0  0  0  0  0  0  0  0  0  0
   20.2049  -23.4428  -16.9031 C   0  0  1  0  0  0  0  0  0  0  0  0
   21.1640  -22.2986  -16.9010 N   0  0  0  0  0  0  0  0  0  0  0  0
   21.2664  -21.6977  -15.5745 C   0  0  0  0  0  0  0  0  0  0  0  0
   20.8521  -21.2356  -17.8593 O   0  0  0  0  0  0  0  0  0  0  0  0
   21.4028  -21.2241  -19.1232 O   0  0  0  0  0  0  0  0  0  0  0  0
  2  3  2  0
  2  1  1  0
  4  2  1  0
  5  4  1  0
  6  5  1  0
  7  6  1  0
  8 10  1  0
  8  7  1  0
  8  9  1  1
 10 11  2  0
 12 13  1  0
 12 10  1  0
 13 14  1  1
 14 15  1  0
 15 19  1  0
 15 16  2  0
 16 17  1  0
 18 17  1  0
 19 18  2  0
 20 13  1  0
 21 20  2  0
 22 23  1  0
 23 25  1  0
 23 24  2  0
 25 26  1  0
 27 26  1  1
 27 28  1  0
 28 20  1  0
 29 27  1  0
 29 30  1  0
 31 29  2  0
M  END
$$$$
