RHQ.pdb
     RDKit          3D

 31 31  0  0  1  0  0  0  0  0999 V2000
   30.6769  -15.2157  -20.7576 N   0  0  0  0  0  0  0  0  0  0  0  0
   31.8399  -14.9316  -19.9858 C   0  0  0  0  0  0  0  0  0  0  0  0
   32.6840  -14.0741  -20.3931 N   0  0  0  0  0  0  0  0  0  0  0  0
   32.0540  -15.6019  -18.7714 N   0  0  0  0  0  0  0  0  0  0  0  0
   31.1136  -16.5551  -18.2378 C   0  0  0  0  0  0  0  0  0  0  0  0
   29.7036  -16.1313  -18.2965 C   0  0  0  0  0  0  0  0  0  0  0  0
   28.7761  -17.2137  -17.8316 C   0  0  0  0  0  0  0  0  0  0  0  0
   28.5556  -18.3587  -18.7460 C   0  0  2  0  0  0  0  0  0  0  0  0
   28.3083  -17.9581  -20.0967 N   0  0  0  0  0  0  0  0  0  0  0  0
   27.5240  -19.3182  -18.2415 C   0  0  0  0  0  0  0  0  0  0  0  0
   26.5598  -19.5707  -19.0302 O   0  0  0  0  0  0  0  0  0  0  0  0
   33.5206  -13.8327  -19.8067 N   0  0  0  0  0  0  0  0  0  0  0  0
   27.6177  -19.9119  -16.9605 C   0  0  2  0  0  0  0  0  0  0  0  0
   26.6269  -20.8202  -16.4687 C   0  0  0  0  0  0  0  0  0  0  0  0
   27.2017  -21.7479  -15.4034 C   0  0  0  0  0  0  0  0  0  0  0  0
   28.1289  -22.6814  -16.0953 C   0  0  0  0  0  0  0  0  0  0  0  0
   28.3219  -22.6850  -17.4645 N   0  0  0  0  0  0  0  0  0  0  0  0
   29.2122  -23.6497  -17.7184 C   0  0  0  0  0  0  0  0  0  0  0  0
   29.5638  -24.2286  -16.5560 N   0  0  0  0  0  0  0  0  0  0  0  0
   28.8983  -23.6336  -15.5595 C   0  0  0  0  0  0  0  0  0  0  0  0
   25.5175  -20.0829  -15.8082 O   0  0  0  0  0  0  0  0  0  0  0  0
   25.7508  -19.0753  -15.0672 N   0  0  0  0  0  0  0  0  0  0  0  0
   19.3036  -21.4827  -16.0973 C   0  0  0  0  0  0  0  0  0  0  0  0
   19.3712  -20.0782  -15.7786 O   0  0  0  0  0  0  0  0  0  0  0  0
   18.3084  -19.5582  -15.3870 C   0  0  0  0  0  0  0  0  0  0  0  0
   20.6297  -19.3500  -15.9215 C   0  0  0  0  0  0  0  0  0  0  0  0
   21.8135  -20.1494  -16.3509 C   0  0  2  0  0  0  0  0  0  0  0  0
   23.0271  -19.8066  -15.5517 N   0  0  0  0  0  0  0  0  0  0  0  0
   24.1977  -20.5363  -16.0298 C   0  0  0  0  0  0  0  0  0  0  0  0
   22.9000  -20.0435  -14.1118 O   0  0  0  0  0  0  0  0  0  0  0  0
   22.4036  -19.0744  -13.2659 O   0  0  0  0  0  0  0  0  0  0  0  0
  2  3  2  0
  2  1  1  0
  4  2  1  0
  5  4  1  0
  6  5  1  0
  7  6  1  0
  8 10  1  0
  8  7  1  0
  8  9  1  6
 10 11  2  0
 12 13  1  0
 12 10  1  0
 13 14  1  6
 14 15  1  0
 15 19  1  0
 15 16  2  0
 16 17  1  0
 18 17  1  0
 19 18  2  0
 20 13  1  0
 21 20  2  0
 22 23  1  0
 23 25  1  0
 23 24  2  0
 25 26  1  0
 27 26  1  6
 27 28  1  0
 28 20  1  0
 29 27  1  0
 29 30  1  0
 31 29  2  0
M  END
$$$$
