RHQ.pdb
     RDKit          3D

 31 31  0  0  1  0  0  0  0  0999 V2000
   39.0713  -28.9268    1.6457 N   0  0  0  0  0  0  0  0  0  0  0  0
   37.8355  -28.2666    1.9028 C   0  0  0  0  0  0  0  0  0  0  0  0
   36.7349  -28.8622    1.6848 N   0  0  0  0  0  0  0  0  0  0  0  0
   37.8343  -26.9533    2.3980 N   0  0  0  0  0  0  0  0  0  0  0  0
   39.0017  -26.3483    2.9885 C   0  0  0  0  0  0  0  0  0  0  0  0
   39.2047  -26.6595    4.4143 C   0  0  0  0  0  0  0  0  0  0  0  0
   40.0975  -25.6572    5.0823 C   0  0  0  0  0  0  0  0  0  0  0  0
   39.6250  -24.2537    5.1332 C   0  0  2  0  0  0  0  0  0  0  0  0
   40.5915  -23.3564    5.6873 N   0  0  0  0  0  0  0  0  0  0  0  0
   38.2836  -24.1125    5.7810 C   0  0  0  0  0  0  0  0  0  0  0  0
   38.2015  -24.4967    6.9898 O   0  0  0  0  0  0  0  0  0  0  0  0
   35.8237  -28.3948    1.9155 N   0  0  0  0  0  0  0  0  0  0  0  0
   37.1707  -23.5798    5.0882 C   0  0  2  0  0  0  0  0  0  0  0  0
   35.8607  -23.5469    5.6641 C   0  0  0  0  0  0  0  0  0  0  0  0
   34.9717  -22.5224    4.9670 C   0  0  0  0  0  0  0  0  0  0  0  0
   33.8231  -22.2568    5.8726 C   0  0  0  0  0  0  0  0  0  0  0  0
   33.7142  -22.7977    7.1404 N   0  0  0  0  0  0  0  0  0  0  0  0
   32.5633  -22.3438    7.6477 C   0  0  0  0  0  0  0  0  0  0  0  0
   31.9735  -21.5503    6.7354 N   0  0  0  0  0  0  0  0  0  0  0  0
   32.7475  -21.4972    5.6455 C   0  0  0  0  0  0  0  0  0  0  0  0
   35.1780  -24.8569    5.4960 O   0  0  0  0  0  0  0  0  0  0  0  0
   35.2379  -25.4898    4.3938 N   0  0  0  0  0  0  0  0  0  0  0  0
   37.2333  -29.6939    6.6335 C   0  0  0  0  0  0  0  0  0  0  0  0
   35.8672  -30.1007    6.8506 O   0  0  0  0  0  0  0  0  0  0  0  0
   35.6856  -31.3204    7.0313 C   0  0  0  0  0  0  0  0  0  0  0  0
   34.7942  -29.1091    6.8499 C   0  0  0  0  0  0  0  0  0  0  0  0
   35.1935  -27.7000    6.5673 C   0  0  1  0  0  0  0  0  0  0  0  0
   34.0306  -26.7689    6.6672 N   0  0  0  0  0  0  0  0  0  0  0  0
   34.4620  -25.3759    6.5979 C   0  0  0  0  0  0  0  0  0  0  0  0
   33.2154  -26.9335    7.8730 O   0  0  0  0  0  0  0  0  0  0  0  0
   32.2735  -27.9355    7.9715 O   0  0  0  0  0  0  0  0  0  0  0  0
  2  3  2  0
  2  1  1  0
  4  2  1  0
  5  4  1  0
  6  5  1  0
  7  6  1  0
  8 10  1  0
  8  7  1  0
  8  9  1  1
 10 11  2  0
 12 13  1  0
 12 10  1  0
 13 14  1  6
 14 15  1  0
 15 19  1  0
 15 16  2  0
 16 17  1  0
 18 17  1  0
 19 18  2  0
 20 13  1  0
 21 20  2  0
 22 23  1  0
 23 25  1  0
 23 24  2  0
 25 26  1  0
 27 26  1  6
 27 28  1  0
 28 20  1  0
 29 27  1  0
 29 30  1  0
 31 29  2  0
M  END
$$$$
