RHQ.pdb
     RDKit          3D

 31 31  0  0  1  0  0  0  0  0999 V2000
   24.4428  -22.0537  -12.2306 N   0  0  0  0  0  0  0  0  0  0  0  0
   24.0339  -22.3659  -13.5590 C   0  0  0  0  0  0  0  0  0  0  0  0
   23.9327  -23.5769  -13.9290 N   0  0  0  0  0  0  0  0  0  0  0  0
   23.7423  -21.3317  -14.4620 N   0  0  0  0  0  0  0  0  0  0  0  0
   23.9815  -19.9444  -14.1525 C   0  0  0  0  0  0  0  0  0  0  0  0
   23.5114  -18.9932  -15.1749 C   0  0  0  0  0  0  0  0  0  0  0  0
   23.9112  -17.5847  -14.8522 C   0  0  0  0  0  0  0  0  0  0  0  0
   23.3938  -16.5123  -15.7342 C   0  0  2  0  0  0  0  0  0  0  0  0
   23.2883  -16.9142  -17.1030 N   0  0  0  0  0  0  0  0  0  0  0  0
   24.1332  -15.2207  -15.5783 C   0  0  0  0  0  0  0  0  0  0  0  0
   24.1866  -14.7438  -14.4013 O   0  0  0  0  0  0  0  0  0  0  0  0
   23.7204  -23.8100  -14.9303 N   0  0  0  0  0  0  0  0  0  0  0  0
   24.7398  -14.5686  -16.6779 C   0  0  1  0  0  0  0  0  0  0  0  0
   25.3472  -13.2783  -16.5564 C   0  0  0  0  0  0  0  0  0  0  0  0
   26.3664  -13.0361  -17.6649 C   0  0  0  0  0  0  0  0  0  0  0  0
   27.0734  -11.7705  -17.3355 C   0  0  0  0  0  0  0  0  0  0  0  0
   28.2511  -11.7240  -16.6127 N   0  0  0  0  0  0  0  0  0  0  0  0
   28.5831  -10.4326  -16.5134 C   0  0  0  0  0  0  0  0  0  0  0  0
   27.6516   -9.6981  -17.1478 N   0  0  0  0  0  0  0  0  0  0  0  0
   26.7246  -10.5202  -17.6526 C   0  0  0  0  0  0  0  0  0  0  0  0
   24.3312  -12.2020  -16.6980 O   0  0  0  0  0  0  0  0  0  0  0  0
   23.3651  -12.3174  -17.5179 N   0  0  0  0  0  0  0  0  0  0  0  0
   20.7995   -9.8161  -12.5131 C   0  0  0  0  0  0  0  0  0  0  0  0
   20.7844   -8.7760  -13.5115 O   0  0  0  0  0  0  0  0  0  0  0  0
   19.9475   -7.8689  -13.3384 C   0  0  0  0  0  0  0  0  0  0  0  0
   21.7113   -8.8242  -14.6397 C   0  0  0  0  0  0  0  0  0  0  0  0
   22.6420   -9.9889  -14.6843 C   0  0  1  0  0  0  0  0  0  0  0  0
   23.4999   -9.9603  -15.9059 N   0  0  0  0  0  0  0  0  0  0  0  0
   24.4725  -11.0489  -15.8938 C   0  0  0  0  0  0  0  0  0  0  0  0
   24.2246   -8.7049  -16.1166 O   0  0  0  0  0  0  0  0  0  0  0  0
   23.5659   -7.5464  -16.4700 O   0  0  0  0  0  0  0  0  0  0  0  0
  2  3  2  0
  2  1  1  0
  4  2  1  0
  5  4  1  0
  6  5  1  0
  7  6  1  0
  8 10  1  0
  8  7  1  0
  8  9  1  6
 10 11  2  0
 12 13  1  0
 12 10  1  0
 13 14  1  1
 14 15  1  0
 15 19  1  0
 15 16  2  0
 16 17  1  0
 18 17  1  0
 19 18  2  0
 20 13  1  0
 21 20  2  0
 22 23  1  0
 23 25  1  0
 23 24  2  0
 25 26  1  0
 27 26  1  6
 27 28  1  0
 28 20  1  0
 29 27  1  0
 29 30  1  0
 31 29  2  0
M  END
$$$$
