RHQ.pdb
     RDKit          3D

 31 31  0  0  1  0  0  0  0  0999 V2000
   29.6107  -22.0726  -16.5464 N   0  0  0  0  0  0  0  0  0  0  0  0
   28.9479  -21.4926  -17.6660 C   0  0  0  0  0  0  0  0  0  0  0  0
   28.9104  -22.1084  -18.7765 N   0  0  0  0  0  0  0  0  0  0  0  0
   28.3346  -20.2362  -17.5416 N   0  0  0  0  0  0  0  0  0  0  0  0
   28.2044  -19.5612  -16.2748 C   0  0  0  0  0  0  0  0  0  0  0  0
   27.3237  -20.2339  -15.3037 C   0  0  0  0  0  0  0  0  0  0  0  0
   26.0602  -19.4617  -15.0684 C   0  0  0  0  0  0  0  0  0  0  0  0
   24.7796  -20.1917  -15.2196 C   0  0  2  0  0  0  0  0  0  0  0  0
   24.7863  -21.1155  -16.3117 N   0  0  0  0  0  0  0  0  0  0  0  0
   23.5906  -19.2837  -15.2526 C   0  0  0  0  0  0  0  0  0  0  0  0
   23.4324  -18.5300  -14.2415 O   0  0  0  0  0  0  0  0  0  0  0  0
   28.4236  -21.6826  -19.6033 N   0  0  0  0  0  0  0  0  0  0  0  0
   22.6948  -19.2640  -16.3478 C   0  0  2  0  0  0  0  0  0  0  0  0
   21.5406  -18.4178  -16.3713 C   0  0  0  0  0  0  0  0  0  0  0  0
   21.0799  -18.1441  -17.7991 C   0  0  0  0  0  0  0  0  0  0  0  0
   21.7456  -16.8889  -18.2368 C   0  0  0  0  0  0  0  0  0  0  0  0
   22.4920  -16.0897  -17.3906 N   0  0  0  0  0  0  0  0  0  0  0  0
   22.9256  -15.0611  -18.1267 C   0  0  0  0  0  0  0  0  0  0  0  0
   22.4698  -15.2082  -19.3838 N   0  0  0  0  0  0  0  0  0  0  0  0
   21.7452  -16.3309  -19.4509 C   0  0  0  0  0  0  0  0  0  0  0  0
   20.3916  -19.0747  -15.6937 O   0  0  0  0  0  0  0  0  0  0  0  0
   19.7198  -19.9839  -16.2775 N   0  0  0  0  0  0  0  0  0  0  0  0
   20.3602  -19.4244   -9.4684 C   0  0  0  0  0  0  0  0  0  0  0  0
   21.0839  -20.1238  -10.5009 O   0  0  0  0  0  0  0  0  0  0  0  0
   22.0973  -20.7460  -10.1278 C   0  0  0  0  0  0  0  0  0  0  0  0
   20.6209  -20.0774  -11.8857 C   0  0  0  0  0  0  0  0  0  0  0  0
   19.3692  -19.3074  -12.1412 C   0  0  2  0  0  0  0  0  0  0  0  0
   19.0197  -19.2928  -13.5927 N   0  0  0  0  0  0  0  0  0  0  0  0
   20.0705  -18.6576  -14.3825 C   0  0  0  0  0  0  0  0  0  0  0  0
   17.7504  -18.6348  -13.9110 O   0  0  0  0  0  0  0  0  0  0  0  0
   17.6985  -17.2980  -14.2444 O   0  0  0  0  0  0  0  0  0  0  0  0
  2  3  2  0
  2  1  1  0
  4  2  1  0
  5  4  1  0
  6  5  1  0
  7  6  1  0
  8 10  1  0
  8  7  1  0
  8  9  1  6
 10 11  2  0
 12 13  1  0
 12 10  1  0
 13 14  1  1
 14 15  1  0
 15 19  1  0
 15 16  2  0
 16 17  1  0
 18 17  1  0
 19 18  2  0
 20 13  1  0
 21 20  2  0
 22 23  1  0
 23 25  1  0
 23 24  2  0
 25 26  1  0
 27 26  1  6
 27 28  1  0
 28 20  1  0
 29 27  1  0
 29 30  1  0
 31 29  2  0
M  END
$$$$
