RHQ.pdb
     RDKit          3D

 31 31  0  0  1  0  0  0  0  0999 V2000
   24.9958  -17.2724  -20.7329 N   0  0  0  0  0  0  0  0  0  0  0  0
   23.6459  -17.7260  -20.6967 C   0  0  0  0  0  0  0  0  0  0  0  0
   23.3197  -18.8093  -21.2744 N   0  0  0  0  0  0  0  0  0  0  0  0
   22.6732  -16.9730  -20.0210 N   0  0  0  0  0  0  0  0  0  0  0  0
   22.6807  -15.5317  -20.0099 C   0  0  0  0  0  0  0  0  0  0  0  0
   23.4574  -14.9261  -18.9139 C   0  0  0  0  0  0  0  0  0  0  0  0
   22.6712  -13.8772  -18.1864 C   0  0  0  0  0  0  0  0  0  0  0  0
   22.7814  -12.4832  -18.6768 C   0  0  2  0  0  0  0  0  0  0  0  0
   23.6281  -12.3572  -19.8229 N   0  0  0  0  0  0  0  0  0  0  0  0
   23.1407  -11.5113  -17.5972 C   0  0  0  0  0  0  0  0  0  0  0  0
   22.4005  -11.5220  -16.5641 O   0  0  0  0  0  0  0  0  0  0  0  0
   22.3287  -19.1536  -21.2364 N   0  0  0  0  0  0  0  0  0  0  0  0
   24.2428  -10.6321  -17.7188 C   0  0  1  0  0  0  0  0  0  0  0  0
   24.6192   -9.7345  -16.6694 C   0  0  0  0  0  0  0  0  0  0  0  0
   26.1062   -9.4011  -16.7286 C   0  0  0  0  0  0  0  0  0  0  0  0
   26.8449  -10.6787  -16.5492 C   0  0  0  0  0  0  0  0  0  0  0  0
   26.2202  -11.8970  -16.3562 N   0  0  0  0  0  0  0  0  0  0  0  0
   27.1934  -12.8057  -16.2331 C   0  0  0  0  0  0  0  0  0  0  0  0
   28.3808  -12.1832  -16.3439 N   0  0  0  0  0  0  0  0  0  0  0  0
   28.1663  -10.8770  -16.5381 C   0  0  0  0  0  0  0  0  0  0  0  0
   23.9072   -8.4364  -16.8055 O   0  0  0  0  0  0  0  0  0  0  0  0
   24.0393   -7.7236  -17.8511 N   0  0  0  0  0  0  0  0  0  0  0  0
   20.9108   -5.8500  -19.5628 C   0  0  0  0  0  0  0  0  0  0  0  0
   19.9918   -5.5463  -18.4942 O   0  0  0  0  0  0  0  0  0  0  0  0
   19.1094   -4.7068  -18.7585 C   0  0  0  0  0  0  0  0  0  0  0  0
   20.1256   -6.2062  -17.1976 C   0  0  0  0  0  0  0  0  0  0  0  0
   21.2083   -7.2254  -17.0807 C   0  0  1  0  0  0  0  0  0  0  0  0
   22.0717   -6.9755  -15.8885 N   0  0  0  0  0  0  0  0  0  0  0  0
   23.0799   -8.0206  -15.7382 C   0  0  0  0  0  0  0  0  0  0  0  0
   21.3472   -6.8565  -14.6211 O   0  0  0  0  0  0  0  0  0  0  0  0
   20.7468   -5.6734  -14.2457 O   0  0  0  0  0  0  0  0  0  0  0  0
  2  3  2  0
  2  1  1  0
  4  2  1  0
  5  4  1  0
  6  5  1  0
  7  6  1  0
  8 10  1  0
  8  7  1  0
  8  9  1  6
 10 11  2  0
 12 13  1  0
 12 10  1  0
 13 14  1  1
 14 15  1  0
 15 19  1  0
 15 16  2  0
 16 17  1  0
 18 17  1  0
 19 18  2  0
 20 13  1  0
 21 20  2  0
 22 23  1  0
 23 25  1  0
 23 24  2  0
 25 26  1  0
 27 26  1  6
 27 28  1  0
 28 20  1  0
 29 27  1  0
 29 30  1  0
 31 29  2  0
M  END
$$$$
