RHQ.pdb
     RDKit          3D

 31 31  0  0  1  0  0  0  0  0999 V2000
   26.4966  -23.0397   -9.9375 N   0  0  0  0  0  0  0  0  0  0  0  0
   26.4658  -21.6401  -10.2008 C   0  0  0  0  0  0  0  0  0  0  0  0
   26.5847  -20.8075   -9.2487 N   0  0  0  0  0  0  0  0  0  0  0  0
   26.3029  -21.1797  -11.5166 N   0  0  0  0  0  0  0  0  0  0  0  0
   25.2503  -21.6566  -12.3781 C   0  0  0  0  0  0  0  0  0  0  0  0
   24.1401  -20.7090  -12.5802 C   0  0  0  0  0  0  0  0  0  0  0  0
   23.4727  -20.9069  -13.9081 C   0  0  0  0  0  0  0  0  0  0  0  0
   24.1594  -20.3602  -15.1020 C   0  0  2  0  0  0  0  0  0  0  0  0
   25.3994  -21.0150  -15.3845 N   0  0  0  0  0  0  0  0  0  0  0  0
   24.3008  -18.8711  -15.0632 C   0  0  0  0  0  0  0  0  0  0  0  0
   23.5422  -18.2568  -14.2492 O   0  0  0  0  0  0  0  0  0  0  0  0
   26.5937  -19.7761   -9.4436 N   0  0  0  0  0  0  0  0  0  0  0  0
   25.2275  -18.1861  -15.8845 C   0  0  1  0  0  0  0  0  0  0  0  0
   25.3097  -16.7574  -15.9109 C   0  0  0  0  0  0  0  0  0  0  0  0
   26.7463  -16.2860  -16.1099 C   0  0  0  0  0  0  0  0  0  0  0  0
   26.7380  -14.8045  -15.9865 C   0  0  0  0  0  0  0  0  0  0  0  0
   26.9850  -13.9523  -17.0469 N   0  0  0  0  0  0  0  0  0  0  0  0
   26.8960  -12.7094  -16.5619 C   0  0  0  0  0  0  0  0  0  0  0  0
   26.6053  -12.7784  -15.2503 N   0  0  0  0  0  0  0  0  0  0  0  0
   26.5082  -14.0653  -14.8974 C   0  0  0  0  0  0  0  0  0  0  0  0
   24.5399  -16.2063  -17.0573 O   0  0  0  0  0  0  0  0  0  0  0  0
   24.6570  -16.7017  -18.2233 N   0  0  0  0  0  0  0  0  0  0  0  0
   18.8863  -17.3969  -16.9618 C   0  0  0  0  0  0  0  0  0  0  0  0
   19.4013  -16.0982  -17.3182 O   0  0  0  0  0  0  0  0  0  0  0  0
   18.5766  -15.1639  -17.3035 C   0  0  0  0  0  0  0  0  0  0  0  0
   20.8102  -15.9352  -17.6685 C   0  0  0  0  0  0  0  0  0  0  0  0
   21.3911  -14.5763  -17.4659 C   0  0  2  0  0  0  0  0  0  0  0  0
   22.8331  -14.5323  -17.8504 N   0  0  0  0  0  0  0  0  0  0  0  0
   23.6750  -15.1165  -16.8106 C   0  0  0  0  0  0  0  0  0  0  0  0
   23.3462  -13.1942  -18.1530 O   0  0  0  0  0  0  0  0  0  0  0  0
   24.3940  -12.6492  -17.4415 O   0  0  0  0  0  0  0  0  0  0  0  0
  2  3  2  0
  2  1  1  0
  4  2  1  0
  5  4  1  0
  6  5  1  0
  7  6  1  0
  8 10  1  0
  8  7  1  0
  8  9  1  1
 10 11  2  0
 12 13  1  0
 12 10  1  0
 13 14  1  1
 14 15  1  0
 15 19  1  0
 15 16  2  0
 16 17  1  0
 18 17  1  0
 19 18  2  0
 20 13  1  0
 21 20  2  0
 22 23  1  0
 23 25  1  0
 23 24  2  0
 25 26  1  0
 27 26  1  6
 27 28  1  0
 28 20  1  0
 29 27  1  0
 29 30  1  0
 31 29  2  0
M  END
$$$$
