LKW.pdb
     RDKit          3D

 32 33  0  0  1  0  0  0  0  0999 V2000
   29.4403  -19.5310   -6.1553 C   0  0  0  0  0  0  0  0  0  0  0  0
   28.8775  -20.6279   -7.0369 C   0  0  1  0  0  0  0  0  0  0  0  0
   27.9058  -21.4830   -6.2202 C   0  0  0  0  0  0  0  0  0  0  0  0
   28.0808  -20.0542   -8.1671 C   0  0  0  0  0  0  0  0  0  0  0  0
   27.5287  -21.1296   -9.0641 C   0  0  2  0  0  0  0  0  0  0  0  0
   28.6931  -21.8012   -9.6799 N   0  0  0  0  0  0  0  0  0  0  0  0
   26.7349  -20.5162  -10.1812 C   0  0  0  0  0  0  0  0  0  0  0  0
   25.8646  -19.6330   -9.9645 O   0  0  0  0  0  0  0  0  0  0  0  0
   26.9499  -20.9199  -11.5155 N   0  0  0  0  0  0  0  0  0  0  0  0
   26.1401  -20.2164  -12.5835 C   0  0  1  0  0  0  0  0  0  0  0  0
   26.6984  -20.6347  -13.8857 C   0  0  0  0  0  0  0  0  0  0  0  0
   26.7393  -19.8161  -15.0816 C   0  0  0  0  0  0  0  0  0  0  0  0
   27.6266  -18.6428  -15.1790 C   0  0  0  0  0  0  0  0  0  0  0  0
   27.3717  -17.9464  -16.5464 C   0  0  0  0  0  0  0  0  0  0  0  0
   28.4775  -18.3065  -17.4057 N   0  0  0  0  0  0  0  0  0  0  0  0
   24.8038  -20.8433  -12.3560 C   0  0  0  0  0  0  0  0  0  0  0  0
   24.7302  -22.0454  -12.0927 O   0  0  0  0  0  0  0  0  0  0  0  0
   23.5578  -20.1322  -12.4223 N   0  0  0  0  0  0  0  0  0  0  0  0
   22.2944  -20.7308  -12.0272 C   0  0  1  0  0  0  0  0  0  0  0  0
   21.5640  -19.9339  -11.0285 C   0  0  0  0  0  0  0  0  0  0  0  0
   20.2516  -20.4702  -10.6069 C   0  0  0  0  0  0  0  0  0  0  0  0
   20.1067  -21.5697   -9.7436 C   0  0  0  0  0  0  0  0  0  0  0  0
   18.8185  -21.8193   -9.5967 N   0  0  0  0  0  0  0  0  0  0  0  0
   18.1025  -20.9453  -10.3140 C   0  0  0  0  0  0  0  0  0  0  0  0
   16.7298  -20.7663  -10.4908 C   0  0  0  0  0  0  0  0  0  0  0  0
   16.3032  -19.7424  -11.2958 C   0  0  0  0  0  0  0  0  0  0  0  0
   17.1929  -18.8859  -11.9347 C   0  0  0  0  0  0  0  0  0  0  0  0
   18.5321  -19.0667  -11.7587 C   0  0  0  0  0  0  0  0  0  0  0  0
   18.9786  -20.0968  -10.9496 C   0  0  0  0  0  0  0  0  0  0  0  0
   21.5733  -21.1832  -13.2222 C   0  0  0  0  0  0  0  0  0  0  0  0
   20.7179  -22.2769  -13.2589 O   0  0  0  0  0  0  0  0  0  0  0  0
   21.7151  -20.5675  -14.3171 O   0  0  0  0  0  0  0  0  0  0  0  0
  2  3  1  1
  2  1  1  0
  4  2  1  0
  5  6  1  6
  5  4  1  0
  7  5  1  0
  8  7  2  0
  9  7  1  0
 10 16  1  0
 10  9  1  0
 10 11  1  6
 12 11  1  0
 13 14  1  0
 13 12  1  0
 15 14  1  0
 16 18  1  0
 17 16  2  0
 18 19  1  0
 19 20  1  6
 20 21  1  0
 21 29  1  0
 21 22  2  0
 22 23  1  0
 24 25  2  0
 24 23  1  0
 26 25  1  0
 27 26  2  0
 28 27  1  0
 28 29  2  0
 29 24  1  0
 30 31  1  0
 30 19  1  0
 32 30  2  0
M  END
$$$$
