LKW.pdb
     RDKit          3D

 32 33  0  0  1  0  0  0  0  0999 V2000
   22.0357  -15.0075  -19.4138 C   0  0  0  0  0  0  0  0  0  0  0  0
   23.2986  -15.6989  -19.8875 C   0  0  1  0  0  0  0  0  0  0  0  0
   24.5164  -14.8876  -19.4395 C   0  0  0  0  0  0  0  0  0  0  0  0
   23.4413  -17.0494  -19.2573 C   0  0  0  0  0  0  0  0  0  0  0  0
   24.7164  -17.7302  -19.6775 C   0  0  2  0  0  0  0  0  0  0  0  0
   24.5222  -18.1561  -21.0800 N   0  0  0  0  0  0  0  0  0  0  0  0
   24.9309  -18.9755  -18.8667 C   0  0  0  0  0  0  0  0  0  0  0  0
   24.2444  -20.0132  -19.0573 O   0  0  0  0  0  0  0  0  0  0  0  0
   25.9197  -19.0117  -17.8615 N   0  0  0  0  0  0  0  0  0  0  0  0
   26.0710  -20.3082  -17.0950 C   0  0  1  0  0  0  0  0  0  0  0  0
   27.4733  -20.3694  -16.6345 C   0  0  0  0  0  0  0  0  0  0  0  0
   28.1537  -21.5653  -16.1775 C   0  0  0  0  0  0  0  0  0  0  0  0
   27.8160  -22.8948  -16.7178 C   0  0  0  0  0  0  0  0  0  0  0  0
   28.8183  -23.9313  -16.1340 C   0  0  0  0  0  0  0  0  0  0  0  0
   28.3819  -25.2314  -16.5926 N   0  0  0  0  0  0  0  0  0  0  0  0
   25.1500  -20.0452  -15.9491 C   0  0  0  0  0  0  0  0  0  0  0  0
   25.1361  -18.9318  -15.4199 O   0  0  0  0  0  0  0  0  0  0  0  0
   24.2505  -21.0195  -15.3977 N   0  0  0  0  0  0  0  0  0  0  0  0
   23.3113  -20.7031  -14.3353 C   0  0  1  0  0  0  0  0  0  0  0  0
   22.5772  -19.4488  -14.5669 C   0  0  0  0  0  0  0  0  0  0  0  0
   21.2353  -19.5870  -15.1735 C   0  0  0  0  0  0  0  0  0  0  0  0
   20.0626  -19.7748  -14.4221 C   0  0  0  0  0  0  0  0  0  0  0  0
   19.0467  -19.8993  -15.2564 N   0  0  0  0  0  0  0  0  0  0  0  0
   19.4818  -19.8030  -16.5184 C   0  0  0  0  0  0  0  0  0  0  0  0
   18.8283  -19.8506  -17.7506 C   0  0  0  0  0  0  0  0  0  0  0  0
   19.5730  -19.6976  -18.8909 C   0  0  0  0  0  0  0  0  0  0  0  0
   20.9486  -19.4984  -18.8530 C   0  0  0  0  0  0  0  0  0  0  0  0
   21.5808  -19.4539  -17.6466 C   0  0  0  0  0  0  0  0  0  0  0  0
   20.8428  -19.6078  -16.4861 C   0  0  0  0  0  0  0  0  0  0  0  0
   22.5464  -21.9052  -13.9855 C   0  0  0  0  0  0  0  0  0  0  0  0
   22.6065  -23.1066  -14.6800 O   0  0  0  0  0  0  0  0  0  0  0  0
   21.7621  -21.8894  -12.9943 O   0  0  0  0  0  0  0  0  0  0  0  0
  2  3  1  1
  2  1  1  0
  4  2  1  0
  5  6  1  6
  5  4  1  0
  7  5  1  0
  8  7  2  0
  9  7  1  0
 10 16  1  0
 10  9  1  0
 10 11  1  1
 12 11  1  0
 13 14  1  0
 13 12  1  0
 15 14  1  0
 16 18  1  0
 17 16  2  0
 18 19  1  0
 19 20  1  6
 20 21  1  0
 21 29  1  0
 21 22  2  0
 22 23  1  0
 24 25  2  0
 24 23  1  0
 26 25  1  0
 27 26  2  0
 28 27  1  0
 28 29  2  0
 29 24  1  0
 30 31  1  0
 30 19  1  0
 32 30  2  0
M  END
$$$$
