LKW.pdb
     RDKit          3D

 32 33  0  0  1  0  0  0  0  0999 V2000
   29.0489  -19.8622  -19.3170 C   0  0  0  0  0  0  0  0  0  0  0  0
   28.9917  -20.4733  -17.9311 C   0  0  1  0  0  0  0  0  0  0  0  0
   30.1636  -21.4422  -17.7581 C   0  0  0  0  0  0  0  0  0  0  0  0
   29.1558  -19.4259  -16.8741 C   0  0  0  0  0  0  0  0  0  0  0  0
   29.1592  -20.0225  -15.4921 C   0  0  2  0  0  0  0  0  0  0  0  0
   29.1166  -21.4899  -15.6682 N   0  0  0  0  0  0  0  0  0  0  0  0
   27.9101  -19.6327  -14.7559 C   0  0  0  0  0  0  0  0  0  0  0  0
   27.5393  -18.4326  -14.6749 O   0  0  0  0  0  0  0  0  0  0  0  0
   27.1132  -20.6150  -14.1316 N   0  0  0  0  0  0  0  0  0  0  0  0
   25.8212  -20.1474  -13.4962 C   0  0  1  0  0  0  0  0  0  0  0  0
   24.7215  -20.7818  -14.2514 C   0  0  0  0  0  0  0  0  0  0  0  0
   23.3807  -20.2469  -14.3872 C   0  0  0  0  0  0  0  0  0  0  0  0
   23.1481  -18.8137  -14.6429 C   0  0  0  0  0  0  0  0  0  0  0  0
   21.6138  -18.5731  -14.7299 C   0  0  0  0  0  0  0  0  0  0  0  0
   21.1887  -19.0785  -16.0163 N   0  0  0  0  0  0  0  0  0  0  0  0
   25.9561  -20.7633  -12.1423 C   0  0  0  0  0  0  0  0  0  0  0  0
   26.7921  -21.6499  -11.9554 O   0  0  0  0  0  0  0  0  0  0  0  0
   25.1623  -20.3915  -11.0047 N   0  0  0  0  0  0  0  0  0  0  0  0
   25.4140  -20.9127   -9.6722 C   0  0  1  0  0  0  0  0  0  0  0  0
   26.7502  -20.5693   -9.1596 C   0  0  0  0  0  0  0  0  0  0  0  0
   26.9141  -20.6269   -7.6907 C   0  0  0  0  0  0  0  0  0  0  0  0
   26.0561  -21.3501   -6.8446 C   0  0  0  0  0  0  0  0  0  0  0  0
   26.4477  -21.1677   -5.5968 N   0  0  0  0  0  0  0  0  0  0  0  0
   27.5181  -20.3648   -5.5702 C   0  0  0  0  0  0  0  0  0  0  0  0
   28.3109  -19.8794   -4.5293 C   0  0  0  0  0  0  0  0  0  0  0  0
   29.3733  -19.0711   -4.8400 C   0  0  0  0  0  0  0  0  0  0  0  0
   29.6788  -18.7253   -6.1516 C   0  0  0  0  0  0  0  0  0  0  0  0
   28.9002  -19.2018   -7.1634 C   0  0  0  0  0  0  0  0  0  0  0  0
   27.8232  -20.0184   -6.8657 C   0  0  0  0  0  0  0  0  0  0  0  0
   24.2503  -20.6517   -8.8177 C   0  0  0  0  0  0  0  0  0  0  0  0
   23.6410  -21.5998   -8.0057 O   0  0  0  0  0  0  0  0  0  0  0  0
   23.7306  -19.4997   -8.7917 O   0  0  0  0  0  0  0  0  0  0  0  0
  2  3  1  6
  2  1  1  0
  4  2  1  0
  5  6  1  6
  5  4  1  0
  7  5  1  0
  8  7  2  0
  9  7  1  0
 10 16  1  0
 10  9  1  0
 10 11  1  6
 12 11  1  0
 13 14  1  0
 13 12  1  0
 15 14  1  0
 16 18  1  0
 17 16  2  0
 18 19  1  0
 19 20  1  1
 20 21  1  0
 21 29  1  0
 21 22  2  0
 22 23  1  0
 24 25  2  0
 24 23  1  0
 26 25  1  0
 27 26  2  0
 28 27  1  0
 28 29  2  0
 29 24  1  0
 30 31  1  0
 30 19  1  0
 32 30  2  0
M  END
$$$$
