LKW.pdb
     RDKit          3D

 32 33  0  0  1  0  0  0  0  0999 V2000
   25.6270  -14.0643  -16.6692 C   0  0  0  0  0  0  0  0  0  0  0  0
   26.4586  -15.3164  -16.4749 C   0  0  1  0  0  0  0  0  0  0  0  0
   27.1609  -15.2500  -15.1167 C   0  0  0  0  0  0  0  0  0  0  0  0
   25.5927  -16.5371  -16.4383 C   0  0  0  0  0  0  0  0  0  0  0  0
   26.4043  -17.7929  -16.2651 C   0  0  2  0  0  0  0  0  0  0  0  0
   27.2621  -17.9070  -17.4640 N   0  0  0  0  0  0  0  0  0  0  0  0
   25.5042  -18.9947  -16.2539 C   0  0  0  0  0  0  0  0  0  0  0  0
   25.0310  -19.4743  -17.3170 O   0  0  0  0  0  0  0  0  0  0  0  0
   25.1655  -19.6219  -15.0368 N   0  0  0  0  0  0  0  0  0  0  0  0
   24.1860  -20.7738  -15.1085 C   0  0  1  0  0  0  0  0  0  0  0  0
   24.6591  -21.7951  -14.1518 C   0  0  0  0  0  0  0  0  0  0  0  0
   25.4725  -22.9468  -14.4898 C   0  0  0  0  0  0  0  0  0  0  0  0
   25.1042  -23.8488  -15.5962 C   0  0  0  0  0  0  0  0  0  0  0  0
   26.2715  -24.8518  -15.8215 C   0  0  0  0  0  0  0  0  0  0  0  0
   25.8791  -25.7014  -16.9238 N   0  0  0  0  0  0  0  0  0  0  0  0
   22.9532  -20.1028  -14.5979 C   0  0  0  0  0  0  0  0  0  0  0  0
   23.0432  -19.2591  -13.7035 O   0  0  0  0  0  0  0  0  0  0  0  0
   21.6287  -20.3726  -15.0829 N   0  0  0  0  0  0  0  0  0  0  0  0
   20.5820  -19.3652  -15.0988 C   0  0  1  0  0  0  0  0  0  0  0  0
   21.0622  -18.0388  -15.5181 C   0  0  0  0  0  0  0  0  0  0  0  0
   20.0200  -17.0111  -15.7314 C   0  0  0  0  0  0  0  0  0  0  0  0
   19.2449  -16.4684  -14.6923 C   0  0  0  0  0  0  0  0  0  0  0  0
   18.3862  -15.6118  -15.2143 N   0  0  0  0  0  0  0  0  0  0  0  0
   18.5507  -15.5567  -16.5414 C   0  0  0  0  0  0  0  0  0  0  0  0
   17.9217  -14.8153  -17.5426 C   0  0  0  0  0  0  0  0  0  0  0  0
   18.3429  -14.9767  -18.8368 C   0  0  0  0  0  0  0  0  0  0  0  0
   19.3699  -15.8507  -19.1752 C   0  0  0  0  0  0  0  0  0  0  0  0
   19.9793  -16.5725  -18.1930 C   0  0  0  0  0  0  0  0  0  0  0  0
   19.5647  -16.4214  -16.8813 C   0  0  0  0  0  0  0  0  0  0  0  0
   19.3868  -19.9129  -15.7500 C   0  0  0  0  0  0  0  0  0  0  0  0
   18.0899  -19.7523  -15.2790 O   0  0  0  0  0  0  0  0  0  0  0  0
   19.4991  -20.5884  -16.8125 O   0  0  0  0  0  0  0  0  0  0  0  0
  2  3  1  1
  2  1  1  0
  4  2  1  0
  5  6  1  6
  5  4  1  0
  7  5  1  0
  8  7  2  0
  9  7  1  0
 10 16  1  0
 10  9  1  0
 10 11  1  1
 12 11  1  0
 13 14  1  0
 13 12  1  0
 15 14  1  0
 16 18  1  0
 17 16  2  0
 18 19  1  0
 19 20  1  6
 20 21  1  0
 21 29  1  0
 21 22  2  0
 22 23  1  0
 24 25  2  0
 24 23  1  0
 26 25  1  0
 27 26  2  0
 28 27  1  0
 28 29  2  0
 29 24  1  0
 30 31  1  0
 30 19  1  0
 32 30  2  0
M  END
$$$$
