LKW.pdb
     RDKit          3D

 32 33  0  0  1  0  0  0  0  0999 V2000
   29.4567  -31.7044  -20.5512 C   0  0  0  0  0  0  0  0  0  0  0  0
   28.9091  -30.9646  -19.3470 C   0  0  1  0  0  0  0  0  0  0  0  0
   27.4825  -30.4987  -19.6470 C   0  0  0  0  0  0  0  0  0  0  0  0
   28.8120  -31.8692  -18.1581 C   0  0  0  0  0  0  0  0  0  0  0  0
   28.6722  -31.0936  -16.8757 C   0  0  2  0  0  0  0  0  0  0  0  0
   29.8943  -30.2714  -16.7471 N   0  0  0  0  0  0  0  0  0  0  0  0
   28.6488  -32.0307  -15.7028 C   0  0  0  0  0  0  0  0  0  0  0  0
   29.7063  -32.3802  -15.1164 O   0  0  0  0  0  0  0  0  0  0  0  0
   27.4259  -32.5458  -15.2247 N   0  0  0  0  0  0  0  0  0  0  0  0
   27.4883  -33.4366  -14.0024 C   0  0  1  0  0  0  0  0  0  0  0  0
   26.3439  -33.0644  -13.1455 C   0  0  0  0  0  0  0  0  0  0  0  0
   26.0585  -33.6245  -11.8390 C   0  0  0  0  0  0  0  0  0  0  0  0
   26.9047  -33.3191  -10.6711 C   0  0  0  0  0  0  0  0  0  0  0  0
   26.4024  -34.1646   -9.4660 C   0  0  0  0  0  0  0  0  0  0  0  0
   27.3072  -33.8994   -8.3697 N   0  0  0  0  0  0  0  0  0  0  0  0
   27.2615  -34.7697  -14.6366 C   0  0  0  0  0  0  0  0  0  0  0  0
   26.4505  -34.8770  -15.5589 O   0  0  0  0  0  0  0  0  0  0  0  0
   27.9360  -35.9749  -14.2431 N   0  0  0  0  0  0  0  0  0  0  0  0
   27.6286  -37.2690  -14.8277 C   0  0  1  0  0  0  0  0  0  0  0  0
   28.7086  -38.2535  -14.6536 C   0  0  0  0  0  0  0  0  0  0  0  0
   28.4559  -39.5975  -15.2172 C   0  0  0  0  0  0  0  0  0  0  0  0
   28.2514  -39.8356  -16.5870 C   0  0  0  0  0  0  0  0  0  0  0  0
   28.0161  -41.1238  -16.7571 N   0  0  0  0  0  0  0  0  0  0  0  0
   28.0547  -41.7516  -15.5759 C   0  0  0  0  0  0  0  0  0  0  0  0
   27.8907  -43.0882  -15.2091 C   0  0  0  0  0  0  0  0  0  0  0  0
   28.0112  -43.4214  -13.8852 C   0  0  0  0  0  0  0  0  0  0  0  0
   28.2897  -42.4727  -12.9076 C   0  0  0  0  0  0  0  0  0  0  0  0
   28.4477  -41.1692  -13.2722 C   0  0  0  0  0  0  0  0  0  0  0  0
   28.3281  -40.8166  -14.6051 C   0  0  0  0  0  0  0  0  0  0  0  0
   26.2627  -37.6589  -14.4603 C   0  0  0  0  0  0  0  0  0  0  0  0
   25.4931  -37.0188  -13.4973 O   0  0  0  0  0  0  0  0  0  0  0  0
   25.7111  -38.6430  -15.0306 O   0  0  0  0  0  0  0  0  0  0  0  0
  2  3  1  6
  2  1  1  0
  4  2  1  0
  5  6  1  1
  5  4  1  0
  7  5  1  0
  8  7  2  0
  9  7  1  0
 10 16  1  0
 10  9  1  0
 10 11  1  1
 12 11  1  0
 13 14  1  0
 13 12  1  0
 15 14  1  0
 16 18  1  0
 17 16  2  0
 18 19  1  0
 19 20  1  1
 20 21  1  0
 21 29  1  0
 21 22  2  0
 22 23  1  0
 24 25  2  0
 24 23  1  0
 26 25  1  0
 27 26  2  0
 28 27  1  0
 28 29  2  0
 29 24  1  0
 30 31  1  0
 30 19  1  0
 32 30  2  0
M  END
$$$$
