LKW.pdb
     RDKit          3D

 32 33  0  0  1  0  0  0  0  0999 V2000
   17.5978  -23.2134  -12.9879 C   0  0  0  0  0  0  0  0  0  0  0  0
   18.5443  -22.4935  -13.9275 C   0  0  1  0  0  0  0  0  0  0  0  0
   18.8477  -21.1012  -13.3691 C   0  0  0  0  0  0  0  0  0  0  0  0
   19.8590  -23.2041  -14.0155 C   0  0  0  0  0  0  0  0  0  0  0  0
   20.8809  -22.3974  -14.7710 C   0  0  2  0  0  0  0  0  0  0  0  0
   20.8087  -22.8418  -16.1794 N   0  0  0  0  0  0  0  0  0  0  0  0
   22.2626  -22.7197  -14.2798 C   0  0  0  0  0  0  0  0  0  0  0  0
   22.5370  -23.8365  -13.7682 O   0  0  0  0  0  0  0  0  0  0  0  0
   23.2975  -21.7669  -14.3829 N   0  0  0  0  0  0  0  0  0  0  0  0
   24.6905  -22.2243  -14.0061 C   0  0  1  0  0  0  0  0  0  0  0  0
   25.5781  -21.8535  -15.1272 C   0  0  0  0  0  0  0  0  0  0  0  0
   26.9373  -22.3236  -15.3106 C   0  0  0  0  0  0  0  0  0  0  0  0
   27.7428  -21.9093  -16.4737 C   0  0  0  0  0  0  0  0  0  0  0  0
   28.6534  -20.7238  -16.0434 C   0  0  0  0  0  0  0  0  0  0  0  0
   29.4223  -20.3493  -17.2094 N   0  0  0  0  0  0  0  0  0  0  0  0
   24.9428  -21.3504  -12.8215 C   0  0  0  0  0  0  0  0  0  0  0  0
   24.4410  -20.2253  -12.7749 O   0  0  0  0  0  0  0  0  0  0  0  0
   25.7503  -21.7307  -11.6965 N   0  0  0  0  0  0  0  0  0  0  0  0
   26.0875  -20.8056  -10.6283 C   0  0  1  0  0  0  0  0  0  0  0  0
   26.4534  -21.4805   -9.3727 C   0  0  0  0  0  0  0  0  0  0  0  0
   26.8170  -20.5956   -8.2446 C   0  0  0  0  0  0  0  0  0  0  0  0
   25.9896  -19.5610   -7.7756 C   0  0  0  0  0  0  0  0  0  0  0  0
   26.6144  -18.9386   -6.7928 N   0  0  0  0  0  0  0  0  0  0  0  0
   27.8091  -19.5047   -6.5845 C   0  0  0  0  0  0  0  0  0  0  0  0
   28.8339  -19.2434   -5.6740 C   0  0  0  0  0  0  0  0  0  0  0  0
   29.9523  -20.0350   -5.7049 C   0  0  0  0  0  0  0  0  0  0  0  0
   30.0915  -21.0810   -6.6104 C   0  0  0  0  0  0  0  0  0  0  0  0
   29.0875  -21.3303   -7.4975 C   0  0  0  0  0  0  0  0  0  0  0  0
   27.9522  -20.5391   -7.4794 C   0  0  0  0  0  0  0  0  0  0  0  0
   26.9817  -19.7648  -11.1475 C   0  0  0  0  0  0  0  0  0  0  0  0
   26.8394  -18.4064  -10.8947 O   0  0  0  0  0  0  0  0  0  0  0  0
   27.9589  -20.0807  -11.8844 O   0  0  0  0  0  0  0  0  0  0  0  0
  2  3  1  1
  2  1  1  0
  4  2  1  0
  5  6  1  6
  5  4  1  0
  7  5  1  0
  8  7  2  0
  9  7  1  0
 10 16  1  0
 10  9  1  0
 10 11  1  6
 12 11  1  0
 13 14  1  0
 13 12  1  0
 15 14  1  0
 16 18  1  0
 17 16  2  0
 18 19  1  0
 19 20  1  1
 20 21  1  0
 21 29  1  0
 21 22  2  0
 22 23  1  0
 24 25  2  0
 24 23  1  0
 26 25  1  0
 27 26  2  0
 28 27  1  0
 28 29  2  0
 29 24  1  0
 30 31  1  0
 30 19  1  0
 32 30  2  0
M  END
$$$$
