LKW.pdb
     RDKit          3D

 32 33  0  0  1  0  0  0  0  0999 V2000
   26.3752  -18.6490   -7.1451 C   0  0  0  0  0  0  0  0  0  0  0  0
   26.2687  -19.9281   -7.9512 C   0  0  1  0  0  0  0  0  0  0  0  0
   24.9233  -20.5971   -7.6607 C   0  0  0  0  0  0  0  0  0  0  0  0
   26.2840  -19.6410   -9.4204 C   0  0  0  0  0  0  0  0  0  0  0  0
   26.1102  -20.8938  -10.2365 C   0  0  2  0  0  0  0  0  0  0  0  0
   27.3980  -21.6176  -10.1737 N   0  0  0  0  0  0  0  0  0  0  0  0
   25.8728  -20.5453  -11.6775 C   0  0  0  0  0  0  0  0  0  0  0  0
   26.4919  -19.6044  -12.2393 O   0  0  0  0  0  0  0  0  0  0  0  0
   24.9400  -21.2744  -12.4442 N   0  0  0  0  0  0  0  0  0  0  0  0
   24.9575  -21.0491  -13.9410 C   0  0  1  0  0  0  0  0  0  0  0  0
   25.0749  -22.3803  -14.5705 C   0  0  0  0  0  0  0  0  0  0  0  0
   26.3125  -22.9900  -15.0165 C   0  0  0  0  0  0  0  0  0  0  0  0
   27.2493  -22.2697  -15.8979 C   0  0  0  0  0  0  0  0  0  0  0  0
   28.3757  -23.2534  -16.3259 C   0  0  0  0  0  0  0  0  0  0  0  0
   29.3240  -22.4837  -17.1000 N   0  0  0  0  0  0  0  0  0  0  0  0
   23.5866  -20.4905  -14.1389 C   0  0  0  0  0  0  0  0  0  0  0  0
   22.6701  -20.8432  -13.3936 O   0  0  0  0  0  0  0  0  0  0  0  0
   23.2417  -19.5442  -15.1625 N   0  0  0  0  0  0  0  0  0  0  0  0
   21.8733  -19.1215  -15.4071 C   0  0  1  0  0  0  0  0  0  0  0  0
   21.7816  -17.9173  -16.2481 C   0  0  0  0  0  0  0  0  0  0  0  0
   20.4141  -17.4734  -16.5955 C   0  0  0  0  0  0  0  0  0  0  0  0
   19.6567  -16.6023  -15.7938 C   0  0  0  0  0  0  0  0  0  0  0  0
   18.4749  -16.4350  -16.3586 N   0  0  0  0  0  0  0  0  0  0  0  0
   18.4086  -17.1461  -17.4904 C   0  0  0  0  0  0  0  0  0  0  0  0
   17.4089  -17.3034  -18.4516 C   0  0  0  0  0  0  0  0  0  0  0  0
   17.6629  -18.1072  -19.5322 C   0  0  0  0  0  0  0  0  0  0  0  0
   18.8778  -18.7637  -19.6945 C   0  0  0  0  0  0  0  0  0  0  0  0
   19.8494  -18.6067  -18.7519 C   0  0  0  0  0  0  0  0  0  0  0  0
   19.6078  -17.7990  -17.6544 C   0  0  0  0  0  0  0  0  0  0  0  0
   21.0586  -20.2875  -15.7663 C   0  0  0  0  0  0  0  0  0  0  0  0
   19.7783  -20.5317  -15.2862 O   0  0  0  0  0  0  0  0  0  0  0  0
   21.5162  -21.1581  -16.5604 O   0  0  0  0  0  0  0  0  0  0  0  0
  2  3  1  1
  2  1  1  0
  4  2  1  0
  5  6  1  6
  5  4  1  0
  7  5  1  0
  8  7  2  0
  9  7  1  0
 10 16  1  0
 10  9  1  0
 10 11  1  6
 12 11  1  0
 13 14  1  0
 13 12  1  0
 15 14  1  0
 16 18  1  0
 17 16  2  0
 18 19  1  0
 19 20  1  6
 20 21  1  0
 21 29  1  0
 21 22  2  0
 22 23  1  0
 24 25  2  0
 24 23  1  0
 26 25  1  0
 27 26  2  0
 28 27  1  0
 28 29  2  0
 29 24  1  0
 30 31  1  0
 30 19  1  0
 32 30  2  0
M  END
$$$$
