LKW.pdb
     RDKit          3D

 32 33  0  0  1  0  0  0  0  0999 V2000
   28.3520  -15.2241  -15.7253 C   0  0  0  0  0  0  0  0  0  0  0  0
   28.1389  -16.6355  -16.2350 C   0  0  1  0  0  0  0  0  0  0  0  0
   29.4972  -17.3165  -16.4173 C   0  0  0  0  0  0  0  0  0  0  0  0
   27.3885  -17.4606  -15.2364 C   0  0  0  0  0  0  0  0  0  0  0  0
   27.2484  -18.8905  -15.6853 C   0  0  2  0  0  0  0  0  0  0  0  0
   26.5028  -18.8585  -16.9617 N   0  0  0  0  0  0  0  0  0  0  0  0
   26.4100  -19.6615  -14.7070 C   0  0  0  0  0  0  0  0  0  0  0  0
   25.3280  -19.2006  -14.2585 O   0  0  0  0  0  0  0  0  0  0  0  0
   26.8205  -20.9361  -14.2639 N   0  0  0  0  0  0  0  0  0  0  0  0
   25.8201  -21.7366  -13.4577 C   0  0  1  0  0  0  0  0  0  0  0  0
   26.0369  -23.1572  -13.8000 C   0  0  0  0  0  0  0  0  0  0  0  0
   25.1137  -24.2381  -13.5145 C   0  0  0  0  0  0  0  0  0  0  0  0
   23.6813  -24.1325  -13.8469 C   0  0  0  0  0  0  0  0  0  0  0  0
   23.0121  -25.5110  -13.5792 C   0  0  0  0  0  0  0  0  0  0  0  0
   21.5934  -25.3297  -13.7926 N   0  0  0  0  0  0  0  0  0  0  0  0
   26.3045  -21.4468  -12.0750 C   0  0  0  0  0  0  0  0  0  0  0  0
   27.5155  -21.3830  -11.8531 O   0  0  0  0  0  0  0  0  0  0  0  0
   25.4419  -21.2297  -10.9475 N   0  0  0  0  0  0  0  0  0  0  0  0
   25.9461  -21.1029   -9.5908 C   0  0  1  0  0  0  0  0  0  0  0  0
   27.1510  -20.2630   -9.4977 C   0  0  0  0  0  0  0  0  0  0  0  0
   27.4948  -19.7724   -8.1453 C   0  0  0  0  0  0  0  0  0  0  0  0
   26.7856  -18.7516   -7.4895 C   0  0  0  0  0  0  0  0  0  0  0  0
   27.3631  -18.5231   -6.3242 N   0  0  0  0  0  0  0  0  0  0  0  0
   28.4145  -19.3370   -6.1719 C   0  0  0  0  0  0  0  0  0  0  0  0
   29.3362  -19.5084   -5.1380 C   0  0  0  0  0  0  0  0  0  0  0  0
   30.3096  -20.4623   -5.2825 C   0  0  0  0  0  0  0  0  0  0  0  0
   30.4023  -21.2557   -6.4206 C   0  0  0  0  0  0  0  0  0  0  0  0
   29.4999  -21.0827   -7.4269 C   0  0  0  0  0  0  0  0  0  0  0  0
   28.5116  -20.1228   -7.2963 C   0  0  0  0  0  0  0  0  0  0  0  0
   24.8304  -20.8266   -8.6789 C   0  0  0  0  0  0  0  0  0  0  0  0
   24.7724  -21.2458   -7.3560 O   0  0  0  0  0  0  0  0  0  0  0  0
   23.8298  -20.1696   -9.0850 O   0  0  0  0  0  0  0  0  0  0  0  0
  2  3  1  1
  2  1  1  0
  4  2  1  0
  5  6  1  6
  5  4  1  0
  7  5  1  0
  8  7  2  0
  9  7  1  0
 10 16  1  0
 10  9  1  0
 10 11  1  6
 12 11  1  0
 13 14  1  0
 13 12  1  0
 15 14  1  0
 16 18  1  0
 17 16  2  0
 18 19  1  0
 19 20  1  6
 20 21  1  0
 21 29  1  0
 21 22  2  0
 22 23  1  0
 24 25  2  0
 24 23  1  0
 26 25  1  0
 27 26  2  0
 28 27  1  0
 28 29  2  0
 29 24  1  0
 30 31  1  0
 30 19  1  0
 32 30  2  0
M  END
$$$$
