LKW.pdb
     RDKit          3D

 32 33  0  0  1  0  0  0  0  0999 V2000
   26.8709  -13.7807  -15.3722 C   0  0  0  0  0  0  0  0  0  0  0  0
   27.2013  -14.8235  -16.4213 C   0  0  1  0  0  0  0  0  0  0  0  0
   28.7072  -15.0962  -16.4048 C   0  0  0  0  0  0  0  0  0  0  0  0
   26.5369  -16.1285  -16.1107 C   0  0  0  0  0  0  0  0  0  0  0  0
   26.9489  -17.2087  -17.0746 C   0  0  2  0  0  0  0  0  0  0  0  0
   26.5194  -16.7602  -18.4164 N   0  0  0  0  0  0  0  0  0  0  0  0
   26.2058  -18.4793  -16.7783 C   0  0  0  0  0  0  0  0  0  0  0  0
   24.9481  -18.5155  -16.7450 O   0  0  0  0  0  0  0  0  0  0  0  0
   26.9090  -19.6762  -16.5287 N   0  0  0  0  0  0  0  0  0  0  0  0
   26.0844  -20.9362  -16.3735 C   0  0  1  0  0  0  0  0  0  0  0  0
   26.8613  -22.0319  -16.9882 C   0  0  0  0  0  0  0  0  0  0  0  0
   26.3671  -23.3720  -17.2376 C   0  0  0  0  0  0  0  0  0  0  0  0
   26.1968  -24.3438  -16.1421 C   0  0  0  0  0  0  0  0  0  0  0  0
   25.6430  -25.6679  -16.7419 C   0  0  0  0  0  0  0  0  0  0  0  0
   25.5099  -26.5960  -15.6410 N   0  0  0  0  0  0  0  0  0  0  0  0
   26.0773  -21.0642  -14.8854 C   0  0  0  0  0  0  0  0  0  0  0  0
   27.1450  -21.1483  -14.2748 O   0  0  0  0  0  0  0  0  0  0  0  0
   24.8856  -21.0980  -14.0848 N   0  0  0  0  0  0  0  0  0  0  0  0
   24.9085  -21.3877  -12.6613 C   0  0  1  0  0  0  0  0  0  0  0  0
   26.0235  -20.7354  -11.9562 C   0  0  0  0  0  0  0  0  0  0  0  0
   26.0374  -20.8897  -10.4852 C   0  0  0  0  0  0  0  0  0  0  0  0
   25.5900  -22.0467   -9.8247 C   0  0  0  0  0  0  0  0  0  0  0  0
   25.6976  -21.8533   -8.5229 N   0  0  0  0  0  0  0  0  0  0  0  0
   26.1926  -20.6328   -8.2852 C   0  0  0  0  0  0  0  0  0  0  0  0
   26.5076  -19.9525   -7.1080 C   0  0  0  0  0  0  0  0  0  0  0  0
   27.0286  -18.6885   -7.2039 C   0  0  0  0  0  0  0  0  0  0  0  0
   27.2493  -18.0722   -8.4306 C   0  0  0  0  0  0  0  0  0  0  0  0
   26.9387  -18.7415   -9.5762 C   0  0  0  0  0  0  0  0  0  0  0  0
   26.4109  -20.0183   -9.4960 C   0  0  0  0  0  0  0  0  0  0  0  0
   23.5557  -21.2442  -12.1118 C   0  0  0  0  0  0  0  0  0  0  0  0
   22.9303  -22.1848  -11.3033 O   0  0  0  0  0  0  0  0  0  0  0  0
   22.8743  -20.2116  -12.3709 O   0  0  0  0  0  0  0  0  0  0  0  0
  2  3  1  1
  2  1  1  0
  4  2  1  0
  5  6  1  6
  5  4  1  0
  7  5  1  0
  8  7  2  0
  9  7  1  0
 10 16  1  0
 10  9  1  0
 10 11  1  6
 12 11  1  0
 13 14  1  0
 13 12  1  0
 15 14  1  0
 16 18  1  0
 17 16  2  0
 18 19  1  0
 19 20  1  1
 20 21  1  0
 21 29  1  0
 21 22  2  0
 22 23  1  0
 24 25  2  0
 24 23  1  0
 26 25  1  0
 27 26  2  0
 28 27  1  0
 28 29  2  0
 29 24  1  0
 30 31  1  0
 30 19  1  0
 32 30  2  0
M  END
$$$$
