KRQ.pdb
     RDKit          3D

 30 29  0  0  1  0  0  0  0  0999 V2000
   26.4396  -23.3907  -16.2986 N   0  0  0  0  0  0  0  0  0  0  0  0
   25.9579  -22.0564  -16.0012 C   0  0  1  0  0  0  0  0  0  0  0  0
   25.3152  -21.4568  -17.2151 C   0  0  0  0  0  0  0  0  0  0  0  0
   26.2143  -21.5061  -18.4298 C   0  0  0  0  0  0  0  0  0  0  0  0
   25.6371  -20.7510  -19.5983 C   0  0  0  0  0  0  0  0  0  0  0  0
   26.6091  -20.9051  -20.7508 C   0  0  0  0  0  0  0  0  0  0  0  0
   26.0364  -20.2640  -21.9170 N   0  0  0  0  0  0  0  0  0  0  0  0
   24.9307  -22.1060  -14.9179 C   0  0  0  0  0  0  0  0  0  0  0  0
   23.7759  -22.5235  -15.0931 O   0  0  0  0  0  0  0  0  0  0  0  0
   29.4315  -21.2435  -11.9400 N   0  0  0  0  0  0  0  0  0  0  0  0
   29.2810  -21.1486  -10.5279 C   0  0  0  0  0  0  0  0  0  0  0  0
   30.0633  -21.7614   -9.7253 N   0  0  0  0  0  0  0  0  0  0  0  0
   28.2390  -20.3558   -9.9803 N   0  0  0  0  0  0  0  0  0  0  0  0
   26.9071  -20.8952   -9.9325 C   0  0  0  0  0  0  0  0  0  0  0  0
   26.3324  -20.8426  -11.3399 C   0  0  0  0  0  0  0  0  0  0  0  0
   24.9871  -21.5026  -11.2751 C   0  0  0  0  0  0  0  0  0  0  0  0
   24.2500  -21.5734  -12.5884 C   0  0  2  0  0  0  0  0  0  0  0  0
   25.2824  -21.6544  -13.6161 N   0  0  0  0  0  0  0  0  0  0  0  0
   23.4247  -20.3617  -12.7527 C   0  0  0  0  0  0  0  0  0  0  0  0
   23.8223  -19.2587  -13.1930 O   0  0  0  0  0  0  0  0  0  0  0  0
   30.0585  -21.7415   -8.7017 N   0  0  0  0  0  0  0  0  0  0  0  0
   21.3317  -21.1491  -17.1501 C   0  0  0  0  0  0  0  0  0  0  0  0
   20.3284  -20.1393  -16.9299 O   0  0  0  0  0  0  0  0  0  0  0  0
   19.6062  -19.7584  -17.8827 C   0  0  0  0  0  0  0  0  0  0  0  0
   20.2110  -19.6056  -15.5745 C   0  0  0  0  0  0  0  0  0  0  0  0
   21.1515  -20.2174  -14.6063 C   0  0  2  0  0  0  0  0  0  0  0  0
   21.0386  -19.7588  -13.1888 N   0  0  0  0  0  0  0  0  0  0  0  0
   22.0530  -20.4319  -12.3837 C   0  0  0  0  0  0  0  0  0  0  0  0
   19.6886  -19.9998  -12.6209 O   0  0  0  0  0  0  0  0  0  0  0  0
   18.6075  -19.1730  -12.8708 O   0  0  0  0  0  0  0  0  0  0  0  0
  2  3  1  0
  2  1  1  6
  3  4  1  0
  4  5  1  0
  5  6  1  0
  6  7  1  0
  8  9  2  0
  8  2  1  0
 10 11  1  0
 11 13  1  0
 11 12  2  0
 13 14  1  0
 15 16  1  0
 15 14  1  0
 17 16  1  1
 17 18  1  0
 18  8  1  0
 19 17  1  0
 19 27  1  0
 20 19  2  0
 22 21  1  0
 22 24  1  0
 23 22  2  0
 26 25  1  6
 25 24  1  0
 26 27  1  0
 26 28  1  0
 28 30  2  0
 28 29  1  0
M  END
$$$$
