KRQ.pdb
     RDKit          3D

 30 29  0  0  1  0  0  0  0  0999 V2000
   23.0627  -25.5083  -15.6253 N   0  0  0  0  0  0  0  0  0  0  0  0
   23.1230  -24.1889  -15.0283 C   0  0  1  0  0  0  0  0  0  0  0  0
   23.6670  -23.2002  -16.0145 C   0  0  0  0  0  0  0  0  0  0  0  0
   23.7031  -21.7928  -15.4629 C   0  0  0  0  0  0  0  0  0  0  0  0
   24.2761  -20.8080  -16.4481 C   0  0  0  0  0  0  0  0  0  0  0  0
   24.2958  -19.4558  -15.7643 C   0  0  0  0  0  0  0  0  0  0  0  0
   24.6800  -18.4578  -16.7419 N   0  0  0  0  0  0  0  0  0  0  0  0
   21.7554  -23.7357  -14.6341 C   0  0  0  0  0  0  0  0  0  0  0  0
   20.8316  -23.5735  -15.4457 O   0  0  0  0  0  0  0  0  0  0  0  0
   18.1904  -26.2568   -7.7913 N   0  0  0  0  0  0  0  0  0  0  0  0
   17.8667  -24.8726   -7.7222 C   0  0  0  0  0  0  0  0  0  0  0  0
   17.3713  -24.3493   -6.6675 N   0  0  0  0  0  0  0  0  0  0  0  0
   18.0944  -24.0370   -8.8466 N   0  0  0  0  0  0  0  0  0  0  0  0
   18.0493  -24.6148  -10.1624 C   0  0  0  0  0  0  0  0  0  0  0  0
   18.3787  -23.5185  -11.1642 C   0  0  0  0  0  0  0  0  0  0  0  0
   19.7338  -23.8426  -11.7194 C   0  0  0  0  0  0  0  0  0  0  0  0
   20.1690  -22.9805  -12.8772 C   0  0  2  0  0  0  0  0  0  0  0  0
   21.4871  -23.4737  -13.2624 N   0  0  0  0  0  0  0  0  0  0  0  0
   20.2302  -21.5719  -12.4430 C   0  0  0  0  0  0  0  0  0  0  0  0
   21.2037  -21.0203  -11.8805 O   0  0  0  0  0  0  0  0  0  0  0  0
   17.1106  -23.3717   -6.5112 N   0  0  0  0  0  0  0  0  0  0  0  0
   21.4570  -19.2312  -16.6576 C   0  0  0  0  0  0  0  0  0  0  0  0
   21.1629  -17.9461  -16.0769 O   0  0  0  0  0  0  0  0  0  0  0  0
   21.5576  -16.8991  -16.6448 C   0  0  0  0  0  0  0  0  0  0  0  0
   20.4035  -17.9409  -14.8283 C   0  0  0  0  0  0  0  0  0  0  0  0
   20.0753  -19.2942  -14.3210 C   0  0  2  0  0  0  0  0  0  0  0  0
   19.2592  -19.3561  -13.0711 N   0  0  0  0  0  0  0  0  0  0  0  0
   19.0923  -20.7509  -12.6748 C   0  0  0  0  0  0  0  0  0  0  0  0
   17.9348  -18.7040  -13.2259 O   0  0  0  0  0  0  0  0  0  0  0  0
   16.7728  -19.4101  -13.4829 O   0  0  0  0  0  0  0  0  0  0  0  0
  2  3  1  0
  2  1  1  6
  3  4  1  0
  4  5  1  0
  5  6  1  0
  6  7  1  0
  8  9  2  0
  8  2  1  0
 10 11  1  0
 11 13  1  0
 11 12  2  0
 13 14  1  0
 15 16  1  0
 15 14  1  0
 17 16  1  1
 17 18  1  0
 18  8  1  0
 19 17  1  0
 19 27  1  0
 20 19  2  0
 22 21  1  0
 22 24  1  0
 23 22  2  0
 26 25  1  1
 25 24  1  0
 26 27  1  0
 26 28  1  0
 28 30  2  0
 28 29  1  0
M  END
$$$$
