KRQ.pdb
     RDKit          3D

 30 29  0  0  1  0  0  0  0  0999 V2000
   23.9500  -14.2304  -16.5754 N   0  0  0  0  0  0  0  0  0  0  0  0
   23.2557  -15.1685  -17.4348 C   0  0  1  0  0  0  0  0  0  0  0  0
   23.6737  -14.9698  -18.8603 C   0  0  0  0  0  0  0  0  0  0  0  0
   23.9670  -13.5214  -19.1807 C   0  0  0  0  0  0  0  0  0  0  0  0
   22.9041  -12.9025  -20.0502 C   0  0  0  0  0  0  0  0  0  0  0  0
   23.3301  -11.4741  -20.3238 C   0  0  0  0  0  0  0  0  0  0  0  0
   22.3109  -10.8441  -21.1382 N   0  0  0  0  0  0  0  0  0  0  0  0
   23.5946  -16.5716  -17.0508 C   0  0  0  0  0  0  0  0  0  0  0  0
   23.1464  -17.5663  -17.6408 O   0  0  0  0  0  0  0  0  0  0  0  0
   28.3081  -21.9405  -16.0358 N   0  0  0  0  0  0  0  0  0  0  0  0
   27.2455  -21.5696  -15.1647 C   0  0  0  0  0  0  0  0  0  0  0  0
   26.5139  -22.4424  -14.5864 N   0  0  0  0  0  0  0  0  0  0  0  0
   26.9784  -20.1972  -14.9208 N   0  0  0  0  0  0  0  0  0  0  0  0
   27.7459  -19.2044  -15.6227 C   0  0  0  0  0  0  0  0  0  0  0  0
   27.2327  -17.8356  -15.2020 C   0  0  0  0  0  0  0  0  0  0  0  0
   25.8971  -18.0614  -14.5580 C   0  0  0  0  0  0  0  0  0  0  0  0
   24.7373  -18.1572  -15.5166 C   0  0  2  0  0  0  0  0  0  0  0  0
   24.4744  -16.7907  -15.9552 N   0  0  0  0  0  0  0  0  0  0  0  0
   23.5706  -18.7292  -14.8180 C   0  0  0  0  0  0  0  0  0  0  0  0
   22.7800  -18.1012  -14.0770 O   0  0  0  0  0  0  0  0  0  0  0  0
   25.7299  -22.2847  -13.9471 N   0  0  0  0  0  0  0  0  0  0  0  0
   18.8420  -19.1687  -16.9671 C   0  0  0  0  0  0  0  0  0  0  0  0
   18.7096  -18.9389  -15.5513 O   0  0  0  0  0  0  0  0  0  0  0  0
   17.7009  -18.3387  -15.1076 C   0  0  0  0  0  0  0  0  0  0  0  0
   19.7876  -19.4312  -14.6960 C   0  0  0  0  0  0  0  0  0  0  0  0
   20.9423  -19.9815  -15.4445 C   0  0  2  0  0  0  0  0  0  0  0  0
   21.9968  -20.6622  -14.6340 N   0  0  0  0  0  0  0  0  0  0  0  0
   23.3028  -20.1156  -14.9885 C   0  0  0  0  0  0  0  0  0  0  0  0
   21.9896  -22.1352  -14.8168 O   0  0  0  0  0  0  0  0  0  0  0  0
   23.0084  -22.8202  -15.4555 O   0  0  0  0  0  0  0  0  0  0  0  0
  2  3  1  0
  2  1  1  1
  3  4  1  0
  4  5  1  0
  5  6  1  0
  6  7  1  0
  8  9  2  0
  8  2  1  0
 10 11  1  0
 11 13  1  0
 11 12  2  0
 13 14  1  0
 15 16  1  0
 15 14  1  0
 17 16  1  1
 17 18  1  0
 18  8  1  0
 19 17  1  0
 19 27  1  0
 20 19  2  0
 22 21  1  0
 22 24  1  0
 23 22  2  0
 26 25  1  1
 25 24  1  0
 26 27  1  0
 26 28  1  0
 28 30  2  0
 28 29  1  0
M  END
$$$$
