KRQ.pdb
     RDKit          3D

 30 29  0  0  1  0  0  0  0  0999 V2000
   21.5788  -28.3646  -13.3277 N   0  0  0  0  0  0  0  0  0  0  0  0
   21.7225  -27.5429  -14.5130 C   0  0  1  0  0  0  0  0  0  0  0  0
   20.4080  -27.4272  -15.2236 C   0  0  0  0  0  0  0  0  0  0  0  0
   19.2295  -27.6028  -14.2925 C   0  0  0  0  0  0  0  0  0  0  0  0
   17.9115  -27.4354  -15.0022 C   0  0  0  0  0  0  0  0  0  0  0  0
   16.8313  -27.4375  -13.9393 C   0  0  0  0  0  0  0  0  0  0  0  0
   15.5562  -27.2053  -14.5869 N   0  0  0  0  0  0  0  0  0  0  0  0
   22.1619  -26.1654  -14.1383 C   0  0  0  0  0  0  0  0  0  0  0  0
   21.5462  -25.4494  -13.3341 O   0  0  0  0  0  0  0  0  0  0  0  0
   29.4802  -23.3047  -16.9149 N   0  0  0  0  0  0  0  0  0  0  0  0
   28.2008  -23.4858  -17.5115 C   0  0  0  0  0  0  0  0  0  0  0  0
   28.0710  -23.7988  -18.7430 N   0  0  0  0  0  0  0  0  0  0  0  0
   27.0273  -23.3182  -16.7309 N   0  0  0  0  0  0  0  0  0  0  0  0
   27.1530  -22.8386  -15.3813 C   0  0  0  0  0  0  0  0  0  0  0  0
   25.7574  -22.7670  -14.7805 C   0  0  0  0  0  0  0  0  0  0  0  0
   25.1369  -24.1174  -14.9835 C   0  0  0  0  0  0  0  0  0  0  0  0
   23.7602  -24.2798  -14.3908 C   0  0  2  0  0  0  0  0  0  0  0  0
   23.3440  -25.6374  -14.7265 N   0  0  0  0  0  0  0  0  0  0  0  0
   22.8514  -23.2795  -14.9823 C   0  0  0  0  0  0  0  0  0  0  0  0
   22.3497  -23.3325  -16.1286 O   0  0  0  0  0  0  0  0  0  0  0  0
   27.2067  -23.9889  -19.2577 N   0  0  0  0  0  0  0  0  0  0  0  0
   17.7443  -21.6259  -13.2788 C   0  0  0  0  0  0  0  0  0  0  0  0
   17.9406  -20.4431  -14.0771 O   0  0  0  0  0  0  0  0  0  0  0  0
   16.9827  -19.6571  -14.2749 C   0  0  0  0  0  0  0  0  0  0  0  0
   19.2788  -20.2261  -14.6231 C   0  0  0  0  0  0  0  0  0  0  0  0
   20.2814  -21.2154  -14.1622 C   0  0  2  0  0  0  0  0  0  0  0  0
   21.6493  -21.1002  -14.7520 N   0  0  0  0  0  0  0  0  0  0  0  0
   22.5018  -22.1467  -14.1966 C   0  0  0  0  0  0  0  0  0  0  0  0
   22.2563  -19.7658  -14.5195 O   0  0  0  0  0  0  0  0  0  0  0  0
   21.9789  -18.6639  -15.3094 O   0  0  0  0  0  0  0  0  0  0  0  0
  2  3  1  0
  2  1  1  1
  3  4  1  0
  4  5  1  0
  5  6  1  0
  6  7  1  0
  8  9  2  0
  8  2  1  0
 10 11  1  0
 11 13  1  0
 11 12  2  0
 13 14  1  0
 15 16  1  0
 15 14  1  0
 17 16  1  6
 17 18  1  0
 18  8  1  0
 19 17  1  0
 19 27  1  0
 20 19  2  0
 22 21  1  0
 22 24  1  0
 23 22  2  0
 26 25  1  6
 25 24  1  0
 26 27  1  0
 26 28  1  0
 28 30  2  0
 28 29  1  0
M  END
$$$$
