KRQ.pdb
     RDKit          3D

 30 29  0  0  1  0  0  0  0  0999 V2000
   13.7598  -25.0282  -14.9421 N   0  0  0  0  0  0  0  0  0  0  0  0
   14.9868  -24.4759  -14.4034 C   0  0  1  0  0  0  0  0  0  0  0  0
   14.7547  -23.0763  -13.9204 C   0  0  0  0  0  0  0  0  0  0  0  0
   16.0330  -22.3935  -13.4890 C   0  0  0  0  0  0  0  0  0  0  0  0
   15.8105  -20.9533  -13.1082 C   0  0  0  0  0  0  0  0  0  0  0  0
   17.1762  -20.3397  -12.8738 C   0  0  0  0  0  0  0  0  0  0  0  0
   17.1645  -18.9901  -13.4007 N   0  0  0  0  0  0  0  0  0  0  0  0
   15.4542  -25.2887  -13.2407 C   0  0  0  0  0  0  0  0  0  0  0  0
   14.6954  -25.7066  -12.3531 O   0  0  0  0  0  0  0  0  0  0  0  0
   21.5974  -28.0863   -9.9122 N   0  0  0  0  0  0  0  0  0  0  0  0
   21.3957  -29.4670  -10.1923 C   0  0  0  0  0  0  0  0  0  0  0  0
   21.7812  -30.3802   -9.3866 N   0  0  0  0  0  0  0  0  0  0  0  0
   20.7503  -29.8570  -11.3947 N   0  0  0  0  0  0  0  0  0  0  0  0
   20.2375  -28.8383  -12.2701 C   0  0  0  0  0  0  0  0  0  0  0  0
   19.1276  -28.1053  -11.5321 C   0  0  0  0  0  0  0  0  0  0  0  0
   18.4848  -27.1897  -12.5313 C   0  0  0  0  0  0  0  0  0  0  0  0
   17.2959  -26.4197  -12.0148 C   0  0  2  0  0  0  0  0  0  0  0  0
   16.8365  -25.6057  -13.1352 N   0  0  0  0  0  0  0  0  0  0  0  0
   17.7140  -25.5782  -10.8776 C   0  0  0  0  0  0  0  0  0  0  0  0
   18.4367  -24.5578  -10.9479 O   0  0  0  0  0  0  0  0  0  0  0  0
   21.7529  -31.3945   -9.5228 N   0  0  0  0  0  0  0  0  0  0  0  0
   14.8662  -26.1477   -5.3415 C   0  0  0  0  0  0  0  0  0  0  0  0
   15.7260  -25.0300   -5.0472 O   0  0  0  0  0  0  0  0  0  0  0  0
   15.6577  -24.4675   -3.9276 C   0  0  0  0  0  0  0  0  0  0  0  0
   16.6486  -24.6081   -6.0991 C   0  0  0  0  0  0  0  0  0  0  0  0
   16.5532  -25.4149   -7.3386 C   0  0  1  0  0  0  0  0  0  0  0  0
   17.4848  -25.0448   -8.4465 N   0  0  0  0  0  0  0  0  0  0  0  0
   17.2670  -25.9416   -9.5772 C   0  0  0  0  0  0  0  0  0  0  0  0
   18.9080  -25.0831   -8.0270 O   0  0  0  0  0  0  0  0  0  0  0  0
   19.7551  -26.1342   -8.3314 O   0  0  0  0  0  0  0  0  0  0  0  0
  2  3  1  0
  2  1  1  1
  3  4  1  0
  4  5  1  0
  5  6  1  0
  6  7  1  0
  8  9  2  0
  8  2  1  0
 10 11  1  0
 11 13  1  0
 11 12  2  0
 13 14  1  0
 15 16  1  0
 15 14  1  0
 17 16  1  6
 17 18  1  0
 18  8  1  0
 19 17  1  0
 19 27  1  0
 20 19  2  0
 22 21  1  0
 22 24  1  0
 23 22  2  0
 26 25  1  6
 25 24  1  0
 26 27  1  0
 26 28  1  0
 28 30  2  0
 28 29  1  0
M  END
$$$$
