KRQ.pdb
     RDKit          3D

 30 29  0  0  1  0  0  0  0  0999 V2000
   17.3644  -26.1573   -3.2079 N   0  0  0  0  0  0  0  0  0  0  0  0
   17.0738  -27.1422   -4.2308 C   0  0  1  0  0  0  0  0  0  0  0  0
   15.6862  -27.6791   -4.0513 C   0  0  0  0  0  0  0  0  0  0  0  0
   15.5991  -28.6963   -2.9358 C   0  0  0  0  0  0  0  0  0  0  0  0
   14.2394  -29.3394   -2.8546 C   0  0  0  0  0  0  0  0  0  0  0  0
   14.2888  -30.3406   -1.7180 C   0  0  0  0  0  0  0  0  0  0  0  0
   12.9927  -30.9806   -1.6197 N   0  0  0  0  0  0  0  0  0  0  0  0
   17.1509  -26.5195   -5.5862 C   0  0  0  0  0  0  0  0  0  0  0  0
   17.0494  -25.2989   -5.7817 O   0  0  0  0  0  0  0  0  0  0  0  0
   19.5388  -29.6981  -12.2865 N   0  0  0  0  0  0  0  0  0  0  0  0
   20.2495  -28.4903  -12.5352 C   0  0  0  0  0  0  0  0  0  0  0  0
   20.5076  -28.0938  -13.7216 N   0  0  0  0  0  0  0  0  0  0  0  0
   20.6900  -27.6931  -11.4468 N   0  0  0  0  0  0  0  0  0  0  0  0
   20.4275  -28.1412  -10.1061 C   0  0  0  0  0  0  0  0  0  0  0  0
   19.6638  -27.0391   -9.3877 C   0  0  0  0  0  0  0  0  0  0  0  0
   18.4524  -27.6850   -8.7836 C   0  0  0  0  0  0  0  0  0  0  0  0
   17.5426  -26.7490   -8.0292 C   0  0  2  0  0  0  0  0  0  0  0  0
   17.3503  -27.3581   -6.7173 N   0  0  0  0  0  0  0  0  0  0  0  0
   16.2634  -26.6206   -8.7526 C   0  0  0  0  0  0  0  0  0  0  0  0
   15.3163  -27.4393   -8.7172 O   0  0  0  0  0  0  0  0  0  0  0  0
   21.0568  -27.2787  -14.0087 N   0  0  0  0  0  0  0  0  0  0  0  0
   12.1108  -22.2623   -9.8786 C   0  0  0  0  0  0  0  0  0  0  0  0
   13.4401  -21.7943  -10.1766 O   0  0  0  0  0  0  0  0  0  0  0  0
   13.6271  -20.5880  -10.4669 C   0  0  0  0  0  0  0  0  0  0  0  0
   14.5178  -22.7799  -10.1221 C   0  0  0  0  0  0  0  0  0  0  0  0
   14.0738  -24.1306   -9.7038 C   0  0  1  0  0  0  0  0  0  0  0  0
   14.8153  -25.2865  -10.2923 N   0  0  0  0  0  0  0  0  0  0  0  0
   16.0690  -25.4718   -9.5683 C   0  0  0  0  0  0  0  0  0  0  0  0
   15.0804  -25.1110  -11.7421 O   0  0  0  0  0  0  0  0  0  0  0  0
   16.3552  -24.9814  -12.2647 O   0  0  0  0  0  0  0  0  0  0  0  0
  2  3  1  0
  2  1  1  1
  3  4  1  0
  4  5  1  0
  5  6  1  0
  6  7  1  0
  8  9  2  0
  8  2  1  0
 10 11  1  0
 11 13  1  0
 11 12  2  0
 13 14  1  0
 15 16  1  0
 15 14  1  0
 17 16  1  6
 17 18  1  0
 18  8  1  0
 19 17  1  0
 19 27  1  0
 20 19  2  0
 22 21  1  0
 22 24  1  0
 23 22  2  0
 26 25  1  1
 25 24  1  0
 26 27  1  0
 26 28  1  0
 28 30  2  0
 28 29  1  0
M  END
$$$$
