KRQ.pdb
     RDKit          3D

 30 29  0  0  1  0  0  0  0  0999 V2000
   26.1855  -22.0243  -15.8308 N   0  0  0  0  0  0  0  0  0  0  0  0
   25.5302  -22.1220  -17.1200 C   0  0  1  0  0  0  0  0  0  0  0  0
   26.1917  -23.1743  -17.9571 C   0  0  0  0  0  0  0  0  0  0  0  0
   27.4466  -23.7209  -17.3143 C   0  0  0  0  0  0  0  0  0  0  0  0
   28.1107  -24.7734  -18.1629 C   0  0  0  0  0  0  0  0  0  0  0  0
   29.3399  -25.2407  -17.4098 C   0  0  0  0  0  0  0  0  0  0  0  0
   29.9034  -26.3725  -18.1174 N   0  0  0  0  0  0  0  0  0  0  0  0
   24.0986  -22.5105  -16.9452 C   0  0  0  0  0  0  0  0  0  0  0  0
   23.3203  -22.6875  -17.8946 O   0  0  0  0  0  0  0  0  0  0  0  0
   20.6297  -27.6683  -11.0764 N   0  0  0  0  0  0  0  0  0  0  0  0
   19.4609  -27.0967  -11.6532 C   0  0  0  0  0  0  0  0  0  0  0  0
   18.2889  -27.4555  -11.2937 N   0  0  0  0  0  0  0  0  0  0  0  0
   19.5832  -26.0996  -12.6558 N   0  0  0  0  0  0  0  0  0  0  0  0
   20.8956  -25.6442  -13.0266 C   0  0  0  0  0  0  0  0  0  0  0  0
   20.7302  -24.5247  -14.0432 C   0  0  0  0  0  0  0  0  0  0  0  0
   22.1130  -24.0653  -14.3988 C   0  0  0  0  0  0  0  0  0  0  0  0
   22.1733  -22.9837  -15.4474 C   0  0  2  0  0  0  0  0  0  0  0  0
   23.5908  -22.6891  -15.6289 N   0  0  0  0  0  0  0  0  0  0  0  0
   21.4368  -21.7978  -14.9705 C   0  0  0  0  0  0  0  0  0  0  0  0
   21.7377  -21.0996  -13.9753 O   0  0  0  0  0  0  0  0  0  0  0  0
   17.3898  -27.1342  -11.6634 N   0  0  0  0  0  0  0  0  0  0  0  0
   17.3014  -18.6853  -18.4101 C   0  0  0  0  0  0  0  0  0  0  0  0
   16.9687  -18.1363  -17.1206 O   0  0  0  0  0  0  0  0  0  0  0  0
   16.0572  -17.2795  -17.0229 C   0  0  0  0  0  0  0  0  0  0  0  0
   17.7345  -18.6233  -15.9750 C   0  0  0  0  0  0  0  0  0  0  0  0
   18.7466  -19.6484  -16.3231 C   0  0  1  0  0  0  0  0  0  0  0  0
   19.4262  -20.3275  -15.1789 N   0  0  0  0  0  0  0  0  0  0  0  0
   20.2788  -21.3953  -15.6917 C   0  0  0  0  0  0  0  0  0  0  0  0
   18.4629  -20.8700  -14.1885 O   0  0  0  0  0  0  0  0  0  0  0  0
   17.9950  -20.1361  -13.1126 O   0  0  0  0  0  0  0  0  0  0  0  0
  2  3  1  0
  2  1  1  1
  3  4  1  0
  4  5  1  0
  5  6  1  0
  6  7  1  0
  8  9  2  0
  8  2  1  0
 10 11  1  0
 11 13  1  0
 11 12  2  0
 13 14  1  0
 15 16  1  0
 15 14  1  0
 17 16  1  1
 17 18  1  0
 18  8  1  0
 19 17  1  0
 19 27  1  0
 20 19  2  0
 22 21  1  0
 22 24  1  0
 23 22  2  0
 26 25  1  6
 25 24  1  0
 26 27  1  0
 26 28  1  0
 28 30  2  0
 28 29  1  0
M  END
$$$$
