KRQ.pdb
     RDKit          3D

 30 29  0  0  1  0  0  0  0  0999 V2000
   27.4499  -23.3041  -16.9590 N   0  0  0  0  0  0  0  0  0  0  0  0
   27.4402  -22.0102  -16.3058 C   0  0  1  0  0  0  0  0  0  0  0  0
   26.6181  -21.0386  -17.0970 C   0  0  0  0  0  0  0  0  0  0  0  0
   27.2545  -20.6871  -18.4229 C   0  0  0  0  0  0  0  0  0  0  0  0
   28.3481  -19.6617  -18.2771 C   0  0  0  0  0  0  0  0  0  0  0  0
   28.8873  -19.3866  -19.6664 C   0  0  0  0  0  0  0  0  0  0  0  0
   29.9834  -18.4463  -19.5506 N   0  0  0  0  0  0  0  0  0  0  0  0
   26.8329  -22.1211  -14.9457 C   0  0  0  0  0  0  0  0  0  0  0  0
   25.8964  -22.8893  -14.6787 O   0  0  0  0  0  0  0  0  0  0  0  0
   32.3246  -22.4854   -9.1612 N   0  0  0  0  0  0  0  0  0  0  0  0
   31.9959  -22.4263  -10.5447 C   0  0  0  0  0  0  0  0  0  0  0  0
   32.5983  -23.1465  -11.4106 N   0  0  0  0  0  0  0  0  0  0  0  0
   30.9735  -21.5489  -10.9909 N   0  0  0  0  0  0  0  0  0  0  0  0
   29.7047  -21.5593  -10.3147 C   0  0  0  0  0  0  0  0  0  0  0  0
   28.6669  -22.1120  -11.2798 C   0  0  0  0  0  0  0  0  0  0  0  0
   27.7267  -20.9840  -11.5853 C   0  0  0  0  0  0  0  0  0  0  0  0
   26.6636  -21.3015  -12.6062 C   0  0  2  0  0  0  0  0  0  0  0  0
   27.3457  -21.3102  -13.8960 N   0  0  0  0  0  0  0  0  0  0  0  0
   25.6162  -20.2637  -12.5614 C   0  0  0  0  0  0  0  0  0  0  0  0
   25.6591  -19.1539  -13.1402 O   0  0  0  0  0  0  0  0  0  0  0  0
   32.4601  -23.1610  -12.4250 N   0  0  0  0  0  0  0  0  0  0  0  0
   22.8405  -18.5367  -15.5423 C   0  0  0  0  0  0  0  0  0  0  0  0
   21.5374  -18.9622  -15.0998 O   0  0  0  0  0  0  0  0  0  0  0  0
   20.5092  -18.4265  -15.5798 C   0  0  0  0  0  0  0  0  0  0  0  0
   21.4918  -20.0190  -14.0914 C   0  0  0  0  0  0  0  0  0  0  0  0
   22.8242  -20.4117  -13.5746 C   0  0  1  0  0  0  0  0  0  0  0  0
   23.1635  -19.9533  -12.1936 N   0  0  0  0  0  0  0  0  0  0  0  0
   24.4455  -20.5278  -11.7981 C   0  0  0  0  0  0  0  0  0  0  0  0
   22.1147  -20.3079  -11.2050 O   0  0  0  0  0  0  0  0  0  0  0  0
   20.9796  -19.5424  -11.0035 O   0  0  0  0  0  0  0  0  0  0  0  0
  2  3  1  0
  2  1  1  6
  3  4  1  0
  4  5  1  0
  5  6  1  0
  6  7  1  0
  8  9  2  0
  8  2  1  0
 10 11  1  0
 11 13  1  0
 11 12  2  0
 13 14  1  0
 15 16  1  0
 15 14  1  0
 17 16  1  1
 17 18  1  0
 18  8  1  0
 19 17  1  0
 19 27  1  0
 20 19  2  0
 22 21  1  0
 22 24  1  0
 23 22  2  0
 26 25  1  6
 25 24  1  0
 26 27  1  0
 26 28  1  0
 28 30  2  0
 28 29  1  0
M  END
$$$$
