KRQ.pdb
     RDKit          3D

 30 29  0  0  1  0  0  0  0  0999 V2000
   27.6411  -18.4006  -19.1216 N   0  0  0  0  0  0  0  0  0  0  0  0
   26.8811  -19.6036  -19.3972 C   0  0  1  0  0  0  0  0  0  0  0  0
   27.7895  -20.7954  -19.4157 C   0  0  0  0  0  0  0  0  0  0  0  0
   29.0919  -20.5416  -18.6906 C   0  0  0  0  0  0  0  0  0  0  0  0
   29.4567  -21.6690  -17.7607 C   0  0  0  0  0  0  0  0  0  0  0  0
   30.1017  -22.7499  -18.6047 C   0  0  0  0  0  0  0  0  0  0  0  0
   30.5357  -23.8154  -17.7242 N   0  0  0  0  0  0  0  0  0  0  0  0
   25.8581  -19.8255  -18.3317 C   0  0  0  0  0  0  0  0  0  0  0  0
   25.0766  -20.7887  -18.3281 O   0  0  0  0  0  0  0  0  0  0  0  0
   24.2922  -20.6890  -10.1367 N   0  0  0  0  0  0  0  0  0  0  0  0
   25.3845  -21.4442  -10.6486 C   0  0  0  0  0  0  0  0  0  0  0  0
   26.1044  -22.1820   -9.8944 N   0  0  0  0  0  0  0  0  0  0  0  0
   25.6956  -21.3875  -12.0322 N   0  0  0  0  0  0  0  0  0  0  0  0
   25.4279  -20.1741  -12.7556 C   0  0  0  0  0  0  0  0  0  0  0  0
   25.8011  -20.4077  -14.2116 C   0  0  0  0  0  0  0  0  0  0  0  0
   25.6340  -19.0910  -14.9102 C   0  0  0  0  0  0  0  0  0  0  0  0
   24.8214  -19.1434  -16.1791 C   0  0  2  0  0  0  0  0  0  0  0  0
   25.7658  -18.8923  -17.2627 N   0  0  0  0  0  0  0  0  0  0  0  0
   23.7726  -18.1070  -16.1320 C   0  0  0  0  0  0  0  0  0  0  0  0
   23.9633  -16.8696  -16.1630 O   0  0  0  0  0  0  0  0  0  0  0  0
   26.9068  -22.7606  -10.1582 N   0  0  0  0  0  0  0  0  0  0  0  0
   22.1845  -16.8552  -20.6130 C   0  0  0  0  0  0  0  0  0  0  0  0
   20.9323  -16.3338  -20.1281 O   0  0  0  0  0  0  0  0  0  0  0  0
   20.1888  -15.6784  -20.8976 C   0  0  0  0  0  0  0  0  0  0  0  0
   20.5965  -16.6068  -18.7322 C   0  0  0  0  0  0  0  0  0  0  0  0
   21.6351  -17.3743  -18.0052 C   0  0  1  0  0  0  0  0  0  0  0  0
   21.3478  -17.6914  -16.5737 N   0  0  0  0  0  0  0  0  0  0  0  0
   22.4177  -18.5305  -16.0434 C   0  0  0  0  0  0  0  0  0  0  0  0
   20.0343  -18.3586  -16.3934 O   0  0  0  0  0  0  0  0  0  0  0  0
   19.9050  -19.6511  -15.9161 O   0  0  0  0  0  0  0  0  0  0  0  0
  2  3  1  0
  2  1  1  1
  3  4  1  0
  4  5  1  0
  5  6  1  0
  6  7  1  0
  8  9  2  0
  8  2  1  0
 10 11  1  0
 11 13  1  0
 11 12  2  0
 13 14  1  0
 15 16  1  0
 15 14  1  0
 17 16  1  1
 17 18  1  0
 18  8  1  0
 19 17  1  0
 19 27  1  0
 20 19  2  0
 22 21  1  0
 22 24  1  0
 23 22  2  0
 26 25  1  1
 25 24  1  0
 26 27  1  0
 26 28  1  0
 28 30  2  0
 28 29  1  0
M  END
$$$$
