KRQ.pdb
     RDKit          3D

 30 29  0  0  1  0  0  0  0  0999 V2000
   26.6713  -22.1254  -15.5598 N   0  0  0  0  0  0  0  0  0  0  0  0
   26.3175  -20.9323  -14.8168 C   0  0  1  0  0  0  0  0  0  0  0  0
   26.2150  -19.7586  -15.7431 C   0  0  0  0  0  0  0  0  0  0  0  0
   27.5553  -19.3527  -16.3134 C   0  0  0  0  0  0  0  0  0  0  0  0
   27.8415  -20.0231  -17.6315 C   0  0  0  0  0  0  0  0  0  0  0  0
   29.1147  -19.4073  -18.1759 C   0  0  0  0  0  0  0  0  0  0  0  0
   29.4273  -20.0497  -19.4363 N   0  0  0  0  0  0  0  0  0  0  0  0
   24.9903  -21.1089  -14.1547 C   0  0  0  0  0  0  0  0  0  0  0  0
   24.1006  -21.8498  -14.5995 O   0  0  0  0  0  0  0  0  0  0  0  0
   21.2498  -20.2229   -8.6793 N   0  0  0  0  0  0  0  0  0  0  0  0
   21.9492  -21.1783   -7.8896 C   0  0  0  0  0  0  0  0  0  0  0  0
   21.3550  -22.1767   -7.3587 N   0  0  0  0  0  0  0  0  0  0  0  0
   23.3448  -21.0327   -7.6764 N   0  0  0  0  0  0  0  0  0  0  0  0
   24.1112  -20.2462   -8.6045 C   0  0  0  0  0  0  0  0  0  0  0  0
   24.0872  -20.9574   -9.9489 C   0  0  0  0  0  0  0  0  0  0  0  0
   23.5521  -19.9700  -10.9431 C   0  0  0  0  0  0  0  0  0  0  0  0
   23.3989  -20.5003  -12.3461 C   0  0  2  0  0  0  0  0  0  0  0  0
   24.7216  -20.3969  -12.9534 N   0  0  0  0  0  0  0  0  0  0  0  0
   22.4102  -19.6821  -13.0736 C   0  0  0  0  0  0  0  0  0  0  0  0
   22.5115  -18.4585  -13.3208 O   0  0  0  0  0  0  0  0  0  0  0  0
   21.7549  -22.9008   -6.7555 N   0  0  0  0  0  0  0  0  0  0  0  0
   19.1540  -21.7163  -17.7048 C   0  0  0  0  0  0  0  0  0  0  0  0
   18.4164  -22.0634  -16.5172 O   0  0  0  0  0  0  0  0  0  0  0  0
   17.5143  -22.9337  -16.5743 C   0  0  0  0  0  0  0  0  0  0  0  0
   18.7730  -21.3610  -15.2862 C   0  0  0  0  0  0  0  0  0  0  0  0
   19.7912  -20.3008  -15.4749 C   0  0  1  0  0  0  0  0  0  0  0  0
   20.2086  -19.5540  -14.2500 N   0  0  0  0  0  0  0  0  0  0  0  0
   21.2300  -20.3213  -13.5442 C   0  0  0  0  0  0  0  0  0  0  0  0
   19.0674  -19.2643  -13.3463 O   0  0  0  0  0  0  0  0  0  0  0  0
   18.8560  -19.9424  -12.1586 O   0  0  0  0  0  0  0  0  0  0  0  0
  2  3  1  0
  2  1  1  6
  3  4  1  0
  4  5  1  0
  5  6  1  0
  6  7  1  0
  8  9  2  0
  8  2  1  0
 10 11  1  0
 11 13  1  0
 11 12  2  0
 13 14  1  0
 15 16  1  0
 15 14  1  0
 17 16  1  1
 17 18  1  0
 18  8  1  0
 19 17  1  0
 19 27  1  0
 20 19  2  0
 22 21  1  0
 22 24  1  0
 23 22  2  0
 26 25  1  6
 25 24  1  0
 26 27  1  0
 26 28  1  0
 28 30  2  0
 28 29  1  0
M  END
$$$$
