KRQ.pdb
     RDKit          3D

 30 29  0  0  1  0  0  0  0  0999 V2000
   30.1567  -23.6605  -16.5790 N   0  0  0  0  0  0  0  0  0  0  0  0
   28.8173  -23.4862  -17.1047 C   0  0  1  0  0  0  0  0  0  0  0  0
   28.0415  -24.7619  -16.9750 C   0  0  0  0  0  0  0  0  0  0  0  0
   28.0591  -25.5815  -18.2456 C   0  0  0  0  0  0  0  0  0  0  0  0
   29.3260  -26.3833  -18.3902 C   0  0  0  0  0  0  0  0  0  0  0  0
   29.2255  -27.1404  -19.6992 C   0  0  0  0  0  0  0  0  0  0  0  0
   30.4236  -27.9402  -19.8546 N   0  0  0  0  0  0  0  0  0  0  0  0
   28.0923  -22.4305  -16.3359 C   0  0  0  0  0  0  0  0  0  0  0  0
   28.2996  -22.1992  -15.1351 O   0  0  0  0  0  0  0  0  0  0  0  0
   21.3223  -18.6547  -18.2770 N   0  0  0  0  0  0  0  0  0  0  0  0
   21.7138  -17.4540  -17.6209 C   0  0  0  0  0  0  0  0  0  0  0  0
   20.8552  -16.6146  -17.1852 N   0  0  0  0  0  0  0  0  0  0  0  0
   23.0915  -17.1663  -17.4373 N   0  0  0  0  0  0  0  0  0  0  0  0
   24.0682  -18.0931  -17.9417 C   0  0  0  0  0  0  0  0  0  0  0  0
   24.7493  -18.7470  -16.7491 C   0  0  0  0  0  0  0  0  0  0  0  0
   25.6372  -19.8216  -17.3028 C   0  0  0  0  0  0  0  0  0  0  0  0
   26.4413  -20.5747  -16.2735 C   0  0  2  0  0  0  0  0  0  0  0  0
   27.1128  -21.6448  -17.0034 N   0  0  0  0  0  0  0  0  0  0  0  0
   25.5342  -21.1162  -15.2438 C   0  0  0  0  0  0  0  0  0  0  0  0
   24.7130  -22.0476  -15.4073 O   0  0  0  0  0  0  0  0  0  0  0  0
   21.0249  -15.7618  -16.6447 N   0  0  0  0  0  0  0  0  0  0  0  0
   26.4483  -19.9785   -9.1775 C   0  0  0  0  0  0  0  0  0  0  0  0
   25.2696  -20.8017   -9.0890 O   0  0  0  0  0  0  0  0  0  0  0  0
   24.8540  -21.1787   -7.9666 C   0  0  0  0  0  0  0  0  0  0  0  0
   24.6133  -21.1574  -10.3454 C   0  0  0  0  0  0  0  0  0  0  0  0
   25.3416  -20.6996  -11.5522 C   0  0  1  0  0  0  0  0  0  0  0  0
   24.7513  -21.0821  -12.8704 N   0  0  0  0  0  0  0  0  0  0  0  0
   25.5811  -20.5428  -13.9431 C   0  0  0  0  0  0  0  0  0  0  0  0
   23.3502  -20.6159  -13.0207 O   0  0  0  0  0  0  0  0  0  0  0  0
   22.2559  -21.4206  -12.7563 O   0  0  0  0  0  0  0  0  0  0  0  0
  2  3  1  0
  2  1  1  1
  3  4  1  0
  4  5  1  0
  5  6  1  0
  6  7  1  0
  8  9  2  0
  8  2  1  0
 10 11  1  0
 11 13  1  0
 11 12  2  0
 13 14  1  0
 15 16  1  0
 15 14  1  0
 17 16  1  6
 17 18  1  0
 18  8  1  0
 19 17  1  0
 19 27  1  0
 20 19  2  0
 22 21  1  0
 22 24  1  0
 23 22  2  0
 26 25  1  6
 25 24  1  0
 26 27  1  0
 26 28  1  0
 28 30  2  0
 28 29  1  0
M  END
$$$$
