WNG.pdb
     RDKit          3D

 27 28  0  0  1  0  0  0  0  0999 V2000
   27.7911  -21.8998  -10.7643 N   0  0  0  0  0  0  0  0  0  0  0  0
   26.7005  -21.1795  -10.0922 C   0  0  1  0  0  0  0  0  0  0  0  0
   27.3588  -19.9580   -9.4385 C   0  0  0  0  0  0  0  0  0  0  0  0
   28.2518  -20.4103   -8.3349 C   0  0  0  0  0  0  0  0  0  0  0  0
   29.4463  -21.0477   -8.4880 C   0  0  0  0  0  0  0  0  0  0  0  0
   29.9247  -21.2775   -7.2510 N   0  0  0  0  0  0  0  0  0  0  0  0
   29.0672  -20.8039   -6.3340 C   0  0  0  0  0  0  0  0  0  0  0  0
   29.0811  -20.7848   -4.9644 C   0  0  0  0  0  0  0  0  0  0  0  0
   28.0446  -20.2210   -4.2674 C   0  0  0  0  0  0  0  0  0  0  0  0
   26.9651  -19.6607   -4.9273 C   0  0  0  0  0  0  0  0  0  0  0  0
   26.9361  -19.6716   -6.2926 C   0  0  0  0  0  0  0  0  0  0  0  0
   27.9867  -20.2429   -6.9961 C   0  0  0  0  0  0  0  0  0  0  0  0
   25.7148  -20.6983  -11.1076 C   0  0  0  0  0  0  0  0  0  0  0  0
   26.0408  -19.7734  -11.8727 O   0  0  0  0  0  0  0  0  0  0  0  0
   25.5496  -22.6578  -14.4885 N   0  0  0  0  0  0  0  0  0  0  0  0
   24.6383  -21.5600  -14.2375 C   0  0  0  0  0  0  0  0  0  0  0  0
   24.9824  -20.4866  -14.7835 O   0  0  0  0  0  0  0  0  0  0  0  0
   23.4370  -21.7588  -13.4076 C   0  0  0  0  0  0  0  0  0  0  0  0
   23.4469  -20.8804  -12.2205 C   0  0  2  0  0  0  0  0  0  0  0  0
   24.4325  -21.2572  -11.2254 N   0  0  0  0  0  0  0  0  0  0  0  0
   22.1263  -20.8778  -11.5602 C   0  0  0  0  0  0  0  0  0  0  0  0
   21.6390  -21.7962  -10.8735 O   0  0  0  0  0  0  0  0  0  0  0  0
   21.2642  -19.7154  -11.6885 N   0  0  0  0  0  0  0  0  0  0  0  0
   19.9937  -19.6754  -11.0033 C   0  0  0  0  0  0  0  0  0  0  0  0
   18.9848  -20.5030  -11.6977 C   0  0  0  0  0  0  0  0  0  0  0  0
   17.6688  -20.6244  -11.3063 O   0  0  0  0  0  0  0  0  0  0  0  0
   19.3424  -21.1444  -12.7165 O   0  0  0  0  0  0  0  0  0  0  0  0
  2  1  1  6
  2 13  1  0
  3  2  1  0
  3  4  1  0
  4 12  1  0
  4  5  2  0
  5  6  1  0
  7  8  2  0
  7  6  1  0
  9  8  1  0
 10  9  2  0
 11 10  1  0
 11 12  2  0
 12  7  1  0
 13 20  1  0
 13 14  2  0
 15 16  1  0
 16 18  1  0
 17 16  2  0
 19 18  1  6
 19 21  1  0
 20 19  1  0
 21 22  2  0
 23 24  1  0
 23 21  1  0
 25 26  1  0
 25 24  1  0
 27 25  2  0
M  END
$$$$
