WNG.pdb
     RDKit          3D

 27 28  0  0  1  0  0  0  0  0999 V2000
   21.4523  -12.1298  -18.1048 N   0  0  0  0  0  0  0  0  0  0  0  0
   21.1206  -10.7896  -18.6087 C   0  0  1  0  0  0  0  0  0  0  0  0
   19.6691  -10.5393  -18.1807 C   0  0  0  0  0  0  0  0  0  0  0  0
   18.7489  -11.2137  -19.1391 C   0  0  0  0  0  0  0  0  0  0  0  0
   18.7612  -12.5388  -19.4560 C   0  0  0  0  0  0  0  0  0  0  0  0
   17.7757  -12.7326  -20.3522 N   0  0  0  0  0  0  0  0  0  0  0  0
   17.1511  -11.5717  -20.6028 C   0  0  0  0  0  0  0  0  0  0  0  0
   16.1054  -11.2312  -21.4193 C   0  0  0  0  0  0  0  0  0  0  0  0
   15.6645   -9.9350  -21.4789 C   0  0  0  0  0  0  0  0  0  0  0  0
   16.2624   -8.9447  -20.7197 C   0  0  0  0  0  0  0  0  0  0  0  0
   17.3061   -9.2678  -19.9004 C   0  0  0  0  0  0  0  0  0  0  0  0
   17.7506  -10.5808  -19.8416 C   0  0  0  0  0  0  0  0  0  0  0  0
   21.9913   -9.7727  -17.9439 C   0  0  0  0  0  0  0  0  0  0  0  0
   22.6447  -10.1037  -16.9386 O   0  0  0  0  0  0  0  0  0  0  0  0
   26.3457   -5.8673  -18.6105 N   0  0  0  0  0  0  0  0  0  0  0  0
   25.1189   -6.2906  -17.9666 C   0  0  0  0  0  0  0  0  0  0  0  0
   24.9297   -5.7596  -16.8482 O   0  0  0  0  0  0  0  0  0  0  0  0
   24.2236   -7.2588  -18.6241 C   0  0  0  0  0  0  0  0  0  0  0  0
   22.9684   -7.4372  -17.8667 C   0  0  2  0  0  0  0  0  0  0  0  0
   22.0952   -8.4555  -18.4182 N   0  0  0  0  0  0  0  0  0  0  0  0
   22.2038   -6.1752  -17.8159 C   0  0  0  0  0  0  0  0  0  0  0  0
   21.9136   -5.4448  -18.7829 O   0  0  0  0  0  0  0  0  0  0  0  0
   21.7148   -5.6854  -16.5385 N   0  0  0  0  0  0  0  0  0  0  0  0
   20.9666   -4.4521  -16.4728 C   0  0  0  0  0  0  0  0  0  0  0  0
   20.5718   -4.1389  -15.0831 C   0  0  0  0  0  0  0  0  0  0  0  0
   20.8412   -4.9397  -13.9940 O   0  0  0  0  0  0  0  0  0  0  0  0
   19.9465   -3.0709  -14.8700 O   0  0  0  0  0  0  0  0  0  0  0  0
  2  1  1  1
  2 13  1  0
  3  2  1  0
  3  4  1  0
  4 12  1  0
  4  5  2  0
  5  6  1  0
  7  8  2  0
  7  6  1  0
  9  8  1  0
 10  9  2  0
 11 10  1  0
 11 12  2  0
 12  7  1  0
 13 20  1  0
 13 14  2  0
 15 16  1  0
 16 18  1  0
 17 16  2  0
 19 18  1  6
 19 21  1  0
 20 19  1  0
 21 22  2  0
 23 24  1  0
 23 21  1  0
 25 26  1  0
 25 24  1  0
 27 25  2  0
M  END
$$$$
