WNG.pdb
     RDKit          3D

 27 28  0  0  1  0  0  0  0  0999 V2000
   26.6552  -20.7738  -14.0657 N   0  0  0  0  0  0  0  0  0  0  0  0
   25.7290  -21.5809  -13.2589 C   0  0  1  0  0  0  0  0  0  0  0  0
   24.9006  -20.5712  -12.4547 C   0  0  0  0  0  0  0  0  0  0  0  0
   25.7958  -19.8292  -11.5229 C   0  0  0  0  0  0  0  0  0  0  0  0
   26.5861  -18.7696  -11.8531 C   0  0  0  0  0  0  0  0  0  0  0  0
   27.2274  -18.3988  -10.7292 N   0  0  0  0  0  0  0  0  0  0  0  0
   26.8619  -19.1930   -9.7113 C   0  0  0  0  0  0  0  0  0  0  0  0
   27.2146  -19.2375   -8.3885 C   0  0  0  0  0  0  0  0  0  0  0  0
   26.6704  -20.1806   -7.5562 C   0  0  0  0  0  0  0  0  0  0  0  0
   25.7566  -21.1053   -8.0301 C   0  0  0  0  0  0  0  0  0  0  0  0
   25.3944  -21.0742   -9.3465 C   0  0  0  0  0  0  0  0  0  0  0  0
   25.9466  -20.1184  -10.1872 C   0  0  0  0  0  0  0  0  0  0  0  0
   24.8069  -22.3383  -14.1591 C   0  0  0  0  0  0  0  0  0  0  0  0
   24.2885  -21.7493  -15.1241 O   0  0  0  0  0  0  0  0  0  0  0  0
   22.6307  -25.9279  -16.9040 N   0  0  0  0  0  0  0  0  0  0  0  0
   23.3302  -26.6503  -15.8611 C   0  0  0  0  0  0  0  0  0  0  0  0
   23.4229  -27.8804  -16.0776 O   0  0  0  0  0  0  0  0  0  0  0  0
   23.8577  -25.9400  -14.6827 C   0  0  0  0  0  0  0  0  0  0  0  0
   23.6127  -24.4864  -14.7715 C   0  0  2  0  0  0  0  0  0  0  0  0
   24.5073  -23.6937  -13.9498 N   0  0  0  0  0  0  0  0  0  0  0  0
   22.2308  -24.1626  -14.3648 C   0  0  0  0  0  0  0  0  0  0  0  0
   21.7836  -24.1515  -13.2018 O   0  0  0  0  0  0  0  0  0  0  0  0
   21.2494  -23.8143  -15.3780 N   0  0  0  0  0  0  0  0  0  0  0  0
   19.8746  -23.5778  -15.0051 C   0  0  0  0  0  0  0  0  0  0  0  0
   19.6325  -22.1449  -14.7339 C   0  0  0  0  0  0  0  0  0  0  0  0
   18.4010  -21.6025  -14.4352 O   0  0  0  0  0  0  0  0  0  0  0  0
   20.6111  -21.3590  -14.7767 O   0  0  0  0  0  0  0  0  0  0  0  0
  2  1  1  6
  2 13  1  0
  3  2  1  0
  3  4  1  0
  4 12  1  0
  4  5  2  0
  5  6  1  0
  7  8  2  0
  7  6  1  0
  9  8  1  0
 10  9  2  0
 11 10  1  0
 11 12  2  0
 12  7  1  0
 13 20  1  0
 13 14  2  0
 15 16  1  0
 16 18  1  0
 17 16  2  0
 19 18  1  1
 19 21  1  0
 20 19  1  0
 21 22  2  0
 23 24  1  0
 23 21  1  0
 25 26  1  0
 25 24  1  0
 27 25  2  0
M  END
$$$$
