WNG.pdb
     RDKit          3D

 27 28  0  0  1  0  0  0  0  0999 V2000
   26.5864  -22.6790  -13.4425 N   0  0  0  0  0  0  0  0  0  0  0  0
   25.8634  -21.9216  -12.4111 C   0  0  1  0  0  0  0  0  0  0  0  0
   26.6717  -20.6341  -12.2070 C   0  0  0  0  0  0  0  0  0  0  0  0
   27.7601  -20.8859  -11.2210 C   0  0  0  0  0  0  0  0  0  0  0  0
   29.0524  -21.1942  -11.5233 C   0  0  0  0  0  0  0  0  0  0  0  0
   29.7003  -21.3407  -10.3526 N   0  0  0  0  0  0  0  0  0  0  0  0
   28.8535  -21.1336   -9.3325 C   0  0  0  0  0  0  0  0  0  0  0  0
   29.0063  -21.1620   -7.9716 C   0  0  0  0  0  0  0  0  0  0  0  0
   27.9416  -20.9048   -7.1479 C   0  0  0  0  0  0  0  0  0  0  0  0
   26.6936  -20.6121   -7.6690 C   0  0  0  0  0  0  0  0  0  0  0  0
   26.5247  -20.5798   -9.0238 C   0  0  0  0  0  0  0  0  0  0  0  0
   27.6042  -20.8403   -9.8557 C   0  0  0  0  0  0  0  0  0  0  0  0
   24.5062  -21.5523  -12.9171 C   0  0  0  0  0  0  0  0  0  0  0  0
   24.2725  -21.6416  -14.1354 O   0  0  0  0  0  0  0  0  0  0  0  0
   18.8468  -19.7137  -11.0120 N   0  0  0  0  0  0  0  0  0  0  0  0
   19.8096  -20.4465  -11.8088 C   0  0  0  0  0  0  0  0  0  0  0  0
   19.3388  -20.8930  -12.8801 O   0  0  0  0  0  0  0  0  0  0  0  0
   21.1971  -20.6123  -11.3414 C   0  0  0  0  0  0  0  0  0  0  0  0
   22.1315  -20.7929  -12.4706 C   0  0  2  0  0  0  0  0  0  0  0  0
   23.4867  -21.1077  -12.0606 N   0  0  0  0  0  0  0  0  0  0  0  0
   22.1899  -19.5740  -13.3018 C   0  0  0  0  0  0  0  0  0  0  0  0
   22.5007  -18.4297  -12.9189 O   0  0  0  0  0  0  0  0  0  0  0  0
   21.8628  -19.6551  -14.7152 N   0  0  0  0  0  0  0  0  0  0  0  0
   21.9143  -18.4714  -15.5406 C   0  0  0  0  0  0  0  0  0  0  0  0
   20.5570  -17.9663  -15.8372 C   0  0  0  0  0  0  0  0  0  0  0  0
   20.0879  -17.6795  -17.1012 O   0  0  0  0  0  0  0  0  0  0  0  0
   19.7692  -17.7820  -14.8767 O   0  0  0  0  0  0  0  0  0  0  0  0
  2  1  1  6
  2 13  1  0
  3  2  1  0
  3  4  1  0
  4 12  1  0
  4  5  2  0
  5  6  1  0
  7  8  2  0
  7  6  1  0
  9  8  1  0
 10  9  2  0
 11 10  1  0
 11 12  2  0
 12  7  1  0
 13 20  1  0
 13 14  2  0
 15 16  1  0
 16 18  1  0
 17 16  2  0
 19 18  1  1
 19 21  1  0
 20 19  1  0
 21 22  2  0
 23 24  1  0
 23 21  1  0
 25 26  1  0
 25 24  1  0
 27 25  2  0
M  END
$$$$
