WNG.pdb
     RDKit          3D

 27 28  0  0  1  0  0  0  0  0999 V2000
   28.1239  -29.9747  -60.8401 N   0  0  0  0  0  0  0  0  0  0  0  0
   29.0551  -28.8389  -60.7881 C   0  0  1  0  0  0  0  0  0  0  0  0
   30.3469  -29.3966  -60.1776 C   0  0  0  0  0  0  0  0  0  0  0  0
   30.0583  -29.9343  -58.8183 C   0  0  0  0  0  0  0  0  0  0  0  0
   29.3431  -29.3007  -57.8470 C   0  0  0  0  0  0  0  0  0  0  0  0
   29.3191  -30.1247  -56.7829 N   0  0  0  0  0  0  0  0  0  0  0  0
   29.9957  -31.2496  -57.0607 C   0  0  0  0  0  0  0  0  0  0  0  0
   30.2649  -32.3804  -56.3361 C   0  0  0  0  0  0  0  0  0  0  0  0
   30.9998  -33.3985  -56.8853 C   0  0  0  0  0  0  0  0  0  0  0  0
   31.4849  -33.3084  -58.1781 C   0  0  0  0  0  0  0  0  0  0  0  0
   31.2251  -32.1875  -58.9139 C   0  0  0  0  0  0  0  0  0  0  0  0
   30.4807  -31.1583  -58.3557 C   0  0  0  0  0  0  0  0  0  0  0  0
   29.3527  -28.3685  -62.1754 C   0  0  0  0  0  0  0  0  0  0  0  0
   29.7109  -29.1989  -63.0293 O   0  0  0  0  0  0  0  0  0  0  0  0
   29.5671  -27.7446  -58.6167 N   0  0  0  0  0  0  0  0  0  0  0  0
   29.1659  -27.5156  -59.9898 C   0  0  0  0  0  0  0  0  0  0  0  0
   29.5318  -28.4184  -60.7771 O   0  0  0  0  0  0  0  0  0  0  0  0
   28.3998  -26.3111  -60.3552 C   0  0  0  0  0  0  0  0  0  0  0  0
   28.5247  -26.0053  -61.7945 C   0  0  2  0  0  0  0  0  0  0  0  0
   29.2406  -27.0190  -62.5453 N   0  0  0  0  0  0  0  0  0  0  0  0
   29.2263  -24.7223  -61.9982 C   0  0  0  0  0  0  0  0  0  0  0  0
   28.9490  -23.8521  -62.8460 O   0  0  0  0  0  0  0  0  0  0  0  0
   30.3611  -24.3853  -61.1558 N   0  0  0  0  0  0  0  0  0  0  0  0
   31.5508  -23.8100  -61.7377 C   0  0  0  0  0  0  0  0  0  0  0  0
   32.4412  -24.8574  -62.2811 C   0  0  0  0  0  0  0  0  0  0  0  0
   33.6887  -25.1612  -61.7797 O   0  0  0  0  0  0  0  0  0  0  0  0
   32.0418  -25.5222  -63.2690 O   0  0  0  0  0  0  0  0  0  0  0  0
  2  1  1  6
  2 13  1  0
  3  2  1  0
  3  4  1  0
  4 12  1  0
  4  5  2  0
  5  6  1  0
  7  8  2  0
  7  6  1  0
  9  8  1  0
 10  9  2  0
 11 10  1  0
 11 12  2  0
 12  7  1  0
 13 20  1  0
 13 14  2  0
 15 16  1  0
 16 18  1  0
 17 16  2  0
 19 18  1  1
 19 21  1  0
 20 19  1  0
 21 22  2  0
 23 24  1  0
 23 21  1  0
 25 26  1  0
 25 24  1  0
 27 25  2  0
M  END
$$$$
