WNG.pdb
     RDKit          3D

 27 28  0  0  1  0  0  0  0  0999 V2000
   24.7442  -21.3041   -9.0839 N   0  0  0  0  0  0  0  0  0  0  0  0
   25.6494  -20.1802   -9.3622 C   0  0  1  0  0  0  0  0  0  0  0  0
   26.9968  -20.5781   -8.7468 C   0  0  0  0  0  0  0  0  0  0  0  0
   26.8675  -20.6236   -7.2632 C   0  0  0  0  0  0  0  0  0  0  0  0
   25.8584  -21.2216   -6.5700 C   0  0  0  0  0  0  0  0  0  0  0  0
   26.1202  -21.0328   -5.2633 N   0  0  0  0  0  0  0  0  0  0  0  0
   27.2588  -20.3372   -5.1211 C   0  0  0  0  0  0  0  0  0  0  0  0
   27.9501  -19.8913   -4.0259 C   0  0  0  0  0  0  0  0  0  0  0  0
   29.1150  -19.1859   -4.1800 C   0  0  0  0  0  0  0  0  0  0  0  0
   29.6174  -18.9087   -5.4392 C   0  0  0  0  0  0  0  0  0  0  0  0
   28.9400  -19.3463   -6.5413 C   0  0  0  0  0  0  0  0  0  0  0  0
   27.7610  -20.0604   -6.3828 C   0  0  0  0  0  0  0  0  0  0  0  0
   25.8292  -20.0331  -10.8388 C   0  0  0  0  0  0  0  0  0  0  0  0
   26.5963  -19.1529  -11.2676 O   0  0  0  0  0  0  0  0  0  0  0  0
   27.9518  -19.9460  -14.7045 N   0  0  0  0  0  0  0  0  0  0  0  0
   27.5790  -20.9971  -13.7798 C   0  0  0  0  0  0  0  0  0  0  0  0
   28.4912  -21.3097  -12.9805 O   0  0  0  0  0  0  0  0  0  0  0  0
   26.2343  -21.5975  -13.8313 C   0  0  0  0  0  0  0  0  0  0  0  0
   25.2257  -20.7229  -13.2000 C   0  0  2  0  0  0  0  0  0  0  0  0
   25.1597  -20.8570  -11.7573 N   0  0  0  0  0  0  0  0  0  0  0  0
   23.8791  -21.0056  -13.7352 C   0  0  0  0  0  0  0  0  0  0  0  0
   23.1669  -21.9924  -13.4672 O   0  0  0  0  0  0  0  0  0  0  0  0
   23.2715  -20.0762  -14.6723 N   0  0  0  0  0  0  0  0  0  0  0  0
   21.9488  -20.3312  -15.1922 C   0  0  0  0  0  0  0  0  0  0  0  0
   20.9069  -19.9496  -14.2154 C   0  0  0  0  0  0  0  0  0  0  0  0
   19.5511  -19.9982  -14.4587 O   0  0  0  0  0  0  0  0  0  0  0  0
   21.2731  -19.5519  -13.0819 O   0  0  0  0  0  0  0  0  0  0  0  0
  2  1  1  6
  2 13  1  0
  3  2  1  0
  3  4  1  0
  4 12  1  0
  4  5  2  0
  5  6  1  0
  7  8  2  0
  7  6  1  0
  9  8  1  0
 10  9  2  0
 11 10  1  0
 11 12  2  0
 12  7  1  0
 13 20  1  0
 13 14  2  0
 15 16  1  0
 16 18  1  0
 17 16  2  0
 19 18  1  6
 19 21  1  0
 20 19  1  0
 21 22  2  0
 23 24  1  0
 23 21  1  0
 25 26  1  0
 25 24  1  0
 27 25  2  0
M  END
$$$$
