WNG.pdb
     RDKit          3D

 27 28  0  0  1  0  0  0  0  0999 V2000
   25.0831  -20.7173  -15.4333 N   0  0  0  0  0  0  0  0  0  0  0  0
   24.5947  -20.9834  -14.0729 C   0  0  1  0  0  0  0  0  0  0  0  0
   25.0440  -19.7802  -13.2343 C   0  0  0  0  0  0  0  0  0  0  0  0
   26.5014  -19.8956  -12.9469 C   0  0  0  0  0  0  0  0  0  0  0  0
   27.5095  -19.4928  -13.7703 C   0  0  0  0  0  0  0  0  0  0  0  0
   28.6635  -19.7757  -13.1379 N   0  0  0  0  0  0  0  0  0  0  0  0
   28.4062  -20.3411  -11.9486 C   0  0  0  0  0  0  0  0  0  0  0  0
   29.2106  -20.8060  -10.9421 C   0  0  0  0  0  0  0  0  0  0  0  0
   28.6620  -21.3490   -9.8096 C   0  0  0  0  0  0  0  0  0  0  0  0
   27.2897  -21.4400   -9.6571 C   0  0  0  0  0  0  0  0  0  0  0  0
   26.4739  -20.9808  -10.6515 C   0  0  0  0  0  0  0  0  0  0  0  0
   27.0316  -20.4314  -11.7970 C   0  0  0  0  0  0  0  0  0  0  0  0
   23.1006  -21.0269  -14.0744 C   0  0  0  0  0  0  0  0  0  0  0  0
   22.4745  -20.2015  -14.7626 O   0  0  0  0  0  0  0  0  0  0  0  0
   18.1299  -24.1045  -14.4421 N   0  0  0  0  0  0  0  0  0  0  0  0
   18.8845  -22.8741  -14.3180 C   0  0  0  0  0  0  0  0  0  0  0  0
   18.1670  -21.8561  -14.1857 O   0  0  0  0  0  0  0  0  0  0  0  0
   20.3575  -22.8924  -14.3523 C   0  0  0  0  0  0  0  0  0  0  0  0
   20.9351  -22.0673  -13.2722 C   0  0  2  0  0  0  0  0  0  0  0  0
   22.3813  -21.9701  -13.3235 N   0  0  0  0  0  0  0  0  0  0  0  0
   20.5723  -22.6099  -11.9480 C   0  0  0  0  0  0  0  0  0  0  0  0
   21.0640  -23.6142  -11.3982 O   0  0  0  0  0  0  0  0  0  0  0  0
   19.5456  -21.9491  -11.1604 N   0  0  0  0  0  0  0  0  0  0  0  0
   19.2563  -22.4013   -9.8199 C   0  0  0  0  0  0  0  0  0  0  0  0
   18.2586  -23.4921   -9.8265 C   0  0  0  0  0  0  0  0  0  0  0  0
   17.7671  -24.1095   -8.6964 O   0  0  0  0  0  0  0  0  0  0  0  0
   17.8227  -23.8911  -10.9346 O   0  0  0  0  0  0  0  0  0  0  0  0
  2  1  1  6
  2 13  1  0
  3  2  1  0
  3  4  1  0
  4 12  1  0
  4  5  2  0
  5  6  1  0
  7  8  2  0
  7  6  1  0
  9  8  1  0
 10  9  2  0
 11 10  1  0
 11 12  2  0
 12  7  1  0
 13 20  1  0
 13 14  2  0
 15 16  1  0
 16 18  1  0
 17 16  2  0
 19 18  1  6
 19 21  1  0
 20 19  1  0
 21 22  2  0
 23 24  1  0
 23 21  1  0
 25 26  1  0
 25 24  1  0
 27 25  2  0
M  END
$$$$
