WNG.pdb
     RDKit          3D

 27 28  0  0  1  0  0  0  0  0999 V2000
   26.6170  -22.6137  -12.7350 N   0  0  0  0  0  0  0  0  0  0  0  0
   25.8040  -21.8360  -11.7894 C   0  0  1  0  0  0  0  0  0  0  0  0
   26.5607  -20.5171  -11.5877 C   0  0  0  0  0  0  0  0  0  0  0  0
   27.6675  -20.7274  -10.6126 C   0  0  0  0  0  0  0  0  0  0  0  0
   28.9159  -21.1839  -10.9117 C   0  0  0  0  0  0  0  0  0  0  0  0
   29.6009  -21.2276   -9.7538 N   0  0  0  0  0  0  0  0  0  0  0  0
   28.8195  -20.8132   -8.7447 C   0  0  0  0  0  0  0  0  0  0  0  0
   29.0294  -20.6720   -7.3985 C   0  0  0  0  0  0  0  0  0  0  0  0
   28.0265  -20.2157   -6.5835 C   0  0  0  0  0  0  0  0  0  0  0  0
   26.7846  -19.8888   -7.0988 C   0  0  0  0  0  0  0  0  0  0  0  0
   26.5592  -20.0240   -8.4389 C   0  0  0  0  0  0  0  0  0  0  0  0
   27.5762  -20.4859   -9.2620 C   0  0  0  0  0  0  0  0  0  0  0  0
   24.4755  -21.5295  -12.4021 C   0  0  0  0  0  0  0  0  0  0  0  0
   24.3828  -21.4691  -13.6409 O   0  0  0  0  0  0  0  0  0  0  0  0
   19.2813  -22.8367  -12.7264 N   0  0  0  0  0  0  0  0  0  0  0  0
   19.6185  -21.7309  -11.8534 C   0  0  0  0  0  0  0  0  0  0  0  0
   18.6979  -20.8910  -11.7282 O   0  0  0  0  0  0  0  0  0  0  0  0
   20.9404  -21.6643  -11.2057 C   0  0  0  0  0  0  0  0  0  0  0  0
   21.9792  -21.1889  -12.1417 C   0  0  2  0  0  0  0  0  0  0  0  0
   23.3286  -21.3077  -11.6234 N   0  0  0  0  0  0  0  0  0  0  0  0
   21.7599  -19.7712  -12.4909 C   0  0  0  0  0  0  0  0  0  0  0  0
   21.9535  -18.7870  -11.7516 O   0  0  0  0  0  0  0  0  0  0  0  0
   21.2700  -19.4276  -13.8149 N   0  0  0  0  0  0  0  0  0  0  0  0
   21.1051  -18.0431  -14.1906 C   0  0  0  0  0  0  0  0  0  0  0  0
   19.7044  -17.6042  -14.0155 C   0  0  0  0  0  0  0  0  0  0  0  0
   19.3016  -16.2888  -13.9300 O   0  0  0  0  0  0  0  0  0  0  0  0
   18.8119  -18.4844  -13.9378 O   0  0  0  0  0  0  0  0  0  0  0  0
  2  1  1  6
  2 13  1  0
  3  2  1  0
  3  4  1  0
  4 12  1  0
  4  5  2  0
  5  6  1  0
  7  8  2  0
  7  6  1  0
  9  8  1  0
 10  9  2  0
 11 10  1  0
 11 12  2  0
 12  7  1  0
 13 20  1  0
 13 14  2  0
 15 16  1  0
 16 18  1  0
 17 16  2  0
 19 18  1  1
 19 21  1  0
 20 19  1  0
 21 22  2  0
 23 24  1  0
 23 21  1  0
 25 26  1  0
 25 24  1  0
 27 25  2  0
M  END
$$$$
