WNG.pdb
     RDKit          3D

 27 28  0  0  1  0  0  0  0  0999 V2000
   24.9405  -20.7680  -12.5819 N   0  0  0  0  0  0  0  0  0  0  0  0
   24.5123  -21.0885  -11.2130 C   0  0  1  0  0  0  0  0  0  0  0  0
   25.2452  -20.0882  -10.3103 C   0  0  0  0  0  0  0  0  0  0  0  0
   26.6222  -20.5874  -10.0366 C   0  0  0  0  0  0  0  0  0  0  0  0
   27.4186  -21.2510  -10.9207 C   0  0  0  0  0  0  0  0  0  0  0  0
   28.5706  -21.5205  -10.2787 N   0  0  0  0  0  0  0  0  0  0  0  0
   28.5165  -21.0463   -9.0246 C   0  0  0  0  0  0  0  0  0  0  0  0
   29.4055  -21.0585   -7.9826 C   0  0  0  0  0  0  0  0  0  0  0  0
   29.0763  -20.4846   -6.7823 C   0  0  0  0  0  0  0  0  0  0  0  0
   27.8443  -19.8827   -6.5958 C   0  0  0  0  0  0  0  0  0  0  0  0
   26.9468  -19.8621   -7.6249 C   0  0  0  0  0  0  0  0  0  0  0  0
   27.2824  -20.4436   -8.8391 C   0  0  0  0  0  0  0  0  0  0  0  0
   23.0417  -20.8566  -11.0788 C   0  0  0  0  0  0  0  0  0  0  0  0
   22.5835  -19.7293  -11.3363 O   0  0  0  0  0  0  0  0  0  0  0  0
   20.8706  -23.1789  -13.3203 N   0  0  0  0  0  0  0  0  0  0  0  0
   19.9246  -22.9691  -12.2434 C   0  0  0  0  0  0  0  0  0  0  0  0
   19.2000  -23.9638  -12.0105 O   0  0  0  0  0  0  0  0  0  0  0  0
   19.8744  -21.6801  -11.5312 C   0  0  0  0  0  0  0  0  0  0  0  0
   20.7599  -21.6791  -10.3493 C   0  0  2  0  0  0  0  0  0  0  0  0
   22.1610  -21.8710  -10.6712 N   0  0  0  0  0  0  0  0  0  0  0  0
   20.3709  -22.7433   -9.4028 C   0  0  0  0  0  0  0  0  0  0  0  0
   20.7792  -23.9206   -9.4022 O   0  0  0  0  0  0  0  0  0  0  0  0
   19.4202  -22.4478   -8.3445 N   0  0  0  0  0  0  0  0  0  0  0  0
   19.0697  -23.4635   -7.3799 C   0  0  0  0  0  0  0  0  0  0  0  0
   17.9387  -24.2872   -7.8569 C   0  0  0  0  0  0  0  0  0  0  0  0
   17.3921  -25.3438   -7.1607 O   0  0  0  0  0  0  0  0  0  0  0  0
   17.4340  -24.0128   -8.9737 O   0  0  0  0  0  0  0  0  0  0  0  0
  2  1  1  6
  2 13  1  0
  3  2  1  0
  3  4  1  0
  4 12  1  0
  4  5  2  0
  5  6  1  0
  7  8  2  0
  7  6  1  0
  9  8  1  0
 10  9  2  0
 11 10  1  0
 11 12  2  0
 12  7  1  0
 13 20  1  0
 13 14  2  0
 15 16  1  0
 16 18  1  0
 17 16  2  0
 19 18  1  6
 19 21  1  0
 20 19  1  0
 21 22  2  0
 23 24  1  0
 23 21  1  0
 25 26  1  0
 25 24  1  0
 27 25  2  0
M  END
$$$$
