WNG.pdb
     RDKit          3D

 27 28  0  0  1  0  0  0  0  0999 V2000
   24.4829  -19.3021  -15.3579 N   0  0  0  0  0  0  0  0  0  0  0  0
   24.4386  -20.4869  -14.4894 C   0  0  1  0  0  0  0  0  0  0  0  0
   25.7358  -20.4437  -13.6721 C   0  0  0  0  0  0  0  0  0  0  0  0
   26.9027  -20.5479  -14.5927 C   0  0  0  0  0  0  0  0  0  0  0  0
   27.8449  -19.5849  -14.7957 C   0  0  0  0  0  0  0  0  0  0  0  0
   28.7152  -20.0774  -15.6967 N   0  0  0  0  0  0  0  0  0  0  0  0
   28.3451  -21.3149  -16.0605 C   0  0  0  0  0  0  0  0  0  0  0  0
   28.8766  -22.2311  -16.9291 C   0  0  0  0  0  0  0  0  0  0  0  0
   28.2731  -23.4482  -17.1094 C   0  0  0  0  0  0  0  0  0  0  0  0
   27.1185  -23.7785  -16.4220 C   0  0  0  0  0  0  0  0  0  0  0  0
   26.5761  -22.8761  -15.5522 C   0  0  0  0  0  0  0  0  0  0  0  0
   27.1889  -21.6445  -15.3712 C   0  0  0  0  0  0  0  0  0  0  0  0
   23.2829  -20.3772  -13.5478 C   0  0  0  0  0  0  0  0  0  0  0  0
   23.4252  -19.7364  -12.4913 O   0  0  0  0  0  0  0  0  0  0  0  0
   19.5419  -19.4932  -15.6820 N   0  0  0  0  0  0  0  0  0  0  0  0
   20.2455  -19.1972  -14.4507 C   0  0  0  0  0  0  0  0  0  0  0  0
   21.1156  -18.3045  -14.5715 O   0  0  0  0  0  0  0  0  0  0  0  0
   19.9163  -19.9180  -13.2083 C   0  0  0  0  0  0  0  0  0  0  0  0
   20.9040  -20.9769  -12.9182 C   0  0  2  0  0  0  0  0  0  0  0  0
   22.0416  -20.9746  -13.8179 N   0  0  0  0  0  0  0  0  0  0  0  0
   20.2782  -22.3119  -12.9956 C   0  0  0  0  0  0  0  0  0  0  0  0
   20.3527  -23.1116  -13.9483 O   0  0  0  0  0  0  0  0  0  0  0  0
   19.4839  -22.7960  -11.8794 N   0  0  0  0  0  0  0  0  0  0  0  0
   18.9640  -24.1431  -11.8894 C   0  0  0  0  0  0  0  0  0  0  0  0
   18.2415  -24.4473  -10.6361 C   0  0  0  0  0  0  0  0  0  0  0  0
   17.5025  -25.5900  -10.4168 O   0  0  0  0  0  0  0  0  0  0  0  0
   18.2990  -23.6120   -9.7001 O   0  0  0  0  0  0  0  0  0  0  0  0
  2  1  1  6
  2 13  1  0
  3  2  1  0
  3  4  1  0
  4 12  1  0
  4  5  2  0
  5  6  1  0
  7  8  2  0
  7  6  1  0
  9  8  1  0
 10  9  2  0
 11 10  1  0
 11 12  2  0
 12  7  1  0
 13 20  1  0
 13 14  2  0
 15 16  1  0
 16 18  1  0
 17 16  2  0
 19 18  1  6
 19 21  1  0
 20 19  1  0
 21 22  2  0
 23 24  1  0
 23 21  1  0
 25 26  1  0
 25 24  1  0
 27 25  2  0
M  END
$$$$
