WNG.pdb
     RDKit          3D

 27 28  0  0  1  0  0  0  0  0999 V2000
   18.9719  -24.7299  -12.3064 N   0  0  0  0  0  0  0  0  0  0  0  0
   19.1187  -23.8191  -11.1624 C   0  0  1  0  0  0  0  0  0  0  0  0
   18.7554  -22.4283  -11.6975 C   0  0  0  0  0  0  0  0  0  0  0  0
   19.8927  -21.8955  -12.4994 C   0  0  0  0  0  0  0  0  0  0  0  0
   20.8393  -22.6433  -13.1327 C   0  0  0  0  0  0  0  0  0  0  0  0
   21.6766  -21.7792  -13.7362 N   0  0  0  0  0  0  0  0  0  0  0  0
   21.2817  -20.5189  -13.4988 C   0  0  0  0  0  0  0  0  0  0  0  0
   21.7770  -19.2986  -13.8753 C   0  0  0  0  0  0  0  0  0  0  0  0
   21.1550  -18.1440  -13.4774 C   0  0  0  0  0  0  0  0  0  0  0  0
   20.0179  -18.1837  -12.6899 C   0  0  0  0  0  0  0  0  0  0  0  0
   19.5114  -19.3925  -12.3061 C   0  0  0  0  0  0  0  0  0  0  0  0
   20.1427  -20.5600  -12.7103 C   0  0  0  0  0  0  0  0  0  0  0  0
   18.1366  -24.1869  -10.0974 C   0  0  0  0  0  0  0  0  0  0  0  0
   17.0766  -24.7500  -10.4237 O   0  0  0  0  0  0  0  0  0  0  0  0
   19.0538  -26.1443   -7.0955 N   0  0  0  0  0  0  0  0  0  0  0  0
   18.8623  -25.1281   -6.0809 C   0  0  0  0  0  0  0  0  0  0  0  0
   19.5192  -25.3332   -5.0345 O   0  0  0  0  0  0  0  0  0  0  0  0
   17.9635  -23.9863   -6.3250 C   0  0  0  0  0  0  0  0  0  0  0  0
   17.3858  -24.0320   -7.6833 C   0  0  2  0  0  0  0  0  0  0  0  0
   18.3726  -23.9172   -8.7401 N   0  0  0  0  0  0  0  0  0  0  0  0
   16.4039  -22.9456   -7.8714 C   0  0  0  0  0  0  0  0  0  0  0  0
   16.6389  -21.8002   -8.3023 O   0  0  0  0  0  0  0  0  0  0  0  0
   15.0086  -23.1759   -7.5379 N   0  0  0  0  0  0  0  0  0  0  0  0
   14.0434  -22.1115   -7.6807 C   0  0  0  0  0  0  0  0  0  0  0  0
   13.2110  -22.3021   -8.8873 C   0  0  0  0  0  0  0  0  0  0  0  0
   12.1137  -21.5329   -9.2102 O   0  0  0  0  0  0  0  0  0  0  0  0
   13.5170  -23.2273   -9.6795 O   0  0  0  0  0  0  0  0  0  0  0  0
  2  1  1  6
  2 13  1  0
  3  2  1  0
  3  4  1  0
  4 12  1  0
  4  5  2  0
  5  6  1  0
  7  8  2  0
  7  6  1  0
  9  8  1  0
 10  9  2  0
 11 10  1  0
 11 12  2  0
 12  7  1  0
 13 20  1  0
 13 14  2  0
 15 16  1  0
 16 18  1  0
 17 16  2  0
 19 18  1  1
 19 21  1  0
 20 19  1  0
 21 22  2  0
 23 24  1  0
 23 21  1  0
 25 26  1  0
 25 24  1  0
 27 25  2  0
M  END
$$$$
