WNG.pdb
     RDKit          3D

 27 28  0  0  1  0  0  0  0  0999 V2000
   27.2077  -21.9990  -10.0905 N   0  0  0  0  0  0  0  0  0  0  0  0
   26.3656  -20.8172   -9.8579 C   0  0  1  0  0  0  0  0  0  0  0  0
   27.2597  -19.8180   -9.1131 C   0  0  0  0  0  0  0  0  0  0  0  0
   27.0214  -19.9398   -7.6473 C   0  0  0  0  0  0  0  0  0  0  0  0
   25.8534  -20.3239   -7.0600 C   0  0  0  0  0  0  0  0  0  0  0  0
   26.0620  -20.3013   -5.7304 N   0  0  0  0  0  0  0  0  0  0  0  0
   27.3210  -19.9160   -5.4718 C   0  0  0  0  0  0  0  0  0  0  0  0
   28.0216  -19.7337   -4.3089 C   0  0  0  0  0  0  0  0  0  0  0  0
   29.3288  -19.3235   -4.3428 C   0  0  0  0  0  0  0  0  0  0  0  0
   29.9683  -19.0848   -5.5465 C   0  0  0  0  0  0  0  0  0  0  0  0
   29.2838  -19.2619   -6.7148 C   0  0  0  0  0  0  0  0  0  0  0  0
   27.9605  -19.6775   -6.6779 C   0  0  0  0  0  0  0  0  0  0  0  0
   25.9723  -20.2142  -11.1678 C   0  0  0  0  0  0  0  0  0  0  0  0
   26.8320  -19.6141  -11.8372 O   0  0  0  0  0  0  0  0  0  0  0  0
   26.5177  -19.7850  -14.6096 N   0  0  0  0  0  0  0  0  0  0  0  0
   26.1434  -21.1786  -14.4806 C   0  0  0  0  0  0  0  0  0  0  0  0
   26.9452  -21.9671  -15.0321 O   0  0  0  0  0  0  0  0  0  0  0  0
   24.9197  -21.5612  -13.7543 C   0  0  0  0  0  0  0  0  0  0  0  0
   24.3109  -20.4025  -13.0703 C   0  0  2  0  0  0  0  0  0  0  0  0
   24.6633  -20.3035  -11.6668 N   0  0  0  0  0  0  0  0  0  0  0  0
   22.8380  -20.4584  -13.1565 C   0  0  0  0  0  0  0  0  0  0  0  0
   22.0865  -21.2209  -12.5190 O   0  0  0  0  0  0  0  0  0  0  0  0
   22.1390  -19.5581  -14.0576 N   0  0  0  0  0  0  0  0  0  0  0  0
   20.6961  -19.5634  -14.1131 C   0  0  0  0  0  0  0  0  0  0  0  0
   20.1906  -20.7810  -14.7818 C   0  0  0  0  0  0  0  0  0  0  0  0
   18.8584  -21.1172  -14.8918 O   0  0  0  0  0  0  0  0  0  0  0  0
   21.0260  -21.5706  -15.2877 O   0  0  0  0  0  0  0  0  0  0  0  0
  2  1  1  6
  2 13  1  0
  3  2  1  0
  3  4  1  0
  4 12  1  0
  4  5  2  0
  5  6  1  0
  7  8  2  0
  7  6  1  0
  9  8  1  0
 10  9  2  0
 11 10  1  0
 11 12  2  0
 12  7  1  0
 13 20  1  0
 13 14  2  0
 15 16  1  0
 16 18  1  0
 17 16  2  0
 19 18  1  1
 19 21  1  0
 20 19  1  0
 21 22  2  0
 23 24  1  0
 23 21  1  0
 25 26  1  0
 25 24  1  0
 27 25  2  0
M  END
$$$$
