WNG.pdb
     RDKit          3D

 27 28  0  0  1  0  0  0  0  0999 V2000
   26.1412  -22.4889  -12.6826 N   0  0  0  0  0  0  0  0  0  0  0  0
   25.3724  -21.7952  -11.6396 C   0  0  1  0  0  0  0  0  0  0  0  0
   26.0831  -20.4518  -11.4327 C   0  0  0  0  0  0  0  0  0  0  0  0
   27.3169  -20.6655  -10.6251 C   0  0  0  0  0  0  0  0  0  0  0  0
   28.5227  -21.0772  -11.1076 C   0  0  0  0  0  0  0  0  0  0  0  0
   29.3599  -21.1422  -10.0555 N   0  0  0  0  0  0  0  0  0  0  0  0
   28.7142  -20.7845   -8.9350 C   0  0  0  0  0  0  0  0  0  0  0  0
   29.1024  -20.6842   -7.6252 C   0  0  0  0  0  0  0  0  0  0  0  0
   28.2099  -20.2839   -6.6652 C   0  0  0  0  0  0  0  0  0  0  0  0
   26.9024  -19.9734   -6.9949 C   0  0  0  0  0  0  0  0  0  0  0  0
   26.4996  -20.0682   -8.2963 C   0  0  0  0  0  0  0  0  0  0  0  0
   27.4050  -20.4735   -9.2664 C   0  0  0  0  0  0  0  0  0  0  0  0
   23.9868  -21.5260  -12.1314 C   0  0  0  0  0  0  0  0  0  0  0  0
   23.7515  -21.6165  -13.3493 O   0  0  0  0  0  0  0  0  0  0  0  0
   20.6398  -22.7598   -8.5740 N   0  0  0  0  0  0  0  0  0  0  0  0
   20.4186  -22.4572   -9.9734 C   0  0  0  0  0  0  0  0  0  0  0  0
   20.0564  -23.4469  -10.6501 O   0  0  0  0  0  0  0  0  0  0  0  0
   20.6198  -21.0900  -10.4847 C   0  0  0  0  0  0  0  0  0  0  0  0
   21.5445  -21.0726  -11.6361 C   0  0  2  0  0  0  0  0  0  0  0  0
   22.9422  -21.1740  -11.2620 N   0  0  0  0  0  0  0  0  0  0  0  0
   21.3823  -19.8316  -12.4191 C   0  0  0  0  0  0  0  0  0  0  0  0
   21.6295  -18.6732  -12.0322 O   0  0  0  0  0  0  0  0  0  0  0  0
   20.8888  -19.9054  -13.7837 N   0  0  0  0  0  0  0  0  0  0  0  0
   20.6839  -18.6972  -14.5473 C   0  0  0  0  0  0  0  0  0  0  0  0
   21.8869  -18.3501  -15.3332 C   0  0  0  0  0  0  0  0  0  0  0  0
   22.5853  -17.1679  -15.2133 O   0  0  0  0  0  0  0  0  0  0  0  0
   22.3093  -19.1843  -16.1714 O   0  0  0  0  0  0  0  0  0  0  0  0
  2  1  1  6
  2 13  1  0
  3  2  1  0
  3  4  1  0
  4 12  1  0
  4  5  2  0
  5  6  1  0
  7  8  2  0
  7  6  1  0
  9  8  1  0
 10  9  2  0
 11 10  1  0
 11 12  2  0
 12  7  1  0
 13 20  1  0
 13 14  2  0
 15 16  1  0
 16 18  1  0
 17 16  2  0
 19 18  1  1
 19 21  1  0
 20 19  1  0
 21 22  2  0
 23 24  1  0
 23 21  1  0
 25 26  1  0
 25 24  1  0
 27 25  2  0
M  END
$$$$
