YSI.pdb
     RDKit          3D

 27 27  0  0  1  0  0  0  0  0999 V2000
   11.8101  -21.6947   28.6844 O   0  0  0  0  0  0  0  0  0  0  0  0
   11.9641  -20.7324   27.6873 C   0  0  0  0  0  0  0  0  0  0  0  0
   13.1763  -20.1170   27.4541 C   0  0  0  0  0  0  0  0  0  0  0  0
   13.3138  -19.1668   26.4640 C   0  0  0  0  0  0  0  0  0  0  0  0
   12.2501  -18.7864   25.6611 C   0  0  0  0  0  0  0  0  0  0  0  0
   12.4810  -17.7656   24.6347 C   0  0  0  0  0  0  0  0  0  0  0  0
   12.1506  -18.2343   23.2225 C   0  0  2  0  0  0  0  0  0  0  0  0
   13.4285  -18.3590   22.5456 N   0  0  0  0  0  0  0  0  0  0  0  0
   11.2594  -17.2766   22.5210 C   0  0  0  0  0  0  0  0  0  0  0  0
   11.7748  -16.3506   21.8462 O   0  0  0  0  0  0  0  0  0  0  0  0
   11.0392  -19.4045   25.8979 C   0  0  0  0  0  0  0  0  0  0  0  0
   10.8977  -20.3624   26.8949 C   0  0  0  0  0  0  0  0  0  0  0  0
    7.0867  -17.6630   22.3465 O   0  0  0  0  0  0  0  0  0  0  0  0
    7.7556  -16.6279   21.6881 C   0  0  0  0  0  0  0  0  0  0  0  0
    8.9798  -16.1842   22.4973 C   0  0  2  0  0  0  0  0  0  0  0  0
    9.8514  -17.3414   22.5645 N   0  0  0  0  0  0  0  0  0  0  0  0
    8.5767  -15.7163   23.8401 C   0  0  0  0  0  0  0  0  0  0  0  0
    8.7555  -16.4590   24.8380 O   0  0  0  0  0  0  0  0  0  0  0  0
    6.5335  -10.7341   26.9954 C   0  0  0  0  0  0  0  0  0  0  0  0
    6.7686  -12.1947   26.8196 C   0  0  0  0  0  0  0  0  0  0  0  0
    7.1585  -12.5680   25.4072 C   0  0  2  0  0  0  0  0  0  0  0  0
    6.1011  -12.2513   24.4074 C   0  0  0  0  0  0  0  0  0  0  0  0
    7.5218  -14.0521   25.3776 C   0  0  2  0  0  0  0  0  0  0  0  0
    7.9850  -14.4424   24.0617 N   0  0  0  0  0  0  0  0  0  0  0  0
    6.3731  -14.8856   25.8156 C   0  0  0  0  0  0  0  0  0  0  0  0
    5.5933  -15.4138   24.9783 O   0  0  0  0  0  0  0  0  0  0  0  0
    6.1114  -15.1167   27.1576 O   0  0  0  0  0  0  0  0  0  0  0  0
  1  2  1  0
  2  3  2  0
  3  4  1  0
  5  4  2  0
  5  6  1  0
  7  6  1  0
  7  9  1  0
  7  8  1  6
  9 10  2  0
 11  5  1  0
 12  2  1  0
 12 11  2  0
 15 14  1  6
 14 13  1  0
 16  9  1  0
 16 15  1  0
 17 15  1  0
 17 18  2  0
 19 20  1  0
 20 21  1  0
 21 22  1  6
 21 23  1  0
 23 24  1  6
 23 25  1  0
 24 17  1  0
 25 26  2  0
 25 27  1  0
M  END
$$$$
