YSI.pdb
     RDKit          3D

 27 27  0  0  1  0  0  0  0  0999 V2000
   12.6013  -20.6127   27.1115 O   0  0  0  0  0  0  0  0  0  0  0  0
   12.7409  -19.8520   25.9514 C   0  0  0  0  0  0  0  0  0  0  0  0
   11.8034  -18.9090   25.5851 C   0  0  0  0  0  0  0  0  0  0  0  0
   11.9548  -18.1637   24.4345 C   0  0  0  0  0  0  0  0  0  0  0  0
   13.0470  -18.3239   23.5965 C   0  0  0  0  0  0  0  0  0  0  0  0
   13.1287  -17.4944   22.3906 C   0  0  0  0  0  0  0  0  0  0  0  0
   12.0255  -17.7790   21.3782 C   0  0  2  0  0  0  0  0  0  0  0  0
   12.6667  -17.7176   20.0774 N   0  0  0  0  0  0  0  0  0  0  0  0
   10.9190  -16.7948   21.4813 C   0  0  0  0  0  0  0  0  0  0  0  0
   11.1047  -15.6263   21.0588 O   0  0  0  0  0  0  0  0  0  0  0  0
   13.9825  -19.2686   23.9667 C   0  0  0  0  0  0  0  0  0  0  0  0
   13.8324  -20.0210   25.1256 C   0  0  0  0  0  0  0  0  0  0  0  0
    7.1245  -17.8918   22.8984 O   0  0  0  0  0  0  0  0  0  0  0  0
    7.2872  -16.8459   21.9862 C   0  0  0  0  0  0  0  0  0  0  0  0
    8.6081  -16.1123   22.2458 C   0  0  2  0  0  0  0  0  0  0  0  0
    9.6550  -17.0927   22.0310 N   0  0  0  0  0  0  0  0  0  0  0  0
    8.6387  -15.5613   23.6170 C   0  0  0  0  0  0  0  0  0  0  0  0
    9.3617  -16.1040   24.4901 O   0  0  0  0  0  0  0  0  0  0  0  0
    6.4039  -10.9405   27.1939 C   0  0  0  0  0  0  0  0  0  0  0  0
    7.0811  -12.2473   26.9632 C   0  0  0  0  0  0  0  0  0  0  0  0
    7.0268  -12.6983   25.5211 C   0  0  2  0  0  0  0  0  0  0  0  0
    5.6363  -12.8581   25.0120 C   0  0  0  0  0  0  0  0  0  0  0  0
    7.8186  -13.9985   25.3865 C   0  0  2  0  0  0  0  0  0  0  0  0
    7.8755  -14.4255   24.0034 N   0  0  0  0  0  0  0  0  0  0  0  0
    7.2460  -15.0576   26.2562 C   0  0  0  0  0  0  0  0  0  0  0  0
    6.3732  -15.8568   25.8228 O   0  0  0  0  0  0  0  0  0  0  0  0
    7.6455  -15.2112   27.5751 O   0  0  0  0  0  0  0  0  0  0  0  0
  1  2  1  0
  2  3  2  0
  3  4  1  0
  5  4  2  0
  5  6  1  0
  7  6  1  0
  7  9  1  0
  7  8  1  6
  9 10  2  0
 11  5  1  0
 12  2  1  0
 12 11  2  0
 15 14  1  1
 14 13  1  0
 16  9  1  0
 16 15  1  0
 17 15  1  0
 17 18  2  0
 19 20  1  0
 20 21  1  0
 21 22  1  1
 21 23  1  0
 23 24  1  6
 23 25  1  0
 24 17  1  0
 25 26  2  0
 25 27  1  0
M  END
$$$$
