YSI.pdb
     RDKit          3D

 27 27  0  0  1  0  0  0  0  0999 V2000
   15.5267  -15.6879   17.0134 O   0  0  0  0  0  0  0  0  0  0  0  0
   14.4354  -15.2524   17.7639 C   0  0  0  0  0  0  0  0  0  0  0  0
   13.1961  -15.8481   17.6551 C   0  0  0  0  0  0  0  0  0  0  0  0
   12.1254  -15.4067   18.4040 C   0  0  0  0  0  0  0  0  0  0  0  0
   12.2405  -14.3517   19.2954 C   0  0  0  0  0  0  0  0  0  0  0  0
   11.0518  -13.9425   20.0493 C   0  0  0  0  0  0  0  0  0  0  0  0
    9.7952  -14.7204   19.6767 C   0  0  2  0  0  0  0  0  0  0  0  0
    9.1978  -13.9887   18.5746 N   0  0  0  0  0  0  0  0  0  0  0  0
    8.8579  -14.8302   20.8226 C   0  0  0  0  0  0  0  0  0  0  0  0
    7.6351  -14.6159   20.6292 O   0  0  0  0  0  0  0  0  0  0  0  0
   13.4821  -13.7585   19.4010 C   0  0  0  0  0  0  0  0  0  0  0  0
   14.5628  -14.2014   18.6476 C   0  0  0  0  0  0  0  0  0  0  0  0
    8.7718  -18.0981   22.7653 O   0  0  0  0  0  0  0  0  0  0  0  0
    7.8700  -17.0599   22.5172 C   0  0  0  0  0  0  0  0  0  0  0  0
    8.3824  -15.7507   23.1285 C   0  0  2  0  0  0  0  0  0  0  0  0
    9.2587  -15.1644   22.1327 N   0  0  0  0  0  0  0  0  0  0  0  0
    9.0867  -16.0094   24.4019 C   0  0  0  0  0  0  0  0  0  0  0  0
   10.2560  -16.4696   24.3844 O   0  0  0  0  0  0  0  0  0  0  0  0
    7.1662  -12.2440   27.4224 C   0  0  0  0  0  0  0  0  0  0  0  0
    8.0432  -13.2282   26.7284 C   0  0  0  0  0  0  0  0  0  0  0  0
    8.5643  -14.3106   27.6464 C   0  0  2  0  0  0  0  0  0  0  0  0
    9.4357  -13.7838   28.7334 C   0  0  0  0  0  0  0  0  0  0  0  0
    9.2990  -15.3528   26.8040 C   0  0  2  0  0  0  0  0  0  0  0  0
    8.4941  -15.7580   25.6698 N   0  0  0  0  0  0  0  0  0  0  0  0
    9.6915  -16.5207   27.6334 C   0  0  0  0  0  0  0  0  0  0  0  0
    8.9627  -17.5465   27.7022 O   0  0  0  0  0  0  0  0  0  0  0  0
   10.8704  -16.5317   28.3633 O   0  0  0  0  0  0  0  0  0  0  0  0
  1  2  1  0
  2  3  2  0
  3  4  1  0
  5  4  2  0
  5  6  1  0
  7  6  1  0
  7  9  1  0
  7  8  1  6
  9 10  2  0
 11  5  1  0
 12  2  1  0
 12 11  2  0
 15 14  1  6
 14 13  1  0
 16  9  1  0
 16 15  1  0
 17 15  1  0
 17 18  2  0
 19 20  1  0
 20 21  1  0
 21 22  1  1
 21 23  1  0
 23 24  1  6
 23 25  1  0
 24 17  1  0
 25 26  2  0
 25 27  1  0
M  END
$$$$
