YSI.pdb
     RDKit          3D

 27 27  0  0  1  0  0  0  0  0999 V2000
    8.3897  -11.4072   21.4614 O   0  0  0  0  0  0  0  0  0  0  0  0
    8.2166  -12.4924   20.6034 C   0  0  0  0  0  0  0  0  0  0  0  0
    7.1392  -13.3455   20.7209 C   0  0  0  0  0  0  0  0  0  0  0  0
    6.9809  -14.4151   19.8647 C   0  0  0  0  0  0  0  0  0  0  0  0
    7.8887  -14.6836   18.8525 C   0  0  0  0  0  0  0  0  0  0  0  0
    7.6481  -15.8437   17.9892 C   0  0  0  0  0  0  0  0  0  0  0  0
    8.1267  -17.1605   18.5891 C   0  0  2  0  0  0  0  0  0  0  0  0
    7.6678  -18.1923   17.6772 N   0  0  0  0  0  0  0  0  0  0  0  0
    7.5866  -17.3691   19.9560 C   0  0  0  0  0  0  0  0  0  0  0  0
    6.5729  -18.0965   20.1035 O   0  0  0  0  0  0  0  0  0  0  0  0
    8.9653  -13.8276   18.7386 C   0  0  0  0  0  0  0  0  0  0  0  0
    9.1272  -12.7490   19.6000 C   0  0  0  0  0  0  0  0  0  0  0  0
    8.8824  -18.8531   23.8032 O   0  0  0  0  0  0  0  0  0  0  0  0
    8.1868  -18.6488   22.6087 C   0  0  0  0  0  0  0  0  0  0  0  0
    7.7889  -17.1749   22.4683 C   0  0  2  0  0  0  0  0  0  0  0  0
    8.1472  -16.7947   21.1154 N   0  0  0  0  0  0  0  0  0  0  0  0
    8.4831  -16.3482   23.4778 C   0  0  0  0  0  0  0  0  0  0  0  0
    9.6678  -15.9813   23.2744 O   0  0  0  0  0  0  0  0  0  0  0  0
    7.1844  -11.5058   26.7820 C   0  0  0  0  0  0  0  0  0  0  0  0
    8.0969  -12.6446   26.4825 C   0  0  0  0  0  0  0  0  0  0  0  0
    7.4097  -13.7835   25.7635 C   0  0  2  0  0  0  0  0  0  0  0  0
    6.2268  -14.3090   26.5002 C   0  0  0  0  0  0  0  0  0  0  0  0
    8.4354  -14.8864   25.5044 C   0  0  2  0  0  0  0  0  0  0  0  0
    7.8638  -15.9400   24.6909 N   0  0  0  0  0  0  0  0  0  0  0  0
    8.9706  -15.4204   26.7828 C   0  0  0  0  0  0  0  0  0  0  0  0
    8.6468  -16.5653   27.1982 O   0  0  0  0  0  0  0  0  0  0  0  0
    9.8448  -14.6857   27.5693 O   0  0  0  0  0  0  0  0  0  0  0  0
  1  2  1  0
  2  3  2  0
  3  4  1  0
  5  4  2  0
  5  6  1  0
  7  6  1  0
  7  9  1  0
  7  8  1  6
  9 10  2  0
 11  5  1  0
 12  2  1  0
 12 11  2  0
 15 14  1  1
 14 13  1  0
 16  9  1  0
 16 15  1  0
 17 15  1  0
 17 18  2  0
 19 20  1  0
 20 21  1  0
 21 22  1  1
 21 23  1  0
 23 24  1  1
 23 25  1  0
 24 17  1  0
 25 26  2  0
 25 27  1  0
M  END
$$$$
