YSI.pdb
     RDKit          3D

 27 27  0  0  1  0  0  0  0  0999 V2000
   10.8708  -12.6419   20.1357 O   0  0  0  0  0  0  0  0  0  0  0  0
    9.7491  -13.4513   19.9613 C   0  0  0  0  0  0  0  0  0  0  0  0
    8.4802  -13.0095   20.2730 C   0  0  0  0  0  0  0  0  0  0  0  0
    7.3796  -13.8214   20.0951 C   0  0  0  0  0  0  0  0  0  0  0  0
    7.4929  -15.1104   19.5987 C   0  0  0  0  0  0  0  0  0  0  0  0
    6.2730  -15.9085   19.4447 C   0  0  0  0  0  0  0  0  0  0  0  0
    6.3426  -17.2681   20.1298 C   0  0  2  0  0  0  0  0  0  0  0  0
    5.3002  -18.0678   19.5129 N   0  0  0  0  0  0  0  0  0  0  0  0
    6.1394  -17.1548   21.5959 C   0  0  0  0  0  0  0  0  0  0  0  0
    5.0097  -16.8145   22.0276 O   0  0  0  0  0  0  0  0  0  0  0  0
    8.7643  -15.5484   19.2883 C   0  0  0  0  0  0  0  0  0  0  0  0
    9.8751  -14.7323   19.4665 C   0  0  0  0  0  0  0  0  0  0  0  0
    8.6034  -18.9949   24.4247 O   0  0  0  0  0  0  0  0  0  0  0  0
    7.2486  -18.6803   24.5586 C   0  0  0  0  0  0  0  0  0  0  0  0
    6.9646  -17.2885   23.9817 C   0  0  2  0  0  0  0  0  0  0  0  0
    7.1482  -17.4085   22.5481 N   0  0  0  0  0  0  0  0  0  0  0  0
    7.8717  -16.2828   24.5736 C   0  0  0  0  0  0  0  0  0  0  0  0
    8.9888  -16.0622   24.0417 O   0  0  0  0  0  0  0  0  0  0  0  0
    5.9030  -11.7881   26.5418 C   0  0  0  0  0  0  0  0  0  0  0  0
    6.8188  -12.8080   25.9580 C   0  0  0  0  0  0  0  0  0  0  0  0
    7.7377  -13.4364   26.9811 C   0  0  2  0  0  0  0  0  0  0  0  0
    8.6940  -12.4648   27.5808 C   0  0  0  0  0  0  0  0  0  0  0  0
    8.4735  -14.6037   26.3241 C   0  0  2  0  0  0  0  0  0  0  0  0
    7.5353  -15.5387   25.7376 N   0  0  0  0  0  0  0  0  0  0  0  0
    9.3709  -15.2770   27.2974 C   0  0  0  0  0  0  0  0  0  0  0  0
    8.9623  -16.2347   28.0074 O   0  0  0  0  0  0  0  0  0  0  0  0
   10.6895  -14.8823   27.4653 O   0  0  0  0  0  0  0  0  0  0  0  0
  1  2  1  0
  2  3  2  0
  3  4  1  0
  5  4  2  0
  5  6  1  0
  7  6  1  0
  7  9  1  0
  7  8  1  6
  9 10  2  0
 11  5  1  0
 12  2  1  0
 12 11  2  0
 15 14  1  1
 14 13  1  0
 16  9  1  0
 16 15  1  0
 17 15  1  0
 17 18  2  0
 19 20  1  0
 20 21  1  0
 21 22  1  6
 21 23  1  0
 23 24  1  1
 23 25  1  0
 24 17  1  0
 25 26  2  0
 25 27  1  0
M  END
$$$$
