YSI.pdb
     RDKit          3D

 27 27  0  0  1  0  0  0  0  0999 V2000
    9.7821  -12.7539   17.4160 O   0  0  0  0  0  0  0  0  0  0  0  0
    8.9220  -13.3845   18.3141 C   0  0  0  0  0  0  0  0  0  0  0  0
    9.3856  -14.2789   19.2562 C   0  0  0  0  0  0  0  0  0  0  0  0
    8.5228  -14.8952   20.1384 C   0  0  0  0  0  0  0  0  0  0  0  0
    7.1592  -14.6484   20.1222 C   0  0  0  0  0  0  0  0  0  0  0  0
    6.3119  -15.3491   21.0917 C   0  0  0  0  0  0  0  0  0  0  0  0
    6.6277  -16.8349   21.2167 C   0  0  2  0  0  0  0  0  0  0  0  0
    5.7024  -17.5053   20.3215 N   0  0  0  0  0  0  0  0  0  0  0  0
    6.4704  -17.3137   22.6129 C   0  0  0  0  0  0  0  0  0  0  0  0
    5.3132  -17.4274   23.0888 O   0  0  0  0  0  0  0  0  0  0  0  0
    6.6997  -13.7530   19.1779 C   0  0  0  0  0  0  0  0  0  0  0  0
    7.5668  -13.1305   18.2878 C   0  0  0  0  0  0  0  0  0  0  0  0
    9.1627  -19.4043   24.8449 O   0  0  0  0  0  0  0  0  0  0  0  0
    7.8815  -19.1008   25.3127 C   0  0  0  0  0  0  0  0  0  0  0  0
    7.4856  -17.6786   24.8992 C   0  0  2  0  0  0  0  0  0  0  0  0
    7.5526  -17.6538   23.4507 N   0  0  0  0  0  0  0  0  0  0  0  0
    8.3919  -16.6850   25.5123 C   0  0  0  0  0  0  0  0  0  0  0  0
    9.5157  -16.4644   24.9946 O   0  0  0  0  0  0  0  0  0  0  0  0
    7.2796  -11.8315   26.4806 C   0  0  0  0  0  0  0  0  0  0  0  0
    8.0013  -13.1241   26.3148 C   0  0  0  0  0  0  0  0  0  0  0  0
    8.4485  -13.7275   27.6271 C   0  0  2  0  0  0  0  0  0  0  0  0
    9.4267  -12.8747   28.3578 C   0  0  0  0  0  0  0  0  0  0  0  0
    9.0213  -15.1179   27.3546 C   0  0  2  0  0  0  0  0  0  0  0  0
    8.0474  -15.9529   26.6815 N   0  0  0  0  0  0  0  0  0  0  0  0
    9.4971  -15.7486   28.6123 C   0  0  0  0  0  0  0  0  0  0  0  0
   10.4779  -15.2774   29.2482 O   0  0  0  0  0  0  0  0  0  0  0  0
    8.8855  -16.8768   29.1374 O   0  0  0  0  0  0  0  0  0  0  0  0
  1  2  1  0
  2  3  2  0
  3  4  1  0
  5  4  2  0
  5  6  1  0
  7  6  1  0
  7  9  1  0
  7  8  1  6
  9 10  2  0
 11  5  1  0
 12  2  1  0
 12 11  2  0
 15 14  1  1
 14 13  1  0
 16  9  1  0
 16 15  1  0
 17 15  1  0
 17 18  2  0
 19 20  1  0
 20 21  1  0
 21 22  1  6
 21 23  1  0
 23 24  1  1
 23 25  1  0
 24 17  1  0
 25 26  2  0
 25 27  1  0
M  END
$$$$
