YSI.pdb
     RDKit          3D

 27 27  0  0  1  0  0  0  0  0999 V2000
    8.5795  -12.1360   16.4172 O   0  0  0  0  0  0  0  0  0  0  0  0
    8.2243  -12.8033   17.5887 C   0  0  0  0  0  0  0  0  0  0  0  0
    9.1736  -13.3203   18.4454 C   0  0  0  0  0  0  0  0  0  0  0  0
    8.8073  -13.9782   19.6010 C   0  0  0  0  0  0  0  0  0  0  0  0
    7.4787  -14.1508   19.9557 C   0  0  0  0  0  0  0  0  0  0  0  0
    7.1758  -14.8660   21.1989 C   0  0  0  0  0  0  0  0  0  0  0  0
    7.5435  -16.3446   21.1575 C   0  0  2  0  0  0  0  0  0  0  0  0
    6.5466  -16.9691   20.3072 N   0  0  0  0  0  0  0  0  0  0  0  0
    7.5492  -16.9467   22.5143 C   0  0  0  0  0  0  0  0  0  0  0  0
    6.5175  -17.5379   22.9203 O   0  0  0  0  0  0  0  0  0  0  0  0
    6.5322  -13.6320   19.0956 C   0  0  0  0  0  0  0  0  0  0  0  0
    6.8985  -12.9686   17.9305 C   0  0  0  0  0  0  0  0  0  0  0  0
   10.4077  -18.9785   24.0555 O   0  0  0  0  0  0  0  0  0  0  0  0
    9.1062  -18.9194   24.5605 C   0  0  0  0  0  0  0  0  0  0  0  0
    8.6633  -17.4609   24.7245 C   0  0  2  0  0  0  0  0  0  0  0  0
    8.6545  -16.8965   23.3885 N   0  0  0  0  0  0  0  0  0  0  0  0
    9.5819  -16.7344   25.6261 C   0  0  0  0  0  0  0  0  0  0  0  0
   10.7536  -16.4808   25.2488 O   0  0  0  0  0  0  0  0  0  0  0  0
    8.4154  -12.2678   27.1685 C   0  0  0  0  0  0  0  0  0  0  0  0
    9.2928  -13.4478   26.9295 C   0  0  0  0  0  0  0  0  0  0  0  0
    9.5848  -14.2355   28.1866 C   0  0  2  0  0  0  0  0  0  0  0  0
   10.5162  -13.5325   29.1121 C   0  0  0  0  0  0  0  0  0  0  0  0
   10.1304  -15.6062   27.7877 C   0  0  2  0  0  0  0  0  0  0  0  0
    9.1970  -16.3003   26.9243 N   0  0  0  0  0  0  0  0  0  0  0  0
   10.4582  -16.4142   28.9901 C   0  0  0  0  0  0  0  0  0  0  0  0
    9.6862  -17.3243   29.3949 O   0  0  0  0  0  0  0  0  0  0  0  0
   11.6215  -16.2024   29.7143 O   0  0  0  0  0  0  0  0  0  0  0  0
  1  2  1  0
  2  3  2  0
  3  4  1  0
  5  4  2  0
  5  6  1  0
  7  6  1  0
  7  9  1  0
  7  8  1  6
  9 10  2  0
 11  5  1  0
 12  2  1  0
 12 11  2  0
 15 14  1  6
 14 13  1  0
 16  9  1  0
 16 15  1  0
 17 15  1  0
 17 18  2  0
 19 20  1  0
 20 21  1  0
 21 22  1  1
 21 23  1  0
 23 24  1  1
 23 25  1  0
 24 17  1  0
 25 26  2  0
 25 27  1  0
M  END
$$$$
