YSI.pdb
     RDKit          3D

 27 27  0  0  1  0  0  0  0  0999 V2000
    8.7579  -12.1265   17.3122 O   0  0  0  0  0  0  0  0  0  0  0  0
    8.3211  -12.8294   18.4343 C   0  0  0  0  0  0  0  0  0  0  0  0
    7.0014  -12.8085   18.8350 C   0  0  0  0  0  0  0  0  0  0  0  0
    6.5836  -13.5089   19.9473 C   0  0  0  0  0  0  0  0  0  0  0  0
    7.4614  -14.2618   20.7110 C   0  0  0  0  0  0  0  0  0  0  0  0
    6.9358  -14.9723   21.8805 C   0  0  0  0  0  0  0  0  0  0  0  0
    7.0864  -16.4865   21.7934 C   0  0  2  0  0  0  0  0  0  0  0  0
    5.7914  -16.9815   21.3637 N   0  0  0  0  0  0  0  0  0  0  0  0
    7.4834  -17.0743   23.0973 C   0  0  0  0  0  0  0  0  0  0  0  0
    6.5893  -17.3516   23.9354 O   0  0  0  0  0  0  0  0  0  0  0  0
    8.7808  -14.2798   20.3066 C   0  0  0  0  0  0  0  0  0  0  0  0
    9.2045  -13.5751   19.1861 C   0  0  0  0  0  0  0  0  0  0  0  0
   11.0740  -18.9194   23.6359 O   0  0  0  0  0  0  0  0  0  0  0  0
    9.9783  -19.1643   24.4677 C   0  0  0  0  0  0  0  0  0  0  0  0
    9.2237  -17.8608   24.7537 C   0  0  2  0  0  0  0  0  0  0  0  0
    8.8189  -17.3450   23.4600 N   0  0  0  0  0  0  0  0  0  0  0  0
   10.0855  -16.9080   25.4844 C   0  0  0  0  0  0  0  0  0  0  0  0
   11.0303  -16.3364   24.8843 O   0  0  0  0  0  0  0  0  0  0  0  0
    8.4623  -13.2427   29.1562 C   0  0  0  0  0  0  0  0  0  0  0  0
    9.0487  -14.5470   28.7388 C   0  0  0  0  0  0  0  0  0  0  0  0
   10.2700  -14.3955   27.8604 C   0  0  2  0  0  0  0  0  0  0  0  0
    9.9900  -13.6642   26.5935 C   0  0  0  0  0  0  0  0  0  0  0  0
   10.8463  -15.7834   27.5827 C   0  0  2  0  0  0  0  0  0  0  0  0
    9.8937  -16.6009   26.8594 N   0  0  0  0  0  0  0  0  0  0  0  0
   11.2737  -16.4398   28.8446 C   0  0  0  0  0  0  0  0  0  0  0  0
   10.7372  -17.5104   29.2375 O   0  0  0  0  0  0  0  0  0  0  0  0
   12.2759  -15.9052   29.6398 O   0  0  0  0  0  0  0  0  0  0  0  0
  1  2  1  0
  2  3  2  0
  3  4  1  0
  5  4  2  0
  5  6  1  0
  7  6  1  0
  7  9  1  0
  7  8  1  1
  9 10  2  0
 11  5  1  0
 12  2  1  0
 12 11  2  0
 15 14  1  6
 14 13  1  0
 16  9  1  0
 16 15  1  0
 17 15  1  0
 17 18  2  0
 19 20  1  0
 20 21  1  0
 21 22  1  6
 21 23  1  0
 23 24  1  1
 23 25  1  0
 24 17  1  0
 25 26  2  0
 25 27  1  0
M  END
$$$$
