YSI.pdb
     RDKit          3D

 27 27  0  0  1  0  0  0  0  0999 V2000
    8.2887  -12.3143   16.0723 O   0  0  0  0  0  0  0  0  0  0  0  0
    7.9704  -12.9273   17.2834 C   0  0  0  0  0  0  0  0  0  0  0  0
    6.7846  -13.6090   17.4617 C   0  0  0  0  0  0  0  0  0  0  0  0
    6.4832  -14.2107   18.6656 C   0  0  0  0  0  0  0  0  0  0  0  0
    7.3492  -14.1607   19.7465 C   0  0  0  0  0  0  0  0  0  0  0  0
    6.9497  -14.8232   20.9917 C   0  0  0  0  0  0  0  0  0  0  0  0
    7.4584  -16.2548   21.1118 C   0  0  2  0  0  0  0  0  0  0  0  0
    6.4887  -17.0722   20.4059 N   0  0  0  0  0  0  0  0  0  0  0  0
    7.5874  -16.6742   22.5299 C   0  0  0  0  0  0  0  0  0  0  0  0
    6.5486  -16.7777   23.2290 O   0  0  0  0  0  0  0  0  0  0  0  0
    8.5343  -13.4776   19.5637 C   0  0  0  0  0  0  0  0  0  0  0  0
    8.8406  -12.8704   18.3516 C   0  0  0  0  0  0  0  0  0  0  0  0
   11.1122  -18.2550   23.9580 O   0  0  0  0  0  0  0  0  0  0  0  0
    9.8866  -18.5714   24.5499 C   0  0  0  0  0  0  0  0  0  0  0  0
    8.9595  -17.3505   24.5425 C   0  0  2  0  0  0  0  0  0  0  0  0
    8.8191  -16.9677   23.1507 N   0  0  0  0  0  0  0  0  0  0  0  0
    9.5267  -16.2591   25.3621 C   0  0  0  0  0  0  0  0  0  0  0  0
   10.4227  -15.5204   24.8813 O   0  0  0  0  0  0  0  0  0  0  0  0
    6.6318  -12.7484   27.5406 C   0  0  0  0  0  0  0  0  0  0  0  0
    7.8123  -13.4969   27.0251 C   0  0  0  0  0  0  0  0  0  0  0  0
    8.6900  -14.0520   28.1240 C   0  0  2  0  0  0  0  0  0  0  0  0
    9.3328  -12.9914   28.9487 C   0  0  0  0  0  0  0  0  0  0  0  0
    9.7345  -14.9736   27.4953 C   0  0  2  0  0  0  0  0  0  0  0  0
    9.0996  -15.9994   26.6932 N   0  0  0  0  0  0  0  0  0  0  0  0
   10.6105  -15.5672   28.5375 C   0  0  0  0  0  0  0  0  0  0  0  0
   10.4576  -16.7592   28.9170 O   0  0  0  0  0  0  0  0  0  0  0  0
   11.6285  -14.8387   29.1339 O   0  0  0  0  0  0  0  0  0  0  0  0
  1  2  1  0
  2  3  2  0
  3  4  1  0
  5  4  2  0
  5  6  1  0
  7  6  1  0
  7  9  1  0
  7  8  1  6
  9 10  2  0
 11  5  1  0
 12  2  1  0
 12 11  2  0
 15 14  1  6
 14 13  1  0
 16  9  1  0
 16 15  1  0
 17 15  1  0
 17 18  2  0
 19 20  1  0
 20 21  1  0
 21 22  1  6
 21 23  1  0
 23 24  1  1
 23 25  1  0
 24 17  1  0
 25 26  2  0
 25 27  1  0
M  END
$$$$
