YSI.pdb
     RDKit          3D

 27 27  0  0  1  0  0  0  0  0999 V2000
   11.7215  -20.7719   28.9456 O   0  0  0  0  0  0  0  0  0  0  0  0
   11.8758  -19.8497   27.9113 C   0  0  0  0  0  0  0  0  0  0  0  0
   10.8283  -19.5089   27.0811 C   0  0  0  0  0  0  0  0  0  0  0  0
   10.9957  -18.5948   26.0620 C   0  0  0  0  0  0  0  0  0  0  0  0
   12.2140  -17.9787   25.8235 C   0  0  0  0  0  0  0  0  0  0  0  0
   12.3071  -17.0222   24.7165 C   0  0  0  0  0  0  0  0  0  0  0  0
   11.9223  -17.6131   23.3653 C   0  0  2  0  0  0  0  0  0  0  0  0
   13.1774  -17.9081   22.6986 N   0  0  0  0  0  0  0  0  0  0  0  0
   11.0968  -16.6705   22.5693 C   0  0  0  0  0  0  0  0  0  0  0  0
   11.6331  -15.6296   22.1140 O   0  0  0  0  0  0  0  0  0  0  0  0
   13.2592  -18.3227   26.6564 C   0  0  0  0  0  0  0  0  0  0  0  0
   13.0934  -19.2434   27.6842 C   0  0  0  0  0  0  0  0  0  0  0  0
    7.0691  -17.5344   21.9349 O   0  0  0  0  0  0  0  0  0  0  0  0
    7.5600  -16.3047   21.4884 C   0  0  0  0  0  0  0  0  0  0  0  0
    8.7177  -15.8375   22.3783 C   0  0  2  0  0  0  0  0  0  0  0  0
    9.7298  -16.8723   22.2879 N   0  0  0  0  0  0  0  0  0  0  0  0
    8.2583  -15.6327   23.7681 C   0  0  0  0  0  0  0  0  0  0  0  0
    8.4520  -16.5299   24.6266 O   0  0  0  0  0  0  0  0  0  0  0  0
    7.3495  -10.5369   25.6047 C   0  0  0  0  0  0  0  0  0  0  0  0
    7.7340  -11.9755   25.5605 C   0  0  0  0  0  0  0  0  0  0  0  0
    6.5688  -12.9095   25.7978 C   0  0  2  0  0  0  0  0  0  0  0  0
    5.9918  -12.7863   27.1653 C   0  0  0  0  0  0  0  0  0  0  0  0
    7.0256  -14.3405   25.5165 C   0  0  2  0  0  0  0  0  0  0  0  0
    7.5952  -14.4473   24.1888 N   0  0  0  0  0  0  0  0  0  0  0  0
    5.9060  -15.2984   25.7032 C   0  0  0  0  0  0  0  0  0  0  0  0
    5.1318  -15.5905   24.7526 O   0  0  0  0  0  0  0  0  0  0  0  0
    5.6663  -15.9086   26.9250 O   0  0  0  0  0  0  0  0  0  0  0  0
  1  2  1  0
  2  3  2  0
  3  4  1  0
  5  4  2  0
  5  6  1  0
  7  6  1  0
  7  9  1  0
  7  8  1  6
  9 10  2  0
 11  5  1  0
 12  2  1  0
 12 11  2  0
 15 14  1  6
 14 13  1  0
 16  9  1  0
 16 15  1  0
 17 15  1  0
 17 18  2  0
 19 20  1  0
 20 21  1  0
 21 22  1  1
 21 23  1  0
 23 24  1  6
 23 25  1  0
 24 17  1  0
 25 26  2  0
 25 27  1  0
M  END
$$$$
