YSI.pdb
     RDKit          3D

 27 27  0  0  1  0  0  0  0  0999 V2000
    8.9473  -12.6022   16.9073 O   0  0  0  0  0  0  0  0  0  0  0  0
    8.3948  -13.1641   18.0575 C   0  0  0  0  0  0  0  0  0  0  0  0
    9.0058  -14.2082   18.7201 C   0  0  0  0  0  0  0  0  0  0  0  0
    8.4476  -14.7542   19.8571 C   0  0  0  0  0  0  0  0  0  0  0  0
    7.2554  -14.2849   20.3855 C   0  0  0  0  0  0  0  0  0  0  0  0
    6.7287  -14.9247   21.5948 C   0  0  0  0  0  0  0  0  0  0  0  0
    6.8845  -16.4408   21.6004 C   0  0  2  0  0  0  0  0  0  0  0  0
    5.8874  -16.9372   20.6697 N   0  0  0  0  0  0  0  0  0  0  0  0
    6.6854  -17.0078   22.9578 C   0  0  0  0  0  0  0  0  0  0  0  0
    5.5329  -16.9948   23.4578 O   0  0  0  0  0  0  0  0  0  0  0  0
    6.6475  -13.2404   19.7193 C   0  0  0  0  0  0  0  0  0  0  0  0
    7.2078  -12.6883   18.5735 C   0  0  0  0  0  0  0  0  0  0  0  0
    8.9903  -19.6777   24.9229 O   0  0  0  0  0  0  0  0  0  0  0  0
    7.8316  -19.1553   25.5034 C   0  0  0  0  0  0  0  0  0  0  0  0
    7.6988  -17.6628   25.1792 C   0  0  2  0  0  0  0  0  0  0  0  0
    7.7223  -17.5677   23.7322 N   0  0  0  0  0  0  0  0  0  0  0  0
    8.7960  -16.8932   25.8023 C   0  0  0  0  0  0  0  0  0  0  0  0
    9.8684  -16.7155   25.1714 O   0  0  0  0  0  0  0  0  0  0  0  0
    8.4620  -12.1473   27.2494 C   0  0  0  0  0  0  0  0  0  0  0  0
    9.0315  -13.4854   26.9262 C   0  0  0  0  0  0  0  0  0  0  0  0
    9.4694  -14.2564   28.1509 C   0  0  2  0  0  0  0  0  0  0  0  0
   10.5976  -13.6080   28.8756 C   0  0  0  0  0  0  0  0  0  0  0  0
    9.8285  -15.6805   27.7283 C   0  0  2  0  0  0  0  0  0  0  0  0
    8.6953  -16.3337   27.1056 N   0  0  0  0  0  0  0  0  0  0  0  0
   10.3350  -16.4626   28.8849 C   0  0  0  0  0  0  0  0  0  0  0  0
    9.5890  -17.2663   29.5060 O   0  0  0  0  0  0  0  0  0  0  0  0
   11.6434  -16.3422   29.3279 O   0  0  0  0  0  0  0  0  0  0  0  0
  1  2  1  0
  2  3  2  0
  3  4  1  0
  5  4  2  0
  5  6  1  0
  7  6  1  0
  7  9  1  0
  7  8  1  6
  9 10  2  0
 11  5  1  0
 12  2  1  0
 12 11  2  0
 15 14  1  6
 14 13  1  0
 16  9  1  0
 16 15  1  0
 17 15  1  0
 17 18  2  0
 19 20  1  0
 20 21  1  0
 21 22  1  6
 21 23  1  0
 23 24  1  1
 23 25  1  0
 24 17  1  0
 25 26  2  0
 25 27  1  0
M  END
$$$$
