YSI.pdb
     RDKit          3D

 27 27  0  0  1  0  0  0  0  0999 V2000
    0.0644  -19.5436   20.0235 O   0  0  0  0  0  0  0  0  0  0  0  0
    1.2159  -19.2692   20.7602 C   0  0  0  0  0  0  0  0  0  0  0  0
    2.1982  -18.4262   20.2837 C   0  0  0  0  0  0  0  0  0  0  0  0
    3.3322  -18.1639   21.0237 C   0  0  0  0  0  0  0  0  0  0  0  0
    3.5392  -18.7294   22.2719 C   0  0  0  0  0  0  0  0  0  0  0  0
    4.7743  -18.4014   22.9902 C   0  0  0  0  0  0  0  0  0  0  0  0
    6.0382  -18.6471   22.1747 C   0  0  2  0  0  0  0  0  0  0  0  0
    5.9362  -20.0160   21.7031 N   0  0  0  0  0  0  0  0  0  0  0  0
    7.2636  -18.4464   22.9881 C   0  0  0  0  0  0  0  0  0  0  0  0
    7.5122  -19.2516   23.9199 O   0  0  0  0  0  0  0  0  0  0  0  0
    2.5540  -19.5723   22.7447 C   0  0  0  0  0  0  0  0  0  0  0  0
    1.4103  -19.8383   22.0012 C   0  0  0  0  0  0  0  0  0  0  0  0
   10.2732  -16.1514   21.5979 O   0  0  0  0  0  0  0  0  0  0  0  0
   10.5346  -17.1049   22.5853 C   0  0  0  0  0  0  0  0  0  0  0  0
    9.3690  -17.1777   23.5785 C   0  0  2  0  0  0  0  0  0  0  0  0
    8.1791  -17.3945   22.7782 N   0  0  0  0  0  0  0  0  0  0  0  0
    9.2822  -15.9350   24.3739 C   0  0  0  0  0  0  0  0  0  0  0  0
    9.5862  -14.8355   23.8464 O   0  0  0  0  0  0  0  0  0  0  0  0
    5.9112  -12.9471   26.1765 C   0  0  0  0  0  0  0  0  0  0  0  0
    7.2224  -13.5753   25.8512 C   0  0  0  0  0  0  0  0  0  0  0  0
    7.9582  -14.0804   27.0717 C   0  0  2  0  0  0  0  0  0  0  0  0
    8.2977  -12.9985   28.0372 C   0  0  0  0  0  0  0  0  0  0  0  0
    9.2110  -14.8255   26.6122 C   0  0  2  0  0  0  0  0  0  0  0  0
    8.8635  -15.9229   25.7327 N   0  0  0  0  0  0  0  0  0  0  0  0
   10.0023  -15.2963   27.7776 C   0  0  0  0  0  0  0  0  0  0  0  0
    9.9541  -16.4972   28.1569 O   0  0  0  0  0  0  0  0  0  0  0  0
   10.8236  -14.4389   28.4938 O   0  0  0  0  0  0  0  0  0  0  0  0
  1  2  1  0
  2  3  2  0
  3  4  1  0
  5  4  2  0
  5  6  1  0
  7  6  1  0
  7  9  1  0
  7  8  1  1
  9 10  2  0
 11  5  1  0
 12  2  1  0
 12 11  2  0
 15 14  1  6
 14 13  1  0
 16  9  1  0
 16 15  1  0
 17 15  1  0
 17 18  2  0
 19 20  1  0
 20 21  1  0
 21 22  1  1
 21 23  1  0
 23 24  1  6
 23 25  1  0
 24 17  1  0
 25 26  2  0
 25 27  1  0
M  END
$$$$
