YSI.pdb
     RDKit          3D

 27 27  0  0  1  0  0  0  0  0999 V2000
    9.9783  -12.2788   19.9346 O   0  0  0  0  0  0  0  0  0  0  0  0
    9.0987  -13.3447   19.7499 C   0  0  0  0  0  0  0  0  0  0  0  0
    9.5174  -14.5471   19.2197 C   0  0  0  0  0  0  0  0  0  0  0  0
    8.6359  -15.5930   19.0428 C   0  0  0  0  0  0  0  0  0  0  0  0
    7.2972  -15.4886   19.3860 C   0  0  0  0  0  0  0  0  0  0  0  0
    6.4270  -16.6466   19.1609 C   0  0  0  0  0  0  0  0  0  0  0  0
    6.6847  -17.7999   20.1235 C   0  0  2  0  0  0  0  0  0  0  0  0
    5.9052  -18.9131   19.6135 N   0  0  0  0  0  0  0  0  0  0  0  0
    6.2885  -17.4548   21.5118 C   0  0  0  0  0  0  0  0  0  0  0  0
    5.0683  -17.4490   21.8111 O   0  0  0  0  0  0  0  0  0  0  0  0
    6.8826  -14.2837   19.9160 C   0  0  0  0  0  0  0  0  0  0  0  0
    7.7687  -13.2282   20.0954 C   0  0  0  0  0  0  0  0  0  0  0  0
    8.0817  -18.8804   24.6021 O   0  0  0  0  0  0  0  0  0  0  0  0
    6.7991  -18.3289   24.5455 C   0  0  0  0  0  0  0  0  0  0  0  0
    6.8470  -16.9297   23.9208 C   0  0  2  0  0  0  0  0  0  0  0  0
    7.2078  -17.1285   22.5302 N   0  0  0  0  0  0  0  0  0  0  0  0
    7.8228  -16.0748   24.6289 C   0  0  0  0  0  0  0  0  0  0  0  0
    9.0150  -16.0315   24.2335 O   0  0  0  0  0  0  0  0  0  0  0  0
    5.8860  -11.7990   27.3101 C   0  0  0  0  0  0  0  0  0  0  0  0
    6.7535  -12.6985   26.4991 C   0  0  0  0  0  0  0  0  0  0  0  0
    7.7903  -13.4267   27.3243 C   0  0  2  0  0  0  0  0  0  0  0  0
    8.7959  -12.5136   27.9351 C   0  0  0  0  0  0  0  0  0  0  0  0
    8.4617  -14.4806   26.4445 C   0  0  2  0  0  0  0  0  0  0  0  0
    7.4714  -15.2839   25.7571 N   0  0  0  0  0  0  0  0  0  0  0  0
    9.3836  -15.3267   27.2446 C   0  0  0  0  0  0  0  0  0  0  0  0
    9.0087  -16.4327   27.7183 O   0  0  0  0  0  0  0  0  0  0  0  0
   10.6892  -14.9375   27.5028 O   0  0  0  0  0  0  0  0  0  0  0  0
  1  2  1  0
  2  3  2  0
  3  4  1  0
  5  4  2  0
  5  6  1  0
  7  6  1  0
  7  9  1  0
  7  8  1  6
  9 10  2  0
 11  5  1  0
 12  2  1  0
 12 11  2  0
 15 14  1  1
 14 13  1  0
 16  9  1  0
 16 15  1  0
 17 15  1  0
 17 18  2  0
 19 20  1  0
 20 21  1  0
 21 22  1  6
 21 23  1  0
 23 24  1  1
 23 25  1  0
 24 17  1  0
 25 26  2  0
 25 27  1  0
M  END
$$$$
