YSI.pdb
     RDKit          3D

 27 27  0  0  1  0  0  0  0  0999 V2000
    7.6510  -12.4905   16.3640 O   0  0  0  0  0  0  0  0  0  0  0  0
    7.7307  -13.0929   17.6189 C   0  0  0  0  0  0  0  0  0  0  0  0
    6.6947  -13.0185   18.5264 C   0  0  0  0  0  0  0  0  0  0  0  0
    6.7876  -13.6195   19.7643 C   0  0  0  0  0  0  0  0  0  0  0  0
    7.9169  -14.3218   20.1545 C   0  0  0  0  0  0  0  0  0  0  0  0
    7.9356  -14.9265   21.4898 C   0  0  0  0  0  0  0  0  0  0  0  0
    8.1984  -16.4277   21.4763 C   0  0  2  0  0  0  0  0  0  0  0  0
    7.0352  -17.0200   20.8414 N   0  0  0  0  0  0  0  0  0  0  0  0
    8.3961  -16.9625   22.8469 C   0  0  0  0  0  0  0  0  0  0  0  0
    7.4085  -17.0293   23.6206 O   0  0  0  0  0  0  0  0  0  0  0  0
    8.9511  -14.3936   19.2435 C   0  0  0  0  0  0  0  0  0  0  0  0
    8.8601  -13.7890   17.9954 C   0  0  0  0  0  0  0  0  0  0  0  0
   11.8534  -19.0124   23.9076 O   0  0  0  0  0  0  0  0  0  0  0  0
   10.6080  -19.2514   24.4944 C   0  0  0  0  0  0  0  0  0  0  0  0
    9.8431  -17.9354   24.6772 C   0  0  2  0  0  0  0  0  0  0  0  0
    9.6395  -17.4064   23.3423 N   0  0  0  0  0  0  0  0  0  0  0  0
   10.6065  -17.0020   25.5319 C   0  0  0  0  0  0  0  0  0  0  0  0
   11.6006  -16.3958   25.0588 O   0  0  0  0  0  0  0  0  0  0  0  0
    8.5957  -13.4535   29.1433 C   0  0  0  0  0  0  0  0  0  0  0  0
    9.2104  -14.7468   28.7322 C   0  0  0  0  0  0  0  0  0  0  0  0
   10.5142  -14.5745   27.9862 C   0  0  2  0  0  0  0  0  0  0  0  0
   10.3614  -13.8190   26.7118 C   0  0  0  0  0  0  0  0  0  0  0  0
   11.1225  -15.9550   27.7419 C   0  0  2  0  0  0  0  0  0  0  0  0
   10.2643  -16.7519   26.8892 N   0  0  0  0  0  0  0  0  0  0  0  0
   11.3986  -16.6453   29.0276 C   0  0  0  0  0  0  0  0  0  0  0  0
   10.8289  -17.7304   29.3212 O   0  0  0  0  0  0  0  0  0  0  0  0
   12.2904  -16.1277   29.9547 O   0  0  0  0  0  0  0  0  0  0  0  0
  1  2  1  0
  2  3  2  0
  3  4  1  0
  5  4  2  0
  5  6  1  0
  7  6  1  0
  7  9  1  0
  7  8  1  1
  9 10  2  0
 11  5  1  0
 12  2  1  0
 12 11  2  0
 15 14  1  6
 14 13  1  0
 16  9  1  0
 16 15  1  0
 17 15  1  0
 17 18  2  0
 19 20  1  0
 20 21  1  0
 21 22  1  6
 21 23  1  0
 23 24  1  6
 23 25  1  0
 24 17  1  0
 25 26  2  0
 25 27  1  0
M  END
$$$$
