YSI.pdb
     RDKit          3D

 27 27  0  0  1  0  0  0  0  0999 V2000
    8.3359  -12.8258   16.3308 O   0  0  0  0  0  0  0  0  0  0  0  0
    8.1236  -13.2905   17.6281 C   0  0  0  0  0  0  0  0  0  0  0  0
    8.9510  -14.2303   18.2064 C   0  0  0  0  0  0  0  0  0  0  0  0
    8.7288  -14.6808   19.4909 C   0  0  0  0  0  0  0  0  0  0  0  0
    7.6721  -14.2156   20.2577 C   0  0  0  0  0  0  0  0  0  0  0  0
    7.5047  -14.7502   21.6123 C   0  0  0  0  0  0  0  0  0  0  0  0
    7.3863  -16.2690   21.6587 C   0  0  2  0  0  0  0  0  0  0  0  0
    6.0670  -16.5720   21.1348 N   0  0  0  0  0  0  0  0  0  0  0  0
    7.5518  -16.7903   23.0387 C   0  0  0  0  0  0  0  0  0  0  0  0
    6.6722  -16.5273   23.8964 O   0  0  0  0  0  0  0  0  0  0  0  0
    6.8467  -13.2755   19.6750 C   0  0  0  0  0  0  0  0  0  0  0  0
    7.0684  -12.8197   18.3809 C   0  0  0  0  0  0  0  0  0  0  0  0
   10.3401  -19.6537   23.8727 O   0  0  0  0  0  0  0  0  0  0  0  0
    9.2643  -19.4754   24.7464 C   0  0  0  0  0  0  0  0  0  0  0  0
    8.8788  -17.9936   24.8225 C   0  0  2  0  0  0  0  0  0  0  0  0
    8.6490  -17.5729   23.4537 N   0  0  0  0  0  0  0  0  0  0  0  0
    9.9498  -17.2079   25.4706 C   0  0  0  0  0  0  0  0  0  0  0  0
   10.9702  -16.8844   24.8121 O   0  0  0  0  0  0  0  0  0  0  0  0
    9.5698  -13.1287   29.1646 C   0  0  0  0  0  0  0  0  0  0  0  0
    9.6893  -14.5307   28.6752 C   0  0  0  0  0  0  0  0  0  0  0  0
   10.8555  -14.7344   27.7347 C   0  0  2  0  0  0  0  0  0  0  0  0
   10.7015  -14.0010   26.4475 C   0  0  0  0  0  0  0  0  0  0  0  0
   11.0363  -16.2336   27.4995 C   0  0  2  0  0  0  0  0  0  0  0  0
    9.8803  -16.7923   26.8286 N   0  0  0  0  0  0  0  0  0  0  0  0
   11.3134  -16.9387   28.7769 C   0  0  0  0  0  0  0  0  0  0  0  0
   10.5003  -17.7783   29.2485 O   0  0  0  0  0  0  0  0  0  0  0  0
   12.4724  -16.7044   29.5011 O   0  0  0  0  0  0  0  0  0  0  0  0
  1  2  1  0
  2  3  2  0
  3  4  1  0
  5  4  2  0
  5  6  1  0
  7  6  1  0
  7  9  1  0
  7  8  1  1
  9 10  2  0
 11  5  1  0
 12  2  1  0
 12 11  2  0
 15 14  1  6
 14 13  1  0
 16  9  1  0
 16 15  1  0
 17 15  1  0
 17 18  2  0
 19 20  1  0
 20 21  1  0
 21 22  1  6
 21 23  1  0
 23 24  1  1
 23 25  1  0
 24 17  1  0
 25 26  2  0
 25 27  1  0
M  END
$$$$
