YSI.pdb
     RDKit          3D

 27 27  0  0  1  0  0  0  0  0999 V2000
   11.1140  -15.5553   29.5528 O   0  0  0  0  0  0  0  0  0  0  0  0
   10.0834  -16.2903   28.9683 C   0  0  0  0  0  0  0  0  0  0  0  0
    9.1341  -15.6955   28.1637 C   0  0  0  0  0  0  0  0  0  0  0  0
    8.1202  -16.4354   27.5920 C   0  0  0  0  0  0  0  0  0  0  0  0
    8.0059  -17.8015   27.7960 C   0  0  0  0  0  0  0  0  0  0  0  0
    6.8955  -18.5120   27.1548 C   0  0  0  0  0  0  0  0  0  0  0  0
    7.3409  -19.5009   26.0840 C   0  0  2  0  0  0  0  0  0  0  0  0
    8.4033  -20.2804   26.6928 N   0  0  0  0  0  0  0  0  0  0  0  0
    7.8139  -18.8077   24.8596 C   0  0  0  0  0  0  0  0  0  0  0  0
    9.0409  -18.8219   24.5897 O   0  0  0  0  0  0  0  0  0  0  0  0
    8.9577  -18.3925   28.6018 C   0  0  0  0  0  0  0  0  0  0  0  0
    9.9805  -17.6493   29.1791 C   0  0  0  0  0  0  0  0  0  0  0  0
    5.1647  -16.5687   22.7566 O   0  0  0  0  0  0  0  0  0  0  0  0
    6.1571  -17.1390   21.9551 C   0  0  0  0  0  0  0  0  0  0  0  0
    7.4157  -17.4208   22.7838 C   0  0  2  0  0  0  0  0  0  0  0  0
    6.9615  -18.1246   23.9678 N   0  0  0  0  0  0  0  0  0  0  0  0
    8.1116  -16.1614   23.1214 C   0  0  0  0  0  0  0  0  0  0  0  0
    8.6360  -15.4755   22.2081 O   0  0  0  0  0  0  0  0  0  0  0  0
    5.8459  -12.5760   26.0242 C   0  0  0  0  0  0  0  0  0  0  0  0
    6.7500  -13.3424   25.1216 C   0  0  0  0  0  0  0  0  0  0  0  0
    8.1207  -13.5788   25.7144 C   0  0  2  0  0  0  0  0  0  0  0  0
    8.8438  -12.3163   26.0330 C   0  0  0  0  0  0  0  0  0  0  0  0
    8.9255  -14.4496   24.7504 C   0  0  2  0  0  0  0  0  0  0  0  0
    8.2185  -15.6789   24.4547 N   0  0  0  0  0  0  0  0  0  0  0  0
   10.2813  -14.7225   25.2920 C   0  0  0  0  0  0  0  0  0  0  0  0
   10.5898  -15.8612   25.7355 O   0  0  0  0  0  0  0  0  0  0  0  0
   11.2600  -13.7412   25.3324 O   0  0  0  0  0  0  0  0  0  0  0  0
  1  2  1  0
  2  3  2  0
  3  4  1  0
  5  4  2  0
  5  6  1  0
  7  6  1  0
  7  9  1  0
  7  8  1  1
  9 10  2  0
 11  5  1  0
 12  2  1  0
 12 11  2  0
 15 14  1  6
 14 13  1  0
 16  9  1  0
 16 15  1  0
 17 15  1  0
 17 18  2  0
 19 20  1  0
 20 21  1  0
 21 22  1  6
 21 23  1  0
 23 24  1  1
 23 25  1  0
 24 17  1  0
 25 26  2  0
 25 27  1  0
M  END
$$$$
