THE.pdb
     RDKit          3D

 27 27  0  0  1  0  0  0  0  0999 V2000
   11.7152  -18.9268   12.9502 C   0  0  0  0  0  0  0  0  0  0  0  0
   11.5325  -18.0097   14.1309 C   0  0  1  0  0  0  0  0  0  0  0  0
   12.7383  -18.0598   14.8687 O   0  0  0  0  0  0  0  0  0  0  0  0
   11.3400  -16.5754   13.7305 C   0  0  2  0  0  0  0  0  0  0  0  0
   12.3921  -16.0331   12.9409 N   0  0  0  0  0  0  0  0  0  0  0  0
   11.2122  -15.7849   14.9983 C   0  0  0  0  0  0  0  0  0  0  0  0
   12.2561  -15.2683   15.4699 O   0  0  0  0  0  0  0  0  0  0  0  0
    9.9632  -15.6318   15.6314 N   0  0  0  0  0  0  0  0  0  0  0  0
    9.7397  -14.9228   16.8463 C   0  0  1  0  0  0  0  0  0  0  0  0
    8.3045  -14.5975   17.1160 C   0  0  0  0  0  0  0  0  0  0  0  0
    8.1524  -13.9679   18.4629 C   0  0  0  0  0  0  0  0  0  0  0  0
    8.4908  -12.6939   18.8244 C   0  0  0  0  0  0  0  0  0  0  0  0
    8.1855  -12.5503   20.1221 N   0  0  0  0  0  0  0  0  0  0  0  0
    7.6668  -13.6988   20.5782 C   0  0  0  0  0  0  0  0  0  0  0  0
    7.6512  -14.5625   19.5505 N   0  0  0  0  0  0  0  0  0  0  0  0
   10.4068  -15.5799   18.0246 C   0  0  0  0  0  0  0  0  0  0  0  0
   10.3625  -16.8040   18.2097 O   0  0  0  0  0  0  0  0  0  0  0  0
   11.1240  -14.7853   18.9788 N   0  0  0  0  0  0  0  0  0  0  0  0
   11.8924  -15.4030   20.0472 C   0  0  1  0  0  0  0  0  0  0  0  0
   13.1663  -14.5911   20.1581 C   0  0  0  0  0  0  0  0  0  0  0  0
   14.1288  -15.1202   21.1675 C   0  0  0  0  0  0  0  0  0  0  0  0
   15.4111  -14.4185   21.2228 C   0  0  0  0  0  0  0  0  0  0  0  0
   16.0825  -14.5502   22.3010 O   0  0  0  0  0  0  0  0  0  0  0  0
   11.0905  -15.3519   21.2787 C   0  0  0  0  0  0  0  0  0  0  0  0
   11.4902  -15.9378   22.3041 O   0  0  0  0  0  0  0  0  0  0  0  0
   15.9677  -13.6389   20.2485 O   0  0  0  0  0  0  0  0  0  0  0  0
    9.9037  -14.6631   21.3080 O   0  0  0  0  0  0  0  0  0  0  0  0
  2  1  1  6
  2  4  1  0
  3  2  1  0
  4  5  1  1
  6  4  1  0
  6  7  2  0
  8  6  1  0
  9  8  1  0
  9 10  1  1
 11 15  1  0
 11 10  1  0
 12 11  2  0
 13 12  1  0
 13 14  1  0
 14 15  2  0
 16  9  1  0
 17 16  2  0
 18 16  1  0
 19 18  1  0
 20 21  1  0
 19 20  1  1
 22 26  1  0
 22 21  1  0
 23 22  2  0
 24 27  1  0
 24 19  1  0
 25 24  2  0
M  END
$$$$
