THE.pdb
     RDKit          3D

 27 27  0  0  1  0  0  0  0  0999 V2000
    6.7664  -13.2350   24.1398 C   0  0  0  0  0  0  0  0  0  0  0  0
    7.8818  -13.8957   23.3731 C   0  0  1  0  0  0  0  0  0  0  0  0
    8.4690  -14.8376   24.2499 O   0  0  0  0  0  0  0  0  0  0  0  0
    7.3921  -14.6713   22.1842 C   0  0  2  0  0  0  0  0  0  0  0  0
    6.4817  -15.7200   22.4935 N   0  0  0  0  0  0  0  0  0  0  0  0
    8.6035  -15.2467   21.5133 C   0  0  0  0  0  0  0  0  0  0  0  0
    8.8630  -16.4586   21.7203 O   0  0  0  0  0  0  0  0  0  0  0  0
    9.4159  -14.4504   20.6825 N   0  0  0  0  0  0  0  0  0  0  0  0
   10.5526  -14.9121   19.9590 C   0  0  1  0  0  0  0  0  0  0  0  0
   10.9068  -14.0782   18.7683 C   0  0  0  0  0  0  0  0  0  0  0  0
    9.9146  -14.2829   17.6696 C   0  0  0  0  0  0  0  0  0  0  0  0
    8.8538  -15.1447   17.6616 C   0  0  0  0  0  0  0  0  0  0  0  0
    8.2307  -15.0037   16.4827 N   0  0  0  0  0  0  0  0  0  0  0  0
    8.8738  -14.0787   15.7569 C   0  0  0  0  0  0  0  0  0  0  0  0
    9.9065  -13.6427   16.4958 N   0  0  0  0  0  0  0  0  0  0  0  0
   11.7374  -15.1633   20.8524 C   0  0  0  0  0  0  0  0  0  0  0  0
   12.5126  -14.2578   21.1903 O   0  0  0  0  0  0  0  0  0  0  0  0
   11.9998  -16.4850   21.3426 N   0  0  0  0  0  0  0  0  0  0  0  0
   12.8866  -16.7067   22.4729 C   0  0  1  0  0  0  0  0  0  0  0  0
   12.0710  -17.4803   23.4882 C   0  0  0  0  0  0  0  0  0  0  0  0
   12.8463  -17.8872   24.6959 C   0  0  0  0  0  0  0  0  0  0  0  0
   12.0988  -18.6851   25.6677 C   0  0  0  0  0  0  0  0  0  0  0  0
   12.2817  -19.9482   25.6235 O   0  0  0  0  0  0  0  0  0  0  0  0
   14.0529  -17.4670   21.9998 C   0  0  0  0  0  0  0  0  0  0  0  0
   15.0505  -17.5952   22.7367 O   0  0  0  0  0  0  0  0  0  0  0  0
   11.2277  -18.2274   26.6156 O   0  0  0  0  0  0  0  0  0  0  0  0
   14.0517  -18.0374   20.7515 O   0  0  0  0  0  0  0  0  0  0  0  0
  2  1  1  1
  2  4  1  0
  3  2  1  0
  4  5  1  1
  6  4  1  0
  6  7  2  0
  8  6  1  0
  9  8  1  0
  9 10  1  6
 11 15  1  0
 11 10  1  0
 12 11  2  0
 13 12  1  0
 13 14  1  0
 14 15  2  0
 16  9  1  0
 17 16  2  0
 18 16  1  0
 19 18  1  0
 20 21  1  0
 19 20  1  1
 22 26  1  0
 22 21  1  0
 23 22  2  0
 24 27  1  0
 24 19  1  0
 25 24  2  0
M  END
$$$$
