THE.pdb
     RDKit          3D

 27 27  0  0  1  0  0  0  0  0999 V2000
   11.2562  -16.7671   14.4405 C   0  0  0  0  0  0  0  0  0  0  0  0
   11.3860  -16.0486   15.7579 C   0  0  1  0  0  0  0  0  0  0  0  0
   10.2471  -15.2183   15.8765 O   0  0  0  0  0  0  0  0  0  0  0  0
   11.3558  -16.9802   16.9352 C   0  0  2  0  0  0  0  0  0  0  0  0
   10.1789  -17.7737   17.0343 N   0  0  0  0  0  0  0  0  0  0  0  0
   11.4870  -16.1304   18.1637 C   0  0  0  0  0  0  0  0  0  0  0  0
   12.4777  -15.3608   18.2360 O   0  0  0  0  0  0  0  0  0  0  0  0
   10.5298  -16.1986   19.1949 N   0  0  0  0  0  0  0  0  0  0  0  0
   10.5967  -15.4854   20.4260 C   0  0  1  0  0  0  0  0  0  0  0  0
    9.2777  -14.9792   20.9184 C   0  0  0  0  0  0  0  0  0  0  0  0
    8.6413  -14.0916   19.8982 C   0  0  0  0  0  0  0  0  0  0  0  0
    8.9181  -12.7749   19.6579 C   0  0  0  0  0  0  0  0  0  0  0  0
    8.1173  -12.3717   18.6609 N   0  0  0  0  0  0  0  0  0  0  0  0
    7.3502  -13.4002   18.2740 C   0  0  0  0  0  0  0  0  0  0  0  0
    7.6806  -14.4516   19.0408 N   0  0  0  0  0  0  0  0  0  0  0  0
   11.3493  -16.2425   21.4869 C   0  0  0  0  0  0  0  0  0  0  0  0
   11.0388  -17.3943   21.8211 O   0  0  0  0  0  0  0  0  0  0  0  0
   12.4667  -15.6333   22.1476 N   0  0  0  0  0  0  0  0  0  0  0  0
   13.4562  -16.4355   22.8481 C   0  0  1  0  0  0  0  0  0  0  0  0
   14.7589  -15.6710   22.7343 C   0  0  0  0  0  0  0  0  0  0  0  0
   15.9259  -16.3821   23.3323 C   0  0  0  0  0  0  0  0  0  0  0  0
   17.1857  -15.6399   23.2924 C   0  0  0  0  0  0  0  0  0  0  0  0
   17.6292  -15.2168   24.4127 O   0  0  0  0  0  0  0  0  0  0  0  0
   13.0198  -16.5873   24.2441 C   0  0  0  0  0  0  0  0  0  0  0  0
   13.5821  -17.4196   24.9829 O   0  0  0  0  0  0  0  0  0  0  0  0
   17.9384  -15.3503   22.1894 O   0  0  0  0  0  0  0  0  0  0  0  0
   11.9969  -15.8187   24.7407 O   0  0  0  0  0  0  0  0  0  0  0  0
  2  1  1  6
  2  4  1  0
  3  2  1  0
  4  5  1  1
  6  4  1  0
  6  7  2  0
  8  6  1  0
  9  8  1  0
  9 10  1  1
 11 15  1  0
 11 10  1  0
 12 11  2  0
 13 12  1  0
 13 14  1  0
 14 15  2  0
 16  9  1  0
 17 16  2  0
 18 16  1  0
 19 18  1  0
 20 21  1  0
 19 20  1  1
 22 26  1  0
 22 21  1  0
 23 22  2  0
 24 27  1  0
 24 19  1  0
 25 24  2  0
M  END
$$$$
