THE.pdb
     RDKit          3D

 27 27  0  0  1  0  0  0  0  0999 V2000
    7.0448  -12.5593   18.4596 C   0  0  0  0  0  0  0  0  0  0  0  0
    7.8217  -13.6952   19.0716 C   0  0  1  0  0  0  0  0  0  0  0  0
    7.8502  -14.7284   18.1061 O   0  0  0  0  0  0  0  0  0  0  0  0
    9.2529  -13.3378   19.3522 C   0  0  2  0  0  0  0  0  0  0  0  0
   10.0337  -13.0620   18.1952 N   0  0  0  0  0  0  0  0  0  0  0  0
    9.8521  -14.4969   20.0912 C   0  0  0  0  0  0  0  0  0  0  0  0
    9.2742  -14.8806   21.1390 O   0  0  0  0  0  0  0  0  0  0  0  0
   11.0208  -15.1272   19.6210 N   0  0  0  0  0  0  0  0  0  0  0  0
   11.6054  -16.2980   20.1833 C   0  0  1  0  0  0  0  0  0  0  0  0
   12.1147  -17.2788   19.1748 C   0  0  0  0  0  0  0  0  0  0  0  0
   10.9783  -17.9787   18.5021 C   0  0  0  0  0  0  0  0  0  0  0  0
    9.9460  -18.6456   19.1001 C   0  0  0  0  0  0  0  0  0  0  0  0
    9.1560  -19.1193   18.1257 N   0  0  0  0  0  0  0  0  0  0  0  0
    9.6675  -18.7660   16.9385 C   0  0  0  0  0  0  0  0  0  0  0  0
   10.7868  -18.0658   17.1817 N   0  0  0  0  0  0  0  0  0  0  0  0
   12.6321  -15.9772   21.2360 C   0  0  0  0  0  0  0  0  0  0  0  0
   13.5166  -15.1282   21.0578 O   0  0  0  0  0  0  0  0  0  0  0  0
   12.6074  -16.6622   22.4954 N   0  0  0  0  0  0  0  0  0  0  0  0
   13.5665  -16.3490   23.5420 C   0  0  1  0  0  0  0  0  0  0  0  0
   13.1337  -17.1548   24.7493 C   0  0  0  0  0  0  0  0  0  0  0  0
   11.7948  -16.7671   25.2806 C   0  0  0  0  0  0  0  0  0  0  0  0
   11.2876  -17.6209   26.3546 C   0  0  0  0  0  0  0  0  0  0  0  0
   12.0067  -18.6302   26.6628 O   0  0  0  0  0  0  0  0  0  0  0  0
   14.9050  -16.7312   23.0681 C   0  0  0  0  0  0  0  0  0  0  0  0
   15.9075  -16.1110   23.4741 O   0  0  0  0  0  0  0  0  0  0  0  0
   10.1306  -17.4568   27.0626 O   0  0  0  0  0  0  0  0  0  0  0  0
   15.0593  -17.7671   22.1810 O   0  0  0  0  0  0  0  0  0  0  0  0
  2  1  1  6
  2  4  1  0
  3  2  1  0
  4  5  1  6
  6  4  1  0
  6  7  2  0
  8  6  1  0
  9  8  1  0
  9 10  1  6
 11 15  1  0
 11 10  1  0
 12 11  2  0
 13 12  1  0
 13 14  1  0
 14 15  2  0
 16  9  1  0
 17 16  2  0
 18 16  1  0
 19 18  1  0
 20 21  1  0
 19 20  1  1
 22 26  1  0
 22 21  1  0
 23 22  2  0
 24 27  1  0
 24 19  1  0
 25 24  2  0
M  END
$$$$
