THE.pdb
     RDKit          3D

 27 27  0  0  1  0  0  0  0  0999 V2000
   13.0610  -17.2049   16.0950 C   0  0  0  0  0  0  0  0  0  0  0  0
   11.8331  -16.4442   15.6686 C   0  0  1  0  0  0  0  0  0  0  0  0
   11.3318  -17.1015   14.5209 O   0  0  0  0  0  0  0  0  0  0  0  0
   10.7366  -16.4858   16.6936 C   0  0  2  0  0  0  0  0  0  0  0  0
    9.4895  -15.9634   16.2505 N   0  0  0  0  0  0  0  0  0  0  0  0
   11.2159  -15.6939   17.8734 C   0  0  0  0  0  0  0  0  0  0  0  0
   11.5476  -14.4981   17.6759 O   0  0  0  0  0  0  0  0  0  0  0  0
   11.2887  -16.2773   19.1535 N   0  0  0  0  0  0  0  0  0  0  0  0
   11.1215  -15.5802   20.3843 C   0  0  1  0  0  0  0  0  0  0  0  0
    9.6956  -15.3424   20.7700 C   0  0  0  0  0  0  0  0  0  0  0  0
    9.1310  -14.1867   20.0090 C   0  0  0  0  0  0  0  0  0  0  0  0
    9.7837  -13.3869   19.1132 C   0  0  0  0  0  0  0  0  0  0  0  0
    8.9028  -12.4784   18.6697 N   0  0  0  0  0  0  0  0  0  0  0  0
    7.7206  -12.6904   19.2641 C   0  0  0  0  0  0  0  0  0  0  0  0
    7.8723  -13.7421   20.0847 N   0  0  0  0  0  0  0  0  0  0  0  0
   11.9206  -16.1925   21.5031 C   0  0  0  0  0  0  0  0  0  0  0  0
   11.6223  -17.2848   22.0058 O   0  0  0  0  0  0  0  0  0  0  0  0
   13.0697  -15.5095   22.0220 N   0  0  0  0  0  0  0  0  0  0  0  0
   14.1579  -16.2386   22.6525 C   0  0  1  0  0  0  0  0  0  0  0  0
   15.3752  -15.3456   22.5292 C   0  0  0  0  0  0  0  0  0  0  0  0
   16.5905  -15.8922   23.1998 C   0  0  0  0  0  0  0  0  0  0  0  0
   17.7521  -15.0032   23.1891 C   0  0  0  0  0  0  0  0  0  0  0  0
   17.9804  -14.3831   22.0963 O   0  0  0  0  0  0  0  0  0  0  0  0
   13.7914  -16.4900   24.0541 C   0  0  0  0  0  0  0  0  0  0  0  0
   12.8909  -15.8147   24.5907 O   0  0  0  0  0  0  0  0  0  0  0  0
   18.6180  -14.7645   24.2187 O   0  0  0  0  0  0  0  0  0  0  0  0
   14.4338  -17.4636   24.7773 O   0  0  0  0  0  0  0  0  0  0  0  0
  2  1  1  1
  2  4  1  0
  3  2  1  0
  4  5  1  6
  6  4  1  0
  6  7  2  0
  8  6  1  0
  9  8  1  0
  9 10  1  1
 11 15  1  0
 11 10  1  0
 12 11  2  0
 13 12  1  0
 13 14  1  0
 14 15  2  0
 16  9  1  0
 17 16  2  0
 18 16  1  0
 19 18  1  0
 20 21  1  0
 19 20  1  1
 22 26  1  0
 22 21  1  0
 23 22  2  0
 24 27  1  0
 24 19  1  0
 25 24  2  0
M  END
$$$$
