THE.pdb
     RDKit          3D

 27 27  0  0  1  0  0  0  0  0999 V2000
   10.7985  -18.2125   12.9695 C   0  0  0  0  0  0  0  0  0  0  0  0
   10.7120  -17.4579   14.2701 C   0  0  1  0  0  0  0  0  0  0  0  0
   11.8895  -17.7643   14.9913 O   0  0  0  0  0  0  0  0  0  0  0  0
   10.7066  -15.9684   14.0804 C   0  0  2  0  0  0  0  0  0  0  0  0
   11.8148  -15.4593   13.3475 N   0  0  0  0  0  0  0  0  0  0  0  0
   10.6936  -15.3572   15.4497 C   0  0  0  0  0  0  0  0  0  0  0  0
   11.8018  -15.0951   15.9808 O   0  0  0  0  0  0  0  0  0  0  0  0
    9.4782  -15.0898   16.1099 N   0  0  0  0  0  0  0  0  0  0  0  0
    9.3578  -14.5203   17.4098 C   0  0  1  0  0  0  0  0  0  0  0  0
    7.9569  -14.1737   17.8044 C   0  0  0  0  0  0  0  0  0  0  0  0
    7.9360  -13.5189   19.1477 C   0  0  0  0  0  0  0  0  0  0  0  0
    8.1448  -12.1976   19.4283 C   0  0  0  0  0  0  0  0  0  0  0  0
    8.0349  -12.0469   20.7561 N   0  0  0  0  0  0  0  0  0  0  0  0
    7.7636  -13.2368   21.3096 C   0  0  0  0  0  0  0  0  0  0  0  0
    7.7051  -14.1338   20.3124 N   0  0  0  0  0  0  0  0  0  0  0  0
   10.0611  -15.3365   18.4607 C   0  0  0  0  0  0  0  0  0  0  0  0
   10.0037  -16.5739   18.4829 O   0  0  0  0  0  0  0  0  0  0  0  0
   10.8298  -14.6848   19.4808 N   0  0  0  0  0  0  0  0  0  0  0  0
   11.6058  -15.4497   20.4431 C   0  0  1  0  0  0  0  0  0  0  0  0
   12.9522  -14.7605   20.5244 C   0  0  0  0  0  0  0  0  0  0  0  0
   13.8826  -15.3764   21.5144 C   0  0  0  0  0  0  0  0  0  0  0  0
   15.2982  -15.0792   21.2969 C   0  0  0  0  0  0  0  0  0  0  0  0
   15.7879  -14.1214   21.9853 O   0  0  0  0  0  0  0  0  0  0  0  0
   10.8919  -15.4304   21.7285 C   0  0  0  0  0  0  0  0  0  0  0  0
   11.3628  -16.0399   22.7090 O   0  0  0  0  0  0  0  0  0  0  0  0
   16.1522  -15.7131   20.4392 O   0  0  0  0  0  0  0  0  0  0  0  0
    9.7095  -14.7455   21.8573 O   0  0  0  0  0  0  0  0  0  0  0  0
  2  1  1  6
  2  4  1  0
  3  2  1  0
  4  5  1  1
  6  4  1  0
  6  7  2  0
  8  6  1  0
  9  8  1  0
  9 10  1  1
 11 15  1  0
 11 10  1  0
 12 11  2  0
 13 12  1  0
 13 14  1  0
 14 15  2  0
 16  9  1  0
 17 16  2  0
 18 16  1  0
 19 18  1  0
 20 21  1  0
 19 20  1  1
 22 26  1  0
 22 21  1  0
 23 22  2  0
 24 27  1  0
 24 19  1  0
 25 24  2  0
M  END
$$$$
