THE.pdb
     RDKit          3D

 27 27  0  0  1  0  0  0  0  0999 V2000
    6.7096  -14.7387   17.8461 C   0  0  0  0  0  0  0  0  0  0  0  0
    7.2710  -14.7610   19.2435 C   0  0  1  0  0  0  0  0  0  0  0  0
    8.5943  -15.2490   19.1370 O   0  0  0  0  0  0  0  0  0  0  0  0
    7.3717  -13.3924   19.8530 C   0  0  2  0  0  0  0  0  0  0  0  0
    8.1492  -12.4651   19.1047 N   0  0  0  0  0  0  0  0  0  0  0  0
    7.9796  -13.5672   21.2126 C   0  0  0  0  0  0  0  0  0  0  0  0
    9.2330  -13.5420   21.2974 O   0  0  0  0  0  0  0  0  0  0  0  0
    7.1674  -13.7524   22.3486 N   0  0  0  0  0  0  0  0  0  0  0  0
    7.6441  -13.9216   23.6801 C   0  0  1  0  0  0  0  0  0  0  0  0
    6.6122  -13.6917   24.7388 C   0  0  0  0  0  0  0  0  0  0  0  0
    7.2373  -13.7172   26.0961 C   0  0  0  0  0  0  0  0  0  0  0  0
    7.5838  -12.6442   26.8685 C   0  0  0  0  0  0  0  0  0  0  0  0
    8.1112  -13.1213   28.0053 N   0  0  0  0  0  0  0  0  0  0  0  0
    8.1026  -14.4606   27.9620 C   0  0  0  0  0  0  0  0  0  0  0  0
    7.5636  -14.8158   26.7848 N   0  0  0  0  0  0  0  0  0  0  0  0
    8.3725  -15.2253   23.8669 C   0  0  0  0  0  0  0  0  0  0  0  0
    7.8855  -16.3092   23.5165 O   0  0  0  0  0  0  0  0  0  0  0  0
    9.6746  -15.2406   24.4674 N   0  0  0  0  0  0  0  0  0  0  0  0
   10.4145  -16.4815   24.6295 C   0  0  1  0  0  0  0  0  0  0  0  0
   11.7724  -16.2335   24.0059 C   0  0  0  0  0  0  0  0  0  0  0  0
   12.7133  -17.3832   24.1405 C   0  0  0  0  0  0  0  0  0  0  0  0
   14.0326  -17.1723   23.5449 C   0  0  0  0  0  0  0  0  0  0  0  0
   14.5148  -15.9937   23.6400 O   0  0  0  0  0  0  0  0  0  0  0  0
   10.5074  -16.7767   26.0669 C   0  0  0  0  0  0  0  0  0  0  0  0
   10.3433  -15.8635   26.8998 O   0  0  0  0  0  0  0  0  0  0  0  0
   14.8037  -18.0970   22.8991 O   0  0  0  0  0  0  0  0  0  0  0  0
   10.7738  -18.0517   26.4994 O   0  0  0  0  0  0  0  0  0  0  0  0
  2  1  1  6
  2  4  1  0
  3  2  1  0
  4  5  1  6
  6  4  1  0
  6  7  2  0
  8  6  1  0
  9  8  1  0
  9 10  1  1
 11 15  1  0
 11 10  1  0
 12 11  2  0
 13 12  1  0
 13 14  1  0
 14 15  2  0
 16  9  1  0
 17 16  2  0
 18 16  1  0
 19 18  1  0
 20 21  1  0
 19 20  1  1
 22 26  1  0
 22 21  1  0
 23 22  2  0
 24 27  1  0
 24 19  1  0
 25 24  2  0
M  END
$$$$
