THE.pdb
     RDKit          3D

 27 27  0  0  1  0  0  0  0  0999 V2000
   13.1130  -18.5838   14.0998 C   0  0  0  0  0  0  0  0  0  0  0  0
   12.9586  -17.7597   15.3510 C   0  0  1  0  0  0  0  0  0  0  0  0
   14.2665  -17.4601   15.7985 O   0  0  0  0  0  0  0  0  0  0  0  0
   12.2838  -16.4417   15.1012 C   0  0  2  0  0  0  0  0  0  0  0  0
   12.9404  -15.6090   14.1525 N   0  0  0  0  0  0  0  0  0  0  0  0
   12.2151  -15.7331   16.4209 C   0  0  0  0  0  0  0  0  0  0  0  0
   13.0578  -14.8270   16.6396 O   0  0  0  0  0  0  0  0  0  0  0  0
   11.2379  -16.0770   17.3755 N   0  0  0  0  0  0  0  0  0  0  0  0
   11.0621  -15.4395   18.6370 C   0  0  1  0  0  0  0  0  0  0  0  0
    9.6342  -15.1964   19.0120 C   0  0  0  0  0  0  0  0  0  0  0  0
    8.9644  -14.3290   17.9958 C   0  0  0  0  0  0  0  0  0  0  0  0
    8.8484  -12.9673   18.0167 C   0  0  0  0  0  0  0  0  0  0  0  0
    8.1763  -12.6047   16.9146 N   0  0  0  0  0  0  0  0  0  0  0  0
    7.8708  -13.7020   16.2086 C   0  0  0  0  0  0  0  0  0  0  0  0
    8.3598  -14.7555   16.8821 N   0  0  0  0  0  0  0  0  0  0  0  0
   11.8324  -16.1208   19.7359 C   0  0  0  0  0  0  0  0  0  0  0  0
   11.7480  -17.3393   19.9431 O   0  0  0  0  0  0  0  0  0  0  0  0
   12.6998  -15.3571   20.5848 N   0  0  0  0  0  0  0  0  0  0  0  0
   13.4611  -15.9907   21.6489 C   0  0  1  0  0  0  0  0  0  0  0  0
   14.6263  -15.0637   21.9273 C   0  0  0  0  0  0  0  0  0  0  0  0
   15.6227  -15.0032   20.8188 C   0  0  0  0  0  0  0  0  0  0  0  0
   16.7506  -14.1017   21.0532 C   0  0  0  0  0  0  0  0  0  0  0  0
   17.5635  -13.9472   20.0805 O   0  0  0  0  0  0  0  0  0  0  0  0
   12.5800  -16.1435   22.8161 C   0  0  0  0  0  0  0  0  0  0  0  0
   11.4460  -15.6252   22.8096 O   0  0  0  0  0  0  0  0  0  0  0  0
   17.0289  -13.4083   22.1972 O   0  0  0  0  0  0  0  0  0  0  0  0
   12.9969  -16.8534   23.9143 O   0  0  0  0  0  0  0  0  0  0  0  0
  2  1  1  6
  2  4  1  0
  3  2  1  0
  4  5  1  6
  6  4  1  0
  6  7  2  0
  8  6  1  0
  9  8  1  0
  9 10  1  1
 11 15  1  0
 11 10  1  0
 12 11  2  0
 13 12  1  0
 13 14  1  0
 14 15  2  0
 16  9  1  0
 17 16  2  0
 18 16  1  0
 19 18  1  0
 20 21  1  0
 19 20  1  1
 22 26  1  0
 22 21  1  0
 23 22  2  0
 24 27  1  0
 24 19  1  0
 25 24  2  0
M  END
$$$$
