ANR.pdb
     RDKit          3D

 25 24  0  0  1  0  0  0  0  0999 V2000
   12.5010  -17.8617   15.1965 C   0  0  0  0  0  0  0  0  0  0  0  0
   11.8662  -17.2683   16.4294 C   0  0  2  0  0  0  0  0  0  0  0  0
   11.1222  -16.0571   16.1170 N   0  0  0  0  0  0  0  0  0  0  0  0
   12.9233  -16.9801   17.4456 C   0  0  0  0  0  0  0  0  0  0  0  0
   13.5696  -17.9449   17.9275 O   0  0  0  0  0  0  0  0  0  0  0  0
   16.1016  -13.3878   16.5186 N   0  0  0  0  0  0  0  0  0  0  0  0
   15.9770  -14.3875   17.5064 C   0  0  0  0  0  0  0  0  0  0  0  0
   16.6689  -15.4207   17.4203 O   0  0  0  0  0  0  0  0  0  0  0  0
   15.0448  -14.2067   18.6156 C   0  0  0  0  0  0  0  0  0  0  0  0
   14.2165  -15.4288   18.9137 C   0  0  2  0  0  0  0  0  0  0  0  0
   13.2272  -15.6802   17.8865 N   0  0  0  0  0  0  0  0  0  0  0  0
   13.5095  -15.1651   20.2009 C   0  0  0  0  0  0  0  0  0  0  0  0
   13.8190  -14.1429   20.8758 O   0  0  0  0  0  0  0  0  0  0  0  0
    7.9350  -12.2633   20.4279 N   0  0  0  0  0  0  0  0  0  0  0  0
    8.1831  -12.9984   19.2502 C   0  0  0  0  0  0  0  0  0  0  0  0
    8.6210  -12.4617   18.1571 N   0  0  0  0  0  0  0  0  0  0  0  0
    7.9474  -14.4153   19.2321 N   0  0  0  0  0  0  0  0  0  0  0  0
    8.3854  -15.1994   20.3574 C   0  0  0  0  0  0  0  0  0  0  0  0
    9.8573  -14.9013   20.6195 C   0  0  0  0  0  0  0  0  0  0  0  0
   10.3566  -15.8306   21.6669 C   0  0  0  0  0  0  0  0  0  0  0  0
   11.8155  -15.6774   21.9732 C   0  0  2  0  0  0  0  0  0  0  0  0
   12.5068  -15.9990   20.7118 N   0  0  0  0  0  0  0  0  0  0  0  0
   12.2167  -16.6131   23.0254 C   0  0  0  0  0  0  0  0  0  0  0  0
   13.0716  -17.6651   22.7993 O   0  0  0  0  0  0  0  0  0  0  0  0
   11.7706  -16.4774   24.2153 O   0  0  0  0  0  0  0  0  0  0  0  0
  2  1  1  6
  2  3  1  0
  4  2  1  0
  5  4  2  0
  6  7  1  0
  7  9  1  0
  8  7  2  0
 10  9  1  6
 10 11  1  0
 11  4  1  0
 12 10  1  0
 12 22  1  0
 13 12  2  0
 15 16  2  0
 15 14  1  0
 17 15  1  0
 18 17  1  0
 19 18  1  0
 21 20  1  6
 20 19  1  0
 21 22  1  0
 21 23  1  0
 23 24  1  0
 25 23  2  0
M  END
$$$$
