ANR.pdb
     RDKit          3D

 25 24  0  0  1  0  0  0  0  0999 V2000
   11.5065  -17.0895   18.6622 C   0  0  0  0  0  0  0  0  0  0  0  0
   10.7625  -17.3410   19.9500 C   0  0  2  0  0  0  0  0  0  0  0  0
    9.6460  -18.2536   19.7525 N   0  0  0  0  0  0  0  0  0  0  0  0
   10.2783  -16.0423   20.5086 C   0  0  0  0  0  0  0  0  0  0  0  0
   11.1274  -15.1620   20.8001 O   0  0  0  0  0  0  0  0  0  0  0  0
    7.9226  -12.2322   18.8298 N   0  0  0  0  0  0  0  0  0  0  0  0
    7.5547  -13.5646   19.1127 C   0  0  0  0  0  0  0  0  0  0  0  0
    7.4807  -14.3887   18.1806 O   0  0  0  0  0  0  0  0  0  0  0  0
    7.2649  -13.9667   20.4862 C   0  0  0  0  0  0  0  0  0  0  0  0
    8.4682  -14.4816   21.2313 C   0  0  2  0  0  0  0  0  0  0  0  0
    8.9176  -15.7609   20.7227 N   0  0  0  0  0  0  0  0  0  0  0  0
    8.0512  -14.6550   22.6534 C   0  0  0  0  0  0  0  0  0  0  0  0
    6.8441  -14.4579   22.9700 O   0  0  0  0  0  0  0  0  0  0  0  0
    5.6525  -21.5464   23.4030 N   0  0  0  0  0  0  0  0  0  0  0  0
    4.9849  -20.3153   23.5691 C   0  0  0  0  0  0  0  0  0  0  0  0
    3.8029  -20.0793   23.0983 N   0  0  0  0  0  0  0  0  0  0  0  0
    5.6234  -19.2508   24.2922 N   0  0  0  0  0  0  0  0  0  0  0  0
    7.0366  -19.3461   24.5503 C   0  0  0  0  0  0  0  0  0  0  0  0
    7.4913  -18.0782   25.2642 C   0  0  0  0  0  0  0  0  0  0  0  0
    7.9463  -17.0922   24.2489 C   0  0  0  0  0  0  0  0  0  0  0  0
    8.4753  -15.8168   24.8314 C   0  0  2  0  0  0  0  0  0  0  0  0
    8.9352  -15.0295   23.6733 N   0  0  0  0  0  0  0  0  0  0  0  0
    9.5941  -16.0938   25.7341 C   0  0  0  0  0  0  0  0  0  0  0  0
    9.4175  -16.4816   27.0407 O   0  0  0  0  0  0  0  0  0  0  0  0
   10.7990  -15.9782   25.3244 O   0  0  0  0  0  0  0  0  0  0  0  0
  2  1  1  6
  2  3  1  0
  4  2  1  0
  5  4  2  0
  6  7  1  0
  7  9  1  0
  8  7  2  0
 10  9  1  6
 10 11  1  0
 11  4  1  0
 12 10  1  0
 12 22  1  0
 13 12  2  0
 15 16  2  0
 15 14  1  0
 17 15  1  0
 18 17  1  0
 19 18  1  0
 21 20  1  6
 20 19  1  0
 21 22  1  0
 21 23  1  0
 23 24  1  0
 25 23  2  0
M  END
$$$$
