ANR.pdb
     RDKit          3D

 25 24  0  0  1  0  0  0  0  0999 V2000
    7.1391  -13.5183   17.6935 C   0  0  0  0  0  0  0  0  0  0  0  0
    8.2988  -13.3000   18.6329 C   0  0  2  0  0  0  0  0  0  0  0  0
    9.4679  -12.7932   17.9296 N   0  0  0  0  0  0  0  0  0  0  0  0
    8.6267  -14.5819   19.3275 C   0  0  0  0  0  0  0  0  0  0  0  0
    7.7028  -15.1949   19.9205 O   0  0  0  0  0  0  0  0  0  0  0  0
   10.7943  -18.9897   18.1002 N   0  0  0  0  0  0  0  0  0  0  0  0
   11.2449  -17.6558   18.1922 C   0  0  0  0  0  0  0  0  0  0  0  0
   11.4653  -17.0123   17.1478 O   0  0  0  0  0  0  0  0  0  0  0  0
   11.4487  -17.0421   19.5013 C   0  0  0  0  0  0  0  0  0  0  0  0
   10.2200  -16.3640   20.0482 C   0  0  2  0  0  0  0  0  0  0  0  0
    9.9200  -15.1326   19.3477 N   0  0  0  0  0  0  0  0  0  0  0  0
   10.5072  -16.0411   21.4763 C   0  0  0  0  0  0  0  0  0  0  0  0
   11.2620  -15.0649   21.7476 O   0  0  0  0  0  0  0  0  0  0  0  0
    6.6442  -13.5647   27.4973 N   0  0  0  0  0  0  0  0  0  0  0  0
    6.6593  -12.4590   26.6221 C   0  0  0  0  0  0  0  0  0  0  0  0
    6.5917  -11.2318   27.0270 N   0  0  0  0  0  0  0  0  0  0  0  0
    6.7537  -12.6738   25.2049 N   0  0  0  0  0  0  0  0  0  0  0  0
    6.8836  -14.0238   24.7214 C   0  0  0  0  0  0  0  0  0  0  0  0
    8.3655  -14.3608   24.6006 C   0  0  0  0  0  0  0  0  0  0  0  0
    8.5020  -15.7453   24.0767 C   0  0  0  0  0  0  0  0  0  0  0  0
    9.9210  -16.1960   23.9065 C   0  0  2  0  0  0  0  0  0  0  0  0
    9.9798  -16.7697   22.5500 N   0  0  0  0  0  0  0  0  0  0  0  0
   10.2559  -17.2142   24.9038 C   0  0  0  0  0  0  0  0  0  0  0  0
   10.5955  -16.9039   26.1989 O   0  0  0  0  0  0  0  0  0  0  0  0
   10.2445  -18.4533   24.5913 O   0  0  0  0  0  0  0  0  0  0  0  0
  2  1  1  6
  2  3  1  0
  4  2  1  0
  5  4  2  0
  6  7  1  0
  7  9  1  0
  8  7  2  0
 10  9  1  6
 10 11  1  0
 11  4  1  0
 12 10  1  0
 12 22  1  0
 13 12  2  0
 15 16  2  0
 15 14  1  0
 17 15  1  0
 18 17  1  0
 19 18  1  0
 21 20  1  1
 20 19  1  0
 21 22  1  0
 21 23  1  0
 23 24  1  0
 25 23  2  0
M  END
$$$$
