ANR.pdb
     RDKit          3D

 25 24  0  0  1  0  0  0  0  0999 V2000
    7.1218  -12.7330   19.6242 C   0  0  0  0  0  0  0  0  0  0  0  0
    8.3741  -13.4578   19.1982 C   0  0  2  0  0  0  0  0  0  0  0  0
    8.3536  -13.7699   17.7768 N   0  0  0  0  0  0  0  0  0  0  0  0
    8.5246  -14.7087   20.0018 C   0  0  0  0  0  0  0  0  0  0  0  0
    8.5083  -14.6204   21.2560 O   0  0  0  0  0  0  0  0  0  0  0  0
    6.2279  -17.4652   19.1615 N   0  0  0  0  0  0  0  0  0  0  0  0
    7.1608  -18.4767   18.8496 C   0  0  0  0  0  0  0  0  0  0  0  0
    6.8203  -19.4108   18.0980 O   0  0  0  0  0  0  0  0  0  0  0  0
    8.5099  -18.4230   19.4055 C   0  0  0  0  0  0  0  0  0  0  0  0
    8.7797  -17.1831   20.2169 C   0  0  2  0  0  0  0  0  0  0  0  0
    8.6834  -15.9783   19.4193 N   0  0  0  0  0  0  0  0  0  0  0  0
   10.1749  -17.3022   20.7323 C   0  0  0  0  0  0  0  0  0  0  0  0
   11.1355  -17.3191   19.9120 O   0  0  0  0  0  0  0  0  0  0  0  0
   16.4823  -13.6693   20.3431 N   0  0  0  0  0  0  0  0  0  0  0  0
   15.7426  -14.1398   19.2384 C   0  0  0  0  0  0  0  0  0  0  0  0
   16.1528  -14.0409   18.0151 N   0  0  0  0  0  0  0  0  0  0  0  0
   14.4666  -14.7647   19.4498 N   0  0  0  0  0  0  0  0  0  0  0  0
   13.9524  -14.8406   20.7925 C   0  0  0  0  0  0  0  0  0  0  0  0
   12.6086  -15.5599   20.7630 C   0  0  0  0  0  0  0  0  0  0  0  0
   12.0941  -15.6739   22.1530 C   0  0  0  0  0  0  0  0  0  0  0  0
   11.8357  -17.0826   22.5943 C   0  0  2  0  0  0  0  0  0  0  0  0
   10.4853  -17.3979   22.0948 N   0  0  0  0  0  0  0  0  0  0  0  0
   11.8715  -17.1742   24.0550 C   0  0  0  0  0  0  0  0  0  0  0  0
   13.0397  -17.3274   24.7625 O   0  0  0  0  0  0  0  0  0  0  0  0
   10.7898  -17.1153   24.7330 O   0  0  0  0  0  0  0  0  0  0  0  0
  2  1  1  1
  2  3  1  0
  4  2  1  0
  5  4  2  0
  6  7  1  0
  7  9  1  0
  8  7  2  0
 10  9  1  6
 10 11  1  0
 11  4  1  0
 12 10  1  0
 12 22  1  0
 13 12  2  0
 15 16  2  0
 15 14  1  0
 17 15  1  0
 18 17  1  0
 19 18  1  0
 21 20  1  1
 20 19  1  0
 21 22  1  0
 21 23  1  0
 23 24  1  0
 25 23  2  0
M  END
$$$$
