ANR.pdb
     RDKit          3D

 25 24  0  0  1  0  0  0  0  0999 V2000
    8.8988  -18.1978   15.7595 C   0  0  0  0  0  0  0  0  0  0  0  0
    9.9314  -17.6274   16.6994 C   0  0  2  0  0  0  0  0  0  0  0  0
   11.2737  -18.0678   16.3495 N   0  0  0  0  0  0  0  0  0  0  0  0
    9.6040  -18.0258   18.1020 C   0  0  0  0  0  0  0  0  0  0  0  0
    8.4783  -17.7123   18.5663 O   0  0  0  0  0  0  0  0  0  0  0  0
   12.8759  -21.3711   21.1169 N   0  0  0  0  0  0  0  0  0  0  0  0
   11.9946  -20.8328   20.1555 C   0  0  0  0  0  0  0  0  0  0  0  0
   12.4281  -20.5458   19.0227 O   0  0  0  0  0  0  0  0  0  0  0  0
   10.5902  -20.6169   20.4914 C   0  0  0  0  0  0  0  0  0  0  0  0
   10.1187  -19.2088   20.2397 C   0  0  2  0  0  0  0  0  0  0  0  0
   10.4969  -18.7345   18.9247 N   0  0  0  0  0  0  0  0  0  0  0  0
   10.7765  -18.3460   21.2640 C   0  0  0  0  0  0  0  0  0  0  0  0
   11.9092  -17.8457   21.0129 O   0  0  0  0  0  0  0  0  0  0  0  0
   10.6068  -15.1850   28.9752 N   0  0  0  0  0  0  0  0  0  0  0  0
   10.0667  -14.1033   28.2492 C   0  0  0  0  0  0  0  0  0  0  0  0
   10.1202  -12.8766   28.6577 N   0  0  0  0  0  0  0  0  0  0  0  0
    9.4185  -14.3437   26.9900 N   0  0  0  0  0  0  0  0  0  0  0  0
    9.2211  -15.7058   26.5674 C   0  0  0  0  0  0  0  0  0  0  0  0
   10.3914  -16.1189   25.6821 C   0  0  0  0  0  0  0  0  0  0  0  0
    9.8597  -16.7692   24.4556 C   0  0  0  0  0  0  0  0  0  0  0  0
   10.9197  -17.2490   23.5111 C   0  0  2  0  0  0  0  0  0  0  0  0
   10.2011  -18.0543   22.5073 N   0  0  0  0  0  0  0  0  0  0  0  0
   11.8982  -18.0757   24.2200 C   0  0  0  0  0  0  0  0  0  0  0  0
   11.7296  -19.4256   24.4153 O   0  0  0  0  0  0  0  0  0  0  0  0
   12.9644  -17.5531   24.6925 O   0  0  0  0  0  0  0  0  0  0  0  0
  2  1  1  6
  2  3  1  0
  4  2  1  0
  5  4  2  0
  6  7  1  0
  7  9  1  0
  8  7  2  0
 10  9  1  1
 10 11  1  0
 11  4  1  0
 12 10  1  0
 12 22  1  0
 13 12  2  0
 15 16  2  0
 15 14  1  0
 17 15  1  0
 18 17  1  0
 19 18  1  0
 21 20  1  1
 20 19  1  0
 21 22  1  0
 21 23  1  0
 23 24  1  0
 25 23  2  0
M  END
$$$$
