ANR.pdb
     RDKit          3D

 25 24  0  0  1  0  0  0  0  0999 V2000
    9.6963  -19.3145   18.0636 C   0  0  0  0  0  0  0  0  0  0  0  0
    9.6819  -18.9669   19.5313 C   0  0  2  0  0  0  0  0  0  0  0  0
    8.5061  -19.5078   20.1970 N   0  0  0  0  0  0  0  0  0  0  0  0
    9.7327  -17.4823   19.6933 C   0  0  0  0  0  0  0  0  0  0  0  0
   10.7945  -16.8824   19.3872 O   0  0  0  0  0  0  0  0  0  0  0  0
    6.4791  -12.5091   21.0000 N   0  0  0  0  0  0  0  0  0  0  0  0
    7.4694  -13.1580   20.2326 C   0  0  0  0  0  0  0  0  0  0  0  0
    8.3779  -12.4826   19.7112 O   0  0  0  0  0  0  0  0  0  0  0  0
    7.4241  -14.6067   20.0556 C   0  0  0  0  0  0  0  0  0  0  0  0
    8.7311  -15.2927   20.3544 C   0  0  2  0  0  0  0  0  0  0  0  0
    8.6479  -16.7269   20.1719 N   0  0  0  0  0  0  0  0  0  0  0  0
    9.0459  -15.0128   21.7858 C   0  0  0  0  0  0  0  0  0  0  0  0
    8.2823  -14.2546   22.4478 O   0  0  0  0  0  0  0  0  0  0  0  0
    6.5961  -20.5393   26.0685 N   0  0  0  0  0  0  0  0  0  0  0  0
    6.9327  -19.7439   27.1833 C   0  0  0  0  0  0  0  0  0  0  0  0
    6.5894  -20.0387   28.3957 N   0  0  0  0  0  0  0  0  0  0  0  0
    7.6940  -18.5402   26.9955 N   0  0  0  0  0  0  0  0  0  0  0  0
    7.7007  -17.9274   25.6927 C   0  0  0  0  0  0  0  0  0  0  0  0
    9.1404  -17.8411   25.1989 C   0  0  0  0  0  0  0  0  0  0  0  0
    9.1598  -17.1216   23.8982 C   0  0  0  0  0  0  0  0  0  0  0  0
   10.0840  -15.9423   23.8671 C   0  0  2  0  0  0  0  0  0  0  0  0
   10.1567  -15.5510   22.4479 N   0  0  0  0  0  0  0  0  0  0  0  0
   11.4102  -16.3206   24.3585 C   0  0  0  0  0  0  0  0  0  0  0  0
   12.5204  -16.3595   23.5494 O   0  0  0  0  0  0  0  0  0  0  0  0
   11.5790  -16.6363   25.5853 O   0  0  0  0  0  0  0  0  0  0  0  0
  2  1  1  6
  2  3  1  0
  4  2  1  0
  5  4  2  0
  6  7  1  0
  7  9  1  0
  8  7  2  0
 10  9  1  1
 10 11  1  0
 11  4  1  0
 12 10  1  0
 12 22  1  0
 13 12  2  0
 15 16  2  0
 15 14  1  0
 17 15  1  0
 18 17  1  0
 19 18  1  0
 21 20  1  6
 20 19  1  0
 21 22  1  0
 21 23  1  0
 23 24  1  0
 25 23  2  0
M  END
$$$$
