ANR.pdb
     RDKit          3D

 25 24  0  0  1  0  0  0  0  0999 V2000
    7.8724  -12.0257   20.3049 C   0  0  0  0  0  0  0  0  0  0  0  0
    7.6672  -13.4709   20.6846 C   0  0  2  0  0  0  0  0  0  0  0  0
    6.2622  -13.8455   20.6222 N   0  0  0  0  0  0  0  0  0  0  0  0
    8.2066  -13.7076   22.0580 C   0  0  0  0  0  0  0  0  0  0  0  0
    9.4494  -13.6345   22.2341 O   0  0  0  0  0  0  0  0  0  0  0  0
    5.2953  -12.2853   25.8048 N   0  0  0  0  0  0  0  0  0  0  0  0
    6.6126  -12.7784   25.9159 C   0  0  0  0  0  0  0  0  0  0  0  0
    7.5161  -12.0210   26.3203 O   0  0  0  0  0  0  0  0  0  0  0  0
    6.9069  -14.1633   25.5589 C   0  0  0  0  0  0  0  0  0  0  0  0
    7.9369  -14.2999   24.4685 C   0  0  2  0  0  0  0  0  0  0  0  0
    7.3879  -14.0080   23.1607 N   0  0  0  0  0  0  0  0  0  0  0  0
    8.3952  -15.7198   24.4860 C   0  0  0  0  0  0  0  0  0  0  0  0
    7.8292  -16.5593   23.7303 O   0  0  0  0  0  0  0  0  0  0  0  0
   14.7341  -19.0344   22.8064 N   0  0  0  0  0  0  0  0  0  0  0  0
   14.0667  -19.6489   21.7267 C   0  0  0  0  0  0  0  0  0  0  0  0
   14.5255  -20.6882   21.1070 N   0  0  0  0  0  0  0  0  0  0  0  0
   12.8130  -19.1175   21.2691 N   0  0  0  0  0  0  0  0  0  0  0  0
   12.3122  -17.9140   21.8805 C   0  0  0  0  0  0  0  0  0  0  0  0
   11.7485  -18.2599   23.2541 C   0  0  0  0  0  0  0  0  0  0  0  0
   10.8188  -17.1799   23.6776 C   0  0  0  0  0  0  0  0  0  0  0  0
   10.1510  -17.4318   24.9953 C   0  0  2  0  0  0  0  0  0  0  0  0
    9.4331  -16.1823   25.3050 N   0  0  0  0  0  0  0  0  0  0  0  0
   11.1501  -17.7131   26.0278 C   0  0  0  0  0  0  0  0  0  0  0  0
   11.4787  -16.8107   27.0108 O   0  0  0  0  0  0  0  0  0  0  0  0
   11.7638  -18.8340   26.0450 O   0  0  0  0  0  0  0  0  0  0  0  0
  2  1  1  1
  2  3  1  0
  4  2  1  0
  5  4  2  0
  6  7  1  0
  7  9  1  0
  8  7  2  0
 10  9  1  1
 10 11  1  0
 11  4  1  0
 12 10  1  0
 12 22  1  0
 13 12  2  0
 15 16  2  0
 15 14  1  0
 17 15  1  0
 18 17  1  0
 19 18  1  0
 21 20  1  6
 20 19  1  0
 21 22  1  0
 21 23  1  0
 23 24  1  0
 25 23  2  0
M  END
$$$$
