ANR.pdb
     RDKit          3D

 25 24  0  0  1  0  0  0  0  0999 V2000
    6.9973  -13.0523   18.6419 C   0  0  0  0  0  0  0  0  0  0  0  0
    8.4113  -13.1218   19.1623 C   0  0  2  0  0  0  0  0  0  0  0  0
    9.3814  -12.8541   18.1109 N   0  0  0  0  0  0  0  0  0  0  0  0
    8.6562  -14.4677   19.7637 C   0  0  0  0  0  0  0  0  0  0  0  0
    7.8605  -14.8843   20.6435 O   0  0  0  0  0  0  0  0  0  0  0  0
   11.2401  -19.8365   19.0031 N   0  0  0  0  0  0  0  0  0  0  0  0
   11.2436  -18.7010   19.8406 C   0  0  0  0  0  0  0  0  0  0  0  0
   11.4428  -18.8442   21.0626 O   0  0  0  0  0  0  0  0  0  0  0  0
   11.0155  -17.3747   19.2743 C   0  0  0  0  0  0  0  0  0  0  0  0
    9.9717  -16.5756   20.0095 C   0  0  2  0  0  0  0  0  0  0  0  0
    9.7352  -15.2880   19.3903 N   0  0  0  0  0  0  0  0  0  0  0  0
   10.4949  -16.3513   21.3887 C   0  0  0  0  0  0  0  0  0  0  0  0
   11.5113  -15.6185   21.5506 O   0  0  0  0  0  0  0  0  0  0  0  0
    5.0609  -13.2275   26.4694 N   0  0  0  0  0  0  0  0  0  0  0  0
    6.2022  -12.4006   26.4202 C   0  0  0  0  0  0  0  0  0  0  0  0
    6.1890  -11.1512   26.7569 N   0  0  0  0  0  0  0  0  0  0  0  0
    7.4566  -12.9437   25.9785 N   0  0  0  0  0  0  0  0  0  0  0  0
    7.4920  -14.3086   25.5217 C   0  0  0  0  0  0  0  0  0  0  0  0
    8.8966  -14.6208   25.0181 C   0  0  0  0  0  0  0  0  0  0  0  0
    8.9116  -15.9986   24.4599 C   0  0  0  0  0  0  0  0  0  0  0  0
   10.2312  -16.4071   23.8788 C   0  0  2  0  0  0  0  0  0  0  0  0
    9.9148  -16.9154   22.5320 N   0  0  0  0  0  0  0  0  0  0  0  0
   10.8409  -17.4623   24.6900 C   0  0  0  0  0  0  0  0  0  0  0  0
   11.1150  -18.7155   24.1968 O   0  0  0  0  0  0  0  0  0  0  0  0
   11.1421  -17.2450   25.9128 O   0  0  0  0  0  0  0  0  0  0  0  0
  2  1  1  6
  2  3  1  0
  4  2  1  0
  5  4  2  0
  6  7  1  0
  7  9  1  0
  8  7  2  0
 10  9  1  6
 10 11  1  0
 11  4  1  0
 12 10  1  0
 12 22  1  0
 13 12  2  0
 15 16  2  0
 15 14  1  0
 17 15  1  0
 18 17  1  0
 19 18  1  0
 21 20  1  1
 20 19  1  0
 21 22  1  0
 21 23  1  0
 23 24  1  0
 25 23  2  0
M  END
$$$$
