ANR.pdb
     RDKit          3D

 25 24  0  0  1  0  0  0  0  0999 V2000
    7.9354  -12.3266   19.2023 C   0  0  0  0  0  0  0  0  0  0  0  0
    8.4480  -13.7386   19.0669 C   0  0  2  0  0  0  0  0  0  0  0  0
    7.4018  -14.6463   18.6199 N   0  0  0  0  0  0  0  0  0  0  0  0
    9.0060  -14.1948   20.3760 C   0  0  0  0  0  0  0  0  0  0  0  0
   10.0880  -13.6925   20.7734 O   0  0  0  0  0  0  0  0  0  0  0  0
    9.8725  -16.6102   24.8517 N   0  0  0  0  0  0  0  0  0  0  0  0
    8.6347  -17.1041   24.3884 C   0  0  0  0  0  0  0  0  0  0  0  0
    8.0327  -17.9668   25.0569 O   0  0  0  0  0  0  0  0  0  0  0  0
    8.0707  -16.6048   23.1376 C   0  0  0  0  0  0  0  0  0  0  0  0
    8.9705  -15.6387   22.4127 C   0  0  2  0  0  0  0  0  0  0  0  0
    8.3763  -15.1592   21.1822 N   0  0  0  0  0  0  0  0  0  0  0  0
   10.2200  -16.3829   22.0792 C   0  0  0  0  0  0  0  0  0  0  0  0
   10.2224  -17.1725   21.0929 O   0  0  0  0  0  0  0  0  0  0  0  0
   16.9356  -13.9495   19.7196 N   0  0  0  0  0  0  0  0  0  0  0  0
   16.4055  -14.3438   18.4737 C   0  0  0  0  0  0  0  0  0  0  0  0
   17.1368  -14.5713   17.4307 N   0  0  0  0  0  0  0  0  0  0  0  0
   14.9864  -14.5096   18.3239 N   0  0  0  0  0  0  0  0  0  0  0  0
   14.1355  -14.1921   19.4410 C   0  0  0  0  0  0  0  0  0  0  0  0
   14.1173  -15.3798   20.3966 C   0  0  0  0  0  0  0  0  0  0  0  0
   12.8512  -15.3505   21.1751 C   0  0  0  0  0  0  0  0  0  0  0  0
   12.7217  -16.4626   22.1713 C   0  0  2  0  0  0  0  0  0  0  0  0
   11.4090  -16.2543   22.8083 N   0  0  0  0  0  0  0  0  0  0  0  0
   13.7897  -16.3803   23.1693 C   0  0  0  0  0  0  0  0  0  0  0  0
   15.0876  -16.7448   22.9020 O   0  0  0  0  0  0  0  0  0  0  0  0
   13.5402  -15.9585   24.3495 O   0  0  0  0  0  0  0  0  0  0  0  0
  2  1  1  1
  2  3  1  0
  4  2  1  0
  5  4  2  0
  6  7  1  0
  7  9  1  0
  8  7  2  0
 10  9  1  6
 10 11  1  0
 11  4  1  0
 12 10  1  0
 12 22  1  0
 13 12  2  0
 15 16  2  0
 15 14  1  0
 17 15  1  0
 18 17  1  0
 19 18  1  0
 21 20  1  6
 20 19  1  0
 21 22  1  0
 21 23  1  0
 23 24  1  0
 25 23  2  0
M  END
$$$$
