ANR.pdb
     RDKit          3D

 25 24  0  0  1  0  0  0  0  0999 V2000
    8.2953  -18.6788   16.4837 C   0  0  0  0  0  0  0  0  0  0  0  0
    8.7057  -18.0138   17.7738 C   0  0  2  0  0  0  0  0  0  0  0  0
    9.2985  -16.7061   17.5359 N   0  0  0  0  0  0  0  0  0  0  0  0
    9.6669  -18.8937   18.5052 C   0  0  0  0  0  0  0  0  0  0  0  0
    9.3045  -20.0608   18.8010 O   0  0  0  0  0  0  0  0  0  0  0  0
   14.3277  -20.1039   17.5061 N   0  0  0  0  0  0  0  0  0  0  0  0
   13.8399  -18.8979   18.0521 C   0  0  0  0  0  0  0  0  0  0  0  0
   13.8630  -17.8611   17.3607 O   0  0  0  0  0  0  0  0  0  0  0  0
   13.3148  -18.8722   19.4143 C   0  0  0  0  0  0  0  0  0  0  0  0
   11.8966  -19.3673   19.5242 C   0  0  2  0  0  0  0  0  0  0  0  0
   10.9567  -18.4758   18.8770 N   0  0  0  0  0  0  0  0  0  0  0  0
   11.5731  -19.4245   20.9797 C   0  0  0  0  0  0  0  0  0  0  0  0
   11.4930  -18.3479   21.6359 O   0  0  0  0  0  0  0  0  0  0  0  0
    8.9118  -26.4090   24.7571 N   0  0  0  0  0  0  0  0  0  0  0  0
    9.4650  -25.7673   23.6297 C   0  0  0  0  0  0  0  0  0  0  0  0
    9.7140  -26.3777   22.5162 N   0  0  0  0  0  0  0  0  0  0  0  0
    9.7785  -24.3667   23.6899 N   0  0  0  0  0  0  0  0  0  0  0  0
    9.3690  -23.6199   24.8508 C   0  0  0  0  0  0  0  0  0  0  0  0
    9.8849  -22.1912   24.7218 C   0  0  0  0  0  0  0  0  0  0  0  0
   10.3621  -21.9766   23.3303 C   0  0  0  0  0  0  0  0  0  0  0  0
   10.9570  -20.6221   23.0914 C   0  0  2  0  0  0  0  0  0  0  0  0
   11.3497  -20.6222   21.6708 N   0  0  0  0  0  0  0  0  0  0  0  0
   12.1311  -20.4234   23.9432 C   0  0  0  0  0  0  0  0  0  0  0  0
   12.0706  -19.7779   25.1550 O   0  0  0  0  0  0  0  0  0  0  0  0
   13.2769  -20.8530   23.5748 O   0  0  0  0  0  0  0  0  0  0  0  0
  2  1  1  6
  2  3  1  0
  4  2  1  0
  5  4  2  0
  6  7  1  0
  7  9  1  0
  8  7  2  0
 10  9  1  1
 10 11  1  0
 11  4  1  0
 12 10  1  0
 12 22  1  0
 13 12  2  0
 15 16  2  0
 15 14  1  0
 17 15  1  0
 18 17  1  0
 19 18  1  0
 21 20  1  1
 20 19  1  0
 21 22  1  0
 21 23  1  0
 23 24  1  0
 25 23  2  0
M  END
$$$$
