ANR.pdb
     RDKit          3D

 25 24  0  0  1  0  0  0  0  0999 V2000
    7.2568  -18.2307   15.8960 C   0  0  0  0  0  0  0  0  0  0  0  0
    7.4737  -18.6353   17.3327 C   0  0  2  0  0  0  0  0  0  0  0  0
    6.2131  -18.7550   18.0502 N   0  0  0  0  0  0  0  0  0  0  0  0
    8.3599  -17.6369   18.0042 C   0  0  0  0  0  0  0  0  0  0  0  0
    9.5248  -17.4755   17.5594 O   0  0  0  0  0  0  0  0  0  0  0  0
    6.8485  -12.8469   19.0672 N   0  0  0  0  0  0  0  0  0  0  0  0
    7.9432  -13.7370   19.0585 C   0  0  0  0  0  0  0  0  0  0  0  0
    8.7376  -13.7185   18.0983 O   0  0  0  0  0  0  0  0  0  0  0  0
    8.1370  -14.6677   20.1668 C   0  0  0  0  0  0  0  0  0  0  0  0
    8.8401  -15.9395   19.7713 C   0  0  2  0  0  0  0  0  0  0  0  0
    7.9502  -16.8708   19.1095 N   0  0  0  0  0  0  0  0  0  0  0  0
    9.3338  -16.5672   21.0317 C   0  0  0  0  0  0  0  0  0  0  0  0
    8.5058  -17.1161   21.8122 O   0  0  0  0  0  0  0  0  0  0  0  0
   17.7423  -19.2979   21.5706 N   0  0  0  0  0  0  0  0  0  0  0  0
   16.4091  -19.6216   21.2440 C   0  0  0  0  0  0  0  0  0  0  0  0
   16.0764  -20.2607   20.1691 N   0  0  0  0  0  0  0  0  0  0  0  0
   15.3453  -19.2361   22.1291 N   0  0  0  0  0  0  0  0  0  0  0  0
   13.9900  -19.5351   21.7461 C   0  0  0  0  0  0  0  0  0  0  0  0
   13.0453  -18.9513   22.7905 C   0  0  0  0  0  0  0  0  0  0  0  0
   12.5930  -17.6110   22.3332 C   0  0  0  0  0  0  0  0  0  0  0  0
   11.1410  -17.3385   22.5849 C   0  0  2  0  0  0  0  0  0  0  0  0
   10.6838  -16.5829   21.4049 N   0  0  0  0  0  0  0  0  0  0  0  0
   10.9757  -16.5355   23.7979 C   0  0  0  0  0  0  0  0  0  0  0  0
   10.8195  -17.0934   25.0441 O   0  0  0  0  0  0  0  0  0  0  0  0
   10.9691  -15.2592   23.7321 O   0  0  0  0  0  0  0  0  0  0  0  0
  2  1  1  6
  2  3  1  0
  4  2  1  0
  5  4  2  0
  6  7  1  0
  7  9  1  0
  8  7  2  0
 10  9  1  1
 10 11  1  0
 11  4  1  0
 12 10  1  0
 12 22  1  0
 13 12  2  0
 15 16  2  0
 15 14  1  0
 17 15  1  0
 18 17  1  0
 19 18  1  0
 21 20  1  6
 20 19  1  0
 21 22  1  0
 21 23  1  0
 23 24  1  0
 25 23  2  0
M  END
$$$$
