ANR.pdb
     RDKit          3D

 25 24  0  0  1  0  0  0  0  0999 V2000
    6.6168  -12.5654   25.8470 C   0  0  0  0  0  0  0  0  0  0  0  0
    6.8447  -13.7399   24.9284 C   0  0  2  0  0  0  0  0  0  0  0  0
    5.7456  -14.6915   24.9950 N   0  0  0  0  0  0  0  0  0  0  0  0
    8.1326  -14.4093   25.2841 C   0  0  0  0  0  0  0  0  0  0  0  0
    9.1882  -13.7266   25.2625 O   0  0  0  0  0  0  0  0  0  0  0  0
   11.7991  -17.8264   26.4937 N   0  0  0  0  0  0  0  0  0  0  0  0
   10.6059  -18.2770   27.0968 C   0  0  0  0  0  0  0  0  0  0  0  0
   10.6426  -19.2573   27.8657 O   0  0  0  0  0  0  0  0  0  0  0  0
    9.3443  -17.5967   26.8183 C   0  0  0  0  0  0  0  0  0  0  0  0
    9.4857  -16.4177   25.8918 C   0  0  2  0  0  0  0  0  0  0  0  0
    8.2168  -15.7663   25.6414 N   0  0  0  0  0  0  0  0  0  0  0  0
   10.0117  -16.9474   24.5998 C   0  0  0  0  0  0  0  0  0  0  0  0
    9.5683  -18.0446   24.1574 O   0  0  0  0  0  0  0  0  0  0  0  0
    7.0049  -12.8188   19.0079 N   0  0  0  0  0  0  0  0  0  0  0  0
    8.3532  -13.0609   19.3428 C   0  0  0  0  0  0  0  0  0  0  0  0
    9.2201  -12.1176   19.5250 N   0  0  0  0  0  0  0  0  0  0  0  0
    8.8173  -14.4117   19.4963 N   0  0  0  0  0  0  0  0  0  0  0  0
   10.1582  -14.6277   19.9742 C   0  0  0  0  0  0  0  0  0  0  0  0
   10.1139  -15.6290   21.1229 C   0  0  0  0  0  0  0  0  0  0  0  0
   11.5040  -15.9114   21.5678 C   0  0  0  0  0  0  0  0  0  0  0  0
   11.5991  -16.9303   22.6625 C   0  0  2  0  0  0  0  0  0  0  0  0
   10.9840  -16.2874   23.8376 N   0  0  0  0  0  0  0  0  0  0  0  0
   13.0000  -17.2555   22.9363 C   0  0  0  0  0  0  0  0  0  0  0  0
   13.7439  -18.0816   22.1282 O   0  0  0  0  0  0  0  0  0  0  0  0
   13.5875  -16.7705   23.9624 O   0  0  0  0  0  0  0  0  0  0  0  0
  2  1  1  1
  2  3  1  0
  4  2  1  0
  5  4  2  0
  6  7  1  0
  7  9  1  0
  8  7  2  0
 10  9  1  1
 10 11  1  0
 11  4  1  0
 12 10  1  0
 12 22  1  0
 13 12  2  0
 15 16  2  0
 15 14  1  0
 17 15  1  0
 18 17  1  0
 19 18  1  0
 21 20  1  6
 20 19  1  0
 21 22  1  0
 21 23  1  0
 23 24  1  0
 25 23  2  0
M  END
$$$$
