ANR.pdb
     RDKit          3D

 25 24  0  0  1  0  0  0  0  0999 V2000
    8.1759  -12.3533   18.8947 C   0  0  0  0  0  0  0  0  0  0  0  0
    9.1446  -13.4902   19.1046 C   0  0  2  0  0  0  0  0  0  0  0  0
    9.2788  -14.3058   17.9067 N   0  0  0  0  0  0  0  0  0  0  0  0
    8.6889  -14.3285   20.2546 C   0  0  0  0  0  0  0  0  0  0  0  0
    8.6431  -13.8045   21.3966 O   0  0  0  0  0  0  0  0  0  0  0  0
    8.1816  -17.5743   18.7145 N   0  0  0  0  0  0  0  0  0  0  0  0
    7.1677  -18.1085   19.5375 C   0  0  0  0  0  0  0  0  0  0  0  0
    6.4585  -19.0386   19.1070 O   0  0  0  0  0  0  0  0  0  0  0  0
    6.9573  -17.5720   20.8791 C   0  0  0  0  0  0  0  0  0  0  0  0
    7.9320  -16.4872   21.2553 C   0  0  2  0  0  0  0  0  0  0  0  0
    8.3095  -15.6752   20.1172 N   0  0  0  0  0  0  0  0  0  0  0  0
    9.1519  -17.1684   21.7791 C   0  0  0  0  0  0  0  0  0  0  0  0
    9.5770  -18.2054   21.1959 O   0  0  0  0  0  0  0  0  0  0  0  0
   15.8577  -14.0319   20.2709 N   0  0  0  0  0  0  0  0  0  0  0  0
   14.7987  -14.4400   19.4336 C   0  0  0  0  0  0  0  0  0  0  0  0
   14.6364  -13.9991   18.2279 N   0  0  0  0  0  0  0  0  0  0  0  0
   13.8363  -15.3916   19.9151 N   0  0  0  0  0  0  0  0  0  0  0  0
   13.5460  -15.4223   21.3250 C   0  0  0  0  0  0  0  0  0  0  0  0
   12.5821  -16.5704   21.6023 C   0  0  0  0  0  0  0  0  0  0  0  0
   12.2121  -16.5499   23.0419 C   0  0  0  0  0  0  0  0  0  0  0  0
   11.0538  -17.4361   23.3867 C   0  0  2  0  0  0  0  0  0  0  0  0
    9.8636  -16.7170   22.8978 N   0  0  0  0  0  0  0  0  0  0  0  0
   10.9720  -17.6278   24.8358 C   0  0  0  0  0  0  0  0  0  0  0  0
   11.8950  -18.3607   25.5427 O   0  0  0  0  0  0  0  0  0  0  0  0
   10.0142  -17.1081   25.5035 O   0  0  0  0  0  0  0  0  0  0  0  0
  2  1  1  6
  2  3  1  0
  4  2  1  0
  5  4  2  0
  6  7  1  0
  7  9  1  0
  8  7  2  0
 10  9  1  6
 10 11  1  0
 11  4  1  0
 12 10  1  0
 12 22  1  0
 13 12  2  0
 15 16  2  0
 15 14  1  0
 17 15  1  0
 18 17  1  0
 19 18  1  0
 21 20  1  1
 20 19  1  0
 21 22  1  0
 21 23  1  0
 23 24  1  0
 25 23  2  0
M  END
$$$$
