ANR.pdb
     RDKit          3D

 25 24  0  0  1  0  0  0  0  0999 V2000
   -0.1862  -30.9232   23.4555 C   0  0  0  0  0  0  0  0  0  0  0  0
   -0.8677  -29.6044   23.7224 C   0  0  2  0  0  0  0  0  0  0  0  0
    0.0594  -28.4893   23.5995 N   0  0  0  0  0  0  0  0  0  0  0  0
   -1.4770  -29.6244   25.0868 C   0  0  0  0  0  0  0  0  0  0  0  0
   -2.3568  -30.4870   25.3372 O   0  0  0  0  0  0  0  0  0  0  0  0
    0.8261  -30.8659   29.2766 N   0  0  0  0  0  0  0  0  0  0  0  0
   -0.4182  -30.4425   28.7636 C   0  0  0  0  0  0  0  0  0  0  0  0
   -1.3092  -31.2871   28.5483 O   0  0  0  0  0  0  0  0  0  0  0  0
   -0.6526  -29.0275   28.4901 C   0  0  0  0  0  0  0  0  0  0  0  0
   -1.6912  -28.7818   27.4274 C   0  0  2  0  0  0  0  0  0  0  0  0
   -1.1110  -28.7232   26.1019 N   0  0  0  0  0  0  0  0  0  0  0  0
   -2.3143  -27.4609   27.7329 C   0  0  0  0  0  0  0  0  0  0  0  0
   -1.8981  -26.4298   27.1331 O   0  0  0  0  0  0  0  0  0  0  0  0
   -3.4852  -20.8105   25.7870 N   0  0  0  0  0  0  0  0  0  0  0  0
   -4.5992  -20.7398   26.6489 C   0  0  0  0  0  0  0  0  0  0  0  0
   -5.1108  -19.6238   27.0580 N   0  0  0  0  0  0  0  0  0  0  0  0
   -5.2187  -21.9500   27.1128 N   0  0  0  0  0  0  0  0  0  0  0  0
   -4.4834  -23.1833   27.0060 C   0  0  0  0  0  0  0  0  0  0  0  0
   -5.3150  -24.3046   27.6184 C   0  0  0  0  0  0  0  0  0  0  0  0
   -4.5281  -25.5651   27.5748 C   0  0  0  0  0  0  0  0  0  0  0  0
   -3.9592  -25.9752   28.8991 C   0  0  2  0  0  0  0  0  0  0  0  0
   -3.3503  -27.2962   28.6610 N   0  0  0  0  0  0  0  0  0  0  0  0
   -5.0220  -26.0786   29.9008 C   0  0  0  0  0  0  0  0  0  0  0  0
   -5.5959  -24.9792   30.4929 O   0  0  0  0  0  0  0  0  0  0  0  0
   -5.4572  -27.2235   30.2654 O   0  0  0  0  0  0  0  0  0  0  0  0
  2  1  1  1
  2  3  1  0
  4  2  1  0
  5  4  2  0
  6  7  1  0
  7  9  1  0
  8  7  2  0
 10  9  1  1
 10 11  1  0
 11  4  1  0
 12 10  1  0
 12 22  1  0
 13 12  2  0
 15 16  2  0
 15 14  1  0
 17 15  1  0
 18 17  1  0
 19 18  1  0
 21 20  1  6
 20 19  1  0
 21 22  1  0
 21 23  1  0
 23 24  1  0
 25 23  2  0
M  END
$$$$
