RIE.pdb
     RDKit          3D

 29 28  0  0  1  0  0  0  0  0999 V2000
    8.4133  -12.9470   18.4214 N   0  0  0  0  0  0  0  0  0  0  0  0
    8.3568  -13.8366   17.3034 C   0  0  0  0  0  0  0  0  0  0  0  0
    7.8800  -13.4159   16.1818 N   0  0  0  0  0  0  0  0  0  0  0  0
    8.8330  -15.1624   17.4701 N   0  0  0  0  0  0  0  0  0  0  0  0
    9.0370  -15.6498   18.8183 C   0  0  0  0  0  0  0  0  0  0  0  0
    7.6898  -15.9506   19.4331 C   0  0  0  0  0  0  0  0  0  0  0  0
    7.7837  -16.2886   20.9012 C   0  0  0  0  0  0  0  0  0  0  0  0
    6.8730  -15.4000   21.7509 C   0  0  2  0  0  0  0  0  0  0  0  0
    6.2981  -14.3665   20.9070 N   0  0  0  0  0  0  0  0  0  0  0  0
    7.7348  -14.8206   22.8136 C   0  0  0  0  0  0  0  0  0  0  0  0
    8.6732  -14.0633   22.4699 O   0  0  0  0  0  0  0  0  0  0  0  0
    7.8895  -14.0288   15.3446 C   0  0  0  0  0  0  0  0  0  0  0  0
    5.7889  -11.6752   26.1632 C   0  0  0  0  0  0  0  0  0  0  0  0
    6.7808  -12.4356   25.3560 C   0  0  2  0  0  0  0  0  0  0  0  0
    7.4244  -13.5987   25.9991 C   0  0  0  0  0  0  0  0  0  0  0  0
    7.8308  -13.3187   27.4436 C   0  0  2  0  0  0  0  0  0  0  0  0
    8.3679  -14.4363   25.2388 N   0  0  0  0  0  0  0  0  0  0  0  0
    7.5270  -15.0978   24.1896 C   0  0  0  0  0  0  0  0  0  0  0  0
    9.0983  -15.4991   25.8773 O   0  0  0  0  0  0  0  0  0  0  0  0
    9.9967  -15.2544   26.7576 N   0  0  0  0  0  0  0  0  0  0  0  0
    8.8624  -16.8598   25.5793 C   0  0  2  0  0  0  0  0  0  0  0  0
    9.9735  -17.8385   25.7400 C   0  0  0  0  0  0  0  0  0  0  0  0
   10.9354  -17.4935   24.6385 C   0  0  0  0  0  0  0  0  0  0  0  0
   12.2686  -16.9966   24.9840 C   0  0  0  0  0  0  0  0  0  0  0  0
   13.3482  -17.1403   24.0042 O   0  0  0  0  0  0  0  0  0  0  0  0
   13.0879  -17.6655   22.8692 C   0  0  0  0  0  0  0  0  0  0  0  0
   10.4714  -17.7007   27.0964 O   0  0  0  0  0  0  0  0  0  0  0  0
   10.8088  -18.6958   27.7712 O   0  0  0  0  0  0  0  0  0  0  0  0
   14.6645  -16.7351   24.2230 O   0  0  0  0  0  0  0  0  0  0  0  0
  2  1  1  0
  3  2  2  0
  4  2  1  0
  5  4  1  0
  6  5  1  0
  7  6  1  0
  7  8  1  0
  8  9  1  6
 10 11  2  0
 10  8  1  0
 13 12  1  0
 13 14  1  0
 14 15  1  6
 16 14  1  0
 16 17  1  6
 17 10  1  0
 18 16  1  0
 19 18  2  0
 20 18  1  0
 21 20  1  0
 21 22  1  6
 22 23  1  0
 24 23  1  0
 24 25  2  0
 26 29  1  0
 26 21  1  0
 27 26  2  0
 28 24  1  0
M  END
$$$$
