RIE.pdb
     RDKit          3D

 29 28  0  0  1  0  0  0  0  0999 V2000
    8.3758  -13.0291   15.9620 N   0  0  0  0  0  0  0  0  0  0  0  0
    8.3820  -14.4588   15.9871 C   0  0  0  0  0  0  0  0  0  0  0  0
    8.3462  -15.1126   14.8764 N   0  0  0  0  0  0  0  0  0  0  0  0
    8.4285  -15.1123   17.2453 N   0  0  0  0  0  0  0  0  0  0  0  0
    7.6494  -14.5568   18.3321 C   0  0  0  0  0  0  0  0  0  0  0  0
    7.1276  -15.6915   19.1828 C   0  0  0  0  0  0  0  0  0  0  0  0
    7.6795  -15.6657   20.5875 C   0  0  0  0  0  0  0  0  0  0  0  0
    7.2912  -14.3855   21.3298 C   0  0  2  0  0  0  0  0  0  0  0  0
    7.5843  -13.2404   20.4850 N   0  0  0  0  0  0  0  0  0  0  0  0
    8.1018  -14.3672   22.5749 C   0  0  0  0  0  0  0  0  0  0  0  0
    9.2956  -13.9910   22.5009 O   0  0  0  0  0  0  0  0  0  0  0  0
    8.3048  -16.1494   14.8789 C   0  0  0  0  0  0  0  0  0  0  0  0
    6.0477  -11.5902   26.0952 C   0  0  0  0  0  0  0  0  0  0  0  0
    7.1051  -12.3317   25.3564 C   0  0  2  0  0  0  0  0  0  0  0  0
    7.5143  -13.6426   25.8993 C   0  0  0  0  0  0  0  0  0  0  0  0
    7.8825  -13.5746   27.3791 C   0  0  2  0  0  0  0  0  0  0  0  0
    8.3479  -14.5500   25.0922 N   0  0  0  0  0  0  0  0  0  0  0  0
    7.5678  -14.7592   23.8298 C   0  0  0  0  0  0  0  0  0  0  0  0
    8.6826  -15.8677   25.5639 O   0  0  0  0  0  0  0  0  0  0  0  0
    7.7849  -16.7701   25.7113 N   0  0  0  0  0  0  0  0  0  0  0  0
   10.0082  -16.2402   25.8797 C   0  0  1  0  0  0  0  0  0  0  0  0
   10.3007  -17.6632   26.2084 C   0  0  0  0  0  0  0  0  0  0  0  0
   11.7108  -17.8725   25.7337 C   0  0  0  0  0  0  0  0  0  0  0  0
   11.9462  -18.6464   24.5132 C   0  0  0  0  0  0  0  0  0  0  0  0
   12.9412  -18.1611   23.5540 O   0  0  0  0  0  0  0  0  0  0  0  0
   12.5432  -17.5501   22.5051 C   0  0  0  0  0  0  0  0  0  0  0  0
   10.0689  -17.8293   27.6316 O   0  0  0  0  0  0  0  0  0  0  0  0
    9.9000  -16.8468   28.3836 O   0  0  0  0  0  0  0  0  0  0  0  0
   14.3186  -18.3175   23.7063 O   0  0  0  0  0  0  0  0  0  0  0  0
  2  1  1  0
  3  2  2  0
  4  2  1  0
  5  4  1  0
  6  5  1  0
  7  6  1  0
  7  8  1  0
  8  9  1  6
 10 11  2  0
 10  8  1  0
 13 12  1  0
 13 14  1  0
 14 15  1  6
 16 14  1  0
 16 17  1  6
 17 10  1  0
 18 16  1  0
 19 18  2  0
 20 18  1  0
 21 20  1  0
 21 22  1  1
 22 23  1  0
 24 23  1  0
 24 25  2  0
 26 29  1  0
 26 21  1  0
 27 26  2  0
 28 24  1  0
M  END
$$$$
