RIE.pdb
     RDKit          3D

 29 28  0  0  1  0  0  0  0  0999 V2000
    7.0793  -15.5201   14.9335 N   0  0  0  0  0  0  0  0  0  0  0  0
    8.3229  -15.5477   15.6385 C   0  0  0  0  0  0  0  0  0  0  0  0
    9.2481  -16.3624   15.2608 N   0  0  0  0  0  0  0  0  0  0  0  0
    8.4958  -14.6684   16.7383 N   0  0  0  0  0  0  0  0  0  0  0  0
    7.3252  -14.2966   17.5053 C   0  0  0  0  0  0  0  0  0  0  0  0
    7.1212  -15.3162   18.6018 C   0  0  0  0  0  0  0  0  0  0  0  0
    7.9297  -15.0086   19.8388 C   0  0  0  0  0  0  0  0  0  0  0  0
    7.5190  -13.6782   20.4729 C   0  0  2  0  0  0  0  0  0  0  0  0
    7.9419  -12.5903   19.6077 N   0  0  0  0  0  0  0  0  0  0  0  0
    8.1985  -13.6218   21.7930 C   0  0  0  0  0  0  0  0  0  0  0  0
    9.3903  -13.2339   21.8313 O   0  0  0  0  0  0  0  0  0  0  0  0
   10.1850  -16.3355   15.7061 C   0  0  0  0  0  0  0  0  0  0  0  0
    7.1119  -11.5149   27.0959 C   0  0  0  0  0  0  0  0  0  0  0  0
    7.8082  -12.6924   26.5107 C   0  0  2  0  0  0  0  0  0  0  0  0
    7.3468  -13.1605   25.1883 C   0  0  0  0  0  0  0  0  0  0  0  0
    5.9092  -13.6729   25.2173 C   0  0  2  0  0  0  0  0  0  0  0  0
    8.2583  -13.9149   24.3111 N   0  0  0  0  0  0  0  0  0  0  0  0
    7.5432  -13.9906   22.9964 C   0  0  0  0  0  0  0  0  0  0  0  0
    8.6399  -15.2669   24.6233 O   0  0  0  0  0  0  0  0  0  0  0  0
    7.8409  -16.2480   24.4203 N   0  0  0  0  0  0  0  0  0  0  0  0
    9.9079  -15.5871   25.1576 C   0  0  1  0  0  0  0  0  0  0  0  0
   10.2518  -17.0164   25.3969 C   0  0  0  0  0  0  0  0  0  0  0  0
   11.6302  -17.1693   24.8188 C   0  0  0  0  0  0  0  0  0  0  0  0
   12.4015  -18.3767   25.1207 C   0  0  0  0  0  0  0  0  0  0  0  0
   13.7312  -18.5287   24.5250 O   0  0  0  0  0  0  0  0  0  0  0  0
   13.9285  -19.4693   23.6835 C   0  0  0  0  0  0  0  0  0  0  0  0
   10.1214  -17.2544   26.8227 O   0  0  0  0  0  0  0  0  0  0  0  0
   10.1737  -16.3181   27.6474 O   0  0  0  0  0  0  0  0  0  0  0  0
   14.8181  -17.7037   24.8128 O   0  0  0  0  0  0  0  0  0  0  0  0
  2  1  1  0
  3  2  2  0
  4  2  1  0
  5  4  1  0
  6  5  1  0
  7  6  1  0
  7  8  1  0
  8  9  1  6
 10 11  2  0
 10  8  1  0
 13 12  1  0
 13 14  1  0
 14 15  1  6
 16 14  1  0
 16 17  1  1
 17 10  1  0
 18 16  1  0
 19 18  2  0
 20 18  1  0
 21 20  1  0
 21 22  1  1
 22 23  1  0
 24 23  1  0
 24 25  2  0
 26 29  1  0
 26 21  1  0
 27 26  2  0
 28 24  1  0
M  END
$$$$
