RIE.pdb
     RDKit          3D

 29 28  0  0  1  0  0  0  0  0999 V2000
    8.5548  -13.0948   16.0670 N   0  0  0  0  0  0  0  0  0  0  0  0
    8.3541  -14.4625   15.7013 C   0  0  0  0  0  0  0  0  0  0  0  0
    8.1002  -14.7596   14.4726 N   0  0  0  0  0  0  0  0  0  0  0  0
    8.4434  -15.4526   16.7133 N   0  0  0  0  0  0  0  0  0  0  0  0
    7.4445  -15.4491   17.7615 C   0  0  0  0  0  0  0  0  0  0  0  0
    7.9375  -14.5822   18.8968 C   0  0  0  0  0  0  0  0  0  0  0  0
    7.7973  -15.2520   20.2423 C   0  0  0  0  0  0  0  0  0  0  0  0
    6.9178  -14.4400   21.1952 C   0  0  2  0  0  0  0  0  0  0  0  0
    6.5692  -13.1803   20.5608 N   0  0  0  0  0  0  0  0  0  0  0  0
    7.7258  -14.2275   22.4239 C   0  0  0  0  0  0  0  0  0  0  0  0
    8.8482  -13.6805   22.3093 O   0  0  0  0  0  0  0  0  0  0  0  0
    7.8793  -15.7372   14.2040 C   0  0  0  0  0  0  0  0  0  0  0  0
    5.7925  -11.5092   26.1812 C   0  0  0  0  0  0  0  0  0  0  0  0
    6.7352  -12.2468   25.2974 C   0  0  2  0  0  0  0  0  0  0  0  0
    7.2565  -13.5362   25.7939 C   0  0  0  0  0  0  0  0  0  0  0  0
    7.6991  -13.4661   27.2531 C   0  0  2  0  0  0  0  0  0  0  0  0
    8.1016  -14.3755   24.9274 N   0  0  0  0  0  0  0  0  0  0  0  0
    7.2669  -14.6219   23.7074 C   0  0  0  0  0  0  0  0  0  0  0  0
    8.5499  -15.6730   25.3589 O   0  0  0  0  0  0  0  0  0  0  0  0
    7.7302  -16.6477   25.5000 N   0  0  0  0  0  0  0  0  0  0  0  0
    9.9073  -15.9456   25.6401 C   0  0  1  0  0  0  0  0  0  0  0  0
   10.3097  -17.3386   25.9806 C   0  0  0  0  0  0  0  0  0  0  0  0
   11.6057  -17.5412   25.2480 C   0  0  0  0  0  0  0  0  0  0  0  0
   12.3865  -18.7540   25.4996 C   0  0  0  0  0  0  0  0  0  0  0  0
   13.6840  -18.9050   24.8367 O   0  0  0  0  0  0  0  0  0  0  0  0
   14.4187  -17.8730   24.6720 C   0  0  0  0  0  0  0  0  0  0  0  0
   10.3680  -17.4247   27.4283 O   0  0  0  0  0  0  0  0  0  0  0  0
   10.3750  -18.5265   28.0161 O   0  0  0  0  0  0  0  0  0  0  0  0
   14.1873  -20.1172   24.3654 O   0  0  0  0  0  0  0  0  0  0  0  0
  2  1  1  0
  3  2  2  0
  4  2  1  0
  5  4  1  0
  6  5  1  0
  7  6  1  0
  7  8  1  0
  8  9  1  6
 10 11  2  0
 10  8  1  0
 13 12  1  0
 13 14  1  0
 14 15  1  6
 16 14  1  0
 16 17  1  6
 17 10  1  0
 18 16  1  0
 19 18  2  0
 20 18  1  0
 21 20  1  0
 21 22  1  1
 22 23  1  0
 24 23  1  0
 24 25  2  0
 26 29  1  0
 26 21  1  0
 27 26  2  0
 28 24  1  0
M  END
$$$$
