RIE.pdb
     RDKit          3D

 29 28  0  0  1  0  0  0  0  0999 V2000
    7.1771  -17.0002   17.2721 N   0  0  0  0  0  0  0  0  0  0  0  0
    7.5900  -18.3557   17.0810 C   0  0  0  0  0  0  0  0  0  0  0  0
    6.8040  -19.1785   16.4747 N   0  0  0  0  0  0  0  0  0  0  0  0
    8.8623  -18.7497   17.5693 N   0  0  0  0  0  0  0  0  0  0  0  0
    9.5402  -17.8682   18.4967 C   0  0  0  0  0  0  0  0  0  0  0  0
    8.7243  -17.7807   19.7656 C   0  0  0  0  0  0  0  0  0  0  0  0
    9.2956  -16.7962   20.7569 C   0  0  0  0  0  0  0  0  0  0  0  0
    8.2195  -15.8686   21.3249 C   0  0  2  0  0  0  0  0  0  0  0  0
    7.9409  -14.8192   20.3595 N   0  0  0  0  0  0  0  0  0  0  0  0
    8.7744  -15.3158   22.5875 C   0  0  0  0  0  0  0  0  0  0  0  0
   10.0127  -15.3840   22.7720 O   0  0  0  0  0  0  0  0  0  0  0  0
    7.0949  -20.1618   16.3160 C   0  0  0  0  0  0  0  0  0  0  0  0
    6.8133  -11.4129   26.9589 C   0  0  0  0  0  0  0  0  0  0  0  0
    7.8479  -12.3941   26.5341 C   0  0  2  0  0  0  0  0  0  0  0  0
    7.5763  -13.1731   25.3093 C   0  0  0  0  0  0  0  0  0  0  0  0
    6.1110  -13.5835   25.1891 C   0  0  2  0  0  0  0  0  0  0  0  0
    8.5446  -14.1806   24.8434 N   0  0  0  0  0  0  0  0  0  0  0  0
    7.9508  -14.7203   23.5778 C   0  0  0  0  0  0  0  0  0  0  0  0
    8.8612  -15.3328   25.6452 O   0  0  0  0  0  0  0  0  0  0  0  0
    8.0793  -16.3470   25.6917 N   0  0  0  0  0  0  0  0  0  0  0  0
   10.0449  -15.4142   26.4121 C   0  0  1  0  0  0  0  0  0  0  0  0
   10.3790  -16.6963   27.0926 C   0  0  0  0  0  0  0  0  0  0  0  0
   11.7966  -16.9774   26.6817 C   0  0  0  0  0  0  0  0  0  0  0  0
   12.1068  -18.2362   26.0013 C   0  0  0  0  0  0  0  0  0  0  0  0
   13.4817  -18.4739   25.5551 O   0  0  0  0  0  0  0  0  0  0  0  0
   14.0418  -17.6160   24.7922 C   0  0  0  0  0  0  0  0  0  0  0  0
   10.1467  -16.4998   28.5119 O   0  0  0  0  0  0  0  0  0  0  0  0
    9.9145  -15.3672   28.9838 O   0  0  0  0  0  0  0  0  0  0  0  0
   14.2400  -19.5887   25.9116 O   0  0  0  0  0  0  0  0  0  0  0  0
  2  1  1  0
  3  2  2  0
  4  2  1  0
  5  4  1  0
  6  5  1  0
  7  6  1  0
  7  8  1  0
  8  9  1  6
 10 11  2  0
 10  8  1  0
 13 12  1  0
 13 14  1  0
 14 15  1  6
 16 14  1  0
 16 17  1  1
 17 10  1  0
 18 16  1  0
 19 18  2  0
 20 18  1  0
 21 20  1  0
 21 22  1  1
 22 23  1  0
 24 23  1  0
 24 25  2  0
 26 29  1  0
 26 21  1  0
 27 26  2  0
 28 24  1  0
M  END
$$$$
