RIE.pdb
     RDKit          3D

 29 28  0  0  1  0  0  0  0  0999 V2000
    8.9863  -15.4418   17.4720 N   0  0  0  0  0  0  0  0  0  0  0  0
    8.5180  -14.4950   16.5083 C   0  0  0  0  0  0  0  0  0  0  0  0
    8.9487  -14.5596   15.2947 N   0  0  0  0  0  0  0  0  0  0  0  0
    7.5867  -13.5098   16.9262 N   0  0  0  0  0  0  0  0  0  0  0  0
    7.0434  -13.6086   18.2647 C   0  0  0  0  0  0  0  0  0  0  0  0
    7.9900  -12.9238   19.2231 C   0  0  0  0  0  0  0  0  0  0  0  0
    7.5581  -13.0601   20.6630 C   0  0  0  0  0  0  0  0  0  0  0  0
    7.6176  -14.5121   21.1417 C   0  0  2  0  0  0  0  0  0  0  0  0
    6.2641  -15.0234   21.2734 N   0  0  0  0  0  0  0  0  0  0  0  0
    8.3219  -14.4878   22.4498 C   0  0  0  0  0  0  0  0  0  0  0  0
    9.5534  -14.2521   22.4568 O   0  0  0  0  0  0  0  0  0  0  0  0
    8.6837  -13.8316   14.6044 C   0  0  0  0  0  0  0  0  0  0  0  0
    5.5424  -12.0179   25.7911 C   0  0  0  0  0  0  0  0  0  0  0  0
    6.8533  -12.4673   25.2495 C   0  0  2  0  0  0  0  0  0  0  0  0
    7.4131  -13.7215   25.7920 C   0  0  0  0  0  0  0  0  0  0  0  0
    7.7690  -13.6120   27.2723 C   0  0  2  0  0  0  0  0  0  0  0  0
    8.3483  -14.5241   24.9852 N   0  0  0  0  0  0  0  0  0  0  0  0
    7.6467  -14.7213   23.6758 C   0  0  0  0  0  0  0  0  0  0  0  0
    8.7558  -15.8377   25.4084 O   0  0  0  0  0  0  0  0  0  0  0  0
    7.9422  -16.8273   25.3841 N   0  0  0  0  0  0  0  0  0  0  0  0
   10.0658  -16.1101   25.8618 C   0  0  1  0  0  0  0  0  0  0  0  0
   10.4160  -17.4995   26.2685 C   0  0  0  0  0  0  0  0  0  0  0  0
   11.6954  -17.7902   25.5364 C   0  0  0  0  0  0  0  0  0  0  0  0
   12.4624  -18.9874   25.8863 C   0  0  0  0  0  0  0  0  0  0  0  0
   13.7270  -19.2401   25.1915 O   0  0  0  0  0  0  0  0  0  0  0  0
   14.0973  -18.4379   24.2689 C   0  0  0  0  0  0  0  0  0  0  0  0
   10.4856  -17.5155   27.7182 O   0  0  0  0  0  0  0  0  0  0  0  0
   10.5227  -16.4577   28.3809 O   0  0  0  0  0  0  0  0  0  0  0  0
   14.5746  -20.3118   25.4708 O   0  0  0  0  0  0  0  0  0  0  0  0
  2  1  1  0
  3  2  2  0
  4  2  1  0
  5  4  1  0
  6  5  1  0
  7  6  1  0
  7  8  1  0
  8  9  1  1
 10 11  2  0
 10  8  1  0
 13 12  1  0
 13 14  1  0
 14 15  1  6
 16 14  1  0
 16 17  1  6
 17 10  1  0
 18 16  1  0
 19 18  2  0
 20 18  1  0
 21 20  1  0
 21 22  1  1
 22 23  1  0
 24 23  1  0
 24 25  2  0
 26 29  1  0
 26 21  1  0
 27 26  2  0
 28 24  1  0
M  END
$$$$
