RIE.pdb
     RDKit          3D

 29 28  0  0  1  0  0  0  0  0999 V2000
    5.9851  -20.3588   18.6078 N   0  0  0  0  0  0  0  0  0  0  0  0
    7.3642  -20.7267   18.6917 C   0  0  0  0  0  0  0  0  0  0  0  0
    7.7155  -21.9367   18.4181 N   0  0  0  0  0  0  0  0  0  0  0  0
    8.3053  -19.7371   19.0759 N   0  0  0  0  0  0  0  0  0  0  0  0
    7.8819  -18.3525   19.0665 C   0  0  0  0  0  0  0  0  0  0  0  0
    6.9401  -18.1266   20.2264 C   0  0  0  0  0  0  0  0  0  0  0  0
    7.5967  -17.3995   21.3748 C   0  0  0  0  0  0  0  0  0  0  0  0
    7.4467  -15.8820   21.2500 C   0  0  2  0  0  0  0  0  0  0  0  0
    8.0165  -15.4520   19.9846 N   0  0  0  0  0  0  0  0  0  0  0  0
    8.1772  -15.2979   22.4045 C   0  0  0  0  0  0  0  0  0  0  0  0
    9.4117  -15.1090   22.2921 O   0  0  0  0  0  0  0  0  0  0  0  0
    8.7007  -22.2379   18.5419 C   0  0  0  0  0  0  0  0  0  0  0  0
    6.6457  -11.5584   26.9884 C   0  0  0  0  0  0  0  0  0  0  0  0
    7.6932  -12.4494   26.4204 C   0  0  2  0  0  0  0  0  0  0  0  0
    7.2934  -13.3395   25.3121 C   0  0  0  0  0  0  0  0  0  0  0  0
    5.8903  -13.9114   25.4972 C   0  0  2  0  0  0  0  0  0  0  0  0
    8.2708  -14.2691   24.7204 N   0  0  0  0  0  0  0  0  0  0  0  0
    7.5235  -14.9523   23.6156 C   0  0  0  0  0  0  0  0  0  0  0  0
    8.8587  -15.3249   25.5016 O   0  0  0  0  0  0  0  0  0  0  0  0
    8.2417  -16.4307   25.6979 N   0  0  0  0  0  0  0  0  0  0  0  0
   10.1407  -15.2069   26.0833 C   0  0  1  0  0  0  0  0  0  0  0  0
   10.8637  -16.4417   26.4968 C   0  0  0  0  0  0  0  0  0  0  0  0
   12.2385  -16.2814   25.9122 C   0  0  0  0  0  0  0  0  0  0  0  0
   13.3007  -17.2022   26.3219 C   0  0  0  0  0  0  0  0  0  0  0  0
   14.6432  -17.0190   25.7653 O   0  0  0  0  0  0  0  0  0  0  0  0
   15.5837  -17.7929   26.1504 C   0  0  0  0  0  0  0  0  0  0  0  0
   10.7842  -16.5190   27.9440 O   0  0  0  0  0  0  0  0  0  0  0  0
   10.3868  -15.5524   28.6276 O   0  0  0  0  0  0  0  0  0  0  0  0
   14.9758  -16.0445   24.8248 O   0  0  0  0  0  0  0  0  0  0  0  0
  2  1  1  0
  3  2  2  0
  4  2  1  0
  5  4  1  0
  6  5  1  0
  7  6  1  0
  7  8  1  0
  8  9  1  6
 10 11  2  0
 10  8  1  0
 13 12  1  0
 13 14  1  0
 14 15  1  6
 16 14  1  0
 16 17  1  1
 17 10  1  0
 18 16  1  0
 19 18  2  0
 20 18  1  0
 21 20  1  0
 21 22  1  1
 22 23  1  0
 24 23  1  0
 24 25  2  0
 26 29  1  0
 26 21  1  0
 27 26  2  0
 28 24  1  0
M  END
$$$$
