RIE.pdb
     RDKit          3D

 29 28  0  0  1  0  0  0  0  0999 V2000
    8.5684  -13.7168   17.1813 N   0  0  0  0  0  0  0  0  0  0  0  0
    8.0441  -12.9516   18.2694 C   0  0  0  0  0  0  0  0  0  0  0  0
    8.6232  -11.8503   18.6073 N   0  0  0  0  0  0  0  0  0  0  0  0
    6.8939  -13.4361   18.9439 N   0  0  0  0  0  0  0  0  0  0  0  0
    7.0856  -14.1844   20.1686 C   0  0  0  0  0  0  0  0  0  0  0  0
    7.6121  -15.5572   19.8196 C   0  0  0  0  0  0  0  0  0  0  0  0
    8.7238  -16.0036   20.7378 C   0  0  0  0  0  0  0  0  0  0  0  0
    8.1840  -16.6288   22.0257 C   0  0  2  0  0  0  0  0  0  0  0  0
    6.7347  -16.6947   21.9492 N   0  0  0  0  0  0  0  0  0  0  0  0
    8.6329  -15.7463   23.1336 C   0  0  0  0  0  0  0  0  0  0  0  0
    9.6271  -15.0076   22.9388 O   0  0  0  0  0  0  0  0  0  0  0  0
    8.2931  -11.3156   19.4330 C   0  0  0  0  0  0  0  0  0  0  0  0
    5.8877  -12.4399   25.8455 C   0  0  0  0  0  0  0  0  0  0  0  0
    7.0500  -13.1834   25.2885 C   0  0  2  0  0  0  0  0  0  0  0  0
    7.6840  -14.1940   26.1587 C   0  0  0  0  0  0  0  0  0  0  0  0
    8.0459  -13.6388   27.5338 C   0  0  2  0  0  0  0  0  0  0  0  0
    8.6559  -15.1482   25.5978 N   0  0  0  0  0  0  0  0  0  0  0  0
    7.9748  -15.7175   24.3905 C   0  0  0  0  0  0  0  0  0  0  0  0
    9.1073  -16.2826   26.3594 O   0  0  0  0  0  0  0  0  0  0  0  0
    8.2794  -17.1377   26.8344 N   0  0  0  0  0  0  0  0  0  0  0  0
   10.4759  -16.5206   26.6166 C   0  0  1  0  0  0  0  0  0  0  0  0
   10.8605  -17.6787   27.4706 C   0  0  0  0  0  0  0  0  0  0  0  0
   12.1870  -18.1217   26.9214 C   0  0  0  0  0  0  0  0  0  0  0  0
   12.2973  -18.4505   25.4989 C   0  0  0  0  0  0  0  0  0  0  0  0
   13.5894  -18.9063   24.9808 O   0  0  0  0  0  0  0  0  0  0  0  0
   13.8353  -20.1594   24.9466 C   0  0  0  0  0  0  0  0  0  0  0  0
   10.8553  -17.2154   28.8462 O   0  0  0  0  0  0  0  0  0  0  0  0
   10.7772  -16.0006   29.1247 O   0  0  0  0  0  0  0  0  0  0  0  0
   14.5895  -18.0559   24.5102 O   0  0  0  0  0  0  0  0  0  0  0  0
  2  1  1  0
  3  2  2  0
  4  2  1  0
  5  4  1  0
  6  5  1  0
  7  6  1  0
  7  8  1  0
  8  9  1  6
 10 11  2  0
 10  8  1  0
 13 12  1  0
 13 14  1  0
 14 15  1  1
 16 14  1  0
 16 17  1  6
 17 10  1  0
 18 16  1  0
 19 18  2  0
 20 18  1  0
 21 20  1  0
 21 22  1  1
 22 23  1  0
 24 23  1  0
 24 25  2  0
 26 29  1  0
 26 21  1  0
 27 26  2  0
 28 24  1  0
M  END
$$$$
