RIE.pdb
     RDKit          3D

 29 28  0  0  1  0  0  0  0  0999 V2000
    8.3291  -12.9652   16.0875 N   0  0  0  0  0  0  0  0  0  0  0  0
    8.1555  -14.3811   15.9884 C   0  0  0  0  0  0  0  0  0  0  0  0
    7.9964  -14.9207   14.8283 N   0  0  0  0  0  0  0  0  0  0  0  0
    8.1655  -15.1482   17.1817 N   0  0  0  0  0  0  0  0  0  0  0  0
    8.5527  -14.4908   18.4124 C   0  0  0  0  0  0  0  0  0  0  0  0
    7.3769  -13.6917   18.9247 C   0  0  0  0  0  0  0  0  0  0  0  0
    7.3682  -13.5708   20.4293 C   0  0  0  0  0  0  0  0  0  0  0  0
    7.6822  -14.9041   21.1109 C   0  0  2  0  0  0  0  0  0  0  0  0
    6.4523  -15.6641   21.2543 N   0  0  0  0  0  0  0  0  0  0  0  0
    8.2717  -14.5647   22.4318 C   0  0  0  0  0  0  0  0  0  0  0  0
    9.4376  -14.1043   22.4611 O   0  0  0  0  0  0  0  0  0  0  0  0
    7.8585  -15.9454   14.7407 C   0  0  0  0  0  0  0  0  0  0  0  0
    5.4836  -11.8724   25.7112 C   0  0  0  0  0  0  0  0  0  0  0  0
    6.7625  -12.4040   25.1676 C   0  0  2  0  0  0  0  0  0  0  0  0
    7.2511  -13.6827   25.7214 C   0  0  0  0  0  0  0  0  0  0  0  0
    7.5025  -13.6118   27.2253 C   0  0  2  0  0  0  0  0  0  0  0  0
    8.2219  -14.4932   24.9662 N   0  0  0  0  0  0  0  0  0  0  0  0
    7.5595  -14.7454   23.6458 C   0  0  0  0  0  0  0  0  0  0  0  0
    8.6412  -15.7847   25.4426 O   0  0  0  0  0  0  0  0  0  0  0  0
    7.8248  -16.7708   25.4989 N   0  0  0  0  0  0  0  0  0  0  0  0
    9.9659  -16.0388   25.8626 C   0  0  1  0  0  0  0  0  0  0  0  0
   10.3261  -17.4056   26.3322 C   0  0  0  0  0  0  0  0  0  0  0  0
   11.5671  -17.7499   25.5585 C   0  0  0  0  0  0  0  0  0  0  0  0
   12.3049  -18.9684   25.8971 C   0  0  0  0  0  0  0  0  0  0  0  0
   13.5138  -19.2927   25.1359 O   0  0  0  0  0  0  0  0  0  0  0  0
   14.6460  -18.8948   25.5736 C   0  0  0  0  0  0  0  0  0  0  0  0
   10.4648  -17.3387   27.7755 O   0  0  0  0  0  0  0  0  0  0  0  0
   10.7293  -16.2651   28.3560 O   0  0  0  0  0  0  0  0  0  0  0  0
   13.5197  -20.0209   23.9466 O   0  0  0  0  0  0  0  0  0  0  0  0
  2  1  1  0
  3  2  2  0
  4  2  1  0
  5  4  1  0
  6  5  1  0
  7  6  1  0
  7  8  1  0
  8  9  1  1
 10 11  2  0
 10  8  1  0
 13 12  1  0
 13 14  1  0
 14 15  1  6
 16 14  1  0
 16 17  1  6
 17 10  1  0
 18 16  1  0
 19 18  2  0
 20 18  1  0
 21 20  1  0
 21 22  1  1
 22 23  1  0
 24 23  1  0
 24 25  2  0
 26 29  1  0
 26 21  1  0
 27 26  2  0
 28 24  1  0
M  END
$$$$
