RIE.pdb
     RDKit          3D

 29 28  0  0  1  0  0  0  0  0999 V2000
    7.0688  -14.3918   17.6537 N   0  0  0  0  0  0  0  0  0  0  0  0
    7.7910  -13.2381   18.0917 C   0  0  0  0  0  0  0  0  0  0  0  0
    7.4615  -12.0754   17.6422 N   0  0  0  0  0  0  0  0  0  0  0  0
    8.8536  -13.4161   19.0145 N   0  0  0  0  0  0  0  0  0  0  0  0
    9.3223  -14.7632   19.2639 C   0  0  0  0  0  0  0  0  0  0  0  0
    8.5734  -15.3244   20.4504 C   0  0  0  0  0  0  0  0  0  0  0  0
    8.9763  -16.7426   20.7738 C   0  0  0  0  0  0  0  0  0  0  0  0
    8.2810  -17.2602   22.0345 C   0  0  2  0  0  0  0  0  0  0  0  0
    6.8525  -17.0209   21.9199 N   0  0  0  0  0  0  0  0  0  0  0  0
    8.8713  -16.5072   23.1712 C   0  0  0  0  0  0  0  0  0  0  0  0
   10.1046  -16.2813   23.1573 O   0  0  0  0  0  0  0  0  0  0  0  0
    8.0167  -11.2371   17.8984 C   0  0  0  0  0  0  0  0  0  0  0  0
    6.2024  -12.4535   25.2607 C   0  0  0  0  0  0  0  0  0  0  0  0
    7.3475  -13.3200   24.8713 C   0  0  2  0  0  0  0  0  0  0  0  0
    7.7878  -14.3356   25.8488 C   0  0  0  0  0  0  0  0  0  0  0  0
    8.0360  -13.7457   27.2346 C   0  0  2  0  0  0  0  0  0  0  0  0
    8.7317  -15.3915   25.4442 N   0  0  0  0  0  0  0  0  0  0  0  0
    8.0867  -16.0426   24.2585 C   0  0  0  0  0  0  0  0  0  0  0  0
    9.0722  -16.4659   26.3389 O   0  0  0  0  0  0  0  0  0  0  0  0
    8.2047  -17.3422   26.6878 N   0  0  0  0  0  0  0  0  0  0  0  0
   10.3718  -16.6194   26.8712 C   0  0  1  0  0  0  0  0  0  0  0  0
   10.6725  -17.8106   27.7131 C   0  0  0  0  0  0  0  0  0  0  0  0
   11.8014  -18.4968   26.9974 C   0  0  0  0  0  0  0  0  0  0  0  0
   12.4904  -19.6104   27.6524 C   0  0  0  0  0  0  0  0  0  0  0  0
   13.6232  -20.2370   26.9669 O   0  0  0  0  0  0  0  0  0  0  0  0
   14.7465  -19.6290   26.9448 C   0  0  0  0  0  0  0  0  0  0  0  0
   10.9579  -17.3268   29.0515 O   0  0  0  0  0  0  0  0  0  0  0  0
   11.2192  -16.1251   29.2684 O   0  0  0  0  0  0  0  0  0  0  0  0
   13.5650  -21.4745   26.3264 O   0  0  0  0  0  0  0  0  0  0  0  0
  2  1  1  0
  3  2  2  0
  4  2  1  0
  5  4  1  0
  6  5  1  0
  7  6  1  0
  7  8  1  0
  8  9  1  6
 10 11  2  0
 10  8  1  0
 13 12  1  0
 13 14  1  0
 14 15  1  1
 16 14  1  0
 16 17  1  6
 17 10  1  0
 18 16  1  0
 19 18  2  0
 20 18  1  0
 21 20  1  0
 21 22  1  1
 22 23  1  0
 24 23  1  0
 24 25  2  0
 26 29  1  0
 26 21  1  0
 27 26  2  0
 28 24  1  0
M  END
$$$$
