RIE.pdb
     RDKit          3D

 29 28  0  0  1  0  0  0  0  0999 V2000
    6.9049  -18.4111   17.6431 N   0  0  0  0  0  0  0  0  0  0  0  0
    7.4879  -19.0194   18.7984 C   0  0  0  0  0  0  0  0  0  0  0  0
    8.2476  -20.0515   18.6563 N   0  0  0  0  0  0  0  0  0  0  0  0
    7.2074  -18.4594   20.0712 N   0  0  0  0  0  0  0  0  0  0  0  0
    7.0600  -17.0221   20.1669 C   0  0  0  0  0  0  0  0  0  0  0  0
    8.2886  -16.3693   19.5768 C   0  0  0  0  0  0  0  0  0  0  0  0
    8.2621  -14.8650   19.6982 C   0  0  0  0  0  0  0  0  0  0  0  0
    7.1803  -14.3898   20.6702 C   0  0  2  0  0  0  0  0  0  0  0  0
    6.4953  -13.2454   20.0941 N   0  0  0  0  0  0  0  0  0  0  0  0
    7.8840  -14.0288   21.9280 C   0  0  0  0  0  0  0  0  0  0  0  0
    8.9480  -13.3706   21.8452 O   0  0  0  0  0  0  0  0  0  0  0  0
    8.7270  -20.4672   19.4774 C   0  0  0  0  0  0  0  0  0  0  0  0
    5.3433  -11.6298   25.6520 C   0  0  0  0  0  0  0  0  0  0  0  0
    6.4885  -12.1320   24.8457 C   0  0  2  0  0  0  0  0  0  0  0  0
    7.1432  -13.3737   25.3042 C   0  0  0  0  0  0  0  0  0  0  0  0
    7.4864  -13.3402   26.7912 C   0  0  2  0  0  0  0  0  0  0  0  0
    8.1397  -14.0432   24.4509 N   0  0  0  0  0  0  0  0  0  0  0  0
    7.3903  -14.4041   23.2043 C   0  0  0  0  0  0  0  0  0  0  0  0
    8.7889  -15.2546   24.8774 O   0  0  0  0  0  0  0  0  0  0  0  0
    8.1179  -16.3179   25.1251 N   0  0  0  0  0  0  0  0  0  0  0  0
   10.1898  -15.3422   25.0371 C   0  0  1  0  0  0  0  0  0  0  0  0
   10.8008  -16.6640   25.3502 C   0  0  0  0  0  0  0  0  0  0  0  0
   12.1780  -16.5879   24.7544 C   0  0  0  0  0  0  0  0  0  0  0  0
   13.1388  -17.6557   25.0378 C   0  0  0  0  0  0  0  0  0  0  0  0
   14.5367  -17.4666   24.6430 O   0  0  0  0  0  0  0  0  0  0  0  0
   14.8987  -16.3367   24.1697 C   0  0  0  0  0  0  0  0  0  0  0  0
   10.7304  -16.8369   26.7896 O   0  0  0  0  0  0  0  0  0  0  0  0
   10.7719  -17.9700   27.3129 O   0  0  0  0  0  0  0  0  0  0  0  0
   15.5216  -18.4481   24.7507 O   0  0  0  0  0  0  0  0  0  0  0  0
  2  1  1  0
  3  2  2  0
  4  2  1  0
  5  4  1  0
  6  5  1  0
  7  6  1  0
  7  8  1  0
  8  9  1  6
 10 11  2  0
 10  8  1  0
 13 12  1  0
 13 14  1  0
 14 15  1  6
 16 14  1  0
 16 17  1  6
 17 10  1  0
 18 16  1  0
 19 18  2  0
 20 18  1  0
 21 20  1  0
 21 22  1  1
 22 23  1  0
 24 23  1  0
 24 25  2  0
 26 29  1  0
 26 21  1  0
 27 26  2  0
 28 24  1  0
M  END
$$$$
