FLL.pdb
     RDKit          3D

 28 28  0  0  1  0  0  0  0  0999 V2000
   26.7450  -21.0527  -13.0088 N   0  0  0  0  0  0  0  0  0  0  0  0
   25.9741  -20.1104  -12.2001 C   0  0  1  0  0  0  0  0  0  0  0  0
   24.8127  -19.6616  -13.0649 C   0  0  0  0  0  0  0  0  0  0  0  0
   25.3937  -18.7991  -14.1527 C   0  0  0  0  0  0  0  0  0  0  0  0
   26.1693  -17.7020  -13.8523 C   0  0  0  0  0  0  0  0  0  0  0  0
   26.6963  -16.9194  -14.8470 C   0  0  0  0  0  0  0  0  0  0  0  0
   26.4677  -17.2043  -16.1706 C   0  0  0  0  0  0  0  0  0  0  0  0
   25.6975  -18.2929  -16.4938 C   0  0  0  0  0  0  0  0  0  0  0  0
   25.1746  -19.0702  -15.4835 C   0  0  0  0  0  0  0  0  0  0  0  0
   25.5330  -20.7794  -10.9695 C   0  0  0  0  0  0  0  0  0  0  0  0
   25.1777  -21.9836  -10.9745 O   0  0  0  0  0  0  0  0  0  0  0  0
   27.7563  -21.0740   -6.9777 C   0  0  0  0  0  0  0  0  0  0  0  0
   27.0679  -19.7203   -7.2686 C   0  0  2  0  0  0  0  0  0  0  0  0
   27.4943  -18.8226   -6.1365 C   0  0  0  0  0  0  0  0  0  0  0  0
   25.6183  -20.0175   -7.3426 C   0  0  0  0  0  0  0  0  0  0  0  0
   25.1395  -20.7889   -8.5316 C   0  0  2  0  0  0  0  0  0  0  0  0
   25.4953  -20.0824   -9.7364 N   0  0  0  0  0  0  0  0  0  0  0  0
   23.6303  -20.7727   -8.4738 C   0  0  0  0  0  0  0  0  0  0  0  0
   22.9517  -19.7568   -8.7702 O   0  0  0  0  0  0  0  0  0  0  0  0
   18.8159  -23.5742   -8.1776 C   0  0  0  0  0  0  0  0  0  0  0  0
   19.3560  -22.6775   -9.2868 C   0  0  2  0  0  0  0  0  0  0  0  0
   18.7812  -23.0458  -10.6150 C   0  0  0  0  0  0  0  0  0  0  0  0
   20.8245  -22.4977   -9.2557 C   0  0  0  0  0  0  0  0  0  0  0  0
   21.4429  -21.9634   -8.0248 C   0  0  2  0  0  0  0  0  0  0  0  0
   22.8981  -21.9275   -8.0741 N   0  0  0  0  0  0  0  0  0  0  0  0
   20.9683  -22.5516   -6.7523 C   0  0  0  0  0  0  0  0  0  0  0  0
   21.5618  -23.4726   -6.1437 O   0  0  0  0  0  0  0  0  0  0  0  0
   19.8004  -22.0794   -6.1710 O   0  0  0  0  0  0  0  0  0  0  0  0
  2  1  1  6
  2  3  1  0
  4  3  1  0
  4  9  2  0
  5  4  1  0
  6  5  2  0
  6  7  1  0
  7  8  2  0
  8  9  1  0
 10  2  1  0
 10 17  1  0
 11 10  2  0
 13 14  1  1
 13 12  1  0
 15 13  1  0
 16 15  1  1
 17 16  1  0
 18 16  1  0
 19 18  2  0
 21 20  1  1
 21 23  1  0
 22 21  1  0
 24 23  1  6
 24 26  1  0
 24 25  1  0
 25 18  1  0
 26 28  1  0
 27 26  2  0
M  END
$$$$
