FLL.pdb
     RDKit          3D

 28 28  0  0  1  0  0  0  0  0999 V2000
   23.2442  -20.6699  -18.7243 N   0  0  0  0  0  0  0  0  0  0  0  0
   22.8765  -20.2370  -17.3776 C   0  0  1  0  0  0  0  0  0  0  0  0
   21.4060  -20.5668  -17.2135 C   0  0  0  0  0  0  0  0  0  0  0  0
   20.6425  -19.5309  -17.9936 C   0  0  0  0  0  0  0  0  0  0  0  0
   20.7400  -18.1930  -17.6841 C   0  0  0  0  0  0  0  0  0  0  0  0
   20.0423  -17.2531  -18.3979 C   0  0  0  0  0  0  0  0  0  0  0  0
   19.2265  -17.6156  -19.4411 C   0  0  0  0  0  0  0  0  0  0  0  0
   19.1138  -18.9435  -19.7677 C   0  0  0  0  0  0  0  0  0  0  0  0
   19.8209  -19.8768  -19.0415 C   0  0  0  0  0  0  0  0  0  0  0  0
   23.7215  -20.9340  -16.3995 C   0  0  0  0  0  0  0  0  0  0  0  0
   24.0044  -22.1500  -16.5327 O   0  0  0  0  0  0  0  0  0  0  0  0
   27.8862  -20.5707  -15.3470 C   0  0  0  0  0  0  0  0  0  0  0  0
   27.0380  -19.4128  -14.7722 C   0  0  2  0  0  0  0  0  0  0  0  0
   28.0439  -18.4484  -14.2000 C   0  0  0  0  0  0  0  0  0  0  0  0
   26.1188  -20.0391  -13.7934 C   0  0  0  0  0  0  0  0  0  0  0  0
   25.0733  -20.9630  -14.3331 C   0  0  2  0  0  0  0  0  0  0  0  0
   24.2438  -20.2516  -15.2728 N   0  0  0  0  0  0  0  0  0  0  0  0
   24.1733  -21.3166  -13.1728 C   0  0  0  0  0  0  0  0  0  0  0  0
   24.5706  -21.9882  -12.1872 O   0  0  0  0  0  0  0  0  0  0  0  0
   20.0544  -18.9684   -9.5317 C   0  0  0  0  0  0  0  0  0  0  0  0
   20.6741  -20.2643  -10.0440 C   0  0  2  0  0  0  0  0  0  0  0  0
   21.1535  -21.1220   -8.9195 C   0  0  0  0  0  0  0  0  0  0  0  0
   21.6328  -20.0763  -11.1555 C   0  0  0  0  0  0  0  0  0  0  0  0
   21.9076  -21.2199  -12.0497 C   0  0  2  0  0  0  0  0  0  0  0  0
   22.8122  -20.8971  -13.1446 N   0  0  0  0  0  0  0  0  0  0  0  0
   20.7231  -21.9599  -12.5393 C   0  0  0  0  0  0  0  0  0  0  0  0
   20.0046  -22.6874  -11.8142 O   0  0  0  0  0  0  0  0  0  0  0  0
   20.3579  -21.8656  -13.8744 O   0  0  0  0  0  0  0  0  0  0  0  0
  2  1  1  6
  2  3  1  0
  4  3  1  0
  4  9  2  0
  5  4  1  0
  6  5  2  0
  6  7  1  0
  7  8  2  0
  8  9  1  0
 10  2  1  0
 10 17  1  0
 11 10  2  0
 13 14  1  1
 13 12  1  0
 15 13  1  0
 16 15  1  1
 17 16  1  0
 18 16  1  0
 19 18  2  0
 21 20  1  1
 21 23  1  0
 22 21  1  0
 24 23  1  6
 24 26  1  0
 24 25  1  0
 25 18  1  0
 26 28  1  0
 27 26  2  0
M  END
$$$$
