FLL.pdb
     RDKit          3D

 28 28  0  0  1  0  0  0  0  0999 V2000
   16.9515  -12.7333  -17.4959 N   0  0  0  0  0  0  0  0  0  0  0  0
   18.0912  -12.0137  -18.0609 C   0  0  1  0  0  0  0  0  0  0  0  0
   17.5517  -11.2209  -19.2350 C   0  0  0  0  0  0  0  0  0  0  0  0
   17.2481  -12.2153  -20.3230 C   0  0  0  0  0  0  0  0  0  0  0  0
   18.2566  -12.9042  -20.9583 C   0  0  0  0  0  0  0  0  0  0  0  0
   17.9747  -13.8092  -21.9490 C   0  0  0  0  0  0  0  0  0  0  0  0
   16.6811  -14.0562  -22.3376 C   0  0  0  0  0  0  0  0  0  0  0  0
   15.6596  -13.3812  -21.7184 C   0  0  0  0  0  0  0  0  0  0  0  0
   15.9580  -12.4748  -20.7245 C   0  0  0  0  0  0  0  0  0  0  0  0
   18.6802  -11.1544  -17.0258 C   0  0  0  0  0  0  0  0  0  0  0  0
   17.9653  -10.6012  -16.1544 O   0  0  0  0  0  0  0  0  0  0  0  0
   24.1114  -10.4266  -14.4425 C   0  0  0  0  0  0  0  0  0  0  0  0
   22.7572   -9.7045  -14.6311 C   0  0  2  0  0  0  0  0  0  0  0  0
   22.1785   -9.6069  -13.2436 C   0  0  0  0  0  0  0  0  0  0  0  0
   21.9920  -10.5353  -15.5900 C   0  0  0  0  0  0  0  0  0  0  0  0
   20.6228  -10.0615  -15.9627 C   0  0  2  0  0  0  0  0  0  0  0  0
   20.0776  -10.9241  -16.9805 N   0  0  0  0  0  0  0  0  0  0  0  0
   20.7996   -8.7115  -16.6167 C   0  0  0  0  0  0  0  0  0  0  0  0
   21.3989   -8.5623  -17.7116 O   0  0  0  0  0  0  0  0  0  0  0  0
   17.7790   -3.9614  -18.3216 C   0  0  0  0  0  0  0  0  0  0  0  0
   19.1792   -4.5157  -18.0806 C   0  0  2  0  0  0  0  0  0  0  0  0
   20.0316   -4.3948  -19.3008 C   0  0  0  0  0  0  0  0  0  0  0  0
   19.1984   -5.8389  -17.4184 C   0  0  0  0  0  0  0  0  0  0  0  0
   20.3896   -6.2144  -16.6292 C   0  0  2  0  0  0  0  0  0  0  0  0
   20.2861   -7.5289  -16.0107 N   0  0  0  0  0  0  0  0  0  0  0  0
   20.8685   -5.2059  -15.6576 C   0  0  0  0  0  0  0  0  0  0  0  0
   20.3299   -4.9957  -14.5455 O   0  0  0  0  0  0  0  0  0  0  0  0
   21.9767   -4.4293  -15.9639 O   0  0  0  0  0  0  0  0  0  0  0  0
  2  1  1  1
  2  3  1  0
  4  3  1  0
  4  9  2  0
  5  4  1  0
  6  5  2  0
  6  7  1  0
  7  8  2  0
  8  9  1  0
 10  2  1  0
 10 17  1  0
 11 10  2  0
 13 14  1  1
 13 12  1  0
 15 13  1  0
 16 15  1  6
 17 16  1  0
 18 16  1  0
 19 18  2  0
 21 20  1  6
 21 23  1  0
 22 21  1  0
 24 23  1  1
 24 26  1  0
 24 25  1  0
 25 18  1  0
 26 28  1  0
 27 26  2  0
M  END
$$$$
