FLL.pdb
     RDKit          3D

 28 28  0  0  1  0  0  0  0  0999 V2000
   27.7809  -20.2435  -11.0770 N   0  0  0  0  0  0  0  0  0  0  0  0
   26.5075  -20.8736  -10.7338 C   0  0  1  0  0  0  0  0  0  0  0  0
   25.9167  -20.0483   -9.6077 C   0  0  0  0  0  0  0  0  0  0  0  0
   26.8772  -20.1445   -8.4533 C   0  0  0  0  0  0  0  0  0  0  0  0
   27.7671  -21.1903   -8.3539 C   0  0  0  0  0  0  0  0  0  0  0  0
   28.6402  -21.2733   -7.3000 C   0  0  0  0  0  0  0  0  0  0  0  0
   28.6546  -20.3186   -6.3134 C   0  0  0  0  0  0  0  0  0  0  0  0
   27.7767  -19.2671   -6.3916 C   0  0  0  0  0  0  0  0  0  0  0  0
   26.9051  -19.1968   -7.4564 C   0  0  0  0  0  0  0  0  0  0  0  0
   25.6464  -20.8998  -11.9231 C   0  0  0  0  0  0  0  0  0  0  0  0
   25.6751  -19.9719  -12.7684 O   0  0  0  0  0  0  0  0  0  0  0  0
   25.4961  -22.7838  -15.8142 C   0  0  0  0  0  0  0  0  0  0  0  0
   25.3617  -23.8005  -14.6570 C   0  0  2  0  0  0  0  0  0  0  0  0
   25.3580  -25.1484  -15.3298 C   0  0  0  0  0  0  0  0  0  0  0  0
   24.1148  -23.4334  -13.9459 C   0  0  0  0  0  0  0  0  0  0  0  0
   24.0271  -22.0458  -13.3938 C   0  0  2  0  0  0  0  0  0  0  0  0
   24.7550  -21.9773  -12.1517 N   0  0  0  0  0  0  0  0  0  0  0  0
   22.5775  -21.8174  -13.0361 C   0  0  0  0  0  0  0  0  0  0  0  0
   22.0329  -22.3550  -12.0387 O   0  0  0  0  0  0  0  0  0  0  0  0
   20.1787  -18.3409  -11.6777 C   0  0  0  0  0  0  0  0  0  0  0  0
   20.3697  -18.2592  -13.1886 C   0  0  2  0  0  0  0  0  0  0  0  0
   19.9591  -16.9251  -13.7194 C   0  0  0  0  0  0  0  0  0  0  0  0
   19.8432  -19.4284  -13.9272 C   0  0  0  0  0  0  0  0  0  0  0  0
   20.3326  -20.7730  -13.5590 C   0  0  2  0  0  0  0  0  0  0  0  0
   21.7508  -20.9686  -13.8269 N   0  0  0  0  0  0  0  0  0  0  0  0
   19.5344  -21.9138  -14.0607 C   0  0  0  0  0  0  0  0  0  0  0  0
   19.9092  -22.6784  -14.9805 O   0  0  0  0  0  0  0  0  0  0  0  0
   18.2927  -22.1813  -13.5026 O   0  0  0  0  0  0  0  0  0  0  0  0
  2  1  1  6
  2  3  1  0
  4  3  1  0
  4  9  2  0
  5  4  1  0
  6  5  2  0
  6  7  1  0
  7  8  2  0
  8  9  1  0
 10  2  1  0
 10 17  1  0
 11 10  2  0
 13 14  1  6
 13 12  1  0
 15 13  1  0
 16 15  1  1
 17 16  1  0
 18 16  1  0
 19 18  2  0
 21 20  1  1
 21 23  1  0
 22 21  1  0
 24 23  1  6
 24 26  1  0
 24 25  1  0
 25 18  1  0
 26 28  1  0
 27 26  2  0
M  END
$$$$
