FLL.pdb
     RDKit          3D

 28 28  0  0  1  0  0  0  0  0999 V2000
   27.1432  -36.8688  -15.9809 N   0  0  0  0  0  0  0  0  0  0  0  0
   26.7837  -35.7197  -16.8096 C   0  0  1  0  0  0  0  0  0  0  0  0
   25.3294  -35.9119  -17.1920 C   0  0  0  0  0  0  0  0  0  0  0  0
   25.3008  -36.9753  -18.2564 C   0  0  0  0  0  0  0  0  0  0  0  0
   25.9529  -36.7985  -19.4560 C   0  0  0  0  0  0  0  0  0  0  0  0
   25.9238  -37.7705  -20.4225 C   0  0  0  0  0  0  0  0  0  0  0  0
   25.2452  -38.9476  -20.2251 C   0  0  0  0  0  0  0  0  0  0  0  0
   24.5879  -39.1460  -19.0371 C   0  0  0  0  0  0  0  0  0  0  0  0
   24.6259  -38.1604  -18.0751 C   0  0  0  0  0  0  0  0  0  0  0  0
   27.0055  -34.4857  -16.0451 C   0  0  0  0  0  0  0  0  0  0  0  0
   27.2894  -34.5192  -14.8225 O   0  0  0  0  0  0  0  0  0  0  0  0
   30.1628  -32.1879  -15.4809 C   0  0  0  0  0  0  0  0  0  0  0  0
   29.5536  -31.9145  -16.8756 C   0  0  2  0  0  0  0  0  0  0  0  0
   30.5914  -31.0906  -17.5922 C   0  0  0  0  0  0  0  0  0  0  0  0
   28.2599  -31.2389  -16.6205 C   0  0  0  0  0  0  0  0  0  0  0  0
   27.2060  -32.0280  -15.9101 C   0  0  2  0  0  0  0  0  0  0  0  0
   26.9051  -33.2167  -16.6676 N   0  0  0  0  0  0  0  0  0  0  0  0
   25.9497  -31.1901  -15.9400 C   0  0  0  0  0  0  0  0  0  0  0  0
   25.8504  -30.0959  -15.3290 O   0  0  0  0  0  0  0  0  0  0  0  0
   21.7769  -28.4577  -17.3004 C   0  0  0  0  0  0  0  0  0  0  0  0
   21.8532  -29.7047  -18.1751 C   0  0  2  0  0  0  0  0  0  0  0  0
   20.6035  -30.5165  -18.0786 C   0  0  0  0  0  0  0  0  0  0  0  0
   23.1171  -30.4618  -18.0371 C   0  0  0  0  0  0  0  0  0  0  0  0
   23.5530  -30.8642  -16.6839 C   0  0  2  0  0  0  0  0  0  0  0  0
   24.8037  -31.6104  -16.6743 N   0  0  0  0  0  0  0  0  0  0  0  0
   22.5313  -31.5280  -15.8438 C   0  0  0  0  0  0  0  0  0  0  0  0
   21.4047  -31.0378  -15.5952 O   0  0  0  0  0  0  0  0  0  0  0  0
   22.8035  -32.7670  -15.2819 O   0  0  0  0  0  0  0  0  0  0  0  0
  2  1  1  1
  2  3  1  0
  4  3  1  0
  4  9  2  0
  5  4  1  0
  6  5  2  0
  6  7  1  0
  7  8  2  0
  8  9  1  0
 10  2  1  0
 10 17  1  0
 11 10  2  0
 13 14  1  6
 13 12  1  0
 15 13  1  0
 16 15  1  6
 17 16  1  0
 18 16  1  0
 19 18  2  0
 21 20  1  1
 21 23  1  0
 22 21  1  0
 24 23  1  6
 24 26  1  0
 24 25  1  0
 25 18  1  0
 26 28  1  0
 27 26  2  0
M  END
$$$$
