FLL.pdb
     RDKit          3D

 28 28  0  0  1  0  0  0  0  0999 V2000
   25.4793  -19.7856   14.2132 N   0  0  0  0  0  0  0  0  0  0  0  0
   26.8880  -20.1491   14.0729 C   0  0  1  0  0  0  0  0  0  0  0  0
   27.0527  -21.4836   14.7730 C   0  0  0  0  0  0  0  0  0  0  0  0
   28.5317  -21.7515   14.8471 C   0  0  0  0  0  0  0  0  0  0  0  0
   29.0193  -22.8862   15.4554 C   0  0  0  0  0  0  0  0  0  0  0  0
   30.3678  -23.1256   15.5202 C   0  0  0  0  0  0  0  0  0  0  0  0
   31.2719  -22.2436   14.9819 C   0  0  0  0  0  0  0  0  0  0  0  0
   30.8089  -21.1057   14.3706 C   0  0  0  0  0  0  0  0  0  0  0  0
   29.4512  -20.8785   14.3131 C   0  0  0  0  0  0  0  0  0  0  0  0
   27.2287  -20.2172   12.6461 C   0  0  0  0  0  0  0  0  0  0  0  0
   26.5538  -20.9128   11.8479 O   0  0  0  0  0  0  0  0  0  0  0  0
   30.4083  -18.3773    8.5678 C   0  0  0  0  0  0  0  0  0  0  0  0
   29.0032  -17.7899    8.8353 C   0  0  2  0  0  0  0  0  0  0  0  0
   29.1074  -16.3445    8.4235 C   0  0  0  0  0  0  0  0  0  0  0  0
   28.7366  -18.0314   10.2726 C   0  0  0  0  0  0  0  0  0  0  0  0
   28.5453  -19.4515   10.7022 C   0  0  2  0  0  0  0  0  0  0  0  0
   28.3331  -19.4970   12.1270 N   0  0  0  0  0  0  0  0  0  0  0  0
   29.8598  -20.1542   10.4578 C   0  0  0  0  0  0  0  0  0  0  0  0
   30.3169  -20.3541    9.3039 O   0  0  0  0  0  0  0  0  0  0  0  0
   32.7219  -23.4508    9.5362 C   0  0  0  0  0  0  0  0  0  0  0  0
   32.2963  -22.0772    9.0285 C   0  0  2  0  0  0  0  0  0  0  0  0
   32.7965  -21.8279    7.6436 C   0  0  0  0  0  0  0  0  0  0  0  0
   32.5234  -20.9799    9.9951 C   0  0  0  0  0  0  0  0  0  0  0  0
   32.0067  -21.1347   11.3706 C   0  0  2  0  0  0  0  0  0  0  0  0
   30.6518  -20.6289   11.5425 N   0  0  0  0  0  0  0  0  0  0  0  0
   32.8941  -20.6572   12.4545 C   0  0  0  0  0  0  0  0  0  0  0  0
   33.9491  -21.2383   12.8013 O   0  0  0  0  0  0  0  0  0  0  0  0
   32.5687  -19.5011   13.1492 O   0  0  0  0  0  0  0  0  0  0  0  0
  2  1  1  6
  2  3  1  0
  4  3  1  0
  4  9  2  0
  5  4  1  0
  6  5  2  0
  6  7  1  0
  7  8  2  0
  8  9  1  0
 10  2  1  0
 10 17  1  0
 11 10  2  0
 13 14  1  1
 13 12  1  0
 15 13  1  0
 16 15  1  1
 17 16  1  0
 18 16  1  0
 19 18  2  0
 21 20  1  1
 21 23  1  0
 22 21  1  0
 24 23  1  6
 24 26  1  0
 24 25  1  0
 25 18  1  0
 26 28  1  0
 27 26  2  0
M  END
$$$$
