FLL.pdb
     RDKit          3D

 28 28  0  0  1  0  0  0  0  0999 V2000
   24.8934  -19.0856  -17.0707 N   0  0  0  0  0  0  0  0  0  0  0  0
   25.0323  -18.9192  -15.6253 C   0  0  1  0  0  0  0  0  0  0  0  0
   23.6775  -18.4649  -15.1192 C   0  0  0  0  0  0  0  0  0  0  0  0
   23.4604  -17.0761  -15.6567 C   0  0  0  0  0  0  0  0  0  0  0  0
   22.3788  -16.7844  -16.4571 C   0  0  0  0  0  0  0  0  0  0  0  0
   22.1856  -15.5175  -16.9443 C   0  0  0  0  0  0  0  0  0  0  0  0
   23.0622  -14.5025  -16.6500 C   0  0  0  0  0  0  0  0  0  0  0  0
   24.1474  -14.7699  -15.8541 C   0  0  0  0  0  0  0  0  0  0  0  0
   24.3287  -16.0478  -15.3718 C   0  0  0  0  0  0  0  0  0  0  0  0
   25.4555  -20.1939  -15.0316 C   0  0  0  0  0  0  0  0  0  0  0  0
   24.9827  -21.2867  -15.4302 O   0  0  0  0  0  0  0  0  0  0  0  0
   29.2311  -20.0762  -14.7841 C   0  0  0  0  0  0  0  0  0  0  0  0
   28.9627  -20.1103  -13.2617 C   0  0  2  0  0  0  0  0  0  0  0  0
   30.3229  -19.9692  -12.6297 C   0  0  0  0  0  0  0  0  0  0  0  0
   28.2656  -21.3929  -13.0080 C   0  0  0  0  0  0  0  0  0  0  0  0
   26.8430  -21.4974  -13.4586 C   0  0  2  0  0  0  0  0  0  0  0  0
   26.4132  -20.2275  -13.9878 N   0  0  0  0  0  0  0  0  0  0  0  0
   26.0156  -21.7284  -12.2162 C   0  0  0  0  0  0  0  0  0  0  0  0
   26.0572  -22.8026  -11.5645 O   0  0  0  0  0  0  0  0  0  0  0  0
   25.8317  -21.8472   -8.0092 C   0  0  0  0  0  0  0  0  0  0  0  0
   25.9544  -20.4415   -8.5878 C   0  0  2  0  0  0  0  0  0  0  0  0
   26.4096  -19.4638   -7.5548 C   0  0  0  0  0  0  0  0  0  0  0  0
   24.7894  -20.0182   -9.3962 C   0  0  0  0  0  0  0  0  0  0  0  0
   24.3497  -20.8874  -10.5071 C   0  0  2  0  0  0  0  0  0  0  0  0
   25.1374  -20.7221  -11.7209 N   0  0  0  0  0  0  0  0  0  0  0  0
   22.9006  -20.8731  -10.8075 C   0  0  0  0  0  0  0  0  0  0  0  0
   22.4217  -20.5768  -11.9274 O   0  0  0  0  0  0  0  0  0  0  0  0
   21.9899  -21.2016   -9.8137 O   0  0  0  0  0  0  0  0  0  0  0  0
  2  1  1  6
  2  3  1  0
  4  3  1  0
  4  9  2  0
  5  4  1  0
  6  5  2  0
  6  7  1  0
  7  8  2  0
  8  9  1  0
 10  2  1  0
 10 17  1  0
 11 10  2  0
 13 14  1  1
 13 12  1  0
 15 13  1  0
 16 15  1  1
 17 16  1  0
 18 16  1  0
 19 18  2  0
 21 20  1  1
 21 23  1  0
 22 21  1  0
 24 23  1  1
 24 26  1  0
 24 25  1  0
 25 18  1  0
 26 28  1  0
 27 26  2  0
M  END
$$$$
