FLL.pdb
     RDKit          3D

 28 28  0  0  1  0  0  0  0  0999 V2000
   24.3934  -19.6721  -11.4816 N   0  0  0  0  0  0  0  0  0  0  0  0
   24.8238  -20.9709  -11.9957 C   0  0  1  0  0  0  0  0  0  0  0  0
   24.7398  -20.8772  -13.5065 C   0  0  0  0  0  0  0  0  0  0  0  0
   23.2792  -20.7626  -13.8503 C   0  0  0  0  0  0  0  0  0  0  0  0
   22.7549  -19.5892  -14.3441 C   0  0  0  0  0  0  0  0  0  0  0  0
   21.4234  -19.4899  -14.6559 C   0  0  0  0  0  0  0  0  0  0  0  0
   20.5734  -20.5546  -14.4859 C   0  0  0  0  0  0  0  0  0  0  0  0
   21.0737  -21.7343  -13.9951 C   0  0  0  0  0  0  0  0  0  0  0  0
   22.4137  -21.8193  -13.6862 C   0  0  0  0  0  0  0  0  0  0  0  0
   26.1868  -21.2483  -11.5247 C   0  0  0  0  0  0  0  0  0  0  0  0
   26.8471  -22.2165  -11.9756 O   0  0  0  0  0  0  0  0  0  0  0  0
   27.7063  -17.8080  -11.1193 C   0  0  0  0  0  0  0  0  0  0  0  0
   28.2086  -18.2471   -9.7244 C   0  0  2  0  0  0  0  0  0  0  0  0
   29.0451  -17.0927   -9.2376 C   0  0  0  0  0  0  0  0  0  0  0  0
   28.9346  -19.5198   -9.9441 C   0  0  0  0  0  0  0  0  0  0  0  0
   28.1122  -20.7644  -10.0561 C   0  0  2  0  0  0  0  0  0  0  0  0
   26.7983  -20.4284  -10.5442 N   0  0  0  0  0  0  0  0  0  0  0  0
   27.9119  -21.2741   -8.6484 C   0  0  0  0  0  0  0  0  0  0  0  0
   28.6870  -22.1062   -8.1125 O   0  0  0  0  0  0  0  0  0  0  0  0
   29.2554  -20.9723   -5.3058 C   0  0  0  0  0  0  0  0  0  0  0  0
   28.1715  -19.8998   -5.2818 C   0  0  2  0  0  0  0  0  0  0  0  0
   28.3732  -18.9451   -4.1513 C   0  0  0  0  0  0  0  0  0  0  0  0
   26.7973  -20.4275   -5.4327 C   0  0  0  0  0  0  0  0  0  0  0  0
   26.5223  -21.3712   -6.5358 C   0  0  2  0  0  0  0  0  0  0  0  0
   26.8177  -20.8264   -7.8538 N   0  0  0  0  0  0  0  0  0  0  0  0
   25.1939  -22.0235   -6.5156 C   0  0  0  0  0  0  0  0  0  0  0  0
   24.1702  -21.5414   -7.0548 O   0  0  0  0  0  0  0  0  0  0  0  0
   25.0367  -23.2414   -5.8700 O   0  0  0  0  0  0  0  0  0  0  0  0
  2  1  1  1
  2  3  1  0
  4  3  1  0
  4  9  2  0
  5  4  1  0
  6  5  2  0
  6  7  1  0
  7  8  2  0
  8  9  1  0
 10  2  1  0
 10 17  1  0
 11 10  2  0
 13 14  1  6
 13 12  1  0
 15 13  1  0
 16 15  1  1
 17 16  1  0
 18 16  1  0
 19 18  2  0
 21 20  1  1
 21 23  1  0
 22 21  1  0
 24 23  1  1
 24 26  1  0
 24 25  1  0
 25 18  1  0
 26 28  1  0
 27 26  2  0
M  END
$$$$
