FLL.pdb
     RDKit          3D

 28 28  0  0  1  0  0  0  0  0999 V2000
   30.0995  -23.5416  -19.2917 N   0  0  0  0  0  0  0  0  0  0  0  0
   30.6975  -24.2490  -18.1611 C   0  0  1  0  0  0  0  0  0  0  0  0
   29.5638  -24.9844  -17.4741 C   0  0  0  0  0  0  0  0  0  0  0  0
   28.6197  -23.9331  -16.9563 C   0  0  0  0  0  0  0  0  0  0  0  0
   29.0677  -22.9082  -16.1536 C   0  0  0  0  0  0  0  0  0  0  0  0
   28.2035  -21.9528  -15.6844 C   0  0  0  0  0  0  0  0  0  0  0  0
   26.8676  -21.9880  -15.9994 C   0  0  0  0  0  0  0  0  0  0  0  0
   26.3983  -23.0003  -16.7980 C   0  0  0  0  0  0  0  0  0  0  0  0
   27.2785  -23.9533  -17.2621 C   0  0  0  0  0  0  0  0  0  0  0  0
   31.7383  -25.1585  -18.6573 C   0  0  0  0  0  0  0  0  0  0  0  0
   31.7005  -25.6156  -19.8261 O   0  0  0  0  0  0  0  0  0  0  0  0
   36.2982  -24.9695  -19.6087 C   0  0  0  0  0  0  0  0  0  0  0  0
   35.8149  -24.7123  -18.1627 C   0  0  2  0  0  0  0  0  0  0  0  0
   37.0564  -24.3117  -17.4093 C   0  0  0  0  0  0  0  0  0  0  0  0
   35.1764  -25.9755  -17.7246 C   0  0  0  0  0  0  0  0  0  0  0  0
   33.8836  -26.3492  -18.3779 C   0  0  2  0  0  0  0  0  0  0  0  0
   32.8193  -25.5478  -17.8281 N   0  0  0  0  0  0  0  0  0  0  0  0
   33.5878  -27.7706  -17.9612 C   0  0  0  0  0  0  0  0  0  0  0  0
   33.2508  -28.0770  -16.7894 O   0  0  0  0  0  0  0  0  0  0  0  0
   30.4239  -30.7317  -18.9290 C   0  0  0  0  0  0  0  0  0  0  0  0
   31.4726  -30.6812  -20.0352 C   0  0  2  0  0  0  0  0  0  0  0  0
   30.9967  -31.3720  -21.2706 C   0  0  0  0  0  0  0  0  0  0  0  0
   32.8372  -31.0407  -19.5895 C   0  0  0  0  0  0  0  0  0  0  0  0
   33.4645  -30.2353  -18.5216 C   0  0  2  0  0  0  0  0  0  0  0  0
   33.6794  -28.8436  -18.8936 N   0  0  0  0  0  0  0  0  0  0  0  0
   34.6775  -30.8131  -17.9008 C   0  0  0  0  0  0  0  0  0  0  0  0
   34.7051  -31.9254  -17.3238 O   0  0  0  0  0  0  0  0  0  0  0  0
   35.8719  -30.1083  -17.9413 O   0  0  0  0  0  0  0  0  0  0  0  0
  2  1  1  6
  2  3  1  0
  4  3  1  0
  4  9  2  0
  5  4  1  0
  6  5  2  0
  6  7  1  0
  7  8  2  0
  8  9  1  0
 10  2  1  0
 10 17  1  0
 11 10  2  0
 13 14  1  1
 13 12  1  0
 15 13  1  0
 16 15  1  1
 17 16  1  0
 18 16  1  0
 19 18  2  0
 21 20  1  1
 21 23  1  0
 22 21  1  0
 24 23  1  6
 24 26  1  0
 24 25  1  0
 25 18  1  0
 26 28  1  0
 27 26  2  0
M  END
$$$$
