FLL.pdb
     RDKit          3D

 28 28  0  0  1  0  0  0  0  0999 V2000
   26.7169  -21.5209  -17.1872 N   0  0  0  0  0  0  0  0  0  0  0  0
   26.3949  -20.5245  -16.1675 C   0  0  1  0  0  0  0  0  0  0  0  0
   24.9354  -20.1681  -16.3698 C   0  0  0  0  0  0  0  0  0  0  0  0
   24.8764  -19.2561  -17.5654 C   0  0  0  0  0  0  0  0  0  0  0  0
   24.1927  -19.6194  -18.7038 C   0  0  0  0  0  0  0  0  0  0  0  0
   24.1420  -18.7849  -19.7905 C   0  0  0  0  0  0  0  0  0  0  0  0
   24.7698  -17.5639  -19.7776 C   0  0  0  0  0  0  0  0  0  0  0  0
   25.4573  -17.1806  -18.6537 C   0  0  0  0  0  0  0  0  0  0  0  0
   25.4996  -18.0296  -17.5694 C   0  0  0  0  0  0  0  0  0  0  0  0
   26.6558  -21.0927  -14.8387 C   0  0  0  0  0  0  0  0  0  0  0  0
   26.3540  -22.2810  -14.5679 O   0  0  0  0  0  0  0  0  0  0  0  0
   30.1752  -22.2513  -12.2808 C   0  0  0  0  0  0  0  0  0  0  0  0
   30.0490  -20.7371  -12.5673 C   0  0  2  0  0  0  0  0  0  0  0  0
   31.2884  -20.1286  -11.9646 C   0  0  0  0  0  0  0  0  0  0  0  0
   28.7655  -20.3207  -11.9555 C   0  0  0  0  0  0  0  0  0  0  0  0
   27.5140  -20.9044  -12.5308 C   0  0  2  0  0  0  0  0  0  0  0  0
   27.2578  -20.3132  -13.8201 N   0  0  0  0  0  0  0  0  0  0  0  0
   26.3815  -20.4552  -11.6380 C   0  0  0  0  0  0  0  0  0  0  0  0
   26.5137  -19.5433  -10.7829 O   0  0  0  0  0  0  0  0  0  0  0  0
   22.2193  -19.3036  -12.9424 C   0  0  0  0  0  0  0  0  0  0  0  0
   22.3276  -20.8019  -12.6794 C   0  0  2  0  0  0  0  0  0  0  0  0
   21.1616  -21.5416  -13.2479 C   0  0  0  0  0  0  0  0  0  0  0  0
   22.6812  -21.1453  -11.2840 C   0  0  0  0  0  0  0  0  0  0  0  0
   24.0204  -20.7715  -10.7843 C   0  0  2  0  0  0  0  0  0  0  0  0
   25.0928  -21.0556  -11.7279 N   0  0  0  0  0  0  0  0  0  0  0  0
   24.3643  -21.2531   -9.4278 C   0  0  0  0  0  0  0  0  0  0  0  0
   25.3451  -21.9920   -9.1761 O   0  0  0  0  0  0  0  0  0  0  0  0
   23.5756  -20.8842   -8.3476 O   0  0  0  0  0  0  0  0  0  0  0  0
  2  1  1  6
  2  3  1  0
  4  3  1  0
  4  9  2  0
  5  4  1  0
  6  5  2  0
  6  7  1  0
  7  8  2  0
  8  9  1  0
 10  2  1  0
 10 17  1  0
 11 10  2  0
 13 14  1  1
 13 12  1  0
 15 13  1  0
 16 15  1  1
 17 16  1  0
 18 16  1  0
 19 18  2  0
 21 20  1  1
 21 23  1  0
 22 21  1  0
 24 23  1  6
 24 26  1  0
 24 25  1  0
 25 18  1  0
 26 28  1  0
 27 26  2  0
M  END
$$$$
