FLL.pdb
     RDKit          3D

 28 28  0  0  1  0  0  0  0  0999 V2000
   14.5658  -22.3693    0.6472 N   0  0  0  0  0  0  0  0  0  0  0  0
   15.3321  -22.9941    1.7236 C   0  0  1  0  0  0  0  0  0  0  0  0
   16.7402  -23.1741    1.1917 C   0  0  0  0  0  0  0  0  0  0  0  0
   16.7024  -24.3592    0.2650 C   0  0  0  0  0  0  0  0  0  0  0  0
   16.6386  -24.1927   -1.1001 C   0  0  0  0  0  0  0  0  0  0  0  0
   16.6044  -25.2758   -1.9401 C   0  0  0  0  0  0  0  0  0  0  0  0
   16.6326  -26.5571   -1.4476 C   0  0  0  0  0  0  0  0  0  0  0  0
   16.6962  -26.7474   -0.0902 C   0  0  0  0  0  0  0  0  0  0  0  0
   16.7300  -25.6495    0.7416 C   0  0  0  0  0  0  0  0  0  0  0  0
   15.2860  -22.1320    2.9116 C   0  0  0  0  0  0  0  0  0  0  0  0
   14.9442  -20.9267    2.8287 O   0  0  0  0  0  0  0  0  0  0  0  0
   13.9561  -22.9448    8.6721 C   0  0  0  0  0  0  0  0  0  0  0  0
   14.6106  -21.8967    7.7425 C   0  0  2  0  0  0  0  0  0  0  0  0
   13.6302  -20.7535    7.7039 C   0  0  0  0  0  0  0  0  0  0  0  0
   14.8382  -22.5924    6.4544 C   0  0  0  0  0  0  0  0  0  0  0  0
   15.4659  -21.7996    5.3520 C   0  0  2  0  0  0  0  0  0  0  0  0
   15.6272  -22.6376    4.1905 N   0  0  0  0  0  0  0  0  0  0  0  0
   16.8634  -21.4576    5.8118 C   0  0  0  0  0  0  0  0  0  0  0  0
   17.7812  -22.3137    5.8849 O   0  0  0  0  0  0  0  0  0  0  0  0
   20.0759  -17.5013    4.3517 C   0  0  0  0  0  0  0  0  0  0  0  0
   20.2182  -18.3168    5.6325 C   0  0  2  0  0  0  0  0  0  0  0  0
   20.9441  -19.5983    5.3859 C   0  0  0  0  0  0  0  0  0  0  0  0
   18.9679  -18.4332    6.4155 C   0  0  0  0  0  0  0  0  0  0  0  0
   18.4910  -19.7819    6.7848 C   0  0  2  0  0  0  0  0  0  0  0  0
   17.2078  -20.1278    6.1891 N   0  0  0  0  0  0  0  0  0  0  0  0
   18.5107  -20.1041    8.2292 C   0  0  0  0  0  0  0  0  0  0  0  0
   17.6089  -19.7688    9.0326 O   0  0  0  0  0  0  0  0  0  0  0  0
   19.5759  -20.8179    8.7591 O   0  0  0  0  0  0  0  0  0  0  0  0
  2  1  1  6
  2  3  1  0
  4  3  1  0
  4  9  2  0
  5  4  1  0
  6  5  2  0
  6  7  1  0
  7  8  2  0
  8  9  1  0
 10  2  1  0
 10 17  1  0
 11 10  2  0
 13 14  1  6
 13 12  1  0
 15 13  1  0
 16 15  1  1
 17 16  1  0
 18 16  1  0
 19 18  2  0
 21 20  1  6
 21 23  1  0
 22 21  1  0
 24 23  1  1
 24 26  1  0
 24 25  1  0
 25 18  1  0
 26 28  1  0
 27 26  2  0
M  END
$$$$
