FLL.pdb
     RDKit          3D

 28 28  0  0  1  0  0  0  0  0999 V2000
   25.1045  -21.7607  -11.4057 N   0  0  0  0  0  0  0  0  0  0  0  0
   25.0876  -20.3184  -11.1697 C   0  0  1  0  0  0  0  0  0  0  0  0
   25.3511  -20.1284   -9.6889 C   0  0  0  0  0  0  0  0  0  0  0  0
   24.1446  -20.6619   -8.9648 C   0  0  0  0  0  0  0  0  0  0  0  0
   22.8707  -20.3983   -9.4154 C   0  0  0  0  0  0  0  0  0  0  0  0
   21.7747  -20.8868   -8.7521 C   0  0  0  0  0  0  0  0  0  0  0  0
   21.9127  -21.6521   -7.6205 C   0  0  0  0  0  0  0  0  0  0  0  0
   23.1729  -21.9278   -7.1529 C   0  0  0  0  0  0  0  0  0  0  0  0
   24.2649  -21.4302   -7.8299 C   0  0  0  0  0  0  0  0  0  0  0  0
   26.1101  -19.6805  -12.0089 C   0  0  0  0  0  0  0  0  0  0  0  0
   26.2762  -18.4359  -12.0000 O   0  0  0  0  0  0  0  0  0  0  0  0
   30.2049  -20.2247  -11.6711 C   0  0  0  0  0  0  0  0  0  0  0  0
   29.6214  -21.3535  -12.5521 C   0  0  2  0  0  0  0  0  0  0  0  0
   30.7589  -22.3242  -12.7342 C   0  0  0  0  0  0  0  0  0  0  0  0
   29.1397  -20.6886  -13.7854 C   0  0  0  0  0  0  0  0  0  0  0  0
   27.9437  -19.7990  -13.6588 C   0  0  2  0  0  0  0  0  0  0  0  0
   26.9419  -20.4540  -12.8559 N   0  0  0  0  0  0  0  0  0  0  0  0
   27.3503  -19.6787  -15.0426 C   0  0  0  0  0  0  0  0  0  0  0  0
   27.9862  -19.1938  -16.0126 O   0  0  0  0  0  0  0  0  0  0  0  0
   25.1744  -23.3481  -16.3196 C   0  0  0  0  0  0  0  0  0  0  0  0
   24.5309  -22.2566  -17.1684 C   0  0  2  0  0  0  0  0  0  0  0  0
   23.8043  -22.8326  -18.3390 C   0  0  0  0  0  0  0  0  0  0  0  0
   25.4292  -21.1205  -17.4721 C   0  0  0  0  0  0  0  0  0  0  0  0
   25.3738  -19.9269  -16.6032 C   0  0  2  0  0  0  0  0  0  0  0  0
   26.0221  -20.1170  -15.3129 N   0  0  0  0  0  0  0  0  0  0  0  0
   24.0414  -19.3030  -16.4419 C   0  0  0  0  0  0  0  0  0  0  0  0
   23.5165  -19.0528  -15.3316 O   0  0  0  0  0  0  0  0  0  0  0  0
   23.3021  -18.9625  -17.5655 O   0  0  0  0  0  0  0  0  0  0  0  0
  2  1  1  1
  2  3  1  0
  4  3  1  0
  4  9  2  0
  5  4  1  0
  6  5  2  0
  6  7  1  0
  7  8  2  0
  8  9  1  0
 10  2  1  0
 10 17  1  0
 11 10  2  0
 13 14  1  6
 13 12  1  0
 15 13  1  0
 16 15  1  6
 17 16  1  0
 18 16  1  0
 19 18  2  0
 21 20  1  6
 21 23  1  0
 22 21  1  0
 24 23  1  1
 24 26  1  0
 24 25  1  0
 25 18  1  0
 26 28  1  0
 27 26  2  0
M  END
$$$$
