FLL.pdb
     RDKit          3D

 28 28  0  0  1  0  0  0  0  0999 V2000
   23.4337  -21.8107  -13.5820 N   0  0  0  0  0  0  0  0  0  0  0  0
   23.4908  -20.9285  -12.4181 C   0  0  1  0  0  0  0  0  0  0  0  0
   22.2115  -21.1690  -11.6412 C   0  0  0  0  0  0  0  0  0  0  0  0
   21.1012  -20.5306  -12.4315 C   0  0  0  0  0  0  0  0  0  0  0  0
   20.0733  -21.2850  -12.9509 C   0  0  0  0  0  0  0  0  0  0  0  0
   19.0641  -20.6985  -13.6702 C   0  0  0  0  0  0  0  0  0  0  0  0
   19.0468  -19.3440  -13.8945 C   0  0  0  0  0  0  0  0  0  0  0  0
   20.0610  -18.5721  -13.3863 C   0  0  0  0  0  0  0  0  0  0  0  0
   21.0685  -19.1753  -12.6655 C   0  0  0  0  0  0  0  0  0  0  0  0
   24.6921  -21.2422  -11.6338 C   0  0  0  0  0  0  0  0  0  0  0  0
   25.0098  -22.4292  -11.3759 O   0  0  0  0  0  0  0  0  0  0  0  0
   28.4664  -21.7624  -12.6168 C   0  0  0  0  0  0  0  0  0  0  0  0
   28.1222  -20.2550  -12.6287 C   0  0  2  0  0  0  0  0  0  0  0  0
   29.2984  -19.5988  -13.3034 C   0  0  0  0  0  0  0  0  0  0  0  0
   27.9049  -19.8840  -11.2109 C   0  0  0  0  0  0  0  0  0  0  0  0
   26.7723  -20.5511  -10.4966 C   0  0  2  0  0  0  0  0  0  0  0  0
   25.5303  -20.2103  -11.1436 N   0  0  0  0  0  0  0  0  0  0  0  0
   26.7063  -19.9286   -9.1219 C   0  0  0  0  0  0  0  0  0  0  0  0
   26.0136  -18.9098   -8.8721 O   0  0  0  0  0  0  0  0  0  0  0  0
   26.5732  -20.3751   -3.9721 C   0  0  0  0  0  0  0  0  0  0  0  0
   27.5730  -21.2665   -4.7012 C   0  0  2  0  0  0  0  0  0  0  0  0
   28.3785  -22.0808   -3.7430 C   0  0  0  0  0  0  0  0  0  0  0  0
   28.3468  -20.5703   -5.7531 C   0  0  0  0  0  0  0  0  0  0  0  0
   27.6113  -19.7820   -6.7633 C   0  0  2  0  0  0  0  0  0  0  0  0
   27.4386  -20.4784   -8.0307 N   0  0  0  0  0  0  0  0  0  0  0  0
   28.0874  -18.3972   -6.9781 C   0  0  0  0  0  0  0  0  0  0  0  0
   28.9055  -18.0696   -7.8694 O   0  0  0  0  0  0  0  0  0  0  0  0
   27.6211  -17.3765   -6.1622 O   0  0  0  0  0  0  0  0  0  0  0  0
  2  1  1  6
  2  3  1  0
  4  3  1  0
  4  9  2  0
  5  4  1  0
  6  5  2  0
  6  7  1  0
  7  8  2  0
  8  9  1  0
 10  2  1  0
 10 17  1  0
 11 10  2  0
 13 14  1  1
 13 12  1  0
 15 13  1  0
 16 15  1  6
 17 16  1  0
 18 16  1  0
 19 18  2  0
 21 20  1  1
 21 23  1  0
 22 21  1  0
 24 23  1  1
 24 26  1  0
 24 25  1  0
 25 18  1  0
 26 28  1  0
 27 26  2  0
M  END
$$$$
