FLL.pdb
     RDKit          3D

 28 28  0  0  1  0  0  0  0  0999 V2000
   22.6812  -20.7573  -16.1112 N   0  0  0  0  0  0  0  0  0  0  0  0
   23.1960  -20.1355  -14.8928 C   0  0  1  0  0  0  0  0  0  0  0  0
   22.1330  -20.3398  -13.8314 C   0  0  0  0  0  0  0  0  0  0  0  0
   20.9134  -19.5888  -14.2931 C   0  0  0  0  0  0  0  0  0  0  0  0
   20.9674  -18.2388  -14.5576 C   0  0  0  0  0  0  0  0  0  0  0  0
   19.8534  -17.5591  -14.9780 C   0  0  0  0  0  0  0  0  0  0  0  0
   18.6520  -18.2017  -15.1480 C   0  0  0  0  0  0  0  0  0  0  0  0
   18.5744  -19.5472  -14.8904 C   0  0  0  0  0  0  0  0  0  0  0  0
   19.7021  -20.2170  -14.4686 C   0  0  0  0  0  0  0  0  0  0  0  0
   24.4751  -20.7619  -14.5350 C   0  0  0  0  0  0  0  0  0  0  0  0
   24.7343  -21.9461  -14.8623 O   0  0  0  0  0  0  0  0  0  0  0  0
   27.9942  -19.9771  -16.1777 C   0  0  0  0  0  0  0  0  0  0  0  0
   27.7618  -18.9460  -15.0491 C   0  0  2  0  0  0  0  0  0  0  0  0
   28.8400  -17.9125  -15.2464 C   0  0  0  0  0  0  0  0  0  0  0  0
   27.8322  -19.7154  -13.7848 C   0  0  0  0  0  0  0  0  0  0  0  0
   26.7186  -20.6747  -13.5066 C   0  0  2  0  0  0  0  0  0  0  0  0
   25.4573  -20.0453  -13.8074 N   0  0  0  0  0  0  0  0  0  0  0  0
   26.7176  -20.9095  -12.0146 C   0  0  0  0  0  0  0  0  0  0  0  0
   27.5437  -21.6688  -11.4476 O   0  0  0  0  0  0  0  0  0  0  0  0
   27.9603  -21.0725   -7.9572 C   0  0  0  0  0  0  0  0  0  0  0  0
   27.5053  -19.6949   -8.4272 C   0  0  2  0  0  0  0  0  0  0  0  0
   27.9611  -18.6217   -7.4942 C   0  0  0  0  0  0  0  0  0  0  0  0
   26.0806  -19.6327   -8.8225 C   0  0  0  0  0  0  0  0  0  0  0  0
   25.5695  -20.6393   -9.7757 C   0  0  2  0  0  0  0  0  0  0  0  0
   25.7645  -20.2699  -11.1709 N   0  0  0  0  0  0  0  0  0  0  0  0
   24.1877  -21.1137   -9.5393 C   0  0  0  0  0  0  0  0  0  0  0  0
   23.7358  -21.4155   -8.4098 O   0  0  0  0  0  0  0  0  0  0  0  0
   23.3139  -21.2440  -10.6092 O   0  0  0  0  0  0  0  0  0  0  0  0
  2  1  1  6
  2  3  1  0
  4  3  1  0
  4  9  2  0
  5  4  1  0
  6  5  2  0
  6  7  1  0
  7  8  2  0
  8  9  1  0
 10  2  1  0
 10 17  1  0
 11 10  2  0
 13 14  1  1
 13 12  1  0
 15 13  1  0
 16 15  1  1
 17 16  1  0
 18 16  1  0
 19 18  2  0
 21 20  1  1
 21 23  1  0
 22 21  1  0
 24 23  1  1
 24 26  1  0
 24 25  1  0
 25 18  1  0
 26 28  1  0
 27 26  2  0
M  END
$$$$
