FLL.pdb
     RDKit          3D

 28 28  0  0  1  0  0  0  0  0999 V2000
   23.6069  -22.4330  -15.3621 N   0  0  0  0  0  0  0  0  0  0  0  0
   23.4181  -21.9899  -13.9822 C   0  0  1  0  0  0  0  0  0  0  0  0
   22.3195  -22.8601  -13.4045 C   0  0  0  0  0  0  0  0  0  0  0  0
   21.0241  -22.3605  -13.9851 C   0  0  0  0  0  0  0  0  0  0  0  0
   19.8445  -23.0407  -13.7818 C   0  0  0  0  0  0  0  0  0  0  0  0
   18.6670  -22.5813  -14.3130 C   0  0  0  0  0  0  0  0  0  0  0  0
   18.6272  -21.4315  -15.0623 C   0  0  0  0  0  0  0  0  0  0  0  0
   19.7906  -20.7368  -15.2781 C   0  0  0  0  0  0  0  0  0  0  0  0
   20.9664  -21.2105  -14.7381 C   0  0  0  0  0  0  0  0  0  0  0  0
   24.6858  -22.1277  -13.2538 C   0  0  0  0  0  0  0  0  0  0  0  0
   25.3413  -23.1982  -13.2843 O   0  0  0  0  0  0  0  0  0  0  0  0
   28.6684  -20.8188  -13.6842 C   0  0  0  0  0  0  0  0  0  0  0  0
   27.7535  -19.6509  -13.2486 C   0  0  2  0  0  0  0  0  0  0  0  0
   28.6262  -18.4263  -13.3392 C   0  0  0  0  0  0  0  0  0  0  0  0
   27.2773  -20.0021  -11.8903 C   0  0  0  0  0  0  0  0  0  0  0  0
   26.4352  -21.2315  -11.7588 C   0  0  2  0  0  0  0  0  0  0  0  0
   25.2077  -21.0525  -12.4927 N   0  0  0  0  0  0  0  0  0  0  0  0
   26.0372  -21.3252  -10.3048 C   0  0  0  0  0  0  0  0  0  0  0  0
   25.0176  -21.9522   -9.9204 O   0  0  0  0  0  0  0  0  0  0  0  0
   28.7154  -21.5652   -6.3426 C   0  0  0  0  0  0  0  0  0  0  0  0
   28.6178  -20.1533   -6.9110 C   0  0  2  0  0  0  0  0  0  0  0  0
   29.5330  -19.2133   -6.1977 C   0  0  0  0  0  0  0  0  0  0  0  0
   27.2307  -19.6730   -7.0982 C   0  0  0  0  0  0  0  0  0  0  0  0
   26.3157  -20.4728   -7.9384 C   0  0  2  0  0  0  0  0  0  0  0  0
   26.8131  -20.6965   -9.2889 N   0  0  0  0  0  0  0  0  0  0  0  0
   24.9025  -20.0337   -7.9582 C   0  0  0  0  0  0  0  0  0  0  0  0
   24.4311  -19.2329   -8.7993 O   0  0  0  0  0  0  0  0  0  0  0  0
   24.0197  -20.5172   -7.0033 O   0  0  0  0  0  0  0  0  0  0  0  0
  2  1  1  6
  2  3  1  0
  4  3  1  0
  4  9  2  0
  5  4  1  0
  6  5  2  0
  6  7  1  0
  7  8  2  0
  8  9  1  0
 10  2  1  0
 10 17  1  0
 11 10  2  0
 13 14  1  1
 13 12  1  0
 15 13  1  0
 16 15  1  1
 17 16  1  0
 18 16  1  0
 19 18  2  0
 21 20  1  1
 21 23  1  0
 22 21  1  0
 24 23  1  6
 24 26  1  0
 24 25  1  0
 25 18  1  0
 26 28  1  0
 27 26  2  0
M  END
$$$$
