MWF.pdb
     RDKit          3D

 34 36  0  0  1  0  0  0  0  0999 V2000
   15.9325  -14.3090   19.2352 C   0  0  0  0  0  0  0  0  0  0  0  0
   15.1021  -14.7657   17.7103 S   0  0  0  0  0  0  0  0  0  0  0  0
   13.8303  -16.0176   18.0947 C   0  0  0  0  0  0  0  0  0  0  0  0
   13.2332  -15.6112   19.4368 C   0  0  0  0  0  0  0  0  0  0  0  0
   12.2678  -16.6688   19.9044 C   0  0  2  0  0  0  0  0  0  0  0  0
   11.3853  -17.1207   18.8758 N   0  0  0  0  0  0  0  0  0  0  0  0
   11.4906  -16.1174   21.0395 C   0  0  0  0  0  0  0  0  0  0  0  0
   11.6271  -14.8964   21.3408 O   0  0  0  0  0  0  0  0  0  0  0  0
   10.5873  -16.8504   21.8373 N   0  0  0  0  0  0  0  0  0  0  0  0
    9.7797  -16.2207   22.8626 C   0  0  1  0  0  0  0  0  0  0  0  0
    8.3222  -16.4297   22.6282 C   0  0  0  0  0  0  0  0  0  0  0  0
    7.6707  -15.5335   21.6800 C   0  0  0  0  0  0  0  0  0  0  0  0
    6.3277  -15.6245   21.2445 C   0  0  0  0  0  0  0  0  0  0  0  0
    6.0387  -14.6343   20.4108 N   0  0  0  0  0  0  0  0  0  0  0  0
    7.1401  -13.8943   20.2791 C   0  0  0  0  0  0  0  0  0  0  0  0
    7.4075  -12.7621   19.5392 C   0  0  0  0  0  0  0  0  0  0  0  0
    8.6461  -12.1608   19.5492 C   0  0  0  0  0  0  0  0  0  0  0  0
    9.6727  -12.6939   20.3210 C   0  0  0  0  0  0  0  0  0  0  0  0
    9.3954  -13.8169   21.0509 C   0  0  0  0  0  0  0  0  0  0  0  0
    8.1589  -14.4256   21.0485 C   0  0  0  0  0  0  0  0  0  0  0  0
   10.2382  -16.5725   24.1973 C   0  0  0  0  0  0  0  0  0  0  0  0
   10.5749  -17.7509   24.4722 O   0  0  0  0  0  0  0  0  0  0  0  0
   10.3314  -15.6040   25.2321 N   0  0  0  0  0  0  0  0  0  0  0  0
    9.8758  -15.8195   26.5926 C   0  0  1  0  0  0  0  0  0  0  0  0
    8.3637  -15.5812   26.5517 C   0  0  0  0  0  0  0  0  0  0  0  0
    7.9951  -14.1653   26.5689 C   0  0  0  0  0  0  0  0  0  0  0  0
    6.7087  -13.8058   26.2206 C   0  0  0  0  0  0  0  0  0  0  0  0
    6.2817  -12.5100   26.2132 C   0  0  0  0  0  0  0  0  0  0  0  0
    7.1768  -11.5168   26.5694 C   0  0  0  0  0  0  0  0  0  0  0  0
    8.4713  -11.8806   26.9195 C   0  0  0  0  0  0  0  0  0  0  0  0
    8.8922  -13.1907   26.9241 C   0  0  0  0  0  0  0  0  0  0  0  0
   10.1817  -17.2035   26.9869 C   0  0  0  0  0  0  0  0  0  0  0  0
   10.1360  -18.2052   26.2351 O   0  0  0  0  0  0  0  0  0  0  0  0
   10.5622  -17.4581   28.3157 O   0  0  0  0  0  0  0  0  0  0  0  0
  1  2  1  0
  3  2  1  0
  4  3  1  0
  5  4  1  0
  5  6  1  6
  7  8  2  0
  7  5  1  0
  9  7  1  0
 10  9  1  0
 10 11  1  1
 11 12  1  0
 12 20  1  0
 12 13  2  0
 13 14  1  0
 15 16  2  0
 15 14  1  0
 17 16  1  0
 18 17  2  0
 19 18  1  0
 19 20  2  0
 20 15  1  0
 21 10  1  0
 22 21  2  0
 23 21  1  0
 24 23  1  0
 24 25  1  6
 25 26  1  0
 26 31  1  0
 27 26  2  0
 27 28  1  0
 28 29  2  0
 29 30  1  0
 31 30  2  0
 32 34  1  0
 32 24  1  0
 33 32  2  0
M  END
$$$$
