MWF.pdb
     RDKit          3D

 34 36  0  0  1  0  0  0  0  0999 V2000
    9.1944  -22.5735   20.6575 C   0  0  0  0  0  0  0  0  0  0  0  0
   10.8439  -21.8716   20.7577 S   0  0  0  0  0  0  0  0  0  0  0  0
   11.0656  -20.7101   19.3669 C   0  0  0  0  0  0  0  0  0  0  0  0
   11.3657  -19.3545   19.9957 C   0  0  0  0  0  0  0  0  0  0  0  0
   10.2233  -18.4084   19.7326 C   0  0  2  0  0  0  0  0  0  0  0  0
   10.3870  -17.6466   18.5351 N   0  0  0  0  0  0  0  0  0  0  0  0
   10.0919  -17.5047   20.9000 C   0  0  0  0  0  0  0  0  0  0  0  0
   10.8900  -16.5298   21.0139 O   0  0  0  0  0  0  0  0  0  0  0  0
    9.1314  -17.6363   21.9245 N   0  0  0  0  0  0  0  0  0  0  0  0
    9.1540  -16.8062   23.1121 C   0  0  1  0  0  0  0  0  0  0  0  0
    7.7875  -16.3527   23.4991 C   0  0  0  0  0  0  0  0  0  0  0  0
    7.5330  -14.9172   23.4623 C   0  0  0  0  0  0  0  0  0  0  0  0
    7.5855  -14.0971   22.3107 C   0  0  0  0  0  0  0  0  0  0  0  0
    7.2651  -12.8460   22.6129 N   0  0  0  0  0  0  0  0  0  0  0  0
    7.0042  -12.8096   23.9200 C   0  0  0  0  0  0  0  0  0  0  0  0
    6.6339  -11.7795   24.7582 C   0  0  0  0  0  0  0  0  0  0  0  0
    6.4230  -11.9756   26.1046 C   0  0  0  0  0  0  0  0  0  0  0  0
    6.5824  -13.2417   26.6571 C   0  0  0  0  0  0  0  0  0  0  0  0
    6.9497  -14.2557   25.8157 C   0  0  0  0  0  0  0  0  0  0  0  0
    7.1621  -14.0699   24.4668 C   0  0  0  0  0  0  0  0  0  0  0  0
    9.9163  -17.4257   24.1846 C   0  0  0  0  0  0  0  0  0  0  0  0
    9.9613  -18.6753   24.3033 O   0  0  0  0  0  0  0  0  0  0  0  0
   10.6416  -16.6495   25.1275 N   0  0  0  0  0  0  0  0  0  0  0  0
   11.6032  -17.1974   26.0656 C   0  0  1  0  0  0  0  0  0  0  0  0
   11.9622  -16.0355   26.9963 C   0  0  0  0  0  0  0  0  0  0  0  0
   10.8938  -15.6861   27.9330 C   0  0  0  0  0  0  0  0  0  0  0  0
   10.8956  -16.2550   29.1906 C   0  0  0  0  0  0  0  0  0  0  0  0
    9.9397  -15.9816   30.1250 C   0  0  0  0  0  0  0  0  0  0  0  0
    8.9274  -15.0975   29.7961 C   0  0  0  0  0  0  0  0  0  0  0  0
    8.9272  -14.5260   28.5296 C   0  0  0  0  0  0  0  0  0  0  0  0
    9.8962  -14.8081   27.5942 C   0  0  0  0  0  0  0  0  0  0  0  0
   10.9716  -18.2963   26.8125 C   0  0  0  0  0  0  0  0  0  0  0  0
    9.7530  -18.5884   26.7928 O   0  0  0  0  0  0  0  0  0  0  0  0
   11.7779  -19.1088   27.6280 O   0  0  0  0  0  0  0  0  0  0  0  0
  1  2  1  0
  3  2  1  0
  4  3  1  0
  5  4  1  0
  5  6  1  6
  7  8  2  0
  7  5  1  0
  9  7  1  0
 10  9  1  0
 10 11  1  1
 11 12  1  0
 12 20  1  0
 12 13  2  0
 13 14  1  0
 15 16  2  0
 15 14  1  0
 17 16  1  0
 18 17  2  0
 19 18  1  0
 19 20  2  0
 20 15  1  0
 21 10  1  0
 22 21  2  0
 23 21  1  0
 24 23  1  0
 24 25  1  1
 25 26  1  0
 26 31  1  0
 27 26  2  0
 27 28  1  0
 28 29  2  0
 29 30  1  0
 31 30  2  0
 32 34  1  0
 32 24  1  0
 33 32  2  0
M  END
$$$$
