MWF.pdb
     RDKit          3D

 34 36  0  0  1  0  0  0  0  0999 V2000
   12.1394  -21.8488   23.0636 C   0  0  0  0  0  0  0  0  0  0  0  0
   13.3740  -21.2545   21.9033 S   0  0  0  0  0  0  0  0  0  0  0  0
   13.0732  -19.4806   21.5942 C   0  0  0  0  0  0  0  0  0  0  0  0
   11.7378  -19.4022   20.8638 C   0  0  0  0  0  0  0  0  0  0  0  0
   11.4298  -17.9681   20.5208 C   0  0  2  0  0  0  0  0  0  0  0  0
   12.5669  -17.2457   20.0452 N   0  0  0  0  0  0  0  0  0  0  0  0
   10.8752  -17.3118   21.7284 C   0  0  0  0  0  0  0  0  0  0  0  0
   11.5814  -16.4613   22.3435 O   0  0  0  0  0  0  0  0  0  0  0  0
    9.5958  -17.5560   22.2700 N   0  0  0  0  0  0  0  0  0  0  0  0
    9.1437  -16.9226   23.4925 C   0  0  1  0  0  0  0  0  0  0  0  0
    7.7651  -16.3717   23.3559 C   0  0  0  0  0  0  0  0  0  0  0  0
    7.5785  -14.9667   23.6992 C   0  0  0  0  0  0  0  0  0  0  0  0
    8.0469  -13.8625   22.9490 C   0  0  0  0  0  0  0  0  0  0  0  0
    7.6766  -12.7218   23.5154 N   0  0  0  0  0  0  0  0  0  0  0  0
    6.9826  -13.0316   24.6110 C   0  0  0  0  0  0  0  0  0  0  0  0
    6.3749  -12.2490   25.5697 C   0  0  0  0  0  0  0  0  0  0  0  0
    5.7079  -12.7972   26.6423 C   0  0  0  0  0  0  0  0  0  0  0  0
    5.6324  -14.1786   26.7830 C   0  0  0  0  0  0  0  0  0  0  0  0
    6.2388  -14.9445   25.8256 C   0  0  0  0  0  0  0  0  0  0  0  0
    6.9078  -14.4056   24.7480 C   0  0  0  0  0  0  0  0  0  0  0  0
    9.3435  -17.7835   24.6476 C   0  0  0  0  0  0  0  0  0  0  0  0
    9.4405  -19.0285   24.5131 O   0  0  0  0  0  0  0  0  0  0  0  0
    9.4452  -17.2546   25.9620 N   0  0  0  0  0  0  0  0  0  0  0  0
    9.6801  -18.0578   27.1471 C   0  0  1  0  0  0  0  0  0  0  0  0
    9.5863  -17.0784   28.3205 C   0  0  0  0  0  0  0  0  0  0  0  0
   10.2463  -15.7975   28.0662 C   0  0  0  0  0  0  0  0  0  0  0  0
    9.4714  -14.6655   27.9135 C   0  0  0  0  0  0  0  0  0  0  0  0
   10.0056  -13.4326   27.6772 C   0  0  0  0  0  0  0  0  0  0  0  0
   11.3813  -13.3143   27.5871 C   0  0  0  0  0  0  0  0  0  0  0  0
   12.1597  -14.4549   27.7409 C   0  0  0  0  0  0  0  0  0  0  0  0
   11.6111  -15.6942   27.9792 C   0  0  0  0  0  0  0  0  0  0  0  0
    8.6386  -19.0928   27.2388 C   0  0  0  0  0  0  0  0  0  0  0  0
    8.6147  -20.0351   28.0648 O   0  0  0  0  0  0  0  0  0  0  0  0
    7.5622  -19.0488   26.3361 O   0  0  0  0  0  0  0  0  0  0  0  0
  1  2  1  0
  3  2  1  0
  4  3  1  0
  5  4  1  0
  5  6  1  1
  7  8  2  0
  7  5  1  0
  9  7  1  0
 10  9  1  0
 10 11  1  6
 11 12  1  0
 12 20  1  0
 12 13  2  0
 13 14  1  0
 15 16  2  0
 15 14  1  0
 17 16  1  0
 18 17  2  0
 19 18  1  0
 19 20  2  0
 20 15  1  0
 21 10  1  0
 22 21  2  0
 23 21  1  0
 24 23  1  0
 24 25  1  1
 25 26  1  0
 26 31  1  0
 27 26  2  0
 27 28  1  0
 28 29  2  0
 29 30  1  0
 31 30  2  0
 32 34  1  0
 32 24  1  0
 33 32  2  0
M  END
$$$$
