MWF.pdb
     RDKit          3D

 34 36  0  0  1  0  0  0  0  0999 V2000
    9.1989  -20.1367   16.0924 C   0  0  0  0  0  0  0  0  0  0  0  0
    9.8741  -18.9517   17.2601 S   0  0  0  0  0  0  0  0  0  0  0  0
    8.4899  -18.0524   18.0398 C   0  0  0  0  0  0  0  0  0  0  0  0
    9.1267  -16.9963   18.9353 C   0  0  0  0  0  0  0  0  0  0  0  0
    8.0584  -16.2962   19.7340 C   0  0  2  0  0  0  0  0  0  0  0  0
    7.5732  -15.1080   19.1064 N   0  0  0  0  0  0  0  0  0  0  0  0
    8.6129  -15.9786   21.0712 C   0  0  0  0  0  0  0  0  0  0  0  0
    9.3586  -14.9650   21.2011 O   0  0  0  0  0  0  0  0  0  0  0  0
    8.3787  -16.7244   22.2453 N   0  0  0  0  0  0  0  0  0  0  0  0
    8.8548  -16.2877   23.5425 C   0  0  1  0  0  0  0  0  0  0  0  0
    7.8892  -16.6188   24.6291 C   0  0  0  0  0  0  0  0  0  0  0  0
    7.0025  -15.5493   25.0729 C   0  0  0  0  0  0  0  0  0  0  0  0
    5.6986  -15.7190   25.5951 C   0  0  0  0  0  0  0  0  0  0  0  0
    5.1769  -14.5490   25.9387 N   0  0  0  0  0  0  0  0  0  0  0  0
    6.0866  -13.6142   25.6623 C   0  0  0  0  0  0  0  0  0  0  0  0
    6.0739  -12.2433   25.8081 C   0  0  0  0  0  0  0  0  0  0  0  0
    7.1452  -11.4611   25.4386 C   0  0  0  0  0  0  0  0  0  0  0  0
    8.2840  -12.0499   24.9000 C   0  0  0  0  0  0  0  0  0  0  0  0
    8.2851  -13.4106   24.7604 C   0  0  0  0  0  0  0  0  0  0  0  0
    7.2186  -14.2022   25.1281 C   0  0  0  0  0  0  0  0  0  0  0  0
   10.2201  -16.7252   23.7874 C   0  0  0  0  0  0  0  0  0  0  0  0
   10.7188  -17.6743   23.1331 O   0  0  0  0  0  0  0  0  0  0  0  0
   11.0403  -16.0963   24.7617 N   0  0  0  0  0  0  0  0  0  0  0  0
   12.3443  -16.5861   25.1675 C   0  0  1  0  0  0  0  0  0  0  0  0
   12.8916  -15.5237   26.1249 C   0  0  0  0  0  0  0  0  0  0  0  0
   11.9597  -15.1657   27.1945 C   0  0  0  0  0  0  0  0  0  0  0  0
   11.0783  -14.1231   26.9913 C   0  0  0  0  0  0  0  0  0  0  0  0
   10.1751  -13.7266   27.9339 C   0  0  0  0  0  0  0  0  0  0  0  0
   10.1432  -14.3987   29.1430 C   0  0  0  0  0  0  0  0  0  0  0  0
   11.0313  -15.4480   29.3458 C   0  0  0  0  0  0  0  0  0  0  0  0
   11.9385  -15.8403   28.3884 C   0  0  0  0  0  0  0  0  0  0  0  0
   12.1793  -17.8782   25.8513 C   0  0  0  0  0  0  0  0  0  0  0  0
   13.1081  -18.6368   26.2155 O   0  0  0  0  0  0  0  0  0  0  0  0
   10.8791  -18.3297   26.1363 O   0  0  0  0  0  0  0  0  0  0  0  0
  1  2  1  0
  3  2  1  0
  4  3  1  0
  5  4  1  0
  5  6  1  6
  7  8  2  0
  7  5  1  0
  9  7  1  0
 10  9  1  0
 10 11  1  1
 11 12  1  0
 12 20  1  0
 12 13  2  0
 13 14  1  0
 15 16  2  0
 15 14  1  0
 17 16  1  0
 18 17  2  0
 19 18  1  0
 19 20  2  0
 20 15  1  0
 21 10  1  0
 22 21  2  0
 23 21  1  0
 24 23  1  0
 24 25  1  1
 25 26  1  0
 26 31  1  0
 27 26  2  0
 27 28  1  0
 28 29  2  0
 29 30  1  0
 31 30  2  0
 32 34  1  0
 32 24  1  0
 33 32  2  0
M  END
$$$$
