MWF.pdb
     RDKit          3D

 34 36  0  0  1  0  0  0  0  0999 V2000
    8.5210  -11.8312   18.8866 C   0  0  0  0  0  0  0  0  0  0  0  0
    7.8203  -13.0614   17.7824 S   0  0  0  0  0  0  0  0  0  0  0  0
    8.4629  -14.7022   18.2592 C   0  0  0  0  0  0  0  0  0  0  0  0
    8.8544  -14.5892   19.7278 C   0  0  0  0  0  0  0  0  0  0  0  0
    9.4767  -15.8814   20.1885 C   0  0  2  0  0  0  0  0  0  0  0  0
    8.6965  -17.0318   19.8585 N   0  0  0  0  0  0  0  0  0  0  0  0
    9.6766  -15.8024   21.6550 C   0  0  0  0  0  0  0  0  0  0  0  0
   10.4158  -14.8897   22.1250 O   0  0  0  0  0  0  0  0  0  0  0  0
    9.1020  -16.6767   22.6010 N   0  0  0  0  0  0  0  0  0  0  0  0
    9.2628  -16.4805   24.0278 C   0  0  1  0  0  0  0  0  0  0  0  0
    8.0336  -16.8575   24.7826 C   0  0  0  0  0  0  0  0  0  0  0  0
    7.1360  -15.7740   25.1662 C   0  0  0  0  0  0  0  0  0  0  0  0
    5.8955  -15.9232   25.8298 C   0  0  0  0  0  0  0  0  0  0  0  0
    5.3465  -14.7392   26.0661 N   0  0  0  0  0  0  0  0  0  0  0  0
    6.1773  -13.8148   25.5829 C   0  0  0  0  0  0  0  0  0  0  0  0
    6.1060  -12.4384   25.5485 C   0  0  0  0  0  0  0  0  0  0  0  0
    7.0970  -11.6715   24.9778 C   0  0  0  0  0  0  0  0  0  0  0  0
    8.2117  -12.2819   24.4133 C   0  0  0  0  0  0  0  0  0  0  0  0
    8.2713  -13.6479   24.4537 C   0  0  0  0  0  0  0  0  0  0  0  0
    7.2854  -14.4242   25.0234 C   0  0  0  0  0  0  0  0  0  0  0  0
   10.4890  -17.0903   24.5177 C   0  0  0  0  0  0  0  0  0  0  0  0
   11.1706  -17.8459   23.7815 O   0  0  0  0  0  0  0  0  0  0  0  0
   10.9656  -16.8508   25.8342 N   0  0  0  0  0  0  0  0  0  0  0  0
   12.1146  -17.5168   26.4181 C   0  0  1  0  0  0  0  0  0  0  0  0
   12.2436  -16.9323   27.8276 C   0  0  0  0  0  0  0  0  0  0  0  0
   11.1683  -16.0027   28.1748 C   0  0  0  0  0  0  0  0  0  0  0  0
   11.2064  -14.7187   27.6698 C   0  0  0  0  0  0  0  0  0  0  0  0
   10.2437  -13.7908   27.9410 C   0  0  0  0  0  0  0  0  0  0  0  0
    9.1864  -14.1539   28.7565 C   0  0  0  0  0  0  0  0  0  0  0  0
    9.1498  -15.4469   29.2641 C   0  0  0  0  0  0  0  0  0  0  0  0
   10.1260  -16.3756   28.9843 C   0  0  0  0  0  0  0  0  0  0  0  0
   11.8553  -18.9641   26.4685 C   0  0  0  0  0  0  0  0  0  0  0  0
   10.7848  -19.5271   26.1402 O   0  0  0  0  0  0  0  0  0  0  0  0
   12.8772  -19.8175   26.9188 O   0  0  0  0  0  0  0  0  0  0  0  0
  1  2  1  0
  3  2  1  0
  4  3  1  0
  5  4  1  0
  5  6  1  1
  7  8  2  0
  7  5  1  0
  9  7  1  0
 10  9  1  0
 10 11  1  1
 11 12  1  0
 12 20  1  0
 12 13  2  0
 13 14  1  0
 15 16  2  0
 15 14  1  0
 17 16  1  0
 18 17  2  0
 19 18  1  0
 19 20  2  0
 20 15  1  0
 21 10  1  0
 22 21  2  0
 23 21  1  0
 24 23  1  0
 24 25  1  1
 25 26  1  0
 26 31  1  0
 27 26  2  0
 27 28  1  0
 28 29  2  0
 29 30  1  0
 31 30  2  0
 32 34  1  0
 32 24  1  0
 33 32  2  0
M  END
$$$$
