MWF.pdb
     RDKit          3D

 34 36  0  0  1  0  0  0  0  0999 V2000
   12.9802  -19.9880   18.7872 C   0  0  0  0  0  0  0  0  0  0  0  0
   13.0852  -18.5254   17.7512 S   0  0  0  0  0  0  0  0  0  0  0  0
   11.4150  -17.8060   17.5921 C   0  0  0  0  0  0  0  0  0  0  0  0
   10.6398  -18.2687   18.8201 C   0  0  0  0  0  0  0  0  0  0  0  0
    9.5105  -17.3114   19.0984 C   0  0  2  0  0  0  0  0  0  0  0  0
    9.4893  -16.1917   18.2113 N   0  0  0  0  0  0  0  0  0  0  0  0
    9.6295  -16.8500   20.5019 C   0  0  0  0  0  0  0  0  0  0  0  0
   10.2725  -15.7883   20.7461 O   0  0  0  0  0  0  0  0  0  0  0  0
    9.0758  -17.5052   21.6216 N   0  0  0  0  0  0  0  0  0  0  0  0
    9.1945  -16.9701   22.9631 C   0  0  1  0  0  0  0  0  0  0  0  0
    7.9238  -17.1076   23.7306 C   0  0  0  0  0  0  0  0  0  0  0  0
    7.1473  -15.8920   23.9455 C   0  0  0  0  0  0  0  0  0  0  0  0
    5.8408  -15.6483   23.4604 C   0  0  0  0  0  0  0  0  0  0  0  0
    5.4059  -14.4623   23.8646 N   0  0  0  0  0  0  0  0  0  0  0  0
    6.3759  -13.9143   24.5972 C   0  0  0  0  0  0  0  0  0  0  0  0
    6.4665  -12.7033   25.2499 C   0  0  0  0  0  0  0  0  0  0  0  0
    7.5927  -12.3363   25.9520 C   0  0  0  0  0  0  0  0  0  0  0  0
    8.6831  -13.1968   26.0180 C   0  0  0  0  0  0  0  0  0  0  0  0
    8.5815  -14.3953   25.3667 C   0  0  0  0  0  0  0  0  0  0  0  0
    7.4585  -14.7722   24.6624 C   0  0  0  0  0  0  0  0  0  0  0  0
   10.3742  -17.4824   23.6421 C   0  0  0  0  0  0  0  0  0  0  0  0
   10.5786  -18.7184   23.7327 O   0  0  0  0  0  0  0  0  0  0  0  0
   11.3390  -16.6130   24.2173 N   0  0  0  0  0  0  0  0  0  0  0  0
   11.6022  -16.5163   25.6408 C   0  0  1  0  0  0  0  0  0  0  0  0
   10.7712  -15.3236   26.1221 C   0  0  0  0  0  0  0  0  0  0  0  0
   10.8106  -15.1315   27.5721 C   0  0  0  0  0  0  0  0  0  0  0  0
   10.0817  -14.1003   28.1294 C   0  0  0  0  0  0  0  0  0  0  0  0
   10.0604  -13.8534   29.4710 C   0  0  0  0  0  0  0  0  0  0  0  0
   10.8010  -14.6716   30.3057 C   0  0  0  0  0  0  0  0  0  0  0  0
   11.5342  -15.7091   29.7429 C   0  0  0  0  0  0  0  0  0  0  0  0
   11.5489  -15.9500   28.3882 C   0  0  0  0  0  0  0  0  0  0  0  0
   11.1674  -17.7607   26.2941 C   0  0  0  0  0  0  0  0  0  0  0  0
   10.0561  -18.3188   26.1384 O   0  0  0  0  0  0  0  0  0  0  0  0
   12.0527  -18.4051   27.1753 O   0  0  0  0  0  0  0  0  0  0  0  0
  1  2  1  0
  3  2  1  0
  4  3  1  0
  5  4  1  0
  5  6  1  6
  7  8  2  0
  7  5  1  0
  9  7  1  0
 10  9  1  0
 10 11  1  1
 11 12  1  0
 12 20  1  0
 12 13  2  0
 13 14  1  0
 15 16  2  0
 15 14  1  0
 17 16  1  0
 18 17  2  0
 19 18  1  0
 19 20  2  0
 20 15  1  0
 21 10  1  0
 22 21  2  0
 23 21  1  0
 24 23  1  0
 24 25  1  1
 25 26  1  0
 26 31  1  0
 27 26  2  0
 27 28  1  0
 28 29  2  0
 29 30  1  0
 31 30  2  0
 32 34  1  0
 32 24  1  0
 33 32  2  0
M  END
$$$$
