MWF.pdb
     RDKit          3D

 34 36  0  0  1  0  0  0  0  0999 V2000
    6.9573  -12.6236   17.3274 C   0  0  0  0  0  0  0  0  0  0  0  0
    8.1984  -13.4211   16.3040 S   0  0  0  0  0  0  0  0  0  0  0  0
    8.5527  -15.0706   17.0012 C   0  0  0  0  0  0  0  0  0  0  0  0
    9.1064  -14.8252   18.3998 C   0  0  0  0  0  0  0  0  0  0  0  0
    9.4789  -16.1388   19.0363 C   0  0  2  0  0  0  0  0  0  0  0  0
    8.5874  -17.2023   18.6971 N   0  0  0  0  0  0  0  0  0  0  0  0
    9.5125  -15.9484   20.5058 C   0  0  0  0  0  0  0  0  0  0  0  0
   10.3203  -15.1079   20.9971 O   0  0  0  0  0  0  0  0  0  0  0  0
    8.7035  -16.6384   21.4326 N   0  0  0  0  0  0  0  0  0  0  0  0
    8.8548  -16.4674   22.8636 C   0  0  1  0  0  0  0  0  0  0  0  0
    7.6343  -16.8934   23.6062 C   0  0  0  0  0  0  0  0  0  0  0  0
    7.0926  -15.9532   24.5807 C   0  0  0  0  0  0  0  0  0  0  0  0
    6.3259  -16.2928   25.7202 C   0  0  0  0  0  0  0  0  0  0  0  0
    6.0216  -15.2076   26.4192 N   0  0  0  0  0  0  0  0  0  0  0  0
    6.5577  -14.1650   25.7838 C   0  0  0  0  0  0  0  0  0  0  0  0
    6.5482  -12.8138   26.0574 C   0  0  0  0  0  0  0  0  0  0  0  0
    7.1736  -11.9001   25.2388 C   0  0  0  0  0  0  0  0  0  0  0  0
    7.8404  -12.3304   24.0969 C   0  0  0  0  0  0  0  0  0  0  0  0
    7.8432  -13.6732   23.8361 C   0  0  0  0  0  0  0  0  0  0  0  0
    7.2214  -14.5956   24.6495 C   0  0  0  0  0  0  0  0  0  0  0  0
   10.0959  -17.0535   23.3451 C   0  0  0  0  0  0  0  0  0  0  0  0
   10.3211  -18.2820   23.2129 O   0  0  0  0  0  0  0  0  0  0  0  0
   11.0982  -16.2652   23.9708 N   0  0  0  0  0  0  0  0  0  0  0  0
   11.4046  -16.3123   25.3881 C   0  0  1  0  0  0  0  0  0  0  0  0
   10.5385  -15.2201   26.0221 C   0  0  0  0  0  0  0  0  0  0  0  0
   10.5113  -15.2715   27.4841 C   0  0  0  0  0  0  0  0  0  0  0  0
    9.5627  -14.5318   28.1609 C   0  0  0  0  0  0  0  0  0  0  0  0
    9.4658  -14.5253   29.5218 C   0  0  0  0  0  0  0  0  0  0  0  0
   10.3565  -15.2925   30.2517 C   0  0  0  0  0  0  0  0  0  0  0  0
   11.3108  -16.0363   29.5687 C   0  0  0  0  0  0  0  0  0  0  0  0
   11.4001  -16.0362   28.1955 C   0  0  0  0  0  0  0  0  0  0  0  0
   11.0472  -17.6399   25.9119 C   0  0  0  0  0  0  0  0  0  0  0  0
    9.9117  -18.1672   25.8548 O   0  0  0  0  0  0  0  0  0  0  0  0
   12.0439  -18.4097   26.5359 O   0  0  0  0  0  0  0  0  0  0  0  0
  1  2  1  0
  3  2  1  0
  4  3  1  0
  5  4  1  0
  5  6  1  1
  7  8  2  0
  7  5  1  0
  9  7  1  0
 10  9  1  0
 10 11  1  1
 11 12  1  0
 12 20  1  0
 12 13  2  0
 13 14  1  0
 15 16  2  0
 15 14  1  0
 17 16  1  0
 18 17  2  0
 19 18  1  0
 19 20  2  0
 20 15  1  0
 21 10  1  0
 22 21  2  0
 23 21  1  0
 24 23  1  0
 24 25  1  1
 25 26  1  0
 26 31  1  0
 27 26  2  0
 27 28  1  0
 28 29  2  0
 29 30  1  0
 31 30  2  0
 32 34  1  0
 32 24  1  0
 33 32  2  0
M  END
$$$$
