MWF.pdb
     RDKit          3D

 34 36  0  0  1  0  0  0  0  0999 V2000
    7.3914  -11.7448   19.1821 C   0  0  0  0  0  0  0  0  0  0  0  0
    8.0256  -12.7690   17.8508 S   0  0  0  0  0  0  0  0  0  0  0  0
    8.1452  -14.4896   18.4489 C   0  0  0  0  0  0  0  0  0  0  0  0
    8.6288  -14.4000   19.8915 C   0  0  0  0  0  0  0  0  0  0  0  0
    9.3536  -15.6669   20.2639 C   0  0  2  0  0  0  0  0  0  0  0  0
    8.6639  -16.8507   19.8589 N   0  0  0  0  0  0  0  0  0  0  0  0
    9.5567  -15.6701   21.7321 C   0  0  0  0  0  0  0  0  0  0  0  0
   10.2984  -14.7862   22.2507 O   0  0  0  0  0  0  0  0  0  0  0  0
    8.9823  -16.5947   22.6291 N   0  0  0  0  0  0  0  0  0  0  0  0
    9.1845  -16.5051   24.0613 C   0  0  1  0  0  0  0  0  0  0  0  0
    7.9711  -16.9218   24.8209 C   0  0  0  0  0  0  0  0  0  0  0  0
    7.0403  -15.8679   25.2080 C   0  0  0  0  0  0  0  0  0  0  0  0
    5.7547  -16.0634   25.7654 C   0  0  0  0  0  0  0  0  0  0  0  0
    5.1819  -14.8989   26.0389 N   0  0  0  0  0  0  0  0  0  0  0  0
    6.0402  -13.9428   25.6823 C   0  0  0  0  0  0  0  0  0  0  0  0
    5.9627  -12.5673   25.7350 C   0  0  0  0  0  0  0  0  0  0  0  0
    6.9884  -11.7622   25.2928 C   0  0  0  0  0  0  0  0  0  0  0  0
    8.1461  -12.3315   24.7737 C   0  0  0  0  0  0  0  0  0  0  0  0
    8.2115  -13.6969   24.7267 C   0  0  0  0  0  0  0  0  0  0  0  0
    7.1910  -14.5114   25.1676 C   0  0  0  0  0  0  0  0  0  0  0  0
   10.4150  -17.1634   24.4711 C   0  0  0  0  0  0  0  0  0  0  0  0
   11.0673  -17.8690   23.6623 O   0  0  0  0  0  0  0  0  0  0  0  0
   10.9287  -17.0288   25.7885 N   0  0  0  0  0  0  0  0  0  0  0  0
   12.1003  -17.7283   26.2812 C   0  0  1  0  0  0  0  0  0  0  0  0
   12.2584  -17.2718   27.7343 C   0  0  0  0  0  0  0  0  0  0  0  0
   11.5192  -16.0481   28.0456 C   0  0  0  0  0  0  0  0  0  0  0  0
   10.6205  -16.0588   29.0932 C   0  0  0  0  0  0  0  0  0  0  0  0
    9.8933  -14.9617   29.4522 C   0  0  0  0  0  0  0  0  0  0  0  0
   10.0651  -13.7909   28.7350 C   0  0  0  0  0  0  0  0  0  0  0  0
   10.9702  -13.7820   27.6807 C   0  0  0  0  0  0  0  0  0  0  0  0
   11.6991  -14.8942   27.3266 C   0  0  0  0  0  0  0  0  0  0  0  0
   11.8598  -19.1778   26.2064 C   0  0  0  0  0  0  0  0  0  0  0  0
   12.6978  -20.0726   26.4668 O   0  0  0  0  0  0  0  0  0  0  0  0
   10.5893  -19.6315   25.8124 O   0  0  0  0  0  0  0  0  0  0  0  0
  1  2  1  0
  3  2  1  0
  4  3  1  0
  5  4  1  0
  5  6  1  1
  7  8  2  0
  7  5  1  0
  9  7  1  0
 10  9  1  0
 10 11  1  1
 11 12  1  0
 12 20  1  0
 12 13  2  0
 13 14  1  0
 15 16  2  0
 15 14  1  0
 17 16  1  0
 18 17  2  0
 19 18  1  0
 19 20  2  0
 20 15  1  0
 21 10  1  0
 22 21  2  0
 23 21  1  0
 24 23  1  0
 24 25  1  1
 25 26  1  0
 26 31  1  0
 27 26  2  0
 27 28  1  0
 28 29  2  0
 29 30  1  0
 31 30  2  0
 32 34  1  0
 32 24  1  0
 33 32  2  0
M  END
$$$$
