MWF.pdb
     RDKit          3D

 34 36  0  0  1  0  0  0  0  0999 V2000
    8.9805  -21.0894   28.1543 C   0  0  0  0  0  0  0  0  0  0  0  0
    8.1621  -19.4921   28.2042 S   0  0  0  0  0  0  0  0  0  0  0  0
    7.5462  -19.1032   26.5303 C   0  0  0  0  0  0  0  0  0  0  0  0
    7.7138  -20.3795   25.7142 C   0  0  0  0  0  0  0  0  0  0  0  0
    7.1567  -20.1740   24.3297 C   0  0  2  0  0  0  0  0  0  0  0  0
    7.2091  -21.3505   23.5209 N   0  0  0  0  0  0  0  0  0  0  0  0
    7.9135  -19.0752   23.6842 C   0  0  0  0  0  0  0  0  0  0  0  0
    8.8547  -19.3630   22.8895 O   0  0  0  0  0  0  0  0  0  0  0  0
    7.6735  -17.6993   23.8810 N   0  0  0  0  0  0  0  0  0  0  0  0
    8.2880  -16.6841   23.0492 C   0  0  1  0  0  0  0  0  0  0  0  0
    7.4299  -15.4709   22.9279 C   0  0  0  0  0  0  0  0  0  0  0  0
    6.8313  -14.9601   24.1558 C   0  0  0  0  0  0  0  0  0  0  0  0
    5.9916  -15.6877   25.0316 C   0  0  0  0  0  0  0  0  0  0  0  0
    5.6482  -14.9444   26.0749 N   0  0  0  0  0  0  0  0  0  0  0  0
    6.2288  -13.7540   25.9202 C   0  0  0  0  0  0  0  0  0  0  0  0
    6.2080  -12.6107   26.6905 C   0  0  0  0  0  0  0  0  0  0  0  0
    6.8888  -11.4718   26.3226 C   0  0  0  0  0  0  0  0  0  0  0  0
    7.6255  -11.4513   25.1434 C   0  0  0  0  0  0  0  0  0  0  0  0
    7.6388  -12.5914   24.3877 C   0  0  0  0  0  0  0  0  0  0  0  0
    6.9617  -13.7366   24.7477 C   0  0  0  0  0  0  0  0  0  0  0  0
    9.6609  -16.4210   23.4509 C   0  0  0  0  0  0  0  0  0  0  0  0
   10.4158  -15.7144   22.7379 O   0  0  0  0  0  0  0  0  0  0  0  0
   10.1959  -16.9406   24.6598 N   0  0  0  0  0  0  0  0  0  0  0  0
   11.5719  -16.7634   25.0840 C   0  0  1  0  0  0  0  0  0  0  0  0
   11.7271  -15.2589   25.3235 C   0  0  0  0  0  0  0  0  0  0  0  0
   11.1452  -14.8057   26.5871 C   0  0  0  0  0  0  0  0  0  0  0  0
   11.1839  -15.6476   27.6803 C   0  0  0  0  0  0  0  0  0  0  0  0
   10.6679  -15.3027   28.8953 C   0  0  0  0  0  0  0  0  0  0  0  0
   10.0817  -14.0571   29.0352 C   0  0  0  0  0  0  0  0  0  0  0  0
   10.0435  -13.2111   27.9337 C   0  0  0  0  0  0  0  0  0  0  0  0
   10.5670  -13.5684   26.7123 C   0  0  0  0  0  0  0  0  0  0  0  0
   11.7921  -17.5211   26.3257 C   0  0  0  0  0  0  0  0  0  0  0  0
   12.8776  -17.6096   26.9457 O   0  0  0  0  0  0  0  0  0  0  0  0
   10.7104  -18.2170   26.8922 O   0  0  0  0  0  0  0  0  0  0  0  0
  1  2  1  0
  3  2  1  0
  4  3  1  0
  5  4  1  0
  5  6  1  6
  7  8  2  0
  7  5  1  0
  9  7  1  0
 10  9  1  0
 10 11  1  1
 11 12  1  0
 12 20  1  0
 12 13  2  0
 13 14  1  0
 15 16  2  0
 15 14  1  0
 17 16  1  0
 18 17  2  0
 19 18  1  0
 19 20  2  0
 20 15  1  0
 21 10  1  0
 22 21  2  0
 23 21  1  0
 24 23  1  0
 24 25  1  1
 25 26  1  0
 26 31  1  0
 27 26  2  0
 27 28  1  0
 28 29  2  0
 29 30  1  0
 31 30  2  0
 32 34  1  0
 32 24  1  0
 33 32  2  0
M  END
$$$$
