MWF.pdb
     RDKit          3D

 34 36  0  0  1  0  0  0  0  0999 V2000
    8.4133  -11.5205   18.8571 C   0  0  0  0  0  0  0  0  0  0  0  0
    8.1416  -12.6954   17.5270 S   0  0  0  0  0  0  0  0  0  0  0  0
    9.0153  -14.2456   17.9346 C   0  0  0  0  0  0  0  0  0  0  0  0
    9.2139  -14.2308   19.4457 C   0  0  0  0  0  0  0  0  0  0  0  0
    9.9962  -15.4472   19.8672 C   0  0  2  0  0  0  0  0  0  0  0  0
    9.5314  -16.6543   19.2606 N   0  0  0  0  0  0  0  0  0  0  0  0
    9.9240  -15.5558   21.3436 C   0  0  0  0  0  0  0  0  0  0  0  0
   10.4140  -14.6289   22.0515 O   0  0  0  0  0  0  0  0  0  0  0  0
    9.3428  -16.6286   22.0513 N   0  0  0  0  0  0  0  0  0  0  0  0
    9.0576  -16.5503   23.4699 C   0  0  1  0  0  0  0  0  0  0  0  0
    7.6508  -16.9374   23.7760 C   0  0  0  0  0  0  0  0  0  0  0  0
    6.9172  -16.0822   24.7020 C   0  0  0  0  0  0  0  0  0  0  0  0
    6.1591  -16.5236   25.8119 C   0  0  0  0  0  0  0  0  0  0  0  0
    5.6501  -15.4911   26.4706 N   0  0  0  0  0  0  0  0  0  0  0  0
    6.0428  -14.3856   25.8369 C   0  0  0  0  0  0  0  0  0  0  0  0
    5.8029  -13.0496   26.0783 C   0  0  0  0  0  0  0  0  0  0  0  0
    6.3135  -12.0596   25.2688 C   0  0  0  0  0  0  0  0  0  0  0  0
    7.0969  -12.3941   24.1697 C   0  0  0  0  0  0  0  0  0  0  0  0
    7.3283  -13.7226   23.9405 C   0  0  0  0  0  0  0  0  0  0  0  0
    6.8227  -14.7207   24.7452 C   0  0  0  0  0  0  0  0  0  0  0  0
   10.0648  -17.2430   24.2580 C   0  0  0  0  0  0  0  0  0  0  0  0
   10.8552  -18.0572   23.7197 O   0  0  0  0  0  0  0  0  0  0  0  0
   10.1997  -17.0218   25.6546 N   0  0  0  0  0  0  0  0  0  0  0  0
   11.1631  -17.7041   26.4979 C   0  0  1  0  0  0  0  0  0  0  0  0
   10.9288  -17.1482   27.9054 C   0  0  0  0  0  0  0  0  0  0  0  0
   10.8203  -15.6896   27.9465 C   0  0  0  0  0  0  0  0  0  0  0  0
   11.9580  -14.9298   27.7634 C   0  0  0  0  0  0  0  0  0  0  0  0
   11.9448  -13.5657   27.7836 C   0  0  0  0  0  0  0  0  0  0  0  0
   10.7401  -12.9192   27.9968 C   0  0  0  0  0  0  0  0  0  0  0  0
    9.5960  -13.6857   28.1811 C   0  0  0  0  0  0  0  0  0  0  0  0
    9.6198  -15.0614   28.1588 C   0  0  0  0  0  0  0  0  0  0  0  0
   10.9010  -19.1510   26.4514 C   0  0  0  0  0  0  0  0  0  0  0  0
   11.7451  -20.0542   26.6573 O   0  0  0  0  0  0  0  0  0  0  0  0
    9.6001  -19.5918   26.1533 O   0  0  0  0  0  0  0  0  0  0  0  0
  1  2  1  0
  3  2  1  0
  4  3  1  0
  5  4  1  0
  5  6  1  6
  7  8  2  0
  7  5  1  0
  9  7  1  0
 10  9  1  0
 10 11  1  6
 11 12  1  0
 12 20  1  0
 12 13  2  0
 13 14  1  0
 15 16  2  0
 15 14  1  0
 17 16  1  0
 18 17  2  0
 19 18  1  0
 19 20  2  0
 20 15  1  0
 21 10  1  0
 22 21  2  0
 23 21  1  0
 24 23  1  0
 24 25  1  1
 25 26  1  0
 26 31  1  0
 27 26  2  0
 27 28  1  0
 28 29  2  0
 29 30  1  0
 31 30  2  0
 32 34  1  0
 32 24  1  0
 33 32  2  0
M  END
$$$$
