MWF.pdb
     RDKit          3D

 34 36  0  0  1  0  0  0  0  0999 V2000
    7.6595  -11.7560   20.3316 C   0  0  0  0  0  0  0  0  0  0  0  0
    7.5157  -12.9319   18.9825 S   0  0  0  0  0  0  0  0  0  0  0  0
    7.5392  -14.6193   19.6787 C   0  0  0  0  0  0  0  0  0  0  0  0
    8.6604  -14.6321   20.7110 C   0  0  0  0  0  0  0  0  0  0  0  0
    8.8827  -16.0387   21.2023 C   0  0  2  0  0  0  0  0  0  0  0  0
    7.7000  -16.8396   21.1721 N   0  0  0  0  0  0  0  0  0  0  0  0
    9.4177  -15.9682   22.5826 C   0  0  0  0  0  0  0  0  0  0  0  0
   10.4074  -15.2165   22.8193 O   0  0  0  0  0  0  0  0  0  0  0  0
    8.9102  -16.6829   23.6876 N   0  0  0  0  0  0  0  0  0  0  0  0
    9.4182  -16.4867   25.0306 C   0  0  1  0  0  0  0  0  0  0  0  0
    8.3248  -16.4886   26.0441 C   0  0  0  0  0  0  0  0  0  0  0  0
    7.2872  -15.4742   25.8978 C   0  0  0  0  0  0  0  0  0  0  0  0
    5.9317  -15.7181   25.5742 C   0  0  0  0  0  0  0  0  0  0  0  0
    5.2442  -14.5840   25.5563 N   0  0  0  0  0  0  0  0  0  0  0  0
    6.0947  -13.6015   25.8549 C   0  0  0  0  0  0  0  0  0  0  0  0
    5.9255  -12.2379   25.9684 C   0  0  0  0  0  0  0  0  0  0  0  0
    6.9698  -11.3978   26.2838 C   0  0  0  0  0  0  0  0  0  0  0  0
    8.2415  -11.9180   26.4982 C   0  0  0  0  0  0  0  0  0  0  0  0
    8.3970  -13.2720   26.3830 C   0  0  0  0  0  0  0  0  0  0  0  0
    7.3581  -14.1214   26.0690 C   0  0  0  0  0  0  0  0  0  0  0  0
   10.5211  -17.3885   25.3234 C   0  0  0  0  0  0  0  0  0  0  0  0
   10.6033  -18.5084   24.7608 O   0  0  0  0  0  0  0  0  0  0  0  0
   11.5457  -17.0381   26.2427 N   0  0  0  0  0  0  0  0  0  0  0  0
   12.5045  -17.9789   26.7910 C   0  0  1  0  0  0  0  0  0  0  0  0
   13.8580  -17.2678   26.7053 C   0  0  0  0  0  0  0  0  0  0  0  0
   14.2700  -16.9595   25.3357 C   0  0  0  0  0  0  0  0  0  0  0  0
   13.6324  -15.9383   24.6602 C   0  0  0  0  0  0  0  0  0  0  0  0
   13.9564  -15.5839   23.3832 C   0  0  0  0  0  0  0  0  0  0  0  0
   14.9661  -16.2782   22.7403 C   0  0  0  0  0  0  0  0  0  0  0  0
   15.6066  -17.3058   23.4218 C   0  0  0  0  0  0  0  0  0  0  0  0
   15.2724  -17.6556   24.7100 C   0  0  0  0  0  0  0  0  0  0  0  0
   12.1472  -18.2675   28.1886 C   0  0  0  0  0  0  0  0  0  0  0  0
   11.2033  -17.7437   28.8253 O   0  0  0  0  0  0  0  0  0  0  0  0
   12.9112  -19.2088   28.8998 O   0  0  0  0  0  0  0  0  0  0  0  0
  1  2  1  0
  3  2  1  0
  4  3  1  0
  5  4  1  0
  5  6  1  1
  7  8  2  0
  7  5  1  0
  9  7  1  0
 10  9  1  0
 10 11  1  1
 11 12  1  0
 12 20  1  0
 12 13  2  0
 13 14  1  0
 15 16  2  0
 15 14  1  0
 17 16  1  0
 18 17  2  0
 19 18  1  0
 19 20  2  0
 20 15  1  0
 21 10  1  0
 22 21  2  0
 23 21  1  0
 24 23  1  0
 24 25  1  1
 25 26  1  0
 26 31  1  0
 27 26  2  0
 27 28  1  0
 28 29  2  0
 29 30  1  0
 31 30  2  0
 32 34  1  0
 32 24  1  0
 33 32  2  0
M  END
$$$$
