MWF.pdb
     RDKit          3D

 34 36  0  0  1  0  0  0  0  0999 V2000
    8.3531  -12.0456   18.4330 C   0  0  0  0  0  0  0  0  0  0  0  0
    7.7812  -13.2496   17.2300 S   0  0  0  0  0  0  0  0  0  0  0  0
    8.3794  -14.8998   17.7313 C   0  0  0  0  0  0  0  0  0  0  0  0
    8.6463  -14.8125   19.2293 C   0  0  0  0  0  0  0  0  0  0  0  0
    9.1109  -16.1509   19.7414 C   0  0  2  0  0  0  0  0  0  0  0  0
    8.1739  -17.2023   19.5014 N   0  0  0  0  0  0  0  0  0  0  0  0
    9.3768  -16.0242   21.1940 C   0  0  0  0  0  0  0  0  0  0  0  0
   10.2849  -15.2350   21.5849 O   0  0  0  0  0  0  0  0  0  0  0  0
    8.6907  -16.7233   22.2089 N   0  0  0  0  0  0  0  0  0  0  0  0
    8.8587  -16.4038   23.6124 C   0  0  1  0  0  0  0  0  0  0  0  0
    7.6842  -16.8327   24.4244 C   0  0  0  0  0  0  0  0  0  0  0  0
    6.8340  -15.7778   24.9641 C   0  0  0  0  0  0  0  0  0  0  0  0
    5.6854  -15.9708   25.7672 C   0  0  0  0  0  0  0  0  0  0  0  0
    5.1625  -14.8050   26.1228 N   0  0  0  0  0  0  0  0  0  0  0  0
    5.9219  -13.8505   25.5841 C   0  0  0  0  0  0  0  0  0  0  0  0
    5.8387  -12.4748   25.6216 C   0  0  0  0  0  0  0  0  0  0  0  0
    6.7474  -11.6718   24.9693 C   0  0  0  0  0  0  0  0  0  0  0  0
    7.7879  -12.2435   24.2453 C   0  0  0  0  0  0  0  0  0  0  0  0
    7.8602  -13.6091   24.2156 C   0  0  0  0  0  0  0  0  0  0  0  0
    6.9565  -14.4214   24.8658 C   0  0  0  0  0  0  0  0  0  0  0  0
   10.1453  -16.8590   24.1153 C   0  0  0  0  0  0  0  0  0  0  0  0
   10.7445  -17.8205   23.5731 O   0  0  0  0  0  0  0  0  0  0  0  0
   10.7747  -16.2342   25.2249 N   0  0  0  0  0  0  0  0  0  0  0  0
   12.0792  -16.6081   25.7381 C   0  0  1  0  0  0  0  0  0  0  0  0
   12.4108  -15.5531   26.7974 C   0  0  0  0  0  0  0  0  0  0  0  0
   11.4467  -15.5066   27.8970 C   0  0  0  0  0  0  0  0  0  0  0  0
   11.6531  -16.3096   29.0006 C   0  0  0  0  0  0  0  0  0  0  0  0
   10.8058  -16.3253   30.0699 C   0  0  0  0  0  0  0  0  0  0  0  0
    9.6942  -15.5017   30.0448 C   0  0  0  0  0  0  0  0  0  0  0  0
    9.4880  -14.6942   28.9330 C   0  0  0  0  0  0  0  0  0  0  0  0
   10.3488  -14.6856   27.8594 C   0  0  0  0  0  0  0  0  0  0  0  0
   11.9921  -17.9488   26.3374 C   0  0  0  0  0  0  0  0  0  0  0  0
   12.9519  -18.6035   26.8075 O   0  0  0  0  0  0  0  0  0  0  0  0
   10.7370  -18.5777   26.4045 O   0  0  0  0  0  0  0  0  0  0  0  0
  1  2  1  0
  3  2  1  0
  4  3  1  0
  5  4  1  0
  5  6  1  1
  7  8  2  0
  7  5  1  0
  9  7  1  0
 10  9  1  0
 10 11  1  1
 11 12  1  0
 12 20  1  0
 12 13  2  0
 13 14  1  0
 15 16  2  0
 15 14  1  0
 17 16  1  0
 18 17  2  0
 19 18  1  0
 19 20  2  0
 20 15  1  0
 21 10  1  0
 22 21  2  0
 23 21  1  0
 24 23  1  0
 24 25  1  1
 25 26  1  0
 26 31  1  0
 27 26  2  0
 27 28  1  0
 28 29  2  0
 29 30  1  0
 31 30  2  0
 32 34  1  0
 32 24  1  0
 33 32  2  0
M  END
$$$$
