MWF.pdb
     RDKit          3D

 34 36  0  0  1  0  0  0  0  0999 V2000
    6.6537  -18.1726   17.5933 C   0  0  0  0  0  0  0  0  0  0  0  0
    5.9914  -19.7710   18.0729 S   0  0  0  0  0  0  0  0  0  0  0  0
    5.1994  -19.6036   19.7091 C   0  0  0  0  0  0  0  0  0  0  0  0
    5.7211  -18.2976   20.2965 C   0  0  0  0  0  0  0  0  0  0  0  0
    5.2448  -18.1540   21.7184 C   0  0  2  0  0  0  0  0  0  0  0  0
    3.8829  -17.7338   21.8168 N   0  0  0  0  0  0  0  0  0  0  0  0
    6.1300  -17.1858   22.4080 C   0  0  0  0  0  0  0  0  0  0  0  0
    5.8924  -15.9485   22.2943 O   0  0  0  0  0  0  0  0  0  0  0  0
    7.2449  -17.5276   23.2017 N   0  0  0  0  0  0  0  0  0  0  0  0
    8.2100  -16.5393   23.6398 C   0  0  1  0  0  0  0  0  0  0  0  0
    8.2196  -16.3915   25.1233 C   0  0  0  0  0  0  0  0  0  0  0  0
    7.2952  -15.4197   25.6960 C   0  0  0  0  0  0  0  0  0  0  0  0
    5.9423  -15.6626   26.0310 C   0  0  0  0  0  0  0  0  0  0  0  0
    5.3919  -14.5811   26.5661 N   0  0  0  0  0  0  0  0  0  0  0  0
    6.3299  -13.6339   26.5961 C   0  0  0  0  0  0  0  0  0  0  0  0
    6.3076  -12.3274   27.0358 C   0  0  0  0  0  0  0  0  0  0  0  0
    7.4156  -11.5135   26.9588 C   0  0  0  0  0  0  0  0  0  0  0  0
    8.6029  -12.0026   26.4252 C   0  0  0  0  0  0  0  0  0  0  0  0
    8.6130  -13.3002   25.9925 C   0  0  0  0  0  0  0  0  0  0  0  0
    7.5099  -14.1230   26.0662 C   0  0  0  0  0  0  0  0  0  0  0  0
    9.5166  -16.7646   23.0420 C   0  0  0  0  0  0  0  0  0  0  0  0
    9.9912  -17.9239   22.9506 O   0  0  0  0  0  0  0  0  0  0  0  0
   10.2980  -15.6928   22.5338 N   0  0  0  0  0  0  0  0  0  0  0  0
   11.4643  -15.8647   21.6882 C   0  0  1  0  0  0  0  0  0  0  0  0
   11.5539  -14.5784   20.8622 C   0  0  0  0  0  0  0  0  0  0  0  0
   10.2765  -14.1701   20.2770 C   0  0  0  0  0  0  0  0  0  0  0  0
    9.7307  -14.9341   19.2653 C   0  0  0  0  0  0  0  0  0  0  0  0
    8.5434  -14.6266   18.6676 C   0  0  0  0  0  0  0  0  0  0  0  0
    7.8600  -13.5017   19.0946 C   0  0  0  0  0  0  0  0  0  0  0  0
    8.4111  -12.7338   20.1131 C   0  0  0  0  0  0  0  0  0  0  0  0
    9.6094  -13.0527   20.7097 C   0  0  0  0  0  0  0  0  0  0  0  0
   12.6531  -16.0295   22.5391 C   0  0  0  0  0  0  0  0  0  0  0  0
   12.6777  -15.9311   23.7883 O   0  0  0  0  0  0  0  0  0  0  0  0
   13.8843  -16.3244   21.9286 O   0  0  0  0  0  0  0  0  0  0  0  0
  1  2  1  0
  3  2  1  0
  4  3  1  0
  5  4  1  0
  5  6  1  6
  7  8  2  0
  7  5  1  0
  9  7  1  0
 10  9  1  0
 10 11  1  1
 11 12  1  0
 12 20  1  0
 12 13  2  0
 13 14  1  0
 15 16  2  0
 15 14  1  0
 17 16  1  0
 18 17  2  0
 19 18  1  0
 19 20  2  0
 20 15  1  0
 21 10  1  0
 22 21  2  0
 23 21  1  0
 24 23  1  0
 24 25  1  6
 25 26  1  0
 26 31  1  0
 27 26  2  0
 27 28  1  0
 28 29  2  0
 29 30  1  0
 31 30  2  0
 32 34  1  0
 32 24  1  0
 33 32  2  0
M  END
$$$$
