CAF.pdb
     RDKit          3D

 23 23  0  0  1  0  0  0  0  0999 V2000
   15.4426  -12.1735  -16.2871 N   0  0  0  0  0  0  0  0  0  0  0  0
   16.6262  -11.6995  -15.5533 C   0  0  1  0  0  0  0  0  0  0  0  0
   17.7767  -12.6285  -15.8466 C   0  0  0  0  0  0  0  0  0  0  0  0
   17.6264  -14.0773  -14.7701 S   0  0  0  0  0  0  0  0  0  0  0  0
   16.9237  -10.3280  -16.0402 C   0  0  0  0  0  0  0  0  0  0  0  0
   17.2237  -10.0922  -17.2469 O   0  0  0  0  0  0  0  0  0  0  0  0
   16.2153   -6.8717  -14.9980 C   0  0  0  0  0  0  0  0  0  0  0  0
   17.1207   -7.9018  -15.6263 C   0  0  2  0  0  0  0  0  0  0  0  0
   16.8803   -9.2268  -15.1577 N   0  0  0  0  0  0  0  0  0  0  0  0
   18.5517   -7.4919  -15.4105 C   0  0  0  0  0  0  0  0  0  0  0  0
   19.1573   -8.0077  -14.4329 O   0  0  0  0  0  0  0  0  0  0  0  0
   19.2001   -6.5773  -16.2497 N   0  0  0  0  0  0  0  0  0  0  0  0
   20.5442   -6.1267  -15.9294 C   0  0  1  0  0  0  0  0  0  0  0  0
   21.3926   -6.2690  -17.1527 C   0  0  0  0  0  0  0  0  0  0  0  0
   22.7286   -5.6642  -17.0064 C   0  0  0  0  0  0  0  0  0  0  0  0
   23.7978   -6.3365  -16.4467 C   0  0  0  0  0  0  0  0  0  0  0  0
   25.0061   -5.7009  -16.3563 C   0  0  0  0  0  0  0  0  0  0  0  0
   25.1841   -4.4065  -16.8095 C   0  0  0  0  0  0  0  0  0  0  0  0
   24.1135   -3.7556  -17.3613 C   0  0  0  0  0  0  0  0  0  0  0  0
   22.9056   -4.3743  -17.4581 C   0  0  0  0  0  0  0  0  0  0  0  0
   20.5433   -4.7794  -15.3435 C   0  0  0  0  0  0  0  0  0  0  0  0
   21.4681   -4.4487  -14.3425 O   0  0  0  0  0  0  0  0  0  0  0  0
   19.7518   -3.8750  -15.6829 O   0  0  0  0  0  0  0  0  0  0  0  0
  2  1  1  6
  3  4  1  0
  3  2  1  0
  5  2  1  0
  5  9  1  0
  6  5  2  0
  8  9  1  0
  8 10  1  0
  8  7  1  1
 10 12  1  0
 11 10  2  0
 12 13  1  0
 13 14  1  6
 14 15  1  0
 15 20  2  0
 15 16  1  0
 16 17  2  0
 17 18  1  0
 19 18  2  0
 20 19  1  0
 21 22  1  0
 21 13  1  0
 23 21  2  0
M  END
$$$$
