CAF.pdb
     RDKit          3D

 23 23  0  0  1  0  0  0  0  0999 V2000
   14.6222  -12.4617  -18.6667 N   0  0  0  0  0  0  0  0  0  0  0  0
   14.6178  -11.0401  -18.2880 C   0  0  1  0  0  0  0  0  0  0  0  0
   13.8616  -10.8909  -16.9924 C   0  0  0  0  0  0  0  0  0  0  0  0
   13.8510   -9.1374  -16.5388 S   0  0  0  0  0  0  0  0  0  0  0  0
   16.0345  -10.6274  -18.1177 C   0  0  0  0  0  0  0  0  0  0  0  0
   16.8351  -11.2609  -17.3694 O   0  0  0  0  0  0  0  0  0  0  0  0
   18.3989   -8.2738  -19.8274 C   0  0  0  0  0  0  0  0  0  0  0  0
   17.9130   -9.1279  -18.6829 C   0  0  2  0  0  0  0  0  0  0  0  0
   16.5406   -9.4974  -18.7960 N   0  0  0  0  0  0  0  0  0  0  0  0
   18.1865   -8.4126  -17.3884 C   0  0  0  0  0  0  0  0  0  0  0  0
   17.2085   -7.8570  -16.8197 O   0  0  0  0  0  0  0  0  0  0  0  0
   19.4667   -8.3558  -16.8237 N   0  0  0  0  0  0  0  0  0  0  0  0
   19.6718   -7.6666  -15.5606 C   0  0  1  0  0  0  0  0  0  0  0  0
   20.7789   -8.3517  -14.8247 C   0  0  0  0  0  0  0  0  0  0  0  0
   21.1911   -7.6397  -13.6019 C   0  0  0  0  0  0  0  0  0  0  0  0
   21.9976   -6.5184  -13.6240 C   0  0  0  0  0  0  0  0  0  0  0  0
   22.3262   -5.9151  -12.4407 C   0  0  0  0  0  0  0  0  0  0  0  0
   21.8729   -6.3977  -11.2265 C   0  0  0  0  0  0  0  0  0  0  0  0
   21.0746   -7.5099  -11.2237 C   0  0  0  0  0  0  0  0  0  0  0  0
   20.7392   -8.1209  -12.3922 C   0  0  0  0  0  0  0  0  0  0  0  0
   19.8707   -6.2236  -15.7520 C   0  0  0  0  0  0  0  0  0  0  0  0
   20.6159   -5.7566  -16.8443 O   0  0  0  0  0  0  0  0  0  0  0  0
   19.4088   -5.3514  -14.9868 O   0  0  0  0  0  0  0  0  0  0  0  0
  2  1  1  1
  3  4  1  0
  3  2  1  0
  5  2  1  0
  5  9  1  0
  6  5  2  0
  8  9  1  0
  8 10  1  0
  8  7  1  6
 10 12  1  0
 11 10  2  0
 12 13  1  0
 13 14  1  6
 14 15  1  0
 15 20  2  0
 15 16  1  0
 16 17  2  0
 17 18  1  0
 19 18  2  0
 20 19  1  0
 21 22  1  0
 21 13  1  0
 23 21  2  0
M  END
$$$$
