CAF.pdb
     RDKit          3D

 23 23  0  0  1  0  0  0  0  0999 V2000
   16.4109  -15.0592  -17.2819 N   0  0  0  0  0  0  0  0  0  0  0  0
   15.7026  -13.9372  -16.6465 C   0  0  1  0  0  0  0  0  0  0  0  0
   15.7743  -14.1098  -15.1506 C   0  0  0  0  0  0  0  0  0  0  0  0
   14.8448  -15.5990  -14.7048 S   0  0  0  0  0  0  0  0  0  0  0  0
   16.3937  -12.6902  -17.0633 C   0  0  0  0  0  0  0  0  0  0  0  0
   17.6484  -12.6361  -17.2207 O   0  0  0  0  0  0  0  0  0  0  0  0
   15.3855   -9.2988  -18.3311 C   0  0  0  0  0  0  0  0  0  0  0  0
   16.3162  -10.3069  -17.7041 C   0  0  2  0  0  0  0  0  0  0  0  0
   15.6607  -11.5071  -17.3006 N   0  0  0  0  0  0  0  0  0  0  0  0
   17.0363   -9.6584  -16.5538 C   0  0  0  0  0  0  0  0  0  0  0  0
   16.5609   -9.8402  -15.4008 O   0  0  0  0  0  0  0  0  0  0  0  0
   18.1874   -8.8822  -16.7368 N   0  0  0  0  0  0  0  0  0  0  0  0
   18.8554   -8.2943  -15.5877 C   0  0  1  0  0  0  0  0  0  0  0  0
   20.3164   -8.1963  -15.8915 C   0  0  0  0  0  0  0  0  0  0  0  0
   21.0646   -7.4063  -14.8973 C   0  0  0  0  0  0  0  0  0  0  0  0
   21.2466   -6.0414  -15.0087 C   0  0  0  0  0  0  0  0  0  0  0  0
   21.9493   -5.3852  -14.0352 C   0  0  0  0  0  0  0  0  0  0  0  0
   22.4805   -6.0512  -12.9458 C   0  0  0  0  0  0  0  0  0  0  0  0
   22.2903   -7.4037  -12.8518 C   0  0  0  0  0  0  0  0  0  0  0  0
   21.5937   -8.0703  -13.8119 C   0  0  0  0  0  0  0  0  0  0  0  0
   18.2321   -7.0268  -15.1833 C   0  0  0  0  0  0  0  0  0  0  0  0
   17.6739   -6.1791  -16.1510 O   0  0  0  0  0  0  0  0  0  0  0  0
   18.1602   -6.6347  -13.9998 O   0  0  0  0  0  0  0  0  0  0  0  0
  2  1  1  6
  3  4  1  0
  3  2  1  0
  5  2  1  0
  5  9  1  0
  6  5  2  0
  8  9  1  0
  8 10  1  0
  8  7  1  1
 10 12  1  0
 11 10  2  0
 12 13  1  0
 13 14  1  6
 14 15  1  0
 15 20  2  0
 15 16  1  0
 16 17  2  0
 17 18  1  0
 19 18  2  0
 20 19  1  0
 21 22  1  0
 21 13  1  0
 23 21  2  0
M  END
$$$$
