CAF.pdb
     RDKit          3D

 23 23  0  0  1  0  0  0  0  0999 V2000
   17.7345  -11.9593  -14.7040 N   0  0  0  0  0  0  0  0  0  0  0  0
   16.9657  -10.7126  -14.8409 C   0  0  1  0  0  0  0  0  0  0  0  0
   15.4968  -11.0439  -14.7681 C   0  0  0  0  0  0  0  0  0  0  0  0
   15.0096  -11.8153  -16.3327 S   0  0  0  0  0  0  0  0  0  0  0  0
   17.3594   -9.8288  -13.7138 C   0  0  0  0  0  0  0  0  0  0  0  0
   17.5186  -10.2682  -12.5375 O   0  0  0  0  0  0  0  0  0  0  0  0
   18.3693   -6.2299  -13.2484 C   0  0  0  0  0  0  0  0  0  0  0  0
   17.8232   -7.5715  -12.8272 C   0  0  2  0  0  0  0  0  0  0  0  0
   17.5717   -8.4487  -13.9227 N   0  0  0  0  0  0  0  0  0  0  0  0
   16.5872   -7.3576  -11.9972 C   0  0  0  0  0  0  0  0  0  0  0  0
   15.4847   -7.3154  -12.6063 O   0  0  0  0  0  0  0  0  0  0  0  0
   16.6398   -7.2096  -10.6056 N   0  0  0  0  0  0  0  0  0  0  0  0
   15.4377   -6.8579   -9.8683 C   0  0  1  0  0  0  0  0  0  0  0  0
   15.4407   -7.6107   -8.5761 C   0  0  0  0  0  0  0  0  0  0  0  0
   14.2289   -7.3832   -7.7687 C   0  0  0  0  0  0  0  0  0  0  0  0
   14.1393   -6.3855   -6.8173 C   0  0  0  0  0  0  0  0  0  0  0  0
   12.9726   -6.2403   -6.1174 C   0  0  0  0  0  0  0  0  0  0  0  0
   11.8839   -7.0643   -6.3372 C   0  0  0  0  0  0  0  0  0  0  0  0
   11.9906   -8.0476   -7.2837 C   0  0  0  0  0  0  0  0  0  0  0  0
   13.1442   -8.2044   -7.9879 C   0  0  0  0  0  0  0  0  0  0  0  0
   15.2917   -5.4031   -9.7241 C   0  0  0  0  0  0  0  0  0  0  0  0
   14.0149   -4.8234   -9.7140 O   0  0  0  0  0  0  0  0  0  0  0  0
   16.2547   -4.6169   -9.6056 O   0  0  0  0  0  0  0  0  0  0  0  0
  2  1  1  1
  3  4  1  0
  3  2  1  0
  5  2  1  0
  5  9  1  0
  6  5  2  0
  8  9  1  0
  8 10  1  0
  8  7  1  6
 10 12  1  0
 11 10  2  0
 12 13  1  0
 13 14  1  1
 14 15  1  0
 15 20  2  0
 15 16  1  0
 16 17  2  0
 17 18  1  0
 19 18  2  0
 20 19  1  0
 21 22  1  0
 21 13  1  0
 23 21  2  0
M  END
$$$$
