CAF.pdb
     RDKit          3D

 23 23  0  0  1  0  0  0  0  0999 V2000
   22.3492  -12.6497  -19.7850 N   0  0  0  0  0  0  0  0  0  0  0  0
   22.8001  -11.7656  -18.6991 C   0  0  1  0  0  0  0  0  0  0  0  0
   24.3070  -11.7860  -18.6578 C   0  0  0  0  0  0  0  0  0  0  0  0
   24.8314  -13.2758  -17.7713 S   0  0  0  0  0  0  0  0  0  0  0  0
   22.3035  -10.4007  -19.0104 C   0  0  0  0  0  0  0  0  0  0  0  0
   22.2955   -9.9396  -20.1891 O   0  0  0  0  0  0  0  0  0  0  0  0
   20.0584   -8.3523  -19.1925 C   0  0  0  0  0  0  0  0  0  0  0  0
   21.2612   -8.2832  -18.2847 C   0  0  2  0  0  0  0  0  0  0  0  0
   21.8171   -9.5614  -17.9845 N   0  0  0  0  0  0  0  0  0  0  0  0
   20.8873   -7.5370  -17.0334 C   0  0  0  0  0  0  0  0  0  0  0  0
   20.0311   -8.0713  -16.2784 O   0  0  0  0  0  0  0  0  0  0  0  0
   21.4558   -6.3001  -16.7047 N   0  0  0  0  0  0  0  0  0  0  0  0
   21.1574   -5.6830  -15.4231 C   0  0  1  0  0  0  0  0  0  0  0  0
   22.4085   -5.6702  -14.6040 C   0  0  0  0  0  0  0  0  0  0  0  0
   23.0289   -7.0004  -14.4704 C   0  0  0  0  0  0  0  0  0  0  0  0
   24.1130   -7.4007  -15.2274 C   0  0  0  0  0  0  0  0  0  0  0  0
   24.6309   -8.6521  -15.0331 C   0  0  0  0  0  0  0  0  0  0  0  0
   24.0986   -9.5241  -14.1011 C   0  0  0  0  0  0  0  0  0  0  0  0
   23.0244   -9.1106  -13.3598 C   0  0  0  0  0  0  0  0  0  0  0  0
   22.4982   -7.8691  -13.5415 C   0  0  0  0  0  0  0  0  0  0  0  0
   20.5231   -4.3677  -15.5850 C   0  0  0  0  0  0  0  0  0  0  0  0
   20.0130   -3.6922  -14.4669 O   0  0  0  0  0  0  0  0  0  0  0  0
   20.4004   -3.7863  -16.6834 O   0  0  0  0  0  0  0  0  0  0  0  0
  2  1  1  6
  3  4  1  0
  3  2  1  0
  5  2  1  0
  5  9  1  0
  6  5  2  0
  8  9  1  0
  8 10  1  0
  8  7  1  6
 10 12  1  0
 11 10  2  0
 12 13  1  0
 13 14  1  1
 14 15  1  0
 15 20  2  0
 15 16  1  0
 16 17  2  0
 17 18  1  0
 19 18  2  0
 20 19  1  0
 21 22  1  0
 21 13  1  0
 23 21  2  0
M  END
$$$$
