CAF.pdb
     RDKit          3D

 23 23  0  0  1  0  0  0  0  0999 V2000
   26.9711  -19.1718  -16.7713 N   0  0  0  0  0  0  0  0  0  0  0  0
   26.7347  -18.8033  -15.3668 C   0  0  1  0  0  0  0  0  0  0  0  0
   25.2665  -18.5117  -15.1875 C   0  0  0  0  0  0  0  0  0  0  0  0
   24.9213  -16.8783  -15.8898 S   0  0  0  0  0  0  0  0  0  0  0  0
   27.1433  -19.9637  -14.5344 C   0  0  0  0  0  0  0  0  0  0  0  0
   26.8189  -21.1512  -14.8289 O   0  0  0  0  0  0  0  0  0  0  0  0
   29.5617  -20.6883  -11.7943 C   0  0  0  0  0  0  0  0  0  0  0  0
   28.2571  -20.8755  -12.5282 C   0  0  2  0  0  0  0  0  0  0  0  0
   27.9189  -19.7754  -13.3698 N   0  0  0  0  0  0  0  0  0  0  0  0
   27.1699  -21.1593  -11.5283 C   0  0  0  0  0  0  0  0  0  0  0  0
   27.2746  -22.2151  -10.8479 O   0  0  0  0  0  0  0  0  0  0  0  0
   26.0801  -20.2987  -11.3471 N   0  0  0  0  0  0  0  0  0  0  0  0
   25.0413  -20.6367  -10.3885 C   0  0  1  0  0  0  0  0  0  0  0  0
   25.0372  -19.5978   -9.3128 C   0  0  0  0  0  0  0  0  0  0  0  0
   26.0066  -19.8718   -8.2370 C   0  0  0  0  0  0  0  0  0  0  0  0
   26.0760  -21.0867   -7.5830 C   0  0  0  0  0  0  0  0  0  0  0  0
   27.0123  -21.2574   -6.6000 C   0  0  0  0  0  0  0  0  0  0  0  0
   27.8884  -20.2479   -6.2452 C   0  0  0  0  0  0  0  0  0  0  0  0
   27.8052  -19.0506   -6.9039 C   0  0  0  0  0  0  0  0  0  0  0  0
   26.8794  -18.8656   -7.8838 C   0  0  0  0  0  0  0  0  0  0  0  0
   23.7412  -20.8409  -11.0416 C   0  0  0  0  0  0  0  0  0  0  0  0
   22.6190  -21.1910  -10.2770 O   0  0  0  0  0  0  0  0  0  0  0  0
   23.5551  -20.7215  -12.2707 O   0  0  0  0  0  0  0  0  0  0  0  0
  2  1  1  6
  3  4  1  0
  3  2  1  0
  5  2  1  0
  5  9  1  0
  6  5  2  0
  8  9  1  0
  8 10  1  0
  8  7  1  1
 10 12  1  0
 11 10  2  0
 12 13  1  0
 13 14  1  1
 14 15  1  0
 15 20  2  0
 15 16  1  0
 16 17  2  0
 17 18  1  0
 19 18  2  0
 20 19  1  0
 21 22  1  0
 21 13  1  0
 23 21  2  0
M  END
$$$$
