CAF.pdb
     RDKit          3D

 23 23  0  0  1  0  0  0  0  0999 V2000
   17.4208  -15.2974  -19.3342 N   0  0  0  0  0  0  0  0  0  0  0  0
   17.3199  -14.5739  -18.0573 C   0  0  1  0  0  0  0  0  0  0  0  0
   18.0823  -15.3428  -17.0083 C   0  0  0  0  0  0  0  0  0  0  0  0
   17.9055  -14.4765  -15.4275 S   0  0  0  0  0  0  0  0  0  0  0  0
   17.9231  -13.2324  -18.2646 C   0  0  0  0  0  0  0  0  0  0  0  0
   19.0844  -13.0833  -18.7453 O   0  0  0  0  0  0  0  0  0  0  0  0
   16.8015   -9.7997  -18.7793 C   0  0  0  0  0  0  0  0  0  0  0  0
   17.7688  -10.7708  -18.1492 C   0  0  2  0  0  0  0  0  0  0  0  0
   17.2083  -12.0627  -17.9265 N   0  0  0  0  0  0  0  0  0  0  0  0
   18.3011  -10.1737  -16.8755 C   0  0  0  0  0  0  0  0  0  0  0  0
   17.7219  -10.4944  -15.8031 O   0  0  0  0  0  0  0  0  0  0  0  0
   19.3930   -9.2968  -16.8622 N   0  0  0  0  0  0  0  0  0  0  0  0
   19.8421   -8.7176  -15.6072 C   0  0  1  0  0  0  0  0  0  0  0  0
   21.3184   -8.4947  -15.6931 C   0  0  0  0  0  0  0  0  0  0  0  0
   21.8788   -7.8481  -14.4931 C   0  0  0  0  0  0  0  0  0  0  0  0
   21.9099   -6.4771  -14.3266 C   0  0  0  0  0  0  0  0  0  0  0  0
   22.4427   -5.9613  -13.1768 C   0  0  0  0  0  0  0  0  0  0  0  0
   22.9496   -6.7748  -12.1798 C   0  0  0  0  0  0  0  0  0  0  0  0
   22.9106   -8.1311  -12.3619 C   0  0  0  0  0  0  0  0  0  0  0  0
   22.3838   -8.6591  -13.4999 C   0  0  0  0  0  0  0  0  0  0  0  0
   19.0665   -7.5223  -15.2491 C   0  0  0  0  0  0  0  0  0  0  0  0
   18.7517   -7.2661  -13.9068 O   0  0  0  0  0  0  0  0  0  0  0  0
   18.6524   -6.6882  -16.0811 O   0  0  0  0  0  0  0  0  0  0  0  0
  2  1  1  6
  3  4  1  0
  3  2  1  0
  5  2  1  0
  5  9  1  0
  6  5  2  0
  8  9  1  0
  8 10  1  0
  8  7  1  1
 10 12  1  0
 11 10  2  0
 12 13  1  0
 13 14  1  6
 14 15  1  0
 15 20  2  0
 15 16  1  0
 16 17  2  0
 17 18  1  0
 19 18  2  0
 20 19  1  0
 21 22  1  0
 21 13  1  0
 23 21  2  0
M  END
$$$$
