CAF.pdb
     RDKit          3D

 23 23  0  0  1  0  0  0  0  0999 V2000
   25.8966  -19.6587  -16.0227 N   0  0  0  0  0  0  0  0  0  0  0  0
   26.8693  -19.8577  -14.9372 C   0  0  1  0  0  0  0  0  0  0  0  0
   28.0318  -18.9232  -15.1570 C   0  0  0  0  0  0  0  0  0  0  0  0
   29.1761  -19.1017  -13.7644 S   0  0  0  0  0  0  0  0  0  0  0  0
   26.1755  -19.5393  -13.6630 C   0  0  0  0  0  0  0  0  0  0  0  0
   25.7838  -18.3686  -13.3838 O   0  0  0  0  0  0  0  0  0  0  0  0
   23.8617  -20.9287  -11.4417 C   0  0  0  0  0  0  0  0  0  0  0  0
   25.2137  -20.2630  -11.5071 C   0  0  2  0  0  0  0  0  0  0  0  0
   25.9273  -20.5490  -12.7079 N   0  0  0  0  0  0  0  0  0  0  0  0
   26.0077  -20.6479  -10.2890 C   0  0  0  0  0  0  0  0  0  0  0  0
   26.6210  -21.7484  -10.3254 O   0  0  0  0  0  0  0  0  0  0  0  0
   26.0744  -19.8310   -9.1535 N   0  0  0  0  0  0  0  0  0  0  0  0
   26.8359  -20.2633   -7.9935 C   0  0  1  0  0  0  0  0  0  0  0  0
   27.4557  -19.0580   -7.3612 C   0  0  0  0  0  0  0  0  0  0  0  0
   28.1480  -19.3576   -6.0951 C   0  0  0  0  0  0  0  0  0  0  0  0
   27.6473  -18.9874   -4.8619 C   0  0  0  0  0  0  0  0  0  0  0  0
   28.3529  -19.3127   -3.7357 C   0  0  0  0  0  0  0  0  0  0  0  0
   29.5509  -20.0005   -3.7998 C   0  0  0  0  0  0  0  0  0  0  0  0
   30.0320  -20.3593   -5.0303 C   0  0  0  0  0  0  0  0  0  0  0  0
   29.3418  -20.0430   -6.1594 C   0  0  0  0  0  0  0  0  0  0  0  0
   26.0240  -21.0792   -7.0805 C   0  0  0  0  0  0  0  0  0  0  0  0
   26.6438  -21.9972   -6.2204 O   0  0  0  0  0  0  0  0  0  0  0  0
   24.7789  -21.0132   -7.0113 O   0  0  0  0  0  0  0  0  0  0  0  0
  2  1  1  6
  3  4  1  0
  3  2  1  0
  5  2  1  0
  5  9  1  0
  6  5  2  0
  8  9  1  0
  8 10  1  0
  8  7  1  6
 10 12  1  0
 11 10  2  0
 12 13  1  0
 13 14  1  1
 14 15  1  0
 15 20  2  0
 15 16  1  0
 16 17  2  0
 17 18  1  0
 19 18  2  0
 20 19  1  0
 21 22  1  0
 21 13  1  0
 23 21  2  0
M  END
$$$$
