CAF.pdb
     RDKit          3D

 23 23  0  0  1  0  0  0  0  0999 V2000
   27.7169  -19.4042  -16.3514 N   0  0  0  0  0  0  0  0  0  0  0  0
   27.2869  -18.8849  -15.0438 C   0  0  1  0  0  0  0  0  0  0  0  0
   26.3945  -17.6914  -15.2712 C   0  0  0  0  0  0  0  0  0  0  0  0
   27.4341  -16.2863  -15.7461 S   0  0  0  0  0  0  0  0  0  0  0  0
   26.5407  -19.9743  -14.3634 C   0  0  0  0  0  0  0  0  0  0  0  0
   25.8565  -20.8243  -15.0047 O   0  0  0  0  0  0  0  0  0  0  0  0
   26.2279  -21.3805  -10.8958 C   0  0  0  0  0  0  0  0  0  0  0  0
   25.7467  -21.0469  -12.2860 C   0  0  2  0  0  0  0  0  0  0  0  0
   26.5719  -20.0976  -12.9573 N   0  0  0  0  0  0  0  0  0  0  0  0
   24.3188  -20.5804  -12.2104 C   0  0  0  0  0  0  0  0  0  0  0  0
   24.1052  -19.4670  -11.6598 O   0  0  0  0  0  0  0  0  0  0  0  0
   23.2587  -21.3373  -12.7245 N   0  0  0  0  0  0  0  0  0  0  0  0
   21.9014  -20.8219  -12.6587 C   0  0  1  0  0  0  0  0  0  0  0  0
   21.8642  -19.5023  -13.3614 C   0  0  0  0  0  0  0  0  0  0  0  0
   22.0922  -19.6109  -14.8134 C   0  0  0  0  0  0  0  0  0  0  0  0
   23.2668  -19.2087  -15.4191 C   0  0  0  0  0  0  0  0  0  0  0  0
   23.3966  -19.3522  -16.7736 C   0  0  0  0  0  0  0  0  0  0  0  0
   22.3851  -19.8880  -17.5497 C   0  0  0  0  0  0  0  0  0  0  0  0
   21.2280  -20.2811  -16.9324 C   0  0  0  0  0  0  0  0  0  0  0  0
   21.0840  -20.1448  -15.5863 C   0  0  0  0  0  0  0  0  0  0  0  0
   20.9214  -21.8001  -13.1499 C   0  0  0  0  0  0  0  0  0  0  0  0
   19.5500  -21.5732  -12.9650 O   0  0  0  0  0  0  0  0  0  0  0  0
   21.2305  -22.8560  -13.7407 O   0  0  0  0  0  0  0  0  0  0  0  0
  2  1  1  6
  3  4  1  0
  3  2  1  0
  5  2  1  0
  5  9  1  0
  6  5  2  0
  8  9  1  0
  8 10  1  0
  8  7  1  1
 10 12  1  0
 11 10  2  0
 12 13  1  0
 13 14  1  6
 14 15  1  0
 15 20  2  0
 15 16  1  0
 16 17  2  0
 17 18  1  0
 19 18  2  0
 20 19  1  0
 21 22  1  0
 21 13  1  0
 23 21  2  0
M  END
$$$$
