CAF.pdb
     RDKit          3D

 23 23  0  0  1  0  0  0  0  0999 V2000
   20.7469  -11.6381  -18.0483 N   0  0  0  0  0  0  0  0  0  0  0  0
   19.7240  -10.8694  -17.3223 C   0  0  1  0  0  0  0  0  0  0  0  0
   19.6568  -11.3787  -15.9050 C   0  0  0  0  0  0  0  0  0  0  0  0
   18.7183  -12.9278  -15.9012 S   0  0  0  0  0  0  0  0  0  0  0  0
   20.1459   -9.4454  -17.3474 C   0  0  0  0  0  0  0  0  0  0  0  0
   21.3573   -9.0998  -17.2247 O   0  0  0  0  0  0  0  0  0  0  0  0
   18.5250   -6.1678  -18.2268 C   0  0  0  0  0  0  0  0  0  0  0  0
   19.5996   -7.0568  -17.6519 C   0  0  2  0  0  0  0  0  0  0  0  0
   19.1934   -8.4162  -17.5114 N   0  0  0  0  0  0  0  0  0  0  0  0
   20.0612   -6.4811  -16.3413 C   0  0  0  0  0  0  0  0  0  0  0  0
   19.3827   -6.7635  -15.3174 O   0  0  0  0  0  0  0  0  0  0  0  0
   21.1944   -5.6640  -16.2434 N   0  0  0  0  0  0  0  0  0  0  0  0
   21.6006   -5.1402  -14.9500 C   0  0  1  0  0  0  0  0  0  0  0  0
   23.0142   -5.5570  -14.6961 C   0  0  0  0  0  0  0  0  0  0  0  0
   23.1859   -7.0193  -14.6320 C   0  0  0  0  0  0  0  0  0  0  0  0
   22.6028   -7.7996  -13.6524 C   0  0  0  0  0  0  0  0  0  0  0  0
   22.8094   -9.1520  -13.6724 C   0  0  0  0  0  0  0  0  0  0  0  0
   23.5846   -9.7562  -14.6453 C   0  0  0  0  0  0  0  0  0  0  0  0
   24.1547   -8.9674  -15.6081 C   0  0  0  0  0  0  0  0  0  0  0  0
   23.9585   -7.6210  -15.6016 C   0  0  0  0  0  0  0  0  0  0  0  0
   21.3658   -3.6934  -14.8487 C   0  0  0  0  0  0  0  0  0  0  0  0
   21.5755   -3.0319  -13.6301 O   0  0  0  0  0  0  0  0  0  0  0  0
   20.9795   -2.9842  -15.8013 O   0  0  0  0  0  0  0  0  0  0  0  0
  2  1  1  6
  3  4  1  0
  3  2  1  0
  5  2  1  0
  5  9  1  0
  6  5  2  0
  8  9  1  0
  8 10  1  0
  8  7  1  1
 10 12  1  0
 11 10  2  0
 12 13  1  0
 13 14  1  6
 14 15  1  0
 15 20  2  0
 15 16  1  0
 16 17  2  0
 17 18  1  0
 19 18  2  0
 20 19  1  0
 21 22  1  0
 21 13  1  0
 23 21  2  0
M  END
$$$$
