CAF.pdb
     RDKit          3D

 23 23  0  0  1  0  0  0  0  0999 V2000
   15.4244   -9.7557  -18.3530 N   0  0  0  0  0  0  0  0  0  0  0  0
   16.3903  -10.0489  -17.2828 C   0  0  1  0  0  0  0  0  0  0  0  0
   17.1531  -11.2955  -17.6529 C   0  0  0  0  0  0  0  0  0  0  0  0
   16.1630  -12.7328  -17.1689 S   0  0  0  0  0  0  0  0  0  0  0  0
   17.3065   -8.8836  -17.1878 C   0  0  0  0  0  0  0  0  0  0  0  0
   17.8867   -8.3987  -18.2028 O   0  0  0  0  0  0  0  0  0  0  0  0
   17.7498   -5.9929  -15.0523 C   0  0  0  0  0  0  0  0  0  0  0  0
   18.3799   -7.1053  -15.8528 C   0  0  2  0  0  0  0  0  0  0  0  0
   17.5629   -8.2704  -15.9422 N   0  0  0  0  0  0  0  0  0  0  0  0
   19.7302   -7.4222  -15.2710 C   0  0  0  0  0  0  0  0  0  0  0  0
   19.8676   -8.5432  -14.7116 O   0  0  0  0  0  0  0  0  0  0  0  0
   20.8012   -6.5223  -15.3385 N   0  0  0  0  0  0  0  0  0  0  0  0
   22.1334   -6.9506  -14.9460 C   0  0  1  0  0  0  0  0  0  0  0  0
   22.5320   -8.1027  -15.8122 C   0  0  0  0  0  0  0  0  0  0  0  0
   23.9261   -8.5321  -15.6023 C   0  0  0  0  0  0  0  0  0  0  0  0
   24.9827   -8.0320  -16.3384 C   0  0  0  0  0  0  0  0  0  0  0  0
   26.2472   -8.4816  -16.0721 C   0  0  0  0  0  0  0  0  0  0  0  0
   26.4941   -9.4212  -15.0879 C   0  0  0  0  0  0  0  0  0  0  0  0
   25.4350   -9.9057  -14.3683 C   0  0  0  0  0  0  0  0  0  0  0  0
   24.1717   -9.4684  -14.6214 C   0  0  0  0  0  0  0  0  0  0  0  0
   23.0874   -5.8333  -14.9435 C   0  0  0  0  0  0  0  0  0  0  0  0
   22.9891   -4.8242  -15.9122 O   0  0  0  0  0  0  0  0  0  0  0  0
   24.0121   -5.7116  -14.1129 O   0  0  0  0  0  0  0  0  0  0  0  0
  2  1  1  6
  3  4  1  0
  3  2  1  0
  5  2  1  0
  5  9  1  0
  6  5  2  0
  8  9  1  0
  8 10  1  0
  8  7  1  1
 10 12  1  0
 11 10  2  0
 12 13  1  0
 13 14  1  6
 14 15  1  0
 15 20  2  0
 15 16  1  0
 16 17  2  0
 17 18  1  0
 19 18  2  0
 20 19  1  0
 21 22  1  0
 21 13  1  0
 23 21  2  0
M  END
$$$$
