CAF.pdb
     RDKit          3D

 23 23  0  0  1  0  0  0  0  0999 V2000
   14.8517   -4.3987  -15.5425 N   0  0  0  0  0  0  0  0  0  0  0  0
   16.2419   -4.2490  -15.9997 C   0  0  1  0  0  0  0  0  0  0  0  0
   16.8139   -2.9926  -15.3938 C   0  0  0  0  0  0  0  0  0  0  0  0
   18.5179   -2.8042  -15.9782 S   0  0  0  0  0  0  0  0  0  0  0  0
   16.9890   -5.4438  -15.5299 C   0  0  0  0  0  0  0  0  0  0  0  0
   17.0086   -5.7900  -14.3126 O   0  0  0  0  0  0  0  0  0  0  0  0
   18.1165   -8.6513  -16.6727 C   0  0  0  0  0  0  0  0  0  0  0  0
   18.4813   -7.3564  -15.9903 C   0  0  2  0  0  0  0  0  0  0  0  0
   17.7124   -6.2435  -16.4412 N   0  0  0  0  0  0  0  0  0  0  0  0
   19.9558   -7.1126  -16.1599 C   0  0  0  0  0  0  0  0  0  0  0  0
   20.3078   -6.3317  -17.0845 O   0  0  0  0  0  0  0  0  0  0  0  0
   20.9116   -7.7188  -15.3352 N   0  0  0  0  0  0  0  0  0  0  0  0
   22.3264   -7.5584  -15.6264 C   0  0  1  0  0  0  0  0  0  0  0  0
   23.1050   -7.9564  -14.4133 C   0  0  0  0  0  0  0  0  0  0  0  0
   24.2178   -8.8752  -14.7129 C   0  0  0  0  0  0  0  0  0  0  0  0
   24.1805  -10.2217  -14.4063 C   0  0  0  0  0  0  0  0  0  0  0  0
   25.2561  -11.0041  -14.7267 C   0  0  0  0  0  0  0  0  0  0  0  0
   26.3766  -10.4833  -15.3479 C   0  0  0  0  0  0  0  0  0  0  0  0
   26.3961   -9.1469  -15.6443 C   0  0  0  0  0  0  0  0  0  0  0  0
   25.3340   -8.3558  -15.3319 C   0  0  0  0  0  0  0  0  0  0  0  0
   22.7141   -8.2632  -16.8559 C   0  0  0  0  0  0  0  0  0  0  0  0
   23.5949   -7.6579  -17.7638 O   0  0  0  0  0  0  0  0  0  0  0  0
   22.3026   -9.4016  -17.1629 O   0  0  0  0  0  0  0  0  0  0  0  0
  2  1  1  1
  3  4  1  0
  3  2  1  0
  5  2  1  0
  5  9  1  0
  6  5  2  0
  8  9  1  0
  8 10  1  0
  8  7  1  6
 10 12  1  0
 11 10  2  0
 12 13  1  0
 13 14  1  1
 14 15  1  0
 15 20  2  0
 15 16  1  0
 16 17  2  0
 17 18  1  0
 19 18  2  0
 20 19  1  0
 21 22  1  0
 21 13  1  0
 23 21  2  0
M  END
$$$$
