ASN.pdb
     RDKit          3D

 20 19  0  0  1  0  0  0  0  0999 V2000
   21.4928  -16.3381  -15.7220 C   0  0  0  0  0  0  0  0  0  0  0  0
   22.3459  -16.9039  -16.8491 C   0  0  2  0  0  0  0  0  0  0  0  0
   21.5106  -17.2002  -17.9837 N   0  0  0  0  0  0  0  0  0  0  0  0
   22.9740  -18.1318  -16.2913 C   0  0  0  0  0  0  0  0  0  0  0  0
   22.2533  -19.0059  -15.7689 O   0  0  0  0  0  0  0  0  0  0  0  0
   27.3076  -18.7537  -16.1622 O   0  0  0  0  0  0  0  0  0  0  0  0
   26.3825  -19.6947  -16.5766 C   0  0  0  0  0  0  0  0  0  0  0  0
   25.0637  -19.4869  -15.8861 C   0  0  2  0  0  0  0  0  0  0  0  0
   24.3584  -18.3174  -16.3455 N   0  0  0  0  0  0  0  0  0  0  0  0
   25.1838  -19.5458  -14.4199 C   0  0  0  0  0  0  0  0  0  0  0  0
   25.0479  -18.4724  -13.7764 O   0  0  0  0  0  0  0  0  0  0  0  0
   25.4190  -20.8618   -9.4741 N   0  0  0  0  0  0  0  0  0  0  0  0
   24.2022  -20.5196  -10.1118 C   0  0  0  0  0  0  0  0  0  0  0  0
   23.1568  -20.3218   -9.4611 O   0  0  0  0  0  0  0  0  0  0  0  0
   24.2083  -20.4032  -11.5817 C   0  0  0  0  0  0  0  0  0  0  0  0
   25.5225  -20.7549  -12.2163 C   0  0  2  0  0  0  0  0  0  0  0  0
   25.4393  -20.7091  -13.6799 N   0  0  0  0  0  0  0  0  0  0  0  0
   25.9376  -22.1016  -11.7617 C   0  0  0  0  0  0  0  0  0  0  0  0
   25.6694  -23.2397  -12.4872 O   0  0  0  0  0  0  0  0  0  0  0  0
   26.5541  -22.1953  -10.6788 O   0  0  0  0  0  0  0  0  0  0  0  0
  2  1  1  1
  2  4  1  0
  2  3  1  0
  4  5  2  0
  8  7  1  6
  7  6  1  0
  9  4  1  0
  9  8  1  0
 10  8  1  0
 10 11  2  0
 12 13  1  0
 13 15  1  0
 13 14  2  0
 16 15  1  1
 16 17  1  0
 16 18  1  0
 17 10  1  0
 18 19  1  0
 20 18  2  0
M  END
$$$$
