ASN.pdb
     RDKit          3D

 20 19  0  0  1  0  0  0  0  0999 V2000
   17.7688  -12.4313  -18.0989 C   0  0  0  0  0  0  0  0  0  0  0  0
   18.9994  -12.0784  -17.2748 C   0  0  2  0  0  0  0  0  0  0  0  0
   19.1159  -12.9912  -16.1674 N   0  0  0  0  0  0  0  0  0  0  0  0
   18.7805  -10.6803  -16.8162 C   0  0  0  0  0  0  0  0  0  0  0  0
   18.6794   -9.7669  -17.6600 O   0  0  0  0  0  0  0  0  0  0  0  0
   16.5433   -9.7371  -13.7560 O   0  0  0  0  0  0  0  0  0  0  0  0
   17.7371   -9.0533  -13.6133 C   0  0  0  0  0  0  0  0  0  0  0  0
   18.5130   -9.0595  -14.9006 C   0  0  2  0  0  0  0  0  0  0  0  0
   18.6868  -10.3783  -15.4545 N   0  0  0  0  0  0  0  0  0  0  0  0
   19.7758   -8.3095  -14.7971 C   0  0  0  0  0  0  0  0  0  0  0  0
   20.8519   -8.9565  -14.8875 O   0  0  0  0  0  0  0  0  0  0  0  0
   24.1032   -5.9699  -15.9095 N   0  0  0  0  0  0  0  0  0  0  0  0
   22.8740   -5.4270  -16.3553 C   0  0  0  0  0  0  0  0  0  0  0  0
   22.8156   -4.3122  -16.9111 O   0  0  0  0  0  0  0  0  0  0  0  0
   21.6539   -6.2267  -16.1403 C   0  0  0  0  0  0  0  0  0  0  0  0
   21.1186   -6.1586  -14.7395 C   0  0  2  0  0  0  0  0  0  0  0  0
   19.8748   -6.9241  -14.6041 N   0  0  0  0  0  0  0  0  0  0  0  0
   20.8988   -4.7415  -14.3707 C   0  0  0  0  0  0  0  0  0  0  0  0
   21.8066   -4.0243  -13.6257 O   0  0  0  0  0  0  0  0  0  0  0  0
   19.8473   -4.1873  -14.7564 O   0  0  0  0  0  0  0  0  0  0  0  0
  2  1  1  6
  2  4  1  0
  2  3  1  0
  4  5  2  0
  8  7  1  1
  7  6  1  0
  9  4  1  0
  9  8  1  0
 10  8  1  0
 10 11  2  0
 12 13  1  0
 13 15  1  0
 13 14  2  0
 16 15  1  6
 16 17  1  0
 16 18  1  0
 17 10  1  0
 18 19  1  0
 20 18  2  0
M  END
$$$$
