ASN.pdb
     RDKit          3D

 20 19  0  0  1  0  0  0  0  0999 V2000
   19.9818  -20.2065  -11.4740 C   0  0  0  0  0  0  0  0  0  0  0  0
   20.9850  -21.0682  -12.2284 C   0  0  2  0  0  0  0  0  0  0  0  0
   21.0870  -22.3566  -11.5939 N   0  0  0  0  0  0  0  0  0  0  0  0
   22.2705  -20.3217  -12.1699 C   0  0  0  0  0  0  0  0  0  0  0  0
   22.2771  -19.0941  -12.3924 O   0  0  0  0  0  0  0  0  0  0  0  0
   25.2860  -21.1914   -9.7474 O   0  0  0  0  0  0  0  0  0  0  0  0
   25.7789  -21.0713  -11.0342 C   0  0  0  0  0  0  0  0  0  0  0  0
   24.7812  -20.3874  -11.9263 C   0  0  2  0  0  0  0  0  0  0  0  0
   23.4679  -20.9773  -11.8694 N   0  0  0  0  0  0  0  0  0  0  0  0
   25.2788  -20.2260  -13.3027 C   0  0  0  0  0  0  0  0  0  0  0  0
   24.8787  -21.0448  -14.1711 O   0  0  0  0  0  0  0  0  0  0  0  0
   27.5066  -18.4829  -17.6443 N   0  0  0  0  0  0  0  0  0  0  0  0
   27.8110  -17.5069  -16.6650 C   0  0  0  0  0  0  0  0  0  0  0  0
   28.4641  -16.4820  -16.9452 O   0  0  0  0  0  0  0  0  0  0  0  0
   27.3283  -17.7408  -15.2915 C   0  0  0  0  0  0  0  0  0  0  0  0
   26.6072  -19.0451  -15.1120 C   0  0  2  0  0  0  0  0  0  0  0  0
   26.1682  -19.2274  -13.7244 N   0  0  0  0  0  0  0  0  0  0  0  0
   27.4971  -20.1542  -15.5249 C   0  0  0  0  0  0  0  0  0  0  0  0
   27.5842  -20.5827  -16.8296 O   0  0  0  0  0  0  0  0  0  0  0  0
   28.1898  -20.7132  -14.6478 O   0  0  0  0  0  0  0  0  0  0  0  0
  2  1  1  1
  2  4  1  0
  2  3  1  0
  4  5  2  0
  8  7  1  1
  7  6  1  0
  9  4  1  0
  9  8  1  0
 10  8  1  0
 10 11  2  0
 12 13  1  0
 13 15  1  0
 13 14  2  0
 16 15  1  1
 16 17  1  0
 16 18  1  0
 17 10  1  0
 18 19  1  0
 20 18  2  0
M  END
$$$$
