ASN.pdb
     RDKit          3D

 20 19  0  0  1  0  0  0  0  0999 V2000
   18.5346  -10.7927  -20.3110 C   0  0  0  0  0  0  0  0  0  0  0  0
   19.9890  -11.0545  -19.9448 C   0  0  2  0  0  0  0  0  0  0  0  0
   20.2888  -12.4506  -20.1295 N   0  0  0  0  0  0  0  0  0  0  0  0
   20.1175  -10.6470  -18.5198 C   0  0  0  0  0  0  0  0  0  0  0  0
   19.7074  -11.4123  -17.6239 O   0  0  0  0  0  0  0  0  0  0  0  0
   23.0857   -9.8736  -15.4409 O   0  0  0  0  0  0  0  0  0  0  0  0
   22.5094  -10.1207  -16.6738 C   0  0  0  0  0  0  0  0  0  0  0  0
   21.4005   -9.1445  -16.9500 C   0  0  2  0  0  0  0  0  0  0  0  0
   20.6907   -9.4200  -18.1734 N   0  0  0  0  0  0  0  0  0  0  0  0
   21.8477   -7.7454  -16.8486 C   0  0  0  0  0  0  0  0  0  0  0  0
   22.1540   -7.1484  -17.9137 O   0  0  0  0  0  0  0  0  0  0  0  0
   22.5075   -2.8498  -15.6063 N   0  0  0  0  0  0  0  0  0  0  0  0
   21.3863   -3.3427  -16.3164 C   0  0  0  0  0  0  0  0  0  0  0  0
   20.5945   -2.5763  -16.9004 O   0  0  0  0  0  0  0  0  0  0  0  0
   21.1811   -4.8026  -16.3448 C   0  0  0  0  0  0  0  0  0  0  0  0
   22.2147   -5.5790  -15.5817 C   0  0  2  0  0  0  0  0  0  0  0  0
   21.9605   -7.0219  -15.6527 N   0  0  0  0  0  0  0  0  0  0  0  0
   22.2249   -5.1224  -14.1731 C   0  0  0  0  0  0  0  0  0  0  0  0
   22.9636   -4.0396  -13.7546 O   0  0  0  0  0  0  0  0  0  0  0  0
   21.5328   -5.7507  -13.3438 O   0  0  0  0  0  0  0  0  0  0  0  0
  2  1  1  1
  2  4  1  0
  2  3  1  0
  4  5  2  0
  8  7  1  6
  7  6  1  0
  9  4  1  0
  9  8  1  0
 10  8  1  0
 10 11  2  0
 12 13  1  0
 13 15  1  0
 13 14  2  0
 16 15  1  6
 16 17  1  0
 16 18  1  0
 17 10  1  0
 18 19  1  0
 20 18  2  0
M  END
$$$$
