ASN.pdb
     RDKit          3D

 20 19  0  0  1  0  0  0  0  0999 V2000
   27.6564  -20.6235  -18.3772 C   0  0  0  0  0  0  0  0  0  0  0  0
   28.1181  -20.3364  -16.9550 C   0  0  2  0  0  0  0  0  0  0  0  0
   28.7220  -21.5181  -16.3965 N   0  0  0  0  0  0  0  0  0  0  0  0
   26.8908  -19.9413  -16.2130 C   0  0  0  0  0  0  0  0  0  0  0  0
   26.7189  -20.3542  -15.0483 O   0  0  0  0  0  0  0  0  0  0  0  0
   24.9853  -16.2272  -16.6569 O   0  0  0  0  0  0  0  0  0  0  0  0
   24.2116  -17.3568  -16.8533 C   0  0  0  0  0  0  0  0  0  0  0  0
   24.7961  -18.5367  -16.1285 C   0  0  2  0  0  0  0  0  0  0  0  0
   25.9302  -19.1150  -16.8034 N   0  0  0  0  0  0  0  0  0  0  0  0
   23.7747  -19.5333  -15.7658 C   0  0  0  0  0  0  0  0  0  0  0  0
   23.6135  -20.5157  -16.5362 O   0  0  0  0  0  0  0  0  0  0  0  0
   20.8283  -22.6587  -11.9479 N   0  0  0  0  0  0  0  0  0  0  0  0
   20.5234  -21.3688  -12.4453 C   0  0  0  0  0  0  0  0  0  0  0  0
   19.3458  -20.9758  -12.5634 O   0  0  0  0  0  0  0  0  0  0  0  0
   21.6504  -20.4962  -12.8230 C   0  0  0  0  0  0  0  0  0  0  0  0
   21.9226  -20.4552  -14.2987 C   0  0  2  0  0  0  0  0  0  0  0  0
   22.9628  -19.4737  -14.6240 N   0  0  0  0  0  0  0  0  0  0  0  0
   20.6669  -20.1383  -15.0166 C   0  0  0  0  0  0  0  0  0  0  0  0
   20.4467  -18.9180  -15.6131 O   0  0  0  0  0  0  0  0  0  0  0  0
   19.7828  -21.0194  -15.0771 O   0  0  0  0  0  0  0  0  0  0  0  0
  2  1  1  6
  2  4  1  0
  2  3  1  0
  4  5  2  0
  8  7  1  6
  7  6  1  0
  9  4  1  0
  9  8  1  0
 10  8  1  0
 10 11  2  0
 12 13  1  0
 13 15  1  0
 13 14  2  0
 16 15  1  1
 16 17  1  0
 16 18  1  0
 17 10  1  0
 18 19  1  0
 20 18  2  0
M  END
$$$$
