ASN.pdb
     RDKit          3D

 20 19  0  0  1  0  0  0  0  0999 V2000
   22.5928  -12.7020  -17.5901 C   0  0  0  0  0  0  0  0  0  0  0  0
   21.0758  -12.5986  -17.6681 C   0  0  2  0  0  0  0  0  0  0  0  0
   20.6203  -13.1328  -18.9252 N   0  0  0  0  0  0  0  0  0  0  0  0
   20.7714  -11.1478  -17.5429 C   0  0  0  0  0  0  0  0  0  0  0  0
   21.3375  -10.3349  -18.3014 O   0  0  0  0  0  0  0  0  0  0  0  0
   18.1636   -9.6916  -14.4570 O   0  0  0  0  0  0  0  0  0  0  0  0
   18.1173   -9.1737  -15.7387 C   0  0  0  0  0  0  0  0  0  0  0  0
   19.4497   -9.3149  -16.4199 C   0  0  2  0  0  0  0  0  0  0  0  0
   19.8609  -10.6856  -16.5882 N   0  0  0  0  0  0  0  0  0  0  0  0
   20.4881   -8.4763  -15.7983 C   0  0  0  0  0  0  0  0  0  0  0  0
   21.2742   -9.0244  -14.9819 O   0  0  0  0  0  0  0  0  0  0  0  0
   24.1301   -3.7035  -16.3860 N   0  0  0  0  0  0  0  0  0  0  0  0
   23.6107   -4.7687  -15.6115 C   0  0  0  0  0  0  0  0  0  0  0  0
   23.9424   -4.9326  -14.4205 O   0  0  0  0  0  0  0  0  0  0  0  0
   22.6573   -5.6869  -16.2613 C   0  0  0  0  0  0  0  0  0  0  0  0
   21.6310   -6.2614  -15.3285 C   0  0  2  0  0  0  0  0  0  0  0  0
   20.6712   -7.1081  -16.0449 N   0  0  0  0  0  0  0  0  0  0  0  0
   20.9313   -5.1564  -14.6343 C   0  0  0  0  0  0  0  0  0  0  0  0
   21.4881   -4.4846  -13.5702 O   0  0  0  0  0  0  0  0  0  0  0  0
   19.7949   -4.8305  -15.0390 O   0  0  0  0  0  0  0  0  0  0  0  0
  2  1  1  6
  2  4  1  0
  2  3  1  0
  4  5  2  0
  8  7  1  1
  7  6  1  0
  9  4  1  0
  9  8  1  0
 10  8  1  0
 10 11  2  0
 12 13  1  0
 13 15  1  0
 13 14  2  0
 16 15  1  6
 16 17  1  0
 16 18  1  0
 17 10  1  0
 18 19  1  0
 20 18  2  0
M  END
$$$$
