ASN.pdb
     RDKit          3D

 20 19  0  0  1  0  0  0  0  0999 V2000
   15.9697  -13.3879  -13.8644 C   0  0  0  0  0  0  0  0  0  0  0  0
   15.9610  -12.5959  -15.1648 C   0  0  2  0  0  0  0  0  0  0  0  0
   16.2225  -13.4810  -16.2699 N   0  0  0  0  0  0  0  0  0  0  0  0
   17.0307  -11.5735  -15.0122 C   0  0  0  0  0  0  0  0  0  0  0  0
   17.3464  -11.1822  -13.8704 O   0  0  0  0  0  0  0  0  0  0  0  0
   20.6203  -11.2672  -16.6849 O   0  0  0  0  0  0  0  0  0  0  0  0
   19.7966  -10.2332  -17.0919 C   0  0  0  0  0  0  0  0  0  0  0  0
   18.6875  -10.0128  -16.1017 C   0  0  2  0  0  0  0  0  0  0  0  0
   17.6850  -11.0474  -16.1299 N   0  0  0  0  0  0  0  0  0  0  0  0
   18.1172   -8.6584  -16.1917 C   0  0  0  0  0  0  0  0  0  0  0  0
   16.9146   -8.5504  -16.5478 O   0  0  0  0  0  0  0  0  0  0  0  0
   17.1243   -3.6204  -15.9520 N   0  0  0  0  0  0  0  0  0  0  0  0
   16.5893   -4.5453  -15.0232 C   0  0  0  0  0  0  0  0  0  0  0  0
   15.6700   -4.2290  -14.2421 O   0  0  0  0  0  0  0  0  0  0  0  0
   17.1570   -5.9060  -15.0070 C   0  0  0  0  0  0  0  0  0  0  0  0
   18.2340   -6.1301  -16.0285 C   0  0  2  0  0  0  0  0  0  0  0  0
   18.8119   -7.4731  -15.9111 N   0  0  0  0  0  0  0  0  0  0  0  0
   19.2827   -5.0976  -15.8647 C   0  0  0  0  0  0  0  0  0  0  0  0
   19.2166   -3.8740  -16.4907 O   0  0  0  0  0  0  0  0  0  0  0  0
   20.2579   -5.3582  -15.1280 O   0  0  0  0  0  0  0  0  0  0  0  0
  2  1  1  1
  2  4  1  0
  2  3  1  0
  4  5  2  0
  8  7  1  6
  7  6  1  0
  9  4  1  0
  9  8  1  0
 10  8  1  0
 10 11  2  0
 12 13  1  0
 13 15  1  0
 13 14  2  0
 16 15  1  1
 16 17  1  0
 16 18  1  0
 17 10  1  0
 18 19  1  0
 20 18  2  0
M  END
$$$$
