ASN.pdb
     RDKit          3D

 20 19  0  0  1  0  0  0  0  0999 V2000
   21.1260  -12.2017  -18.2649 C   0  0  0  0  0  0  0  0  0  0  0  0
   22.0806  -11.1289  -17.7590 C   0  0  2  0  0  0  0  0  0  0  0  0
   23.3151  -11.7405  -17.3408 N   0  0  0  0  0  0  0  0  0  0  0  0
   21.3759  -10.4766  -16.6227 C   0  0  0  0  0  0  0  0  0  0  0  0
   20.5896  -11.1465  -15.9231 O   0  0  0  0  0  0  0  0  0  0  0  0
   21.5792   -8.5809  -12.7075 O   0  0  0  0  0  0  0  0  0  0  0  0
   21.8935   -9.2217  -13.8924 C   0  0  0  0  0  0  0  0  0  0  0  0
   21.3048   -8.4913  -15.0667 C   0  0  2  0  0  0  0  0  0  0  0  0
   21.5838   -9.1256  -16.3301 N   0  0  0  0  0  0  0  0  0  0  0  0
   21.6380   -7.0571  -15.0586 C   0  0  0  0  0  0  0  0  0  0  0  0
   22.7772   -6.7169  -15.4725 O   0  0  0  0  0  0  0  0  0  0  0  0
   21.5082   -1.8946  -14.7862 N   0  0  0  0  0  0  0  0  0  0  0  0
   20.1730   -2.3033  -14.5527 C   0  0  0  0  0  0  0  0  0  0  0  0
   19.2514   -1.4749  -14.4120 O   0  0  0  0  0  0  0  0  0  0  0  0
   19.9025   -3.7510  -14.4801 C   0  0  0  0  0  0  0  0  0  0  0  0
   21.1239   -4.6088  -14.6413 C   0  0  2  0  0  0  0  0  0  0  0  0
   20.7823   -6.0351  -14.6234 N   0  0  0  0  0  0  0  0  0  0  0  0
   22.0871   -4.2921  -13.5622 C   0  0  0  0  0  0  0  0  0  0  0  0
   22.3994   -5.1887  -12.5662 O   0  0  0  0  0  0  0  0  0  0  0  0
   22.6304   -3.1668  -13.5673 O   0  0  0  0  0  0  0  0  0  0  0  0
  2  1  1  1
  2  4  1  0
  2  3  1  0
  4  5  2  0
  8  7  1  1
  7  6  1  0
  9  4  1  0
  9  8  1  0
 10  8  1  0
 10 11  2  0
 12 13  1  0
 13 15  1  0
 13 14  2  0
 16 15  1  1
 16 17  1  0
 16 18  1  0
 17 10  1  0
 18 19  1  0
 20 18  2  0
M  END
$$$$
