ASN.pdb
     RDKit          3D

 20 19  0  0  1  0  0  0  0  0999 V2000
   14.7401  -10.2992  -15.6644 C   0  0  0  0  0  0  0  0  0  0  0  0
   16.1332  -10.6350  -15.1499 C   0  0  2  0  0  0  0  0  0  0  0  0
   16.0468  -11.7003  -14.1852 N   0  0  0  0  0  0  0  0  0  0  0  0
   16.6427   -9.3780  -14.5388 C   0  0  0  0  0  0  0  0  0  0  0  0
   16.7082   -8.3423  -15.2314 O   0  0  0  0  0  0  0  0  0  0  0  0
   16.2994   -8.4001  -10.6377 O   0  0  0  0  0  0  0  0  0  0  0  0
   17.6140   -8.2886  -11.0533 C   0  0  0  0  0  0  0  0  0  0  0  0
   17.6967   -8.2321  -12.5530 C   0  0  2  0  0  0  0  0  0  0  0  0
   17.0477   -9.3432  -13.2014 N   0  0  0  0  0  0  0  0  0  0  0  0
   19.0723   -8.0128  -13.0301 C   0  0  0  0  0  0  0  0  0  0  0  0
   19.6777   -8.9892  -13.5447 O   0  0  0  0  0  0  0  0  0  0  0  0
   21.8987   -6.2803  -17.3599 N   0  0  0  0  0  0  0  0  0  0  0  0
   22.0284   -6.3393  -15.9514 C   0  0  0  0  0  0  0  0  0  0  0  0
   23.1235   -6.1445  -15.3875 O   0  0  0  0  0  0  0  0  0  0  0  0
   20.8186   -6.6409  -15.1642 C   0  0  0  0  0  0  0  0  0  0  0  0
   21.0067   -6.5070  -13.6808 C   0  0  2  0  0  0  0  0  0  0  0  0
   19.7648   -6.7958  -12.9557 N   0  0  0  0  0  0  0  0  0  0  0  0
   21.4821   -5.1392  -13.3719 C   0  0  0  0  0  0  0  0  0  0  0  0
   22.8027   -4.8609  -13.1031 O   0  0  0  0  0  0  0  0  0  0  0  0
   20.6445   -4.2119  -13.3586 O   0  0  0  0  0  0  0  0  0  0  0  0
  2  1  1  1
  2  4  1  0
  2  3  1  0
  4  5  2  0
  8  7  1  1
  7  6  1  0
  9  4  1  0
  9  8  1  0
 10  8  1  0
 10 11  2  0
 12 13  1  0
 13 15  1  0
 13 14  2  0
 16 15  1  6
 16 17  1  0
 16 18  1  0
 17 10  1  0
 18 19  1  0
 20 18  2  0
M  END
$$$$
