ASN.pdb
     RDKit          3D

 20 19  0  0  1  0  0  0  0  0999 V2000
   16.1563  -10.3759  -15.7542 C   0  0  0  0  0  0  0  0  0  0  0  0
   17.4853  -11.0577  -16.0493 C   0  0  2  0  0  0  0  0  0  0  0  0
   17.3767  -12.4662  -15.7708 N   0  0  0  0  0  0  0  0  0  0  0  0
   18.4761  -10.3946  -15.1594 C   0  0  0  0  0  0  0  0  0  0  0  0
   18.3627  -10.5099  -13.9224 O   0  0  0  0  0  0  0  0  0  0  0  0
   21.4958   -7.6760  -16.6669 O   0  0  0  0  0  0  0  0  0  0  0  0
   21.7837   -8.6635  -15.7421 C   0  0  0  0  0  0  0  0  0  0  0  0
   20.5674   -9.0019  -14.9265 C   0  0  2  0  0  0  0  0  0  0  0  0
   19.5299   -9.6459  -15.6914 N   0  0  0  0  0  0  0  0  0  0  0  0
   20.0772   -7.8522  -14.1483 C   0  0  0  0  0  0  0  0  0  0  0  0
   19.1465   -7.1632  -14.6422 O   0  0  0  0  0  0  0  0  0  0  0  0
   19.2486   -4.1724  -10.6253 N   0  0  0  0  0  0  0  0  0  0  0  0
   19.3145   -5.4232   -9.9654 C   0  0  0  0  0  0  0  0  0  0  0  0
   18.9801   -5.5497   -8.7706 O   0  0  0  0  0  0  0  0  0  0  0  0
   19.7948   -6.5821  -10.7402 C   0  0  0  0  0  0  0  0  0  0  0  0
   20.1250   -6.2658  -12.1700 C   0  0  2  0  0  0  0  0  0  0  0  0
   20.5681   -7.4618  -12.8942 N   0  0  0  0  0  0  0  0  0  0  0  0
   21.1712   -5.2186  -12.2079 C   0  0  0  0  0  0  0  0  0  0  0  0
   22.4432   -5.4638  -12.6719 O   0  0  0  0  0  0  0  0  0  0  0  0
   20.8760   -4.0742  -11.8018 O   0  0  0  0  0  0  0  0  0  0  0  0
  2  1  1  1
  2  4  1  0
  2  3  1  0
  4  5  2  0
  8  7  1  6
  7  6  1  0
  9  4  1  0
  9  8  1  0
 10  8  1  0
 10 11  2  0
 12 13  1  0
 13 15  1  0
 13 14  2  0
 16 15  1  1
 16 17  1  0
 16 18  1  0
 17 10  1  0
 18 19  1  0
 20 18  2  0
M  END
$$$$
