ASN.pdb
     RDKit          3D

 20 19  0  0  1  0  0  0  0  0999 V2000
   16.4623  -14.5980  -16.9394 C   0  0  0  0  0  0  0  0  0  0  0  0
   17.7081  -15.3614  -17.3676 C   0  0  2  0  0  0  0  0  0  0  0  0
   17.7079  -16.6654  -16.7571 N   0  0  0  0  0  0  0  0  0  0  0  0
   18.8561  -14.5362  -16.9048 C   0  0  0  0  0  0  0  0  0  0  0  0
   19.1214  -14.4831  -15.6869 O   0  0  0  0  0  0  0  0  0  0  0  0
   21.3971  -12.2641  -19.6512 O   0  0  0  0  0  0  0  0  0  0  0  0
   21.8341  -13.0094  -18.5711 C   0  0  0  0  0  0  0  0  0  0  0  0
   20.7973  -13.0313  -17.4831 C   0  0  2  0  0  0  0  0  0  0  0  0
   19.6393  -13.8215  -17.8158 N   0  0  0  0  0  0  0  0  0  0  0  0
   20.4536  -11.6801  -17.0098 C   0  0  0  0  0  0  0  0  0  0  0  0
   19.4003  -11.1529  -17.4542 O   0  0  0  0  0  0  0  0  0  0  0  0
   20.2996   -7.1049  -14.5890 N   0  0  0  0  0  0  0  0  0  0  0  0
   21.3389   -7.8214  -13.9481 C   0  0  0  0  0  0  0  0  0  0  0  0
   21.9966   -7.3221  -13.0135 O   0  0  0  0  0  0  0  0  0  0  0  0
   21.6229   -9.1881  -14.4234 C   0  0  0  0  0  0  0  0  0  0  0  0
   20.8725   -9.5702  -15.6661 C   0  0  2  0  0  0  0  0  0  0  0  0
   21.2111  -10.9302  -16.0988 N   0  0  0  0  0  0  0  0  0  0  0  0
   21.1754   -8.5940  -16.7374 C   0  0  0  0  0  0  0  0  0  0  0  0
   20.3398   -7.5416  -17.0335 O   0  0  0  0  0  0  0  0  0  0  0  0
   22.2317   -8.7410  -17.3887 O   0  0  0  0  0  0  0  0  0  0  0  0
  2  1  1  1
  2  4  1  0
  2  3  1  0
  4  5  2  0
  8  7  1  6
  7  6  1  0
  9  4  1  0
  9  8  1  0
 10  8  1  0
 10 11  2  0
 12 13  1  0
 13 15  1  0
 13 14  2  0
 16 15  1  1
 16 17  1  0
 16 18  1  0
 17 10  1  0
 18 19  1  0
 20 18  2  0
M  END
$$$$
