SNG.pdb
     RDKit          3D

 19 18  0  0  1  0  0  0  0  0999 V2000
    6.9601  -18.8959   21.9367 O   0  0  0  0  0  0  0  0  0  0  0  0
    8.1977  -18.2731   21.8598 C   0  0  0  0  0  0  0  0  0  0  0  0
    9.1628  -18.7889   22.9162 C   0  0  2  0  0  0  0  0  0  0  0  0
    9.2433  -20.2355   22.9167 N   0  0  0  0  0  0  0  0  0  0  0  0
    8.8328  -18.2547   24.2534 C   0  0  0  0  0  0  0  0  0  0  0  0
    8.8336  -17.0218   24.4723 O   0  0  0  0  0  0  0  0  0  0  0  0
    6.2649  -20.8764   25.6511 N   0  0  0  0  0  0  0  0  0  0  0  0
    6.5673  -20.3204   26.9099 C   0  0  0  0  0  0  0  0  0  0  0  0
    6.6422  -21.0947   27.8903 O   0  0  0  0  0  0  0  0  0  0  0  0
    6.7857  -18.8681   27.0491 C   0  0  0  0  0  0  0  0  0  0  0  0
    8.2114  -18.5492   26.6716 C   0  0  2  0  0  0  0  0  0  0  0  0
    8.4965  -19.1070   25.3646 N   0  0  0  0  0  0  0  0  0  0  0  0
    9.1162  -19.0942   27.7156 C   0  0  0  0  0  0  0  0  0  0  0  0
    8.9547  -18.8987   28.9472 O   0  0  0  0  0  0  0  0  0  0  0  0
   10.2226  -19.8803   27.2638 N   0  0  0  0  0  0  0  0  0  0  0  0
   11.1533  -20.4911   28.1735 C   0  0  0  0  0  0  0  0  0  0  0  0
   12.3849  -19.6721   28.2950 C   0  0  0  0  0  0  0  0  0  0  0  0
   12.5837  -18.9191   29.2878 O   0  0  0  0  0  0  0  0  0  0  0  0
   13.3818  -19.6907   27.3254 O   0  0  0  0  0  0  0  0  0  0  0  0
  2  1  1  0
  3  2  1  0
  3  4  1  1
  5  6  2  0
  5  3  1  0
  7  8  1  0
  8  9  2  0
 10  8  1  0
 11 10  1  1
 11 13  1  0
 11 12  1  0
 12  5  1  0
 13 15  1  0
 14 13  2  0
 16 15  1  0
 16 17  1  0
 17 18  2  0
 17 19  1  0
M  END
$$$$
