SNG.pdb
     RDKit          3D

 19 18  0  0  1  0  0  0  0  0999 V2000
    2.5570  -22.4571   19.9089 O   0  0  0  0  0  0  0  0  0  0  0  0
    3.6564  -21.6739   20.2303 C   0  0  0  0  0  0  0  0  0  0  0  0
    3.5730  -21.1274   21.6474 C   0  0  2  0  0  0  0  0  0  0  0  0
    2.3087  -20.4665   21.8998 N   0  0  0  0  0  0  0  0  0  0  0  0
    4.7232  -20.2531   21.9556 C   0  0  0  0  0  0  0  0  0  0  0  0
    5.8963  -20.6864   21.8924 O   0  0  0  0  0  0  0  0  0  0  0  0
    8.0339  -16.9279   21.8235 N   0  0  0  0  0  0  0  0  0  0  0  0
    6.8701  -16.1928   21.5231 C   0  0  0  0  0  0  0  0  0  0  0  0
    7.0041  -15.0984   20.9308 O   0  0  0  0  0  0  0  0  0  0  0  0
    5.5426  -16.7124   21.9029 C   0  0  0  0  0  0  0  0  0  0  0  0
    5.7179  -18.0371   22.6037 C   0  0  2  0  0  0  0  0  0  0  0  0
    4.5646  -18.8743   22.3403 N   0  0  0  0  0  0  0  0  0  0  0  0
    5.9019  -17.7891   24.0565 C   0  0  0  0  0  0  0  0  0  0  0  0
    5.0106  -17.3013   24.7972 O   0  0  0  0  0  0  0  0  0  0  0  0
    7.1733  -18.1344   24.6137 N   0  0  0  0  0  0  0  0  0  0  0  0
    7.4450  -18.0429   26.0225 C   0  0  0  0  0  0  0  0  0  0  0  0
    8.8453  -18.4379   26.3150 C   0  0  0  0  0  0  0  0  0  0  0  0
    9.6054  -18.8947   25.4174 O   0  0  0  0  0  0  0  0  0  0  0  0
    9.3925  -18.3261   27.5887 O   0  0  0  0  0  0  0  0  0  0  0  0
  2  1  1  0
  3  2  1  0
  3  4  1  6
  5  6  2  0
  5  3  1  0
  7  8  1  0
  8  9  2  0
 10  8  1  0
 11 10  1  6
 11 13  1  0
 11 12  1  0
 12  5  1  0
 13 15  1  0
 14 13  2  0
 16 15  1  0
 16 17  1  0
 17 18  2  0
 17 19  1  0
M  END
$$$$
