SNG.pdb
     RDKit          3D

 19 18  0  0  1  0  0  0  0  0999 V2000
    9.3121  -18.4556   13.7268 O   0  0  0  0  0  0  0  0  0  0  0  0
    8.1638  -17.8127   14.1668 C   0  0  0  0  0  0  0  0  0  0  0  0
    8.3870  -16.3220   14.3707 C   0  0  2  0  0  0  0  0  0  0  0  0
    9.1599  -15.7373   13.2937 N   0  0  0  0  0  0  0  0  0  0  0  0
    8.9848  -16.0432   15.6926 C   0  0  0  0  0  0  0  0  0  0  0  0
   10.2143  -15.8389   15.8130 O   0  0  0  0  0  0  0  0  0  0  0  0
    6.6177  -12.9795   19.0598 N   0  0  0  0  0  0  0  0  0  0  0  0
    7.8068  -13.7266   19.1733 C   0  0  0  0  0  0  0  0  0  0  0  0
    8.8827  -13.1006   19.3036 O   0  0  0  0  0  0  0  0  0  0  0  0
    7.7658  -15.2009   19.1374 C   0  0  0  0  0  0  0  0  0  0  0  0
    8.8188  -15.6964   18.1770 C   0  0  2  0  0  0  0  0  0  0  0  0
    8.2008  -15.9912   16.8996 N   0  0  0  0  0  0  0  0  0  0  0  0
    9.4762  -16.8923   18.7631 C   0  0  0  0  0  0  0  0  0  0  0  0
    8.9454  -18.0318   18.7962 O   0  0  0  0  0  0  0  0  0  0  0  0
   10.7838  -16.7053   19.3120 N   0  0  0  0  0  0  0  0  0  0  0  0
   11.5571  -17.7949   19.8429 C   0  0  0  0  0  0  0  0  0  0  0  0
   12.8874  -17.3221   20.3003 C   0  0  0  0  0  0  0  0  0  0  0  0
   13.2509  -16.1231   20.1511 O   0  0  0  0  0  0  0  0  0  0  0  0
   13.8008  -18.1717   20.9153 O   0  0  0  0  0  0  0  0  0  0  0  0
  2  1  1  0
  3  2  1  0
  3  4  1  6
  5  6  2  0
  5  3  1  0
  7  8  1  0
  8  9  2  0
 10  8  1  0
 11 10  1  1
 11 13  1  0
 11 12  1  0
 12  5  1  0
 13 15  1  0
 14 13  2  0
 16 15  1  0
 16 17  1  0
 17 18  2  0
 17 19  1  0
M  END
$$$$
