SNG.pdb
     RDKit          3D

 19 18  0  0  1  0  0  0  0  0999 V2000
    9.0473  -14.7685   15.5518 O   0  0  0  0  0  0  0  0  0  0  0  0
    9.1847  -15.0253   16.9086 C   0  0  0  0  0  0  0  0  0  0  0  0
    8.1226  -14.3154   17.7341 C   0  0  2  0  0  0  0  0  0  0  0  0
    7.9723  -12.9277   17.3461 N   0  0  0  0  0  0  0  0  0  0  0  0
    8.3816  -14.4581   19.1816 C   0  0  0  0  0  0  0  0  0  0  0  0
    8.9326  -13.5399   19.8306 O   0  0  0  0  0  0  0  0  0  0  0  0
    5.7441  -15.1470   21.4570 N   0  0  0  0  0  0  0  0  0  0  0  0
    6.0895  -16.4378   21.9037 C   0  0  0  0  0  0  0  0  0  0  0  0
    5.1655  -17.1991   22.2682 O   0  0  0  0  0  0  0  0  0  0  0  0
    7.5023  -16.8616   21.9342 C   0  0  0  0  0  0  0  0  0  0  0  0
    8.3524  -15.7753   21.3227 C   0  0  2  0  0  0  0  0  0  0  0  0
    8.0214  -15.6423   19.9179 N   0  0  0  0  0  0  0  0  0  0  0  0
    9.7835  -16.1172   21.5243 C   0  0  0  0  0  0  0  0  0  0  0  0
   10.4168  -16.9198   20.7923 O   0  0  0  0  0  0  0  0  0  0  0  0
   10.4500  -15.4826   22.6194 N   0  0  0  0  0  0  0  0  0  0  0  0
   11.8796  -15.3390   22.6695 C   0  0  0  0  0  0  0  0  0  0  0  0
   12.5126  -16.5646   23.2170 C   0  0  0  0  0  0  0  0  0  0  0  0
   13.7481  -16.6158   23.4680 O   0  0  0  0  0  0  0  0  0  0  0  0
   11.7811  -17.7175   23.4816 O   0  0  0  0  0  0  0  0  0  0  0  0
  2  1  1  0
  3  2  1  0
  3  4  1  6
  5  6  2  0
  5  3  1  0
  7  8  1  0
  8  9  2  0
 10  8  1  0
 11 10  1  6
 11 13  1  0
 11 12  1  0
 12  5  1  0
 13 15  1  0
 14 13  2  0
 16 15  1  0
 16 17  1  0
 17 18  2  0
 17 19  1  0
M  END
$$$$
