SNG.pdb
     RDKit          3D

 19 18  0  0  1  0  0  0  0  0999 V2000
    7.6907  -19.2247   18.3702 O   0  0  0  0  0  0  0  0  0  0  0  0
    7.0626  -18.0650   17.9387 C   0  0  0  0  0  0  0  0  0  0  0  0
    7.9857  -16.8579   18.0044 C   0  0  2  0  0  0  0  0  0  0  0  0
    9.1517  -17.0206   17.1601 N   0  0  0  0  0  0  0  0  0  0  0  0
    8.3548  -16.5379   19.3986 C   0  0  0  0  0  0  0  0  0  0  0  0
    9.4627  -16.8855   19.8671 O   0  0  0  0  0  0  0  0  0  0  0  0
    8.4537  -13.2951   23.8059 N   0  0  0  0  0  0  0  0  0  0  0  0
    7.3679  -14.1687   23.5985 C   0  0  0  0  0  0  0  0  0  0  0  0
    6.7986  -14.6462   24.6056 O   0  0  0  0  0  0  0  0  0  0  0  0
    6.9295  -14.4992   22.2293 C   0  0  0  0  0  0  0  0  0  0  0  0
    7.8713  -15.5248   21.6480 C   0  0  2  0  0  0  0  0  0  0  0  0
    7.4761  -15.8193   20.2851 N   0  0  0  0  0  0  0  0  0  0  0  0
    7.8471  -16.7370   22.5058 C   0  0  0  0  0  0  0  0  0  0  0  0
    6.9004  -17.5645   22.5142 O   0  0  0  0  0  0  0  0  0  0  0  0
    8.9769  -16.9467   23.3577 N   0  0  0  0  0  0  0  0  0  0  0  0
   10.3289  -16.8094   22.8885 C   0  0  0  0  0  0  0  0  0  0  0  0
   11.2944  -17.0303   23.9936 C   0  0  0  0  0  0  0  0  0  0  0  0
   11.1108  -16.5387   25.1411 O   0  0  0  0  0  0  0  0  0  0  0  0
   12.4484  -17.7880   23.8246 O   0  0  0  0  0  0  0  0  0  0  0  0
  2  1  1  0
  3  2  1  0
  3  4  1  6
  5  6  2  0
  5  3  1  0
  7  8  1  0
  8  9  2  0
 10  8  1  0
 11 10  1  1
 11 13  1  0
 11 12  1  0
 12  5  1  0
 13 15  1  0
 14 13  2  0
 16 15  1  0
 16 17  1  0
 17 18  2  0
 17 19  1  0
M  END
$$$$
