SNG.pdb
     RDKit          3D

 19 18  0  0  1  0  0  0  0  0999 V2000
    7.8543  -19.5686   16.7690 O   0  0  0  0  0  0  0  0  0  0  0  0
    8.4876  -18.3725   17.0753 C   0  0  0  0  0  0  0  0  0  0  0  0
    8.8075  -18.2596   18.5580 C   0  0  2  0  0  0  0  0  0  0  0  0
    7.6504  -18.5362   19.3848 N   0  0  0  0  0  0  0  0  0  0  0  0
    9.4147  -16.9517   18.8795 C   0  0  0  0  0  0  0  0  0  0  0  0
   10.4157  -16.5353   18.2530 O   0  0  0  0  0  0  0  0  0  0  0  0
    8.0645  -12.3863   18.1417 N   0  0  0  0  0  0  0  0  0  0  0  0
    7.7731  -13.5637   18.8585 C   0  0  0  0  0  0  0  0  0  0  0  0
    7.0369  -14.4159   18.3125 O   0  0  0  0  0  0  0  0  0  0  0  0
    8.3274  -13.7686   20.2102 C   0  0  0  0  0  0  0  0  0  0  0  0
    9.4517  -14.7718   20.1312 C   0  0  2  0  0  0  0  0  0  0  0  0
    8.8990  -16.0940   19.9152 N   0  0  0  0  0  0  0  0  0  0  0  0
   10.2450  -14.7011   21.3848 C   0  0  0  0  0  0  0  0  0  0  0  0
   10.8074  -13.6536   21.7940 O   0  0  0  0  0  0  0  0  0  0  0  0
   10.3569  -15.9071   22.1459 N   0  0  0  0  0  0  0  0  0  0  0  0
   11.0382  -15.9567   23.4109 C   0  0  0  0  0  0  0  0  0  0  0  0
   11.8500  -17.1940   23.5231 C   0  0  0  0  0  0  0  0  0  0  0  0
   11.9527  -18.0075   22.5641 O   0  0  0  0  0  0  0  0  0  0  0  0
   12.5382  -17.5217   24.6864 O   0  0  0  0  0  0  0  0  0  0  0  0
  2  1  1  0
  3  2  1  0
  3  4  1  1
  5  6  2  0
  5  3  1  0
  7  8  1  0
  8  9  2  0
 10  8  1  0
 11 10  1  1
 11 13  1  0
 11 12  1  0
 12  5  1  0
 13 15  1  0
 14 13  2  0
 16 15  1  0
 16 17  1  0
 17 18  2  0
 17 19  1  0
M  END
$$$$
