SNG.pdb
     RDKit          3D

 19 18  0  0  1  0  0  0  0  0999 V2000
    7.9507  -18.9062   14.1324 O   0  0  0  0  0  0  0  0  0  0  0  0
    7.0246  -17.9217   14.4464 C   0  0  0  0  0  0  0  0  0  0  0  0
    7.6709  -16.5510   14.5770 C   0  0  2  0  0  0  0  0  0  0  0  0
    8.4175  -16.1884   13.3896 N   0  0  0  0  0  0  0  0  0  0  0  0
    8.4983  -16.4604   15.7976 C   0  0  0  0  0  0  0  0  0  0  0  0
    9.7277  -16.6952   15.7608 O   0  0  0  0  0  0  0  0  0  0  0  0
    6.6864  -13.1940   18.8018 N   0  0  0  0  0  0  0  0  0  0  0  0
    7.9515  -13.8138   18.8206 C   0  0  0  0  0  0  0  0  0  0  0  0
    8.9336  -13.1549   18.4111 O   0  0  0  0  0  0  0  0  0  0  0  0
    8.0953  -15.1976   19.3112 C   0  0  0  0  0  0  0  0  0  0  0  0
    8.7908  -16.0213   18.2556 C   0  0  2  0  0  0  0  0  0  0  0  0
    7.9478  -16.1025   17.0794 N   0  0  0  0  0  0  0  0  0  0  0  0
    9.0899  -17.3637   18.8162 C   0  0  0  0  0  0  0  0  0  0  0  0
    8.4544  -18.4039   18.5074 O   0  0  0  0  0  0  0  0  0  0  0  0
   10.1651  -17.4451   19.7562 N   0  0  0  0  0  0  0  0  0  0  0  0
   11.5390  -17.2753   19.3683 C   0  0  0  0  0  0  0  0  0  0  0  0
   12.2479  -18.5790   19.3585 C   0  0  0  0  0  0  0  0  0  0  0  0
   12.1116  -19.3995   18.4096 O   0  0  0  0  0  0  0  0  0  0  0  0
   13.0970  -18.9648   20.3904 O   0  0  0  0  0  0  0  0  0  0  0  0
  2  1  1  0
  3  2  1  0
  3  4  1  6
  5  6  2  0
  5  3  1  0
  7  8  1  0
  8  9  2  0
 10  8  1  0
 11 10  1  1
 11 13  1  0
 11 12  1  0
 12  5  1  0
 13 15  1  0
 14 13  2  0
 16 15  1  0
 16 17  1  0
 17 18  2  0
 17 19  1  0
M  END
$$$$
