SNG.pdb
     RDKit          3D

 19 18  0  0  1  0  0  0  0  0999 V2000
    9.3154  -15.4592   15.1343 O   0  0  0  0  0  0  0  0  0  0  0  0
    9.4099  -15.2904   16.5084 C   0  0  0  0  0  0  0  0  0  0  0  0
    8.2463  -14.4848   17.0657 C   0  0  2  0  0  0  0  0  0  0  0  0
    7.9757  -13.3032   16.2723 N   0  0  0  0  0  0  0  0  0  0  0  0
    8.4532  -14.1562   18.4911 C   0  0  0  0  0  0  0  0  0  0  0  0
    8.5577  -12.9670   18.8690 O   0  0  0  0  0  0  0  0  0  0  0  0
    6.0142  -14.3696   20.8919 N   0  0  0  0  0  0  0  0  0  0  0  0
    6.4469  -15.4909   21.6272 C   0  0  0  0  0  0  0  0  0  0  0  0
    5.5762  -16.2104   22.1662 O   0  0  0  0  0  0  0  0  0  0  0  0
    7.8860  -15.7919   21.7475 C   0  0  0  0  0  0  0  0  0  0  0  0
    8.6638  -14.8065   20.9104 C   0  0  2  0  0  0  0  0  0  0  0  0
    8.5451  -15.1680   19.5119 N   0  0  0  0  0  0  0  0  0  0  0  0
   10.0781  -14.8049   21.3639 C   0  0  0  0  0  0  0  0  0  0  0  0
   10.4335  -14.5069   22.5326 O   0  0  0  0  0  0  0  0  0  0  0  0
   11.0663  -15.1664   20.3949 N   0  0  0  0  0  0  0  0  0  0  0  0
   12.4756  -15.0713   20.6628 C   0  0  0  0  0  0  0  0  0  0  0  0
   12.9363  -16.2262   21.4730 C   0  0  0  0  0  0  0  0  0  0  0  0
   14.1387  -16.3412   21.8378 O   0  0  0  0  0  0  0  0  0  0  0  0
   12.0709  -17.2393   21.8722 O   0  0  0  0  0  0  0  0  0  0  0  0
  2  1  1  0
  3  2  1  0
  3  4  1  6
  5  6  2  0
  5  3  1  0
  7  8  1  0
  8  9  2  0
 10  8  1  0
 11 10  1  1
 11 13  1  0
 11 12  1  0
 12  5  1  0
 13 15  1  0
 14 13  2  0
 16 15  1  0
 16 17  1  0
 17 18  2  0
 17 19  1  0
M  END
$$$$
