SNG.pdb
     RDKit          3D

 19 18  0  0  1  0  0  0  0  0999 V2000
    7.2441  -19.2988   16.6152 O   0  0  0  0  0  0  0  0  0  0  0  0
    7.6603  -18.1028   17.1827 C   0  0  0  0  0  0  0  0  0  0  0  0
    8.2771  -18.3079   18.5578 C   0  0  2  0  0  0  0  0  0  0  0  0
    7.2939  -18.7268   19.5360 N   0  0  0  0  0  0  0  0  0  0  0  0
    9.0179  -17.1085   18.9996 C   0  0  0  0  0  0  0  0  0  0  0  0
    9.9202  -16.6108   18.2882 O   0  0  0  0  0  0  0  0  0  0  0  0
    6.4845  -13.2421   20.0266 N   0  0  0  0  0  0  0  0  0  0  0  0
    7.8227  -13.6703   19.9213 C   0  0  0  0  0  0  0  0  0  0  0  0
    8.3810  -13.5811   18.8048 O   0  0  0  0  0  0  0  0  0  0  0  0
    8.5281  -14.2050   21.1015 C   0  0  0  0  0  0  0  0  0  0  0  0
    9.4931  -15.2743   20.6519 C   0  0  2  0  0  0  0  0  0  0  0  0
    8.7497  -16.4530   20.2536 N   0  0  0  0  0  0  0  0  0  0  0  0
   10.4373  -15.5638   21.7612 C   0  0  0  0  0  0  0  0  0  0  0  0
   11.1385  -14.6853   22.3250 O   0  0  0  0  0  0  0  0  0  0  0  0
   10.5316  -16.9255   22.1889 N   0  0  0  0  0  0  0  0  0  0  0  0
   11.5139  -17.3649   23.1424 C   0  0  0  0  0  0  0  0  0  0  0  0
   10.9631  -17.3281   24.5200 C   0  0  0  0  0  0  0  0  0  0  0  0
    9.7850  -16.9402   24.7517 O   0  0  0  0  0  0  0  0  0  0  0  0
   11.7127  -17.7178   25.6248 O   0  0  0  0  0  0  0  0  0  0  0  0
  2  1  1  0
  3  2  1  0
  3  4  1  1
  5  6  2  0
  5  3  1  0
  7  8  1  0
  8  9  2  0
 10  8  1  0
 11 10  1  1
 11 13  1  0
 11 12  1  0
 12  5  1  0
 13 15  1  0
 14 13  2  0
 16 15  1  0
 16 17  1  0
 17 18  2  0
 17 19  1  0
M  END
$$$$
