SNG.pdb
     RDKit          3D

 19 18  0  0  1  0  0  0  0  0999 V2000
   12.2343  -17.9675   17.7507 O   0  0  0  0  0  0  0  0  0  0  0  0
   10.8662  -17.9982   17.5208 C   0  0  0  0  0  0  0  0  0  0  0  0
   10.3295  -16.6421   17.0889 C   0  0  2  0  0  0  0  0  0  0  0  0
   11.0321  -16.1243   15.9326 N   0  0  0  0  0  0  0  0  0  0  0  0
   10.3305  -15.6809   18.2108 C   0  0  0  0  0  0  0  0  0  0  0  0
   11.1643  -14.7479   18.2584 O   0  0  0  0  0  0  0  0  0  0  0  0
    7.4553  -12.3772   18.9003 N   0  0  0  0  0  0  0  0  0  0  0  0
    7.4264  -13.7568   19.1850 C   0  0  0  0  0  0  0  0  0  0  0  0
    6.9754  -14.5274   18.3081 O   0  0  0  0  0  0  0  0  0  0  0  0
    7.9167  -14.2595   20.4824 C   0  0  0  0  0  0  0  0  0  0  0  0
    9.3401  -14.7322   20.3178 C   0  0  2  0  0  0  0  0  0  0  0  0
    9.3880  -15.7599   19.2969 N   0  0  0  0  0  0  0  0  0  0  0  0
    9.8338  -15.2292   21.6274 C   0  0  0  0  0  0  0  0  0  0  0  0
    9.8044  -14.5499   22.6851 O   0  0  0  0  0  0  0  0  0  0  0  0
   10.3658  -16.5567   21.6543 N   0  0  0  0  0  0  0  0  0  0  0  0
   10.8978  -17.1469   22.8525 C   0  0  0  0  0  0  0  0  0  0  0  0
   12.2760  -16.6609   23.1113 C   0  0  0  0  0  0  0  0  0  0  0  0
   13.2079  -16.8396   22.2796 O   0  0  0  0  0  0  0  0  0  0  0  0
   12.6128  -15.9853   24.2794 O   0  0  0  0  0  0  0  0  0  0  0  0
  2  1  1  0
  3  2  1  0
  3  4  1  6
  5  6  2  0
  5  3  1  0
  7  8  1  0
  8  9  2  0
 10  8  1  0
 11 10  1  1
 11 13  1  0
 11 12  1  0
 12  5  1  0
 13 15  1  0
 14 13  2  0
 16 15  1  0
 16 17  1  0
 17 18  2  0
 17 19  1  0
M  END
$$$$
