WFC.pdb
     RDKit          3D

 32 34  0  0  1  0  0  0  0  0999 V2000
   28.6326  -20.7246  -14.4162 N   0  0  0  0  0  0  0  0  0  0  0  0
   27.4606  -19.9730  -14.0202 C   0  0  1  0  0  0  0  0  0  0  0  0
   26.6370  -19.7134  -15.2606 C   0  0  0  0  0  0  0  0  0  0  0  0
   27.2617  -18.6601  -16.1184 C   0  0  0  0  0  0  0  0  0  0  0  0
   27.8375  -18.8025  -17.3474 C   0  0  0  0  0  0  0  0  0  0  0  0
   28.2636  -17.5904  -17.7388 N   0  0  0  0  0  0  0  0  0  0  0  0
   27.9822  -16.6616  -16.8005 C   0  0  0  0  0  0  0  0  0  0  0  0
   28.2219  -15.2899  -16.7479 C   0  0  0  0  0  0  0  0  0  0  0  0
   27.8258  -14.5572  -15.6515 C   0  0  0  0  0  0  0  0  0  0  0  0
   27.1927  -15.2223  -14.6233 C   0  0  0  0  0  0  0  0  0  0  0  0
   26.9567  -16.5864  -14.6804 C   0  0  0  0  0  0  0  0  0  0  0  0
   27.3502  -17.3338  -15.7773 C   0  0  0  0  0  0  0  0  0  0  0  0
   26.6521  -20.7684  -13.0802 C   0  0  0  0  0  0  0  0  0  0  0  0
   26.5581  -22.0216  -13.1914 O   0  0  0  0  0  0  0  0  0  0  0  0
   25.9477  -20.1590  -12.0141 N   0  0  0  0  0  0  0  0  0  0  0  0
   24.9452  -20.8709  -11.2390 C   0  0  1  0  0  0  0  0  0  0  0  0
   24.7251  -20.1010   -9.9632 C   0  0  0  0  0  0  0  0  0  0  0  0
   25.8005  -20.2368   -8.9775 C   0  0  0  0  0  0  0  0  0  0  0  0
   26.0701  -21.3700   -8.2397 C   0  0  0  0  0  0  0  0  0  0  0  0
   27.1183  -21.3979   -7.3237 C   0  0  0  0  0  0  0  0  0  0  0  0
   27.9111  -20.2861   -7.1361 C   0  0  0  0  0  0  0  0  0  0  0  0
   27.6563  -19.1425   -7.8660 C   0  0  0  0  0  0  0  0  0  0  0  0
   26.6178  -19.1468   -8.7592 C   0  0  0  0  0  0  0  0  0  0  0  0
   23.6745  -20.8189  -12.0271 C   0  0  0  0  0  0  0  0  0  0  0  0
   23.4293  -19.8941  -12.8371 O   0  0  0  0  0  0  0  0  0  0  0  0
   22.6784  -21.8490  -11.8747 N   0  0  0  0  0  0  0  0  0  0  0  0
   21.4659  -21.8891  -12.6315 C   0  0  1  0  0  0  0  0  0  0  0  0
   21.3214  -23.2641  -13.2310 C   0  0  0  0  0  0  0  0  0  0  0  0
   19.7077  -23.4631  -14.0296 S   0  0  0  0  0  0  0  0  0  0  0  0
   20.2860  -21.5291  -11.7987 C   0  0  0  0  0  0  0  0  0  0  0  0
   19.1585  -21.0245  -12.3810 O   0  0  0  0  0  0  0  0  0  0  0  0
   20.3520  -21.6977  -10.5710 O   0  0  0  0  0  0  0  0  0  0  0  0
  2  1  1  6
  3  2  1  0
  4  3  1  0
  4  5  2  0
  6  5  1  0
  7  6  1  0
  8  7  2  0
  9  8  1  0
 10  9  2  0
 10 11  1  0
 11 12  2  0
 12  7  1  0
 12  4  1  0
 13  2  1  0
 13 14  2  0
 15 16  1  0
 15 13  1  0
 16 17  1  1
 18 17  1  0
 19 18  2  0
 20 19  1  0
 21 20  2  0
 21 22  1  0
 22 23  2  0
 23 18  1  0
 24 16  1  0
 25 24  2  0
 26 24  1  0
 27 26  1  0
 27 30  1  0
 27 28  1  1
 29 28  1  0
 30 31  1  0
 32 30  2  0
M  END
$$$$
