WFC.pdb
     RDKit          3D

 32 34  0  0  1  0  0  0  0  0999 V2000
   21.2417  -19.8627  -12.4765 N   0  0  0  0  0  0  0  0  0  0  0  0
   22.0736  -20.8091  -13.1890 C   0  0  1  0  0  0  0  0  0  0  0  0
   21.6434  -20.8034  -14.6379 C   0  0  0  0  0  0  0  0  0  0  0  0
   20.1875  -21.1147  -14.7749 C   0  0  0  0  0  0  0  0  0  0  0  0
   19.1745  -20.2763  -15.1403 C   0  0  0  0  0  0  0  0  0  0  0  0
   18.0352  -20.9873  -15.1281 N   0  0  0  0  0  0  0  0  0  0  0  0
   18.2757  -22.2651  -14.7654 C   0  0  0  0  0  0  0  0  0  0  0  0
   17.4316  -23.3628  -14.6096 C   0  0  0  0  0  0  0  0  0  0  0  0
   17.9413  -24.5815  -14.2213 C   0  0  0  0  0  0  0  0  0  0  0  0
   19.2983  -24.6728  -13.9958 C   0  0  0  0  0  0  0  0  0  0  0  0
   20.1334  -23.5785  -14.1520 C   0  0  0  0  0  0  0  0  0  0  0  0
   19.6327  -22.3481  -14.5420 C   0  0  0  0  0  0  0  0  0  0  0  0
   23.4829  -20.3865  -13.1181 C   0  0  0  0  0  0  0  0  0  0  0  0
   23.8127  -19.1748  -13.2387 O   0  0  0  0  0  0  0  0  0  0  0  0
   24.5246  -21.3229  -12.9118 N   0  0  0  0  0  0  0  0  0  0  0  0
   25.9272  -20.9438  -12.9473 C   0  0  1  0  0  0  0  0  0  0  0  0
   26.5883  -21.5311  -11.7279 C   0  0  0  0  0  0  0  0  0  0  0  0
   26.2135  -20.8905  -10.4647 C   0  0  0  0  0  0  0  0  0  0  0  0
   26.6830  -19.6746  -10.0150 C   0  0  0  0  0  0  0  0  0  0  0  0
   26.2650  -19.1504   -8.7947 C   0  0  0  0  0  0  0  0  0  0  0  0
   25.3683  -19.8415   -8.0085 C   0  0  0  0  0  0  0  0  0  0  0  0
   24.8874  -21.0604   -8.4425 C   0  0  0  0  0  0  0  0  0  0  0  0
   25.3179  -21.5491   -9.6476 C   0  0  0  0  0  0  0  0  0  0  0  0
   26.5218  -21.6050  -14.1506 C   0  0  0  0  0  0  0  0  0  0  0  0
   26.2609  -22.7924  -14.4564 O   0  0  0  0  0  0  0  0  0  0  0  0
   27.4277  -20.8827  -15.0075 N   0  0  0  0  0  0  0  0  0  0  0  0
   27.3039  -20.8473  -16.4315 C   0  0  1  0  0  0  0  0  0  0  0  0
   25.8929  -20.4483  -16.7793 C   0  0  0  0  0  0  0  0  0  0  0  0
   25.6503  -20.3999  -18.5737 S   0  0  0  0  0  0  0  0  0  0  0  0
   28.2994  -19.9278  -17.0470 C   0  0  0  0  0  0  0  0  0  0  0  0
   29.0984  -20.3589  -18.0672 O   0  0  0  0  0  0  0  0  0  0  0  0
   28.3846  -18.7683  -16.6132 O   0  0  0  0  0  0  0  0  0  0  0  0
  2  1  1  1
  3  2  1  0
  4  3  1  0
  4  5  2  0
  6  5  1  0
  7  6  1  0
  8  7  2  0
  9  8  1  0
 10  9  2  0
 10 11  1  0
 11 12  2  0
 12  7  1  0
 12  4  1  0
 13  2  1  0
 13 14  2  0
 15 16  1  0
 15 13  1  0
 16 17  1  1
 18 17  1  0
 19 18  2  0
 20 19  1  0
 21 20  2  0
 21 22  1  0
 22 23  2  0
 23 18  1  0
 24 16  1  0
 25 24  2  0
 26 24  1  0
 27 26  1  0
 27 30  1  0
 27 28  1  1
 29 28  1  0
 30 31  1  0
 32 30  2  0
M  END
$$$$
