WFC.pdb
     RDKit          3D

 32 34  0  0  1  0  0  0  0  0999 V2000
   26.2747  -21.9215  -13.1549 N   0  0  0  0  0  0  0  0  0  0  0  0
   26.7180  -20.7763  -12.3885 C   0  0  1  0  0  0  0  0  0  0  0  0
   25.7519  -19.6436  -12.6492 C   0  0  0  0  0  0  0  0  0  0  0  0
   25.8972  -19.1130  -14.0395 C   0  0  0  0  0  0  0  0  0  0  0  0
   24.9131  -18.7863  -14.9268 C   0  0  0  0  0  0  0  0  0  0  0  0
   25.5075  -18.3521  -16.0501 N   0  0  0  0  0  0  0  0  0  0  0  0
   26.8509  -18.3862  -15.9211 C   0  0  0  0  0  0  0  0  0  0  0  0
   27.8787  -18.0420  -16.7968 C   0  0  0  0  0  0  0  0  0  0  0  0
   29.1937  -18.1749  -16.4108 C   0  0  0  0  0  0  0  0  0  0  0  0
   29.4507  -18.6542  -15.1441 C   0  0  0  0  0  0  0  0  0  0  0  0
   28.4252  -18.9950  -14.2771 C   0  0  0  0  0  0  0  0  0  0  0  0
   27.0992  -18.8658  -14.6536 C   0  0  0  0  0  0  0  0  0  0  0  0
   26.6868  -21.0959  -10.9509 C   0  0  0  0  0  0  0  0  0  0  0  0
   26.1247  -22.1407  -10.5218 O   0  0  0  0  0  0  0  0  0  0  0  0
   27.2861  -20.2436   -9.9924 N   0  0  0  0  0  0  0  0  0  0  0  0
   27.2768  -20.5467   -8.5709 C   0  0  1  0  0  0  0  0  0  0  0  0
   28.2334  -19.5981   -7.8971 C   0  0  0  0  0  0  0  0  0  0  0  0
   28.2291  -19.6673   -6.4336 C   0  0  0  0  0  0  0  0  0  0  0  0
   27.7110  -18.7078   -5.5897 C   0  0  0  0  0  0  0  0  0  0  0  0
   27.7570  -18.8672   -4.2073 C   0  0  0  0  0  0  0  0  0  0  0  0
   28.3248  -19.9943   -3.6531 C   0  0  0  0  0  0  0  0  0  0  0  0
   28.8485  -20.9656   -4.4824 C   0  0  0  0  0  0  0  0  0  0  0  0
   28.7879  -20.7793   -5.8381 C   0  0  0  0  0  0  0  0  0  0  0  0
   25.9006  -20.2355   -8.0731 C   0  0  0  0  0  0  0  0  0  0  0  0
   25.2390  -19.2624   -8.5056 O   0  0  0  0  0  0  0  0  0  0  0  0
   25.2854  -21.0602   -7.0642 N   0  0  0  0  0  0  0  0  0  0  0  0
   23.9103  -20.9496   -6.6886 C   0  0  1  0  0  0  0  0  0  0  0  0
   23.0589  -21.2695   -7.8901 C   0  0  0  0  0  0  0  0  0  0  0  0
   21.3023  -21.3240   -7.4514 S   0  0  0  0  0  0  0  0  0  0  0  0
   23.5827  -21.8324   -5.5359 C   0  0  0  0  0  0  0  0  0  0  0  0
   22.5643  -21.5079   -4.6858 O   0  0  0  0  0  0  0  0  0  0  0  0
   24.2531  -22.8630   -5.3678 O   0  0  0  0  0  0  0  0  0  0  0  0
  2  1  1  6
  3  2  1  0
  4  3  1  0
  4  5  2  0
  6  5  1  0
  7  6  1  0
  8  7  2  0
  9  8  1  0
 10  9  2  0
 10 11  1  0
 11 12  2  0
 12  7  1  0
 12  4  1  0
 13  2  1  0
 13 14  2  0
 15 16  1  0
 15 13  1  0
 16 17  1  1
 18 17  1  0
 19 18  2  0
 20 19  1  0
 21 20  2  0
 21 22  1  0
 22 23  2  0
 23 18  1  0
 24 16  1  0
 25 24  2  0
 26 24  1  0
 27 26  1  0
 27 30  1  0
 27 28  1  6
 29 28  1  0
 30 31  1  0
 32 30  2  0
M  END
$$$$
