WFC.pdb
     RDKit          3D

 32 34  0  0  1  0  0  0  0  0999 V2000
   27.9620  -20.7891  -16.4440 N   0  0  0  0  0  0  0  0  0  0  0  0
   26.9151  -20.2082  -15.6304 C   0  0  1  0  0  0  0  0  0  0  0  0
   26.1274  -19.2565  -16.5011 C   0  0  0  0  0  0  0  0  0  0  0  0
   26.9213  -18.0320  -16.8262 C   0  0  0  0  0  0  0  0  0  0  0  0
   27.6741  -17.7827  -17.9369 C   0  0  0  0  0  0  0  0  0  0  0  0
   28.2064  -16.5574  -17.7997 N   0  0  0  0  0  0  0  0  0  0  0  0
   27.8226  -16.0002  -16.6315 C   0  0  0  0  0  0  0  0  0  0  0  0
   28.1089  -14.7664  -16.0507 C   0  0  0  0  0  0  0  0  0  0  0  0
   27.5791  -14.4367  -14.8234 C   0  0  0  0  0  0  0  0  0  0  0  0
   26.7668  -15.3600  -14.2004 C   0  0  0  0  0  0  0  0  0  0  0  0
   26.4851  -16.5855  -14.7821 C   0  0  0  0  0  0  0  0  0  0  0  0
   27.0118  -16.9284  -16.0156 C   0  0  0  0  0  0  0  0  0  0  0  0
   26.0077  -21.2666  -15.1549 C   0  0  0  0  0  0  0  0  0  0  0  0
   25.7563  -22.2825  -15.8595 O   0  0  0  0  0  0  0  0  0  0  0  0
   25.3808  -21.1869  -13.8880 N   0  0  0  0  0  0  0  0  0  0  0  0
   24.3983  -22.1623  -13.4456 C   0  0  1  0  0  0  0  0  0  0  0  0
   24.8122  -22.6367  -12.0772 C   0  0  0  0  0  0  0  0  0  0  0  0
   25.3584  -21.5899  -11.2098 C   0  0  0  0  0  0  0  0  0  0  0  0
   24.6252  -20.8054  -10.3449 C   0  0  0  0  0  0  0  0  0  0  0  0
   25.2403  -19.8328   -9.5612 C   0  0  0  0  0  0  0  0  0  0  0  0
   26.6024  -19.6349   -9.6357 C   0  0  0  0  0  0  0  0  0  0  0  0
   27.3527  -20.4109  -10.4960 C   0  0  0  0  0  0  0  0  0  0  0  0
   26.7180  -21.3593  -11.2537 C   0  0  0  0  0  0  0  0  0  0  0  0
   23.1008  -21.4315  -13.3009 C   0  0  0  0  0  0  0  0  0  0  0  0
   23.0314  -20.2911  -12.7847 O   0  0  0  0  0  0  0  0  0  0  0  0
   21.8717  -22.0283  -13.7589 N   0  0  0  0  0  0  0  0  0  0  0  0
   20.5891  -21.4212  -13.5836 C   0  0  1  0  0  0  0  0  0  0  0  0
   19.9061  -21.3499  -14.9249 C   0  0  0  0  0  0  0  0  0  0  0  0
   20.9847  -20.5943  -16.1688 S   0  0  0  0  0  0  0  0  0  0  0  0
   19.7636  -22.1583  -12.5884 C   0  0  0  0  0  0  0  0  0  0  0  0
   18.7123  -21.5420  -11.9720 O   0  0  0  0  0  0  0  0  0  0  0  0
   20.0524  -23.3382  -12.3345 O   0  0  0  0  0  0  0  0  0  0  0  0
  2  1  1  6
  3  2  1  0
  4  3  1  0
  4  5  2  0
  6  5  1  0
  7  6  1  0
  8  7  2  0
  9  8  1  0
 10  9  2  0
 10 11  1  0
 11 12  2  0
 12  7  1  0
 12  4  1  0
 13  2  1  0
 13 14  2  0
 15 16  1  0
 15 13  1  0
 16 17  1  1
 18 17  1  0
 19 18  2  0
 20 19  1  0
 21 20  2  0
 21 22  1  0
 22 23  2  0
 23 18  1  0
 24 16  1  0
 25 24  2  0
 26 24  1  0
 27 26  1  0
 27 30  1  0
 27 28  1  6
 29 28  1  0
 30 31  1  0
 32 30  2  0
M  END
$$$$
