WFC.pdb
     RDKit          3D

 32 34  0  0  1  0  0  0  0  0999 V2000
   26.6443  -21.7107  -13.4170 N   0  0  0  0  0  0  0  0  0  0  0  0
   26.7023  -20.5703  -12.5273 C   0  0  1  0  0  0  0  0  0  0  0  0
   25.4377  -19.7662  -12.7235 C   0  0  0  0  0  0  0  0  0  0  0  0
   25.3188  -19.2728  -14.1299 C   0  0  0  0  0  0  0  0  0  0  0  0
   24.3598  -19.5736  -15.0530 C   0  0  0  0  0  0  0  0  0  0  0  0
   24.6547  -18.9019  -16.1780 N   0  0  0  0  0  0  0  0  0  0  0  0
   25.7784  -18.1717  -16.0153 C   0  0  0  0  0  0  0  0  0  0  0  0
   26.4716  -17.3259  -16.8788 C   0  0  0  0  0  0  0  0  0  0  0  0
   27.6165  -16.6884  -16.4562 C   0  0  0  0  0  0  0  0  0  0  0  0
   28.0443  -16.9155  -15.1655 C   0  0  0  0  0  0  0  0  0  0  0  0
   27.3515  -17.7574  -14.3107 C   0  0  0  0  0  0  0  0  0  0  0  0
   26.1993  -18.4039  -14.7241 C   0  0  0  0  0  0  0  0  0  0  0  0
   26.7516  -21.0306  -11.1290 C   0  0  0  0  0  0  0  0  0  0  0  0
   26.2401  -22.1300  -10.7804 O   0  0  0  0  0  0  0  0  0  0  0  0
   27.3746  -20.2581  -10.1193 N   0  0  0  0  0  0  0  0  0  0  0  0
   27.2769  -20.5991   -8.7098 C   0  0  1  0  0  0  0  0  0  0  0  0
   28.2785  -19.7544   -7.9667 C   0  0  0  0  0  0  0  0  0  0  0  0
   28.2504  -19.9171   -6.5110 C   0  0  0  0  0  0  0  0  0  0  0  0
   28.7217  -21.0133   -5.8200 C   0  0  0  0  0  0  0  0  0  0  0  0
   28.6478  -21.0725   -4.4309 C   0  0  0  0  0  0  0  0  0  0  0  0
   28.0987  -20.0298   -3.7160 C   0  0  0  0  0  0  0  0  0  0  0  0
   27.6217  -18.9241   -4.3908 C   0  0  0  0  0  0  0  0  0  0  0  0
   27.7088  -18.8961   -5.7575 C   0  0  0  0  0  0  0  0  0  0  0  0
   25.9107  -20.1865   -8.2604 C   0  0  0  0  0  0  0  0  0  0  0  0
   25.4513  -19.0423   -8.4871 O   0  0  0  0  0  0  0  0  0  0  0  0
   25.0691  -21.1091   -7.5414 N   0  0  0  0  0  0  0  0  0  0  0  0
   23.7518  -20.7844   -7.0902 C   0  0  1  0  0  0  0  0  0  0  0  0
   22.8762  -20.5558   -8.2951 C   0  0  0  0  0  0  0  0  0  0  0  0
   23.2039  -21.7851   -9.5847 S   0  0  0  0  0  0  0  0  0  0  0  0
   23.1972  -21.8447   -6.2049 C   0  0  0  0  0  0  0  0  0  0  0  0
   21.9383  -21.7245   -5.6895 O   0  0  0  0  0  0  0  0  0  0  0  0
   23.9022  -22.8332   -5.9487 O   0  0  0  0  0  0  0  0  0  0  0  0
  2  1  1  6
  3  2  1  0
  4  3  1  0
  4  5  2  0
  6  5  1  0
  7  6  1  0
  8  7  2  0
  9  8  1  0
 10  9  2  0
 10 11  1  0
 11 12  2  0
 12  7  1  0
 12  4  1  0
 13  2  1  0
 13 14  2  0
 15 16  1  0
 15 13  1  0
 16 17  1  1
 18 17  1  0
 19 18  2  0
 20 19  1  0
 21 20  2  0
 21 22  1  0
 22 23  2  0
 23 18  1  0
 24 16  1  0
 25 24  2  0
 26 24  1  0
 27 26  1  0
 27 30  1  0
 27 28  1  6
 29 28  1  0
 30 31  1  0
 32 30  2  0
M  END
$$$$
