WFC.pdb
     RDKit          3D

 32 34  0  0  1  0  0  0  0  0999 V2000
   28.8458  -20.8710  -14.4467 N   0  0  0  0  0  0  0  0  0  0  0  0
   27.8272  -20.0195  -13.8697 C   0  0  1  0  0  0  0  0  0  0  0  0
   27.0360  -19.4112  -15.0047 C   0  0  0  0  0  0  0  0  0  0  0  0
   27.8137  -18.3381  -15.6969 C   0  0  0  0  0  0  0  0  0  0  0  0
   28.8746  -18.4757  -16.5443 C   0  0  0  0  0  0  0  0  0  0  0  0
   29.2527  -17.2443  -16.9241 N   0  0  0  0  0  0  0  0  0  0  0  0
   28.4692  -16.3075  -16.3490 C   0  0  0  0  0  0  0  0  0  0  0  0
   28.4683  -14.9165  -16.4319 C   0  0  0  0  0  0  0  0  0  0  0  0
   27.5421  -14.1793  -15.7287 C   0  0  0  0  0  0  0  0  0  0  0  0
   26.6294  -14.8597  -14.9512 C   0  0  0  0  0  0  0  0  0  0  0  0
   26.6344  -16.2429  -14.8721 C   0  0  0  0  0  0  0  0  0  0  0  0
   27.5606  -16.9949  -15.5743 C   0  0  0  0  0  0  0  0  0  0  0  0
   26.9134  -20.8256  -13.0421 C   0  0  0  0  0  0  0  0  0  0  0  0
   26.6868  -22.0388  -13.3040 O   0  0  0  0  0  0  0  0  0  0  0  0
   26.2522  -20.2718  -11.9194 N   0  0  0  0  0  0  0  0  0  0  0  0
   25.2715  -21.0190  -11.1498 C   0  0  1  0  0  0  0  0  0  0  0  0
   25.2252  -20.4205   -9.7683 C   0  0  0  0  0  0  0  0  0  0  0  0
   26.4952  -20.4729   -9.0398 C   0  0  0  0  0  0  0  0  0  0  0  0
   27.4678  -21.4375   -9.1973 C   0  0  0  0  0  0  0  0  0  0  0  0
   28.6441  -21.3993   -8.4534 C   0  0  0  0  0  0  0  0  0  0  0  0
   28.8597  -20.3899   -7.5399 C   0  0  0  0  0  0  0  0  0  0  0  0
   27.8973  -19.4154   -7.3687 C   0  0  0  0  0  0  0  0  0  0  0  0
   26.7509  -19.4810   -8.1155 C   0  0  0  0  0  0  0  0  0  0  0  0
   23.9432  -20.7781  -11.7951 C   0  0  0  0  0  0  0  0  0  0  0  0
   23.5504  -19.6283  -12.1039 O   0  0  0  0  0  0  0  0  0  0  0  0
   23.0618  -21.8806  -12.0851 N   0  0  0  0  0  0  0  0  0  0  0  0
   21.8345  -21.7384  -12.8046 C   0  0  1  0  0  0  0  0  0  0  0  0
   21.7702  -22.8138  -13.8583 C   0  0  0  0  0  0  0  0  0  0  0  0
   22.1711  -24.4371  -13.1614 S   0  0  0  0  0  0  0  0  0  0  0  0
   20.6560  -21.7913  -11.8970 C   0  0  0  0  0  0  0  0  0  0  0  0
   19.4015  -21.5510  -12.3803 O   0  0  0  0  0  0  0  0  0  0  0  0
   20.8405  -22.0572  -10.6991 O   0  0  0  0  0  0  0  0  0  0  0  0
  2  1  1  6
  3  2  1  0
  4  3  1  0
  4  5  2  0
  6  5  1  0
  7  6  1  0
  8  7  2  0
  9  8  1  0
 10  9  2  0
 10 11  1  0
 11 12  2  0
 12  7  1  0
 12  4  1  0
 13  2  1  0
 13 14  2  0
 15 16  1  0
 15 13  1  0
 16 17  1  1
 18 17  1  0
 19 18  2  0
 20 19  1  0
 21 20  2  0
 21 22  1  0
 22 23  2  0
 23 18  1  0
 24 16  1  0
 25 24  2  0
 26 24  1  0
 27 26  1  0
 27 30  1  0
 27 28  1  6
 29 28  1  0
 30 31  1  0
 32 30  2  0
M  END
$$$$
