WFC.pdb
     RDKit          3D

 32 34  0  0  1  0  0  0  0  0999 V2000
   27.7033  -20.8866   -8.5372 N   0  0  0  0  0  0  0  0  0  0  0  0
   26.2778  -20.6404   -8.5898 C   0  0  1  0  0  0  0  0  0  0  0  0
   25.9618  -19.5413   -7.6016 C   0  0  0  0  0  0  0  0  0  0  0  0
   27.1671  -19.1665   -6.8001 C   0  0  0  0  0  0  0  0  0  0  0  0
   27.9987  -18.0985   -6.9733 C   0  0  0  0  0  0  0  0  0  0  0  0
   28.9449  -18.1626   -6.0222 N   0  0  0  0  0  0  0  0  0  0  0  0
   28.7543  -19.2417   -5.2338 C   0  0  0  0  0  0  0  0  0  0  0  0
   29.4592  -19.7265   -4.1340 C   0  0  0  0  0  0  0  0  0  0  0  0
   29.0462  -20.8742   -3.4951 C   0  0  0  0  0  0  0  0  0  0  0  0
   27.9254  -21.5155   -3.9779 C   0  0  0  0  0  0  0  0  0  0  0  0
   27.2280  -21.0294   -5.0718 C   0  0  0  0  0  0  0  0  0  0  0  0
   27.6334  -19.8766   -5.7224 C   0  0  0  0  0  0  0  0  0  0  0  0
   25.9005  -20.1803   -9.9372 C   0  0  0  0  0  0  0  0  0  0  0  0
   26.3141  -19.0802  -10.3960 O   0  0  0  0  0  0  0  0  0  0  0  0
   25.0583  -20.9536  -10.7722 N   0  0  0  0  0  0  0  0  0  0  0  0
   24.9062  -20.6769  -12.1909 C   0  0  1  0  0  0  0  0  0  0  0  0
   25.8367  -21.5974  -12.9364 C   0  0  0  0  0  0  0  0  0  0  0  0
   27.2419  -21.1830  -12.9234 C   0  0  0  0  0  0  0  0  0  0  0  0
   27.7961  -20.2116  -13.7300 C   0  0  0  0  0  0  0  0  0  0  0  0
   29.1480  -19.8904  -13.6416 C   0  0  0  0  0  0  0  0  0  0  0  0
   29.9627  -20.5417  -12.7404 C   0  0  0  0  0  0  0  0  0  0  0  0
   29.4253  -21.5170  -11.9247 C   0  0  0  0  0  0  0  0  0  0  0  0
   28.0919  -21.8099  -12.0358 C   0  0  0  0  0  0  0  0  0  0  0  0
   23.5048  -21.0534  -12.5553 C   0  0  0  0  0  0  0  0  0  0  0  0
   22.9533  -22.0859  -12.1064 O   0  0  0  0  0  0  0  0  0  0  0  0
   22.7352  -20.2250  -13.4487 N   0  0  0  0  0  0  0  0  0  0  0  0
   21.3891  -20.5191  -13.8308 C   0  0  1  0  0  0  0  0  0  0  0  0
   20.5581  -19.2750  -13.6509 C   0  0  0  0  0  0  0  0  0  0  0  0
   21.4775  -17.7963  -14.1506 S   0  0  0  0  0  0  0  0  0  0  0  0
   21.3132  -21.0300  -15.2267 C   0  0  0  0  0  0  0  0  0  0  0  0
   22.4071  -20.9741  -16.0424 O   0  0  0  0  0  0  0  0  0  0  0  0
   20.2391  -21.5045  -15.6279 O   0  0  0  0  0  0  0  0  0  0  0  0
  2  1  1  6
  3  2  1  0
  4  3  1  0
  4  5  2  0
  6  5  1  0
  7  6  1  0
  8  7  2  0
  9  8  1  0
 10  9  2  0
 10 11  1  0
 11 12  2  0
 12  7  1  0
 12  4  1  0
 13  2  1  0
 13 14  2  0
 15 16  1  0
 15 13  1  0
 16 17  1  6
 18 17  1  0
 19 18  2  0
 20 19  1  0
 21 20  2  0
 21 22  1  0
 22 23  2  0
 23 18  1  0
 24 16  1  0
 25 24  2  0
 26 24  1  0
 27 26  1  0
 27 30  1  0
 27 28  1  6
 29 28  1  0
 30 31  1  0
 32 30  2  0
M  END
$$$$
