WFC.pdb
     RDKit          3D

 32 34  0  0  1  0  0  0  0  0999 V2000
   25.4192  -18.9457  -11.2657 N   0  0  0  0  0  0  0  0  0  0  0  0
   26.4382  -19.9365  -11.5403 C   0  0  1  0  0  0  0  0  0  0  0  0
   26.1590  -21.1402  -10.6700 C   0  0  0  0  0  0  0  0  0  0  0  0
   26.2262  -20.7897   -9.2180 C   0  0  0  0  0  0  0  0  0  0  0  0
   25.2005  -20.6960   -8.3227 C   0  0  0  0  0  0  0  0  0  0  0  0
   25.7282  -20.3555   -7.1355 N   0  0  0  0  0  0  0  0  0  0  0  0
   27.0684  -20.2243   -7.2307 C   0  0  0  0  0  0  0  0  0  0  0  0
   28.0398  -19.8902   -6.2893 C   0  0  0  0  0  0  0  0  0  0  0  0
   29.3660  -19.8234   -6.6533 C   0  0  0  0  0  0  0  0  0  0  0  0
   29.6912  -20.0956   -7.9650 C   0  0  0  0  0  0  0  0  0  0  0  0
   28.7216  -20.4274   -8.8974 C   0  0  0  0  0  0  0  0  0  0  0  0
   27.3850  -20.4977   -8.5435 C   0  0  0  0  0  0  0  0  0  0  0  0
   26.3622  -20.3521  -12.9514 C   0  0  0  0  0  0  0  0  0  0  0  0
   25.2951  -20.2361  -13.6144 O   0  0  0  0  0  0  0  0  0  0  0  0
   27.4834  -20.8989  -13.6210 N   0  0  0  0  0  0  0  0  0  0  0  0
   27.5629  -20.9703  -15.0705 C   0  0  1  0  0  0  0  0  0  0  0  0
   29.0173  -21.0988  -15.4407 C   0  0  0  0  0  0  0  0  0  0  0  0
   29.2671  -21.2746  -16.8737 C   0  0  0  0  0  0  0  0  0  0  0  0
   29.0048  -20.3384  -17.8514 C   0  0  0  0  0  0  0  0  0  0  0  0
   29.2779  -20.6033  -19.1907 C   0  0  0  0  0  0  0  0  0  0  0  0
   29.8191  -21.8140  -19.5666 C   0  0  0  0  0  0  0  0  0  0  0  0
   30.0884  -22.7635  -18.6015 C   0  0  0  0  0  0  0  0  0  0  0  0
   29.8083  -22.4726  -17.2926 C   0  0  0  0  0  0  0  0  0  0  0  0
   26.8759  -22.2356  -15.4777 C   0  0  0  0  0  0  0  0  0  0  0  0
   27.1887  -23.3495  -14.9951 O   0  0  0  0  0  0  0  0  0  0  0  0
   25.8162  -22.2092  -16.4539 N   0  0  0  0  0  0  0  0  0  0  0  0
   25.2339  -23.3884  -17.0149 C   0  0  1  0  0  0  0  0  0  0  0  0
   23.7415  -23.3264  -16.8155 C   0  0  0  0  0  0  0  0  0  0  0  0
   23.1948  -21.6301  -16.4912 S   0  0  0  0  0  0  0  0  0  0  0  0
   25.5872  -23.5456  -18.4522 C   0  0  0  0  0  0  0  0  0  0  0  0
   25.9168  -22.4548  -19.2049 O   0  0  0  0  0  0  0  0  0  0  0  0
   25.5749  -24.6840  -18.9457 O   0  0  0  0  0  0  0  0  0  0  0  0
  2  1  1  6
  3  2  1  0
  4  3  1  0
  4  5  2  0
  6  5  1  0
  7  6  1  0
  8  7  2  0
  9  8  1  0
 10  9  2  0
 10 11  1  0
 11 12  2  0
 12  7  1  0
 12  4  1  0
 13  2  1  0
 13 14  2  0
 15 16  1  0
 15 13  1  0
 16 17  1  1
 18 17  1  0
 19 18  2  0
 20 19  1  0
 21 20  2  0
 21 22  1  0
 22 23  2  0
 23 18  1  0
 24 16  1  0
 25 24  2  0
 26 24  1  0
 27 26  1  0
 27 30  1  0
 27 28  1  6
 29 28  1  0
 30 31  1  0
 32 30  2  0
M  END
$$$$
