WFC.pdb
     RDKit          3D

 32 34  0  0  1  0  0  0  0  0999 V2000
   14.2562  -15.6170    4.2232 N   0  0  0  0  0  0  0  0  0  0  0  0
   15.5735  -16.2022    4.0901 C   0  0  1  0  0  0  0  0  0  0  0  0
   16.3990  -15.7570    5.2752 C   0  0  0  0  0  0  0  0  0  0  0  0
   17.0891  -14.4592    5.0015 C   0  0  0  0  0  0  0  0  0  0  0  0
   16.9999  -13.2905    5.7004 C   0  0  0  0  0  0  0  0  0  0  0  0
   17.7924  -12.3927    5.0924 N   0  0  0  0  0  0  0  0  0  0  0  0
   18.3959  -12.9421    4.0172 C   0  0  0  0  0  0  0  0  0  0  0  0
   19.2908  -12.4207    3.0849 C   0  0  0  0  0  0  0  0  0  0  0  0
   19.7654  -13.2096    2.0611 C   0  0  0  0  0  0  0  0  0  0  0  0
   19.3280  -14.5153    1.9945 C   0  0  0  0  0  0  0  0  0  0  0  0
   18.4381  -15.0289    2.9238 C   0  0  0  0  0  0  0  0  0  0  0  0
   17.9539  -14.2457    3.9576 C   0  0  0  0  0  0  0  0  0  0  0  0
   15.4715  -17.6714    4.1166 C   0  0  0  0  0  0  0  0  0  0  0  0
   14.3968  -18.2501    4.4358 O   0  0  0  0  0  0  0  0  0  0  0  0
   16.5753  -18.4938    3.7853 N   0  0  0  0  0  0  0  0  0  0  0  0
   16.5077  -19.9444    3.8449 C   0  0  1  0  0  0  0  0  0  0  0  0
   17.3774  -20.4862    2.7408 C   0  0  0  0  0  0  0  0  0  0  0  0
   17.3790  -21.9470    2.6289 C   0  0  0  0  0  0  0  0  0  0  0  0
   16.3257  -22.7154    2.1802 C   0  0  0  0  0  0  0  0  0  0  0  0
   16.4266  -24.1024    2.1122 C   0  0  0  0  0  0  0  0  0  0  0  0
   17.5888  -24.7373    2.4946 C   0  0  0  0  0  0  0  0  0  0  0  0
   18.6538  -23.9844    2.9464 C   0  0  0  0  0  0  0  0  0  0  0  0
   18.5232  -22.6220    3.0016 C   0  0  0  0  0  0  0  0  0  0  0  0
   17.1202  -20.3510    5.1480 C   0  0  0  0  0  0  0  0  0  0  0  0
   18.1921  -19.8526    5.5656 O   0  0  0  0  0  0  0  0  0  0  0  0
   16.4841  -21.3450    5.9750 N   0  0  0  0  0  0  0  0  0  0  0  0
   17.0145  -21.7816    7.2290 C   0  0  1  0  0  0  0  0  0  0  0  0
   15.9108  -21.7444    8.2542 C   0  0  0  0  0  0  0  0  0  0  0  0
   15.4196  -20.0407    8.6251 S   0  0  0  0  0  0  0  0  0  0  0  0
   17.6206  -23.1372    7.1272 C   0  0  0  0  0  0  0  0  0  0  0  0
   17.4202  -23.9008    6.0128 O   0  0  0  0  0  0  0  0  0  0  0  0
   18.3073  -23.5533    8.0734 O   0  0  0  0  0  0  0  0  0  0  0  0
  2  1  1  1
  3  2  1  0
  4  3  1  0
  4  5  2  0
  6  5  1  0
  7  6  1  0
  8  7  2  0
  9  8  1  0
 10  9  2  0
 10 11  1  0
 11 12  2  0
 12  7  1  0
 12  4  1  0
 13  2  1  0
 13 14  2  0
 15 16  1  0
 15 13  1  0
 16 17  1  6
 18 17  1  0
 19 18  2  0
 20 19  1  0
 21 20  2  0
 21 22  1  0
 22 23  2  0
 23 18  1  0
 24 16  1  0
 25 24  2  0
 26 24  1  0
 27 26  1  0
 27 30  1  0
 27 28  1  1
 29 28  1  0
 30 31  1  0
 32 30  2  0
M  END
$$$$
