WFC.pdb
     RDKit          3D

 32 34  0  0  1  0  0  0  0  0999 V2000
   28.7778  -21.0564  -14.9917 N   0  0  0  0  0  0  0  0  0  0  0  0
   27.7069  -20.2299  -14.4763 C   0  0  1  0  0  0  0  0  0  0  0  0
   26.7883  -19.8924  -15.6280 C   0  0  0  0  0  0  0  0  0  0  0  0
   27.2928  -18.7156  -16.4002 C   0  0  0  0  0  0  0  0  0  0  0  0
   27.8370  -18.6959  -17.6515 C   0  0  0  0  0  0  0  0  0  0  0  0
   28.1459  -17.4210  -17.9394 N   0  0  0  0  0  0  0  0  0  0  0  0
   27.8189  -16.6086  -16.9121 C   0  0  0  0  0  0  0  0  0  0  0  0
   27.9436  -15.2317  -16.7386 C   0  0  0  0  0  0  0  0  0  0  0  0
   27.5242  -14.6381  -15.5691 C   0  0  0  0  0  0  0  0  0  0  0  0
   26.9843  -15.4459  -14.5912 C   0  0  0  0  0  0  0  0  0  0  0  0
   26.8624  -16.8146  -14.7686 C   0  0  0  0  0  0  0  0  0  0  0  0
   27.2805  -17.4229  -15.9398 C   0  0  0  0  0  0  0  0  0  0  0  0
   26.9377  -20.9810  -13.4694 C   0  0  0  0  0  0  0  0  0  0  0  0
   26.7266  -22.2187  -13.5923 O   0  0  0  0  0  0  0  0  0  0  0  0
   26.4040  -20.3445  -12.3229 N   0  0  0  0  0  0  0  0  0  0  0  0
   25.4443  -20.9979  -11.4486 C   0  0  1  0  0  0  0  0  0  0  0  0
   25.4474  -20.2587  -10.1362 C   0  0  0  0  0  0  0  0  0  0  0  0
   26.6332  -20.4938   -9.3084 C   0  0  0  0  0  0  0  0  0  0  0  0
   26.8613  -19.9445   -8.0645 C   0  0  0  0  0  0  0  0  0  0  0  0
   28.0252  -20.2304   -7.3558 C   0  0  0  0  0  0  0  0  0  0  0  0
   28.9772  -21.0732   -7.8880 C   0  0  0  0  0  0  0  0  0  0  0  0
   28.7661  -21.6325   -9.1321 C   0  0  0  0  0  0  0  0  0  0  0  0
   27.6110  -21.3316   -9.8041 C   0  0  0  0  0  0  0  0  0  0  0  0
   24.0971  -20.8122  -12.0725 C   0  0  0  0  0  0  0  0  0  0  0  0
   23.6931  -19.6928  -12.4665 O   0  0  0  0  0  0  0  0  0  0  0  0
   23.2097  -21.9350  -12.2412 N   0  0  0  0  0  0  0  0  0  0  0  0
   21.9019  -21.8258  -12.8088 C   0  0  1  0  0  0  0  0  0  0  0  0
   21.5748  -23.1194  -13.5091 C   0  0  0  0  0  0  0  0  0  0  0  0
   22.7851  -23.4853  -14.8062 S   0  0  0  0  0  0  0  0  0  0  0  0
   20.8820  -21.4889  -11.7784 C   0  0  0  0  0  0  0  0  0  0  0  0
   19.5740  -21.3188  -12.1321 O   0  0  0  0  0  0  0  0  0  0  0  0
   21.2473  -21.3674  -10.5987 O   0  0  0  0  0  0  0  0  0  0  0  0
  2  1  1  6
  3  2  1  0
  4  3  1  0
  4  5  2  0
  6  5  1  0
  7  6  1  0
  8  7  2  0
  9  8  1  0
 10  9  2  0
 10 11  1  0
 11 12  2  0
 12  7  1  0
 12  4  1  0
 13  2  1  0
 13 14  2  0
 15 16  1  0
 15 13  1  0
 16 17  1  1
 18 17  1  0
 19 18  2  0
 20 19  1  0
 21 20  2  0
 21 22  1  0
 22 23  2  0
 23 18  1  0
 24 16  1  0
 25 24  2  0
 26 24  1  0
 27 26  1  0
 27 30  1  0
 27 28  1  1
 29 28  1  0
 30 31  1  0
 32 30  2  0
M  END
$$$$
