WFC.pdb
     RDKit          3D

 32 34  0  0  1  0  0  0  0  0999 V2000
   28.0580  -21.0985  -13.7256 N   0  0  0  0  0  0  0  0  0  0  0  0
   27.1352  -20.1735  -13.1025 C   0  0  1  0  0  0  0  0  0  0  0  0
   26.0319  -19.8831  -14.0938 C   0  0  0  0  0  0  0  0  0  0  0  0
   26.5512  -19.1446  -15.2856 C   0  0  0  0  0  0  0  0  0  0  0  0
   26.7054  -19.6017  -16.5622 C   0  0  0  0  0  0  0  0  0  0  0  0
   27.2032  -18.5935  -17.2968 N   0  0  0  0  0  0  0  0  0  0  0  0
   27.3782  -17.4921  -16.5361 C   0  0  0  0  0  0  0  0  0  0  0  0
   27.8597  -16.2198  -16.8380 C   0  0  0  0  0  0  0  0  0  0  0  0
   27.9390  -15.2565  -15.8574 C   0  0  0  0  0  0  0  0  0  0  0  0
   27.5301  -15.5937  -14.5848 C   0  0  0  0  0  0  0  0  0  0  0  0
   27.0521  -16.8602  -14.2898 C   0  0  0  0  0  0  0  0  0  0  0  0
   26.9676  -17.8371  -15.2670 C   0  0  0  0  0  0  0  0  0  0  0  0
   26.5384  -20.7936  -11.9071 C   0  0  0  0  0  0  0  0  0  0  0  0
   26.3992  -22.0442  -11.8153 O   0  0  0  0  0  0  0  0  0  0  0  0
   26.0966  -20.0116  -10.8127 N   0  0  0  0  0  0  0  0  0  0  0  0
   25.3216  -20.5744   -9.7195 C   0  0  1  0  0  0  0  0  0  0  0  0
   25.4334  -19.6316   -8.5500 C   0  0  0  0  0  0  0  0  0  0  0  0
   26.6823  -19.7470   -7.7928 C   0  0  0  0  0  0  0  0  0  0  0  0
   27.4950  -18.6951   -7.4266 C   0  0  0  0  0  0  0  0  0  0  0  0
   28.6667  -18.9102   -6.7058 C   0  0  0  0  0  0  0  0  0  0  0  0
   29.0383  -20.1868   -6.3426 C   0  0  0  0  0  0  0  0  0  0  0  0
   28.2371  -21.2523   -6.7004 C   0  0  0  0  0  0  0  0  0  0  0  0
   27.0909  -21.0078   -7.4093 C   0  0  0  0  0  0  0  0  0  0  0  0
   23.8928  -20.5817  -10.1635 C   0  0  0  0  0  0  0  0  0  0  0  0
   23.5236  -20.0399  -11.2320 O   0  0  0  0  0  0  0  0  0  0  0  0
   22.8824  -21.2233   -9.3610 N   0  0  0  0  0  0  0  0  0  0  0  0
   21.5669  -21.5158   -9.8387 C   0  0  1  0  0  0  0  0  0  0  0  0
   21.6858  -22.3580  -11.0826 C   0  0  0  0  0  0  0  0  0  0  0  0
   20.0593  -22.9147  -11.6536 S   0  0  0  0  0  0  0  0  0  0  0  0
   20.7420  -22.1898   -8.7991 C   0  0  0  0  0  0  0  0  0  0  0  0
   21.3183  -23.0588   -7.9173 O   0  0  0  0  0  0  0  0  0  0  0  0
   19.5264  -21.9441   -8.7541 O   0  0  0  0  0  0  0  0  0  0  0  0
  2  1  1  6
  3  2  1  0
  4  3  1  0
  4  5  2  0
  6  5  1  0
  7  6  1  0
  8  7  2  0
  9  8  1  0
 10  9  2  0
 10 11  1  0
 11 12  2  0
 12  7  1  0
 12  4  1  0
 13  2  1  0
 13 14  2  0
 15 16  1  0
 15 13  1  0
 16 17  1  1
 18 17  1  0
 19 18  2  0
 20 19  1  0
 21 20  2  0
 21 22  1  0
 22 23  2  0
 23 18  1  0
 24 16  1  0
 25 24  2  0
 26 24  1  0
 27 26  1  0
 27 30  1  0
 27 28  1  6
 29 28  1  0
 30 31  1  0
 32 30  2  0
M  END
$$$$
