WFC.pdb
     RDKit          3D

 32 34  0  0  1  0  0  0  0  0999 V2000
   27.9588  -21.3617  -14.6992 N   0  0  0  0  0  0  0  0  0  0  0  0
   27.0982  -20.3441  -14.1341 C   0  0  1  0  0  0  0  0  0  0  0  0
   26.0980  -19.9439  -15.1941 C   0  0  0  0  0  0  0  0  0  0  0  0
   26.7344  -19.1018  -16.2531 C   0  0  0  0  0  0  0  0  0  0  0  0
   27.0118  -19.4370  -17.5466 C   0  0  0  0  0  0  0  0  0  0  0  0
   27.5828  -18.3698  -18.1287 N   0  0  0  0  0  0  0  0  0  0  0  0
   27.6858  -17.3483  -17.2522 C   0  0  0  0  0  0  0  0  0  0  0  0
   28.1988  -16.0592  -17.3819 C   0  0  0  0  0  0  0  0  0  0  0  0
   28.1846  -15.1949  -16.3102 C   0  0  0  0  0  0  0  0  0  0  0  0
   27.6514  -15.6467  -15.1219 C   0  0  0  0  0  0  0  0  0  0  0  0
   27.1426  -16.9293  -14.9981 C   0  0  0  0  0  0  0  0  0  0  0  0
   27.1513  -17.8074  -16.0683 C   0  0  0  0  0  0  0  0  0  0  0  0
   26.3636  -20.8954  -12.9825 C   0  0  0  0  0  0  0  0  0  0  0  0
   26.0676  -22.1200  -12.9167 O   0  0  0  0  0  0  0  0  0  0  0  0
   25.9598  -20.0735  -11.9028 N   0  0  0  0  0  0  0  0  0  0  0  0
   25.2195  -20.5942  -10.7656 C   0  0  1  0  0  0  0  0  0  0  0  0
   25.6038  -19.7776   -9.5597 C   0  0  0  0  0  0  0  0  0  0  0  0
   26.7854  -20.2671   -8.8450 C   0  0  0  0  0  0  0  0  0  0  0  0
   27.0400  -20.0841   -7.5023 C   0  0  0  0  0  0  0  0  0  0  0  0
   28.1971  -20.5894   -6.9156 C   0  0  0  0  0  0  0  0  0  0  0  0
   29.1156  -21.2864   -7.6709 C   0  0  0  0  0  0  0  0  0  0  0  0
   28.8775  -21.4794   -9.0168 C   0  0  0  0  0  0  0  0  0  0  0  0
   27.7299  -20.9700   -9.5642 C   0  0  0  0  0  0  0  0  0  0  0  0
   23.7709  -20.3427  -11.0430 C   0  0  0  0  0  0  0  0  0  0  0  0
   23.3657  -19.2720  -11.5540 O   0  0  0  0  0  0  0  0  0  0  0  0
   22.7825  -21.3419  -10.7249 N   0  0  0  0  0  0  0  0  0  0  0  0
   21.4744  -21.3661  -11.3017 C   0  0  1  0  0  0  0  0  0  0  0  0
   21.6133  -21.3748  -12.8022 C   0  0  0  0  0  0  0  0  0  0  0  0
   20.0033  -21.5785  -13.6070 S   0  0  0  0  0  0  0  0  0  0  0  0
   20.6826  -22.5305  -10.8193 C   0  0  0  0  0  0  0  0  0  0  0  0
   21.2451  -23.7739  -10.7682 O   0  0  0  0  0  0  0  0  0  0  0  0
   19.5072  -22.3446  -10.4675 O   0  0  0  0  0  0  0  0  0  0  0  0
  2  1  1  6
  3  2  1  0
  4  3  1  0
  4  5  2  0
  6  5  1  0
  7  6  1  0
  8  7  2  0
  9  8  1  0
 10  9  2  0
 10 11  1  0
 11 12  2  0
 12  7  1  0
 12  4  1  0
 13  2  1  0
 13 14  2  0
 15 16  1  0
 15 13  1  0
 16 17  1  1
 18 17  1  0
 19 18  2  0
 20 19  1  0
 21 20  2  0
 21 22  1  0
 22 23  2  0
 23 18  1  0
 24 16  1  0
 25 24  2  0
 26 24  1  0
 27 26  1  0
 27 30  1  0
 27 28  1  6
 29 28  1  0
 30 31  1  0
 32 30  2  0
M  END
$$$$
