WFC.pdb
     RDKit          3D

 32 34  0  0  1  0  0  0  0  0999 V2000
   26.2480  -21.8218  -12.5349 N   0  0  0  0  0  0  0  0  0  0  0  0
   26.1035  -20.6518  -11.6949 C   0  0  1  0  0  0  0  0  0  0  0  0
   24.6794  -20.1626  -11.8247 C   0  0  0  0  0  0  0  0  0  0  0  0
   24.4525  -19.4899  -13.1407 C   0  0  0  0  0  0  0  0  0  0  0  0
   23.2925  -19.3961  -13.8532 C   0  0  0  0  0  0  0  0  0  0  0  0
   23.5589  -18.7037  -14.9728 N   0  0  0  0  0  0  0  0  0  0  0  0
   24.8593  -18.3433  -15.0110 C   0  0  0  0  0  0  0  0  0  0  0  0
   25.5994  -17.6283  -15.9505 C   0  0  0  0  0  0  0  0  0  0  0  0
   26.9405  -17.3933  -15.7454 C   0  0  0  0  0  0  0  0  0  0  0  0
   27.5144  -17.8850  -14.5924 C   0  0  0  0  0  0  0  0  0  0  0  0
   26.7741  -18.5954  -13.6613 C   0  0  0  0  0  0  0  0  0  0  0  0
   25.4252  -18.8380  -13.8563 C   0  0  0  0  0  0  0  0  0  0  0  0
   26.3467  -21.0146  -10.2881 C   0  0  0  0  0  0  0  0  0  0  0  0
   26.0380  -22.1529   -9.8400 O   0  0  0  0  0  0  0  0  0  0  0  0
   26.9367  -20.1009   -9.3818 N   0  0  0  0  0  0  0  0  0  0  0  0
   27.2592  -20.4652   -8.0122 C   0  0  1  0  0  0  0  0  0  0  0  0
   28.2221  -19.4354   -7.4821 C   0  0  0  0  0  0  0  0  0  0  0  0
   28.6074  -19.6268   -6.0815 C   0  0  0  0  0  0  0  0  0  0  0  0
   29.3493  -20.6818   -5.5938 C   0  0  0  0  0  0  0  0  0  0  0  0
   29.6629  -20.7738   -4.2404 C   0  0  0  0  0  0  0  0  0  0  0  0
   29.2349  -19.8059   -3.3573 C   0  0  0  0  0  0  0  0  0  0  0  0
   28.4912  -18.7423   -3.8275 C   0  0  0  0  0  0  0  0  0  0  0  0
   28.1992  -18.6804   -5.1644 C   0  0  0  0  0  0  0  0  0  0  0  0
   25.9914  -20.3504   -7.2260 C   0  0  0  0  0  0  0  0  0  0  0  0
   25.1956  -19.3940   -7.3795 O   0  0  0  0  0  0  0  0  0  0  0  0
   25.6427  -21.3540   -6.2525 N   0  0  0  0  0  0  0  0  0  0  0  0
   24.4995  -21.2586   -5.3990 C   0  0  1  0  0  0  0  0  0  0  0  0
   23.8392  -22.6114   -5.3307 C   0  0  0  0  0  0  0  0  0  0  0  0
   23.8083  -23.4071   -6.9577 S   0  0  0  0  0  0  0  0  0  0  0  0
   24.8647  -20.7596   -4.0451 C   0  0  0  0  0  0  0  0  0  0  0  0
   23.8930  -20.4864   -3.1251 O   0  0  0  0  0  0  0  0  0  0  0  0
   26.0652  -20.5992   -3.7751 O   0  0  0  0  0  0  0  0  0  0  0  0
  2  1  1  6
  3  2  1  0
  4  3  1  0
  4  5  2  0
  6  5  1  0
  7  6  1  0
  8  7  2  0
  9  8  1  0
 10  9  2  0
 10 11  1  0
 11 12  2  0
 12  7  1  0
 12  4  1  0
 13  2  1  0
 13 14  2  0
 15 16  1  0
 15 13  1  0
 16 17  1  1
 18 17  1  0
 19 18  2  0
 20 19  1  0
 21 20  2  0
 21 22  1  0
 22 23  2  0
 23 18  1  0
 24 16  1  0
 25 24  2  0
 26 24  1  0
 27 26  1  0
 27 30  1  0
 27 28  1  1
 29 28  1  0
 30 31  1  0
 32 30  2  0
M  END
$$$$
