WFC.pdb
     RDKit          3D

 32 34  0  0  1  0  0  0  0  0999 V2000
   26.8354  -20.3565  -17.7515 N   0  0  0  0  0  0  0  0  0  0  0  0
   26.4644  -19.5588  -16.6019 C   0  0  1  0  0  0  0  0  0  0  0  0
   24.9698  -19.3404  -16.6537 C   0  0  0  0  0  0  0  0  0  0  0  0
   24.5764  -18.5501  -17.8604 C   0  0  0  0  0  0  0  0  0  0  0  0
   23.7220  -18.9068  -18.8630 C   0  0  0  0  0  0  0  0  0  0  0  0
   23.6713  -17.8866  -19.7349 N   0  0  0  0  0  0  0  0  0  0  0  0
   24.4678  -16.8748  -19.3300 C   0  0  0  0  0  0  0  0  0  0  0  0
   24.7450  -15.6284  -19.8880 C   0  0  0  0  0  0  0  0  0  0  0  0
   25.6141  -14.7642  -19.2605 C   0  0  0  0  0  0  0  0  0  0  0  0
   26.1908  -15.1730  -18.0770 C   0  0  0  0  0  0  0  0  0  0  0  0
   25.9120  -16.4133  -17.5263 C   0  0  0  0  0  0  0  0  0  0  0  0
   25.0400  -17.2908  -18.1477 C   0  0  0  0  0  0  0  0  0  0  0  0
   26.7878  -20.2880  -15.3635 C   0  0  0  0  0  0  0  0  0  0  0  0
   26.5907  -21.5299  -15.2615 O   0  0  0  0  0  0  0  0  0  0  0  0
   27.3325  -19.6249  -14.2376 N   0  0  0  0  0  0  0  0  0  0  0  0
   27.4088  -20.2526  -12.9289 C   0  0  1  0  0  0  0  0  0  0  0  0
   28.1602  -19.3171  -12.0185 C   0  0  0  0  0  0  0  0  0  0  0  0
   28.2374  -19.7574  -10.6232 C   0  0  0  0  0  0  0  0  0  0  0  0
   27.5402  -19.2033   -9.5706 C   0  0  0  0  0  0  0  0  0  0  0  0
   27.6843  -19.6949   -8.2759 C   0  0  0  0  0  0  0  0  0  0  0  0
   28.5320  -20.7514   -8.0208 C   0  0  0  0  0  0  0  0  0  0  0  0
   29.2382  -21.3189   -9.0623 C   0  0  0  0  0  0  0  0  0  0  0  0
   29.0745  -20.8126  -10.3244 C   0  0  0  0  0  0  0  0  0  0  0  0
   26.0062  -20.3559  -12.4183 C   0  0  0  0  0  0  0  0  0  0  0  0
   25.2330  -19.3695  -12.3879 O   0  0  0  0  0  0  0  0  0  0  0  0
   25.4949  -21.6149  -11.9384 N   0  0  0  0  0  0  0  0  0  0  0  0
   24.1703  -21.7824  -11.4268 C   0  0  1  0  0  0  0  0  0  0  0  0
   23.6877  -23.1626  -11.7913 C   0  0  0  0  0  0  0  0  0  0  0  0
   23.8233  -23.4534  -13.5741 S   0  0  0  0  0  0  0  0  0  0  0  0
   24.1160  -21.5548   -9.9569 C   0  0  0  0  0  0  0  0  0  0  0  0
   25.2675  -21.4940   -9.2251 O   0  0  0  0  0  0  0  0  0  0  0  0
   23.0066  -21.4228   -9.4170 O   0  0  0  0  0  0  0  0  0  0  0  0
  2  1  1  6
  3  2  1  0
  4  3  1  0
  4  5  2  0
  6  5  1  0
  7  6  1  0
  8  7  2  0
  9  8  1  0
 10  9  2  0
 10 11  1  0
 11 12  2  0
 12  7  1  0
 12  4  1  0
 13  2  1  0
 13 14  2  0
 15 16  1  0
 15 13  1  0
 16 17  1  1
 18 17  1  0
 19 18  2  0
 20 19  1  0
 21 20  2  0
 21 22  1  0
 22 23  2  0
 23 18  1  0
 24 16  1  0
 25 24  2  0
 26 24  1  0
 27 26  1  0
 27 30  1  0
 27 28  1  1
 29 28  1  0
 30 31  1  0
 32 30  2  0
M  END
$$$$
