PAH.pdb
     RDKit          3D

 23 24  0  0  1  0  0  0  0  0999 V2000
    9.3300  -14.4880   18.7593 N   0  0  0  0  0  0  0  0  0  0  0  0
    8.6291  -14.0061   17.5877 C   0  0  0  0  0  0  0  0  0  0  0  0
    7.3117  -13.4616   18.0665 C   0  0  0  0  0  0  0  0  0  0  0  0
    7.6280  -12.9785   19.4481 C   0  0  0  0  0  0  0  0  0  0  0  0
    8.8266  -13.7723   19.8869 C   0  0  1  0  0  0  0  0  0  0  0  0
    8.3971  -14.6840   20.9918 C   0  0  0  0  0  0  0  0  0  0  0  0
    7.7359  -14.2528   21.9702 O   0  0  0  0  0  0  0  0  0  0  0  0
    8.3479  -18.4372   21.5668 C   0  0  0  0  0  0  0  0  0  0  0  0
    8.1493  -16.9875   21.9456 C   0  0  2  0  0  0  0  0  0  0  0  0
    8.7103  -16.0712   20.9943 N   0  0  0  0  0  0  0  0  0  0  0  0
    8.6485  -16.7167   23.3259 C   0  0  0  0  0  0  0  0  0  0  0  0
    9.7970  -16.2253   23.4431 O   0  0  0  0  0  0  0  0  0  0  0  0
    7.8977  -16.9849   24.4820 N   0  0  0  0  0  0  0  0  0  0  0  0
    8.3552  -16.7056   25.8480 C   0  0  1  0  0  0  0  0  0  0  0  0
    7.2685  -16.1400   26.6866 C   0  0  0  0  0  0  0  0  0  0  0  0
    6.9862  -14.7476   26.2970 C   0  0  0  0  0  0  0  0  0  0  0  0
    7.7636  -13.9240   25.4750 C   0  0  0  0  0  0  0  0  0  0  0  0
    7.1588  -12.7320   25.3689 N   0  0  0  0  0  0  0  0  0  0  0  0
    6.0426  -12.7520   26.0764 C   0  0  0  0  0  0  0  0  0  0  0  0
    5.9376  -13.9867   26.6444 N   0  0  0  0  0  0  0  0  0  0  0  0
    8.9565  -17.9111   26.4487 C   0  0  0  0  0  0  0  0  0  0  0  0
    9.5892  -17.8468   27.6982 O   0  0  0  0  0  0  0  0  0  0  0  0
    8.9507  -19.0420   25.9162 O   0  0  0  0  0  0  0  0  0  0  0  0
  1  2  1  0
  3  2  1  0
  4  3  1  0
  4  5  1  0
  5  6  1  1
  5  1  1  0
  6 10  1  0
  7  6  2  0
  9  8  1  6
  9 11  1  0
 10  9  1  0
 11 13  1  0
 11 12  2  0
 13 14  1  0
 14 15  1  1
 15 16  1  0
 16 17  2  0
 17 18  1  0
 19 18  1  0
 20 16  1  0
 20 19  2  0
 21 14  1  0
 21 22  1  0
 23 21  2  0
M  END
$$$$
