PAH.pdb
     RDKit          3D

 23 24  0  0  1  0  0  0  0  0999 V2000
    9.2948  -14.5100   18.5998 N   0  0  0  0  0  0  0  0  0  0  0  0
    8.4754  -14.0695   17.4904 C   0  0  0  0  0  0  0  0  0  0  0  0
    7.2468  -13.4384   18.0851 C   0  0  0  0  0  0  0  0  0  0  0  0
    7.7459  -12.8867   19.3846 C   0  0  0  0  0  0  0  0  0  0  0  0
    8.9585  -13.7051   19.7295 C   0  0  1  0  0  0  0  0  0  0  0  0
    8.6325  -14.5275   20.9352 C   0  0  0  0  0  0  0  0  0  0  0  0
    8.1181  -14.0070   21.9573 O   0  0  0  0  0  0  0  0  0  0  0  0
    8.5422  -18.2340   21.7725 C   0  0  0  0  0  0  0  0  0  0  0  0
    8.4080  -16.7558   22.0584 C   0  0  2  0  0  0  0  0  0  0  0  0
    8.8844  -15.9262   20.9888 N   0  0  0  0  0  0  0  0  0  0  0  0
    9.0501  -16.3965   23.3569 C   0  0  0  0  0  0  0  0  0  0  0  0
   10.2111  -15.9220   23.3201 O   0  0  0  0  0  0  0  0  0  0  0  0
    8.4188  -16.5648   24.6000 N   0  0  0  0  0  0  0  0  0  0  0  0
    9.0170  -16.1946   25.8878 C   0  0  1  0  0  0  0  0  0  0  0  0
    7.9972  -15.6952   26.8441 C   0  0  0  0  0  0  0  0  0  0  0  0
    7.3848  -14.4520   26.3445 C   0  0  0  0  0  0  0  0  0  0  0  0
    8.0461  -13.3083   25.8828 C   0  0  0  0  0  0  0  0  0  0  0  0
    7.1284  -12.4009   25.5190 N   0  0  0  0  0  0  0  0  0  0  0  0
    5.9230  -12.9031   25.7234 C   0  0  0  0  0  0  0  0  0  0  0  0
    6.0810  -14.1592   26.2289 N   0  0  0  0  0  0  0  0  0  0  0  0
    9.7974  -17.3190   26.4378 C   0  0  0  0  0  0  0  0  0  0  0  0
   10.5431  -17.1627   27.6148 O   0  0  0  0  0  0  0  0  0  0  0  0
    9.8550  -18.4562   25.9222 O   0  0  0  0  0  0  0  0  0  0  0  0
  1  2  1  0
  3  2  1  0
  4  3  1  0
  4  5  1  0
  5  6  1  1
  5  1  1  0
  6 10  1  0
  7  6  2  0
  9  8  1  6
  9 11  1  0
 10  9  1  0
 11 13  1  0
 11 12  2  0
 13 14  1  0
 14 15  1  1
 15 16  1  0
 16 17  2  0
 17 18  1  0
 19 18  1  0
 20 16  1  0
 20 19  2  0
 21 14  1  0
 21 22  1  0
 23 21  2  0
M  END
$$$$
