PAH.pdb
     RDKit          3D

 23 24  0  0  1  0  0  0  0  0999 V2000
    7.1013  -15.1055   19.8615 N   0  0  0  0  0  0  0  0  0  0  0  0
    6.4203  -14.0557   19.1332 C   0  0  0  0  0  0  0  0  0  0  0  0
    7.2653  -12.8190   19.2678 C   0  0  0  0  0  0  0  0  0  0  0  0
    8.6530  -13.3692   19.3843 C   0  0  0  0  0  0  0  0  0  0  0  0
    8.4878  -14.7695   19.9052 C   0  0  1  0  0  0  0  0  0  0  0  0
    9.0386  -14.8130   21.2948 C   0  0  0  0  0  0  0  0  0  0  0  0
   10.2630  -14.6318   21.5147 O   0  0  0  0  0  0  0  0  0  0  0  0
    7.6677  -14.3561   24.7225 C   0  0  0  0  0  0  0  0  0  0  0  0
    8.6965  -14.9279   23.7741 C   0  0  2  0  0  0  0  0  0  0  0  0
    8.2158  -15.0589   22.4284 N   0  0  0  0  0  0  0  0  0  0  0  0
    9.2457  -16.2175   24.2868 C   0  0  0  0  0  0  0  0  0  0  0  0
    8.5338  -17.2432   24.1629 O   0  0  0  0  0  0  0  0  0  0  0  0
   10.5074  -16.3296   24.8932 N   0  0  0  0  0  0  0  0  0  0  0  0
   11.0542  -17.5770   25.4395 C   0  0  1  0  0  0  0  0  0  0  0  0
   12.5359  -17.6114   25.3537 C   0  0  0  0  0  0  0  0  0  0  0  0
   12.9739  -17.5541   23.9483 C   0  0  0  0  0  0  0  0  0  0  0  0
   12.3236  -18.0997   22.8357 C   0  0  0  0  0  0  0  0  0  0  0  0
   13.0482  -17.8280   21.7407 N   0  0  0  0  0  0  0  0  0  0  0  0
   14.1207  -17.1414   22.0946 C   0  0  0  0  0  0  0  0  0  0  0  0
   14.0744  -16.9742   23.4466 N   0  0  0  0  0  0  0  0  0  0  0  0
   10.5676  -17.7966   26.8145 C   0  0  0  0  0  0  0  0  0  0  0  0
   10.8821  -18.9765   27.5035 O   0  0  0  0  0  0  0  0  0  0  0  0
    9.8652  -16.9827   27.4522 O   0  0  0  0  0  0  0  0  0  0  0  0
  1  2  1  0
  3  2  1  0
  4  3  1  0
  4  5  1  0
  5  6  1  1
  5  1  1  0
  6 10  1  0
  7  6  2  0
  9  8  1  1
  9 11  1  0
 10  9  1  0
 11 13  1  0
 11 12  2  0
 13 14  1  0
 14 15  1  1
 15 16  1  0
 16 17  2  0
 17 18  1  0
 19 18  1  0
 20 16  1  0
 20 19  2  0
 21 14  1  0
 21 22  1  0
 23 21  2  0
M  END
$$$$
