PAH.pdb
     RDKit          3D

 23 24  0  0  1  0  0  0  0  0999 V2000
    8.8473  -14.8178   18.6617 N   0  0  0  0  0  0  0  0  0  0  0  0
    7.7904  -14.0912   17.9901 C   0  0  0  0  0  0  0  0  0  0  0  0
    7.7168  -12.7372   18.6404 C   0  0  0  0  0  0  0  0  0  0  0  0
    9.1290  -12.4940   19.0746 C   0  0  0  0  0  0  0  0  0  0  0  0
    9.7476  -13.8570   19.2125 C   0  0  1  0  0  0  0  0  0  0  0  0
   10.0156  -14.0975   20.6640 C   0  0  0  0  0  0  0  0  0  0  0  0
   10.7812  -13.3441   21.3171 O   0  0  0  0  0  0  0  0  0  0  0  0
    8.6482  -16.1914   23.4786 C   0  0  0  0  0  0  0  0  0  0  0  0
    9.7568  -15.4794   22.7377 C   0  0  2  0  0  0  0  0  0  0  0  0
    9.4252  -15.1789   21.3743 N   0  0  0  0  0  0  0  0  0  0  0  0
   11.0417  -16.2325   22.8350 C   0  0  0  0  0  0  0  0  0  0  0  0
   11.3859  -16.6521   23.9663 O   0  0  0  0  0  0  0  0  0  0  0  0
   11.8696  -16.4875   21.7297 N   0  0  0  0  0  0  0  0  0  0  0  0
   13.1410  -17.2170   21.7999 C   0  0  1  0  0  0  0  0  0  0  0  0
   13.6693  -17.5317   20.4487 C   0  0  0  0  0  0  0  0  0  0  0  0
   12.6623  -18.2586   19.6562 C   0  0  0  0  0  0  0  0  0  0  0  0
   12.5410  -19.6448   19.5077 C   0  0  0  0  0  0  0  0  0  0  0  0
   11.4966  -19.8994   18.7061 N   0  0  0  0  0  0  0  0  0  0  0  0
   10.9486  -18.7546   18.3376 C   0  0  0  0  0  0  0  0  0  0  0  0
   11.6631  -17.7503   18.9199 N   0  0  0  0  0  0  0  0  0  0  0  0
   14.1160  -16.4786   22.6245 C   0  0  0  0  0  0  0  0  0  0  0  0
   15.3968  -17.0005   22.8549 O   0  0  0  0  0  0  0  0  0  0  0  0
   13.8905  -15.3730   23.1623 O   0  0  0  0  0  0  0  0  0  0  0  0
  1  2  1  0
  3  2  1  0
  4  3  1  0
  4  5  1  0
  5  6  1  1
  5  1  1  0
  6 10  1  0
  7  6  2  0
  9  8  1  6
  9 11  1  0
 10  9  1  0
 11 13  1  0
 11 12  2  0
 13 14  1  0
 14 15  1  6
 15 16  1  0
 16 17  2  0
 17 18  1  0
 19 18  1  0
 20 16  1  0
 20 19  2  0
 21 14  1  0
 21 22  1  0
 23 21  2  0
M  END
$$$$
