PAH.pdb
     RDKit          3D

 23 24  0  0  1  0  0  0  0  0999 V2000
    8.9411  -14.8138   19.1696 N   0  0  0  0  0  0  0  0  0  0  0  0
    8.6602  -14.2473   17.8672 C   0  0  0  0  0  0  0  0  0  0  0  0
    7.6428  -13.1605   18.0796 C   0  0  0  0  0  0  0  0  0  0  0  0
    7.9552  -12.6705   19.4597 C   0  0  0  0  0  0  0  0  0  0  0  0
    8.6456  -13.8157   20.1461 C   0  0  1  0  0  0  0  0  0  0  0  0
    7.7384  -14.3243   21.2207 C   0  0  0  0  0  0  0  0  0  0  0  0
    7.2056  -13.5404   22.0464 O   0  0  0  0  0  0  0  0  0  0  0  0
    5.9932  -17.5870   22.0302 C   0  0  0  0  0  0  0  0  0  0  0  0
    6.4934  -16.1929   22.3322 C   0  0  2  0  0  0  0  0  0  0  0  0
    7.4337  -15.7061   21.3636 N   0  0  0  0  0  0  0  0  0  0  0  0
    7.0400  -16.1038   23.7181 C   0  0  0  0  0  0  0  0  0  0  0  0
    6.2880  -16.4444   24.6631 O   0  0  0  0  0  0  0  0  0  0  0  0
    8.3416  -15.6612   24.0049 N   0  0  0  0  0  0  0  0  0  0  0  0
    8.8870  -15.5201   25.3599 C   0  0  1  0  0  0  0  0  0  0  0  0
    7.8111  -15.3867   26.3741 C   0  0  0  0  0  0  0  0  0  0  0  0
    7.2918  -14.0083   26.3986 C   0  0  0  0  0  0  0  0  0  0  0  0
    7.6961  -12.9365   25.5947 C   0  0  0  0  0  0  0  0  0  0  0  0
    6.9779  -11.8551   25.9304 N   0  0  0  0  0  0  0  0  0  0  0  0
    6.1413  -12.1792   26.9009 C   0  0  0  0  0  0  0  0  0  0  0  0
    6.3341  -13.4979   27.1870 N   0  0  0  0  0  0  0  0  0  0  0  0
    9.8092  -16.6303   25.6644 C   0  0  0  0  0  0  0  0  0  0  0  0
    9.4165  -17.9610   25.4620 O   0  0  0  0  0  0  0  0  0  0  0  0
   10.9684  -16.4825   26.1083 O   0  0  0  0  0  0  0  0  0  0  0  0
  1  2  1  0
  3  2  1  0
  4  3  1  0
  4  5  1  0
  5  6  1  1
  5  1  1  0
  6 10  1  0
  7  6  2  0
  9  8  1  6
  9 11  1  0
 10  9  1  0
 11 13  1  0
 11 12  2  0
 13 14  1  0
 14 15  1  1
 15 16  1  0
 16 17  2  0
 17 18  1  0
 19 18  1  0
 20 16  1  0
 20 19  2  0
 21 14  1  0
 21 22  1  0
 23 21  2  0
M  END
$$$$
