PAH.pdb
     RDKit          3D

 23 24  0  0  1  0  0  0  0  0999 V2000
    7.6403  -14.8264   18.7262 N   0  0  0  0  0  0  0  0  0  0  0  0
    6.8275  -13.8057   18.0989 C   0  0  0  0  0  0  0  0  0  0  0  0
    7.4769  -12.4854   18.4096 C   0  0  0  0  0  0  0  0  0  0  0  0
    8.9279  -12.8395   18.5159 C   0  0  0  0  0  0  0  0  0  0  0  0
    8.9605  -14.3016   18.8633 C   0  0  1  0  0  0  0  0  0  0  0  0
    9.4811  -14.4328   20.2591 C   0  0  0  0  0  0  0  0  0  0  0  0
   10.6654  -14.1213   20.5430 O   0  0  0  0  0  0  0  0  0  0  0  0
    7.9966  -14.9157   23.6933 C   0  0  0  0  0  0  0  0  0  0  0  0
    9.1258  -14.9309   22.6886 C   0  0  2  0  0  0  0  0  0  0  0  0
    8.6732  -14.9116   21.3270 N   0  0  0  0  0  0  0  0  0  0  0  0
   10.0564  -16.0705   22.9395 C   0  0  0  0  0  0  0  0  0  0  0  0
    9.5858  -17.2316   22.8718 O   0  0  0  0  0  0  0  0  0  0  0  0
   11.4168  -15.9002   23.2438 N   0  0  0  0  0  0  0  0  0  0  0  0
   12.3576  -17.0034   23.4702 C   0  0  1  0  0  0  0  0  0  0  0  0
   13.7565  -16.6012   23.1779 C   0  0  0  0  0  0  0  0  0  0  0  0
   13.8656  -16.0667   21.8094 C   0  0  0  0  0  0  0  0  0  0  0  0
   13.5687  -16.7317   20.6144 C   0  0  0  0  0  0  0  0  0  0  0  0
   13.8011  -15.8970   19.5911 N   0  0  0  0  0  0  0  0  0  0  0  0
   14.2284  -14.7408   20.0682 C   0  0  0  0  0  0  0  0  0  0  0  0
   14.2676  -14.8457   21.4268 N   0  0  0  0  0  0  0  0  0  0  0  0
   12.2034  -17.5429   24.8343 C   0  0  0  0  0  0  0  0  0  0  0  0
   11.5062  -16.8209   25.8133 O   0  0  0  0  0  0  0  0  0  0  0  0
   12.6613  -18.6424   25.2137 O   0  0  0  0  0  0  0  0  0  0  0  0
  1  2  1  0
  3  2  1  0
  4  3  1  0
  4  5  1  0
  5  6  1  1
  5  1  1  0
  6 10  1  0
  7  6  2  0
  9  8  1  1
  9 11  1  0
 10  9  1  0
 11 13  1  0
 11 12  2  0
 13 14  1  0
 14 15  1  1
 15 16  1  0
 16 17  2  0
 17 18  1  0
 19 18  1  0
 20 16  1  0
 20 19  2  0
 21 14  1  0
 21 22  1  0
 23 21  2  0
M  END
$$$$
