PAH.pdb
     RDKit          3D

 23 24  0  0  1  0  0  0  0  0999 V2000
    9.3273  -14.4324   18.8019 N   0  0  0  0  0  0  0  0  0  0  0  0
    8.5932  -13.9751   17.6409 C   0  0  0  0  0  0  0  0  0  0  0  0
    7.2938  -13.4115   18.1462 C   0  0  0  0  0  0  0  0  0  0  0  0
    7.6548  -12.8967   19.5052 C   0  0  0  0  0  0  0  0  0  0  0  0
    8.8623  -13.6866   19.9265 C   0  0  1  0  0  0  0  0  0  0  0  0
    8.4623  -14.5685   21.0661 C   0  0  0  0  0  0  0  0  0  0  0  0
    7.8267  -14.1114   22.0497 O   0  0  0  0  0  0  0  0  0  0  0  0
    8.4821  -18.2974   21.7935 C   0  0  0  0  0  0  0  0  0  0  0  0
    8.2874  -16.8345   22.1204 C   0  0  2  0  0  0  0  0  0  0  0  0
    8.7762  -15.9552   21.0971 N   0  0  0  0  0  0  0  0  0  0  0  0
    8.8671  -16.4975   23.4539 C   0  0  0  0  0  0  0  0  0  0  0  0
   10.0137  -15.9885   23.4779 O   0  0  0  0  0  0  0  0  0  0  0  0
    8.1929  -16.7227   24.6651 N   0  0  0  0  0  0  0  0  0  0  0  0
    8.6948  -16.3078   25.9801 C   0  0  1  0  0  0  0  0  0  0  0  0
    7.6058  -15.7877   26.8447 C   0  0  0  0  0  0  0  0  0  0  0  0
    7.1419  -14.4763   26.3596 C   0  0  0  0  0  0  0  0  0  0  0  0
    7.8611  -13.5556   25.5893 C   0  0  0  0  0  0  0  0  0  0  0  0
    7.0820  -12.4887   25.3598 N   0  0  0  0  0  0  0  0  0  0  0  0
    5.9101  -12.6796   25.9402 C   0  0  0  0  0  0  0  0  0  0  0  0
    5.9476  -13.8971   26.5522 N   0  0  0  0  0  0  0  0  0  0  0  0
    9.4408  -17.4078   26.6196 C   0  0  0  0  0  0  0  0  0  0  0  0
    9.5605  -18.6528   25.9859 O   0  0  0  0  0  0  0  0  0  0  0  0
   10.0049  -17.3240   27.7319 O   0  0  0  0  0  0  0  0  0  0  0  0
  1  2  1  0
  3  2  1  0
  4  3  1  0
  4  5  1  0
  5  6  1  1
  5  1  1  0
  6 10  1  0
  7  6  2  0
  9  8  1  6
  9 11  1  0
 10  9  1  0
 11 13  1  0
 11 12  2  0
 13 14  1  0
 14 15  1  1
 15 16  1  0
 16 17  2  0
 17 18  1  0
 19 18  1  0
 20 16  1  0
 20 19  2  0
 21 14  1  0
 21 22  1  0
 23 21  2  0
M  END
$$$$
