PAH.pdb
     RDKit          3D

 23 24  0  0  1  0  0  0  0  0999 V2000
    8.8567  -16.1006   15.1170 N   0  0  0  0  0  0  0  0  0  0  0  0
    8.8708  -17.5393   14.9561 C   0  0  0  0  0  0  0  0  0  0  0  0
    8.6569  -18.1286   16.3229 C   0  0  0  0  0  0  0  0  0  0  0  0
    7.8162  -17.0962   17.0080 C   0  0  0  0  0  0  0  0  0  0  0  0
    8.1002  -15.8061   16.2909 C   0  0  1  0  0  0  0  0  0  0  0  0
    8.8390  -14.9082   17.2314 C   0  0  0  0  0  0  0  0  0  0  0  0
   10.0649  -14.6752   17.0795 O   0  0  0  0  0  0  0  0  0  0  0  0
    7.8506  -12.3751   19.8564 C   0  0  0  0  0  0  0  0  0  0  0  0
    8.8325  -13.2434   19.1038 C   0  0  2  0  0  0  0  0  0  0  0  0
    8.2010  -14.2776   18.3350 N   0  0  0  0  0  0  0  0  0  0  0  0
    9.8728  -13.7995   20.0182 C   0  0  0  0  0  0  0  0  0  0  0  0
   10.5272  -12.9881   20.7166 O   0  0  0  0  0  0  0  0  0  0  0  0
   10.1461  -15.1726   20.1281 N   0  0  0  0  0  0  0  0  0  0  0  0
   11.2070  -15.7396   20.9686 C   0  0  1  0  0  0  0  0  0  0  0  0
   12.4614  -14.9509   20.8766 C   0  0  0  0  0  0  0  0  0  0  0  0
   13.0218  -15.0276   19.5163 C   0  0  0  0  0  0  0  0  0  0  0  0
   12.8114  -16.0362   18.5694 C   0  0  0  0  0  0  0  0  0  0  0  0
   13.4995  -15.7315   17.4596 N   0  0  0  0  0  0  0  0  0  0  0  0
   14.1343  -14.5877   17.6481 C   0  0  0  0  0  0  0  0  0  0  0  0
   13.8412  -14.1573   18.9079 N   0  0  0  0  0  0  0  0  0  0  0  0
   10.7403  -15.8893   22.3598 C   0  0  0  0  0  0  0  0  0  0  0  0
   11.5966  -16.3905   23.3504 O   0  0  0  0  0  0  0  0  0  0  0  0
    9.5916  -15.5931   22.7538 O   0  0  0  0  0  0  0  0  0  0  0  0
  1  2  1  0
  3  2  1  0
  4  3  1  0
  4  5  1  0
  5  6  1  1
  5  1  1  0
  6 10  1  0
  7  6  2  0
  9  8  1  1
  9 11  1  0
 10  9  1  0
 11 13  1  0
 11 12  2  0
 13 14  1  0
 14 15  1  1
 15 16  1  0
 16 17  2  0
 17 18  1  0
 19 18  1  0
 20 16  1  0
 20 19  2  0
 21 14  1  0
 21 22  1  0
 23 21  2  0
M  END
$$$$
