PAH.pdb
     RDKit          3D

 23 24  0  0  1  0  0  0  0  0999 V2000
    8.6284  -14.9798   14.3608 N   0  0  0  0  0  0  0  0  0  0  0  0
    8.7708  -16.2244   13.6351 C   0  0  0  0  0  0  0  0  0  0  0  0
    8.7202  -17.3275   14.6559 C   0  0  0  0  0  0  0  0  0  0  0  0
    7.8371  -16.7594   15.7234 C   0  0  0  0  0  0  0  0  0  0  0  0
    7.9382  -15.2669   15.5767 C   0  0  1  0  0  0  0  0  0  0  0  0
    8.6550  -14.7328   16.7756 C   0  0  0  0  0  0  0  0  0  0  0  0
    9.9061  -14.6111   16.7841 O   0  0  0  0  0  0  0  0  0  0  0  0
    7.7090  -13.1566   20.0993 C   0  0  0  0  0  0  0  0  0  0  0  0
    8.6441  -13.7984   19.1002 C   0  0  2  0  0  0  0  0  0  0  0  0
    7.9670  -14.3388   17.9562 N   0  0  0  0  0  0  0  0  0  0  0  0
    9.5142  -14.8198   19.7539 C   0  0  0  0  0  0  0  0  0  0  0  0
    9.1057  -16.0061   19.7722 O   0  0  0  0  0  0  0  0  0  0  0  0
   10.7528  -14.5135   20.3407 N   0  0  0  0  0  0  0  0  0  0  0  0
   11.5626  -15.4672   21.1075 C   0  0  1  0  0  0  0  0  0  0  0  0
   12.9963  -15.0822   21.1237 C   0  0  0  0  0  0  0  0  0  0  0  0
   13.5658  -15.1522   19.7668 C   0  0  0  0  0  0  0  0  0  0  0  0
   13.2742  -16.0939   18.7736 C   0  0  0  0  0  0  0  0  0  0  0  0
   14.0034  -15.8078   17.6853 N   0  0  0  0  0  0  0  0  0  0  0  0
   14.7407  -14.7387   17.9310 C   0  0  0  0  0  0  0  0  0  0  0  0
   14.4721  -14.3379   19.2059 N   0  0  0  0  0  0  0  0  0  0  0  0
   11.0131  -15.6375   22.4657 C   0  0  0  0  0  0  0  0  0  0  0  0
    9.8923  -14.9038   22.8799 O   0  0  0  0  0  0  0  0  0  0  0  0
   11.4809  -16.4177   23.3229 O   0  0  0  0  0  0  0  0  0  0  0  0
  1  2  1  0
  3  2  1  0
  4  3  1  0
  4  5  1  0
  5  6  1  1
  5  1  1  0
  6 10  1  0
  7  6  2  0
  9  8  1  1
  9 11  1  0
 10  9  1  0
 11 13  1  0
 11 12  2  0
 13 14  1  0
 14 15  1  1
 15 16  1  0
 16 17  2  0
 17 18  1  0
 19 18  1  0
 20 16  1  0
 20 19  2  0
 21 14  1  0
 21 22  1  0
 23 21  2  0
M  END
$$$$
