PAH.pdb
     RDKit          3D

 23 24  0  0  1  0  0  0  0  0999 V2000
    7.6524  -14.9845   18.3230 N   0  0  0  0  0  0  0  0  0  0  0  0
    6.6746  -14.1039   17.7192 C   0  0  0  0  0  0  0  0  0  0  0  0
    7.1662  -12.6995   17.9365 C   0  0  0  0  0  0  0  0  0  0  0  0
    8.6548  -12.8614   17.9523 C   0  0  0  0  0  0  0  0  0  0  0  0
    8.8995  -14.2907   18.3477 C   0  0  1  0  0  0  0  0  0  0  0  0
    9.5233  -14.2933   19.7069 C   0  0  0  0  0  0  0  0  0  0  0  0
   10.6800  -13.8371   19.8920 O   0  0  0  0  0  0  0  0  0  0  0  0
    8.4611  -15.0663   23.2655 C   0  0  0  0  0  0  0  0  0  0  0  0
    9.4564  -14.8528   22.1481 C   0  0  2  0  0  0  0  0  0  0  0  0
    8.8486  -14.8060   20.8490 N   0  0  0  0  0  0  0  0  0  0  0  0
   10.5541  -15.8627   22.2024 C   0  0  0  0  0  0  0  0  0  0  0  0
   10.3190  -17.0030   21.7344 O   0  0  0  0  0  0  0  0  0  0  0  0
   11.8203  -15.5944   22.7472 N   0  0  0  0  0  0  0  0  0  0  0  0
   12.9189  -16.5656   22.8031 C   0  0  1  0  0  0  0  0  0  0  0  0
   14.2124  -15.9555   22.4049 C   0  0  0  0  0  0  0  0  0  0  0  0
   14.1555  -15.4874   21.0093 C   0  0  0  0  0  0  0  0  0  0  0  0
   13.5198  -16.1137   19.9313 C   0  0  0  0  0  0  0  0  0  0  0  0
   13.7026  -15.3658   18.8335 N   0  0  0  0  0  0  0  0  0  0  0  0
   14.4176  -14.3011   19.1530 C   0  0  0  0  0  0  0  0  0  0  0  0
   14.6945  -14.3764   20.4856 N   0  0  0  0  0  0  0  0  0  0  0  0
   12.9838  -17.1971   24.1345 C   0  0  0  0  0  0  0  0  0  0  0  0
   12.1190  -16.7907   25.1606 O   0  0  0  0  0  0  0  0  0  0  0  0
   13.7807  -18.1089   24.4444 O   0  0  0  0  0  0  0  0  0  0  0  0
  1  2  1  0
  3  2  1  0
  4  3  1  0
  4  5  1  0
  5  6  1  1
  5  1  1  0
  6 10  1  0
  7  6  2  0
  9  8  1  1
  9 11  1  0
 10  9  1  0
 11 13  1  0
 11 12  2  0
 13 14  1  0
 14 15  1  1
 15 16  1  0
 16 17  2  0
 17 18  1  0
 19 18  1  0
 20 16  1  0
 20 19  2  0
 21 14  1  0
 21 22  1  0
 23 21  2  0
M  END
$$$$
