PAH.pdb
     RDKit          3D

 23 24  0  0  1  0  0  0  0  0999 V2000
    8.1482  -16.8026   16.3267 N   0  0  0  0  0  0  0  0  0  0  0  0
    7.0768  -17.1098   15.4027 C   0  0  0  0  0  0  0  0  0  0  0  0
    6.9811  -15.9491   14.4514 C   0  0  0  0  0  0  0  0  0  0  0  0
    8.3900  -15.4457   14.3901 C   0  0  0  0  0  0  0  0  0  0  0  0
    9.0329  -15.8931   15.6730 C   0  0  1  0  0  0  0  0  0  0  0  0
    9.3090  -14.6775   16.4993 C   0  0  0  0  0  0  0  0  0  0  0  0
   10.2059  -13.8595   16.1725 O   0  0  0  0  0  0  0  0  0  0  0  0
    7.6982  -12.7667   19.3153 C   0  0  0  0  0  0  0  0  0  0  0  0
    8.8862  -13.2618   18.5226 C   0  0  2  0  0  0  0  0  0  0  0  0
    8.5799  -14.3859   17.6849 N   0  0  0  0  0  0  0  0  0  0  0  0
   10.0498  -13.5445   19.4135 C   0  0  0  0  0  0  0  0  0  0  0  0
   10.4459  -12.6203   20.1641 O   0  0  0  0  0  0  0  0  0  0  0  0
   10.7104  -14.7834   19.4465 N   0  0  0  0  0  0  0  0  0  0  0  0
   11.8382  -15.0955   20.3320 C   0  0  1  0  0  0  0  0  0  0  0  0
   11.5461  -16.2610   21.2038 C   0  0  0  0  0  0  0  0  0  0  0  0
   10.5202  -15.9151   22.2029 C   0  0  0  0  0  0  0  0  0  0  0  0
    9.8655  -14.6876   22.3543 C   0  0  0  0  0  0  0  0  0  0  0  0
    9.0057  -14.7847   23.3786 N   0  0  0  0  0  0  0  0  0  0  0  0
    9.0773  -16.0031   23.8857 C   0  0  0  0  0  0  0  0  0  0  0  0
   10.0050  -16.6947   23.1651 N   0  0  0  0  0  0  0  0  0  0  0  0
   13.0752  -15.2776   19.5493 C   0  0  0  0  0  0  0  0  0  0  0  0
   14.3041  -15.4810   20.1929 O   0  0  0  0  0  0  0  0  0  0  0  0
   13.1273  -15.2672   18.3005 O   0  0  0  0  0  0  0  0  0  0  0  0
  1  2  1  0
  3  2  1  0
  4  3  1  0
  4  5  1  0
  5  6  1  1
  5  1  1  0
  6 10  1  0
  7  6  2  0
  9  8  1  1
  9 11  1  0
 10  9  1  0
 11 13  1  0
 11 12  2  0
 13 14  1  0
 14 15  1  6
 15 16  1  0
 16 17  2  0
 17 18  1  0
 19 18  1  0
 20 16  1  0
 20 19  2  0
 21 14  1  0
 21 22  1  0
 23 21  2  0
M  END
$$$$
