PAH.pdb
     RDKit          3D

 23 24  0  0  1  0  0  0  0  0999 V2000
    6.7923  -16.2429   20.9164 N   0  0  0  0  0  0  0  0  0  0  0  0
    6.0334  -15.8814   19.7376 C   0  0  0  0  0  0  0  0  0  0  0  0
    6.6539  -14.6243   19.1934 C   0  0  0  0  0  0  0  0  0  0  0  0
    8.0914  -14.7580   19.5907 C   0  0  0  0  0  0  0  0  0  0  0  0
    8.0963  -15.6791   20.7785 C   0  0  1  0  0  0  0  0  0  0  0  0
    8.4998  -14.8828   21.9784 C   0  0  0  0  0  0  0  0  0  0  0  0
    9.6201  -14.3154   22.0351 O   0  0  0  0  0  0  0  0  0  0  0  0
    6.7543  -13.5281   25.0610 C   0  0  0  0  0  0  0  0  0  0  0  0
    7.9473  -13.8264   24.1820 C   0  0  2  0  0  0  0  0  0  0  0  0
    7.6472  -14.7271   23.1059 N   0  0  0  0  0  0  0  0  0  0  0  0
    9.1067  -14.3065   24.9900 C   0  0  0  0  0  0  0  0  0  0  0  0
    9.5550  -13.5401   25.8766 O   0  0  0  0  0  0  0  0  0  0  0  0
    9.7082  -15.5616   24.8024 N   0  0  0  0  0  0  0  0  0  0  0  0
   10.7624  -16.1100   25.6633 C   0  0  1  0  0  0  0  0  0  0  0  0
   10.2019  -16.7383   26.8860 C   0  0  0  0  0  0  0  0  0  0  0  0
    9.9823  -15.7258   27.9334 C   0  0  0  0  0  0  0  0  0  0  0  0
   10.1012  -14.3372   27.8071 C   0  0  0  0  0  0  0  0  0  0  0  0
    9.8177  -13.7740   28.9905 N   0  0  0  0  0  0  0  0  0  0  0  0
    9.5258  -14.7255   29.8602 C   0  0  0  0  0  0  0  0  0  0  0  0
    9.6269  -15.9204   29.2120 N   0  0  0  0  0  0  0  0  0  0  0  0
   11.6225  -17.0354   24.9021 C   0  0  0  0  0  0  0  0  0  0  0  0
   12.7713  -17.5872   25.4868 O   0  0  0  0  0  0  0  0  0  0  0  0
   11.4067  -17.3900   23.7230 O   0  0  0  0  0  0  0  0  0  0  0  0
  1  2  1  0
  3  2  1  0
  4  3  1  0
  4  5  1  0
  5  6  1  1
  5  1  1  0
  6 10  1  0
  7  6  2  0
  9  8  1  1
  9 11  1  0
 10  9  1  0
 11 13  1  0
 11 12  2  0
 13 14  1  0
 14 15  1  1
 15 16  1  0
 16 17  2  0
 17 18  1  0
 19 18  1  0
 20 16  1  0
 20 19  2  0
 21 14  1  0
 21 22  1  0
 23 21  2  0
M  END
$$$$
