YFG.pdb
     RDKit          3D

 28 29  0  0  1  0  0  0  0  0999 V2000
    7.6482  -13.8473   15.8246 O   0  0  0  0  0  0  0  0  0  0  0  0
    7.9030  -13.9055   17.1957 C   0  0  0  0  0  0  0  0  0  0  0  0
    8.3973  -15.0455   17.7945 C   0  0  0  0  0  0  0  0  0  0  0  0
    8.6385  -15.0708   19.1522 C   0  0  0  0  0  0  0  0  0  0  0  0
    8.4062  -13.9867   19.9714 C   0  0  0  0  0  0  0  0  0  0  0  0
    8.6672  -14.0146   21.4397 C   0  0  0  0  0  0  0  0  0  0  0  0
    8.9110  -15.4382   21.9172 C   0  0  2  0  0  0  0  0  0  0  0  0
    7.7822  -16.2304   21.5354 N   0  0  0  0  0  0  0  0  0  0  0  0
    9.1855  -15.4360   23.3580 C   0  0  0  0  0  0  0  0  0  0  0  0
   10.1708  -14.7790   23.7719 O   0  0  0  0  0  0  0  0  0  0  0  0
    7.9098  -12.8421   19.3697 C   0  0  0  0  0  0  0  0  0  0  0  0
    7.6694  -12.8188   18.0124 C   0  0  0  0  0  0  0  0  0  0  0  0
    8.4142  -16.1265   24.3252 N   0  0  0  0  0  0  0  0  0  0  0  0
    8.7581  -16.1354   25.7311 C   0  0  1  0  0  0  0  0  0  0  0  0
    7.5347  -15.7257   26.5374 C   0  0  0  0  0  0  0  0  0  0  0  0
    7.3263  -14.2588   26.4881 C   0  0  0  0  0  0  0  0  0  0  0  0
    8.2529  -13.3950   27.0291 C   0  0  0  0  0  0  0  0  0  0  0  0
    8.0276  -12.0350   26.9656 C   0  0  0  0  0  0  0  0  0  0  0  0
    6.8975  -11.5198   26.3736 C   0  0  0  0  0  0  0  0  0  0  0  0
    5.9767  -12.3896   25.8354 C   0  0  0  0  0  0  0  0  0  0  0  0
    6.1899  -13.7685   25.8916 C   0  0  0  0  0  0  0  0  0  0  0  0
    9.1857  -17.4891   26.1674 C   0  0  0  0  0  0  0  0  0  0  0  0
    8.3195  -18.4031   26.3016 O   0  0  0  0  0  0  0  0  0  0  0  0
   10.5388  -17.7672   26.4329 N   0  0  0  0  0  0  0  0  0  0  0  0
   10.9240  -19.1357   26.6863 C   0  0  0  0  0  0  0  0  0  0  0  0
   11.1004  -19.3861   28.1351 C   0  0  0  0  0  0  0  0  0  0  0  0
   10.8787  -18.4703   28.9641 O   0  0  0  0  0  0  0  0  0  0  0  0
   11.5083  -20.6167   28.6150 O   0  0  0  0  0  0  0  0  0  0  0  0
  2  1  1  0
  3  2  2  0
  4  3  1  0
  5  4  2  0
  5 11  1  0
  6  7  1  0
  6  5  1  0
  7  8  1  1
  9  7  1  0
  9 10  2  0
 11 12  2  0
 12  2  1  0
 13  9  1  0
 14 13  1  0
 14 15  1  1
 16 15  1  0
 16 21  2  0
 17 18  2  0
 17 16  1  0
 18 19  1  0
 19 20  2  0
 21 20  1  0
 22 14  1  0
 23 22  2  0
 24 22  1  0
 25 24  1  0
 26 28  1  0
 26 25  1  0
 27 26  2  0
M  END
$$$$
