YFG.pdb
     RDKit          3D

 28 29  0  0  1  0  0  0  0  0999 V2000
    0.9524  -20.6502   19.9590 O   0  0  0  0  0  0  0  0  0  0  0  0
    2.0922  -20.0929   20.5409 C   0  0  0  0  0  0  0  0  0  0  0  0
    2.0215  -19.3215   21.6821 C   0  0  0  0  0  0  0  0  0  0  0  0
    3.1667  -18.7849   22.2325 C   0  0  0  0  0  0  0  0  0  0  0  0
    4.4183  -18.9820   21.6895 C   0  0  0  0  0  0  0  0  0  0  0  0
    5.6565  -18.4014   22.2851 C   0  0  0  0  0  0  0  0  0  0  0  0
    5.7576  -16.9152   21.9769 C   0  0  2  0  0  0  0  0  0  0  0  0
    6.0166  -16.7723   20.5769 N   0  0  0  0  0  0  0  0  0  0  0  0
    6.7686  -16.2987   22.8423 C   0  0  0  0  0  0  0  0  0  0  0  0
    7.8975  -16.0543   22.3527 O   0  0  0  0  0  0  0  0  0  0  0  0
    4.4890  -19.7567   20.5434 C   0  0  0  0  0  0  0  0  0  0  0  0
    3.3431  -20.2921   19.9949 C   0  0  0  0  0  0  0  0  0  0  0  0
    6.5635  -15.9558   24.2015 N   0  0  0  0  0  0  0  0  0  0  0  0
    7.5417  -15.2192   24.9732 C   0  0  1  0  0  0  0  0  0  0  0  0
    6.8983  -14.7656   26.2751 C   0  0  0  0  0  0  0  0  0  0  0  0
    6.9206  -13.2886   26.3985 C   0  0  0  0  0  0  0  0  0  0  0  0
    6.0677  -12.6389   27.2632 C   0  0  0  0  0  0  0  0  0  0  0  0
    6.1152  -11.2627   27.3535 C   0  0  0  0  0  0  0  0  0  0  0  0
    6.9960  -10.5221   26.5992 C   0  0  0  0  0  0  0  0  0  0  0  0
    7.8447  -11.1788   25.7377 C   0  0  0  0  0  0  0  0  0  0  0  0
    7.8090  -12.5710   25.6347 C   0  0  0  0  0  0  0  0  0  0  0  0
    8.7182  -16.0674   25.2926 C   0  0  0  0  0  0  0  0  0  0  0  0
    9.6480  -15.5977   26.0125 O   0  0  0  0  0  0  0  0  0  0  0  0
    8.8114  -17.3839   24.8057 N   0  0  0  0  0  0  0  0  0  0  0  0
    9.9662  -18.1720   25.1672 C   0  0  0  0  0  0  0  0  0  0  0  0
   11.1476  -17.7999   24.3555 C   0  0  0  0  0  0  0  0  0  0  0  0
   11.0606  -16.8880   23.4977 O   0  0  0  0  0  0  0  0  0  0  0  0
   12.3658  -18.4343   24.5129 O   0  0  0  0  0  0  0  0  0  0  0  0
  2  1  1  0
  3  2  2  0
  4  3  1  0
  5  4  2  0
  5 11  1  0
  6  7  1  0
  6  5  1  0
  7  8  1  6
  9  7  1  0
  9 10  2  0
 11 12  2  0
 12  2  1  0
 13  9  1  0
 14 13  1  0
 14 15  1  1
 16 15  1  0
 16 21  2  0
 17 18  2  0
 17 16  1  0
 18 19  1  0
 19 20  2  0
 21 20  1  0
 22 14  1  0
 23 22  2  0
 24 22  1  0
 25 24  1  0
 26 28  1  0
 26 25  1  0
 27 26  2  0
M  END
$$$$
