YFG.pdb
     RDKit          3D

 28 29  0  0  1  0  0  0  0  0999 V2000
    7.7059  -14.0482   15.1355 O   0  0  0  0  0  0  0  0  0  0  0  0
    7.8004  -13.9797   16.5264 C   0  0  0  0  0  0  0  0  0  0  0  0
    7.1029  -13.0396   17.2560 C   0  0  0  0  0  0  0  0  0  0  0  0
    7.2179  -12.9982   18.6298 C   0  0  0  0  0  0  0  0  0  0  0  0
    8.0161  -13.8708   19.3381 C   0  0  0  0  0  0  0  0  0  0  0  0
    8.1402  -13.8255   20.8238 C   0  0  0  0  0  0  0  0  0  0  0  0
    8.4976  -15.1967   21.3772 C   0  0  2  0  0  0  0  0  0  0  0  0
    7.4756  -16.1140   20.9753 N   0  0  0  0  0  0  0  0  0  0  0  0
    8.6911  -15.1088   22.8284 C   0  0  0  0  0  0  0  0  0  0  0  0
    8.8765  -13.9755   23.3334 O   0  0  0  0  0  0  0  0  0  0  0  0
    8.7165  -14.8146   18.6051 C   0  0  0  0  0  0  0  0  0  0  0  0
    8.6001  -14.8544   17.2320 C   0  0  0  0  0  0  0  0  0  0  0  0
    8.6843  -16.2179   23.7099 N   0  0  0  0  0  0  0  0  0  0  0  0
    8.7412  -16.0676   25.1483 C   0  0  1  0  0  0  0  0  0  0  0  0
    7.3512  -15.7203   25.6601 C   0  0  0  0  0  0  0  0  0  0  0  0
    7.2702  -14.2979   26.0697 C   0  0  0  0  0  0  0  0  0  0  0  0
    7.9344  -13.8460   27.1887 C   0  0  0  0  0  0  0  0  0  0  0  0
    7.8378  -12.5154   27.5413 C   0  0  0  0  0  0  0  0  0  0  0  0
    7.0925  -11.6270   26.8007 C   0  0  0  0  0  0  0  0  0  0  0  0
    6.4320  -12.0865   25.6843 C   0  0  0  0  0  0  0  0  0  0  0  0
    6.5196  -13.4301   25.3140 C   0  0  0  0  0  0  0  0  0  0  0  0
    9.1887  -17.3253   25.7991 C   0  0  0  0  0  0  0  0  0  0  0  0
    8.6996  -18.4306   25.4214 O   0  0  0  0  0  0  0  0  0  0  0  0
   10.1477  -17.3031   26.8281 N   0  0  0  0  0  0  0  0  0  0  0  0
   11.5374  -17.1401   26.4712 C   0  0  0  0  0  0  0  0  0  0  0  0
   12.1799  -18.4459   26.1977 C   0  0  0  0  0  0  0  0  0  0  0  0
   11.4900  -19.4168   25.8022 O   0  0  0  0  0  0  0  0  0  0  0  0
   13.5388  -18.6361   26.3660 O   0  0  0  0  0  0  0  0  0  0  0  0
  2  1  1  0
  3  2  2  0
  4  3  1  0
  5  4  2  0
  5 11  1  0
  6  7  1  0
  6  5  1  0
  7  8  1  1
  9  7  1  0
  9 10  2  0
 11 12  2  0
 12  2  1  0
 13  9  1  0
 14 13  1  0
 14 15  1  1
 16 15  1  0
 16 21  2  0
 17 18  2  0
 17 16  1  0
 18 19  1  0
 19 20  2  0
 21 20  1  0
 22 14  1  0
 23 22  2  0
 24 22  1  0
 25 24  1  0
 26 28  1  0
 26 25  1  0
 27 26  2  0
M  END
$$$$
