YFG.pdb
     RDKit          3D

 28 29  0  0  1  0  0  0  0  0999 V2000
    7.8269  -14.5775   14.4106 O   0  0  0  0  0  0  0  0  0  0  0  0
    8.1235  -14.3711   15.7589 C   0  0  0  0  0  0  0  0  0  0  0  0
    7.5864  -13.3164   16.4672 C   0  0  0  0  0  0  0  0  0  0  0  0
    7.8994  -13.1401   17.7988 C   0  0  0  0  0  0  0  0  0  0  0  0
    8.7458  -13.9851   18.4843 C   0  0  0  0  0  0  0  0  0  0  0  0
    9.0840  -13.7939   19.9244 C   0  0  0  0  0  0  0  0  0  0  0  0
    9.1976  -15.1345   20.6343 C   0  0  2  0  0  0  0  0  0  0  0  0
    8.1024  -15.9518   20.2103 N   0  0  0  0  0  0  0  0  0  0  0  0
    9.2645  -14.9218   22.0840 C   0  0  0  0  0  0  0  0  0  0  0  0
   10.2871  -14.3682   22.5546 O   0  0  0  0  0  0  0  0  0  0  0  0
    9.2850  -15.0441   17.7727 C   0  0  0  0  0  0  0  0  0  0  0  0
    8.9708  -15.2186   16.4418 C   0  0  0  0  0  0  0  0  0  0  0  0
    8.2516  -15.2984   23.0001 N   0  0  0  0  0  0  0  0  0  0  0  0
    8.2667  -14.8867   24.3877 C   0  0  1  0  0  0  0  0  0  0  0  0
    6.8361  -14.6348   24.8398 C   0  0  0  0  0  0  0  0  0  0  0  0
    6.7916  -13.6783   25.9714 C   0  0  0  0  0  0  0  0  0  0  0  0
    6.3083  -12.4002   25.7975 C   0  0  0  0  0  0  0  0  0  0  0  0
    6.2808  -11.5354   26.8725 C   0  0  0  0  0  0  0  0  0  0  0  0
    6.7254  -11.9196   28.1166 C   0  0  0  0  0  0  0  0  0  0  0  0
    7.2068  -13.1982   28.2820 C   0  0  0  0  0  0  0  0  0  0  0  0
    7.2413  -14.0854   27.2041 C   0  0  0  0  0  0  0  0  0  0  0  0
    8.8613  -15.9394   25.2502 C   0  0  0  0  0  0  0  0  0  0  0  0
    8.9498  -15.7458   26.4985 O   0  0  0  0  0  0  0  0  0  0  0  0
    9.3264  -17.1466   24.6977 N   0  0  0  0  0  0  0  0  0  0  0  0
    9.8011  -18.1760   25.5924 C   0  0  0  0  0  0  0  0  0  0  0  0
   11.2797  -18.1788   25.6739 C   0  0  0  0  0  0  0  0  0  0  0  0
   11.8586  -17.6168   26.6352 O   0  0  0  0  0  0  0  0  0  0  0  0
   12.0589  -18.7907   24.7097 O   0  0  0  0  0  0  0  0  0  0  0  0
  2  1  1  0
  3  2  2  0
  4  3  1  0
  5  4  2  0
  5 11  1  0
  6  7  1  0
  6  5  1  0
  7  8  1  1
  9  7  1  0
  9 10  2  0
 11 12  2  0
 12  2  1  0
 13  9  1  0
 14 13  1  0
 14 15  1  1
 16 15  1  0
 16 21  2  0
 17 18  2  0
 17 16  1  0
 18 19  1  0
 19 20  2  0
 21 20  1  0
 22 14  1  0
 23 22  2  0
 24 22  1  0
 25 24  1  0
 26 28  1  0
 26 25  1  0
 27 26  2  0
M  END
$$$$
