YFG.pdb
     RDKit          3D

 28 29  0  0  1  0  0  0  0  0999 V2000
    8.5910  -24.4568   20.1909 O   0  0  0  0  0  0  0  0  0  0  0  0
    8.8208  -23.1368   20.5822 C   0  0  0  0  0  0  0  0  0  0  0  0
    9.2752  -22.1847   19.6936 C   0  0  0  0  0  0  0  0  0  0  0  0
    9.4924  -20.8886   20.1119 C   0  0  0  0  0  0  0  0  0  0  0  0
    9.2744  -20.4770   21.4093 C   0  0  0  0  0  0  0  0  0  0  0  0
    9.5096  -19.0751   21.8611 C   0  0  0  0  0  0  0  0  0  0  0  0
    8.2824  -18.2132   21.6059 C   0  0  2  0  0  0  0  0  0  0  0  0
    8.1398  -18.0578   20.1907 N   0  0  0  0  0  0  0  0  0  0  0  0
    8.4043  -16.9499   22.3411 C   0  0  0  0  0  0  0  0  0  0  0  0
    9.1648  -16.0663   21.8778 O   0  0  0  0  0  0  0  0  0  0  0  0
    8.8181  -21.4334   22.3014 C   0  0  0  0  0  0  0  0  0  0  0  0
    8.6016  -22.7284   21.8813 C   0  0  0  0  0  0  0  0  0  0  0  0
    7.7212  -16.6508   23.5457 N   0  0  0  0  0  0  0  0  0  0  0  0
    7.8816  -15.3893   24.2372 C   0  0  1  0  0  0  0  0  0  0  0  0
    6.7584  -15.2409   25.2526 C   0  0  0  0  0  0  0  0  0  0  0  0
    6.8384  -13.9376   25.9544 C   0  0  0  0  0  0  0  0  0  0  0  0
    7.7015  -13.7568   27.0126 C   0  0  0  0  0  0  0  0  0  0  0  0
    7.7508  -12.5303   27.6431 C   0  0  0  0  0  0  0  0  0  0  0  0
    6.9571  -11.4813   27.2397 C   0  0  0  0  0  0  0  0  0  0  0  0
    6.0975  -11.6702   26.1817 C   0  0  0  0  0  0  0  0  0  0  0  0
    6.0356  -12.9053   25.5330 C   0  0  0  0  0  0  0  0  0  0  0  0
    9.1819  -15.3344   24.9526 C   0  0  0  0  0  0  0  0  0  0  0  0
    9.6020  -14.2256   25.3974 O   0  0  0  0  0  0  0  0  0  0  0  0
    9.9506  -16.4972   25.1415 N   0  0  0  0  0  0  0  0  0  0  0  0
   11.2199  -16.3812   25.8204 C   0  0  0  0  0  0  0  0  0  0  0  0
   11.2124  -17.1167   27.1056 C   0  0  0  0  0  0  0  0  0  0  0  0
   10.1935  -17.7594   27.4576 O   0  0  0  0  0  0  0  0  0  0  0  0
   12.3094  -17.1200   27.9469 O   0  0  0  0  0  0  0  0  0  0  0  0
  2  1  1  0
  3  2  2  0
  4  3  1  0
  5  4  2  0
  5 11  1  0
  6  7  1  0
  6  5  1  0
  7  8  1  6
  9  7  1  0
  9 10  2  0
 11 12  2  0
 12  2  1  0
 13  9  1  0
 14 13  1  0
 14 15  1  1
 16 15  1  0
 16 21  2  0
 17 18  2  0
 17 16  1  0
 18 19  1  0
 19 20  2  0
 21 20  1  0
 22 14  1  0
 23 22  2  0
 24 22  1  0
 25 24  1  0
 26 28  1  0
 26 25  1  0
 27 26  2  0
M  END
$$$$
