YFG.pdb
     RDKit          3D

 28 29  0  0  1  0  0  0  0  0999 V2000
   -8.8182  -30.8254   23.8252 O   0  0  0  0  0  0  0  0  0  0  0  0
   -8.2657  -29.8908   24.7026 C   0  0  0  0  0  0  0  0  0  0  0  0
   -6.9235  -29.8983   25.0204 C   0  0  0  0  0  0  0  0  0  0  0  0
   -6.4085  -28.9609   25.8910 C   0  0  0  0  0  0  0  0  0  0  0  0
   -7.1835  -27.9853   26.4808 C   0  0  0  0  0  0  0  0  0  0  0  0
   -6.6259  -26.9717   27.4224 C   0  0  0  0  0  0  0  0  0  0  0  0
   -6.3334  -25.6663   26.6982 C   0  0  2  0  0  0  0  0  0  0  0  0
   -5.0662  -25.7982   26.0469 N   0  0  0  0  0  0  0  0  0  0  0  0
   -6.4108  -24.5483   27.6444 C   0  0  0  0  0  0  0  0  0  0  0  0
   -5.4261  -24.3365   28.3923 O   0  0  0  0  0  0  0  0  0  0  0  0
   -8.5313  -27.9781   26.1614 C   0  0  0  0  0  0  0  0  0  0  0  0
   -9.0443  -28.9160   25.2909 C   0  0  0  0  0  0  0  0  0  0  0  0
   -7.5241  -23.6824   27.7777 N   0  0  0  0  0  0  0  0  0  0  0  0
   -7.5410  -22.5766   28.7115 C   0  0  1  0  0  0  0  0  0  0  0  0
   -7.8422  -21.2954   27.9483 C   0  0  0  0  0  0  0  0  0  0  0  0
   -6.8211  -21.0399   26.9046 C   0  0  0  0  0  0  0  0  0  0  0  0
   -5.6071  -20.4746   27.2272 C   0  0  0  0  0  0  0  0  0  0  0  0
   -4.6790  -20.2508   26.2308 C   0  0  0  0  0  0  0  0  0  0  0  0
   -4.9374  -20.5794   24.9199 C   0  0  0  0  0  0  0  0  0  0  0  0
   -6.1526  -21.1437   24.6059 C   0  0  0  0  0  0  0  0  0  0  0  0
   -7.1025  -21.3766   25.6026 C   0  0  0  0  0  0  0  0  0  0  0  0
   -8.5853  -22.7704   29.7495 C   0  0  0  0  0  0  0  0  0  0  0  0
   -9.8070  -22.6780   29.4292 O   0  0  0  0  0  0  0  0  0  0  0  0
   -8.2339  -23.0548   31.0816 N   0  0  0  0  0  0  0  0  0  0  0  0
   -9.2887  -23.1907   32.0584 C   0  0  0  0  0  0  0  0  0  0  0  0
   -9.5428  -24.6131   32.3823 C   0  0  0  0  0  0  0  0  0  0  0  0
   -8.9748  -25.5197   31.7262 O   0  0  0  0  0  0  0  0  0  0  0  0
  -10.4002  -24.9839   33.4014 O   0  0  0  0  0  0  0  0  0  0  0  0
  2  1  1  0
  3  2  2  0
  4  3  1  0
  5  4  2  0
  5 11  1  0
  6  7  1  0
  6  5  1  0
  7  8  1  1
  9  7  1  0
  9 10  2  0
 11 12  2  0
 12  2  1  0
 13  9  1  0
 14 13  1  0
 14 15  1  6
 16 15  1  0
 16 21  2  0
 17 18  2  0
 17 16  1  0
 18 19  1  0
 19 20  2  0
 21 20  1  0
 22 14  1  0
 23 22  2  0
 24 22  1  0
 25 24  1  0
 26 28  1  0
 26 25  1  0
 27 26  2  0
M  END
$$$$
