YFG.pdb
     RDKit          3D

 28 29  0  0  1  0  0  0  0  0999 V2000
   10.2248  -22.3267   17.5522 O   0  0  0  0  0  0  0  0  0  0  0  0
   10.2942  -21.2684   18.4597 C   0  0  0  0  0  0  0  0  0  0  0  0
    9.6406  -21.3090   19.6737 C   0  0  0  0  0  0  0  0  0  0  0  0
    9.7292  -20.2466   20.5485 C   0  0  0  0  0  0  0  0  0  0  0  0
   10.4571  -19.1096   20.2699 C   0  0  0  0  0  0  0  0  0  0  0  0
   10.5525  -17.9607   21.2165 C   0  0  0  0  0  0  0  0  0  0  0  0
    9.5734  -16.8620   20.8314 C   0  0  2  0  0  0  0  0  0  0  0  0
    9.9469  -16.3717   19.5401 N   0  0  0  0  0  0  0  0  0  0  0  0
    9.5443  -15.8364   21.8796 C   0  0  0  0  0  0  0  0  0  0  0  0
   10.4383  -14.9563   21.8716 O   0  0  0  0  0  0  0  0  0  0  0  0
   11.1133  -19.0691   19.0508 C   0  0  0  0  0  0  0  0  0  0  0  0
   11.0235  -20.1322   18.1777 C   0  0  0  0  0  0  0  0  0  0  0  0
    8.5737  -15.7652   22.9091 N   0  0  0  0  0  0  0  0  0  0  0  0
    8.5283  -14.6750   23.8601 C   0  0  1  0  0  0  0  0  0  0  0  0
    7.0746  -14.3801   24.1984 C   0  0  0  0  0  0  0  0  0  0  0  0
    6.9681  -13.3190   25.2281 C   0  0  0  0  0  0  0  0  0  0  0  0
    7.6001  -12.1065   25.0612 C   0  0  0  0  0  0  0  0  0  0  0  0
    7.4797  -11.1407   26.0394 C   0  0  0  0  0  0  0  0  0  0  0  0
    6.7421  -11.3598   27.1800 C   0  0  0  0  0  0  0  0  0  0  0  0
    6.1138  -12.5739   27.3392 C   0  0  0  0  0  0  0  0  0  0  0  0
    6.2258  -13.5617   26.3585 C   0  0  0  0  0  0  0  0  0  0  0  0
    9.2472  -15.0276   25.1109 C   0  0  0  0  0  0  0  0  0  0  0  0
    9.4020  -14.1489   26.0095 O   0  0  0  0  0  0  0  0  0  0  0  0
    9.7569  -16.3237   25.3087 N   0  0  0  0  0  0  0  0  0  0  0  0
   10.4515  -16.6101   26.5419 C   0  0  0  0  0  0  0  0  0  0  0  0
   10.8675  -18.0297   26.6086 C   0  0  0  0  0  0  0  0  0  0  0  0
   11.4544  -18.4669   27.6282 O   0  0  0  0  0  0  0  0  0  0  0  0
   10.6274  -18.9065   25.5671 O   0  0  0  0  0  0  0  0  0  0  0  0
  2  1  1  0
  3  2  2  0
  4  3  1  0
  5  4  2  0
  5 11  1  0
  6  7  1  0
  6  5  1  0
  7  8  1  6
  9  7  1  0
  9 10  2  0
 11 12  2  0
 12  2  1  0
 13  9  1  0
 14 13  1  0
 14 15  1  1
 16 15  1  0
 16 21  2  0
 17 18  2  0
 17 16  1  0
 18 19  1  0
 19 20  2  0
 21 20  1  0
 22 14  1  0
 23 22  2  0
 24 22  1  0
 25 24  1  0
 26 28  1  0
 26 25  1  0
 27 26  2  0
M  END
$$$$
