YFG.pdb
     RDKit          3D

 28 29  0  0  1  0  0  0  0  0999 V2000
    9.1031  -22.5669   15.1910 O   0  0  0  0  0  0  0  0  0  0  0  0
    9.3713  -21.7018   16.2532 C   0  0  0  0  0  0  0  0  0  0  0  0
    8.4783  -21.5261   17.2897 C   0  0  0  0  0  0  0  0  0  0  0  0
    8.7733  -20.6637   18.3247 C   0  0  0  0  0  0  0  0  0  0  0  0
    9.9475  -19.9441   18.3844 C   0  0  0  0  0  0  0  0  0  0  0  0
   10.2659  -19.0114   19.5041 C   0  0  0  0  0  0  0  0  0  0  0  0
    9.6016  -17.6604   19.2861 C   0  0  2  0  0  0  0  0  0  0  0  0
   10.0376  -17.1541   18.0208 N   0  0  0  0  0  0  0  0  0  0  0  0
    9.8930  -16.7777   20.4206 C   0  0  0  0  0  0  0  0  0  0  0  0
   10.8456  -15.9687   20.3119 O   0  0  0  0  0  0  0  0  0  0  0  0
   10.8440  -20.1207   17.3435 C   0  0  0  0  0  0  0  0  0  0  0  0
   10.5473  -20.9833   16.3097 C   0  0  0  0  0  0  0  0  0  0  0  0
    9.1726  -16.7706   21.6405 N   0  0  0  0  0  0  0  0  0  0  0  0
    9.3893  -15.7715   22.6651 C   0  0  1  0  0  0  0  0  0  0  0  0
    8.0933  -15.0054   22.8845 C   0  0  0  0  0  0  0  0  0  0  0  0
    7.6769  -14.2920   21.6536 C   0  0  0  0  0  0  0  0  0  0  0  0
    8.2571  -13.0934   21.3012 C   0  0  0  0  0  0  0  0  0  0  0  0
    7.8460  -12.4560   20.1484 C   0  0  0  0  0  0  0  0  0  0  0  0
    6.8684  -12.9898   19.3406 C   0  0  0  0  0  0  0  0  0  0  0  0
    6.2938  -14.1876   19.6997 C   0  0  0  0  0  0  0  0  0  0  0  0
    6.6988  -14.8452   20.8632 C   0  0  0  0  0  0  0  0  0  0  0  0
    9.7942  -16.4014   23.9477 C   0  0  0  0  0  0  0  0  0  0  0  0
    9.9977  -15.6725   24.9630 O   0  0  0  0  0  0  0  0  0  0  0  0
    9.9538  -17.7955   24.0475 N   0  0  0  0  0  0  0  0  0  0  0  0
   11.1802  -18.3849   23.5638 C   0  0  0  0  0  0  0  0  0  0  0  0
   12.2645  -18.2706   24.5658 C   0  0  0  0  0  0  0  0  0  0  0  0
   12.0032  -18.3625   25.7899 O   0  0  0  0  0  0  0  0  0  0  0  0
   13.5792  -18.0623   24.1926 O   0  0  0  0  0  0  0  0  0  0  0  0
  2  1  1  0
  3  2  2  0
  4  3  1  0
  5  4  2  0
  5 11  1  0
  6  7  1  0
  6  5  1  0
  7  8  1  6
  9  7  1  0
  9 10  2  0
 11 12  2  0
 12  2  1  0
 13  9  1  0
 14 13  1  0
 14 15  1  1
 16 15  1  0
 16 21  2  0
 17 18  2  0
 17 16  1  0
 18 19  1  0
 19 20  2  0
 21 20  1  0
 22 14  1  0
 23 22  2  0
 24 22  1  0
 25 24  1  0
 26 28  1  0
 26 25  1  0
 27 26  2  0
M  END
$$$$
