YFG.pdb
     RDKit          3D

 28 29  0  0  1  0  0  0  0  0999 V2000
    7.3156  -14.1729   15.9637 O   0  0  0  0  0  0  0  0  0  0  0  0
    7.7135  -14.1160   17.3004 C   0  0  0  0  0  0  0  0  0  0  0  0
    8.7671  -14.8680   17.7769 C   0  0  0  0  0  0  0  0  0  0  0  0
    9.1355  -14.7891   19.1036 C   0  0  0  0  0  0  0  0  0  0  0  0
    8.4900  -13.9752   20.0099 C   0  0  0  0  0  0  0  0  0  0  0  0
    8.8888  -13.8903   21.4447 C   0  0  0  0  0  0  0  0  0  0  0  0
    9.2390  -15.2668   21.9895 C   0  0  2  0  0  0  0  0  0  0  0  0
    8.1189  -16.1280   21.7635 N   0  0  0  0  0  0  0  0  0  0  0  0
    9.6381  -15.1545   23.3964 C   0  0  0  0  0  0  0  0  0  0  0  0
   10.5998  -14.4007   23.6805 O   0  0  0  0  0  0  0  0  0  0  0  0
    7.4321  -13.2202   19.5310 C   0  0  0  0  0  0  0  0  0  0  0  0
    7.0654  -13.3005   18.2045 C   0  0  0  0  0  0  0  0  0  0  0  0
    9.0132  -15.8397   24.4673 N   0  0  0  0  0  0  0  0  0  0  0  0
    9.4077  -15.6498   25.8469 C   0  0  1  0  0  0  0  0  0  0  0  0
    8.1580  -15.4466   26.6904 C   0  0  0  0  0  0  0  0  0  0  0  0
    7.6393  -14.0644   26.5565 C   0  0  0  0  0  0  0  0  0  0  0  0
    6.4051  -13.8244   25.9937 C   0  0  0  0  0  0  0  0  0  0  0  0
    5.9525  -12.5254   25.8847 C   0  0  0  0  0  0  0  0  0  0  0  0
    6.7057  -11.4616   26.3254 C   0  0  0  0  0  0  0  0  0  0  0  0
    7.9376  -11.7099   26.8863 C   0  0  0  0  0  0  0  0  0  0  0  0
    8.4099  -13.0187   27.0039 C   0  0  0  0  0  0  0  0  0  0  0  0
   10.1422  -16.8343   26.3599 C   0  0  0  0  0  0  0  0  0  0  0  0
   10.6494  -16.7988   27.5197 O   0  0  0  0  0  0  0  0  0  0  0  0
   10.2807  -17.9928   25.5741 N   0  0  0  0  0  0  0  0  0  0  0  0
   11.0452  -19.0974   26.1039 C   0  0  0  0  0  0  0  0  0  0  0  0
   10.3178  -19.7799   27.1984 C   0  0  0  0  0  0  0  0  0  0  0  0
    9.1846  -19.3723   27.5517 O   0  0  0  0  0  0  0  0  0  0  0  0
   10.8538  -20.8709   27.8568 O   0  0  0  0  0  0  0  0  0  0  0  0
  2  1  1  0
  3  2  2  0
  4  3  1  0
  5  4  2  0
  5 11  1  0
  6  7  1  0
  6  5  1  0
  7  8  1  1
  9  7  1  0
  9 10  2  0
 11 12  2  0
 12  2  1  0
 13  9  1  0
 14 13  1  0
 14 15  1  1
 16 15  1  0
 16 21  2  0
 17 18  2  0
 17 16  1  0
 18 19  1  0
 19 20  2  0
 21 20  1  0
 22 14  1  0
 23 22  2  0
 24 22  1  0
 25 24  1  0
 26 28  1  0
 26 25  1  0
 27 26  2  0
M  END
$$$$
