YFG.pdb
     RDKit          3D

 28 29  0  0  1  0  0  0  0  0999 V2000
    7.5917  -13.4934   15.9355 O   0  0  0  0  0  0  0  0  0  0  0  0
    7.6876  -13.9496   17.2512 C   0  0  0  0  0  0  0  0  0  0  0  0
    8.1212  -15.2250   17.5476 C   0  0  0  0  0  0  0  0  0  0  0  0
    8.2047  -15.6455   18.8584 C   0  0  0  0  0  0  0  0  0  0  0  0
    7.8687  -14.8377   19.9237 C   0  0  0  0  0  0  0  0  0  0  0  0
    7.9592  -15.2930   21.3413 C   0  0  0  0  0  0  0  0  0  0  0  0
    9.1318  -14.6291   22.0472 C   0  0  2  0  0  0  0  0  0  0  0  0
   10.2796  -14.7473   21.2010 N   0  0  0  0  0  0  0  0  0  0  0  0
    9.3032  -15.2167   23.3800 C   0  0  0  0  0  0  0  0  0  0  0  0
   10.4673  -15.4834   23.7641 O   0  0  0  0  0  0  0  0  0  0  0  0
    7.4334  -13.5570   19.6258 C   0  0  0  0  0  0  0  0  0  0  0  0
    7.3506  -13.1386   18.3148 C   0  0  0  0  0  0  0  0  0  0  0  0
    8.2431  -15.5079   24.2735 N   0  0  0  0  0  0  0  0  0  0  0  0
    8.4698  -15.8712   25.6561 C   0  0  1  0  0  0  0  0  0  0  0  0
    7.2460  -15.4821   26.4720 C   0  0  0  0  0  0  0  0  0  0  0  0
    7.0903  -14.0093   26.5364 C   0  0  0  0  0  0  0  0  0  0  0  0
    6.0372  -13.3821   25.9080 C   0  0  0  0  0  0  0  0  0  0  0  0
    5.9221  -12.0093   25.9885 C   0  0  0  0  0  0  0  0  0  0  0  0
    6.8358  -11.2501   26.6827 C   0  0  0  0  0  0  0  0  0  0  0  0
    7.8850  -11.8844   27.3077 C   0  0  0  0  0  0  0  0  0  0  0  0
    8.0156  -13.2729   27.2358 C   0  0  0  0  0  0  0  0  0  0  0  0
    8.6903  -17.3333   25.7946 C   0  0  0  0  0  0  0  0  0  0  0  0
    7.9503  -18.0042   26.5730 O   0  0  0  0  0  0  0  0  0  0  0  0
    9.7096  -17.9803   25.0725 N   0  0  0  0  0  0  0  0  0  0  0  0
   10.2075  -19.2433   25.5649 C   0  0  0  0  0  0  0  0  0  0  0  0
   11.1877  -19.8380   24.6277 C   0  0  0  0  0  0  0  0  0  0  0  0
   11.8467  -19.1013   23.8543 O   0  0  0  0  0  0  0  0  0  0  0  0
   11.4060  -21.2020   24.5742 O   0  0  0  0  0  0  0  0  0  0  0  0
  2  1  1  0
  3  2  2  0
  4  3  1  0
  5  4  2  0
  5 11  1  0
  6  7  1  0
  6  5  1  0
  7  8  1  6
  9  7  1  0
  9 10  2  0
 11 12  2  0
 12  2  1  0
 13  9  1  0
 14 13  1  0
 14 15  1  1
 16 15  1  0
 16 21  2  0
 17 18  2  0
 17 16  1  0
 18 19  1  0
 19 20  2  0
 21 20  1  0
 22 14  1  0
 23 22  2  0
 24 22  1  0
 25 24  1  0
 26 28  1  0
 26 25  1  0
 27 26  2  0
M  END
$$$$
