YFG.pdb
     RDKit          3D

 28 29  0  0  1  0  0  0  0  0999 V2000
   10.9861  -14.3934   31.2006 O   0  0  0  0  0  0  0  0  0  0  0  0
   10.6222  -15.0464   30.0218 C   0  0  0  0  0  0  0  0  0  0  0  0
   10.1186  -14.3592   28.9370 C   0  0  0  0  0  0  0  0  0  0  0  0
    9.7684  -15.0340   27.7863 C   0  0  0  0  0  0  0  0  0  0  0  0
    9.8970  -16.4001   27.6542 C   0  0  0  0  0  0  0  0  0  0  0  0
    9.5180  -17.1293   26.4094 C   0  0  0  0  0  0  0  0  0  0  0  0
    8.0065  -17.1578   26.2401 C   0  0  2  0  0  0  0  0  0  0  0  0
    7.5618  -18.4971   26.4764 N   0  0  0  0  0  0  0  0  0  0  0  0
    7.6471  -16.6279   24.9205 C   0  0  0  0  0  0  0  0  0  0  0  0
    6.8463  -17.2880   24.2156 O   0  0  0  0  0  0  0  0  0  0  0  0
   10.4028  -17.0898   28.7437 C   0  0  0  0  0  0  0  0  0  0  0  0
   10.7523  -16.4135   29.8931 C   0  0  0  0  0  0  0  0  0  0  0  0
    8.1410  -15.4160   24.3781 N   0  0  0  0  0  0  0  0  0  0  0  0
    7.5491  -14.7860   23.2172 C   0  0  1  0  0  0  0  0  0  0  0  0
    7.5612  -13.2781   23.4183 C   0  0  0  0  0  0  0  0  0  0  0  0
    7.1901  -12.9192   24.8079 C   0  0  0  0  0  0  0  0  0  0  0  0
    5.9483  -13.2370   25.3121 C   0  0  0  0  0  0  0  0  0  0  0  0
    5.6358  -12.8884   26.6102 C   0  0  0  0  0  0  0  0  0  0  0  0
    6.5366  -12.2295   27.4149 C   0  0  0  0  0  0  0  0  0  0  0  0
    7.7751  -11.9156   26.9037 C   0  0  0  0  0  0  0  0  0  0  0  0
    8.1068  -12.2615   25.5920 C   0  0  0  0  0  0  0  0  0  0  0  0
    8.3145  -15.1093   21.9862 C   0  0  0  0  0  0  0  0  0  0  0  0
    7.8880  -14.7072   20.8636 O   0  0  0  0  0  0  0  0  0  0  0  0
    9.5051  -15.8555   22.0525 N   0  0  0  0  0  0  0  0  0  0  0  0
   10.2062  -16.1448   20.8236 C   0  0  0  0  0  0  0  0  0  0  0  0
   11.4438  -16.9170   21.0786 C   0  0  0  0  0  0  0  0  0  0  0  0
   11.6977  -17.3365   22.2339 O   0  0  0  0  0  0  0  0  0  0  0  0
   12.3460  -17.1970   20.0693 O   0  0  0  0  0  0  0  0  0  0  0  0
  2  1  1  0
  3  2  2  0
  4  3  1  0
  5  4  2  0
  5 11  1  0
  6  7  1  0
  6  5  1  0
  7  8  1  6
  9  7  1  0
  9 10  2  0
 11 12  2  0
 12  2  1  0
 13  9  1  0
 14 13  1  0
 14 15  1  1
 16 15  1  0
 16 21  2  0
 17 18  2  0
 17 16  1  0
 18 19  1  0
 19 20  2  0
 21 20  1  0
 22 14  1  0
 23 22  2  0
 24 22  1  0
 25 24  1  0
 26 28  1  0
 26 25  1  0
 27 26  2  0
M  END
$$$$
