YFG.pdb
     RDKit          3D

 28 29  0  0  1  0  0  0  0  0999 V2000
    7.8264  -14.2784   15.5352 O   0  0  0  0  0  0  0  0  0  0  0  0
    8.1543  -14.1975   16.8895 C   0  0  0  0  0  0  0  0  0  0  0  0
    7.7540  -13.1338   17.6711 C   0  0  0  0  0  0  0  0  0  0  0  0
    8.0945  -13.0836   19.0066 C   0  0  0  0  0  0  0  0  0  0  0  0
    8.8360  -14.0675   19.6249 C   0  0  0  0  0  0  0  0  0  0  0  0
    9.2040  -14.0126   21.0694 C   0  0  0  0  0  0  0  0  0  0  0  0
    8.4631  -15.0835   21.8557 C   0  0  2  0  0  0  0  0  0  0  0  0
    7.0640  -14.9308   21.5976 N   0  0  0  0  0  0  0  0  0  0  0  0
    8.8269  -14.9957   23.2739 C   0  0  0  0  0  0  0  0  0  0  0  0
    9.5495  -14.0384   23.6416 O   0  0  0  0  0  0  0  0  0  0  0  0
    9.2379  -15.1355   18.8398 C   0  0  0  0  0  0  0  0  0  0  0  0
    8.8965  -15.1839   17.5050 C   0  0  0  0  0  0  0  0  0  0  0  0
    8.4196  -15.9194   24.2678 N   0  0  0  0  0  0  0  0  0  0  0  0
    8.8496  -15.8177   25.6462 C   0  0  1  0  0  0  0  0  0  0  0  0
    7.6300  -15.5781   26.5236 C   0  0  0  0  0  0  0  0  0  0  0  0
    7.1843  -14.1662   26.4487 C   0  0  0  0  0  0  0  0  0  0  0  0
    5.9860  -13.8342   25.8559 C   0  0  0  0  0  0  0  0  0  0  0  0
    5.6013  -12.5100   25.8037 C   0  0  0  0  0  0  0  0  0  0  0  0
    6.3873  -11.5110   26.3304 C   0  0  0  0  0  0  0  0  0  0  0  0
    7.5829  -11.8512   26.9209 C   0  0  0  0  0  0  0  0  0  0  0  0
    7.9865  -13.1866   26.9819 C   0  0  0  0  0  0  0  0  0  0  0  0
    9.5187  -17.0670   26.0901 C   0  0  0  0  0  0  0  0  0  0  0  0
    9.8756  -17.1870   27.2992 O   0  0  0  0  0  0  0  0  0  0  0  0
    9.7603  -18.1164   25.1850 N   0  0  0  0  0  0  0  0  0  0  0  0
   10.4511  -19.2916   25.6612 C   0  0  0  0  0  0  0  0  0  0  0  0
   11.9154  -19.0751   25.7044 C   0  0  0  0  0  0  0  0  0  0  0  0
   12.4545  -18.6205   26.7426 O   0  0  0  0  0  0  0  0  0  0  0  0
   12.7241  -19.3618   24.6205 O   0  0  0  0  0  0  0  0  0  0  0  0
  2  1  1  0
  3  2  2  0
  4  3  1  0
  5  4  2  0
  5 11  1  0
  6  7  1  0
  6  5  1  0
  7  8  1  1
  9  7  1  0
  9 10  2  0
 11 12  2  0
 12  2  1  0
 13  9  1  0
 14 13  1  0
 14 15  1  1
 16 15  1  0
 16 21  2  0
 17 18  2  0
 17 16  1  0
 18 19  1  0
 19 20  2  0
 21 20  1  0
 22 14  1  0
 23 22  2  0
 24 22  1  0
 25 24  1  0
 26 28  1  0
 26 25  1  0
 27 26  2  0
M  END
$$$$
