YFG.pdb
     RDKit          3D

 28 29  0  0  1  0  0  0  0  0999 V2000
    7.6455  -13.9455   15.9457 O   0  0  0  0  0  0  0  0  0  0  0  0
    7.6920  -14.0313   17.3381 C   0  0  0  0  0  0  0  0  0  0  0  0
    7.5948  -15.2404   17.9946 C   0  0  0  0  0  0  0  0  0  0  0  0
    7.6442  -15.2913   19.3719 C   0  0  0  0  0  0  0  0  0  0  0  0
    7.7898  -14.1664   20.1552 C   0  0  0  0  0  0  0  0  0  0  0  0
    7.8431  -14.2220   21.6448 C   0  0  0  0  0  0  0  0  0  0  0  0
    8.5586  -15.4805   22.1122 C   0  0  2  0  0  0  0  0  0  0  0  0
    7.6167  -16.5573   22.0886 N   0  0  0  0  0  0  0  0  0  0  0  0
    9.1692  -15.2432   23.4246 C   0  0  0  0  0  0  0  0  0  0  0  0
   10.1160  -14.4234   23.4975 O   0  0  0  0  0  0  0  0  0  0  0  0
    7.8874  -12.9523   19.4956 C   0  0  0  0  0  0  0  0  0  0  0  0
    7.8378  -12.9035   18.1188 C   0  0  0  0  0  0  0  0  0  0  0  0
    8.7659  -15.8763   24.6261 N   0  0  0  0  0  0  0  0  0  0  0  0
    9.3756  -15.5775   25.9043 C   0  0  1  0  0  0  0  0  0  0  0  0
    8.2761  -15.3038   26.9197 C   0  0  0  0  0  0  0  0  0  0  0  0
    7.6381  -13.9877   26.6779 C   0  0  0  0  0  0  0  0  0  0  0  0
    6.4283  -13.8982   26.0254 C   0  0  0  0  0  0  0  0  0  0  0  0
    5.8623  -12.6571   25.8172 C   0  0  0  0  0  0  0  0  0  0  0  0
    6.4783  -11.5041   26.2466 C   0  0  0  0  0  0  0  0  0  0  0  0
    7.6868  -11.6022   26.8977 C   0  0  0  0  0  0  0  0  0  0  0  0
    8.2728  -12.8507   27.1161 C   0  0  0  0  0  0  0  0  0  0  0  0
   10.1951  -16.7191   26.3846 C   0  0  0  0  0  0  0  0  0  0  0  0
   10.8496  -16.6063   27.4628 O   0  0  0  0  0  0  0  0  0  0  0  0
   10.2526  -17.9218   25.6573 N   0  0  0  0  0  0  0  0  0  0  0  0
   11.1478  -18.9597   26.1120 C   0  0  0  0  0  0  0  0  0  0  0  0
   10.6751  -19.5612   27.3799 C   0  0  0  0  0  0  0  0  0  0  0  0
    9.5940  -19.1821   27.8924 O   0  0  0  0  0  0  0  0  0  0  0  0
   11.3968  -20.5444   28.0307 O   0  0  0  0  0  0  0  0  0  0  0  0
  2  1  1  0
  3  2  2  0
  4  3  1  0
  5  4  2  0
  5 11  1  0
  6  7  1  0
  6  5  1  0
  7  8  1  1
  9  7  1  0
  9 10  2  0
 11 12  2  0
 12  2  1  0
 13  9  1  0
 14 13  1  0
 14 15  1  1
 16 15  1  0
 16 21  2  0
 17 18  2  0
 17 16  1  0
 18 19  1  0
 19 20  2  0
 21 20  1  0
 22 14  1  0
 23 22  2  0
 24 22  1  0
 25 24  1  0
 26 28  1  0
 26 25  1  0
 27 26  2  0
M  END
$$$$
