YFG.pdb
     RDKit          3D

 28 29  0  0  1  0  0  0  0  0999 V2000
    7.5123  -13.4540   16.1622 O   0  0  0  0  0  0  0  0  0  0  0  0
    7.7152  -13.5266   17.5414 C   0  0  0  0  0  0  0  0  0  0  0  0
    8.7499  -12.8556   18.1593 C   0  0  0  0  0  0  0  0  0  0  0  0
    8.9232  -12.9479   19.5244 C   0  0  0  0  0  0  0  0  0  0  0  0
    8.0947  -13.6966   20.3326 C   0  0  0  0  0  0  0  0  0  0  0  0
    8.2826  -13.7961   21.8090 C   0  0  0  0  0  0  0  0  0  0  0  0
    9.0162  -15.0777   22.1740 C   0  0  2  0  0  0  0  0  0  0  0  0
    8.2066  -16.1822   21.7592 N   0  0  0  0  0  0  0  0  0  0  0  0
    9.3394  -15.0718   23.6047 C   0  0  0  0  0  0  0  0  0  0  0  0
   10.2175  -14.2727   24.0100 O   0  0  0  0  0  0  0  0  0  0  0  0
    7.0557  -14.3702   19.7118 C   0  0  0  0  0  0  0  0  0  0  0  0
    6.8841  -14.2767   18.3471 C   0  0  0  0  0  0  0  0  0  0  0  0
    8.7285  -15.9083   24.5712 N   0  0  0  0  0  0  0  0  0  0  0  0
    9.0562  -15.8368   25.9792 C   0  0  1  0  0  0  0  0  0  0  0  0
    7.7726  -15.6394   26.7717 C   0  0  0  0  0  0  0  0  0  0  0  0
    7.3467  -14.2195   26.7579 C   0  0  0  0  0  0  0  0  0  0  0  0
    6.1435  -13.8483   26.1994 C   0  0  0  0  0  0  0  0  0  0  0  0
    5.7777  -12.5177   26.2039 C   0  0  0  0  0  0  0  0  0  0  0  0
    6.5874  -11.5507   26.7539 C   0  0  0  0  0  0  0  0  0  0  0  0
    7.7878  -11.9299   27.3098 C   0  0  0  0  0  0  0  0  0  0  0  0
    8.1725  -13.2723   27.3133 C   0  0  0  0  0  0  0  0  0  0  0  0
    9.7129  -17.0872   26.4385 C   0  0  0  0  0  0  0  0  0  0  0  0
    9.8120  -17.3195   27.6794 O   0  0  0  0  0  0  0  0  0  0  0  0
   10.2252  -18.0145   25.5130 N   0  0  0  0  0  0  0  0  0  0  0  0
   10.7697  -19.2558   26.0110 C   0  0  0  0  0  0  0  0  0  0  0  0
   11.2762  -20.1030   24.9071 C   0  0  0  0  0  0  0  0  0  0  0  0
   11.2245  -19.6915   23.7226 O   0  0  0  0  0  0  0  0  0  0  0  0
   11.8140  -21.3550   25.1405 O   0  0  0  0  0  0  0  0  0  0  0  0
  2  1  1  0
  3  2  2  0
  4  3  1  0
  5  4  2  0
  5 11  1  0
  6  7  1  0
  6  5  1  0
  7  8  1  1
  9  7  1  0
  9 10  2  0
 11 12  2  0
 12  2  1  0
 13  9  1  0
 14 13  1  0
 14 15  1  1
 16 15  1  0
 16 21  2  0
 17 18  2  0
 17 16  1  0
 18 19  1  0
 19 20  2  0
 21 20  1  0
 22 14  1  0
 23 22  2  0
 24 22  1  0
 25 24  1  0
 26 28  1  0
 26 25  1  0
 27 26  2  0
M  END
$$$$
