YFG.pdb
     RDKit          3D

 28 29  0  0  1  0  0  0  0  0999 V2000
    8.8101  -22.0439   17.0891 O   0  0  0  0  0  0  0  0  0  0  0  0
    9.0204  -21.1993   18.1804 C   0  0  0  0  0  0  0  0  0  0  0  0
   10.2840  -20.9556   18.6770 C   0  0  0  0  0  0  0  0  0  0  0  0
   10.4581  -20.1157   19.7569 C   0  0  0  0  0  0  0  0  0  0  0  0
    9.4075  -19.4855   20.3888 C   0  0  0  0  0  0  0  0  0  0  0  0
    9.5964  -18.5772   21.5568 C   0  0  0  0  0  0  0  0  0  0  0  0
    9.5028  -17.1207   21.1280 C   0  0  2  0  0  0  0  0  0  0  0  0
   10.6262  -16.8354   20.2891 N   0  0  0  0  0  0  0  0  0  0  0  0
    9.4027  -16.2622   22.3130 C   0  0  0  0  0  0  0  0  0  0  0  0
   10.4638  -15.9259   22.8916 O   0  0  0  0  0  0  0  0  0  0  0  0
    8.1387  -19.7304   19.8899 C   0  0  0  0  0  0  0  0  0  0  0  0
    7.9668  -20.5703   18.8103 C   0  0  0  0  0  0  0  0  0  0  0  0
    8.1868  -15.7805   22.8574 N   0  0  0  0  0  0  0  0  0  0  0  0
    8.1430  -14.9211   24.0213 C   0  0  1  0  0  0  0  0  0  0  0  0
    7.0579  -13.8745   23.8171 C   0  0  0  0  0  0  0  0  0  0  0  0
    6.9255  -12.9998   25.0066 C   0  0  0  0  0  0  0  0  0  0  0  0
    7.7631  -11.9214   25.1872 C   0  0  0  0  0  0  0  0  0  0  0  0
    7.6121  -11.1275   26.3059 C   0  0  0  0  0  0  0  0  0  0  0  0
    6.6429  -11.3877   27.2473 C   0  0  0  0  0  0  0  0  0  0  0  0
    5.8102  -12.4671   27.0593 C   0  0  0  0  0  0  0  0  0  0  0  0
    5.9501  -13.2801   25.9327 C   0  0  0  0  0  0  0  0  0  0  0  0
    7.8311  -15.6988   25.2475 C   0  0  0  0  0  0  0  0  0  0  0  0
    6.8663  -16.5189   25.2367 O   0  0  0  0  0  0  0  0  0  0  0  0
    8.5934  -15.5351   26.4184 N   0  0  0  0  0  0  0  0  0  0  0  0
   10.0300  -15.6483   26.3266 C   0  0  0  0  0  0  0  0  0  0  0  0
   10.4833  -17.0221   26.6430 C   0  0  0  0  0  0  0  0  0  0  0  0
    9.6570  -17.9662   26.6754 O   0  0  0  0  0  0  0  0  0  0  0  0
   11.8099  -17.3060   26.9089 O   0  0  0  0  0  0  0  0  0  0  0  0
  2  1  1  0
  3  2  2  0
  4  3  1  0
  5  4  2  0
  5 11  1  0
  6  7  1  0
  6  5  1  0
  7  8  1  1
  9  7  1  0
  9 10  2  0
 11 12  2  0
 12  2  1  0
 13  9  1  0
 14 13  1  0
 14 15  1  6
 16 15  1  0
 16 21  2  0
 17 18  2  0
 17 16  1  0
 18 19  1  0
 19 20  2  0
 21 20  1  0
 22 14  1  0
 23 22  2  0
 24 22  1  0
 25 24  1  0
 26 28  1  0
 26 25  1  0
 27 26  2  0
M  END
$$$$
