YPV.pdb
     RDKit          3D

 27 28  0  0  1  0  0  0  0  0999 V2000
    7.3153  -13.4138   16.0006 O   0  0  0  0  0  0  0  0  0  0  0  0
    7.3795  -13.7618   17.3386 C   0  0  0  0  0  0  0  0  0  0  0  0
    7.2217  -15.0721   17.7243 C   0  0  0  0  0  0  0  0  0  0  0  0
    7.2894  -15.3967   19.0652 C   0  0  0  0  0  0  0  0  0  0  0  0
    7.5137  -14.4209   20.0238 C   0  0  0  0  0  0  0  0  0  0  0  0
    7.5941  -14.7343   21.4741 C   0  0  0  0  0  0  0  0  0  0  0  0
    8.9370  -14.2262   22.0133 C   0  0  2  0  0  0  0  0  0  0  0  0
    9.9453  -14.8592   21.2150 N   0  0  0  0  0  0  0  0  0  0  0  0
    9.0893  -14.5252   23.4521 C   0  0  0  0  0  0  0  0  0  0  0  0
   10.1105  -15.2203   23.7871 O   0  0  0  0  0  0  0  0  0  0  0  0
    7.6686  -13.1035   19.5939 C   0  0  0  0  0  0  0  0  0  0  0  0
    7.6031  -12.7689   18.2615 C   0  0  0  0  0  0  0  0  0  0  0  0
    8.2189  -14.1145   24.4588 N   0  0  0  0  0  0  0  0  0  0  0  0
    6.8473  -13.6665   24.2737 C   0  0  0  0  0  0  0  0  0  0  0  0
    6.5947  -12.6854   25.4037 C   0  0  0  0  0  0  0  0  0  0  0  0
    7.6939  -12.8610   26.4050 C   0  0  0  0  0  0  0  0  0  0  0  0
    8.4642  -14.0389   25.8791 C   0  0  1  0  0  0  0  0  0  0  0  0
    8.0271  -15.2676   26.5854 C   0  0  0  0  0  0  0  0  0  0  0  0
    7.1311  -16.0297   26.1290 O   0  0  0  0  0  0  0  0  0  0  0  0
   10.2782  -14.9770   30.1540 C   0  0  0  0  0  0  0  0  0  0  0  0
   10.8599  -15.0103   28.7495 C   0  0  2  0  0  0  0  0  0  0  0  0
   10.9570  -13.6127   28.2147 C   0  0  0  0  0  0  0  0  0  0  0  0
   10.0704  -15.9387   27.8539 C   0  0  2  0  0  0  0  0  0  0  0  0
    8.6606  -15.5737   27.8227 N   0  0  0  0  0  0  0  0  0  0  0  0
   10.1824  -17.3098   28.3837 C   0  0  0  0  0  0  0  0  0  0  0  0
   11.2968  -17.8690   28.4160 O   0  0  0  0  0  0  0  0  0  0  0  0
    9.0774  -17.9873   28.8449 O   0  0  0  0  0  0  0  0  0  0  0  0
  2  3  2  0
  2  1  1  0
  4  3  1  0
  5  4  2  0
  6  5  1  0
  7  6  1  0
  7  9  1  0
  7  8  1  6
  9 10  2  0
  9 13  1  0
 11  5  1  0
 11 12  2  0
 12  2  1  0
 13 14  1  0
 14 15  1  0
 16 15  1  0
 17 13  1  0
 17 16  1  0
 17 18  1  1
 19 18  2  0
 21 20  1  1
 21 22  1  0
 23 21  1  0
 23 24  1  1
 24 18  1  0
 25 23  1  0
 26 25  2  0
 27 25  1  0
M  END
$$$$
