YPV.pdb
     RDKit          3D

 27 28  0  0  1  0  0  0  0  0999 V2000
   11.2517  -14.9876   32.1601 O   0  0  0  0  0  0  0  0  0  0  0  0
   10.8089  -15.2850   30.8831 C   0  0  0  0  0  0  0  0  0  0  0  0
   10.3274  -14.2903   30.0651 C   0  0  0  0  0  0  0  0  0  0  0  0
    9.8905  -14.6100   28.7943 C   0  0  0  0  0  0  0  0  0  0  0  0
    9.9315  -15.9171   28.3348 C   0  0  0  0  0  0  0  0  0  0  0  0
    9.4717  -16.2965   26.9737 C   0  0  0  0  0  0  0  0  0  0  0  0
    7.9585  -16.5424   27.0165 C   0  0  2  0  0  0  0  0  0  0  0  0
    7.7950  -17.9263   27.3520 N   0  0  0  0  0  0  0  0  0  0  0  0
    7.3184  -16.1963   25.7306 C   0  0  0  0  0  0  0  0  0  0  0  0
    6.6843  -17.1357   25.1359 O   0  0  0  0  0  0  0  0  0  0  0  0
   10.4263  -16.8981   29.1934 C   0  0  0  0  0  0  0  0  0  0  0  0
   10.8639  -16.5912   30.4607 C   0  0  0  0  0  0  0  0  0  0  0  0
    7.3514  -14.9432   25.1237 N   0  0  0  0  0  0  0  0  0  0  0  0
    7.8016  -13.7052   25.7408 C   0  0  0  0  0  0  0  0  0  0  0  0
    7.0027  -12.6093   25.0599 C   0  0  0  0  0  0  0  0  0  0  0  0
    6.3793  -13.2029   23.8349 C   0  0  0  0  0  0  0  0  0  0  0  0
    6.9592  -14.5879   23.7809 C   0  0  1  0  0  0  0  0  0  0  0  0
    8.1080  -14.6041   22.8430 C   0  0  0  0  0  0  0  0  0  0  0  0
    9.1939  -14.0116   23.0907 O   0  0  0  0  0  0  0  0  0  0  0  0
    7.8119  -17.9130   20.2959 C   0  0  0  0  0  0  0  0  0  0  0  0
    9.0835  -17.3900   20.9455 C   0  0  2  0  0  0  0  0  0  0  0  0
    9.2274  -17.9851   22.3143 C   0  0  0  0  0  0  0  0  0  0  0  0
    9.1140  -15.8779   20.9457 C   0  0  2  0  0  0  0  0  0  0  0  0
    7.9507  -15.3241   21.6252 N   0  0  0  0  0  0  0  0  0  0  0  0
    9.1016  -15.4079   19.5485 C   0  0  0  0  0  0  0  0  0  0  0  0
    8.0378  -14.9921   19.0474 O   0  0  0  0  0  0  0  0  0  0  0  0
   10.2450  -15.4190   18.7834 O   0  0  0  0  0  0  0  0  0  0  0  0
  2  3  2  0
  2  1  1  0
  4  3  1  0
  5  4  2  0
  6  5  1  0
  7  6  1  0
  7  9  1  0
  7  8  1  6
  9 10  2  0
  9 13  1  0
 11  5  1  0
 11 12  2  0
 12  2  1  0
 13 14  1  0
 14 15  1  0
 16 15  1  0
 17 13  1  0
 17 16  1  0
 17 18  1  6
 19 18  2  0
 21 20  1  1
 21 22  1  0
 23 21  1  0
 23 24  1  1
 24 18  1  0
 25 23  1  0
 26 25  2  0
 27 25  1  0
M  END
$$$$
