YPV.pdb
     RDKit          3D

 27 28  0  0  1  0  0  0  0  0999 V2000
    2.7801  -18.3146   19.2899 O   0  0  0  0  0  0  0  0  0  0  0  0
    3.6755  -17.9124   20.2657 C   0  0  0  0  0  0  0  0  0  0  0  0
    3.8347  -16.5778   20.5553 C   0  0  0  0  0  0  0  0  0  0  0  0
    4.7340  -16.1990   21.5328 C   0  0  0  0  0  0  0  0  0  0  0  0
    5.4757  -17.1447   22.2234 C   0  0  0  0  0  0  0  0  0  0  0  0
    6.4503  -16.7733   23.2818 C   0  0  0  0  0  0  0  0  0  0  0  0
    7.4701  -15.7931   22.6892 C   0  0  2  0  0  0  0  0  0  0  0  0
    8.1256  -16.5016   21.6295 N   0  0  0  0  0  0  0  0  0  0  0  0
    8.4185  -15.3139   23.7158 C   0  0  0  0  0  0  0  0  0  0  0  0
    9.6472  -15.6334   23.5534 O   0  0  0  0  0  0  0  0  0  0  0  0
    5.2865  -18.4882   21.9016 C   0  0  0  0  0  0  0  0  0  0  0  0
    4.3939  -18.8767   20.9301 C   0  0  0  0  0  0  0  0  0  0  0  0
    8.0830  -14.5514   24.8320 N   0  0  0  0  0  0  0  0  0  0  0  0
    6.7529  -14.0689   25.1701 C   0  0  0  0  0  0  0  0  0  0  0  0
    6.9819  -12.7778   25.9340 C   0  0  0  0  0  0  0  0  0  0  0  0
    8.4276  -12.7350   26.3207 C   0  0  0  0  0  0  0  0  0  0  0  0
    8.9484  -14.0749   25.8841 C   0  0  1  0  0  0  0  0  0  0  0  0
    8.9711  -14.9964   27.0461 C   0  0  0  0  0  0  0  0  0  0  0  0
    7.9177  -15.4450   27.5763 O   0  0  0  0  0  0  0  0  0  0  0  0
   12.8423  -16.7759   27.7478 C   0  0  0  0  0  0  0  0  0  0  0  0
   11.4957  -17.4778   27.6693 C   0  0  2  0  0  0  0  0  0  0  0  0
   11.2181  -17.8705   26.2489 C   0  0  0  0  0  0  0  0  0  0  0  0
   10.4019  -16.6296   28.2788 C   0  0  2  0  0  0  0  0  0  0  0  0
   10.2437  -15.3721   27.5610 N   0  0  0  0  0  0  0  0  0  0  0  0
   10.7673  -16.3239   29.6739 C   0  0  0  0  0  0  0  0  0  0  0  0
   10.8609  -17.2503   30.5038 O   0  0  0  0  0  0  0  0  0  0  0  0
   11.0081  -15.0316   30.0800 O   0  0  0  0  0  0  0  0  0  0  0  0
  2  3  2  0
  2  1  1  0
  4  3  1  0
  5  4  2  0
  6  5  1  0
  7  6  1  0
  7  9  1  0
  7  8  1  6
  9 10  2  0
  9 13  1  0
 11  5  1  0
 11 12  2  0
 12  2  1  0
 13 14  1  0
 14 15  1  0
 16 15  1  0
 17 13  1  0
 17 16  1  0
 17 18  1  1
 19 18  2  0
 21 20  1  6
 21 22  1  0
 23 21  1  0
 23 24  1  6
 24 18  1  0
 25 23  1  0
 26 25  2  0
 27 25  1  0
M  END
$$$$
