YPV.pdb
     RDKit          3D

 27 28  0  0  1  0  0  0  0  0999 V2000
    5.3903  -10.7823   27.9481 O   0  0  0  0  0  0  0  0  0  0  0  0
    6.0042  -11.7705   27.1984 C   0  0  0  0  0  0  0  0  0  0  0  0
    6.0001  -13.0754   27.6319 C   0  0  0  0  0  0  0  0  0  0  0  0
    6.6191  -14.0453   26.8678 C   0  0  0  0  0  0  0  0  0  0  0  0
    7.2424  -13.7207   25.6730 C   0  0  0  0  0  0  0  0  0  0  0  0
    7.9161  -14.7382   24.8252 C   0  0  0  0  0  0  0  0  0  0  0  0
    6.8670  -15.3985   23.9221 C   0  0  2  0  0  0  0  0  0  0  0  0
    6.2584  -16.4265   24.7141 N   0  0  0  0  0  0  0  0  0  0  0  0
    7.4761  -15.9286   22.6848 C   0  0  0  0  0  0  0  0  0  0  0  0
    7.5050  -17.2022   22.5613 O   0  0  0  0  0  0  0  0  0  0  0  0
    7.2256  -12.3869   25.2666 C   0  0  0  0  0  0  0  0  0  0  0  0
    6.6124  -11.4129   26.0195 C   0  0  0  0  0  0  0  0  0  0  0  0
    8.0143  -15.1594   21.6559 N   0  0  0  0  0  0  0  0  0  0  0  0
    8.2830  -13.7306   21.7065 C   0  0  0  0  0  0  0  0  0  0  0  0
    8.1288  -13.2473   20.2763 C   0  0  0  0  0  0  0  0  0  0  0  0
    8.1257  -14.4553   19.3918 C   0  0  0  0  0  0  0  0  0  0  0  0
    8.4201  -15.5847   20.3378 C   0  0  1  0  0  0  0  0  0  0  0  0
    9.8655  -15.9117   20.2791 C   0  0  0  0  0  0  0  0  0  0  0  0
   10.7527  -15.1509   20.7544 O   0  0  0  0  0  0  0  0  0  0  0  0
   10.5376  -19.9779   19.6457 C   0  0  0  0  0  0  0  0  0  0  0  0
   11.4628  -19.0984   20.4721 C   0  0  2  0  0  0  0  0  0  0  0  0
   11.0182  -19.1111   21.9041 C   0  0  0  0  0  0  0  0  0  0  0  0
   11.5572  -17.7063   19.8887 C   0  0  2  0  0  0  0  0  0  0  0  0
   10.2363  -17.1374   19.6575 N   0  0  0  0  0  0  0  0  0  0  0  0
   12.2601  -17.7859   18.5952 C   0  0  0  0  0  0  0  0  0  0  0  0
   11.6029  -17.7791   17.5351 O   0  0  0  0  0  0  0  0  0  0  0  0
   13.6320  -17.8680   18.5344 O   0  0  0  0  0  0  0  0  0  0  0  0
  2  3  2  0
  2  1  1  0
  4  3  1  0
  5  4  2  0
  6  5  1  0
  7  6  1  0
  7  9  1  0
  7  8  1  1
  9 10  2  0
  9 13  1  0
 11  5  1  0
 11 12  2  0
 12  2  1  0
 13 14  1  0
 14 15  1  0
 16 15  1  0
 17 13  1  0
 17 16  1  0
 17 18  1  1
 19 18  2  0
 21 20  1  6
 21 22  1  0
 23 21  1  0
 23 24  1  6
 24 18  1  0
 25 23  1  0
 26 25  2  0
 27 25  1  0
M  END
$$$$
