YPV.pdb
     RDKit          3D

 27 28  0  0  1  0  0  0  0  0999 V2000
   -0.0828  -20.7056   19.9077 O   0  0  0  0  0  0  0  0  0  0  0  0
    1.0709  -20.1101   20.3870 C   0  0  0  0  0  0  0  0  0  0  0  0
    1.6653  -20.5724   21.5374 C   0  0  0  0  0  0  0  0  0  0  0  0
    2.8161  -19.9628   21.9977 C   0  0  0  0  0  0  0  0  0  0  0  0
    3.3776  -18.8942   21.3164 C   0  0  0  0  0  0  0  0  0  0  0  0
    4.6152  -18.2161   21.7815 C   0  0  0  0  0  0  0  0  0  0  0  0
    5.6585  -18.2725   20.6589 C   0  0  2  0  0  0  0  0  0  0  0  0
    5.8407  -19.6629   20.3618 N   0  0  0  0  0  0  0  0  0  0  0  0
    6.9188  -17.6134   21.0590 C   0  0  0  0  0  0  0  0  0  0  0  0
    7.9073  -18.3818   21.3244 O   0  0  0  0  0  0  0  0  0  0  0  0
    2.7459  -18.4538   20.1539 C   0  0  0  0  0  0  0  0  0  0  0  0
    1.5997  -19.0532   19.6864 C   0  0  0  0  0  0  0  0  0  0  0  0
    7.1116  -16.2383   21.1682 N   0  0  0  0  0  0  0  0  0  0  0  0
    6.1096  -15.2120   20.9253 C   0  0  0  0  0  0  0  0  0  0  0  0
    6.8895  -14.0028   20.4429 C   0  0  0  0  0  0  0  0  0  0  0  0
    8.3333  -14.2453   20.7562 C   0  0  0  0  0  0  0  0  0  0  0  0
    8.3132  -15.5289   21.5367 C   0  0  1  0  0  0  0  0  0  0  0  0
    8.3562  -15.2234   22.9874 C   0  0  0  0  0  0  0  0  0  0  0  0
    7.3487  -14.8075   23.6229 O   0  0  0  0  0  0  0  0  0  0  0  0
    9.4629  -17.9213   25.3070 C   0  0  0  0  0  0  0  0  0  0  0  0
    8.8402  -16.5856   25.6817 C   0  0  2  0  0  0  0  0  0  0  0  0
    7.4012  -16.5685   25.2604 C   0  0  0  0  0  0  0  0  0  0  0  0
    9.6410  -15.4331   25.1181 C   0  0  2  0  0  0  0  0  0  0  0  0
    9.5944  -15.4167   23.6623 N   0  0  0  0  0  0  0  0  0  0  0  0
   11.0464  -15.5897   25.5348 C   0  0  0  0  0  0  0  0  0  0  0  0
   11.8930  -15.9888   24.7104 O   0  0  0  0  0  0  0  0  0  0  0  0
   11.4440  -15.3030   26.8203 O   0  0  0  0  0  0  0  0  0  0  0  0
  2  3  2  0
  2  1  1  0
  4  3  1  0
  5  4  2  0
  6  5  1  0
  7  6  1  0
  7  9  1  0
  7  8  1  1
  9 10  2  0
  9 13  1  0
 11  5  1  0
 11 12  2  0
 12  2  1  0
 13 14  1  0
 14 15  1  0
 16 15  1  0
 17 13  1  0
 17 16  1  0
 17 18  1  1
 19 18  2  0
 21 20  1  6
 21 22  1  0
 23 21  1  0
 23 24  1  6
 24 18  1  0
 25 23  1  0
 26 25  2  0
 27 25  1  0
M  END
$$$$
