YPV.pdb
     RDKit          3D

 27 28  0  0  1  0  0  0  0  0999 V2000
   10.1663  -14.1657   31.3471 O   0  0  0  0  0  0  0  0  0  0  0  0
    9.9719  -14.5356   30.0277 C   0  0  0  0  0  0  0  0  0  0  0  0
    9.6841  -13.5869   29.0750 C   0  0  0  0  0  0  0  0  0  0  0  0
    9.4937  -13.9786   27.7643 C   0  0  0  0  0  0  0  0  0  0  0  0
    9.5890  -15.3121   27.3984 C   0  0  0  0  0  0  0  0  0  0  0  0
    9.3920  -15.7688   25.9981 C   0  0  0  0  0  0  0  0  0  0  0  0
    7.9060  -16.0845   25.7881 C   0  0  2  0  0  0  0  0  0  0  0  0
    7.6194  -17.2051   26.6347 N   0  0  0  0  0  0  0  0  0  0  0  0
    7.6082  -16.3622   24.3680 C   0  0  0  0  0  0  0  0  0  0  0  0
    7.0888  -17.5020   24.1044 O   0  0  0  0  0  0  0  0  0  0  0  0
    9.8823  -16.2449   28.3925 C   0  0  0  0  0  0  0  0  0  0  0  0
   10.0737  -15.8661   29.7008 C   0  0  0  0  0  0  0  0  0  0  0  0
    7.8457  -15.4909   23.3077 N   0  0  0  0  0  0  0  0  0  0  0  0
    8.1740  -14.0780   23.4185 C   0  0  0  0  0  0  0  0  0  0  0  0
    7.6203  -13.4421   22.1567 C   0  0  0  0  0  0  0  0  0  0  0  0
    7.3059  -14.5477   21.1973 C   0  0  0  0  0  0  0  0  0  0  0  0
    7.8234  -15.7748   21.8928 C   0  0  1  0  0  0  0  0  0  0  0  0
    9.1715  -16.1050   21.3702 C   0  0  0  0  0  0  0  0  0  0  0  0
   10.1997  -15.4424   21.6796 O   0  0  0  0  0  0  0  0  0  0  0  0
    9.3543  -20.0393   19.8913 C   0  0  0  0  0  0  0  0  0  0  0  0
   10.4700  -19.3536   20.6641 C   0  0  2  0  0  0  0  0  0  0  0  0
   10.2830  -19.5944   22.1323 C   0  0  0  0  0  0  0  0  0  0  0  0
   10.5599  -17.8869   20.3064 C   0  0  2  0  0  0  0  0  0  0  0  0
    9.2793  -17.2171   20.4884 N   0  0  0  0  0  0  0  0  0  0  0  0
   10.9451  -17.7723   18.8880 C   0  0  0  0  0  0  0  0  0  0  0  0
   10.0737  -17.5247   18.0307 O   0  0  0  0  0  0  0  0  0  0  0  0
   12.2520  -17.9339   18.4899 O   0  0  0  0  0  0  0  0  0  0  0  0
  2  3  2  0
  2  1  1  0
  4  3  1  0
  5  4  2  0
  6  5  1  0
  7  6  1  0
  7  9  1  0
  7  8  1  1
  9 10  2  0
  9 13  1  0
 11  5  1  0
 11 12  2  0
 12  2  1  0
 13 14  1  0
 14 15  1  0
 16 15  1  0
 17 13  1  0
 17 16  1  0
 17 18  1  6
 19 18  2  0
 21 20  1  6
 21 22  1  0
 23 21  1  0
 23 24  1  6
 24 18  1  0
 25 23  1  0
 26 25  2  0
 27 25  1  0
M  END
$$$$
