YPV.pdb
     RDKit          3D

 27 28  0  0  1  0  0  0  0  0999 V2000
    7.7766  -11.9040   20.2084 O   0  0  0  0  0  0  0  0  0  0  0  0
    7.7031  -13.2816   20.3201 C   0  0  0  0  0  0  0  0  0  0  0  0
    8.4537  -13.9435   21.2629 C   0  0  0  0  0  0  0  0  0  0  0  0
    8.3648  -15.3187   21.3566 C   0  0  0  0  0  0  0  0  0  0  0  0
    7.5308  -16.0376   20.5146 C   0  0  0  0  0  0  0  0  0  0  0  0
    7.4091  -17.5167   20.5885 C   0  0  0  0  0  0  0  0  0  0  0  0
    6.1132  -17.8670   21.3300 C   0  0  2  0  0  0  0  0  0  0  0  0
    5.0450  -17.4076   20.4919 N   0  0  0  0  0  0  0  0  0  0  0  0
    6.0770  -17.2539   22.6737 C   0  0  0  0  0  0  0  0  0  0  0  0
    5.2986  -16.2489   22.8234 O   0  0  0  0  0  0  0  0  0  0  0  0
    6.7855  -15.3311   19.5713 C   0  0  0  0  0  0  0  0  0  0  0  0
    6.8662  -13.9620   19.4691 C   0  0  0  0  0  0  0  0  0  0  0  0
    6.8148  -17.6795   23.7757 N   0  0  0  0  0  0  0  0  0  0  0  0
    7.7839  -18.7644   23.7892 C   0  0  0  0  0  0  0  0  0  0  0  0
    7.7410  -19.3168   25.2019 C   0  0  0  0  0  0  0  0  0  0  0  0
    7.0178  -18.3193   26.0525 C   0  0  0  0  0  0  0  0  0  0  0  0
    6.7932  -17.1609   25.1224 C   0  0  1  0  0  0  0  0  0  0  0  0
    7.8473  -16.1412   25.3429 C   0  0  0  0  0  0  0  0  0  0  0  0
    9.0017  -16.2403   24.8434 O   0  0  0  0  0  0  0  0  0  0  0  0
    6.7848  -12.4548   27.4726 C   0  0  0  0  0  0  0  0  0  0  0  0
    7.6844  -12.5743   26.2525 C   0  0  2  0  0  0  0  0  0  0  0  0
    6.8748  -12.3522   25.0101 C   0  0  0  0  0  0  0  0  0  0  0  0
    8.4306  -13.8899   26.2516 C   0  0  2  0  0  0  0  0  0  0  0  0
    7.5153  -15.0187   26.1526 N   0  0  0  0  0  0  0  0  0  0  0  0
    9.1761  -14.0076   27.5180 C   0  0  0  0  0  0  0  0  0  0  0  0
    8.8030  -14.8296   28.3787 O   0  0  0  0  0  0  0  0  0  0  0  0
   10.2796  -13.2256   27.7698 O   0  0  0  0  0  0  0  0  0  0  0  0
  2  3  2  0
  2  1  1  0
  4  3  1  0
  5  4  2  0
  6  5  1  0
  7  6  1  0
  7  9  1  0
  7  8  1  6
  9 10  2  0
  9 13  1  0
 11  5  1  0
 11 12  2  0
 12  2  1  0
 13 14  1  0
 14 15  1  0
 16 15  1  0
 17 13  1  0
 17 16  1  0
 17 18  1  6
 19 18  2  0
 21 20  1  1
 21 22  1  0
 23 21  1  0
 23 24  1  1
 24 18  1  0
 25 23  1  0
 26 25  2  0
 27 25  1  0
M  END
$$$$
