YPV.pdb
     RDKit          3D

 27 28  0  0  1  0  0  0  0  0999 V2000
    7.8369  -19.5506   28.3895 O   0  0  0  0  0  0  0  0  0  0  0  0
    7.5745  -19.5063   27.0314 C   0  0  0  0  0  0  0  0  0  0  0  0
    6.8226  -18.4842   26.5017 C   0  0  0  0  0  0  0  0  0  0  0  0
    6.5730  -18.4600   25.1434 C   0  0  0  0  0  0  0  0  0  0  0  0
    7.0695  -19.4503   24.3102 C   0  0  0  0  0  0  0  0  0  0  0  0
    6.8221  -19.4548   22.8450 C   0  0  0  0  0  0  0  0  0  0  0  0
    8.0642  -18.9026   22.1348 C   0  0  2  0  0  0  0  0  0  0  0  0
    9.1014  -19.8682   22.3503 N   0  0  0  0  0  0  0  0  0  0  0  0
    8.4275  -17.5642   22.6444 C   0  0  0  0  0  0  0  0  0  0  0  0
    9.4509  -17.5020   23.4106 O   0  0  0  0  0  0  0  0  0  0  0  0
    7.8275  -20.4702   24.8842 C   0  0  0  0  0  0  0  0  0  0  0  0
    8.0822  -20.5043   26.2354 C   0  0  0  0  0  0  0  0  0  0  0  0
    7.7512  -16.3806   22.3591 N   0  0  0  0  0  0  0  0  0  0  0  0
    6.5784  -16.2490   21.5085 C   0  0  0  0  0  0  0  0  0  0  0  0
    6.6679  -14.8518   20.9231 C   0  0  0  0  0  0  0  0  0  0  0  0
    7.6861  -14.0958   21.7189 C   0  0  0  0  0  0  0  0  0  0  0  0
    8.0446  -15.0466   22.8255 C   0  0  1  0  0  0  0  0  0  0  0  0
    7.2708  -14.6998   24.0423 C   0  0  0  0  0  0  0  0  0  0  0  0
    6.1511  -15.2189   24.3046 O   0  0  0  0  0  0  0  0  0  0  0  0
    7.5707  -12.6572   28.5581 C   0  0  0  0  0  0  0  0  0  0  0  0
    8.2278  -12.9576   27.2201 C   0  0  2  0  0  0  0  0  0  0  0  0
    8.9558  -11.7396   26.7355 C   0  0  0  0  0  0  0  0  0  0  0  0
    7.2202  -13.4867   26.2241 C   0  0  2  0  0  0  0  0  0  0  0  0
    7.8378  -13.7424   24.9298 N   0  0  0  0  0  0  0  0  0  0  0  0
    6.1643  -12.4742   26.0416 C   0  0  0  0  0  0  0  0  0  0  0  0
    6.1987  -11.7198   25.0489 O   0  0  0  0  0  0  0  0  0  0  0  0
    5.1378  -12.3447   26.9483 O   0  0  0  0  0  0  0  0  0  0  0  0
  2  3  2  0
  2  1  1  0
  4  3  1  0
  5  4  2  0
  6  5  1  0
  7  6  1  0
  7  9  1  0
  7  8  1  1
  9 10  2  0
  9 13  1  0
 11  5  1  0
 11 12  2  0
 12  2  1  0
 13 14  1  0
 14 15  1  0
 16 15  1  0
 17 13  1  0
 17 16  1  0
 17 18  1  1
 19 18  2  0
 21 20  1  1
 21 22  1  0
 23 21  1  0
 23 24  1  6
 24 18  1  0
 25 23  1  0
 26 25  2  0
 27 25  1  0
M  END
$$$$
