YPV.pdb
     RDKit          3D

 27 28  0  0  1  0  0  0  0  0999 V2000
    6.0854  -11.0333   26.5733 O   0  0  0  0  0  0  0  0  0  0  0  0
    6.1113  -12.4159   26.5166 C   0  0  0  0  0  0  0  0  0  0  0  0
    7.1888  -13.1117   27.0121 C   0  0  0  0  0  0  0  0  0  0  0  0
    7.1936  -14.4913   26.9449 C   0  0  0  0  0  0  0  0  0  0  0  0
    6.1289  -15.1809   26.3860 C   0  0  0  0  0  0  0  0  0  0  0  0
    6.0997  -16.6640   26.2989 C   0  0  0  0  0  0  0  0  0  0  0  0
    6.3046  -17.0749   24.8356 C   0  0  2  0  0  0  0  0  0  0  0  0
    5.7556  -18.3937   24.7177 N   0  0  0  0  0  0  0  0  0  0  0  0
    7.7312  -17.0237   24.4548 C   0  0  0  0  0  0  0  0  0  0  0  0
    8.4200  -18.0802   24.6732 O   0  0  0  0  0  0  0  0  0  0  0  0
    5.0545  -14.4405   25.8943 C   0  0  0  0  0  0  0  0  0  0  0  0
    5.0392  -13.0666   25.9558 C   0  0  0  0  0  0  0  0  0  0  0  0
    8.3759  -15.9290   23.8841 N   0  0  0  0  0  0  0  0  0  0  0  0
    7.8399  -14.5809   23.7765 C   0  0  0  0  0  0  0  0  0  0  0  0
    8.4774  -13.9992   22.5283 C   0  0  0  0  0  0  0  0  0  0  0  0
    9.6219  -14.8882   22.1524 C   0  0  0  0  0  0  0  0  0  0  0  0
    9.6872  -15.8749   23.2835 C   0  0  1  0  0  0  0  0  0  0  0  0
   10.7254  -15.4455   24.2517 C   0  0  0  0  0  0  0  0  0  0  0  0
   11.2979  -14.3236   24.1789 O   0  0  0  0  0  0  0  0  0  0  0  0
   10.4677  -15.1184   28.0345 C   0  0  0  0  0  0  0  0  0  0  0  0
   11.6009  -14.7663   27.0835 C   0  0  2  0  0  0  0  0  0  0  0  0
   11.1849  -13.6188   26.2125 C   0  0  0  0  0  0  0  0  0  0  0  0
   12.0513  -15.9784   26.2992 C   0  0  2  0  0  0  0  0  0  0  0  0
   11.0681  -16.3542   25.2923 N   0  0  0  0  0  0  0  0  0  0  0  0
   12.2134  -17.1080   27.2326 C   0  0  0  0  0  0  0  0  0  0  0  0
   11.4479  -18.0893   27.1515 O   0  0  0  0  0  0  0  0  0  0  0  0
   13.1964  -17.1007   28.1951 O   0  0  0  0  0  0  0  0  0  0  0  0
  2  3  2  0
  2  1  1  0
  4  3  1  0
  5  4  2  0
  6  5  1  0
  7  6  1  0
  7  9  1  0
  7  8  1  1
  9 10  2  0
  9 13  1  0
 11  5  1  0
 11 12  2  0
 12  2  1  0
 13 14  1  0
 14 15  1  0
 16 15  1  0
 17 13  1  0
 17 16  1  0
 17 18  1  1
 19 18  2  0
 21 20  1  6
 21 22  1  0
 23 21  1  0
 23 24  1  6
 24 18  1  0
 25 23  1  0
 26 25  2  0
 27 25  1  0
M  END
$$$$
