YPV.pdb
     RDKit          3D

 27 28  0  0  1  0  0  0  0  0999 V2000
    7.0923  -10.7996   26.5333 O   0  0  0  0  0  0  0  0  0  0  0  0
    7.0554  -12.1828   26.5023 C   0  0  0  0  0  0  0  0  0  0  0  0
    5.8561  -12.8484   26.5987 C   0  0  0  0  0  0  0  0  0  0  0  0
    5.8428  -14.2292   26.5657 C   0  0  0  0  0  0  0  0  0  0  0  0
    7.0198  -14.9500   26.4369 C   0  0  0  0  0  0  0  0  0  0  0  0
    7.0425  -16.4352   26.3962 C   0  0  0  0  0  0  0  0  0  0  0  0
    6.4439  -16.8998   25.0628 C   0  0  2  0  0  0  0  0  0  0  0  0
    5.7841  -18.1417   25.3403 N   0  0  0  0  0  0  0  0  0  0  0  0
    7.4837  -17.0359   24.0221 C   0  0  0  0  0  0  0  0  0  0  0  0
    8.0614  -18.1748   23.9359 O   0  0  0  0  0  0  0  0  0  0  0  0
    8.2159  -14.2397   26.3420 C   0  0  0  0  0  0  0  0  0  0  0  0
    8.2410  -12.8649   26.3738 C   0  0  0  0  0  0  0  0  0  0  0  0
    7.8786  -16.0338   23.1392 N   0  0  0  0  0  0  0  0  0  0  0  0
    7.2937  -14.7058   23.0352 C   0  0  0  0  0  0  0  0  0  0  0  0
    7.4828  -14.3017   21.5848 C   0  0  0  0  0  0  0  0  0  0  0  0
    8.4761  -15.2455   20.9813 C   0  0  0  0  0  0  0  0  0  0  0  0
    8.9287  -16.0745   22.1498 C   0  0  1  0  0  0  0  0  0  0  0  0
   10.2065  -15.5324   22.6721 C   0  0  0  0  0  0  0  0  0  0  0  0
   10.2512  -14.5952   23.5156 O   0  0  0  0  0  0  0  0  0  0  0  0
   12.1508  -18.4392   23.8709 C   0  0  0  0  0  0  0  0  0  0  0  0
   12.4034  -16.9884   24.2503 C   0  0  2  0  0  0  0  0  0  0  0  0
   11.2951  -16.5025   25.1357 C   0  0  0  0  0  0  0  0  0  0  0  0
   12.6055  -16.1304   23.0213 C   0  0  2  0  0  0  0  0  0  0  0  0
   11.4125  -16.1113   22.1858 N   0  0  0  0  0  0  0  0  0  0  0  0
   13.7150  -16.6951   22.2318 C   0  0  0  0  0  0  0  0  0  0  0  0
   13.4654  -17.4364   21.2603 O   0  0  0  0  0  0  0  0  0  0  0  0
   15.0255  -16.4193   22.5468 O   0  0  0  0  0  0  0  0  0  0  0  0
  2  3  2  0
  2  1  1  0
  4  3  1  0
  5  4  2  0
  6  5  1  0
  7  6  1  0
  7  9  1  0
  7  8  1  1
  9 10  2  0
  9 13  1  0
 11  5  1  0
 11 12  2  0
 12  2  1  0
 13 14  1  0
 14 15  1  0
 16 15  1  0
 17 13  1  0
 17 16  1  0
 17 18  1  1
 19 18  2  0
 21 20  1  6
 21 22  1  0
 23 21  1  0
 23 24  1  6
 24 18  1  0
 25 23  1  0
 26 25  2  0
 27 25  1  0
M  END
$$$$
