YPV.pdb
     RDKit          3D

 27 28  0  0  1  0  0  0  0  0999 V2000
    7.1971  -10.7220   26.5973 O   0  0  0  0  0  0  0  0  0  0  0  0
    7.2198  -12.1037   26.5195 C   0  0  0  0  0  0  0  0  0  0  0  0
    8.3898  -12.7642   26.2274 C   0  0  0  0  0  0  0  0  0  0  0  0
    8.3894  -14.1435   26.1546 C   0  0  0  0  0  0  0  0  0  0  0  0
    7.2278  -14.8679   26.3718 C   0  0  0  0  0  0  0  0  0  0  0  0
    7.1913  -16.3518   26.3033 C   0  0  0  0  0  0  0  0  0  0  0  0
    6.4815  -16.7670   25.0087 C   0  0  2  0  0  0  0  0  0  0  0  0
    5.7802  -17.9786   25.3168 N   0  0  0  0  0  0  0  0  0  0  0  0
    7.4407  -16.9397   23.8983 C   0  0  0  0  0  0  0  0  0  0  0  0
    7.9679  -18.0992   23.7725 O   0  0  0  0  0  0  0  0  0  0  0  0
    6.0612  -14.1627   26.6654 C   0  0  0  0  0  0  0  0  0  0  0  0
    6.0500  -12.7895   26.7403 C   0  0  0  0  0  0  0  0  0  0  0  0
    7.8106  -15.9510   22.9897 N   0  0  0  0  0  0  0  0  0  0  0  0
    7.3141  -14.5838   22.9637 C   0  0  0  0  0  0  0  0  0  0  0  0
    7.3773  -14.1667   21.5060 C   0  0  0  0  0  0  0  0  0  0  0  0
    8.2317  -15.1658   20.7895 C   0  0  0  0  0  0  0  0  0  0  0  0
    8.7448  -16.0461   21.8937 C   0  0  1  0  0  0  0  0  0  0  0  0
   10.1060  -15.6042   22.2829 C   0  0  0  0  0  0  0  0  0  0  0  0
   10.3265  -14.4881   22.8283 O   0  0  0  0  0  0  0  0  0  0  0  0
   13.3079  -17.9274   24.8219 C   0  0  0  0  0  0  0  0  0  0  0  0
   12.1371  -17.8066   23.8591 C   0  0  2  0  0  0  0  0  0  0  0  0
   11.9754  -19.0920   23.1041 C   0  0  0  0  0  0  0  0  0  0  0  0
   12.2931  -16.6012   22.9590 C   0  0  2  0  0  0  0  0  0  0  0  0
   11.1852  -16.4940   22.0194 N   0  0  0  0  0  0  0  0  0  0  0  0
   13.5413  -16.7489   22.1886 C   0  0  0  0  0  0  0  0  0  0  0  0
   13.5111  -17.2854   21.0630 O   0  0  0  0  0  0  0  0  0  0  0  0
   14.7434  -16.3049   22.6888 O   0  0  0  0  0  0  0  0  0  0  0  0
  2  3  2  0
  2  1  1  0
  4  3  1  0
  5  4  2  0
  6  5  1  0
  7  6  1  0
  7  9  1  0
  7  8  1  1
  9 10  2  0
  9 13  1  0
 11  5  1  0
 11 12  2  0
 12  2  1  0
 13 14  1  0
 14 15  1  0
 16 15  1  0
 17 13  1  0
 17 16  1  0
 17 18  1  1
 19 18  2  0
 21 20  1  1
 21 22  1  0
 23 21  1  0
 23 24  1  6
 24 18  1  0
 25 23  1  0
 26 25  2  0
 27 25  1  0
M  END
$$$$
