YPV.pdb
     RDKit          3D

 27 28  0  0  1  0  0  0  0  0999 V2000
    7.5643  -19.9004   16.5470 O   0  0  0  0  0  0  0  0  0  0  0  0
    7.9112  -19.3880   17.7849 C   0  0  0  0  0  0  0  0  0  0  0  0
    8.9023  -19.9820   18.5302 C   0  0  0  0  0  0  0  0  0  0  0  0
    9.2321  -19.4537   19.7631 C   0  0  0  0  0  0  0  0  0  0  0  0
    8.5784  -18.3356   20.2569 C   0  0  0  0  0  0  0  0  0  0  0  0
    8.9085  -17.7399   21.5775 C   0  0  0  0  0  0  0  0  0  0  0  0
    9.5315  -16.3569   21.3513 C   0  0  2  0  0  0  0  0  0  0  0  0
   10.7785  -16.5924   20.6848 N   0  0  0  0  0  0  0  0  0  0  0  0
    9.7037  -15.6272   22.6244 C   0  0  0  0  0  0  0  0  0  0  0  0
   10.9038  -15.4904   23.0478 O   0  0  0  0  0  0  0  0  0  0  0  0
    7.5791  -17.7612   19.4722 C   0  0  0  0  0  0  0  0  0  0  0  0
    7.2424  -18.2788   18.2432 C   0  0  0  0  0  0  0  0  0  0  0  0
    8.6744  -15.0837   23.3892 N   0  0  0  0  0  0  0  0  0  0  0  0
    7.2536  -15.1532   23.0845 C   0  0  0  0  0  0  0  0  0  0  0  0
    6.6565  -13.8958   23.6891 C   0  0  0  0  0  0  0  0  0  0  0  0
    7.6750  -13.3189   24.6226 C   0  0  0  0  0  0  0  0  0  0  0  0
    8.7710  -14.3466   24.6263 C   0  0  1  0  0  0  0  0  0  0  0  0
    8.6174  -15.2254   25.8111 C   0  0  0  0  0  0  0  0  0  0  0  0
    8.0988  -16.3734   25.7411 O   0  0  0  0  0  0  0  0  0  0  0  0
    9.6358  -14.4500   29.9592 C   0  0  0  0  0  0  0  0  0  0  0  0
   10.7085  -14.5009   28.8826 C   0  0  2  0  0  0  0  0  0  0  0  0
   11.1165  -13.1052   28.5164 C   0  0  0  0  0  0  0  0  0  0  0  0
   10.2522  -15.3202   27.6961 C   0  0  2  0  0  0  0  0  0  0  0  0
    9.0822  -14.7285   27.0613 N   0  0  0  0  0  0  0  0  0  0  0  0
    9.8906  -16.6692   28.1682 C   0  0  0  0  0  0  0  0  0  0  0  0
    8.7090  -17.0579   28.0772 O   0  0  0  0  0  0  0  0  0  0  0  0
   10.8347  -17.5109   28.7092 O   0  0  0  0  0  0  0  0  0  0  0  0
  2  3  2  0
  2  1  1  0
  4  3  1  0
  5  4  2  0
  6  5  1  0
  7  6  1  0
  7  9  1  0
  7  8  1  1
  9 10  2  0
  9 13  1  0
 11  5  1  0
 11 12  2  0
 12  2  1  0
 13 14  1  0
 14 15  1  0
 16 15  1  0
 17 13  1  0
 17 16  1  0
 17 18  1  1
 19 18  2  0
 21 20  1  1
 21 22  1  0
 23 21  1  0
 23 24  1  1
 24 18  1  0
 25 23  1  0
 26 25  2  0
 27 25  1  0
M  END
$$$$
