YPV.pdb
     RDKit          3D

 27 28  0  0  1  0  0  0  0  0999 V2000
    8.6220  -12.9436   16.8088 O   0  0  0  0  0  0  0  0  0  0  0  0
    8.2938  -13.3081   18.1030 C   0  0  0  0  0  0  0  0  0  0  0  0
    7.0046  -13.1662   18.5593 C   0  0  0  0  0  0  0  0  0  0  0  0
    6.6995  -13.5363   19.8546 C   0  0  0  0  0  0  0  0  0  0  0  0
    7.6739  -14.0475   20.6976 C   0  0  0  0  0  0  0  0  0  0  0  0
    7.3809  -14.4572   22.0955 C   0  0  0  0  0  0  0  0  0  0  0  0
    7.3323  -15.9888   22.1592 C   0  0  2  0  0  0  0  0  0  0  0  0
    5.9612  -16.3472   21.9445 N   0  0  0  0  0  0  0  0  0  0  0  0
    7.8498  -16.4925   23.4481 C   0  0  0  0  0  0  0  0  0  0  0  0
    7.0732  -16.3812   24.4594 O   0  0  0  0  0  0  0  0  0  0  0  0
    8.9696  -14.1764   20.1988 C   0  0  0  0  0  0  0  0  0  0  0  0
    9.2847  -13.8111   18.9109 C   0  0  0  0  0  0  0  0  0  0  0  0
    9.1011  -17.0717   23.6450 N   0  0  0  0  0  0  0  0  0  0  0  0
   10.1340  -17.2410   22.6347 C   0  0  0  0  0  0  0  0  0  0  0  0
   10.9005  -18.4814   23.0554 C   0  0  0  0  0  0  0  0  0  0  0  0
   10.5202  -18.7858   24.4710 C   0  0  0  0  0  0  0  0  0  0  0  0
    9.6515  -17.6232   24.8598 C   0  0  1  0  0  0  0  0  0  0  0  0
   10.4632  -16.6298   25.6041 C   0  0  0  0  0  0  0  0  0  0  0  0
   11.4343  -16.0182   25.0799 O   0  0  0  0  0  0  0  0  0  0  0  0
    8.8029  -14.5337   28.8512 C   0  0  0  0  0  0  0  0  0  0  0  0
   10.0466  -14.1813   28.0502 C   0  0  2  0  0  0  0  0  0  0  0  0
    9.6510  -13.4173   26.8221 C   0  0  0  0  0  0  0  0  0  0  0  0
   10.8680  -15.4145   27.7474 C   0  0  2  0  0  0  0  0  0  0  0  0
   10.1096  -16.3767   26.9594 N   0  0  0  0  0  0  0  0  0  0  0  0
   11.2437  -16.0531   29.0219 C   0  0  0  0  0  0  0  0  0  0  0  0
   10.6905  -17.1172   29.3648 O   0  0  0  0  0  0  0  0  0  0  0  0
   12.1960  -15.4962   29.8438 O   0  0  0  0  0  0  0  0  0  0  0  0
  2  3  2  0
  2  1  1  0
  4  3  1  0
  5  4  2  0
  6  5  1  0
  7  6  1  0
  7  9  1  0
  7  8  1  1
  9 10  2  0
  9 13  1  0
 11  5  1  0
 11 12  2  0
 12  2  1  0
 13 14  1  0
 14 15  1  0
 16 15  1  0
 17 13  1  0
 17 16  1  0
 17 18  1  6
 19 18  2  0
 21 20  1  6
 21 22  1  0
 23 21  1  0
 23 24  1  6
 24 18  1  0
 25 23  1  0
 26 25  2  0
 27 25  1  0
M  END
$$$$
