QAP.pdb
     RDKit          3D

 22 22  0  0  1  0  0  0  0  0999 V2000
   23.4188  -25.7803  -15.3344 N   0  0  0  0  0  0  0  0  0  0  0  0
   23.5856  -26.4965  -16.5478 C   0  0  0  0  0  0  0  0  0  0  0  0
   22.5994  -27.0986  -17.0376 O   0  0  0  0  0  0  0  0  0  0  0  0
   24.8907  -26.5516  -17.2497 C   0  0  0  0  0  0  0  0  0  0  0  0
   25.9226  -25.7447  -16.5032 C   0  0  0  0  0  0  0  0  0  0  0  0
   26.0987  -24.4184  -17.2303 C   0  0  2  0  0  0  0  0  0  0  0  0
   27.2373  -24.4760  -18.1118 N   0  0  0  0  0  0  0  0  0  0  0  0
   26.2490  -23.2907  -16.3003 C   0  0  0  0  0  0  0  0  0  0  0  0
   27.2483  -23.2040  -15.5490 O   0  0  0  0  0  0  0  0  0  0  0  0
   24.4485  -20.0476  -15.8025 C   0  0  0  0  0  0  0  0  0  0  0  0
   25.3702  -21.1448  -15.3077 C   0  0  2  0  0  0  0  0  0  0  0  0
   25.2639  -22.2808  -16.2379 N   0  0  0  0  0  0  0  0  0  0  0  0
   24.9151  -21.5942  -13.9709 C   0  0  0  0  0  0  0  0  0  0  0  0
   24.0492  -22.5301  -13.9082 O   0  0  0  0  0  0  0  0  0  0  0  0
   25.3853  -21.0435  -12.7528 N   0  0  0  0  0  0  0  0  0  0  0  0
   26.4563  -20.0334  -12.6383 C   0  0  0  0  0  0  0  0  0  0  0  0
   27.1449  -20.4919  -11.3340 C   0  0  0  0  0  0  0  0  0  0  0  0
   25.9302  -20.7560  -10.4965 C   0  0  0  0  0  0  0  0  0  0  0  0
   24.9262  -21.3551  -11.4360 C   0  0  1  0  0  0  0  0  0  0  0  0
   23.5579  -20.8116  -11.1726 C   0  0  0  0  0  0  0  0  0  0  0  0
   23.1061  -19.8270  -12.0401 O   0  0  0  0  0  0  0  0  0  0  0  0
   22.8212  -21.1772  -10.2507 O   0  0  0  0  0  0  0  0  0  0  0  0
  2  3  2  0
  2  1  1  0
  4  2  1  0
  5  4  1  0
  6  5  1  0
  6  7  1  6
  8  6  1  0
  8  9  2  0
 11 10  1  6
 11 12  1  0
 12  8  1  0
 13 15  1  0
 13 11  1  0
 14 13  2  0
 15 16  1  0
 16 17  1  0
 18 19  1  0
 18 17  1  0
 19 15  1  0
 19 20  1  1
 20 22  2  0
 20 21  1  0
M  END
$$$$
