QAP.pdb
     RDKit          3D

 22 22  0  0  1  0  0  0  0  0999 V2000
   26.7917  -27.0269  -16.3606 N   0  0  0  0  0  0  0  0  0  0  0  0
   26.4172  -26.5090  -17.6273 C   0  0  0  0  0  0  0  0  0  0  0  0
   26.2369  -27.3062  -18.5797 O   0  0  0  0  0  0  0  0  0  0  0  0
   26.2340  -25.0551  -17.8541 C   0  0  0  0  0  0  0  0  0  0  0  0
   26.3146  -24.3059  -16.5481 C   0  0  0  0  0  0  0  0  0  0  0  0
   27.1322  -23.0424  -16.7804 C   0  0  2  0  0  0  0  0  0  0  0  0
   28.5064  -23.3769  -17.0566 N   0  0  0  0  0  0  0  0  0  0  0  0
   27.0668  -22.1206  -15.6380 C   0  0  0  0  0  0  0  0  0  0  0  0
   27.7518  -22.3217  -14.6079 O   0  0  0  0  0  0  0  0  0  0  0  0
   25.4995  -18.7726  -15.0417 C   0  0  0  0  0  0  0  0  0  0  0  0
   26.0836  -20.0765  -14.5347 C   0  0  2  0  0  0  0  0  0  0  0  0
   26.2262  -20.9867  -15.6828 N   0  0  0  0  0  0  0  0  0  0  0  0
   25.1390  -20.6885  -13.5707 C   0  0  0  0  0  0  0  0  0  0  0  0
   24.3023  -21.5493  -14.0049 O   0  0  0  0  0  0  0  0  0  0  0  0
   25.1086  -20.3727  -12.1895 N   0  0  0  0  0  0  0  0  0  0  0  0
   26.0727  -19.4908  -11.5016 C   0  0  0  0  0  0  0  0  0  0  0  0
   26.1864  -20.2009  -10.1348 C   0  0  0  0  0  0  0  0  0  0  0  0
   24.7354  -20.4798   -9.8831 C   0  0  0  0  0  0  0  0  0  0  0  0
   24.1646  -20.8381  -11.2231 C   0  0  1  0  0  0  0  0  0  0  0  0
   22.8150  -20.2214  -11.4107 C   0  0  0  0  0  0  0  0  0  0  0  0
   21.7584  -20.8337  -10.7511 O   0  0  0  0  0  0  0  0  0  0  0  0
   22.5876  -19.2226  -12.1013 O   0  0  0  0  0  0  0  0  0  0  0  0
  2  3  2  0
  2  1  1  0
  4  2  1  0
  5  4  1  0
  6  5  1  0
  6  7  1  1
  8  6  1  0
  8  9  2  0
 11 10  1  6
 11 12  1  0
 12  8  1  0
 13 15  1  0
 13 11  1  0
 14 13  2  0
 15 16  1  0
 16 17  1  0
 18 19  1  0
 18 17  1  0
 19 15  1  0
 19 20  1  6
 20 22  2  0
 20 21  1  0
M  END
$$$$
