QAP.pdb
     RDKit          3D

 22 22  0  0  1  0  0  0  0  0999 V2000
   18.6389  -17.8213  -13.6256 N   0  0  0  0  0  0  0  0  0  0  0  0
   17.6262  -17.2660  -14.4497 C   0  0  0  0  0  0  0  0  0  0  0  0
   16.4411  -17.6499  -14.2970 O   0  0  0  0  0  0  0  0  0  0  0  0
   17.9310  -16.2473  -15.4833 C   0  0  0  0  0  0  0  0  0  0  0  0
   19.3774  -15.8301  -15.3987 C   0  0  0  0  0  0  0  0  0  0  0  0
   19.8600  -15.5177  -16.8087 C   0  0  2  0  0  0  0  0  0  0  0  0
   20.3620  -16.7099  -17.4436 N   0  0  0  0  0  0  0  0  0  0  0  0
   20.8956  -14.4753  -16.8232 C   0  0  0  0  0  0  0  0  0  0  0  0
   22.0452  -14.7031  -16.3791 O   0  0  0  0  0  0  0  0  0  0  0  0
   21.2013  -11.1383  -18.4682 C   0  0  0  0  0  0  0  0  0  0  0  0
   21.6323  -12.1356  -17.4110 C   0  0  2  0  0  0  0  0  0  0  0  0
   20.6102  -13.1927  -17.3407 N   0  0  0  0  0  0  0  0  0  0  0  0
   21.6880  -11.4546  -16.0960 C   0  0  0  0  0  0  0  0  0  0  0  0
   20.6644  -11.5189  -15.3360 O   0  0  0  0  0  0  0  0  0  0  0  0
   22.8148  -10.7321  -15.6306 N   0  0  0  0  0  0  0  0  0  0  0  0
   24.0930  -10.5970  -16.3576 C   0  0  0  0  0  0  0  0  0  0  0  0
   25.0951  -10.6192  -15.1827 C   0  0  0  0  0  0  0  0  0  0  0  0
   24.3839   -9.6984  -14.2378 C   0  0  0  0  0  0  0  0  0  0  0  0
   22.9271  -10.0169  -14.3987 C   0  0  1  0  0  0  0  0  0  0  0  0
   22.1040   -8.7681  -14.3946 C   0  0  0  0  0  0  0  0  0  0  0  0
   21.7712   -8.2509  -13.1504 O   0  0  0  0  0  0  0  0  0  0  0  0
   21.7106   -8.1813  -15.4082 O   0  0  0  0  0  0  0  0  0  0  0  0
  2  3  2  0
  2  1  1  0
  4  2  1  0
  5  4  1  0
  6  5  1  0
  6  7  1  1
  8  6  1  0
  8  9  2  0
 11 10  1  6
 11 12  1  0
 12  8  1  0
 13 15  1  0
 13 11  1  0
 14 13  2  0
 15 16  1  0
 16 17  1  0
 18 19  1  0
 18 17  1  0
 19 15  1  0
 19 20  1  6
 20 22  2  0
 20 21  1  0
M  END
$$$$
