QAP.pdb
     RDKit          3D

 22 22  0  0  1  0  0  0  0  0999 V2000
   22.3613  -18.9440  -12.6979 N   0  0  0  0  0  0  0  0  0  0  0  0
   22.0825  -19.9421  -11.7290 C   0  0  0  0  0  0  0  0  0  0  0  0
   21.4670  -20.9769  -12.0834 O   0  0  0  0  0  0  0  0  0  0  0  0
   22.4981  -19.7947  -10.3132 C   0  0  0  0  0  0  0  0  0  0  0  0
   23.5229  -20.8412   -9.9554 C   0  0  0  0  0  0  0  0  0  0  0  0
   24.8639  -20.4010  -10.5268 C   0  0  2  0  0  0  0  0  0  0  0  0
   25.0637  -20.9703  -11.8354 N   0  0  0  0  0  0  0  0  0  0  0  0
   25.9870  -20.7648   -9.6518 C   0  0  0  0  0  0  0  0  0  0  0  0
   26.1785  -21.9555   -9.3107 O   0  0  0  0  0  0  0  0  0  0  0  0
   29.1912  -19.2304   -8.7593 C   0  0  0  0  0  0  0  0  0  0  0  0
   28.0284  -20.1017   -8.3269 C   0  0  2  0  0  0  0  0  0  0  0  0
   26.8736  -19.7727   -9.1784 N   0  0  0  0  0  0  0  0  0  0  0  0
   27.6776  -19.7807   -6.9233 C   0  0  0  0  0  0  0  0  0  0  0  0
   26.5668  -19.1948   -6.6947 O   0  0  0  0  0  0  0  0  0  0  0  0
   28.5064  -20.0861   -5.8150 N   0  0  0  0  0  0  0  0  0  0  0  0
   29.7774  -20.8340   -5.8893 C   0  0  0  0  0  0  0  0  0  0  0  0
   29.7192  -21.6306   -4.5674 C   0  0  0  0  0  0  0  0  0  0  0  0
   29.2555  -20.5424   -3.6468 C   0  0  0  0  0  0  0  0  0  0  0  0
   28.2744  -19.7395   -4.4484 C   0  0  1  0  0  0  0  0  0  0  0  0
   28.4530  -18.2755   -4.1997 C   0  0  0  0  0  0  0  0  0  0  0  0
   27.9408  -17.7839   -3.0072 O   0  0  0  0  0  0  0  0  0  0  0  0
   29.0161  -17.4940   -4.9734 O   0  0  0  0  0  0  0  0  0  0  0  0
  2  3  2  0
  2  1  1  0
  4  2  1  0
  5  4  1  0
  6  5  1  0
  6  7  1  6
  8  6  1  0
  8  9  2  0
 11 10  1  6
 11 12  1  0
 12  8  1  0
 13 15  1  0
 13 11  1  0
 14 13  2  0
 15 16  1  0
 16 17  1  0
 18 19  1  0
 18 17  1  0
 19 15  1  0
 19 20  1  6
 20 22  2  0
 20 21  1  0
M  END
$$$$
