QAP.pdb
     RDKit          3D

 22 22  0  0  1  0  0  0  0  0999 V2000
   22.4493  -14.9784  -18.1106 N   0  0  0  0  0  0  0  0  0  0  0  0
   23.7937  -15.2723  -17.7653 C   0  0  0  0  0  0  0  0  0  0  0  0
   24.1459  -16.4727  -17.6647 O   0  0  0  0  0  0  0  0  0  0  0  0
   24.7899  -14.2015  -17.5211 C   0  0  0  0  0  0  0  0  0  0  0  0
   24.2342  -12.8629  -17.9366 C   0  0  0  0  0  0  0  0  0  0  0  0
   23.7392  -12.1502  -16.6853 C   0  0  2  0  0  0  0  0  0  0  0  0
   22.6286  -12.8633  -16.1070 N   0  0  0  0  0  0  0  0  0  0  0  0
   23.3482  -10.7598  -16.9559 C   0  0  0  0  0  0  0  0  0  0  0  0
   24.1882   -9.9208  -17.3574 O   0  0  0  0  0  0  0  0  0  0  0  0
   20.0584   -8.9597  -17.0961 C   0  0  0  0  0  0  0  0  0  0  0  0
   21.5740   -8.9699  -17.0602 C   0  0  2  0  0  0  0  0  0  0  0  0
   22.0118  -10.3444  -16.7668 N   0  0  0  0  0  0  0  0  0  0  0  0
   22.0390   -8.0894  -15.9626 C   0  0  0  0  0  0  0  0  0  0  0  0
   22.2707   -8.6133  -14.8219 O   0  0  0  0  0  0  0  0  0  0  0  0
   22.2416   -6.6940  -16.1047 N   0  0  0  0  0  0  0  0  0  0  0  0
   22.0992   -5.9424  -17.3677 C   0  0  0  0  0  0  0  0  0  0  0  0
   23.2285   -4.9007  -17.2105 C   0  0  0  0  0  0  0  0  0  0  0  0
   22.9981   -4.5043  -15.7834 C   0  0  0  0  0  0  0  0  0  0  0  0
   22.6155   -5.7721  -15.0791 C   0  0  1  0  0  0  0  0  0  0  0  0
   21.5050   -5.5287  -14.1073 C   0  0  0  0  0  0  0  0  0  0  0  0
   20.2146   -5.7106  -14.5847 O   0  0  0  0  0  0  0  0  0  0  0  0
   21.6621   -5.1833  -12.9315 O   0  0  0  0  0  0  0  0  0  0  0  0
  2  3  2  0
  2  1  1  0
  4  2  1  0
  5  4  1  0
  6  5  1  0
  6  7  1  6
  8  6  1  0
  8  9  2  0
 11 10  1  1
 11 12  1  0
 12  8  1  0
 13 15  1  0
 13 11  1  0
 14 13  2  0
 15 16  1  0
 16 17  1  0
 18 19  1  0
 18 17  1  0
 19 15  1  0
 19 20  1  1
 20 22  2  0
 20 21  1  0
M  END
$$$$
