QAP.pdb
     RDKit          3D

 22 22  0  0  1  0  0  0  0  0999 V2000
   19.0887  -18.1570  -16.7310 N   0  0  0  0  0  0  0  0  0  0  0  0
   19.4910  -19.3899  -16.1555 C   0  0  0  0  0  0  0  0  0  0  0  0
   18.6248  -20.2741  -15.9481 O   0  0  0  0  0  0  0  0  0  0  0  0
   20.9036  -19.6596  -15.7942 C   0  0  0  0  0  0  0  0  0  0  0  0
   21.7539  -18.4421  -16.0554 C   0  0  0  0  0  0  0  0  0  0  0  0
   22.9588  -18.8778  -16.8782 C   0  0  2  0  0  0  0  0  0  0  0  0
   22.5715  -19.8677  -17.8512 N   0  0  0  0  0  0  0  0  0  0  0  0
   24.0430  -19.4062  -16.0388 C   0  0  0  0  0  0  0  0  0  0  0  0
   24.1021  -20.6254  -15.7547 O   0  0  0  0  0  0  0  0  0  0  0  0
   27.0206  -17.8530  -14.3325 C   0  0  0  0  0  0  0  0  0  0  0  0
   26.1088  -19.0237  -14.6428 C   0  0  2  0  0  0  0  0  0  0  0  0
   25.0415  -18.5435  -15.5358 N   0  0  0  0  0  0  0  0  0  0  0  0
   25.4844  -19.4985  -13.3854 C   0  0  0  0  0  0  0  0  0  0  0  0
   24.3416  -19.0309  -13.0616 O   0  0  0  0  0  0  0  0  0  0  0  0
   26.0839  -20.4443  -12.5169 N   0  0  0  0  0  0  0  0  0  0  0  0
   27.3408  -21.1688  -12.7924 C   0  0  0  0  0  0  0  0  0  0  0  0
   27.0257  -22.5413  -12.1582 C   0  0  0  0  0  0  0  0  0  0  0  0
   26.4017  -22.0802  -10.8757 C   0  0  0  0  0  0  0  0  0  0  0  0
   25.5972  -20.8685  -11.2422 C   0  0  1  0  0  0  0  0  0  0  0  0
   25.7347  -19.8020  -10.2026 C   0  0  0  0  0  0  0  0  0  0  0  0
   26.7666  -18.8917  -10.3835 O   0  0  0  0  0  0  0  0  0  0  0  0
   25.0024  -19.6840   -9.2146 O   0  0  0  0  0  0  0  0  0  0  0  0
  2  3  2  0
  2  1  1  0
  4  2  1  0
  5  4  1  0
  6  5  1  0
  6  7  1  6
  8  6  1  0
  8  9  2  0
 11 10  1  1
 11 12  1  0
 12  8  1  0
 13 15  1  0
 13 11  1  0
 14 13  2  0
 15 16  1  0
 16 17  1  0
 18 19  1  0
 18 17  1  0
 19 15  1  0
 19 20  1  1
 20 22  2  0
 20 21  1  0
M  END
$$$$
