QAP.pdb
     RDKit          3D

 22 22  0  0  1  0  0  0  0  0999 V2000
   16.3117  -13.3472  -14.3210 N   0  0  0  0  0  0  0  0  0  0  0  0
   17.1016  -13.8176  -15.4016 C   0  0  0  0  0  0  0  0  0  0  0  0
   17.4175  -15.0317  -15.4390 O   0  0  0  0  0  0  0  0  0  0  0  0
   17.5620  -12.9150  -16.4842 C   0  0  0  0  0  0  0  0  0  0  0  0
   17.1067  -11.5023  -16.2189 C   0  0  0  0  0  0  0  0  0  0  0  0
   17.9443  -10.5683  -17.0818 C   0  0  2  0  0  0  0  0  0  0  0  0
   18.6181  -11.3100  -18.1173 N   0  0  0  0  0  0  0  0  0  0  0  0
   18.9282   -9.8152  -16.2918 C   0  0  0  0  0  0  0  0  0  0  0  0
   18.5787   -9.1620  -15.2809 O   0  0  0  0  0  0  0  0  0  0  0  0
   22.6765   -9.5112  -16.4181 C   0  0  0  0  0  0  0  0  0  0  0  0
   21.3202   -9.1513  -15.8445 C   0  0  2  0  0  0  0  0  0  0  0  0
   20.2912   -9.8154  -16.6613 N   0  0  0  0  0  0  0  0  0  0  0  0
   21.1227   -7.6863  -15.9490 C   0  0  0  0  0  0  0  0  0  0  0  0
   20.5246   -7.2270  -16.9789 O   0  0  0  0  0  0  0  0  0  0  0  0
   21.5615   -6.7608  -14.9696 N   0  0  0  0  0  0  0  0  0  0  0  0
   22.1037   -7.1238  -13.6449 C   0  0  0  0  0  0  0  0  0  0  0  0
   21.5366   -5.9776  -12.7789 C   0  0  0  0  0  0  0  0  0  0  0  0
   21.8199   -4.8208  -13.6889 C   0  0  0  0  0  0  0  0  0  0  0  0
   21.5603   -5.3358  -15.0735 C   0  0  1  0  0  0  0  0  0  0  0  0
   22.5967   -4.8392  -16.0308 C   0  0  0  0  0  0  0  0  0  0  0  0
   22.4247   -3.5497  -16.5142 O   0  0  0  0  0  0  0  0  0  0  0  0
   23.5750   -5.4919  -16.4095 O   0  0  0  0  0  0  0  0  0  0  0  0
  2  3  2  0
  2  1  1  0
  4  2  1  0
  5  4  1  0
  6  5  1  0
  6  7  1  6
  8  6  1  0
  8  9  2  0
 11 10  1  6
 11 12  1  0
 12  8  1  0
 13 15  1  0
 13 11  1  0
 14 13  2  0
 15 16  1  0
 16 17  1  0
 18 19  1  0
 18 17  1  0
 19 15  1  0
 19 20  1  6
 20 22  2  0
 20 21  1  0
M  END
$$$$
