QAP.pdb
     RDKit          3D

 22 22  0  0  1  0  0  0  0  0999 V2000
   15.0695   -5.1662   -7.3198 N   0  0  0  0  0  0  0  0  0  0  0  0
   13.8626   -5.5003   -7.9867 C   0  0  0  0  0  0  0  0  0  0  0  0
   12.8310   -4.8262   -7.7487 O   0  0  0  0  0  0  0  0  0  0  0  0
   13.7888   -6.6215   -8.9543 C   0  0  0  0  0  0  0  0  0  0  0  0
   15.1432   -7.2635   -9.1180 C   0  0  0  0  0  0  0  0  0  0  0  0
   15.0378   -8.3097  -10.2193 C   0  0  2  0  0  0  0  0  0  0  0  0
   14.7427   -9.6033   -9.6570 N   0  0  0  0  0  0  0  0  0  0  0  0
   16.2614   -8.3891  -11.0291 C   0  0  0  0  0  0  0  0  0  0  0  0
   17.3328   -8.8149  -10.5375 O   0  0  0  0  0  0  0  0  0  0  0  0
   17.0128   -8.0255  -14.6749 C   0  0  0  0  0  0  0  0  0  0  0  0
   17.4548   -8.0480  -13.2249 C   0  0  2  0  0  0  0  0  0  0  0  0
   16.2496   -7.9846  -12.3820 N   0  0  0  0  0  0  0  0  0  0  0  0
   18.2780   -6.8468  -12.9503 C   0  0  0  0  0  0  0  0  0  0  0  0
   17.6955   -5.8008  -12.5073 O   0  0  0  0  0  0  0  0  0  0  0  0
   19.6795   -6.7897  -13.1522 N   0  0  0  0  0  0  0  0  0  0  0  0
   20.5098   -7.9069  -13.6451 C   0  0  0  0  0  0  0  0  0  0  0  0
   21.8026   -7.6851  -12.8298 C   0  0  0  0  0  0  0  0  0  0  0  0
   21.9367   -6.2002  -12.9840 C   0  0  0  0  0  0  0  0  0  0  0  0
   20.5353   -5.6692  -12.9203 C   0  0  1  0  0  0  0  0  0  0  0  0
   20.3292   -4.5841  -13.9288 C   0  0  0  0  0  0  0  0  0  0  0  0
   19.7278   -4.9559  -15.1230 O   0  0  0  0  0  0  0  0  0  0  0  0
   20.6543   -3.4031  -13.7678 O   0  0  0  0  0  0  0  0  0  0  0  0
  2  3  2  0
  2  1  1  0
  4  2  1  0
  5  4  1  0
  6  5  1  0
  6  7  1  1
  8  6  1  0
  8  9  2  0
 11 10  1  6
 11 12  1  0
 12  8  1  0
 13 15  1  0
 13 11  1  0
 14 13  2  0
 15 16  1  0
 16 17  1  0
 18 19  1  0
 18 17  1  0
 19 15  1  0
 19 20  1  6
 20 22  2  0
 20 21  1  0
M  END
$$$$
