QAP.pdb
     RDKit          3D

 22 22  0  0  1  0  0  0  0  0999 V2000
   18.1596  -14.0049  -15.3766 N   0  0  0  0  0  0  0  0  0  0  0  0
   17.7831  -13.7654  -16.7234 C   0  0  0  0  0  0  0  0  0  0  0  0
   17.5660  -14.7457  -17.4764 O   0  0  0  0  0  0  0  0  0  0  0  0
   17.6400  -12.3914  -17.2623 C   0  0  0  0  0  0  0  0  0  0  0  0
   17.9004  -11.3736  -16.1809 C   0  0  0  0  0  0  0  0  0  0  0  0
   19.0066  -10.4457  -16.6648 C   0  0  2  0  0  0  0  0  0  0  0  0
   20.2783  -11.1230  -16.6375 N   0  0  0  0  0  0  0  0  0  0  0  0
   19.0850   -9.2127  -15.8693 C   0  0  0  0  0  0  0  0  0  0  0  0
   18.1313   -8.3999  -15.8451 O   0  0  0  0  0  0  0  0  0  0  0  0
   21.4480   -8.0063  -13.2307 C   0  0  0  0  0  0  0  0  0  0  0  0
   20.3104   -7.7678  -14.2041 C   0  0  2  0  0  0  0  0  0  0  0  0
   20.2430   -8.9222  -15.1151 N   0  0  0  0  0  0  0  0  0  0  0  0
   20.6055   -6.5580  -15.0077 C   0  0  0  0  0  0  0  0  0  0  0  0
   21.2968   -6.6911  -16.0725 O   0  0  0  0  0  0  0  0  0  0  0  0
   20.1646   -5.2563  -14.6619 N   0  0  0  0  0  0  0  0  0  0  0  0
   19.2172   -4.9450  -13.5729 C   0  0  0  0  0  0  0  0  0  0  0  0
   18.4379   -3.7675  -14.1985 C   0  0  0  0  0  0  0  0  0  0  0  0
   19.5854   -2.9930  -14.7730 C   0  0  0  0  0  0  0  0  0  0  0  0
   20.5413   -4.0281  -15.2874 C   0  0  1  0  0  0  0  0  0  0  0  0
   21.9550   -3.6490  -14.9798 C   0  0  0  0  0  0  0  0  0  0  0  0
   22.5071   -4.1999  -13.8317 O   0  0  0  0  0  0  0  0  0  0  0  0
   22.6465   -2.8922  -15.6694 O   0  0  0  0  0  0  0  0  0  0  0  0
  2  3  2  0
  2  1  1  0
  4  2  1  0
  5  4  1  0
  6  5  1  0
  6  7  1  1
  8  6  1  0
  8  9  2  0
 11 10  1  1
 11 12  1  0
 12  8  1  0
 13 15  1  0
 13 11  1  0
 14 13  2  0
 15 16  1  0
 16 17  1  0
 18 19  1  0
 18 17  1  0
 19 15  1  0
 19 20  1  1
 20 22  2  0
 20 21  1  0
M  END
$$$$
