QAP.pdb
     RDKit          3D

 22 22  0  0  1  0  0  0  0  0999 V2000
   17.0770  -20.0476  -15.2099 N   0  0  0  0  0  0  0  0  0  0  0  0
   17.7693  -20.9585  -14.3708 C   0  0  0  0  0  0  0  0  0  0  0  0
   17.7457  -22.1813  -14.6526 O   0  0  0  0  0  0  0  0  0  0  0  0
   18.5175  -20.5046  -13.1737 C   0  0  0  0  0  0  0  0  0  0  0  0
   19.9012  -21.1033  -13.1612 C   0  0  0  0  0  0  0  0  0  0  0  0
   20.7846  -20.2651  -14.0753 C   0  0  2  0  0  0  0  0  0  0  0  0
   20.3632  -20.4034  -15.4464 N   0  0  0  0  0  0  0  0  0  0  0  0
   22.2050  -20.6221  -13.9553 C   0  0  0  0  0  0  0  0  0  0  0  0
   22.8057  -20.5157  -12.8606 O   0  0  0  0  0  0  0  0  0  0  0  0
   24.5573  -22.6845  -15.8711 C   0  0  0  0  0  0  0  0  0  0  0  0
   24.3421  -21.4647  -14.9970 C   0  0  2  0  0  0  0  0  0  0  0  0
   22.9199  -21.0934  -15.0783 N   0  0  0  0  0  0  0  0  0  0  0  0
   25.1474  -20.3396  -15.5278 C   0  0  0  0  0  0  0  0  0  0  0  0
   24.5599  -19.4540  -16.2350 O   0  0  0  0  0  0  0  0  0  0  0  0
   26.5374  -20.1884  -15.2967 N   0  0  0  0  0  0  0  0  0  0  0  0
   27.3609  -21.0923  -14.4689 C   0  0  0  0  0  0  0  0  0  0  0  0
   28.3390  -20.0832  -13.8283 C   0  0  0  0  0  0  0  0  0  0  0  0
   28.6692  -19.2617  -15.0378 C   0  0  0  0  0  0  0  0  0  0  0  0
   27.3850  -19.1569  -15.8057 C   0  0  1  0  0  0  0  0  0  0  0  0
   27.6279  -19.3000  -17.2745 C   0  0  0  0  0  0  0  0  0  0  0  0
   28.1410  -18.1881  -17.9276 O   0  0  0  0  0  0  0  0  0  0  0  0
   27.4050  -20.3246  -17.9279 O   0  0  0  0  0  0  0  0  0  0  0  0
  2  3  2  0
  2  1  1  0
  4  2  1  0
  5  4  1  0
  6  5  1  0
  6  7  1  6
  8  6  1  0
  8  9  2  0
 11 10  1  6
 11 12  1  0
 12  8  1  0
 13 15  1  0
 13 11  1  0
 14 13  2  0
 15 16  1  0
 16 17  1  0
 18 19  1  0
 18 17  1  0
 19 15  1  0
 19 20  1  6
 20 22  2  0
 20 21  1  0
M  END
$$$$
