QAP.pdb
     RDKit          3D

 22 22  0  0  1  0  0  0  0  0999 V2000
   22.5858  -20.5229  -10.1607 N   0  0  0  0  0  0  0  0  0  0  0  0
   22.5913  -20.9989  -11.4973 C   0  0  0  0  0  0  0  0  0  0  0  0
   21.5686  -20.8314  -12.2053 O   0  0  0  0  0  0  0  0  0  0  0  0
   23.7700  -21.6869  -12.0771 C   0  0  0  0  0  0  0  0  0  0  0  0
   24.8715  -21.7938  -11.0532 C   0  0  0  0  0  0  0  0  0  0  0  0
   25.6286  -20.4727  -11.0371 C   0  0  2  0  0  0  0  0  0  0  0  0
   26.2432  -20.2303  -12.3177 N   0  0  0  0  0  0  0  0  0  0  0  0
   26.6501  -20.4307   -9.9816 C   0  0  0  0  0  0  0  0  0  0  0  0
   27.6910  -21.1239  -10.0644 O   0  0  0  0  0  0  0  0  0  0  0  0
   27.3945  -17.7624   -7.5839 C   0  0  0  0  0  0  0  0  0  0  0  0
   27.6024  -19.2076   -7.9917 C   0  0  2  0  0  0  0  0  0  0  0  0
   26.4743  -19.6037   -8.8505 N   0  0  0  0  0  0  0  0  0  0  0  0
   27.5861  -20.0605   -6.7799 C   0  0  0  0  0  0  0  0  0  0  0  0
   26.5229  -20.7149   -6.5133 O   0  0  0  0  0  0  0  0  0  0  0  0
   28.6851  -20.1925   -5.8950 N   0  0  0  0  0  0  0  0  0  0  0  0
   30.0380  -19.6538   -6.1397 C   0  0  0  0  0  0  0  0  0  0  0  0
   30.9072  -20.7636   -5.5086 C   0  0  0  0  0  0  0  0  0  0  0  0
   30.1371  -20.9863   -4.2421 C   0  0  0  0  0  0  0  0  0  0  0  0
   28.6940  -20.8577   -4.6305 C   0  0  1  0  0  0  0  0  0  0  0  0
   27.9266  -20.1038   -3.5913 C   0  0  0  0  0  0  0  0  0  0  0  0
   27.5340  -20.8220   -2.4705 O   0  0  0  0  0  0  0  0  0  0  0  0
   27.6273  -18.9076   -3.6674 O   0  0  0  0  0  0  0  0  0  0  0  0
  2  3  2  0
  2  1  1  0
  4  2  1  0
  5  4  1  0
  6  5  1  0
  6  7  1  6
  8  6  1  0
  8  9  2  0
 11 10  1  1
 11 12  1  0
 12  8  1  0
 13 15  1  0
 13 11  1  0
 14 13  2  0
 15 16  1  0
 16 17  1  0
 18 19  1  0
 18 17  1  0
 19 15  1  0
 19 20  1  1
 20 22  2  0
 20 21  1  0
M  END
$$$$
