QAP.pdb
     RDKit          3D

 22 22  0  0  1  0  0  0  0  0999 V2000
   18.9191  -23.8056  -13.6712 N   0  0  0  0  0  0  0  0  0  0  0  0
   19.0408  -22.7037  -12.7858 C   0  0  0  0  0  0  0  0  0  0  0  0
   19.2435  -22.9241  -11.5670 O   0  0  0  0  0  0  0  0  0  0  0  0
   18.9349  -21.3033  -13.2617 C   0  0  0  0  0  0  0  0  0  0  0  0
   20.2028  -20.5473  -12.9545 C   0  0  0  0  0  0  0  0  0  0  0  0
   21.2187  -20.8715  -14.0414 C   0  0  2  0  0  0  0  0  0  0  0  0
   21.3857  -22.2975  -14.1639 N   0  0  0  0  0  0  0  0  0  0  0  0
   22.5216  -20.2401  -13.7901 C   0  0  0  0  0  0  0  0  0  0  0  0
   22.6214  -18.9972  -13.6633 O   0  0  0  0  0  0  0  0  0  0  0  0
   25.9649  -21.4686  -13.0036 C   0  0  0  0  0  0  0  0  0  0  0  0
   25.0286  -20.4271  -13.5841 C   0  0  2  0  0  0  0  0  0  0  0  0
   23.6888  -21.0283  -13.6870 N   0  0  0  0  0  0  0  0  0  0  0  0
   25.4848  -20.0716  -14.9485 C   0  0  0  0  0  0  0  0  0  0  0  0
   25.0105  -20.7264  -15.9363 O   0  0  0  0  0  0  0  0  0  0  0  0
   26.4213  -19.0440  -15.2227 N   0  0  0  0  0  0  0  0  0  0  0  0
   27.0010  -18.1356  -14.2131 C   0  0  0  0  0  0  0  0  0  0  0  0
   27.0991  -16.8269  -15.0274 C   0  0  0  0  0  0  0  0  0  0  0  0
   27.6516  -17.3767  -16.3076 C   0  0  0  0  0  0  0  0  0  0  0  0
   26.9673  -18.6979  -16.4970 C   0  0  1  0  0  0  0  0  0  0  0  0
   27.9275  -19.7294  -16.9981 C   0  0  0  0  0  0  0  0  0  0  0  0
   28.2916  -19.6380  -18.3342 O   0  0  0  0  0  0  0  0  0  0  0  0
   28.4060  -20.6379  -16.3110 O   0  0  0  0  0  0  0  0  0  0  0  0
  2  3  2  0
  2  1  1  0
  4  2  1  0
  5  4  1  0
  6  5  1  0
  6  7  1  1
  8  6  1  0
  8  9  2  0
 11 10  1  6
 11 12  1  0
 12  8  1  0
 13 15  1  0
 13 11  1  0
 14 13  2  0
 15 16  1  0
 16 17  1  0
 18 19  1  0
 18 17  1  0
 19 15  1  0
 19 20  1  1
 20 22  2  0
 20 21  1  0
M  END
$$$$
