QAP.pdb
     RDKit          3D

 22 22  0  0  1  0  0  0  0  0999 V2000
   13.6571  -22.9300    0.9826 N   0  0  0  0  0  0  0  0  0  0  0  0
   14.2542  -21.6434    1.0144 C   0  0  0  0  0  0  0  0  0  0  0  0
   15.4178  -21.5030    0.5655 O   0  0  0  0  0  0  0  0  0  0  0  0
   13.5414  -20.4643    1.5626 C   0  0  0  0  0  0  0  0  0  0  0  0
   14.4834  -19.6125    2.3752 C   0  0  0  0  0  0  0  0  0  0  0  0
   14.7334  -20.3203    3.7000 C   0  0  2  0  0  0  0  0  0  0  0  0
   13.5908  -20.1818    4.5672 N   0  0  0  0  0  0  0  0  0  0  0  0
   15.9351  -19.8178    4.3802 C   0  0  0  0  0  0  0  0  0  0  0  0
   17.0171  -19.6844    3.7618 O   0  0  0  0  0  0  0  0  0  0  0  0
   16.5900  -18.3953    7.7952 C   0  0  0  0  0  0  0  0  0  0  0  0
   17.0590  -18.9241    6.4540 C   0  0  2  0  0  0  0  0  0  0  0  0
   15.8898  -19.4752    5.7494 N   0  0  0  0  0  0  0  0  0  0  0  0
   18.0275  -20.0232    6.6779 C   0  0  0  0  0  0  0  0  0  0  0  0
   17.6094  -21.2263    6.5939 O   0  0  0  0  0  0  0  0  0  0  0  0
   19.3961  -19.8167    6.9822 N   0  0  0  0  0  0  0  0  0  0  0  0
   20.0593  -18.4990    7.0470 C   0  0  0  0  0  0  0  0  0  0  0  0
   21.4517  -18.8503    6.4784 C   0  0  0  0  0  0  0  0  0  0  0  0
   21.7019  -20.1295    7.2185 C   0  0  0  0  0  0  0  0  0  0  0  0
   20.3713  -20.8194    7.2742 C   0  0  1  0  0  0  0  0  0  0  0  0
   20.1511  -21.4471    8.6138 C   0  0  0  0  0  0  0  0  0  0  0  0
   20.7943  -22.6552    8.8438 O   0  0  0  0  0  0  0  0  0  0  0  0
   19.4474  -20.9670    9.5087 O   0  0  0  0  0  0  0  0  0  0  0  0
  2  3  2  0
  2  1  1  0
  4  2  1  0
  5  4  1  0
  6  5  1  0
  6  7  1  1
  8  6  1  0
  8  9  2  0
 11 10  1  1
 11 12  1  0
 12  8  1  0
 13 15  1  0
 13 11  1  0
 14 13  2  0
 15 16  1  0
 16 17  1  0
 18 19  1  0
 18 17  1  0
 19 15  1  0
 19 20  1  1
 20 22  2  0
 20 21  1  0
M  END
$$$$
