RDN.pdb
     RDKit          3D

 28 27  0  0  1  0  0  0  0  0999 V2000
   29.8925  -22.3016  -18.1166 N   0  0  0  0  0  0  0  0  0  0  0  0
   30.0723  -22.8039  -16.7759 C   0  0  0  0  0  0  0  0  0  0  0  0
   31.0079  -23.6714  -16.5921 N   0  0  0  0  0  0  0  0  0  0  0  0
   29.2614  -22.3679  -15.7056 N   0  0  0  0  0  0  0  0  0  0  0  0
   28.0708  -21.5999  -15.9460 C   0  0  0  0  0  0  0  0  0  0  0  0
   28.1611  -20.2456  -15.2509 C   0  0  0  0  0  0  0  0  0  0  0  0
   26.8085  -19.7129  -14.8938 C   0  0  0  0  0  0  0  0  0  0  0  0
   25.6741  -20.3950  -15.5851 C   0  0  2  0  0  0  0  0  0  0  0  0
   25.8397  -20.5756  -16.9895 N   0  0  0  0  0  0  0  0  0  0  0  0
   24.4389  -19.5959  -15.3410 C   0  0  0  0  0  0  0  0  0  0  0  0
   24.1608  -19.3118  -14.1357 O   0  0  0  0  0  0  0  0  0  0  0  0
   31.2361  -24.0866  -15.6768 N   0  0  0  0  0  0  0  0  0  0  0  0
   23.5784  -19.1479  -16.3684 C   0  0  1  0  0  0  0  0  0  0  0  0
   22.2788  -18.5313  -16.0759 C   0  0  0  0  0  0  0  0  0  0  0  0
   21.9203  -17.6826  -17.2740 C   0  0  0  0  0  0  0  0  0  0  0  0
   20.7009  -16.8726  -17.0289 O   0  0  0  0  0  0  0  0  0  0  0  0
   20.0987  -16.8995  -15.9428 C   0  0  0  0  0  0  0  0  0  0  0  0
   21.2546  -19.5813  -15.8260 O   0  0  0  0  0  0  0  0  0  0  0  0
   21.5408  -20.7895  -16.0107 O   0  0  0  0  0  0  0  0  0  0  0  0
   20.2633  -16.0756  -18.0855 N   0  0  0  0  0  0  0  0  0  0  0  0
   18.8131  -23.0225  -12.4247 C   0  0  0  0  0  0  0  0  0  0  0  0
   18.5843  -22.2183  -13.5647 O   0  0  0  0  0  0  0  0  0  0  0  0
   17.5980  -22.4351  -14.3013 C   0  0  0  0  0  0  0  0  0  0  0  0
   19.5034  -21.1145  -13.9016 C   0  0  2  0  0  0  0  0  0  0  0  0
   18.9624  -20.2981  -15.0777 N   0  0  0  0  0  0  0  0  0  0  0  0
   19.9399  -19.2751  -15.3789 C   0  0  0  0  0  0  0  0  0  0  0  0
   17.6716  -19.7391  -14.6434 O   0  0  0  0  0  0  0  0  0  0  0  0
   17.7009  -18.7628  -13.6526 O   0  0  0  0  0  0  0  0  0  0  0  0
  2  3  2  0
  2  1  1  0
  4  2  1  0
  5  4  1  0
  6  5  1  0
  7  6  1  0
  7  8  1  0
  8 10  1  0
  8  9  1  6
 10 11  2  0
 12 13  1  0
 12 10  1  0
 13 14  1  1
 15 14  1  0
 16 15  2  0
 17 18  2  0
 17 13  1  0
 19 15  1  0
 20 21  1  0
 21 22  2  0
 21 23  1  0
 24 23  1  6
 24 25  1  0
 24 26  1  0
 25 17  1  0
 26 27  1  0
 28 26  2  0
M  END
$$$$
