RDN.pdb
     RDKit          3D

 28 27  0  0  1  0  0  0  0  0999 V2000
   17.0548  -16.7310  -16.3435 N   0  0  0  0  0  0  0  0  0  0  0  0
   17.8977  -15.8397  -17.1031 C   0  0  0  0  0  0  0  0  0  0  0  0
   17.4814  -14.6305  -17.2658 N   0  0  0  0  0  0  0  0  0  0  0  0
   19.1280  -16.2669  -17.6483 N   0  0  0  0  0  0  0  0  0  0  0  0
   19.6157  -17.5988  -17.4170 C   0  0  0  0  0  0  0  0  0  0  0  0
   19.6655  -17.8956  -15.9220 C   0  0  0  0  0  0  0  0  0  0  0  0
   21.0364  -18.3053  -15.4822 C   0  0  0  0  0  0  0  0  0  0  0  0
   21.8426  -18.9930  -16.5343 C   0  0  2  0  0  0  0  0  0  0  0  0
   21.1670  -20.0378  -17.2303 N   0  0  0  0  0  0  0  0  0  0  0  0
   23.0638  -19.5523  -15.8864 C   0  0  0  0  0  0  0  0  0  0  0  0
   22.9499  -20.6759  -15.3073 O   0  0  0  0  0  0  0  0  0  0  0  0
   17.9780  -13.9210  -17.8245 N   0  0  0  0  0  0  0  0  0  0  0  0
   24.3190  -18.9035  -15.8859 C   0  0  2  0  0  0  0  0  0  0  0  0
   25.5126  -19.5266  -15.3013 C   0  0  0  0  0  0  0  0  0  0  0  0
   26.7019  -18.7326  -15.7904 C   0  0  0  0  0  0  0  0  0  0  0  0
   27.0550  -19.0772  -17.1902 O   0  0  0  0  0  0  0  0  0  0  0  0
   26.4606  -19.9675  -17.8202 C   0  0  0  0  0  0  0  0  0  0  0  0
   25.4244  -19.5167  -13.8161 O   0  0  0  0  0  0  0  0  0  0  0  0
   24.8813  -18.5490  -13.2291 O   0  0  0  0  0  0  0  0  0  0  0  0
   28.0937  -18.3468  -17.7653 N   0  0  0  0  0  0  0  0  0  0  0  0
   25.9024  -20.4573   -8.8317 C   0  0  0  0  0  0  0  0  0  0  0  0
   24.8669  -21.1469   -9.5032 O   0  0  0  0  0  0  0  0  0  0  0  0
   23.9620  -21.7133   -8.8531 C   0  0  0  0  0  0  0  0  0  0  0  0
   24.8386  -21.2085  -10.9770 C   0  0  1  0  0  0  0  0  0  0  0  0
   26.0420  -20.4750  -11.5738 N   0  0  0  0  0  0  0  0  0  0  0  0
   25.9366  -20.5727  -13.0132 C   0  0  0  0  0  0  0  0  0  0  0  0
   27.2444  -21.1408  -11.0464 O   0  0  0  0  0  0  0  0  0  0  0  0
   28.0836  -21.7626  -11.9657 O   0  0  0  0  0  0  0  0  0  0  0  0
  2  3  2  0
  2  1  1  0
  4  2  1  0
  5  4  1  0
  6  5  1  0
  7  6  1  0
  7  8  1  0
  8 10  1  0
  8  9  1  1
 10 11  2  0
 12 13  1  0
 12 10  1  0
 13 14  1  6
 15 14  1  0
 16 15  2  0
 17 18  2  0
 17 13  1  0
 19 15  1  0
 20 21  1  0
 21 22  2  0
 21 23  1  0
 24 23  1  6
 24 25  1  0
 24 26  1  0
 25 17  1  0
 26 27  1  0
 28 26  2  0
M  END
$$$$
