RDN.pdb
     RDKit          3D

 28 27  0  0  1  0  0  0  0  0999 V2000
   29.3876  -20.5220   -7.1693 N   0  0  0  0  0  0  0  0  0  0  0  0
   29.6659  -20.9505   -8.5187 C   0  0  0  0  0  0  0  0  0  0  0  0
   30.5704  -21.8555   -8.6750 N   0  0  0  0  0  0  0  0  0  0  0  0
   28.9801  -20.4059   -9.6262 N   0  0  0  0  0  0  0  0  0  0  0  0
   27.5450  -20.4387   -9.6955 C   0  0  0  0  0  0  0  0  0  0  0  0
   27.0765  -21.6761  -10.4536 C   0  0  0  0  0  0  0  0  0  0  0  0
   26.2118  -21.3179  -11.6217 C   0  0  0  0  0  0  0  0  0  0  0  0
   24.9845  -20.5445  -11.2674 C   0  0  2  0  0  0  0  0  0  0  0  0
   24.2552  -21.0431  -10.1485 N   0  0  0  0  0  0  0  0  0  0  0  0
   24.0904  -20.5275  -12.4608 C   0  0  0  0  0  0  0  0  0  0  0  0
   24.5758  -20.0746  -13.5425 O   0  0  0  0  0  0  0  0  0  0  0  0
   30.8739  -22.2136   -9.5925 N   0  0  0  0  0  0  0  0  0  0  0  0
   22.7529  -20.9829  -12.4457 C   0  0  1  0  0  0  0  0  0  0  0  0
   21.8936  -20.9010  -13.6330 C   0  0  0  0  0  0  0  0  0  0  0  0
   20.7812  -21.9047  -13.4352 C   0  0  0  0  0  0  0  0  0  0  0  0
   19.9121  -22.0055  -14.6342 O   0  0  0  0  0  0  0  0  0  0  0  0
   20.0698  -21.2749  -15.6263 C   0  0  0  0  0  0  0  0  0  0  0  0
   21.3605  -19.5207  -13.7893 O   0  0  0  0  0  0  0  0  0  0  0  0
   20.7883  -18.9590  -12.8234 O   0  0  0  0  0  0  0  0  0  0  0  0
   18.9039  -22.9672  -14.5900 N   0  0  0  0  0  0  0  0  0  0  0  0
   22.2167  -14.3425  -16.9248 C   0  0  0  0  0  0  0  0  0  0  0  0
   21.5073  -15.2472  -16.1020 O   0  0  0  0  0  0  0  0  0  0  0  0
   20.5211  -14.8572  -15.4405 C   0  0  0  0  0  0  0  0  0  0  0  0
   21.9189  -16.6611  -16.0117 C   0  0  2  0  0  0  0  0  0  0  0  0
   20.9246  -17.4627  -15.1685 N   0  0  0  0  0  0  0  0  0  0  0  0
   21.4703  -18.7924  -15.0057 C   0  0  0  0  0  0  0  0  0  0  0  0
   19.6497  -17.4588  -15.9047 O   0  0  0  0  0  0  0  0  0  0  0  0
   18.5845  -16.7719  -15.3309 O   0  0  0  0  0  0  0  0  0  0  0  0
  2  3  2  0
  2  1  1  0
  4  2  1  0
  5  4  1  0
  6  5  1  0
  7  6  1  0
  7  8  1  0
  8 10  1  0
  8  9  1  1
 10 11  2  0
 12 13  1  0
 12 10  1  0
 13 14  1  6
 15 14  1  0
 16 15  2  0
 17 18  2  0
 17 13  1  0
 19 15  1  0
 20 21  1  0
 21 22  2  0
 21 23  1  0
 24 23  1  1
 24 25  1  0
 24 26  1  0
 25 17  1  0
 26 27  1  0
 28 26  2  0
M  END
$$$$
