RDN.pdb
     RDKit          3D

 28 27  0  0  1  0  0  0  0  0999 V2000
   26.7516  -19.8066   -9.5127 N   0  0  0  0  0  0  0  0  0  0  0  0
   26.1423  -21.0347   -9.9630 C   0  0  0  0  0  0  0  0  0  0  0  0
   25.3753  -21.6518   -9.1308 N   0  0  0  0  0  0  0  0  0  0  0  0
   26.3721  -21.5449  -11.2592 N   0  0  0  0  0  0  0  0  0  0  0  0
   27.2159  -20.8462  -12.1893 C   0  0  0  0  0  0  0  0  0  0  0  0
   26.6037  -19.4983  -12.5551 C   0  0  0  0  0  0  0  0  0  0  0  0
   25.7251  -19.5964  -13.7630 C   0  0  0  0  0  0  0  0  0  0  0  0
   26.4099  -20.1162  -14.9841 C   0  0  2  0  0  0  0  0  0  0  0  0
   27.5435  -19.3643  -15.4104 N   0  0  0  0  0  0  0  0  0  0  0  0
   25.4106  -20.1567  -16.0903 C   0  0  0  0  0  0  0  0  0  0  0  0
   25.0459  -19.0454  -16.5830 O   0  0  0  0  0  0  0  0  0  0  0  0
   24.9228  -22.5567   -9.3272 N   0  0  0  0  0  0  0  0  0  0  0  0
   24.8600  -21.3510  -16.6070 C   0  0  2  0  0  0  0  0  0  0  0  0
   23.7162  -21.3418  -17.5270 C   0  0  0  0  0  0  0  0  0  0  0  0
   23.6987  -22.6882  -18.2132 C   0  0  0  0  0  0  0  0  0  0  0  0
   24.9814  -22.9696  -18.9048 O   0  0  0  0  0  0  0  0  0  0  0  0
   25.5030  -22.1549  -19.6840 C   0  0  0  0  0  0  0  0  0  0  0  0
   22.4543  -21.0955  -16.7782 O   0  0  0  0  0  0  0  0  0  0  0  0
   22.4967  -20.8382  -15.5502 O   0  0  0  0  0  0  0  0  0  0  0  0
   25.5746  -24.2017  -18.6339 N   0  0  0  0  0  0  0  0  0  0  0  0
   17.8415  -19.2513  -15.7213 C   0  0  0  0  0  0  0  0  0  0  0  0
   18.9731  -18.4705  -16.0503 O   0  0  0  0  0  0  0  0  0  0  0  0
   18.9764  -17.2405  -15.8280 C   0  0  0  0  0  0  0  0  0  0  0  0
   20.1639  -19.0934  -16.6593 C   0  0  2  0  0  0  0  0  0  0  0  0
   19.9862  -20.6094  -16.7701 N   0  0  0  0  0  0  0  0  0  0  0  0
   21.1761  -21.1386  -17.3999 C   0  0  0  0  0  0  0  0  0  0  0  0
   18.7723  -20.8332  -17.5724 O   0  0  0  0  0  0  0  0  0  0  0  0
   17.5538  -20.8242  -16.9008 O   0  0  0  0  0  0  0  0  0  0  0  0
  2  3  2  0
  2  1  1  0
  4  2  1  0
  5  4  1  0
  6  5  1  0
  7  6  1  0
  7  8  1  0
  8 10  1  0
  8  9  1  6
 10 11  2  0
 12 13  1  0
 12 10  1  0
 13 14  1  1
 15 14  1  0
 16 15  2  0
 17 18  2  0
 17 13  1  0
 19 15  1  0
 20 21  1  0
 21 22  2  0
 21 23  1  0
 24 23  1  1
 24 25  1  0
 24 26  1  0
 25 17  1  0
 26 27  1  0
 28 26  2  0
M  END
$$$$
