RDN.pdb
     RDKit          3D

 28 27  0  0  1  0  0  0  0  0999 V2000
   27.6139  -26.5851  -16.2743 N   0  0  0  0  0  0  0  0  0  0  0  0
   28.6523  -25.6821  -16.7081 C   0  0  0  0  0  0  0  0  0  0  0  0
   29.8707  -26.0883  -16.5976 N   0  0  0  0  0  0  0  0  0  0  0  0
   28.3538  -24.4057  -17.2326 N   0  0  0  0  0  0  0  0  0  0  0  0
   27.4494  -23.5203  -16.5520 C   0  0  0  0  0  0  0  0  0  0  0  0
   26.0766  -24.1686  -16.4082 C   0  0  0  0  0  0  0  0  0  0  0  0
   24.9803  -23.2540  -16.8578 C   0  0  0  0  0  0  0  0  0  0  0  0
   24.8761  -21.9849  -16.0777 C   0  0  2  0  0  0  0  0  0  0  0  0
   25.9854  -21.7022  -15.2280 N   0  0  0  0  0  0  0  0  0  0  0  0
   23.6368  -22.0529  -15.2511 C   0  0  0  0  0  0  0  0  0  0  0  0
   23.1623  -23.2055  -15.0114 O   0  0  0  0  0  0  0  0  0  0  0  0
   30.6932  -25.5087  -16.8207 N   0  0  0  0  0  0  0  0  0  0  0  0
   22.9769  -20.9168  -14.7313 C   0  0  1  0  0  0  0  0  0  0  0  0
   21.7543  -21.0318  -13.9271 C   0  0  0  0  0  0  0  0  0  0  0  0
   21.9398  -20.1379  -12.7227 C   0  0  0  0  0  0  0  0  0  0  0  0
   20.8226  -20.2791  -11.7559 O   0  0  0  0  0  0  0  0  0  0  0  0
   19.9599  -21.1655  -11.8699 C   0  0  0  0  0  0  0  0  0  0  0  0
   20.5691  -20.6256  -14.7297 O   0  0  0  0  0  0  0  0  0  0  0  0
   20.6598  -19.6687  -15.5372 O   0  0  0  0  0  0  0  0  0  0  0  0
   20.7903  -19.3611  -10.7073 N   0  0  0  0  0  0  0  0  0  0  0  0
   17.5506  -23.9953  -17.5399 C   0  0  0  0  0  0  0  0  0  0  0  0
   17.9879  -22.7414  -17.0550 O   0  0  0  0  0  0  0  0  0  0  0  0
   18.8539  -22.0914  -17.6793 C   0  0  0  0  0  0  0  0  0  0  0  0
   17.4306  -22.1826  -15.8084 C   0  0  2  0  0  0  0  0  0  0  0  0
   18.1640  -20.8984  -15.4142 N   0  0  0  0  0  0  0  0  0  0  0  0
   19.3126  -21.2829  -14.6234 C   0  0  0  0  0  0  0  0  0  0  0  0
   17.2023  -20.0801  -14.6575 O   0  0  0  0  0  0  0  0  0  0  0  0
   16.3532  -19.2552  -15.3886 O   0  0  0  0  0  0  0  0  0  0  0  0
  2  3  2  0
  2  1  1  0
  4  2  1  0
  5  4  1  0
  6  5  1  0
  7  6  1  0
  7  8  1  0
  8 10  1  0
  8  9  1  1
 10 11  2  0
 12 13  1  0
 12 10  1  0
 13 14  1  6
 15 14  1  0
 16 15  2  0
 17 18  2  0
 17 13  1  0
 19 15  1  0
 20 21  1  0
 21 22  2  0
 21 23  1  0
 24 23  1  6
 24 25  1  0
 24 26  1  0
 25 17  1  0
 26 27  1  0
 28 26  2  0
M  END
$$$$
