RDN.pdb
     RDKit          3D

 28 27  0  0  1  0  0  0  0  0999 V2000
   19.4795  -23.2916   -8.7629 N   0  0  0  0  0  0  0  0  0  0  0  0
   20.2089  -22.2946   -8.0173 C   0  0  0  0  0  0  0  0  0  0  0  0
   20.6767  -22.6434   -6.8678 N   0  0  0  0  0  0  0  0  0  0  0  0
   20.4062  -20.9899   -8.5195 N   0  0  0  0  0  0  0  0  0  0  0  0
   21.2575  -20.7556   -9.6534 C   0  0  0  0  0  0  0  0  0  0  0  0
   22.6932  -21.1585   -9.3338 C   0  0  0  0  0  0  0  0  0  0  0  0
   23.6361  -20.7715  -10.4301 C   0  0  0  0  0  0  0  0  0  0  0  0
   23.2005  -21.1903  -11.7957 C   0  0  2  0  0  0  0  0  0  0  0  0
   23.4938  -22.5428  -12.1379 N   0  0  0  0  0  0  0  0  0  0  0  0
   23.8551  -20.2866  -12.7850 C   0  0  0  0  0  0  0  0  0  0  0  0
   23.9611  -19.0617  -12.4700 O   0  0  0  0  0  0  0  0  0  0  0  0
   21.1923  -22.0095   -6.2397 N   0  0  0  0  0  0  0  0  0  0  0  0
   24.3538  -20.7203  -14.0339 C   0  0  1  0  0  0  0  0  0  0  0  0
   24.8900  -19.7776  -15.0232 C   0  0  0  0  0  0  0  0  0  0  0  0
   25.7056  -20.5908  -16.0018 C   0  0  0  0  0  0  0  0  0  0  0  0
   26.9156  -21.1668  -15.3638 O   0  0  0  0  0  0  0  0  0  0  0  0
   27.7720  -20.4560  -14.8122 C   0  0  0  0  0  0  0  0  0  0  0  0
   23.7798  -19.0585  -15.7046 O   0  0  0  0  0  0  0  0  0  0  0  0
   22.7055  -19.6590  -15.9518 O   0  0  0  0  0  0  0  0  0  0  0  0
   27.0428  -22.5540  -15.4153 N   0  0  0  0  0  0  0  0  0  0  0  0
   20.6009  -14.5123  -16.2905 C   0  0  0  0  0  0  0  0  0  0  0  0
   21.8547  -14.6932  -16.9180 O   0  0  0  0  0  0  0  0  0  0  0  0
   22.0888  -14.1598  -18.0239 C   0  0  0  0  0  0  0  0  0  0  0  0
   22.9028  -15.5119  -16.2793 C   0  0  1  0  0  0  0  0  0  0  0  0
   22.7797  -16.9774  -16.7028 N   0  0  0  0  0  0  0  0  0  0  0  0
   23.8798  -17.6955  -16.0974 C   0  0  0  0  0  0  0  0  0  0  0  0
   22.8310  -16.9960  -18.1740 O   0  0  0  0  0  0  0  0  0  0  0  0
   24.0838  -16.8866  -18.7694 O   0  0  0  0  0  0  0  0  0  0  0  0
  2  3  2  0
  2  1  1  0
  4  2  1  0
  5  4  1  0
  6  5  1  0
  7  6  1  0
  7  8  1  0
  8 10  1  0
  8  9  1  6
 10 11  2  0
 12 13  1  0
 12 10  1  0
 13 14  1  1
 15 14  1  0
 16 15  2  0
 17 18  2  0
 17 13  1  0
 19 15  1  0
 20 21  1  0
 21 22  2  0
 21 23  1  0
 24 23  1  1
 24 25  1  0
 24 26  1  0
 25 17  1  0
 26 27  1  0
 28 26  2  0
M  END
$$$$
