RDN.pdb
     RDKit          3D

 28 27  0  0  1  0  0  0  0  0999 V2000
   24.9887  -25.0144  -14.7892 N   0  0  0  0  0  0  0  0  0  0  0  0
   24.6841  -24.3576  -16.0374 C   0  0  0  0  0  0  0  0  0  0  0  0
   25.5860  -24.3932  -16.9576 N   0  0  0  0  0  0  0  0  0  0  0  0
   23.4519  -23.7017  -16.2489 N   0  0  0  0  0  0  0  0  0  0  0  0
   22.5095  -23.5362  -15.1766 C   0  0  0  0  0  0  0  0  0  0  0  0
   22.8032  -22.2559  -14.4021 C   0  0  0  0  0  0  0  0  0  0  0  0
   21.7514  -21.9739  -13.3751 C   0  0  0  0  0  0  0  0  0  0  0  0
   20.4727  -21.4397  -13.9314 C   0  0  2  0  0  0  0  0  0  0  0  0
   20.5731  -20.1699  -14.5716 N   0  0  0  0  0  0  0  0  0  0  0  0
   19.4893  -21.3435  -12.8144 C   0  0  0  0  0  0  0  0  0  0  0  0
   19.6410  -20.3915  -11.9889 O   0  0  0  0  0  0  0  0  0  0  0  0
   25.4601  -24.0015  -17.9026 N   0  0  0  0  0  0  0  0  0  0  0  0
   18.4163  -22.2448  -12.6339 C   0  0  2  0  0  0  0  0  0  0  0  0
   17.4291  -22.0687  -11.5619 C   0  0  0  0  0  0  0  0  0  0  0  0
   16.0662  -22.2339  -12.1938 C   0  0  0  0  0  0  0  0  0  0  0  0
   15.6009  -20.9780  -12.8334 O   0  0  0  0  0  0  0  0  0  0  0  0
   15.1053  -20.9624  -13.9723 C   0  0  0  0  0  0  0  0  0  0  0  0
   17.6546  -23.0692  -10.4839 O   0  0  0  0  0  0  0  0  0  0  0  0
   17.3457  -24.2711  -10.6727 O   0  0  0  0  0  0  0  0  0  0  0  0
   15.7493  -19.8101  -12.0869 N   0  0  0  0  0  0  0  0  0  0  0  0
   18.5734  -25.5479   -6.1598 C   0  0  0  0  0  0  0  0  0  0  0  0
   17.3782  -24.7997   -6.2615 O   0  0  0  0  0  0  0  0  0  0  0  0
   16.4575  -24.9668   -5.4328 C   0  0  0  0  0  0  0  0  0  0  0  0
   17.1998  -23.8132   -7.3441 C   0  0  2  0  0  0  0  0  0  0  0  0
   18.4705  -23.6999   -8.1894 N   0  0  0  0  0  0  0  0  0  0  0  0
   18.2148  -22.7216   -9.2239 C   0  0  0  0  0  0  0  0  0  0  0  0
   18.7364  -25.0425   -8.7315 O   0  0  0  0  0  0  0  0  0  0  0  0
   19.1403  -26.0244   -7.8322 O   0  0  0  0  0  0  0  0  0  0  0  0
  2  3  2  0
  2  1  1  0
  4  2  1  0
  5  4  1  0
  6  5  1  0
  7  6  1  0
  7  8  1  0
  8 10  1  0
  8  9  1  1
 10 11  2  0
 12 13  1  0
 12 10  1  0
 13 14  1  1
 15 14  1  0
 16 15  2  0
 17 18  2  0
 17 13  1  0
 19 15  1  0
 20 21  1  0
 21 22  2  0
 21 23  1  0
 24 23  1  1
 24 25  1  0
 24 26  1  0
 25 17  1  0
 26 27  1  0
 28 26  2  0
M  END
$$$$
