RDN.pdb
     RDKit          3D

 28 27  0  0  1  0  0  0  0  0999 V2000
   30.7519  -20.0002  -10.6356 N   0  0  0  0  0  0  0  0  0  0  0  0
   30.0355  -21.2382  -10.8251 C   0  0  0  0  0  0  0  0  0  0  0  0
   30.7364  -22.2962  -11.0510 N   0  0  0  0  0  0  0  0  0  0  0  0
   28.6260  -21.2959  -10.7668 N   0  0  0  0  0  0  0  0  0  0  0  0
   27.8497  -21.5933  -11.9391 C   0  0  0  0  0  0  0  0  0  0  0  0
   27.1709  -20.3321  -12.4625 C   0  0  0  0  0  0  0  0  0  0  0  0
   25.7850  -20.6104  -12.9548 C   0  0  0  0  0  0  0  0  0  0  0  0
   25.4524  -22.0612  -13.0758 C   0  0  2  0  0  0  0  0  0  0  0  0
   26.3932  -22.8400  -13.8112 N   0  0  0  0  0  0  0  0  0  0  0  0
   24.1153  -22.1743  -13.7263 C   0  0  0  0  0  0  0  0  0  0  0  0
   24.0952  -22.3695  -14.9803 O   0  0  0  0  0  0  0  0  0  0  0  0
   30.3323  -23.2179  -11.2732 N   0  0  0  0  0  0  0  0  0  0  0  0
   22.8916  -22.0761  -13.0268 C   0  0  1  0  0  0  0  0  0  0  0  0
   21.6038  -22.3462  -13.6775 C   0  0  0  0  0  0  0  0  0  0  0  0
   20.6494  -22.7820  -12.5897 C   0  0  0  0  0  0  0  0  0  0  0  0
   19.3104  -23.1175  -13.1351 O   0  0  0  0  0  0  0  0  0  0  0  0
   18.3171  -22.3997  -12.9328 C   0  0  0  0  0  0  0  0  0  0  0  0
   21.1136  -21.1275  -14.3763 O   0  0  0  0  0  0  0  0  0  0  0  0
   21.2003  -20.0081  -13.8148 O   0  0  0  0  0  0  0  0  0  0  0  0
   19.2236  -24.2861  -13.8903 N   0  0  0  0  0  0  0  0  0  0  0  0
   18.7064  -17.8682  -17.4687 C   0  0  0  0  0  0  0  0  0  0  0  0
   18.1341  -18.4130  -16.2964 O   0  0  0  0  0  0  0  0  0  0  0  0
   17.0710  -17.9428  -15.8368 C   0  0  0  0  0  0  0  0  0  0  0  0
   18.7807  -19.5413  -15.5995 C   0  0  2  0  0  0  0  0  0  0  0  0
   20.0388  -19.9907  -16.3462 N   0  0  0  0  0  0  0  0  0  0  0  0
   20.5395  -21.1711  -15.6766 C   0  0  0  0  0  0  0  0  0  0  0  0
   20.9847  -18.8639  -16.2928 O   0  0  0  0  0  0  0  0  0  0  0  0
   21.7468  -18.6171  -17.4305 O   0  0  0  0  0  0  0  0  0  0  0  0
  2  3  2  0
  2  1  1  0
  4  2  1  0
  5  4  1  0
  6  5  1  0
  7  6  1  0
  7  8  1  0
  8 10  1  0
  8  9  1  6
 10 11  2  0
 12 13  1  0
 12 10  1  0
 13 14  1  6
 15 14  1  0
 16 15  2  0
 17 18  2  0
 17 13  1  0
 19 15  1  0
 20 21  1  0
 21 22  2  0
 21 23  1  0
 24 23  1  6
 24 25  1  0
 24 26  1  0
 25 17  1  0
 26 27  1  0
 28 26  2  0
M  END
$$$$
