RDN.pdb
     RDKit          3D

 28 27  0  0  1  0  0  0  0  0999 V2000
   19.0305  -33.7300   -0.3577 N   0  0  0  0  0  0  0  0  0  0  0  0
   18.0527  -34.3399   -1.2260 C   0  0  0  0  0  0  0  0  0  0  0  0
   18.2909  -35.5406   -1.6302 N   0  0  0  0  0  0  0  0  0  0  0  0
   16.8819  -33.6565   -1.6202 N   0  0  0  0  0  0  0  0  0  0  0  0
   16.9255  -32.2679   -1.9881 C   0  0  0  0  0  0  0  0  0  0  0  0
   17.1446  -31.3970   -0.7557 C   0  0  0  0  0  0  0  0  0  0  0  0
   17.1740  -29.9411   -1.1022 C   0  0  0  0  0  0  0  0  0  0  0  0
   18.3773  -29.5150   -1.8771 C   0  0  2  0  0  0  0  0  0  0  0  0
   19.5897  -29.4533   -1.1297 N   0  0  0  0  0  0  0  0  0  0  0  0
   18.0976  -28.1710   -2.4598 C   0  0  0  0  0  0  0  0  0  0  0  0
   18.2157  -27.1693   -1.6895 O   0  0  0  0  0  0  0  0  0  0  0  0
   17.6552  -36.0810   -2.2353 N   0  0  0  0  0  0  0  0  0  0  0  0
   17.7141  -27.9628   -3.8036 C   0  0  2  0  0  0  0  0  0  0  0  0
   17.5041  -26.6163   -4.3491 C   0  0  0  0  0  0  0  0  0  0  0  0
   17.6010  -26.7358   -5.8526 C   0  0  0  0  0  0  0  0  0  0  0  0
   17.5146  -25.4109   -6.5161 O   0  0  0  0  0  0  0  0  0  0  0  0
   17.6012  -25.2838   -7.7487 C   0  0  0  0  0  0  0  0  0  0  0  0
   16.1770  -26.0910   -3.9289 O   0  0  0  0  0  0  0  0  0  0  0  0
   15.5559  -26.6435   -2.9883 O   0  0  0  0  0  0  0  0  0  0  0  0
   17.3302  -24.3101   -5.6810 N   0  0  0  0  0  0  0  0  0  0  0  0
   13.8704  -21.4133   -2.0236 C   0  0  0  0  0  0  0  0  0  0  0  0
   13.9326  -22.8254   -2.0005 O   0  0  0  0  0  0  0  0  0  0  0  0
   13.0720  -23.4841   -1.3776 C   0  0  0  0  0  0  0  0  0  0  0  0
   15.0107  -23.5412   -2.7090 C   0  0  2  0  0  0  0  0  0  0  0  0
   14.4669  -24.2463   -3.9538 N   0  0  0  0  0  0  0  0  0  0  0  0
   15.5659  -24.9698   -4.5548 C   0  0  0  0  0  0  0  0  0  0  0  0
   13.9318  -23.1940   -4.8333 O   0  0  0  0  0  0  0  0  0  0  0  0
   12.5792  -22.8906   -4.7142 O   0  0  0  0  0  0  0  0  0  0  0  0
  2  3  2  0
  2  1  1  0
  4  2  1  0
  5  4  1  0
  6  5  1  0
  7  6  1  0
  7  8  1  0
  8 10  1  0
  8  9  1  1
 10 11  2  0
 12 13  1  0
 12 10  1  0
 13 14  1  6
 15 14  1  0
 16 15  2  0
 17 18  2  0
 17 13  1  0
 19 15  1  0
 20 21  1  0
 21 22  2  0
 21 23  1  0
 24 23  1  1
 24 25  1  0
 24 26  1  0
 25 17  1  0
 26 27  1  0
 28 26  2  0
M  END
$$$$
