RDN.pdb
     RDKit          3D

 28 27  0  0  1  0  0  0  0  0999 V2000
   21.6545  -22.0517   -6.4248 N   0  0  0  0  0  0  0  0  0  0  0  0
   22.0707  -21.8063   -7.7844 C   0  0  0  0  0  0  0  0  0  0  0  0
   21.3107  -22.2554   -8.7237 N   0  0  0  0  0  0  0  0  0  0  0  0
   23.2593  -21.1043   -8.0810 N   0  0  0  0  0  0  0  0  0  0  0  0
   23.3721  -20.3146   -9.2763 C   0  0  0  0  0  0  0  0  0  0  0  0
   24.1551  -21.0721  -10.3433 C   0  0  0  0  0  0  0  0  0  0  0  0
   24.3456  -20.2513  -11.5805 C   0  0  0  0  0  0  0  0  0  0  0  0
   24.9165  -21.0024  -12.7380 C   0  0  2  0  0  0  0  0  0  0  0  0
   26.3005  -21.3262  -12.6279 N   0  0  0  0  0  0  0  0  0  0  0  0
   24.7059  -20.1842  -13.9668 C   0  0  0  0  0  0  0  0  0  0  0  0
   24.1550  -19.0502  -13.8208 O   0  0  0  0  0  0  0  0  0  0  0  0
   21.5337  -22.1857   -9.7275 N   0  0  0  0  0  0  0  0  0  0  0  0
   25.0831  -20.6029  -15.2625 C   0  0  1  0  0  0  0  0  0  0  0  0
   24.7717  -19.8058  -16.4551 C   0  0  0  0  0  0  0  0  0  0  0  0
   25.7357  -20.2422  -17.5342 C   0  0  0  0  0  0  0  0  0  0  0  0
   27.0496  -19.5641  -17.4048 O   0  0  0  0  0  0  0  0  0  0  0  0
   27.1445  -18.3381  -17.2296 C   0  0  0  0  0  0  0  0  0  0  0  0
   23.3585  -20.0237  -16.8664 O   0  0  0  0  0  0  0  0  0  0  0  0
   23.0302  -21.0966  -17.4294 O   0  0  0  0  0  0  0  0  0  0  0  0
   28.1782  -20.3778  -17.4903 N   0  0  0  0  0  0  0  0  0  0  0  0
   19.2136  -18.2861  -13.8183 C   0  0  0  0  0  0  0  0  0  0  0  0
   19.9897  -18.2909  -14.9999 O   0  0  0  0  0  0  0  0  0  0  0  0
   20.5474  -17.2432  -15.3919 C   0  0  0  0  0  0  0  0  0  0  0  0
   20.1528  -19.5286  -15.7861 C   0  0  1  0  0  0  0  0  0  0  0  0
   20.9682  -19.2626  -17.0536 N   0  0  0  0  0  0  0  0  0  0  0  0
   22.3410  -19.0547  -16.6478 C   0  0  0  0  0  0  0  0  0  0  0  0
   20.3788  -18.0739  -17.6913 O   0  0  0  0  0  0  0  0  0  0  0  0
   21.1397  -16.9091  -17.6947 O   0  0  0  0  0  0  0  0  0  0  0  0
  2  3  2  0
  2  1  1  0
  4  2  1  0
  5  4  1  0
  6  5  1  0
  7  6  1  0
  7  8  1  0
  8 10  1  0
  8  9  1  1
 10 11  2  0
 12 13  1  0
 12 10  1  0
 13 14  1  6
 15 14  1  0
 16 15  2  0
 17 18  2  0
 17 13  1  0
 19 15  1  0
 20 21  1  0
 21 22  2  0
 21 23  1  0
 24 23  1  6
 24 25  1  0
 24 26  1  0
 25 17  1  0
 26 27  1  0
 28 26  2  0
M  END
$$$$
