RDN.pdb
     RDKit          3D

 28 27  0  0  1  0  0  0  0  0999 V2000
   29.1300  -22.9670  -16.2406 N   0  0  0  0  0  0  0  0  0  0  0  0
   28.9292  -22.0646  -17.3484 C   0  0  0  0  0  0  0  0  0  0  0  0
   29.9555  -21.7901  -18.0785 N   0  0  0  0  0  0  0  0  0  0  0  0
   27.6646  -21.5021  -17.6271 N   0  0  0  0  0  0  0  0  0  0  0  0
   26.5146  -21.8407  -16.8345 C   0  0  0  0  0  0  0  0  0  0  0  0
   26.5442  -21.0923  -15.5061 C   0  0  0  0  0  0  0  0  0  0  0  0
   25.1665  -20.8558  -14.9707 C   0  0  0  0  0  0  0  0  0  0  0  0
   24.1493  -20.5186  -16.0107 C   0  0  2  0  0  0  0  0  0  0  0  0
   24.4135  -19.3321  -16.7555 N   0  0  0  0  0  0  0  0  0  0  0  0
   22.8271  -20.3828  -15.3346 C   0  0  0  0  0  0  0  0  0  0  0  0
   22.5797  -21.1810  -14.3793 O   0  0  0  0  0  0  0  0  0  0  0  0
   29.9139  -21.2303  -18.9429 N   0  0  0  0  0  0  0  0  0  0  0  0
   21.8538  -19.4257  -15.6995 C   0  0  1  0  0  0  0  0  0  0  0  0
   20.5587  -19.3382  -15.0141 C   0  0  0  0  0  0  0  0  0  0  0  0
   19.8535  -18.1225  -15.5697 C   0  0  0  0  0  0  0  0  0  0  0  0
   20.4179  -16.8626  -15.0246 O   0  0  0  0  0  0  0  0  0  0  0  0
   20.8690  -16.7874  -13.8698 C   0  0  0  0  0  0  0  0  0  0  0  0
   19.7691  -20.5783  -15.2437 O   0  0  0  0  0  0  0  0  0  0  0  0
   19.7186  -21.0830  -16.3919 O   0  0  0  0  0  0  0  0  0  0  0  0
   20.4159  -15.7615  -15.8796 N   0  0  0  0  0  0  0  0  0  0  0  0
   16.9898  -24.8562  -14.5436 C   0  0  0  0  0  0  0  0  0  0  0  0
   18.0602  -24.7640  -13.6247 O   0  0  0  0  0  0  0  0  0  0  0  0
   18.3999  -25.7603  -12.9507 C   0  0  0  0  0  0  0  0  0  0  0  0
   18.7905  -23.4943  -13.4476 C   0  0  2  0  0  0  0  0  0  0  0  0
   18.2805  -22.4342  -14.4265 N   0  0  0  0  0  0  0  0  0  0  0  0
   19.0542  -21.2325  -14.2030 C   0  0  0  0  0  0  0  0  0  0  0  0
   16.8488  -22.2491  -14.1381 O   0  0  0  0  0  0  0  0  0  0  0  0
   16.4502  -21.0033  -13.6635 O   0  0  0  0  0  0  0  0  0  0  0  0
  2  3  2  0
  2  1  1  0
  4  2  1  0
  5  4  1  0
  6  5  1  0
  7  6  1  0
  7  8  1  0
  8 10  1  0
  8  9  1  1
 10 11  2  0
 12 13  1  0
 12 10  1  0
 13 14  1  1
 15 14  1  0
 16 15  2  0
 17 18  2  0
 17 13  1  0
 19 15  1  0
 20 21  1  0
 21 22  2  0
 21 23  1  0
 24 23  1  6
 24 25  1  0
 24 26  1  0
 25 17  1  0
 26 27  1  0
 28 26  2  0
M  END
$$$$
