RDN.pdb
     RDKit          3D

 28 27  0  0  1  0  0  0  0  0999 V2000
   29.6906  -21.9251  -17.5808 N   0  0  0  0  0  0  0  0  0  0  0  0
   28.8594  -22.3976  -16.5001 C   0  0  0  0  0  0  0  0  0  0  0  0
   29.2304  -23.4761  -15.8993 N   0  0  0  0  0  0  0  0  0  0  0  0
   27.6876  -21.7126  -16.1115 N   0  0  0  0  0  0  0  0  0  0  0  0
   27.2064  -20.5866  -16.8637 C   0  0  0  0  0  0  0  0  0  0  0  0
   27.2915  -19.3130  -16.0294 C   0  0  0  0  0  0  0  0  0  0  0  0
   25.9393  -18.7230  -15.7763 C   0  0  0  0  0  0  0  0  0  0  0  0
   25.1362  -19.4407  -14.7419 C   0  0  2  0  0  0  0  0  0  0  0  0
   25.2009  -20.8635  -14.8030 N   0  0  0  0  0  0  0  0  0  0  0  0
   23.7147  -19.0131  -14.8842 C   0  0  0  0  0  0  0  0  0  0  0  0
   23.4534  -17.7893  -14.6722 O   0  0  0  0  0  0  0  0  0  0  0  0
   28.6784  -23.9459  -15.1667 N   0  0  0  0  0  0  0  0  0  0  0  0
   22.6635  -19.8888  -15.2370 C   0  0  2  0  0  0  0  0  0  0  0  0
   21.2568  -19.4732  -15.1787 C   0  0  0  0  0  0  0  0  0  0  0  0
   20.7976  -19.2899  -16.6069 C   0  0  0  0  0  0  0  0  0  0  0  0
   19.3643  -18.9112  -16.6792 O   0  0  0  0  0  0  0  0  0  0  0  0
   18.8882  -17.9966  -15.9865 C   0  0  0  0  0  0  0  0  0  0  0  0
   20.4445  -20.5006  -14.4728 O   0  0  0  0  0  0  0  0  0  0  0  0
   20.9926  -21.5475  -14.0493 O   0  0  0  0  0  0  0  0  0  0  0  0
   18.5751  -19.6381  -17.5691 N   0  0  0  0  0  0  0  0  0  0  0  0
   17.1288  -23.1856  -11.8438 C   0  0  0  0  0  0  0  0  0  0  0  0
   18.0979  -22.3376  -11.2604 O   0  0  0  0  0  0  0  0  0  0  0  0
   18.3443  -22.4099  -10.0372 C   0  0  0  0  0  0  0  0  0  0  0  0
   18.8310  -21.3572  -12.0839 C   0  0  1  0  0  0  0  0  0  0  0  0
   18.2698  -21.3168  -13.5072 N   0  0  0  0  0  0  0  0  0  0  0  0
   19.0480  -20.3502  -14.2507 C   0  0  0  0  0  0  0  0  0  0  0  0
   16.8528  -20.9351  -13.3901 O   0  0  0  0  0  0  0  0  0  0  0  0
   16.5732  -19.6741  -12.8729 O   0  0  0  0  0  0  0  0  0  0  0  0
  2  3  2  0
  2  1  1  0
  4  2  1  0
  5  4  1  0
  6  5  1  0
  7  6  1  0
  7  8  1  0
  8 10  1  0
  8  9  1  6
 10 11  2  0
 12 13  1  0
 12 10  1  0
 13 14  1  6
 15 14  1  0
 16 15  2  0
 17 18  2  0
 17 13  1  0
 19 15  1  0
 20 21  1  0
 21 22  2  0
 21 23  1  0
 24 23  1  6
 24 25  1  0
 24 26  1  0
 25 17  1  0
 26 27  1  0
 28 26  2  0
M  END
$$$$
