RDN.pdb
     RDKit          3D

 28 27  0  0  1  0  0  0  0  0999 V2000
   26.4373  -32.2248  -12.5844 N   0  0  0  0  0  0  0  0  0  0  0  0
   25.2572  -32.6593  -13.2920 C   0  0  0  0  0  0  0  0  0  0  0  0
   25.2543  -32.5214  -14.5736 N   0  0  0  0  0  0  0  0  0  0  0  0
   24.1486  -33.2132  -12.6156 N   0  0  0  0  0  0  0  0  0  0  0  0
   24.1037  -33.2529  -11.1797 C   0  0  0  0  0  0  0  0  0  0  0  0
   23.7771  -34.6616  -10.6957 C   0  0  0  0  0  0  0  0  0  0  0  0
   23.7816  -34.7509   -9.2015 C   0  0  0  0  0  0  0  0  0  0  0  0
   25.0470  -35.2885   -8.6189 C   0  0  2  0  0  0  0  0  0  0  0  0
   25.2775  -36.6770   -8.8456 N   0  0  0  0  0  0  0  0  0  0  0  0
   25.0217  -35.0345   -7.1496 C   0  0  0  0  0  0  0  0  0  0  0  0
   24.3123  -35.8110   -6.4392 O   0  0  0  0  0  0  0  0  0  0  0  0
   24.4578  -32.7719  -15.1777 N   0  0  0  0  0  0  0  0  0  0  0  0
   25.7363  -33.9899   -6.5215 C   0  0  2  0  0  0  0  0  0  0  0  0
   25.6341  -33.7402   -5.0786 C   0  0  0  0  0  0  0  0  0  0  0  0
   26.7450  -32.7790   -4.7234 C   0  0  0  0  0  0  0  0  0  0  0  0
   27.9646  -33.4923   -4.2687 O   0  0  0  0  0  0  0  0  0  0  0  0
   29.0590  -33.3578   -4.8407 C   0  0  0  0  0  0  0  0  0  0  0  0
   24.2982  -33.1754   -4.7465 O   0  0  0  0  0  0  0  0  0  0  0  0
   23.6268  -32.5957   -5.6348 O   0  0  0  0  0  0  0  0  0  0  0  0
   27.8187  -34.3257   -3.1609 N   0  0  0  0  0  0  0  0  0  0  0  0
   19.4061  -32.1565   -4.3040 C   0  0  0  0  0  0  0  0  0  0  0  0
   20.0281  -33.2574   -3.6718 O   0  0  0  0  0  0  0  0  0  0  0  0
   19.3998  -33.9415   -2.8355 C   0  0  0  0  0  0  0  0  0  0  0  0
   21.4242  -33.6146   -3.9884 C   0  0  1  0  0  0  0  0  0  0  0  0
   22.3995  -32.7940   -3.1412 N   0  0  0  0  0  0  0  0  0  0  0  0
   23.7341  -33.2626   -3.4441 C   0  0  0  0  0  0  0  0  0  0  0  0
   22.0255  -33.0169   -1.7349 O   0  0  0  0  0  0  0  0  0  0  0  0
   22.9354  -33.6998   -0.9339 O   0  0  0  0  0  0  0  0  0  0  0  0
  2  3  2  0
  2  1  1  0
  4  2  1  0
  5  4  1  0
  6  5  1  0
  7  6  1  0
  7  8  1  0
  8 10  1  0
  8  9  1  1
 10 11  2  0
 12 13  1  0
 12 10  1  0
 13 14  1  6
 15 14  1  0
 16 15  2  0
 17 18  2  0
 17 13  1  0
 19 15  1  0
 20 21  1  0
 21 22  2  0
 21 23  1  0
 24 23  1  6
 24 25  1  0
 24 26  1  0
 25 17  1  0
 26 27  1  0
 28 26  2  0
M  END
$$$$
