RDN.pdb
     RDKit          3D

 28 27  0  0  1  0  0  0  0  0999 V2000
   18.5482  -16.6936  -15.0428 N   0  0  0  0  0  0  0  0  0  0  0  0
   18.1936  -16.0796  -16.2994 C   0  0  0  0  0  0  0  0  0  0  0  0
   18.3172  -16.7984  -17.3623 N   0  0  0  0  0  0  0  0  0  0  0  0
   17.7299  -14.7479  -16.3696 N   0  0  0  0  0  0  0  0  0  0  0  0
   18.4137  -13.6901  -15.6775 C   0  0  0  0  0  0  0  0  0  0  0  0
   17.7170  -12.3559  -15.9222 C   0  0  0  0  0  0  0  0  0  0  0  0
   18.3655  -11.2424  -15.1606 C   0  0  0  0  0  0  0  0  0  0  0  0
   19.2943  -10.3992  -15.9707 C   0  0  2  0  0  0  0  0  0  0  0  0
   20.5169  -11.0302  -16.3443 N   0  0  0  0  0  0  0  0  0  0  0  0
   19.6033   -9.1696  -15.1854 C   0  0  0  0  0  0  0  0  0  0  0  0
   19.2626   -9.1618  -13.9628 O   0  0  0  0  0  0  0  0  0  0  0  0
   18.0381  -16.4863  -18.3040 N   0  0  0  0  0  0  0  0  0  0  0  0
   20.2451   -8.0333  -15.7269 C   0  0  1  0  0  0  0  0  0  0  0  0
   20.4503   -6.8113  -14.9399 C   0  0  0  0  0  0  0  0  0  0  0  0
   21.9427   -6.5824  -14.8727 C   0  0  0  0  0  0  0  0  0  0  0  0
   22.2766   -5.3533  -14.1106 O   0  0  0  0  0  0  0  0  0  0  0  0
   22.7028   -4.3278  -14.6671 C   0  0  0  0  0  0  0  0  0  0  0  0
   19.7514   -5.6634  -15.5783 O   0  0  0  0  0  0  0  0  0  0  0  0
   19.9376   -5.4172  -16.7951 O   0  0  0  0  0  0  0  0  0  0  0  0
   22.0868   -5.4086  -12.7307 N   0  0  0  0  0  0  0  0  0  0  0  0
   16.7636   -1.4994  -16.3118 C   0  0  0  0  0  0  0  0  0  0  0  0
   16.0836   -2.4370  -15.5013 O   0  0  0  0  0  0  0  0  0  0  0  0
   14.8688   -2.2872  -15.2478 C   0  0  0  0  0  0  0  0  0  0  0  0
   16.7950   -3.6032  -14.9438 C   0  0  2  0  0  0  0  0  0  0  0  0
   18.2330   -3.6611  -15.4645 N   0  0  0  0  0  0  0  0  0  0  0  0
   18.8643   -4.8143  -14.8612 C   0  0  0  0  0  0  0  0  0  0  0  0
   18.8733   -2.3944  -15.0736 O   0  0  0  0  0  0  0  0  0  0  0  0
   18.5156   -1.2533  -15.7850 O   0  0  0  0  0  0  0  0  0  0  0  0
  2  3  2  0
  2  1  1  0
  4  2  1  0
  5  4  1  0
  6  5  1  0
  7  6  1  0
  7  8  1  0
  8 10  1  0
  8  9  1  1
 10 11  2  0
 12 13  1  0
 12 10  1  0
 13 14  1  1
 15 14  1  0
 16 15  2  0
 17 18  2  0
 17 13  1  0
 19 15  1  0
 20 21  1  0
 21 22  2  0
 21 23  1  0
 24 23  1  6
 24 25  1  0
 24 26  1  0
 25 17  1  0
 26 27  1  0
 28 26  2  0
M  END
$$$$
