AYT.pdb
     RDKit          3D

 25 25  0  0  1  0  0  0  0  0999 V2000
    8.3073  -18.2134   19.3814 C   0  0  0  0  0  0  0  0  0  0  0  0
    8.7402  -16.7698   19.3185 C   0  0  2  0  0  0  0  0  0  0  0  0
    9.9335  -16.6095   18.5377 N   0  0  0  0  0  0  0  0  0  0  0  0
    8.8403  -16.1401   20.6488 C   0  0  0  0  0  0  0  0  0  0  0  0
    9.9768  -16.1726   21.2117 O   0  0  0  0  0  0  0  0  0  0  0  0
    7.5842  -12.0337   28.2172 O   0  0  0  0  0  0  0  0  0  0  0  0
    7.3860  -12.5336   26.9295 C   0  0  0  0  0  0  0  0  0  0  0  0
    6.5753  -13.6364   26.7022 C   0  0  0  0  0  0  0  0  0  0  0  0
    6.3802  -14.1288   25.4327 C   0  0  0  0  0  0  0  0  0  0  0  0
    7.0115  -13.4986   24.3874 C   0  0  0  0  0  0  0  0  0  0  0  0
    6.8025  -14.0275   23.0217 C   0  0  0  0  0  0  0  0  0  0  0  0
    7.9427  -14.9301   22.6189 C   0  0  2  0  0  0  0  0  0  0  0  0
    7.7693  -15.5135   21.3251 N   0  0  0  0  0  0  0  0  0  0  0  0
    8.1923  -15.9743   23.6465 C   0  0  0  0  0  0  0  0  0  0  0  0
    7.4332  -16.9656   23.8017 O   0  0  0  0  0  0  0  0  0  0  0  0
    7.8291  -12.3918   24.5881 C   0  0  0  0  0  0  0  0  0  0  0  0
    8.0157  -11.9079   25.8711 C   0  0  0  0  0  0  0  0  0  0  0  0
   11.4189  -18.5489   26.0178 C   0  0  0  0  0  0  0  0  0  0  0  0
   11.0291  -17.5327   24.9724 C   0  0  1  0  0  0  0  0  0  0  0  0
   10.9397  -18.0985   23.7078 O   0  0  0  0  0  0  0  0  0  0  0  0
    9.6915  -16.9300   25.3672 C   0  0  2  0  0  0  0  0  0  0  0  0
    9.3361  -15.8432   24.4854 N   0  0  0  0  0  0  0  0  0  0  0  0
    9.7033  -16.4259   26.7509 C   0  0  0  0  0  0  0  0  0  0  0  0
    9.5708  -17.2708   27.8332 O   0  0  0  0  0  0  0  0  0  0  0  0
    9.8357  -15.1916   27.0139 O   0  0  0  0  0  0  0  0  0  0  0  0
  2  1  1  1
  3  2  1  0
  4  5  2  0
  4  2  1  0
  6  7  1  0
  7  8  2  0
  8  9  1  0
 10  9  2  0
 10 11  1  0
 12 11  1  1
 12 13  1  0
 13  4  1  0
 14 22  1  0
 14 12  1  0
 15 14  2  0
 16 10  1  0
 17  7  1  0
 17 16  2  0
 19 21  1  0
 19 18  1  1
 20 19  1  0
 21 22  1  6
 21 23  1  0
 23 24  1  0
 25 23  2  0
M  END
$$$$
