AYT.pdb
     RDKit          3D

 25 25  0  0  1  0  0  0  0  0999 V2000
    7.8194  -12.6736   20.0843 C   0  0  0  0  0  0  0  0  0  0  0  0
    8.1457  -14.1368   20.2519 C   0  0  2  0  0  0  0  0  0  0  0  0
    7.0759  -14.9733   19.7881 N   0  0  0  0  0  0  0  0  0  0  0  0
    8.5832  -14.4762   21.6192 C   0  0  0  0  0  0  0  0  0  0  0  0
    9.7503  -14.1077   21.9532 O   0  0  0  0  0  0  0  0  0  0  0  0
    6.6732  -10.2108   26.8811 O   0  0  0  0  0  0  0  0  0  0  0  0
    6.8246  -11.5133   26.4035 C   0  0  0  0  0  0  0  0  0  0  0  0
    7.8838  -12.3111   26.8117 C   0  0  0  0  0  0  0  0  0  0  0  0
    8.0326  -13.5950   26.3407 C   0  0  0  0  0  0  0  0  0  0  0  0
    7.1012  -14.0722   25.4502 C   0  0  0  0  0  0  0  0  0  0  0  0
    7.2604  -15.4528   24.9430 C   0  0  0  0  0  0  0  0  0  0  0  0
    8.3090  -15.5052   23.8592 C   0  0  2  0  0  0  0  0  0  0  0  0
    7.7987  -15.1740   22.5652 N   0  0  0  0  0  0  0  0  0  0  0  0
    8.9991  -16.8213   23.8404 C   0  0  0  0  0  0  0  0  0  0  0  0
    8.4290  -17.8786   23.4663 O   0  0  0  0  0  0  0  0  0  0  0  0
    6.0305  -13.2932   25.0252 C   0  0  0  0  0  0  0  0  0  0  0  0
    5.8941  -12.0034   25.5079 C   0  0  0  0  0  0  0  0  0  0  0  0
   11.6524  -17.9476   21.8560 C   0  0  0  0  0  0  0  0  0  0  0  0
   12.2116  -18.1049   23.2489 C   0  0  1  0  0  0  0  0  0  0  0  0
   13.0729  -17.0683   23.5815 O   0  0  0  0  0  0  0  0  0  0  0  0
   11.0504  -18.1493   24.2277 C   0  0  2  0  0  0  0  0  0  0  0  0
   10.3580  -16.8826   24.2630 N   0  0  0  0  0  0  0  0  0  0  0  0
   11.4950  -18.4784   25.5926 C   0  0  0  0  0  0  0  0  0  0  0  0
   12.0301  -19.7107   25.9052 O   0  0  0  0  0  0  0  0  0  0  0  0
   11.4075  -17.6451   26.5457 O   0  0  0  0  0  0  0  0  0  0  0  0
  2  1  1  1
  3  2  1  0
  4  5  2  0
  4  2  1  0
  6  7  1  0
  7  8  2  0
  8  9  1  0
 10  9  2  0
 10 11  1  0
 12 11  1  1
 12 13  1  0
 13  4  1  0
 14 22  1  0
 14 12  1  0
 15 14  2  0
 16 10  1  0
 17  7  1  0
 17 16  2  0
 19 21  1  0
 19 18  1  6
 20 19  1  0
 21 22  1  1
 21 23  1  0
 23 24  1  0
 25 23  2  0
M  END
$$$$
