AYT.pdb
     RDKit          3D

 25 25  0  0  1  0  0  0  0  0999 V2000
    5.8225  -15.5199   20.5567 C   0  0  0  0  0  0  0  0  0  0  0  0
    7.2480  -15.0378   20.6603 C   0  0  2  0  0  0  0  0  0  0  0  0
    8.0574  -15.5480   19.5908 N   0  0  0  0  0  0  0  0  0  0  0  0
    7.8419  -15.2776   21.9892 C   0  0  0  0  0  0  0  0  0  0  0  0
    8.5921  -16.2942   22.1042 O   0  0  0  0  0  0  0  0  0  0  0  0
   10.9354  -14.9013   30.0920 O   0  0  0  0  0  0  0  0  0  0  0  0
   10.2666  -14.5726   28.9121 C   0  0  0  0  0  0  0  0  0  0  0  0
    8.9561  -14.1172   28.9303 C   0  0  0  0  0  0  0  0  0  0  0  0
    8.2973  -13.7933   27.7670 C   0  0  0  0  0  0  0  0  0  0  0  0
    8.9721  -13.9323   26.5780 C   0  0  0  0  0  0  0  0  0  0  0  0
    8.2644  -13.5843   25.3264 C   0  0  0  0  0  0  0  0  0  0  0  0
    8.2415  -14.7608   24.3818 C   0  0  2  0  0  0  0  0  0  0  0  0
    7.6324  -14.4610   23.1234 N   0  0  0  0  0  0  0  0  0  0  0  0
    7.6067  -15.9468   25.0134 C   0  0  0  0  0  0  0  0  0  0  0  0
    6.3695  -16.0159   25.2315 O   0  0  0  0  0  0  0  0  0  0  0  0
   10.2856  -14.3866   26.5323 C   0  0  0  0  0  0  0  0  0  0  0  0
   10.9353  -14.7085   27.7110 C   0  0  0  0  0  0  0  0  0  0  0  0
    6.4464  -18.7287   24.0129 C   0  0  0  0  0  0  0  0  0  0  0  0
    7.5310  -19.2632   24.9159 C   0  0  1  0  0  0  0  0  0  0  0  0
    8.6874  -19.5695   24.2116 O   0  0  0  0  0  0  0  0  0  0  0  0
    7.8304  -18.2156   25.9749 C   0  0  2  0  0  0  0  0  0  0  0  0
    8.4350  -17.0447   25.3843 N   0  0  0  0  0  0  0  0  0  0  0  0
    8.7315  -18.7320   27.0190 C   0  0  0  0  0  0  0  0  0  0  0  0
    8.3392  -19.7268   27.8903 O   0  0  0  0  0  0  0  0  0  0  0  0
    9.9107  -18.2874   27.1673 O   0  0  0  0  0  0  0  0  0  0  0  0
  2  1  1  1
  3  2  1  0
  4  5  2  0
  4  2  1  0
  6  7  1  0
  7  8  2  0
  8  9  1  0
 10  9  2  0
 10 11  1  0
 12 11  1  1
 12 13  1  0
 13  4  1  0
 14 22  1  0
 14 12  1  0
 15 14  2  0
 16 10  1  0
 17  7  1  0
 17 16  2  0
 19 21  1  0
 19 18  1  6
 20 19  1  0
 21 22  1  6
 21 23  1  0
 23 24  1  0
 25 23  2  0
M  END
$$$$
