AYT.pdb
     RDKit          3D

 25 25  0  0  1  0  0  0  0  0999 V2000
    7.6406  -12.7625   18.4040 C   0  0  0  0  0  0  0  0  0  0  0  0
    7.8054  -14.1525   18.9663 C   0  0  2  0  0  0  0  0  0  0  0  0
    6.6740  -14.9821   18.6647 N   0  0  0  0  0  0  0  0  0  0  0  0
    8.1490  -14.1565   20.4009 C   0  0  0  0  0  0  0  0  0  0  0  0
    9.3582  -13.9146   20.6989 O   0  0  0  0  0  0  0  0  0  0  0  0
    8.3266  -13.8182   29.0700 O   0  0  0  0  0  0  0  0  0  0  0  0
    7.8779  -13.8504   27.7489 C   0  0  0  0  0  0  0  0  0  0  0  0
    7.2615  -14.9777   27.2253 C   0  0  0  0  0  0  0  0  0  0  0  0
    6.8193  -15.0090   25.9231 C   0  0  0  0  0  0  0  0  0  0  0  0
    7.0036  -13.8897   25.1475 C   0  0  0  0  0  0  0  0  0  0  0  0
    6.5285  -13.9224   23.7469 C   0  0  0  0  0  0  0  0  0  0  0  0
    7.6345  -14.3604   22.8185 C   0  0  2  0  0  0  0  0  0  0  0  0
    7.2329  -14.4082   21.4471 N   0  0  0  0  0  0  0  0  0  0  0  0
    8.2180  -15.6574   23.2497 C   0  0  0  0  0  0  0  0  0  0  0  0
    7.6398  -16.7575   23.0540 O   0  0  0  0  0  0  0  0  0  0  0  0
    7.6183  -12.7472   25.6480 C   0  0  0  0  0  0  0  0  0  0  0  0
    8.0579  -12.7308   26.9601 C   0  0  0  0  0  0  0  0  0  0  0  0
   11.9900  -18.4222   23.7821 C   0  0  0  0  0  0  0  0  0  0  0  0
   11.2661  -17.1933   23.2888 C   0  0  1  0  0  0  0  0  0  0  0  0
   10.7884  -17.3574   21.9958 O   0  0  0  0  0  0  0  0  0  0  0  0
   10.1132  -16.9056   24.2356 C   0  0  2  0  0  0  0  0  0  0  0  0
    9.4804  -15.6492   23.9096 N   0  0  0  0  0  0  0  0  0  0  0  0
   10.5546  -16.8574   25.6397 C   0  0  0  0  0  0  0  0  0  0  0  0
   10.4114  -17.9388   26.4840 O   0  0  0  0  0  0  0  0  0  0  0  0
   11.0872  -15.8199   26.1401 O   0  0  0  0  0  0  0  0  0  0  0  0
  2  1  1  1
  3  2  1  0
  4  5  2  0
  4  2  1  0
  6  7  1  0
  7  8  2  0
  8  9  1  0
 10  9  2  0
 10 11  1  0
 12 11  1  1
 12 13  1  0
 13  4  1  0
 14 22  1  0
 14 12  1  0
 15 14  2  0
 16 10  1  0
 17  7  1  0
 17 16  2  0
 19 21  1  0
 19 18  1  1
 20 19  1  0
 21 22  1  6
 21 23  1  0
 23 24  1  0
 25 23  2  0
M  END
$$$$
