AYT.pdb
     RDKit          3D

 25 25  0  0  1  0  0  0  0  0999 V2000
   10.0257  -16.1750   18.3287 C   0  0  0  0  0  0  0  0  0  0  0  0
    9.5865  -17.0725   19.4588 C   0  0  2  0  0  0  0  0  0  0  0  0
    8.3656  -17.7582   19.1451 N   0  0  0  0  0  0  0  0  0  0  0  0
    9.5322  -16.3772   20.7587 C   0  0  0  0  0  0  0  0  0  0  0  0
   10.6411  -16.0253   21.2647 O   0  0  0  0  0  0  0  0  0  0  0  0
    7.2643  -12.1121   27.9975 O   0  0  0  0  0  0  0  0  0  0  0  0
    7.2250  -12.7218   26.7428 C   0  0  0  0  0  0  0  0  0  0  0  0
    7.7783  -12.1098   25.6274 C   0  0  0  0  0  0  0  0  0  0  0  0
    7.7394  -12.7112   24.3909 C   0  0  0  0  0  0  0  0  0  0  0  0
    7.1354  -13.9410   24.2854 C   0  0  0  0  0  0  0  0  0  0  0  0
    7.0930  -14.5886   22.9560 C   0  0  0  0  0  0  0  0  0  0  0  0
    8.3675  -15.3527   22.6939 C   0  0  2  0  0  0  0  0  0  0  0  0
    8.3440  -16.0827   21.4647 N   0  0  0  0  0  0  0  0  0  0  0  0
    8.7080  -16.2405   23.8360 C   0  0  0  0  0  0  0  0  0  0  0  0
    8.0637  -17.2904   24.0920 O   0  0  0  0  0  0  0  0  0  0  0  0
    6.5734  -14.5758   25.3877 C   0  0  0  0  0  0  0  0  0  0  0  0
    6.6203  -13.9582   26.6252 C   0  0  0  0  0  0  0  0  0  0  0  0
   12.3147  -18.1845   26.2324 C   0  0  0  0  0  0  0  0  0  0  0  0
   11.7661  -17.2464   25.1852 C   0  0  1  0  0  0  0  0  0  0  0  0
   11.7698  -17.8213   23.9216 O   0  0  0  0  0  0  0  0  0  0  0  0
   10.3485  -16.8673   25.5789 C   0  0  2  0  0  0  0  0  0  0  0  0
    9.8069  -15.8849   24.6697 N   0  0  0  0  0  0  0  0  0  0  0  0
   10.2848  -16.3252   26.9467 C   0  0  0  0  0  0  0  0  0  0  0  0
   10.2496  -17.1477   28.0534 O   0  0  0  0  0  0  0  0  0  0  0  0
   10.2592  -15.0768   27.1728 O   0  0  0  0  0  0  0  0  0  0  0  0
  2  1  1  6
  3  2  1  0
  4  5  2  0
  4  2  1  0
  6  7  1  0
  7  8  2  0
  8  9  1  0
 10  9  2  0
 10 11  1  0
 12 11  1  1
 12 13  1  0
 13  4  1  0
 14 22  1  0
 14 12  1  0
 15 14  2  0
 16 10  1  0
 17  7  1  0
 17 16  2  0
 19 21  1  0
 19 18  1  1
 20 19  1  0
 21 22  1  6
 21 23  1  0
 23 24  1  0
 25 23  2  0
M  END
$$$$
