AYT.pdb
     RDKit          3D

 25 25  0  0  1  0  0  0  0  0999 V2000
    9.9819  -17.6506   17.7382 C   0  0  0  0  0  0  0  0  0  0  0  0
    9.9056  -18.1723   19.1515 C   0  0  2  0  0  0  0  0  0  0  0  0
    8.6512  -18.8200   19.4088 N   0  0  0  0  0  0  0  0  0  0  0  0
   10.2370  -17.1496   20.1616 C   0  0  0  0  0  0  0  0  0  0  0  0
   11.3988  -16.6435   20.1018 O   0  0  0  0  0  0  0  0  0  0  0  0
    7.4299  -12.2946   17.4537 O   0  0  0  0  0  0  0  0  0  0  0  0
    7.7765  -12.8733   18.6754 C   0  0  0  0  0  0  0  0  0  0  0  0
    9.0084  -12.6276   19.2645 C   0  0  0  0  0  0  0  0  0  0  0  0
    9.3496  -13.1983   20.4688 C   0  0  0  0  0  0  0  0  0  0  0  0
    8.4354  -14.0232   21.0789 C   0  0  0  0  0  0  0  0  0  0  0  0
    8.8015  -14.6375   22.3739 C   0  0  0  0  0  0  0  0  0  0  0  0
    9.7790  -15.7688   22.1703 C   0  0  2  0  0  0  0  0  0  0  0  0
    9.3580  -16.7048   21.1748 N   0  0  0  0  0  0  0  0  0  0  0  0
   10.0843  -16.4545   23.4530 C   0  0  0  0  0  0  0  0  0  0  0  0
    9.2548  -16.5251   24.3963 O   0  0  0  0  0  0  0  0  0  0  0  0
    7.1942  -14.2857   20.5096 C   0  0  0  0  0  0  0  0  0  0  0  0
    6.8652  -13.7042   19.2976 C   0  0  0  0  0  0  0  0  0  0  0  0
   10.5577  -19.8837   24.0475 C   0  0  0  0  0  0  0  0  0  0  0  0
   11.8731  -19.2806   24.4760 C   0  0  1  0  0  0  0  0  0  0  0  0
   12.8415  -19.3941   23.4879 O   0  0  0  0  0  0  0  0  0  0  0  0
   11.6414  -17.8167   24.8101 C   0  0  2  0  0  0  0  0  0  0  0  0
   11.3666  -17.0533   23.6155 N   0  0  0  0  0  0  0  0  0  0  0  0
   12.8018  -17.2186   25.4916 C   0  0  0  0  0  0  0  0  0  0  0  0
   13.1737  -17.6007   26.7638 O   0  0  0  0  0  0  0  0  0  0  0  0
   13.5146  -16.3240   24.9422 O   0  0  0  0  0  0  0  0  0  0  0  0
  2  1  1  6
  3  2  1  0
  4  5  2  0
  4  2  1  0
  6  7  1  0
  7  8  2  0
  8  9  1  0
 10  9  2  0
 10 11  1  0
 12 11  1  1
 12 13  1  0
 13  4  1  0
 14 22  1  0
 14 12  1  0
 15 14  2  0
 16 10  1  0
 17  7  1  0
 17 16  2  0
 19 21  1  0
 19 18  1  6
 20 19  1  0
 21 22  1  6
 21 23  1  0
 23 24  1  0
 25 23  2  0
M  END
$$$$
