AYT.pdb
     RDKit          3D

 25 25  0  0  1  0  0  0  0  0999 V2000
    6.2711  -18.5803   27.5496 C   0  0  0  0  0  0  0  0  0  0  0  0
    7.6747  -18.6924   27.0084 C   0  0  2  0  0  0  0  0  0  0  0  0
    8.6552  -18.4586   28.0297 N   0  0  0  0  0  0  0  0  0  0  0  0
    7.8958  -17.8669   25.8060 C   0  0  0  0  0  0  0  0  0  0  0  0
    7.1551  -18.1071   24.8044 O   0  0  0  0  0  0  0  0  0  0  0  0
    5.1513  -12.1261   27.4153 O   0  0  0  0  0  0  0  0  0  0  0  0
    6.1942  -12.7555   26.7343 C   0  0  0  0  0  0  0  0  0  0  0  0
    6.0846  -13.0779   25.3893 C   0  0  0  0  0  0  0  0  0  0  0  0
    7.1129  -13.6983   24.7185 C   0  0  0  0  0  0  0  0  0  0  0  0
    8.2593  -13.9933   25.4165 C   0  0  0  0  0  0  0  0  0  0  0  0
    9.3656  -14.6606   24.6959 C   0  0  0  0  0  0  0  0  0  0  0  0
    9.0572  -16.1218   24.4803 C   0  0  2  0  0  0  0  0  0  0  0  0
    8.8636  -16.8426   25.6999 N   0  0  0  0  0  0  0  0  0  0  0  0
   10.0917  -16.7718   23.6342 C   0  0  0  0  0  0  0  0  0  0  0  0
   11.0723  -17.3914   24.1213 O   0  0  0  0  0  0  0  0  0  0  0  0
    8.3944  -13.6808   26.7647 C   0  0  0  0  0  0  0  0  0  0  0  0
    7.3513  -13.0567   27.4261 C   0  0  0  0  0  0  0  0  0  0  0  0
   11.3545  -18.2753   19.1240 C   0  0  0  0  0  0  0  0  0  0  0  0
   10.3534  -17.5079   19.9526 C   0  0  1  0  0  0  0  0  0  0  0  0
    9.0964  -18.0961   19.9223 O   0  0  0  0  0  0  0  0  0  0  0  0
   10.8635  -17.4465   21.3824 C   0  0  2  0  0  0  0  0  0  0  0  0
    9.9634  -16.6871   22.2180 N   0  0  0  0  0  0  0  0  0  0  0  0
   12.2023  -16.8382   21.4621 C   0  0  0  0  0  0  0  0  0  0  0  0
   13.3502  -17.5818   21.2827 O   0  0  0  0  0  0  0  0  0  0  0  0
   12.3644  -15.6021   21.6994 O   0  0  0  0  0  0  0  0  0  0  0  0
  2  1  1  1
  3  2  1  0
  4  5  2  0
  4  2  1  0
  6  7  1  0
  7  8  2  0
  8  9  1  0
 10  9  2  0
 10 11  1  0
 12 11  1  1
 12 13  1  0
 13  4  1  0
 14 22  1  0
 14 12  1  0
 15 14  2  0
 16 10  1  0
 17  7  1  0
 17 16  2  0
 19 21  1  0
 19 18  1  6
 20 19  1  0
 21 22  1  1
 21 23  1  0
 23 24  1  0
 25 23  2  0
M  END
$$$$
