AYT.pdb
     RDKit          3D

 25 25  0  0  1  0  0  0  0  0999 V2000
    8.9590  -20.2166   19.4157 C   0  0  0  0  0  0  0  0  0  0  0  0
    9.0881  -18.7842   18.9605 C   0  0  2  0  0  0  0  0  0  0  0  0
    9.8497  -18.6814   17.7487 N   0  0  0  0  0  0  0  0  0  0  0  0
    9.5802  -17.8850   20.0214 C   0  0  0  0  0  0  0  0  0  0  0  0
   10.8177  -17.6059   20.0046 O   0  0  0  0  0  0  0  0  0  0  0  0
    7.4320  -11.9347   18.2223 O   0  0  0  0  0  0  0  0  0  0  0  0
    7.6921  -12.7915   19.2928 C   0  0  0  0  0  0  0  0  0  0  0  0
    8.8059  -12.6160   20.1012 C   0  0  0  0  0  0  0  0  0  0  0  0
    9.0618  -13.4608   21.1562 C   0  0  0  0  0  0  0  0  0  0  0  0
    8.1823  -14.4899   21.3924 C   0  0  0  0  0  0  0  0  0  0  0  0
    8.4567  -15.3991   22.5267 C   0  0  0  0  0  0  0  0  0  0  0  0
    9.3416  -16.5416   22.0925 C   0  0  2  0  0  0  0  0  0  0  0  0
    8.7750  -17.3238   21.0382 N   0  0  0  0  0  0  0  0  0  0  0  0
    9.7223  -17.3969   23.2467 C   0  0  0  0  0  0  0  0  0  0  0  0
    8.9801  -18.3147   23.6823 O   0  0  0  0  0  0  0  0  0  0  0  0
    7.0587  -14.6876   20.5972 C   0  0  0  0  0  0  0  0  0  0  0  0
    6.8146  -13.8294   19.5395 C   0  0  0  0  0  0  0  0  0  0  0  0
   13.1307  -19.9507   25.1463 C   0  0  0  0  0  0  0  0  0  0  0  0
   12.4980  -19.0604   24.1048 C   0  0  1  0  0  0  0  0  0  0  0  0
   11.8647  -19.7944   23.1112 O   0  0  0  0  0  0  0  0  0  0  0  0
   11.4963  -18.1519   24.7974 C   0  0  2  0  0  0  0  0  0  0  0  0
   10.9767  -17.1647   23.8805 N   0  0  0  0  0  0  0  0  0  0  0  0
   12.0927  -17.4539   25.9489 C   0  0  0  0  0  0  0  0  0  0  0  0
   12.2026  -18.0549   27.1856 O   0  0  0  0  0  0  0  0  0  0  0  0
   12.5336  -16.2673   25.8590 O   0  0  0  0  0  0  0  0  0  0  0  0
  2  1  1  1
  3  2  1  0
  4  5  2  0
  4  2  1  0
  6  7  1  0
  7  8  2  0
  8  9  1  0
 10  9  2  0
 10 11  1  0
 12 11  1  1
 12 13  1  0
 13  4  1  0
 14 22  1  0
 14 12  1  0
 15 14  2  0
 16 10  1  0
 17  7  1  0
 17 16  2  0
 19 21  1  0
 19 18  1  1
 20 19  1  0
 21 22  1  6
 21 23  1  0
 23 24  1  0
 25 23  2  0
M  END
$$$$
