AYT.pdb
     RDKit          3D

 25 25  0  0  1  0  0  0  0  0999 V2000
    6.6064  -17.3528   20.2587 C   0  0  0  0  0  0  0  0  0  0  0  0
    7.3409  -16.0359   20.2988 C   0  0  2  0  0  0  0  0  0  0  0  0
    8.1873  -15.8677   19.1523 N   0  0  0  0  0  0  0  0  0  0  0  0
    8.0532  -15.8122   21.5711 C   0  0  0  0  0  0  0  0  0  0  0  0
    9.2726  -16.1600   21.6115 O   0  0  0  0  0  0  0  0  0  0  0  0
   10.4500  -14.1407   29.7682 O   0  0  0  0  0  0  0  0  0  0  0  0
    9.7281  -14.1611   28.5741 C   0  0  0  0  0  0  0  0  0  0  0  0
    9.9695  -13.2335   27.5710 C   0  0  0  0  0  0  0  0  0  0  0  0
    9.2577  -13.2540   26.3941 C   0  0  0  0  0  0  0  0  0  0  0  0
    8.2951  -14.2216   26.2339 C   0  0  0  0  0  0  0  0  0  0  0  0
    7.5290  -14.2445   24.9686 C   0  0  0  0  0  0  0  0  0  0  0  0
    8.2095  -15.1242   23.9488 C   0  0  2  0  0  0  0  0  0  0  0  0
    7.4740  -15.2448   22.7286 N   0  0  0  0  0  0  0  0  0  0  0  0
    8.5261  -16.4609   24.5160 C   0  0  0  0  0  0  0  0  0  0  0  0
    7.6340  -17.2875   24.8380 O   0  0  0  0  0  0  0  0  0  0  0  0
    8.0337  -15.1629   27.2236 C   0  0  0  0  0  0  0  0  0  0  0  0
    8.7581  -15.1295   28.4023 C   0  0  0  0  0  0  0  0  0  0  0  0
   10.0508  -19.1473   22.8778 C   0  0  0  0  0  0  0  0  0  0  0  0
   10.9908  -18.8900   24.0301 C   0  0  1  0  0  0  0  0  0  0  0  0
   12.0940  -18.1423   23.6418 O   0  0  0  0  0  0  0  0  0  0  0  0
   10.2238  -18.1572   25.1179 C   0  0  2  0  0  0  0  0  0  0  0  0
    9.8936  -16.8150   24.6999 N   0  0  0  0  0  0  0  0  0  0  0  0
   10.9892  -18.0818   26.3738 C   0  0  0  0  0  0  0  0  0  0  0  0
   11.1372  -19.1755   27.2012 O   0  0  0  0  0  0  0  0  0  0  0  0
   11.5487  -17.0085   26.7549 O   0  0  0  0  0  0  0  0  0  0  0  0
  2  1  1  1
  3  2  1  0
  4  5  2  0
  4  2  1  0
  6  7  1  0
  7  8  2  0
  8  9  1  0
 10  9  2  0
 10 11  1  0
 12 11  1  1
 12 13  1  0
 13  4  1  0
 14 22  1  0
 14 12  1  0
 15 14  2  0
 16 10  1  0
 17  7  1  0
 17 16  2  0
 19 21  1  0
 19 18  1  6
 20 19  1  0
 21 22  1  6
 21 23  1  0
 23 24  1  0
 25 23  2  0
M  END
$$$$
