AYT.pdb
     RDKit          3D

 25 25  0  0  1  0  0  0  0  0999 V2000
    7.4223  -12.8182   19.9889 C   0  0  0  0  0  0  0  0  0  0  0  0
    7.7122  -14.2500   20.3647 C   0  0  2  0  0  0  0  0  0  0  0  0
    6.5377  -15.0691   20.2712 N   0  0  0  0  0  0  0  0  0  0  0  0
    8.3938  -14.3770   21.6668 C   0  0  0  0  0  0  0  0  0  0  0  0
    9.6400  -14.1400   21.6844 O   0  0  0  0  0  0  0  0  0  0  0  0
   10.7527  -15.0218   29.9889 O   0  0  0  0  0  0  0  0  0  0  0  0
    9.9892  -14.8907   28.8281 C   0  0  0  0  0  0  0  0  0  0  0  0
    9.3124  -15.9735   28.2855 C   0  0  0  0  0  0  0  0  0  0  0  0
    8.5599  -15.8439   27.1413 C   0  0  0  0  0  0  0  0  0  0  0  0
    8.4937  -14.6081   26.5440 C   0  0  0  0  0  0  0  0  0  0  0  0
    7.6848  -14.4677   25.3134 C   0  0  0  0  0  0  0  0  0  0  0  0
    8.4904  -14.8567   24.0982 C   0  0  2  0  0  0  0  0  0  0  0  0
    7.7581  -14.7397   22.8757 N   0  0  0  0  0  0  0  0  0  0  0  0
    9.0669  -16.2183   24.2472 C   0  0  0  0  0  0  0  0  0  0  0  0
    8.3515  -17.2463   24.3673 O   0  0  0  0  0  0  0  0  0  0  0  0
    9.1624  -13.5069   27.0675 C   0  0  0  0  0  0  0  0  0  0  0  0
    9.9155  -13.6530   28.2192 C   0  0  0  0  0  0  0  0  0  0  0  0
   10.7479  -18.0875   21.8842 C   0  0  0  0  0  0  0  0  0  0  0  0
   11.7781  -17.9936   22.9830 C   0  0  1  0  0  0  0  0  0  0  0  0
   12.7279  -17.0158   22.7205 O   0  0  0  0  0  0  0  0  0  0  0  0
   11.0603  -17.6835   24.2857 C   0  0  2  0  0  0  0  0  0  0  0  0
   10.4844  -16.3597   24.2538 N   0  0  0  0  0  0  0  0  0  0  0  0
   11.9637  -17.7735   25.4453 C   0  0  0  0  0  0  0  0  0  0  0  0
   12.4815  -16.6481   26.0521 O   0  0  0  0  0  0  0  0  0  0  0  0
   12.3088  -18.8892   25.9416 O   0  0  0  0  0  0  0  0  0  0  0  0
  2  1  1  1
  3  2  1  0
  4  5  2  0
  4  2  1  0
  6  7  1  0
  7  8  2  0
  8  9  1  0
 10  9  2  0
 10 11  1  0
 12 11  1  1
 12 13  1  0
 13  4  1  0
 14 22  1  0
 14 12  1  0
 15 14  2  0
 16 10  1  0
 17  7  1  0
 17 16  2  0
 19 21  1  0
 19 18  1  6
 20 19  1  0
 21 22  1  6
 21 23  1  0
 23 24  1  0
 25 23  2  0
M  END
$$$$
