AYT.pdb
     RDKit          3D

 25 25  0  0  1  0  0  0  0  0999 V2000
    7.0950  -18.5866   18.1793 C   0  0  0  0  0  0  0  0  0  0  0  0
    7.7270  -18.9941   19.4869 C   0  0  2  0  0  0  0  0  0  0  0  0
    6.7370  -19.3093   20.4768 N   0  0  0  0  0  0  0  0  0  0  0  0
    8.7276  -18.0238   19.9700 C   0  0  0  0  0  0  0  0  0  0  0  0
    9.7129  -17.7912   19.2054 O   0  0  0  0  0  0  0  0  0  0  0  0
    6.8399  -12.1317   18.0128 O   0  0  0  0  0  0  0  0  0  0  0  0
    7.4224  -12.8767   19.0391 C   0  0  0  0  0  0  0  0  0  0  0  0
    8.7998  -12.9305   19.1971 C   0  0  0  0  0  0  0  0  0  0  0  0
    9.3736  -13.6650   20.2088 C   0  0  0  0  0  0  0  0  0  0  0  0
    8.5448  -14.3489   21.0654 C   0  0  0  0  0  0  0  0  0  0  0  0
    9.1609  -15.1392   22.1538 C   0  0  0  0  0  0  0  0  0  0  0  0
    9.6915  -16.4498   21.6268 C   0  0  2  0  0  0  0  0  0  0  0  0
    8.6602  -17.3480   21.2094 N   0  0  0  0  0  0  0  0  0  0  0  0
   10.5987  -17.0980   22.6094 C   0  0  0  0  0  0  0  0  0  0  0  0
   10.1844  -17.5882   23.6915 O   0  0  0  0  0  0  0  0  0  0  0  0
    7.1615  -14.3115   20.9289 C   0  0  0  0  0  0  0  0  0  0  0  0
    6.5989  -13.5682   19.9061 C   0  0  0  0  0  0  0  0  0  0  0  0
   14.9220  -19.2749   23.2965 C   0  0  0  0  0  0  0  0  0  0  0  0
   14.0166  -18.5237   22.3511 C   0  0  1  0  0  0  0  0  0  0  0  0
   13.5403  -19.3383   21.3329 O   0  0  0  0  0  0  0  0  0  0  0  0
   12.8545  -17.9586   23.1503 C   0  0  2  0  0  0  0  0  0  0  0  0
   11.9898  -17.1641   22.3098 N   0  0  0  0  0  0  0  0  0  0  0  0
   13.3145  -17.1227   24.2721 C   0  0  0  0  0  0  0  0  0  0  0  0
   13.7136  -15.8152   24.0880 O   0  0  0  0  0  0  0  0  0  0  0  0
   13.3659  -17.5643   25.4606 O   0  0  0  0  0  0  0  0  0  0  0  0
  2  1  1  6
  3  2  1  0
  4  5  2  0
  4  2  1  0
  6  7  1  0
  7  8  2  0
  8  9  1  0
 10  9  2  0
 10 11  1  0
 12 11  1  1
 12 13  1  0
 13  4  1  0
 14 22  1  0
 14 12  1  0
 15 14  2  0
 16 10  1  0
 17  7  1  0
 17 16  2  0
 19 21  1  0
 19 18  1  1
 20 19  1  0
 21 22  1  6
 21 23  1  0
 23 24  1  0
 25 23  2  0
M  END
$$$$
