AYT.pdb
     RDKit          3D

 25 25  0  0  1  0  0  0  0  0999 V2000
    8.8145  -18.4356   19.6323 C   0  0  0  0  0  0  0  0  0  0  0  0
    9.1151  -16.9636   19.4974 C   0  0  2  0  0  0  0  0  0  0  0  0
   10.2893  -16.7344   18.7050 N   0  0  0  0  0  0  0  0  0  0  0  0
    9.1572  -16.2632   20.7950 C   0  0  0  0  0  0  0  0  0  0  0  0
   10.2647  -16.2737   21.4138 O   0  0  0  0  0  0  0  0  0  0  0  0
    7.4268  -12.2308   28.3065 O   0  0  0  0  0  0  0  0  0  0  0  0
    7.3208  -12.6996   26.9964 C   0  0  0  0  0  0  0  0  0  0  0  0
    8.0264  -12.1055   25.9599 C   0  0  0  0  0  0  0  0  0  0  0  0
    7.9216  -12.5680   24.6686 C   0  0  0  0  0  0  0  0  0  0  0  0
    7.0959  -13.6397   24.4275 C   0  0  0  0  0  0  0  0  0  0  0  0
    6.9825  -14.1377   23.0391 C   0  0  0  0  0  0  0  0  0  0  0  0
    8.1433  -15.0400   22.6996 C   0  0  2  0  0  0  0  0  0  0  0  0
    8.0612  -15.5923   21.3832 N   0  0  0  0  0  0  0  0  0  0  0  0
    8.3104  -16.1094   23.7179 C   0  0  0  0  0  0  0  0  0  0  0  0
    7.5864  -17.1380   23.7436 O   0  0  0  0  0  0  0  0  0  0  0  0
    6.3780  -14.2530   25.4484 C   0  0  0  0  0  0  0  0  0  0  0  0
    6.4937  -13.7765   26.7424 C   0  0  0  0  0  0  0  0  0  0  0  0
   11.0560  -18.8984   26.2395 C   0  0  0  0  0  0  0  0  0  0  0  0
   10.6931  -17.9380   25.1334 C   0  0  1  0  0  0  0  0  0  0  0  0
   10.2893  -18.6015   23.9829 O   0  0  0  0  0  0  0  0  0  0  0  0
    9.5766  -17.0357   25.6312 C   0  0  2  0  0  0  0  0  0  0  0  0
    9.3309  -15.9593   24.7004 N   0  0  0  0  0  0  0  0  0  0  0  0
    9.8864  -16.4544   26.9484 C   0  0  0  0  0  0  0  0  0  0  0  0
    9.7478  -17.1798   28.1135 O   0  0  0  0  0  0  0  0  0  0  0  0
   10.2952  -15.2598   27.0750 O   0  0  0  0  0  0  0  0  0  0  0  0
  2  1  1  1
  3  2  1  0
  4  5  2  0
  4  2  1  0
  6  7  1  0
  7  8  2  0
  8  9  1  0
 10  9  2  0
 10 11  1  0
 12 11  1  1
 12 13  1  0
 13  4  1  0
 14 22  1  0
 14 12  1  0
 15 14  2  0
 16 10  1  0
 17  7  1  0
 17 16  2  0
 19 21  1  0
 19 18  1  1
 20 19  1  0
 21 22  1  6
 21 23  1  0
 23 24  1  0
 25 23  2  0
M  END
$$$$
