AYT.pdb
     RDKit          3D

 25 25  0  0  1  0  0  0  0  0999 V2000
    8.0423  -18.2039   19.3555 C   0  0  0  0  0  0  0  0  0  0  0  0
    8.5033  -16.7689   19.2954 C   0  0  2  0  0  0  0  0  0  0  0  0
    9.6861  -16.6269   18.4953 N   0  0  0  0  0  0  0  0  0  0  0  0
    8.6389  -16.1512   20.6282 C   0  0  0  0  0  0  0  0  0  0  0  0
    9.7537  -16.2992   21.2153 O   0  0  0  0  0  0  0  0  0  0  0  0
    7.6727  -11.9652   28.1902 O   0  0  0  0  0  0  0  0  0  0  0  0
    7.4402  -12.4489   26.9019 C   0  0  0  0  0  0  0  0  0  0  0  0
    8.0564  -11.8793   25.7970 C   0  0  0  0  0  0  0  0  0  0  0  0
    7.8268  -12.3564   24.5274 C   0  0  0  0  0  0  0  0  0  0  0  0
    6.9669  -13.4178   24.3779 C   0  0  0  0  0  0  0  0  0  0  0  0
    6.7193  -13.9315   23.0129 C   0  0  0  0  0  0  0  0  0  0  0  0
    7.8201  -14.8725   22.5893 C   0  0  2  0  0  0  0  0  0  0  0  0
    7.6234  -15.4175   21.2821 N   0  0  0  0  0  0  0  0  0  0  0  0
    8.0234  -15.9502   23.5922 C   0  0  0  0  0  0  0  0  0  0  0  0
    7.2442  -16.9325   23.6967 O   0  0  0  0  0  0  0  0  0  0  0  0
    6.3366  -14.0065   25.4687 C   0  0  0  0  0  0  0  0  0  0  0  0
    6.5775  -13.5155   26.7399 C   0  0  0  0  0  0  0  0  0  0  0  0
   11.0474  -18.7611   25.8773 C   0  0  0  0  0  0  0  0  0  0  0  0
   10.6918  -17.7111   24.8533 C   0  0  1  0  0  0  0  0  0  0  0  0
   10.4609  -18.2653   23.6016 O   0  0  0  0  0  0  0  0  0  0  0  0
    9.4510  -16.9769   25.3327 C   0  0  2  0  0  0  0  0  0  0  0  0
    9.1448  -15.8631   24.4662 N   0  0  0  0  0  0  0  0  0  0  0  0
    9.6086  -16.4717   26.7071 C   0  0  0  0  0  0  0  0  0  0  0  0
    9.3272  -17.2561   27.8063 O   0  0  0  0  0  0  0  0  0  0  0  0
   10.0104  -15.2920   26.9461 O   0  0  0  0  0  0  0  0  0  0  0  0
  2  1  1  1
  3  2  1  0
  4  5  2  0
  4  2  1  0
  6  7  1  0
  7  8  2  0
  8  9  1  0
 10  9  2  0
 10 11  1  0
 12 11  1  1
 12 13  1  0
 13  4  1  0
 14 22  1  0
 14 12  1  0
 15 14  2  0
 16 10  1  0
 17  7  1  0
 17 16  2  0
 19 21  1  0
 19 18  1  1
 20 19  1  0
 21 22  1  6
 21 23  1  0
 23 24  1  0
 25 23  2  0
M  END
$$$$
