AYT.pdb
     RDKit          3D

 25 25  0  0  1  0  0  0  0  0999 V2000
    7.2660  -12.8216   20.0423 C   0  0  0  0  0  0  0  0  0  0  0  0
    7.8579  -14.1742   20.3516 C   0  0  2  0  0  0  0  0  0  0  0  0
    6.8985  -15.2254   20.1681 N   0  0  0  0  0  0  0  0  0  0  0  0
    8.5161  -14.2268   21.6708 C   0  0  0  0  0  0  0  0  0  0  0  0
    9.7582  -13.9703   21.6997 O   0  0  0  0  0  0  0  0  0  0  0  0
   10.7502  -15.3219   30.0025 O   0  0  0  0  0  0  0  0  0  0  0  0
   10.0203  -15.0675   28.8406 C   0  0  0  0  0  0  0  0  0  0  0  0
    9.2047  -16.0375   28.2759 C   0  0  0  0  0  0  0  0  0  0  0  0
    8.4854  -15.7862   27.1306 C   0  0  0  0  0  0  0  0  0  0  0  0
    8.5941  -14.5432   26.5548 C   0  0  0  0  0  0  0  0  0  0  0  0
    7.8210  -14.2721   25.3231 C   0  0  0  0  0  0  0  0  0  0  0  0
    8.5917  -14.7105   24.1022 C   0  0  2  0  0  0  0  0  0  0  0  0
    7.8626  -14.5394   22.8842 N   0  0  0  0  0  0  0  0  0  0  0  0
    9.0750  -16.1088   24.2434 C   0  0  0  0  0  0  0  0  0  0  0  0
    8.2922  -17.0917   24.3065 O   0  0  0  0  0  0  0  0  0  0  0  0
    9.4043  -13.5536   27.1007 C   0  0  0  0  0  0  0  0  0  0  0  0
   10.1220  -13.8213   28.2533 C   0  0  0  0  0  0  0  0  0  0  0  0
   10.6490  -18.2279   22.0449 C   0  0  0  0  0  0  0  0  0  0  0  0
   11.6751  -18.1216   23.1464 C   0  0  1  0  0  0  0  0  0  0  0  0
   12.6778  -17.2136   22.8346 O   0  0  0  0  0  0  0  0  0  0  0  0
   10.9660  -17.6945   24.4204 C   0  0  2  0  0  0  0  0  0  0  0  0
   10.4791  -16.3396   24.3093 N   0  0  0  0  0  0  0  0  0  0  0  0
   11.8493  -17.7799   25.5957 C   0  0  0  0  0  0  0  0  0  0  0  0
   12.2079  -18.9917   26.1487 O   0  0  0  0  0  0  0  0  0  0  0  0
   12.3227  -16.7442   26.1556 O   0  0  0  0  0  0  0  0  0  0  0  0
  2  1  1  1
  3  2  1  0
  4  5  2  0
  4  2  1  0
  6  7  1  0
  7  8  2  0
  8  9  1  0
 10  9  2  0
 10 11  1  0
 12 11  1  1
 12 13  1  0
 13  4  1  0
 14 22  1  0
 14 12  1  0
 15 14  2  0
 16 10  1  0
 17  7  1  0
 17 16  2  0
 19 21  1  0
 19 18  1  6
 20 19  1  0
 21 22  1  6
 21 23  1  0
 23 24  1  0
 25 23  2  0
M  END
$$$$
