AYT.pdb
     RDKit          3D

 25 25  0  0  1  0  0  0  0  0999 V2000
    7.7301  -12.7191   20.1195 C   0  0  0  0  0  0  0  0  0  0  0  0
    7.8655  -14.1949   20.4008 C   0  0  2  0  0  0  0  0  0  0  0  0
    6.6476  -14.9002   20.1210 N   0  0  0  0  0  0  0  0  0  0  0  0
    8.3915  -14.4781   21.7496 C   0  0  0  0  0  0  0  0  0  0  0  0
    9.5533  -14.0417   22.0126 O   0  0  0  0  0  0  0  0  0  0  0  0
    6.2966  -10.2186   26.7371 O   0  0  0  0  0  0  0  0  0  0  0  0
    6.5671  -11.5315   26.3487 C   0  0  0  0  0  0  0  0  0  0  0  0
    7.7807  -12.1346   26.6458 C   0  0  0  0  0  0  0  0  0  0  0  0
    8.0469  -13.4287   26.2628 C   0  0  0  0  0  0  0  0  0  0  0  0
    7.0758  -14.1150   25.5740 C   0  0  0  0  0  0  0  0  0  0  0  0
    7.3611  -15.5067   25.1615 C   0  0  0  0  0  0  0  0  0  0  0  0
    8.3163  -15.5317   23.9937 C   0  0  2  0  0  0  0  0  0  0  0  0
    7.6957  -15.1925   22.7510 N   0  0  0  0  0  0  0  0  0  0  0  0
    9.0195  -16.8377   23.9005 C   0  0  0  0  0  0  0  0  0  0  0  0
    8.4071  -17.9367   23.8966 O   0  0  0  0  0  0  0  0  0  0  0  0
    5.8512  -13.5336   25.2637 C   0  0  0  0  0  0  0  0  0  0  0  0
    5.5981  -12.2309   25.6559 C   0  0  0  0  0  0  0  0  0  0  0  0
   11.0864  -18.0067   21.1860 C   0  0  0  0  0  0  0  0  0  0  0  0
   11.9965  -18.0687   22.3883 C   0  0  1  0  0  0  0  0  0  0  0  0
   12.8678  -16.9889   22.4347 O   0  0  0  0  0  0  0  0  0  0  0  0
   11.1347  -18.0944   23.6392 C   0  0  2  0  0  0  0  0  0  0  0  0
   10.4412  -16.8397   23.8126 N   0  0  0  0  0  0  0  0  0  0  0  0
   11.9308  -18.3608   24.8492 C   0  0  0  0  0  0  0  0  0  0  0  0
   12.1050  -17.4058   25.8292 O   0  0  0  0  0  0  0  0  0  0  0  0
   12.4943  -19.4802   25.0484 O   0  0  0  0  0  0  0  0  0  0  0  0
  2  1  1  1
  3  2  1  0
  4  5  2  0
  4  2  1  0
  6  7  1  0
  7  8  2  0
  8  9  1  0
 10  9  2  0
 10 11  1  0
 12 11  1  1
 12 13  1  0
 13  4  1  0
 14 22  1  0
 14 12  1  0
 15 14  2  0
 16 10  1  0
 17  7  1  0
 17 16  2  0
 19 21  1  0
 19 18  1  6
 20 19  1  0
 21 22  1  1
 21 23  1  0
 23 24  1  0
 25 23  2  0
M  END
$$$$
