DMG.pdb
     RDKit          3D

 21 20  0  0  1  0  0  0  0  0999 V2000
   17.2913  -11.7493  -15.3121 N   0  0  0  0  0  0  0  0  0  0  0  0
   17.6647  -10.4542  -15.8347 C   0  0  1  0  0  0  0  0  0  0  0  0
   16.5247   -9.4754  -15.6076 C   0  0  0  0  0  0  0  0  0  0  0  0
   15.3870   -9.7867  -16.4907 C   0  0  0  0  0  0  0  0  0  0  0  0
   15.5933  -10.4032  -17.5669 O   0  0  0  0  0  0  0  0  0  0  0  0
   18.8729   -9.9733  -15.1287 C   0  0  0  0  0  0  0  0  0  0  0  0
   18.9043  -10.0766  -13.8751 O   0  0  0  0  0  0  0  0  0  0  0  0
   14.1207   -9.4033  -16.1321 O   0  0  0  0  0  0  0  0  0  0  0  0
   25.2111   -8.7692  -17.1855 C   0  0  0  0  0  0  0  0  0  0  0  0
   24.4177   -8.2196  -15.6657 S   0  0  0  0  0  0  0  0  0  0  0  0
   23.6073   -9.6495  -14.8284 C   0  0  0  0  0  0  0  0  0  0  0  0
   22.3095   -9.8467  -15.5325 C   0  0  0  0  0  0  0  0  0  0  0  0
   21.1832   -8.9619  -15.0873 C   0  0  2  0  0  0  0  0  0  0  0  0
   19.9732   -9.4103  -15.8263 N   0  0  0  0  0  0  0  0  0  0  0  0
   21.3868   -7.5260  -15.3008 C   0  0  0  0  0  0  0  0  0  0  0  0
   21.3914   -7.1075  -16.5183 O   0  0  0  0  0  0  0  0  0  0  0  0
   21.5775   -6.5427  -14.3190 N   0  0  0  0  0  0  0  0  0  0  0  0
   21.8132   -5.1679  -14.6624 C   0  0  0  0  0  0  0  0  0  0  0  0
   22.0746   -4.3340  -13.4562 C   0  0  0  0  0  0  0  0  0  0  0  0
   22.4345   -3.1320  -13.5603 O   0  0  0  0  0  0  0  0  0  0  0  0
   21.9180   -4.8965  -12.2008 O   0  0  0  0  0  0  0  0  0  0  0  0
  2  1  1  1
  3  2  1  0
  4  3  1  0
  4  5  2  0
  6  2  1  0
  7  6  2  0
  8  4  1  0
  9 10  1  0
 11 12  1  0
 11 10  1  0
 13 12  1  6
 13 15  1  0
 13 14  1  0
 14  6  1  0
 15 17  1  0
 16 15  2  0
 17 18  1  0
 19 21  1  0
 19 18  1  0
 20 19  2  0
M  END
$$$$
