DMG.pdb
     RDKit          3D

 21 20  0  0  1  0  0  0  0  0999 V2000
   21.4004  -20.0055  -13.6126 N   0  0  0  0  0  0  0  0  0  0  0  0
   22.3751  -21.0727  -13.6420 C   0  0  1  0  0  0  0  0  0  0  0  0
   22.3843  -21.7038  -15.0243 C   0  0  0  0  0  0  0  0  0  0  0  0
   21.0946  -22.3580  -15.3070 C   0  0  0  0  0  0  0  0  0  0  0  0
   20.6922  -23.2787  -14.5510 O   0  0  0  0  0  0  0  0  0  0  0  0
   23.7147  -20.5181  -13.3465 C   0  0  0  0  0  0  0  0  0  0  0  0
   23.9983  -19.3825  -13.8084 O   0  0  0  0  0  0  0  0  0  0  0  0
   20.3493  -21.9586  -16.3858 O   0  0  0  0  0  0  0  0  0  0  0  0
   24.9423  -20.5049   -7.4181 C   0  0  0  0  0  0  0  0  0  0  0  0
   25.1834  -21.4264   -8.9459 S   0  0  0  0  0  0  0  0  0  0  0  0
   26.6109  -20.7272   -9.8817 C   0  0  0  0  0  0  0  0  0  0  0  0
   26.6161  -21.4307  -11.1947 C   0  0  0  0  0  0  0  0  0  0  0  0
   26.0247  -20.6718  -12.3454 C   0  0  2  0  0  0  0  0  0  0  0  0
   24.6642  -21.2293  -12.5674 N   0  0  0  0  0  0  0  0  0  0  0  0
   26.7888  -20.7249  -13.5952 C   0  0  0  0  0  0  0  0  0  0  0  0
   26.7682  -21.8330  -14.2502 O   0  0  0  0  0  0  0  0  0  0  0  0
   27.5477  -19.6938  -14.1680 N   0  0  0  0  0  0  0  0  0  0  0  0
   28.3585  -19.9105  -15.3339 C   0  0  0  0  0  0  0  0  0  0  0  0
   27.7840  -19.2477  -16.5376 C   0  0  0  0  0  0  0  0  0  0  0  0
   26.7813  -19.7268  -17.1293 O   0  0  0  0  0  0  0  0  0  0  0  0
   28.3677  -18.0845  -17.0100 O   0  0  0  0  0  0  0  0  0  0  0  0
  2  1  1  6
  3  2  1  0
  4  3  1  0
  4  5  2  0
  6  2  1  0
  7  6  2  0
  8  4  1  0
  9 10  1  0
 11 12  1  0
 11 10  1  0
 13 12  1  1
 13 15  1  0
 13 14  1  0
 14  6  1  0
 15 17  1  0
 16 15  2  0
 17 18  1  0
 19 21  1  0
 19 18  1  0
 20 19  2  0
M  END
$$$$
