DMG.pdb
     RDKit          3D

 21 20  0  0  1  0  0  0  0  0999 V2000
   21.1805  -13.8807  -16.5610 N   0  0  0  0  0  0  0  0  0  0  0  0
   21.3510  -12.5682  -17.1425 C   0  0  1  0  0  0  0  0  0  0  0  0
   19.9993  -12.0422  -17.5954 C   0  0  0  0  0  0  0  0  0  0  0  0
   19.3916  -12.9499  -18.5844 C   0  0  0  0  0  0  0  0  0  0  0  0
   20.0654  -13.3145  -19.5814 O   0  0  0  0  0  0  0  0  0  0  0  0
   21.9182  -11.6544  -16.1262 C   0  0  0  0  0  0  0  0  0  0  0  0
   21.4328  -11.6880  -14.9658 O   0  0  0  0  0  0  0  0  0  0  0  0
   18.1041  -13.3862  -18.4088 O   0  0  0  0  0  0  0  0  0  0  0  0
   28.2794  -12.8903  -15.1674 C   0  0  0  0  0  0  0  0  0  0  0  0
   27.4614  -11.3536  -15.6267 S   0  0  0  0  0  0  0  0  0  0  0  0
   25.6623  -11.4588  -15.2334 C   0  0  0  0  0  0  0  0  0  0  0  0
   25.1033  -10.1122  -15.5388 C   0  0  0  0  0  0  0  0  0  0  0  0
   23.6222   -9.9622  -15.3551 C   0  0  2  0  0  0  0  0  0  0  0  0
   22.9777  -10.7607  -16.4313 N   0  0  0  0  0  0  0  0  0  0  0  0
   23.1182   -8.5863  -15.3934 C   0  0  0  0  0  0  0  0  0  0  0  0
   23.5720   -7.7690  -14.5083 O   0  0  0  0  0  0  0  0  0  0  0  0
   22.1882   -8.0502  -16.2962 N   0  0  0  0  0  0  0  0  0  0  0  0
   21.8820   -6.6469  -16.3212 C   0  0  0  0  0  0  0  0  0  0  0  0
   20.6715   -6.3308  -15.5129 C   0  0  0  0  0  0  0  0  0  0  0  0
   20.0276   -7.2371  -14.9220 O   0  0  0  0  0  0  0  0  0  0  0  0
   20.2515   -5.0154  -15.4138 O   0  0  0  0  0  0  0  0  0  0  0  0
  2  1  1  1
  3  2  1  0
  4  3  1  0
  4  5  2  0
  6  2  1  0
  7  6  2  0
  8  4  1  0
  9 10  1  0
 11 12  1  0
 11 10  1  0
 13 12  1  6
 13 15  1  0
 13 14  1  0
 14  6  1  0
 15 17  1  0
 16 15  2  0
 17 18  1  0
 19 21  1  0
 19 18  1  0
 20 19  2  0
M  END
$$$$
