DMG.pdb
     RDKit          3D

 21 20  0  0  1  0  0  0  0  0999 V2000
   23.1708  -13.9020  -17.6252 N   0  0  0  0  0  0  0  0  0  0  0  0
   22.2489  -12.8115  -17.3995 C   0  0  1  0  0  0  0  0  0  0  0  0
   20.9488  -13.3633  -16.8392 C   0  0  0  0  0  0  0  0  0  0  0  0
   20.3696  -14.3626  -17.7541 C   0  0  0  0  0  0  0  0  0  0  0  0
   20.3308  -14.1193  -18.9871 O   0  0  0  0  0  0  0  0  0  0  0  0
   22.8407  -11.8659  -16.4272 C   0  0  0  0  0  0  0  0  0  0  0  0
   22.6631  -12.0911  -15.2021 O   0  0  0  0  0  0  0  0  0  0  0  0
   19.8814  -15.5422  -17.2550 O   0  0  0  0  0  0  0  0  0  0  0  0
   28.8499  -12.6533  -15.2216 C   0  0  0  0  0  0  0  0  0  0  0  0
   28.0427  -11.1529  -15.8034 S   0  0  0  0  0  0  0  0  0  0  0  0
   26.2329  -11.2396  -15.4577 C   0  0  0  0  0  0  0  0  0  0  0  0
   25.6667   -9.9513  -15.9462 C   0  0  0  0  0  0  0  0  0  0  0  0
   24.1773   -9.8094  -15.8392 C   0  0  2  0  0  0  0  0  0  0  0  0
   23.5892  -10.7344  -16.8439 N   0  0  0  0  0  0  0  0  0  0  0  0
   23.6560   -8.4559  -16.0511 C   0  0  0  0  0  0  0  0  0  0  0  0
   23.6870   -7.9954  -17.2530 O   0  0  0  0  0  0  0  0  0  0  0  0
   23.1184   -7.5945  -15.0835 N   0  0  0  0  0  0  0  0  0  0  0  0
   22.7766   -6.2333  -15.3899 C   0  0  0  0  0  0  0  0  0  0  0  0
   21.9089   -5.6315  -14.3395 C   0  0  0  0  0  0  0  0  0  0  0  0
   20.6645   -5.5292  -14.5018 O   0  0  0  0  0  0  0  0  0  0  0  0
   22.4868   -5.1777  -13.1661 O   0  0  0  0  0  0  0  0  0  0  0  0
  2  1  1  1
  3  2  1  0
  4  3  1  0
  4  5  2  0
  6  2  1  0
  7  6  2  0
  8  4  1  0
  9 10  1  0
 11 12  1  0
 11 10  1  0
 13 12  1  6
 13 15  1  0
 13 14  1  0
 14  6  1  0
 15 17  1  0
 16 15  2  0
 17 18  1  0
 19 21  1  0
 19 18  1  0
 20 19  2  0
M  END
$$$$
