DMG.pdb
     RDKit          3D

 21 20  0  0  1  0  0  0  0  0999 V2000
   28.4885  -20.4363  -14.3340 N   0  0  0  0  0  0  0  0  0  0  0  0
   27.1918  -19.9300  -13.9441 C   0  0  1  0  0  0  0  0  0  0  0  0
   26.1882  -20.2232  -15.0467 C   0  0  0  0  0  0  0  0  0  0  0  0
   26.4718  -19.4068  -16.2401 C   0  0  0  0  0  0  0  0  0  0  0  0
   26.7371  -19.9781  -17.3283 O   0  0  0  0  0  0  0  0  0  0  0  0
   26.7613  -20.6002  -12.6971 C   0  0  0  0  0  0  0  0  0  0  0  0
   26.5829  -21.8454  -12.7278 O   0  0  0  0  0  0  0  0  0  0  0  0
   26.4435  -18.0391  -16.1532 O   0  0  0  0  0  0  0  0  0  0  0  0
   29.2086  -20.4882   -6.7423 C   0  0  0  0  0  0  0  0  0  0  0  0
   27.5759  -19.7470   -6.5793 S   0  0  0  0  0  0  0  0  0  0  0  0
   26.4101  -20.5279   -7.7766 C   0  0  0  0  0  0  0  0  0  0  0  0
   26.8441  -20.0632   -9.1237 C   0  0  0  0  0  0  0  0  0  0  0  0
   26.0360  -20.5692  -10.2816 C   0  0  2  0  0  0  0  0  0  0  0  0
   26.5513  -19.8784  -11.4934 N   0  0  0  0  0  0  0  0  0  0  0  0
   24.5881  -20.3658  -10.1769 C   0  0  0  0  0  0  0  0  0  0  0  0
   24.1424  -19.1809  -10.4108 O   0  0  0  0  0  0  0  0  0  0  0  0
   23.6198  -21.3261   -9.8493 N   0  0  0  0  0  0  0  0  0  0  0  0
   23.0138  -22.1600  -10.8498 C   0  0  0  0  0  0  0  0  0  0  0  0
   21.9799  -21.4246  -11.6300 C   0  0  0  0  0  0  0  0  0  0  0  0
   22.2285  -20.9745  -12.7793 O   0  0  0  0  0  0  0  0  0  0  0  0
   20.7253  -21.2352  -11.0762 O   0  0  0  0  0  0  0  0  0  0  0  0
  2  1  1  6
  3  2  1  0
  4  3  1  0
  4  5  2  0
  6  2  1  0
  7  6  2  0
  8  4  1  0
  9 10  1  0
 11 12  1  0
 11 10  1  0
 13 12  1  1
 13 15  1  0
 13 14  1  0
 14  6  1  0
 15 17  1  0
 16 15  2  0
 17 18  1  0
 19 21  1  0
 19 18  1  0
 20 19  2  0
M  END
$$$$
