DMG.pdb
     RDKit          3D

 21 20  0  0  1  0  0  0  0  0999 V2000
   27.8959  -21.9580  -16.5753 N   0  0  0  0  0  0  0  0  0  0  0  0
   27.3589  -20.8054  -15.8875 C   0  0  1  0  0  0  0  0  0  0  0  0
   26.5633  -19.9623  -16.8699 C   0  0  0  0  0  0  0  0  0  0  0  0
   27.4542  -19.3477  -17.8698 C   0  0  0  0  0  0  0  0  0  0  0  0
   27.0289  -19.1533  -19.0370 O   0  0  0  0  0  0  0  0  0  0  0  0
   26.4683  -21.2596  -14.7965 C   0  0  0  0  0  0  0  0  0  0  0  0
   25.6858  -22.2162  -15.0331 O   0  0  0  0  0  0  0  0  0  0  0  0
   28.7318  -18.9951  -17.5197 O   0  0  0  0  0  0  0  0  0  0  0  0
   25.4646  -20.6882   -6.9647 C   0  0  0  0  0  0  0  0  0  0  0  0
   26.3569  -20.4014   -8.5019 S   0  0  0  0  0  0  0  0  0  0  0  0
   25.3818  -21.0552   -9.9246 C   0  0  0  0  0  0  0  0  0  0  0  0
   26.1761  -20.7292  -11.1418 C   0  0  0  0  0  0  0  0  0  0  0  0
   25.5520  -21.1105  -12.4513 C   0  0  2  0  0  0  0  0  0  0  0  0
   26.4819  -20.6485  -13.5157 N   0  0  0  0  0  0  0  0  0  0  0  0
   24.2138  -20.5640  -12.6951 C   0  0  0  0  0  0  0  0  0  0  0  0
   24.1298  -19.3037  -12.9439 O   0  0  0  0  0  0  0  0  0  0  0  0
   22.9991  -21.2653  -12.6905 N   0  0  0  0  0  0  0  0  0  0  0  0
   21.7387  -20.5943  -12.8483 C   0  0  0  0  0  0  0  0  0  0  0  0
   20.5953  -21.5476  -12.7994 C   0  0  0  0  0  0  0  0  0  0  0  0
   19.4069  -21.1370  -12.7342 O   0  0  0  0  0  0  0  0  0  0  0  0
   20.8501  -22.9081  -12.8257 O   0  0  0  0  0  0  0  0  0  0  0  0
  2  1  1  6
  3  2  1  0
  4  3  1  0
  4  5  2  0
  6  2  1  0
  7  6  2  0
  8  4  1  0
  9 10  1  0
 11 12  1  0
 11 10  1  0
 13 12  1  1
 13 15  1  0
 13 14  1  0
 14  6  1  0
 15 17  1  0
 16 15  2  0
 17 18  1  0
 19 21  1  0
 19 18  1  0
 20 19  2  0
M  END
$$$$
