DMG.pdb
     RDKit          3D

 21 20  0  0  1  0  0  0  0  0999 V2000
   21.3671  -19.5451  -10.4561 N   0  0  0  0  0  0  0  0  0  0  0  0
   22.2085  -20.7055  -10.2680 C   0  0  1  0  0  0  0  0  0  0  0  0
   21.8872  -21.7353  -11.3381 C   0  0  0  0  0  0  0  0  0  0  0  0
   20.4672  -22.1243  -11.2772 C   0  0  0  0  0  0  0  0  0  0  0  0
   19.8199  -22.2617  -12.3464 O   0  0  0  0  0  0  0  0  0  0  0  0
   23.6277  -20.3028  -10.3843 C   0  0  0  0  0  0  0  0  0  0  0  0
   23.9272  -19.4397  -11.2494 O   0  0  0  0  0  0  0  0  0  0  0  0
   19.8686  -22.3319  -10.0617 O   0  0  0  0  0  0  0  0  0  0  0  0
   27.6573  -19.0899   -4.6407 C   0  0  0  0  0  0  0  0  0  0  0  0
   27.6312  -20.3277   -5.9478 S   0  0  0  0  0  0  0  0  0  0  0  0
   26.6226  -19.7197   -7.3675 C   0  0  0  0  0  0  0  0  0  0  0  0
   26.7437  -20.7625   -8.4242 C   0  0  0  0  0  0  0  0  0  0  0  0
   26.0566  -20.4602   -9.7228 C   0  0  2  0  0  0  0  0  0  0  0  0
   24.6345  -20.8610   -9.5543 N   0  0  0  0  0  0  0  0  0  0  0  0
   26.6187  -21.1234  -10.9030 C   0  0  0  0  0  0  0  0  0  0  0  0
   26.3787  -22.3806  -11.0412 O   0  0  0  0  0  0  0  0  0  0  0  0
   27.3960  -20.5380  -11.9132 N   0  0  0  0  0  0  0  0  0  0  0  0
   27.9309  -21.3118  -12.9990 C   0  0  0  0  0  0  0  0  0  0  0  0
   27.4405  -20.8251  -14.3185 C   0  0  0  0  0  0  0  0  0  0  0  0
   28.0498  -21.1054  -15.3840 O   0  0  0  0  0  0  0  0  0  0  0  0
   26.2939  -20.0508  -14.3679 O   0  0  0  0  0  0  0  0  0  0  0  0
  2  1  1  6
  3  2  1  0
  4  3  1  0
  4  5  2  0
  6  2  1  0
  7  6  2  0
  8  4  1  0
  9 10  1  0
 11 12  1  0
 11 10  1  0
 13 12  1  1
 13 15  1  0
 13 14  1  0
 14  6  1  0
 15 17  1  0
 16 15  2  0
 17 18  1  0
 19 21  1  0
 19 18  1  0
 20 19  2  0
M  END
$$$$
