DMG.pdb
     RDKit          3D

 21 20  0  0  1  0  0  0  0  0999 V2000
   27.1419  -21.2536  -13.3193 N   0  0  0  0  0  0  0  0  0  0  0  0
   26.2697  -20.3472  -12.6068 C   0  0  1  0  0  0  0  0  0  0  0  0
   24.9034  -20.3412  -13.2718 C   0  0  0  0  0  0  0  0  0  0  0  0
   24.9922  -19.8011  -14.6400 C   0  0  0  0  0  0  0  0  0  0  0  0
   25.4337  -18.6369  -14.8151 O   0  0  0  0  0  0  0  0  0  0  0  0
   26.1319  -20.8031  -11.2058 C   0  0  0  0  0  0  0  0  0  0  0  0
   25.9222  -22.0268  -11.0013 O   0  0  0  0  0  0  0  0  0  0  0  0
   24.5950  -20.5693  -15.7034 O   0  0  0  0  0  0  0  0  0  0  0  0
   28.2735  -19.6994   -3.9024 C   0  0  0  0  0  0  0  0  0  0  0  0
   28.2824  -19.3478   -5.6681 S   0  0  0  0  0  0  0  0  0  0  0  0
   26.5936  -19.5989   -6.3663 C   0  0  0  0  0  0  0  0  0  0  0  0
   26.7241  -19.3657   -7.8317 C   0  0  0  0  0  0  0  0  0  0  0  0
   26.0883  -20.3961   -8.7169 C   0  0  2  0  0  0  0  0  0  0  0  0
   26.2308  -19.9034  -10.1127 N   0  0  0  0  0  0  0  0  0  0  0  0
   24.6783  -20.6840   -8.4378 C   0  0  0  0  0  0  0  0  0  0  0  0
   23.8092  -19.8369   -8.8671 O   0  0  0  0  0  0  0  0  0  0  0  0
   24.1604  -21.7911   -7.7499 N   0  0  0  0  0  0  0  0  0  0  0  0
   22.7470  -21.9759   -7.5710 C   0  0  0  0  0  0  0  0  0  0  0  0
   22.3624  -21.9376   -6.1326 C   0  0  0  0  0  0  0  0  0  0  0  0
   21.1708  -22.1238   -5.7714 O   0  0  0  0  0  0  0  0  0  0  0  0
   23.3369  -21.6919   -5.1804 O   0  0  0  0  0  0  0  0  0  0  0  0
  2  1  1  6
  3  2  1  0
  4  3  1  0
  4  5  2  0
  6  2  1  0
  7  6  2  0
  8  4  1  0
  9 10  1  0
 11 12  1  0
 11 10  1  0
 13 12  1  1
 13 15  1  0
 13 14  1  0
 14  6  1  0
 15 17  1  0
 16 15  2  0
 17 18  1  0
 19 21  1  0
 19 18  1  0
 20 19  2  0
M  END
$$$$
