DMG.pdb
     RDKit          3D

 21 20  0  0  1  0  0  0  0  0999 V2000
   16.2965  -10.5268  -13.1318 N   0  0  0  0  0  0  0  0  0  0  0  0
   17.1300   -9.4999  -12.5482 C   0  0  1  0  0  0  0  0  0  0  0  0
   17.8035   -8.7111  -13.6587 C   0  0  0  0  0  0  0  0  0  0  0  0
   18.7483   -9.5622  -14.4032 C   0  0  0  0  0  0  0  0  0  0  0  0
   19.5877  -10.2511  -13.7693 O   0  0  0  0  0  0  0  0  0  0  0  0
   16.2885   -8.5897  -11.7400 C   0  0  0  0  0  0  0  0  0  0  0  0
   15.2414   -8.1314  -12.2659 O   0  0  0  0  0  0  0  0  0  0  0  0
   18.7032   -9.5948  -15.7727 O   0  0  0  0  0  0  0  0  0  0  0  0
   11.5278   -7.4734   -6.8591 C   0  0  0  0  0  0  0  0  0  0  0  0
   12.7897   -8.2054   -7.9142 S   0  0  0  0  0  0  0  0  0  0  0  0
   14.4614   -7.6392   -7.3780 C   0  0  0  0  0  0  0  0  0  0  0  0
   15.4206   -8.2402   -8.3463 C   0  0  0  0  0  0  0  0  0  0  0  0
   15.6988   -7.4314   -9.5784 C   0  0  2  0  0  0  0  0  0  0  0  0
   16.6347   -8.2332  -10.4106 N   0  0  0  0  0  0  0  0  0  0  0  0
   16.2653   -6.0998   -9.3442 C   0  0  0  0  0  0  0  0  0  0  0  0
   17.4582   -6.0447   -8.8633 O   0  0  0  0  0  0  0  0  0  0  0  0
   15.6504   -4.8632   -9.5888 N   0  0  0  0  0  0  0  0  0  0  0  0
   16.2638   -3.6241   -9.1986 C   0  0  0  0  0  0  0  0  0  0  0  0
   15.5060   -2.4477   -9.7088 C   0  0  0  0  0  0  0  0  0  0  0  0
   14.5348   -2.5900  -10.4971 O   0  0  0  0  0  0  0  0  0  0  0  0
   15.8815   -1.1775   -9.3059 O   0  0  0  0  0  0  0  0  0  0  0  0
  2  1  1  6
  3  2  1  0
  4  3  1  0
  4  5  2  0
  6  2  1  0
  7  6  2  0
  8  4  1  0
  9 10  1  0
 11 12  1  0
 11 10  1  0
 13 12  1  1
 13 15  1  0
 13 14  1  0
 14  6  1  0
 15 17  1  0
 16 15  2  0
 17 18  1  0
 19 21  1  0
 19 18  1  0
 20 19  2  0
M  END
$$$$
