DMG.pdb
     RDKit          3D

 21 20  0  0  1  0  0  0  0  0999 V2000
   21.9010  -20.6772  -10.2873 N   0  0  0  0  0  0  0  0  0  0  0  0
   22.3478  -20.8504  -11.6512 C   0  0  1  0  0  0  0  0  0  0  0  0
   21.4592  -20.0355  -12.5760 C   0  0  0  0  0  0  0  0  0  0  0  0
   20.0778  -20.5480  -12.5566 C   0  0  0  0  0  0  0  0  0  0  0  0
   19.8623  -21.7493  -12.8589 O   0  0  0  0  0  0  0  0  0  0  0  0
   23.7450  -20.3780  -11.7704 C   0  0  0  0  0  0  0  0  0  0  0  0
   24.0234  -19.2382  -11.3161 O   0  0  0  0  0  0  0  0  0  0  0  0
   19.0460  -19.7146  -12.2105 O   0  0  0  0  0  0  0  0  0  0  0  0
   30.8213  -20.7699  -10.8624 C   0  0  0  0  0  0  0  0  0  0  0  0
   29.1004  -21.2972  -10.8198 S   0  0  0  0  0  0  0  0  0  0  0  0
   28.5017  -21.6233  -12.5338 C   0  0  0  0  0  0  0  0  0  0  0  0
   27.0405  -21.8843  -12.4079 C   0  0  0  0  0  0  0  0  0  0  0  0
   26.1539  -20.6755  -12.4565 C   0  0  2  0  0  0  0  0  0  0  0  0
   24.7544  -21.1716  -12.3749 N   0  0  0  0  0  0  0  0  0  0  0  0
   26.3077  -19.8278  -13.6424 C   0  0  0  0  0  0  0  0  0  0  0  0
   25.7586  -20.2369  -14.7327 O   0  0  0  0  0  0  0  0  0  0  0  0
   26.9909  -18.6058  -13.7268 N   0  0  0  0  0  0  0  0  0  0  0  0
   27.0548  -17.8591  -14.9524 C   0  0  0  0  0  0  0  0  0  0  0  0
   28.0123  -18.4648  -15.9193 C   0  0  0  0  0  0  0  0  0  0  0  0
   28.5369  -19.5881  -15.7000 O   0  0  0  0  0  0  0  0  0  0  0  0
   28.3277  -17.7753  -17.0776 O   0  0  0  0  0  0  0  0  0  0  0  0
  2  1  1  1
  3  2  1  0
  4  3  1  0
  4  5  2  0
  6  2  1  0
  7  6  2  0
  8  4  1  0
  9 10  1  0
 11 12  1  0
 11 10  1  0
 13 12  1  6
 13 15  1  0
 13 14  1  0
 14  6  1  0
 15 17  1  0
 16 15  2  0
 17 18  1  0
 19 21  1  0
 19 18  1  0
 20 19  2  0
M  END
$$$$
