DMG.pdb
     RDKit          3D

 21 20  0  0  1  0  0  0  0  0999 V2000
   20.6196  -13.0894  -17.3498 N   0  0  0  0  0  0  0  0  0  0  0  0
   20.7038  -11.6964  -17.7270 C   0  0  1  0  0  0  0  0  0  0  0  0
   19.3239  -11.0675  -17.6296 C   0  0  0  0  0  0  0  0  0  0  0  0
   18.4384  -11.5877  -18.6862 C   0  0  0  0  0  0  0  0  0  0  0  0
   18.8650  -11.6607  -19.8667 O   0  0  0  0  0  0  0  0  0  0  0  0
   21.6283  -10.9971  -16.8073 C   0  0  0  0  0  0  0  0  0  0  0  0
   21.6018  -11.3144  -15.5900 O   0  0  0  0  0  0  0  0  0  0  0  0
   17.1644  -11.9855  -18.3736 O   0  0  0  0  0  0  0  0  0  0  0  0
   27.1970  -11.6545  -15.8262 C   0  0  0  0  0  0  0  0  0  0  0  0
   26.4042  -10.2818  -14.9725 S   0  0  0  0  0  0  0  0  0  0  0  0
   25.9882   -8.9494  -16.1784 C   0  0  0  0  0  0  0  0  0  0  0  0
   24.8435   -9.4707  -16.9764 C   0  0  0  0  0  0  0  0  0  0  0  0
   23.4947   -9.3696  -16.3282 C   0  0  2  0  0  0  0  0  0  0  0  0
   22.5251   -9.9969  -17.2650 N   0  0  0  0  0  0  0  0  0  0  0  0
   23.0533   -8.0110  -15.9993 C   0  0  0  0  0  0  0  0  0  0  0  0
   22.7747   -7.2289  -16.9832 O   0  0  0  0  0  0  0  0  0  0  0  0
   22.8955   -7.4586  -14.7197 N   0  0  0  0  0  0  0  0  0  0  0  0
   22.4959   -6.0918  -14.5309 C   0  0  0  0  0  0  0  0  0  0  0  0
   23.5494   -5.1406  -14.9825 C   0  0  0  0  0  0  0  0  0  0  0  0
   24.7054   -5.5414  -15.2795 O   0  0  0  0  0  0  0  0  0  0  0  0
   23.2464   -3.7929  -15.0746 O   0  0  0  0  0  0  0  0  0  0  0  0
  2  1  1  1
  3  2  1  0
  4  3  1  0
  4  5  2  0
  6  2  1  0
  7  6  2  0
  8  4  1  0
  9 10  1  0
 11 12  1  0
 11 10  1  0
 13 12  1  6
 13 15  1  0
 13 14  1  0
 14  6  1  0
 15 17  1  0
 16 15  2  0
 17 18  1  0
 19 21  1  0
 19 18  1  0
 20 19  2  0
M  END
$$$$
