DMG.pdb
     RDKit          3D

 21 20  0  0  1  0  0  0  0  0999 V2000
   19.8443  -33.8523   -5.2584 N   0  0  0  0  0  0  0  0  0  0  0  0
   20.9436  -33.0768   -4.7294 C   0  0  1  0  0  0  0  0  0  0  0  0
   20.8779  -33.0867   -3.2113 C   0  0  0  0  0  0  0  0  0  0  0  0
   19.7972  -32.2078   -2.7307 C   0  0  0  0  0  0  0  0  0  0  0  0
   19.0777  -31.6033   -3.5661 O   0  0  0  0  0  0  0  0  0  0  0  0
   22.2216  -33.6790   -5.1696 C   0  0  0  0  0  0  0  0  0  0  0  0
   22.2608  -34.9258   -5.3337 O   0  0  0  0  0  0  0  0  0  0  0  0
   19.5875  -32.0587   -1.3844 O   0  0  0  0  0  0  0  0  0  0  0  0
   26.8764  -32.6387  -10.0114 C   0  0  0  0  0  0  0  0  0  0  0  0
   25.0828  -32.6347   -9.8546 S   0  0  0  0  0  0  0  0  0  0  0  0
   24.5769  -33.6679   -8.4127 C   0  0  0  0  0  0  0  0  0  0  0  0
   24.9603  -32.8878   -7.2031 C   0  0  0  0  0  0  0  0  0  0  0  0
   24.6355  -33.5245   -5.8844 C   0  0  2  0  0  0  0  0  0  0  0  0
   23.3784  -32.8912   -5.4052 N   0  0  0  0  0  0  0  0  0  0  0  0
   25.6713  -33.4047   -4.8541 C   0  0  0  0  0  0  0  0  0  0  0  0
   25.6559  -32.3433   -4.1256 O   0  0  0  0  0  0  0  0  0  0  0  0
   26.6887  -34.3259   -4.5653 N   0  0  0  0  0  0  0  0  0  0  0  0
   27.7471  -34.0184   -3.6439 C   0  0  0  0  0  0  0  0  0  0  0  0
   27.3956  -34.4059   -2.2493 C   0  0  0  0  0  0  0  0  0  0  0  0
   26.2538  -34.8542   -1.9656 O   0  0  0  0  0  0  0  0  0  0  0  0
   28.3453  -34.2678   -1.2515 O   0  0  0  0  0  0  0  0  0  0  0  0
  2  1  1  6
  3  2  1  0
  4  3  1  0
  4  5  2  0
  6  2  1  0
  7  6  2  0
  8  4  1  0
  9 10  1  0
 11 12  1  0
 11 10  1  0
 13 12  1  6
 13 15  1  0
 13 14  1  0
 14  6  1  0
 15 17  1  0
 16 15  2  0
 17 18  1  0
 19 21  1  0
 19 18  1  0
 20 19  2  0
M  END
$$$$
