DMG.pdb
     RDKit          3D

 21 20  0  0  1  0  0  0  0  0999 V2000
   19.3437  -11.8063  -15.7388 N   0  0  0  0  0  0  0  0  0  0  0  0
   19.3508  -10.7591  -16.7354 C   0  0  1  0  0  0  0  0  0  0  0  0
   17.9309  -10.2616  -16.9484 C   0  0  0  0  0  0  0  0  0  0  0  0
   17.0855  -11.3261  -17.5171 C   0  0  0  0  0  0  0  0  0  0  0  0
   17.5149  -12.0015  -18.4869 O   0  0  0  0  0  0  0  0  0  0  0  0
   20.1971   -9.6413  -16.2623 C   0  0  0  0  0  0  0  0  0  0  0  0
   20.0748   -9.2743  -15.0650 O   0  0  0  0  0  0  0  0  0  0  0  0
   15.8455  -11.5689  -16.9859 O   0  0  0  0  0  0  0  0  0  0  0  0
   25.7097   -9.8106  -14.0883 C   0  0  0  0  0  0  0  0  0  0  0  0
   24.4784   -9.7736  -15.4014 S   0  0  0  0  0  0  0  0  0  0  0  0
   24.5119   -8.1344  -16.2466 C   0  0  0  0  0  0  0  0  0  0  0  0
   23.3643   -8.1467  -17.1963 C   0  0  0  0  0  0  0  0  0  0  0  0
   22.0114   -7.9199  -16.5899 C   0  0  2  0  0  0  0  0  0  0  0  0
   21.1246   -8.9908  -17.1172 N   0  0  0  0  0  0  0  0  0  0  0  0
   21.4125   -6.6088  -16.8564 C   0  0  0  0  0  0  0  0  0  0  0  0
   20.9247   -6.4132  -18.0316 O   0  0  0  0  0  0  0  0  0  0  0  0
   21.3064   -5.5298  -15.9665 N   0  0  0  0  0  0  0  0  0  0  0  0
   20.7627   -4.2644  -16.3748 C   0  0  0  0  0  0  0  0  0  0  0  0
   20.8439   -3.2510  -15.2863 C   0  0  0  0  0  0  0  0  0  0  0  0
   21.1502   -3.5806  -14.1104 O   0  0  0  0  0  0  0  0  0  0  0  0
   20.5761   -1.9245  -15.5787 O   0  0  0  0  0  0  0  0  0  0  0  0
  2  1  1  1
  3  2  1  0
  4  3  1  0
  4  5  2  0
  6  2  1  0
  7  6  2  0
  8  4  1  0
  9 10  1  0
 11 12  1  0
 11 10  1  0
 13 12  1  6
 13 15  1  0
 13 14  1  0
 14  6  1  0
 15 17  1  0
 16 15  2  0
 17 18  1  0
 19 21  1  0
 19 18  1  0
 20 19  2  0
M  END
$$$$
