DMG.pdb
     RDKit          3D

 21 20  0  0  1  0  0  0  0  0999 V2000
   28.2587  -21.0153  -14.7344 N   0  0  0  0  0  0  0  0  0  0  0  0
   27.5998  -20.0368  -13.8988 C   0  0  1  0  0  0  0  0  0  0  0  0
   26.5338  -19.3214  -14.7117 C   0  0  0  0  0  0  0  0  0  0  0  0
   27.1490  -18.4949  -15.7652 C   0  0  0  0  0  0  0  0  0  0  0  0
   26.9981  -18.8206  -16.9702 O   0  0  0  0  0  0  0  0  0  0  0  0
   26.9648  -20.7232  -12.7520 C   0  0  0  0  0  0  0  0  0  0  0  0
   26.4855  -21.8708  -12.9428 O   0  0  0  0  0  0  0  0  0  0  0  0
   27.8759  -17.3843  -15.4231 O   0  0  0  0  0  0  0  0  0  0  0  0
   28.3430  -20.2787   -5.9262 C   0  0  0  0  0  0  0  0  0  0  0  0
   26.7451  -19.6892   -6.5101 S   0  0  0  0  0  0  0  0  0  0  0  0
   26.1123  -20.8030   -7.8373 C   0  0  0  0  0  0  0  0  0  0  0  0
   26.7943  -20.3680   -9.0881 C   0  0  0  0  0  0  0  0  0  0  0  0
   26.1371  -20.7853  -10.3702 C   0  0  2  0  0  0  0  0  0  0  0  0
   26.8892  -20.1224  -11.4684 N   0  0  0  0  0  0  0  0  0  0  0  0
   24.7121  -20.4607  -10.4832 C   0  0  0  0  0  0  0  0  0  0  0  0
   24.3997  -19.2170  -10.5967 O   0  0  0  0  0  0  0  0  0  0  0  0
   23.6363  -21.3606  -10.4840 N   0  0  0  0  0  0  0  0  0  0  0  0
   22.9510  -21.7177  -11.6950 C   0  0  0  0  0  0  0  0  0  0  0  0
   21.6250  -21.0470  -11.7979 C   0  0  0  0  0  0  0  0  0  0  0  0
   21.2772  -20.1607  -10.9741 O   0  0  0  0  0  0  0  0  0  0  0  0
   20.7636  -21.4094  -12.8194 O   0  0  0  0  0  0  0  0  0  0  0  0
  2  1  1  6
  3  2  1  0
  4  3  1  0
  4  5  2  0
  6  2  1  0
  7  6  2  0
  8  4  1  0
  9 10  1  0
 11 12  1  0
 11 10  1  0
 13 12  1  1
 13 15  1  0
 13 14  1  0
 14  6  1  0
 15 17  1  0
 16 15  2  0
 17 18  1  0
 19 21  1  0
 19 18  1  0
 20 19  2  0
M  END
$$$$
