DMG.pdb
     RDKit          3D

 21 20  0  0  1  0  0  0  0  0999 V2000
   22.7662  -14.0508  -17.5528 N   0  0  0  0  0  0  0  0  0  0  0  0
   23.3499  -12.8502  -18.1076 C   0  0  1  0  0  0  0  0  0  0  0  0
   22.3367  -12.1755  -19.0171 C   0  0  0  0  0  0  0  0  0  0  0  0
   21.9616  -13.0654  -20.1300 C   0  0  0  0  0  0  0  0  0  0  0  0
   22.8613  -13.5405  -20.8688 O   0  0  0  0  0  0  0  0  0  0  0  0
   23.7111  -11.9298  -17.0067 C   0  0  0  0  0  0  0  0  0  0  0  0
   22.9053  -11.8123  -16.0474 O   0  0  0  0  0  0  0  0  0  0  0  0
   20.6421  -13.3657  -20.3480 O   0  0  0  0  0  0  0  0  0  0  0  0
   28.5620  -13.3902  -16.6854 C   0  0  0  0  0  0  0  0  0  0  0  0
   27.0657  -12.9616  -15.7806 S   0  0  0  0  0  0  0  0  0  0  0  0
   27.3157  -11.3775  -14.8693 C   0  0  0  0  0  0  0  0  0  0  0  0
   26.7578  -10.3132  -15.7496 C   0  0  0  0  0  0  0  0  0  0  0  0
   25.2640  -10.2909  -15.8823 C   0  0  2  0  0  0  0  0  0  0  0  0
   24.9245  -11.1939  -17.0140 N   0  0  0  0  0  0  0  0  0  0  0  0
   24.6708   -8.9701  -16.1111 C   0  0  0  0  0  0  0  0  0  0  0  0
   24.8117   -8.4574  -17.2836 O   0  0  0  0  0  0  0  0  0  0  0  0
   23.9564   -8.1915  -15.1888 N   0  0  0  0  0  0  0  0  0  0  0  0
   23.4012   -6.9159  -15.5467 C   0  0  0  0  0  0  0  0  0  0  0  0
   21.9411   -7.0076  -15.8265 C   0  0  0  0  0  0  0  0  0  0  0  0
   21.3680   -8.1229  -15.9398 O   0  0  0  0  0  0  0  0  0  0  0  0
   21.2065   -5.8422  -15.9642 O   0  0  0  0  0  0  0  0  0  0  0  0
  2  1  1  1
  3  2  1  0
  4  3  1  0
  4  5  2  0
  6  2  1  0
  7  6  2  0
  8  4  1  0
  9 10  1  0
 11 12  1  0
 11 10  1  0
 13 12  1  6
 13 15  1  0
 13 14  1  0
 14  6  1  0
 15 17  1  0
 16 15  2  0
 17 18  1  0
 19 21  1  0
 19 18  1  0
 20 19  2  0
M  END
$$$$
