DMG.pdb
     RDKit          3D

 21 20  0  0  1  0  0  0  0  0999 V2000
   26.1294  -38.2253   -9.9341 N   0  0  0  0  0  0  0  0  0  0  0  0
   26.4439  -37.7902   -8.5919 C   0  0  1  0  0  0  0  0  0  0  0  0
   27.7393  -38.4462   -8.1440 C   0  0  0  0  0  0  0  0  0  0  0  0
   27.5953  -39.9122   -8.1066 C   0  0  0  0  0  0  0  0  0  0  0  0
   28.4939  -40.6324   -8.6115 O   0  0  0  0  0  0  0  0  0  0  0  0
   26.6089  -36.3198   -8.5820 C   0  0  0  0  0  0  0  0  0  0  0  0
   27.1871  -35.7842   -9.5629 O   0  0  0  0  0  0  0  0  0  0  0  0
   26.4889  -40.4740   -7.5243 O   0  0  0  0  0  0  0  0  0  0  0  0
   23.4503  -31.8984  -11.4853 C   0  0  0  0  0  0  0  0  0  0  0  0
   24.0326  -31.8805   -9.7818 S   0  0  0  0  0  0  0  0  0  0  0  0
   24.4972  -33.5875   -9.2596 C   0  0  0  0  0  0  0  0  0  0  0  0
   24.9500  -33.4677   -7.8456 C   0  0  0  0  0  0  0  0  0  0  0  0
   26.3011  -34.0432   -7.5407 C   0  0  2  0  0  0  0  0  0  0  0  0
   26.1360  -35.5207   -7.5086 N   0  0  0  0  0  0  0  0  0  0  0  0
   26.9122  -33.5886   -6.2882 C   0  0  0  0  0  0  0  0  0  0  0  0
   27.7680  -32.6299   -6.3657 O   0  0  0  0  0  0  0  0  0  0  0  0
   26.6674  -34.0825   -4.9985 N   0  0  0  0  0  0  0  0  0  0  0  0
   27.2303  -33.4612   -3.8320 C   0  0  0  0  0  0  0  0  0  0  0  0
   26.6529  -34.0172   -2.5767 C   0  0  0  0  0  0  0  0  0  0  0  0
   25.7596  -34.9039   -2.6070 O   0  0  0  0  0  0  0  0  0  0  0  0
   27.1101  -33.5461   -1.3577 O   0  0  0  0  0  0  0  0  0  0  0  0
  2  1  1  6
  3  2  1  0
  4  3  1  0
  4  5  2  0
  6  2  1  0
  7  6  2  0
  8  4  1  0
  9 10  1  0
 11 12  1  0
 11 10  1  0
 13 12  1  1
 13 15  1  0
 13 14  1  0
 14  6  1  0
 15 17  1  0
 16 15  2  0
 17 18  1  0
 19 21  1  0
 19 18  1  0
 20 19  2  0
M  END
$$$$
