CVQ.pdb
     RDKit          3D

 23 22  0  0  1  0  0  0  0  0999 V2000
   25.0645  -15.5328  -17.2535 N   0  0  0  0  0  0  0  0  0  0  0  0
   24.6329  -14.5992  -16.2497 C   0  0  1  0  0  0  0  0  0  0  0  0
   25.8324  -14.0143  -15.5720 C   0  0  0  0  0  0  0  0  0  0  0  0
   26.7399  -15.3344  -14.6949 S   0  0  0  0  0  0  0  0  0  0  0  0
   23.8818  -13.4905  -16.9151 C   0  0  0  0  0  0  0  0  0  0  0  0
   24.2393  -13.1434  -18.0441 O   0  0  0  0  0  0  0  0  0  0  0  0
   20.0850  -13.1554  -15.8006 C   0  0  0  0  0  0  0  0  0  0  0  0
   20.5462  -12.4808  -17.0810 C   0  0  2  0  0  0  0  0  0  0  0  0
   20.7487  -13.6078  -18.0723 C   0  0  0  0  0  0  0  0  0  0  0  0
   21.9046  -11.8627  -16.7831 C   0  0  2  0  0  0  0  0  0  0  0  0
   22.8195  -12.8816  -16.2711 N   0  0  0  0  0  0  0  0  0  0  0  0
   21.8876  -10.7095  -15.8859 C   0  0  0  0  0  0  0  0  0  0  0  0
   22.0084  -10.9373  -14.6118 O   0  0  0  0  0  0  0  0  0  0  0  0
   22.6997   -4.2139  -16.5531 N   0  0  0  0  0  0  0  0  0  0  0  0
   22.4150   -4.5350  -15.1987 C   0  0  0  0  0  0  0  0  0  0  0  0
   22.4049   -3.5656  -14.4013 O   0  0  0  0  0  0  0  0  0  0  0  0
   22.1435   -5.8807  -14.7111 C   0  0  0  0  0  0  0  0  0  0  0  0
   22.1703   -6.9772  -15.7082 C   0  0  0  0  0  0  0  0  0  0  0  0
   21.7573   -8.2935  -15.1627 C   0  0  2  0  0  0  0  0  0  0  0  0
   21.7610   -9.3489  -16.1836 N   0  0  0  0  0  0  0  0  0  0  0  0
   20.5106   -8.2554  -14.3819 C   0  0  0  0  0  0  0  0  0  0  0  0
   20.5504   -8.0476  -13.0218 O   0  0  0  0  0  0  0  0  0  0  0  0
   19.4144   -8.4105  -14.9450 O   0  0  0  0  0  0  0  0  0  0  0  0
  2  5  1  0
  2  3  1  0
  2  1  1  6
  3  4  1  0
  5  6  2  0
  8  7  1  1
  8 10  1  0
  9  8  1  0
 10 12  1  0
 10 11  1  1
 11  5  1  0
 12 13  2  0
 12 20  1  0
 15 14  1  0
 16 15  2  0
 17 15  1  0
 18 17  1  0
 19 18  1  6
 20 19  1  0
 21 22  1  0
 21 19  1  0
 23 21  2  0
M  END
$$$$
