CVQ.pdb
     RDKit          3D

 23 22  0  0  1  0  0  0  0  0999 V2000
   27.5946  -19.1983   -7.8305 N   0  0  0  0  0  0  0  0  0  0  0  0
   26.9469  -20.3511   -8.3936 C   0  0  1  0  0  0  0  0  0  0  0  0
   25.9286  -20.8666   -7.4254 C   0  0  0  0  0  0  0  0  0  0  0  0
   26.7262  -21.1802   -5.8126 S   0  0  0  0  0  0  0  0  0  0  0  0
   26.2397  -19.9417   -9.6459 C   0  0  0  0  0  0  0  0  0  0  0  0
   25.5891  -18.8932   -9.6285 O   0  0  0  0  0  0  0  0  0  0  0  0
   27.4802  -22.0492  -12.9816 C   0  0  0  0  0  0  0  0  0  0  0  0
   27.0237  -20.6074  -13.1233 C   0  0  2  0  0  0  0  0  0  0  0  0
   28.1954  -19.7722  -12.6507 C   0  0  0  0  0  0  0  0  0  0  0  0
   25.8779  -20.4145  -12.1404 C   0  0  2  0  0  0  0  0  0  0  0  0
   26.3219  -20.7260  -10.7827 N   0  0  0  0  0  0  0  0  0  0  0  0
   24.6546  -21.1520  -12.4480 C   0  0  0  0  0  0  0  0  0  0  0  0
   24.2483  -22.0309  -11.5807 O   0  0  0  0  0  0  0  0  0  0  0  0
   18.8438  -21.0008  -11.5171 N   0  0  0  0  0  0  0  0  0  0  0  0
   19.2805  -20.1629  -12.5780 C   0  0  0  0  0  0  0  0  0  0  0  0
   18.4071  -19.8639  -13.4287 O   0  0  0  0  0  0  0  0  0  0  0  0
   20.6379  -19.6532  -12.7193 C   0  0  0  0  0  0  0  0  0  0  0  0
   21.7435  -20.5672  -12.3458 C   0  0  0  0  0  0  0  0  0  0  0  0
   22.3618  -21.2634  -13.5006 C   0  0  2  0  0  0  0  0  0  0  0  0
   23.8150  -21.0627  -13.5629 N   0  0  0  0  0  0  0  0  0  0  0  0
   21.6919  -21.0064  -14.7854 C   0  0  0  0  0  0  0  0  0  0  0  0
   20.6176  -21.7747  -15.1729 O   0  0  0  0  0  0  0  0  0  0  0  0
   22.0914  -20.0947  -15.5282 O   0  0  0  0  0  0  0  0  0  0  0  0
  2  5  1  0
  2  3  1  0
  2  1  1  1
  3  4  1  0
  5  6  2  0
  8  7  1  1
  8 10  1  0
  9  8  1  0
 10 12  1  0
 10 11  1  1
 11  5  1  0
 12 13  2  0
 12 20  1  0
 15 14  1  0
 16 15  2  0
 17 15  1  0
 18 17  1  0
 19 18  1  1
 20 19  1  0
 21 22  1  0
 21 19  1  0
 23 21  2  0
M  END
$$$$
