CVQ.pdb
     RDKit          3D

 23 22  0  0  1  0  0  0  0  0999 V2000
   27.7145  -17.7415  -16.6833 N   0  0  0  0  0  0  0  0  0  0  0  0
   27.1287  -17.6504  -15.3740 C   0  0  1  0  0  0  0  0  0  0  0  0
   26.0096  -16.6570  -15.4026 C   0  0  0  0  0  0  0  0  0  0  0  0
   26.6976  -14.9653  -15.4131 S   0  0  0  0  0  0  0  0  0  0  0  0
   26.5631  -18.9850  -15.0063 C   0  0  0  0  0  0  0  0  0  0  0  0
   26.3210  -19.7831  -15.9158 O   0  0  0  0  0  0  0  0  0  0  0  0
   27.8442  -20.9835  -11.8785 C   0  0  0  0  0  0  0  0  0  0  0  0
   26.3492  -20.7658  -11.7215 C   0  0  2  0  0  0  0  0  0  0  0  0
   25.8088  -22.0828  -11.2045 C   0  0  0  0  0  0  0  0  0  0  0  0
   25.7921  -20.5420  -13.1200 C   0  0  2  0  0  0  0  0  0  0  0  0
   26.3240  -19.3010  -13.6807 N   0  0  0  0  0  0  0  0  0  0  0  0
   24.3348  -20.5544  -13.2258 C   0  0  0  0  0  0  0  0  0  0  0  0
   23.7077  -19.4342  -13.0216 O   0  0  0  0  0  0  0  0  0  0  0  0
   19.4601  -22.9614  -10.7203 N   0  0  0  0  0  0  0  0  0  0  0  0
   19.1377  -22.1170  -11.8165 C   0  0  0  0  0  0  0  0  0  0  0  0
   18.0683  -22.3888  -12.4152 O   0  0  0  0  0  0  0  0  0  0  0  0
   19.9547  -20.9954  -12.2599 C   0  0  0  0  0  0  0  0  0  0  0  0
   21.4250  -21.1830  -12.2406 C   0  0  0  0  0  0  0  0  0  0  0  0
   22.0094  -21.4760  -13.5723 C   0  0  2  0  0  0  0  0  0  0  0  0
   23.4705  -21.6125  -13.5249 N   0  0  0  0  0  0  0  0  0  0  0  0
   21.5522  -20.5728  -14.6404 C   0  0  0  0  0  0  0  0  0  0  0  0
   22.4530  -20.0546  -15.5429 O   0  0  0  0  0  0  0  0  0  0  0  0
   20.3508  -20.2724  -14.7344 O   0  0  0  0  0  0  0  0  0  0  0  0
  2  5  1  0
  2  3  1  0
  2  1  1  6
  3  4  1  0
  5  6  2  0
  8  7  1  6
  8 10  1  0
  9  8  1  0
 10 12  1  0
 10 11  1  1
 11  5  1  0
 12 13  2  0
 12 20  1  0
 15 14  1  0
 16 15  2  0
 17 15  1  0
 18 17  1  0
 19 18  1  1
 20 19  1  0
 21 22  1  0
 21 19  1  0
 23 21  2  0
M  END
$$$$
