CVQ.pdb
     RDKit          3D

 23 22  0  0  1  0  0  0  0  0999 V2000
   28.7644  -24.4804  -17.8585 N   0  0  0  0  0  0  0  0  0  0  0  0
   28.4666  -25.7896  -17.3459 C   0  0  1  0  0  0  0  0  0  0  0  0
   27.0076  -25.8721  -17.0221 C   0  0  0  0  0  0  0  0  0  0  0  0
   26.6119  -24.6875  -15.6897 S   0  0  0  0  0  0  0  0  0  0  0  0
   28.7711  -26.8012  -18.4042 C   0  0  0  0  0  0  0  0  0  0  0  0
   28.3950  -26.5670  -19.5560 O   0  0  0  0  0  0  0  0  0  0  0  0
   31.6739  -29.4991  -17.4136 C   0  0  0  0  0  0  0  0  0  0  0  0
   31.3465  -29.2925  -18.8824 C   0  0  2  0  0  0  0  0  0  0  0  0
   32.0433  -28.0038  -19.2666 C   0  0  0  0  0  0  0  0  0  0  0  0
   29.8445  -29.0615  -18.9658 C   0  0  2  0  0  0  0  0  0  0  0  0
   29.4552  -27.9608  -18.0858 N   0  0  0  0  0  0  0  0  0  0  0  0
   29.0125  -30.2328  -18.6996 C   0  0  0  0  0  0  0  0  0  0  0  0
   28.5878  -30.4046  -17.4831 O   0  0  0  0  0  0  0  0  0  0  0  0
   25.9077  -32.9406  -15.4198 N   0  0  0  0  0  0  0  0  0  0  0  0
   25.8627  -33.5754  -16.6900 C   0  0  0  0  0  0  0  0  0  0  0  0
   26.0814  -34.8116  -16.6875 O   0  0  0  0  0  0  0  0  0  0  0  0
   25.5845  -32.8887  -17.9443 C   0  0  0  0  0  0  0  0  0  0  0  0
   26.5315  -31.8247  -18.3549 C   0  0  0  0  0  0  0  0  0  0  0  0
   27.6662  -32.3159  -19.1745 C   0  0  2  0  0  0  0  0  0  0  0  0
   28.5786  -31.2363  -19.5719 N   0  0  0  0  0  0  0  0  0  0  0  0
   27.2659  -33.1724  -20.3022 C   0  0  0  0  0  0  0  0  0  0  0  0
   27.5875  -32.8155  -21.5921 O   0  0  0  0  0  0  0  0  0  0  0  0
   26.6352  -34.2226  -20.0974 O   0  0  0  0  0  0  0  0  0  0  0  0
  2  5  1  0
  2  3  1  0
  2  1  1  6
  3  4  1  0
  5  6  2  0
  8  7  1  1
  8 10  1  0
  9  8  1  0
 10 12  1  0
 10 11  1  1
 11  5  1  0
 12 13  2  0
 12 20  1  0
 15 14  1  0
 16 15  2  0
 17 15  1  0
 18 17  1  0
 19 18  1  6
 20 19  1  0
 21 22  1  0
 21 19  1  0
 23 21  2  0
M  END
$$$$
