CVQ.pdb
     RDKit          3D

 23 22  0  0  1  0  0  0  0  0999 V2000
   25.9902  -12.9065  -17.4266 N   0  0  0  0  0  0  0  0  0  0  0  0
   25.7837  -11.8639  -16.4591 C   0  0  1  0  0  0  0  0  0  0  0  0
   26.9249  -10.8978  -16.5241 C   0  0  0  0  0  0  0  0  0  0  0  0
   28.4505  -11.7180  -15.9453 S   0  0  0  0  0  0  0  0  0  0  0  0
   24.5268  -11.1306  -16.8032 C   0  0  0  0  0  0  0  0  0  0  0  0
   24.2685  -10.9501  -17.9963 O   0  0  0  0  0  0  0  0  0  0  0  0
   21.6606  -11.1368  -13.9147 C   0  0  0  0  0  0  0  0  0  0  0  0
   21.2885  -10.8436  -15.3578 C   0  0  2  0  0  0  0  0  0  0  0  0
   21.3230  -12.1866  -16.0570 C   0  0  0  0  0  0  0  0  0  0  0  0
   22.4060   -9.9833  -15.9299 C   0  0  2  0  0  0  0  0  0  0  0  0
   23.6882  -10.6739  -15.8020 N   0  0  0  0  0  0  0  0  0  0  0  0
   22.5071   -8.6345  -15.3770 C   0  0  0  0  0  0  0  0  0  0  0  0
   23.6891   -8.2085  -15.0437 O   0  0  0  0  0  0  0  0  0  0  0  0
   25.4090   -4.9444  -16.3164 N   0  0  0  0  0  0  0  0  0  0  0  0
   24.3681   -3.9938  -16.1397 C   0  0  0  0  0  0  0  0  0  0  0  0
   24.7377   -2.8004  -16.0162 O   0  0  0  0  0  0  0  0  0  0  0  0
   22.9498   -4.3238  -16.0983 C   0  0  0  0  0  0  0  0  0  0  0  0
   22.5882   -5.7581  -16.1961 C   0  0  0  0  0  0  0  0  0  0  0  0
   21.7534   -6.2439  -15.0702 C   0  0  2  0  0  0  0  0  0  0  0  0
   21.5038   -7.6891  -15.1410 N   0  0  0  0  0  0  0  0  0  0  0  0
   20.5273   -5.4604  -14.8502 C   0  0  0  0  0  0  0  0  0  0  0  0
   20.4699   -4.5335  -13.8343 O   0  0  0  0  0  0  0  0  0  0  0  0
   19.5366   -5.6304  -15.5797 O   0  0  0  0  0  0  0  0  0  0  0  0
  2  5  1  0
  2  3  1  0
  2  1  1  6
  3  4  1  0
  5  6  2  0
  8  7  1  1
  8 10  1  0
  9  8  1  0
 10 12  1  0
 10 11  1  1
 11  5  1  0
 12 13  2  0
 12 20  1  0
 15 14  1  0
 16 15  2  0
 17 15  1  0
 18 17  1  0
 19 18  1  6
 20 19  1  0
 21 22  1  0
 21 19  1  0
 23 21  2  0
M  END
$$$$
