CVQ.pdb
     RDKit          3D

 23 22  0  0  1  0  0  0  0  0999 V2000
   28.5012  -21.2029  -15.6314 N   0  0  0  0  0  0  0  0  0  0  0  0
   27.8323  -20.3159  -14.7195 C   0  0  1  0  0  0  0  0  0  0  0  0
   27.3256  -19.1255  -15.4720 C   0  0  0  0  0  0  0  0  0  0  0  0
   28.7335  -18.0693  -15.9597 S   0  0  0  0  0  0  0  0  0  0  0  0
   26.6604  -21.0305  -14.1260 C   0  0  0  0  0  0  0  0  0  0  0  0
   26.1283  -21.9238  -14.7906 O   0  0  0  0  0  0  0  0  0  0  0  0
   25.1774  -19.6363  -10.2953 C   0  0  0  0  0  0  0  0  0  0  0  0
   25.2775  -21.1120  -10.6410 C   0  0  2  0  0  0  0  0  0  0  0  0
   26.7160  -21.4896  -10.3548 C   0  0  0  0  0  0  0  0  0  0  0  0
   25.0481  -21.2246  -12.1413 C   0  0  2  0  0  0  0  0  0  0  0  0
   26.1980  -20.6886  -12.8677 N   0  0  0  0  0  0  0  0  0  0  0  0
   23.8156  -20.6156  -12.6364 C   0  0  0  0  0  0  0  0  0  0  0  0
   23.9158  -19.4834  -13.2672 O   0  0  0  0  0  0  0  0  0  0  0  0
   22.4988  -21.6981  -17.8443 N   0  0  0  0  0  0  0  0  0  0  0  0
   21.5478  -22.0882  -16.8636 C   0  0  0  0  0  0  0  0  0  0  0  0
   20.4678  -22.5492  -17.3075 O   0  0  0  0  0  0  0  0  0  0  0  0
   21.7580  -21.9846  -15.4258 C   0  0  0  0  0  0  0  0  0  0  0  0
   21.7682  -20.6219  -14.8424 C   0  0  0  0  0  0  0  0  0  0  0  0
   21.4098  -20.5833  -13.4034 C   0  0  2  0  0  0  0  0  0  0  0  0
   22.4958  -21.0687  -12.5426 N   0  0  0  0  0  0  0  0  0  0  0  0
   20.1111  -21.2011  -13.0913 C   0  0  0  0  0  0  0  0  0  0  0  0
   18.9578  -20.7192  -13.6677 O   0  0  0  0  0  0  0  0  0  0  0  0
   20.0473  -22.1611  -12.3060 O   0  0  0  0  0  0  0  0  0  0  0  0
  2  5  1  0
  2  3  1  0
  2  1  1  6
  3  4  1  0
  5  6  2  0
  8  7  1  6
  8 10  1  0
  9  8  1  0
 10 12  1  0
 10 11  1  6
 11  5  1  0
 12 13  2  0
 12 20  1  0
 15 14  1  0
 16 15  2  0
 17 15  1  0
 18 17  1  0
 19 18  1  6
 20 19  1  0
 21 22  1  0
 21 19  1  0
 23 21  2  0
M  END
$$$$
