CVQ.pdb
     RDKit          3D

 23 22  0  0  1  0  0  0  0  0999 V2000
   18.3779  -13.6714  -16.7025 N   0  0  0  0  0  0  0  0  0  0  0  0
   19.1006  -12.5862  -17.3072 C   0  0  1  0  0  0  0  0  0  0  0  0
   18.1270  -11.6006  -17.8737 C   0  0  0  0  0  0  0  0  0  0  0  0
   17.2608  -12.3497  -19.2963 S   0  0  0  0  0  0  0  0  0  0  0  0
   19.9061  -11.8977  -16.2521 C   0  0  0  0  0  0  0  0  0  0  0  0
   19.3763  -11.6979  -15.1557 O   0  0  0  0  0  0  0  0  0  0  0  0
   23.4919  -12.9047  -15.3096 C   0  0  0  0  0  0  0  0  0  0  0  0
   23.5522  -11.4754  -15.8201 C   0  0  2  0  0  0  0  0  0  0  0  0
   24.5196  -10.7650  -14.8964 C   0  0  0  0  0  0  0  0  0  0  0  0
   22.1689  -10.8777  -15.6070 C   0  0  2  0  0  0  0  0  0  0  0  0
   21.2061  -11.5024  -16.5127 N   0  0  0  0  0  0  0  0  0  0  0  0
   22.0886   -9.4230  -15.7177 C   0  0  0  0  0  0  0  0  0  0  0  0
   21.9771   -8.9160  -16.9095 O   0  0  0  0  0  0  0  0  0  0  0  0
   18.2655   -5.9255  -17.2156 N   0  0  0  0  0  0  0  0  0  0  0  0
   19.2214   -4.9780  -16.7608 C   0  0  0  0  0  0  0  0  0  0  0  0
   18.9511   -3.7758  -17.0006 O   0  0  0  0  0  0  0  0  0  0  0  0
   20.4498   -5.3206  -16.0566 C   0  0  0  0  0  0  0  0  0  0  0  0
   20.6983   -6.7584  -15.7949 C   0  0  0  0  0  0  0  0  0  0  0  0
   21.9039   -7.0179  -14.9704 C   0  0  2  0  0  0  0  0  0  0  0  0
   22.1098   -8.4490  -14.7143 N   0  0  0  0  0  0  0  0  0  0  0  0
   21.9839   -6.1997  -13.7498 C   0  0  0  0  0  0  0  0  0  0  0  0
   22.2611   -4.8541  -13.8341 O   0  0  0  0  0  0  0  0  0  0  0  0
   21.8019   -6.7180  -12.6358 O   0  0  0  0  0  0  0  0  0  0  0  0
  2  5  1  0
  2  3  1  0
  2  1  1  1
  3  4  1  0
  5  6  2  0
  8  7  1  1
  8 10  1  0
  9  8  1  0
 10 12  1  0
 10 11  1  6
 11  5  1  0
 12 13  2  0
 12 20  1  0
 15 14  1  0
 16 15  2  0
 17 15  1  0
 18 17  1  0
 19 18  1  1
 20 19  1  0
 21 22  1  0
 21 19  1  0
 23 21  2  0
M  END
$$$$
