CVQ.pdb
     RDKit          3D

 23 22  0  0  1  0  0  0  0  0999 V2000
   17.8419  -12.6796  -16.3129 N   0  0  0  0  0  0  0  0  0  0  0  0
   19.0288  -11.9468  -15.9668 C   0  0  1  0  0  0  0  0  0  0  0  0
   19.9884  -11.9922  -17.1145 C   0  0  0  0  0  0  0  0  0  0  0  0
   20.7707  -13.6407  -17.1890 S   0  0  0  0  0  0  0  0  0  0  0  0
   18.6580  -10.5192  -15.7204 C   0  0  0  0  0  0  0  0  0  0  0  0
   18.1764   -9.8750  -16.6564 O   0  0  0  0  0  0  0  0  0  0  0  0
   18.1975   -9.4361  -11.7940 C   0  0  0  0  0  0  0  0  0  0  0  0
   17.5943   -8.5768  -12.8916 C   0  0  2  0  0  0  0  0  0  0  0  0
   16.3524   -9.3192  -13.3390 C   0  0  0  0  0  0  0  0  0  0  0  0
   18.5885   -8.5800  -14.0438 C   0  0  2  0  0  0  0  0  0  0  0  0
   18.8552   -9.9515  -14.4743 N   0  0  0  0  0  0  0  0  0  0  0  0
   19.8469   -7.8818  -13.7904 C   0  0  0  0  0  0  0  0  0  0  0  0
   20.8996   -8.6068  -13.5539 O   0  0  0  0  0  0  0  0  0  0  0  0
   24.3685   -5.3586  -16.5788 N   0  0  0  0  0  0  0  0  0  0  0  0
   23.0177   -5.5598  -16.9706 C   0  0  0  0  0  0  0  0  0  0  0  0
   22.7512   -5.2796  -18.1650 O   0  0  0  0  0  0  0  0  0  0  0  0
   21.9700   -6.0571  -16.0891 C   0  0  0  0  0  0  0  0  0  0  0  0
   22.3742   -6.4568  -14.7201 C   0  0  0  0  0  0  0  0  0  0  0  0
   21.4707   -5.9524  -13.6571 C   0  0  2  0  0  0  0  0  0  0  0  0
   20.1163   -6.5097  -13.7622 N   0  0  0  0  0  0  0  0  0  0  0  0
   21.4782   -4.4885  -13.5074 C   0  0  0  0  0  0  0  0  0  0  0  0
   22.6224   -3.8388  -13.1033 O   0  0  0  0  0  0  0  0  0  0  0  0
   20.4524   -3.8297  -13.7448 O   0  0  0  0  0  0  0  0  0  0  0  0
  2  5  1  0
  2  3  1  0
  2  1  1  6
  3  4  1  0
  5  6  2  0
  8  7  1  1
  8 10  1  0
  9  8  1  0
 10 12  1  0
 10 11  1  1
 11  5  1  0
 12 13  2  0
 12 20  1  0
 15 14  1  0
 16 15  2  0
 17 15  1  0
 18 17  1  0
 19 18  1  6
 20 19  1  0
 21 22  1  0
 21 19  1  0
 23 21  2  0
M  END
$$$$
