CVQ.pdb
     RDKit          3D

 23 22  0  0  1  0  0  0  0  0999 V2000
   17.8990  -12.6449  -15.4021 N   0  0  0  0  0  0  0  0  0  0  0  0
   17.3673  -11.3114  -15.3337 C   0  0  1  0  0  0  0  0  0  0  0  0
   15.8777  -11.3806  -15.2051 C   0  0  0  0  0  0  0  0  0  0  0  0
   15.1471  -11.8186  -16.8205 S   0  0  0  0  0  0  0  0  0  0  0  0
   17.9134  -10.6378  -14.1154 C   0  0  0  0  0  0  0  0  0  0  0  0
   18.0732  -11.3185  -13.0985 O   0  0  0  0  0  0  0  0  0  0  0  0
   21.1265   -8.6441  -13.9816 C   0  0  0  0  0  0  0  0  0  0  0  0
   19.9997   -7.6661  -13.6968 C   0  0  2  0  0  0  0  0  0  0  0  0
   20.5346   -6.7483  -12.6173 C   0  0  0  0  0  0  0  0  0  0  0  0
   18.8571   -8.4782  -13.1043 C   0  0  2  0  0  0  0  0  0  0  0  0
   18.2255   -9.2902  -14.1432 N   0  0  0  0  0  0  0  0  0  0  0  0
   17.8439   -7.7076  -12.3869 C   0  0  0  0  0  0  0  0  0  0  0  0
   17.0708   -6.9321  -13.0873 O   0  0  0  0  0  0  0  0  0  0  0  0
   13.7248   -8.8787   -8.0314 N   0  0  0  0  0  0  0  0  0  0  0  0
   13.7848   -7.4598   -7.9904 C   0  0  0  0  0  0  0  0  0  0  0  0
   12.8120   -6.8908   -7.4374 O   0  0  0  0  0  0  0  0  0  0  0  0
   14.8776   -6.6657   -8.5358 C   0  0  0  0  0  0  0  0  0  0  0  0
   16.0198   -7.4050   -9.1243 C   0  0  0  0  0  0  0  0  0  0  0  0
   16.4507   -6.8885  -10.4465 C   0  0  2  0  0  0  0  0  0  0  0  0
   17.5559   -7.6675  -11.0189 N   0  0  0  0  0  0  0  0  0  0  0  0
   16.6975   -5.4380  -10.4730 C   0  0  0  0  0  0  0  0  0  0  0  0
   15.7181   -4.5760  -10.9113 O   0  0  0  0  0  0  0  0  0  0  0  0
   17.7911   -4.9823  -10.1001 O   0  0  0  0  0  0  0  0  0  0  0  0
  2  5  1  0
  2  3  1  0
  2  1  1  1
  3  4  1  0
  5  6  2  0
  8  7  1  1
  8 10  1  0
  9  8  1  0
 10 12  1  0
 10 11  1  6
 11  5  1  0
 12 13  2  0
 12 20  1  0
 15 14  1  0
 16 15  2  0
 17 15  1  0
 18 17  1  0
 19 18  1  1
 20 19  1  0
 21 22  1  0
 21 19  1  0
 23 21  2  0
M  END
$$$$
