CVQ.pdb
     RDKit          3D

 23 22  0  0  1  0  0  0  0  0999 V2000
   25.1191  -20.4081   -9.0691 N   0  0  0  0  0  0  0  0  0  0  0  0
   24.5034  -20.9130  -10.2656 C   0  0  1  0  0  0  0  0  0  0  0  0
   23.0275  -20.6735  -10.1994 C   0  0  0  0  0  0  0  0  0  0  0  0
   22.3274  -21.5781   -8.7757 S   0  0  0  0  0  0  0  0  0  0  0  0
   25.0488  -20.1646  -11.4398 C   0  0  0  0  0  0  0  0  0  0  0  0
   25.2059  -18.9456  -11.3287 O   0  0  0  0  0  0  0  0  0  0  0  0
   28.2600  -20.8977  -12.9919 C   0  0  0  0  0  0  0  0  0  0  0  0
   27.2668  -21.1560  -14.1117 C   0  0  2  0  0  0  0  0  0  0  0  0
   27.9184  -20.5923  -15.3574 C   0  0  0  0  0  0  0  0  0  0  0  0
   26.0339  -20.3191  -13.8025 C   0  0  2  0  0  0  0  0  0  0  0  0
   25.3632  -20.8332  -12.6094 N   0  0  0  0  0  0  0  0  0  0  0  0
   25.0747  -20.1844  -14.8965 C   0  0  0  0  0  0  0  0  0  0  0  0
   24.4043  -21.2432  -15.2419 O   0  0  0  0  0  0  0  0  0  0  0  0
   19.8726  -17.1215  -16.0846 N   0  0  0  0  0  0  0  0  0  0  0  0
   21.1020  -16.4123  -16.1491 C   0  0  0  0  0  0  0  0  0  0  0  0
   21.0119  -15.1620  -16.0820 O   0  0  0  0  0  0  0  0  0  0  0  0
   22.4093  -17.0412  -16.2822 C   0  0  0  0  0  0  0  0  0  0  0  0
   22.4440  -18.5226  -16.3220 C   0  0  0  0  0  0  0  0  0  0  0  0
   23.7525  -19.0804  -16.7431 C   0  0  2  0  0  0  0  0  0  0  0  0
   24.7442  -19.0606  -15.6605 N   0  0  0  0  0  0  0  0  0  0  0  0
   24.2670  -18.5193  -18.0024 C   0  0  0  0  0  0  0  0  0  0  0  0
   25.4350  -17.7910  -18.0108 O   0  0  0  0  0  0  0  0  0  0  0  0
   23.6509  -18.6993  -19.0657 O   0  0  0  0  0  0  0  0  0  0  0  0
  2  5  1  0
  2  3  1  0
  2  1  1  1
  3  4  1  0
  5  6  2  0
  8  7  1  1
  8 10  1  0
  9  8  1  0
 10 12  1  0
 10 11  1  1
 11  5  1  0
 12 13  2  0
 12 20  1  0
 15 14  1  0
 16 15  2  0
 17 15  1  0
 18 17  1  0
 19 18  1  1
 20 19  1  0
 21 22  1  0
 21 19  1  0
 23 21  2  0
M  END
$$$$
