CVQ.pdb
     RDKit          3D

 23 22  0  0  1  0  0  0  0  0999 V2000
   23.4438  -14.8969  -18.7806 N   0  0  0  0  0  0  0  0  0  0  0  0
   23.3053  -13.4980  -19.0799 C   0  0  1  0  0  0  0  0  0  0  0  0
   21.9536  -13.2523  -19.6735 C   0  0  0  0  0  0  0  0  0  0  0  0
   21.7509  -11.4684  -20.0082 S   0  0  0  0  0  0  0  0  0  0  0  0
   23.4075  -12.7213  -17.8062 C   0  0  0  0  0  0  0  0  0  0  0  0
   22.8221  -13.1583  -16.8116 O   0  0  0  0  0  0  0  0  0  0  0  0
   26.4789  -11.7748  -15.9925 C   0  0  0  0  0  0  0  0  0  0  0  0
   25.8892  -10.4511  -16.4477 C   0  0  2  0  0  0  0  0  0  0  0  0
   26.0961   -9.5039  -15.2842 C   0  0  0  0  0  0  0  0  0  0  0  0
   24.3932  -10.6751  -16.6154 C   0  0  2  0  0  0  0  0  0  0  0  0
   24.1406  -11.5489  -17.7600 N   0  0  0  0  0  0  0  0  0  0  0  0
   23.5842   -9.4632  -16.7233 C   0  0  0  0  0  0  0  0  0  0  0  0
   23.8163   -8.6730  -17.7290 O   0  0  0  0  0  0  0  0  0  0  0  0
   17.4920   -8.3782  -16.4280 N   0  0  0  0  0  0  0  0  0  0  0  0
   18.4440   -9.0269  -17.2595 C   0  0  0  0  0  0  0  0  0  0  0  0
   17.9712   -9.8195  -18.1104 O   0  0  0  0  0  0  0  0  0  0  0  0
   19.8841   -8.8234  -17.1765 C   0  0  0  0  0  0  0  0  0  0  0  0
   20.3754   -7.9046  -16.1220 C   0  0  0  0  0  0  0  0  0  0  0  0
   21.8488   -7.7319  -16.1164 C   0  0  2  0  0  0  0  0  0  0  0  0
   22.5601   -8.9968  -15.8927 N   0  0  0  0  0  0  0  0  0  0  0  0
   22.3226   -6.6456  -15.2441 C   0  0  0  0  0  0  0  0  0  0  0  0
   21.9872   -5.3393  -15.5191 O   0  0  0  0  0  0  0  0  0  0  0  0
   23.0279   -6.9004  -14.2540 O   0  0  0  0  0  0  0  0  0  0  0  0
  2  5  1  0
  2  3  1  0
  2  1  1  1
  3  4  1  0
  5  6  2  0
  8  7  1  1
  8 10  1  0
  9  8  1  0
 10 12  1  0
 10 11  1  6
 11  5  1  0
 12 13  2  0
 12 20  1  0
 15 14  1  0
 16 15  2  0
 17 15  1  0
 18 17  1  0
 19 18  1  1
 20 19  1  0
 21 22  1  0
 21 19  1  0
 23 21  2  0
M  END
$$$$
