IRA.pdb
     RDKit          3D

 25 24  0  0  1  0  0  0  0  0999 V2000
   16.9551  -12.2753  -20.6813 C   0  0  0  0  0  0  0  0  0  0  0  0
   17.7372  -11.0691  -20.2962 C   0  0  0  0  0  0  0  0  0  0  0  0
   17.1538  -10.3322  -19.0755 C   0  0  2  0  0  0  0  0  0  0  0  0
   15.6997  -10.0670  -19.2651 C   0  0  0  0  0  0  0  0  0  0  0  0
   18.0200   -9.1440  -18.8449 C   0  0  2  0  0  0  0  0  0  0  0  0
   19.4026   -9.6185  -18.5997 N   0  0  0  0  0  0  0  0  0  0  0  0
   17.6628   -8.2464  -17.7660 C   0  0  0  0  0  0  0  0  0  0  0  0
   16.4942   -7.7550  -17.6958 O   0  0  0  0  0  0  0  0  0  0  0  0
   21.7269   -6.0587  -10.0520 N   0  0  0  0  0  0  0  0  0  0  0  0
   20.4565   -5.4363  -10.0766 C   0  0  0  0  0  0  0  0  0  0  0  0
   20.0430   -4.7602   -9.0609 N   0  0  0  0  0  0  0  0  0  0  0  0
   19.5567   -5.4908  -11.1800 N   0  0  0  0  0  0  0  0  0  0  0  0
   19.8305   -6.2819  -12.3340 C   0  0  0  0  0  0  0  0  0  0  0  0
   18.8571   -6.0152  -13.4733 C   0  0  0  0  0  0  0  0  0  0  0  0
   19.0462   -7.0355  -14.5603 C   0  0  0  0  0  0  0  0  0  0  0  0
   18.1855   -6.8131  -15.7525 C   0  0  2  0  0  0  0  0  0  0  0  0
   18.5529   -7.8621  -16.7444 N   0  0  0  0  0  0  0  0  0  0  0  0
   18.2171   -5.4916  -16.3652 C   0  0  0  0  0  0  0  0  0  0  0  0
   19.2238   -5.2253  -17.1044 O   0  0  0  0  0  0  0  0  0  0  0  0
   19.1780   -4.2256   -9.0044 C   0  0  0  0  0  0  0  0  0  0  0  0
   16.0658   -2.4448  -16.8728 C   0  0  1  0  0  0  0  0  0  0  0  0
   17.4132   -3.1364  -16.7591 N   0  0  0  0  0  0  0  0  0  0  0  0
   17.2561   -4.4719  -16.2376 C   0  0  0  0  0  0  0  0  0  0  0  0
   18.3230   -2.3014  -15.9024 O   0  0  0  0  0  0  0  0  0  0  0  0
   19.1221   -1.3099  -16.4010 O   0  0  0  0  0  0  0  0  0  0  0  0
  2  3  1  0
  2  1  1  0
  3  4  1  6
  5  7  1  0
  5  3  1  0
  5  6  1  1
  7  8  2  0
 10 12  1  0
 10  9  1  0
 11 10  2  0
 13 12  1  0
 13 14  1  0
 14 15  1  0
 16 15  1  1
 17 16  1  0
 17  7  1  0
 18 19  2  0
 18 16  1  0
 21 20  1  6
 21 23  1  0
 21 22  1  0
 22 18  1  0
 23 24  1  0
 25 23  2  0
M  END
$$$$
