IRA.pdb
     RDKit          3D

 25 24  0  0  1  0  0  0  0  0999 V2000
   24.2308  -20.1129   -8.5297 C   0  0  0  0  0  0  0  0  0  0  0  0
   24.8733  -21.0423   -9.4983 C   0  0  0  0  0  0  0  0  0  0  0  0
   24.8576  -20.5158  -10.9460 C   0  0  2  0  0  0  0  0  0  0  0  0
   23.4769  -20.1273  -11.3507 C   0  0  0  0  0  0  0  0  0  0  0  0
   25.5264  -21.5512  -11.7801 C   0  0  2  0  0  0  0  0  0  0  0  0
   26.8558  -21.8350  -11.1894 N   0  0  0  0  0  0  0  0  0  0  0  0
   25.7195  -21.2651  -13.1866 C   0  0  0  0  0  0  0  0  0  0  0  0
   26.5871  -20.4162  -13.5590 O   0  0  0  0  0  0  0  0  0  0  0  0
   28.6249  -24.8397  -17.1808 N   0  0  0  0  0  0  0  0  0  0  0  0
   27.9149  -25.9819  -16.7415 C   0  0  0  0  0  0  0  0  0  0  0  0
   28.5497  -27.0229  -16.3256 N   0  0  0  0  0  0  0  0  0  0  0  0
   26.4938  -26.0824  -16.7129 N   0  0  0  0  0  0  0  0  0  0  0  0
   25.6560  -24.9727  -17.0276 C   0  0  0  0  0  0  0  0  0  0  0  0
   25.8759  -23.7885  -16.0972 C   0  0  0  0  0  0  0  0  0  0  0  0
   24.9555  -22.6616  -16.4733 C   0  0  0  0  0  0  0  0  0  0  0  0
   25.1173  -21.4450  -15.6334 C   0  0  2  0  0  0  0  0  0  0  0  0
   24.9859  -21.8856  -14.2163 N   0  0  0  0  0  0  0  0  0  0  0  0
   24.2336  -20.3192  -15.9064 C   0  0  0  0  0  0  0  0  0  0  0  0
   23.0986  -20.3250  -15.3213 O   0  0  0  0  0  0  0  0  0  0  0  0
   28.1330  -27.8716  -15.9467 C   0  0  0  0  0  0  0  0  0  0  0  0
   24.2224  -16.9925  -17.6933 C   0  0  1  0  0  0  0  0  0  0  0  0
   23.5365  -18.1809  -17.0420 N   0  0  0  0  0  0  0  0  0  0  0  0
   24.4930  -19.2181  -16.7429 C   0  0  0  0  0  0  0  0  0  0  0  0
   22.4397  -18.6705  -17.9455 O   0  0  0  0  0  0  0  0  0  0  0  0
   21.1875  -18.1215  -17.9713 O   0  0  0  0  0  0  0  0  0  0  0  0
  2  3  1  0
  2  1  1  0
  3  4  1  6
  5  7  1  0
  5  3  1  0
  5  6  1  1
  7  8  2  0
 10 12  1  0
 10  9  1  0
 11 10  2  0
 13 12  1  0
 13 14  1  0
 14 15  1  0
 16 15  1  6
 17 16  1  0
 17  7  1  0
 18 19  2  0
 18 16  1  0
 21 20  1  1
 21 23  1  0
 21 22  1  0
 22 18  1  0
 23 24  1  0
 25 23  2  0
M  END
$$$$
