IRA.pdb
     RDKit          3D

 25 24  0  0  1  0  0  0  0  0999 V2000
   17.9221  -14.3107  -18.5334 C   0  0  0  0  0  0  0  0  0  0  0  0
   18.5641  -13.6985  -17.3384 C   0  0  0  0  0  0  0  0  0  0  0  0
   18.3327  -12.1788  -17.2372 C   0  0  2  0  0  0  0  0  0  0  0  0
   18.8217  -11.4882  -18.4639 C   0  0  0  0  0  0  0  0  0  0  0  0
   18.9345  -11.7443  -15.9471 C   0  0  2  0  0  0  0  0  0  0  0  0
   18.2529  -12.4704  -14.8495 N   0  0  0  0  0  0  0  0  0  0  0  0
   18.9038  -10.3319  -15.6287 C   0  0  0  0  0  0  0  0  0  0  0  0
   19.4539   -9.4849  -16.3983 O   0  0  0  0  0  0  0  0  0  0  0  0
   13.6936   -6.9481   -9.6989 N   0  0  0  0  0  0  0  0  0  0  0  0
   15.0991   -6.9802   -9.5394 C   0  0  0  0  0  0  0  0  0  0  0  0
   15.6207   -6.9826   -8.3615 N   0  0  0  0  0  0  0  0  0  0  0  0
   16.0292   -7.0174  -10.6183 N   0  0  0  0  0  0  0  0  0  0  0  0
   15.6723   -6.5952  -11.9324 C   0  0  0  0  0  0  0  0  0  0  0  0
   16.8287   -6.6983  -12.9166 C   0  0  0  0  0  0  0  0  0  0  0  0
   17.0628   -8.1362  -13.2856 C   0  0  0  0  0  0  0  0  0  0  0  0
   18.1555   -8.3346  -14.2748 C   0  0  2  0  0  0  0  0  0  0  0  0
   18.2816   -9.8048  -14.4804 N   0  0  0  0  0  0  0  0  0  0  0  0
   19.4521   -7.7445  -13.9691 C   0  0  0  0  0  0  0  0  0  0  0  0
   20.1024   -8.2586  -12.9978 O   0  0  0  0  0  0  0  0  0  0  0  0
   16.6152   -7.0062   -8.1427 C   0  0  0  0  0  0  0  0  0  0  0  0
   21.9464   -5.3434  -15.4457 C   0  0  1  0  0  0  0  0  0  0  0  0
   21.3771   -6.1514  -14.2926 N   0  0  0  0  0  0  0  0  0  0  0  0
   20.0740   -6.6693  -14.6300 C   0  0  0  0  0  0  0  0  0  0  0  0
   21.3387   -5.2903  -13.0614 O   0  0  0  0  0  0  0  0  0  0  0  0
   22.4492   -4.9862  -12.3234 O   0  0  0  0  0  0  0  0  0  0  0  0
  2  3  1  0
  2  1  1  0
  3  4  1  6
  5  7  1  0
  5  3  1  0
  5  6  1  1
  7  8  2  0
 10 12  1  0
 10  9  1  0
 11 10  2  0
 13 12  1  0
 13 14  1  0
 14 15  1  0
 16 15  1  1
 17 16  1  0
 17  7  1  0
 18 19  2  0
 18 16  1  0
 21 20  1  6
 21 23  1  0
 21 22  1  0
 22 18  1  0
 23 24  1  0
 25 23  2  0
M  END
$$$$
