IRA.pdb
     RDKit          3D

 25 24  0  0  1  0  0  0  0  0999 V2000
   23.2683  -17.7813  -20.8381 C   0  0  0  0  0  0  0  0  0  0  0  0
   22.8614  -17.4755  -19.4397 C   0  0  0  0  0  0  0  0  0  0  0  0
   23.1898  -18.6100  -18.4505 C   0  0  2  0  0  0  0  0  0  0  0  0
   22.5879  -19.8957  -18.9041 C   0  0  0  0  0  0  0  0  0  0  0  0
   22.7837  -18.1268  -17.1026 C   0  0  2  0  0  0  0  0  0  0  0  0
   23.6405  -16.9710  -16.7467 N   0  0  0  0  0  0  0  0  0  0  0  0
   22.8332  -19.0688  -16.0037 C   0  0  0  0  0  0  0  0  0  0  0  0
   23.9117  -19.2520  -15.3591 O   0  0  0  0  0  0  0  0  0  0  0  0
   19.2885  -25.0538  -13.1700 N   0  0  0  0  0  0  0  0  0  0  0  0
   19.0453  -24.6843  -11.8261 C   0  0  0  0  0  0  0  0  0  0  0  0
   18.8607  -25.5872  -10.9259 N   0  0  0  0  0  0  0  0  0  0  0  0
   18.9900  -23.3388  -11.3606 N   0  0  0  0  0  0  0  0  0  0  0  0
   19.1405  -22.2312  -12.2454 C   0  0  0  0  0  0  0  0  0  0  0  0
   20.5096  -22.1916  -12.9091 C   0  0  0  0  0  0  0  0  0  0  0  0
   20.5888  -21.0263  -13.8549 C   0  0  0  0  0  0  0  0  0  0  0  0
   21.8801  -20.9302  -14.5864 C   0  0  2  0  0  0  0  0  0  0  0  0
   21.7266  -19.8287  -15.5777 N   0  0  0  0  0  0  0  0  0  0  0  0
   22.3766  -22.1382  -15.2321 C   0  0  0  0  0  0  0  0  0  0  0  0
   21.7104  -22.5700  -16.2324 O   0  0  0  0  0  0  0  0  0  0  0  0
   18.6697  -25.4240   -9.9388 C   0  0  0  0  0  0  0  0  0  0  0  0
   25.3112  -24.5195  -15.0589 C   0  0  1  0  0  0  0  0  0  0  0  0
   23.9408  -24.0875  -15.5509 N   0  0  0  0  0  0  0  0  0  0  0  0
   23.5160  -22.8841  -14.8789 C   0  0  0  0  0  0  0  0  0  0  0  0
   22.9690  -25.2164  -15.3511 O   0  0  0  0  0  0  0  0  0  0  0  0
   23.0636  -26.4129  -16.0066 O   0  0  0  0  0  0  0  0  0  0  0  0
  2  3  1  0
  2  1  1  0
  3  4  1  6
  5  7  1  0
  5  3  1  0
  5  6  1  1
  7  8  2  0
 10 12  1  0
 10  9  1  0
 11 10  2  0
 13 12  1  0
 13 14  1  0
 14 15  1  0
 16 15  1  6
 17 16  1  0
 17  7  1  0
 18 19  2  0
 18 16  1  0
 21 20  1  6
 21 23  1  0
 21 22  1  0
 22 18  1  0
 23 24  1  0
 25 23  2  0
M  END
$$$$
