IRA.pdb
     RDKit          3D

 25 24  0  0  1  0  0  0  0  0999 V2000
   18.5968  -16.9162  -19.4915 C   0  0  0  0  0  0  0  0  0  0  0  0
   18.9944  -17.8264  -18.3832 C   0  0  0  0  0  0  0  0  0  0  0  0
   20.2874  -17.3859  -17.6708 C   0  0  2  0  0  0  0  0  0  0  0  0
   21.4514  -17.4583  -18.5986 C   0  0  0  0  0  0  0  0  0  0  0  0
   20.3809  -18.1953  -16.4252 C   0  0  2  0  0  0  0  0  0  0  0  0
   19.2255  -17.8534  -15.5621 N   0  0  0  0  0  0  0  0  0  0  0  0
   21.5822  -18.0696  -15.6261 C   0  0  0  0  0  0  0  0  0  0  0  0
   21.7399  -17.0772  -14.8500 O   0  0  0  0  0  0  0  0  0  0  0  0
   26.8780  -20.7840   -9.9630 N   0  0  0  0  0  0  0  0  0  0  0  0
   25.5105  -21.0779  -10.1759 C   0  0  0  0  0  0  0  0  0  0  0  0
   24.6917  -21.1219   -9.1823 N   0  0  0  0  0  0  0  0  0  0  0  0
   24.9338  -21.3356  -11.4531 N   0  0  0  0  0  0  0  0  0  0  0  0
   25.7038  -21.2730  -12.6513 C   0  0  0  0  0  0  0  0  0  0  0  0
   25.5051  -19.9683  -13.4095 C   0  0  0  0  0  0  0  0  0  0  0  0
   24.1605  -19.9638  -14.0809 C   0  0  0  0  0  0  0  0  0  0  0  0
   23.9059  -18.7575  -14.9125 C   0  0  2  0  0  0  0  0  0  0  0  0
   22.6332  -19.0069  -15.6457 N   0  0  0  0  0  0  0  0  0  0  0  0
   24.9570  -18.3429  -15.8322 C   0  0  0  0  0  0  0  0  0  0  0  0
   25.1983  -19.1201  -16.8164 O   0  0  0  0  0  0  0  0  0  0  0  0
   23.6891  -21.2938   -9.2345 C   0  0  0  0  0  0  0  0  0  0  0  0
   27.4853  -15.5585  -16.2734 C   0  0  1  0  0  0  0  0  0  0  0  0
   26.7721  -16.8284  -16.7040 N   0  0  0  0  0  0  0  0  0  0  0  0
   25.7372  -17.1743  -15.7608 C   0  0  0  0  0  0  0  0  0  0  0  0
   27.7824  -17.9301  -16.8599 O   0  0  0  0  0  0  0  0  0  0  0  0
   28.5344  -18.1045  -17.9887 O   0  0  0  0  0  0  0  0  0  0  0  0
  2  3  1  0
  2  1  1  0
  3  4  1  6
  5  7  1  0
  5  3  1  0
  5  6  1  1
  7  8  2  0
 10 12  1  0
 10  9  1  0
 11 10  2  0
 13 12  1  0
 13 14  1  0
 14 15  1  0
 16 15  1  6
 17 16  1  0
 17  7  1  0
 18 19  2  0
 18 16  1  0
 21 20  1  6
 21 23  1  0
 21 22  1  0
 22 18  1  0
 23 24  1  0
 25 23  2  0
M  END
$$$$
