IRA.pdb
     RDKit          3D

 25 24  0  0  1  0  0  0  0  0999 V2000
   28.7986  -18.9149   -6.6409 C   0  0  0  0  0  0  0  0  0  0  0  0
   27.7993  -19.7227   -7.3917 C   0  0  0  0  0  0  0  0  0  0  0  0
   26.3630  -19.5583   -6.8594 C   0  0  2  0  0  0  0  0  0  0  0  0
   26.3027  -19.8643   -5.4021 C   0  0  0  0  0  0  0  0  0  0  0  0
   25.4877  -20.3738   -7.7450 C   0  0  2  0  0  0  0  0  0  0  0  0
   25.9056  -21.7913   -7.6322 N   0  0  0  0  0  0  0  0  0  0  0  0
   25.4471  -20.0354   -9.1525 C   0  0  0  0  0  0  0  0  0  0  0  0
   24.8901  -18.9631   -9.5424 O   0  0  0  0  0  0  0  0  0  0  0  0
   28.9180  -22.9786  -16.3004 N   0  0  0  0  0  0  0  0  0  0  0  0
   28.0643  -21.9558  -16.7767 C   0  0  0  0  0  0  0  0  0  0  0  0
   27.6037  -21.9995  -17.9790 N   0  0  0  0  0  0  0  0  0  0  0  0
   27.6467  -20.8336  -16.0042 N   0  0  0  0  0  0  0  0  0  0  0  0
   27.8973  -20.7512  -14.6032 C   0  0  0  0  0  0  0  0  0  0  0  0
   26.7750  -21.3529  -13.7695 C   0  0  0  0  0  0  0  0  0  0  0  0
   27.0193  -21.0872  -12.3107 C   0  0  0  0  0  0  0  0  0  0  0  0
   25.8563  -20.4873  -11.6041 C   0  0  2  0  0  0  0  0  0  0  0  0
   26.0043  -20.8410  -10.1645 N   0  0  0  0  0  0  0  0  0  0  0  0
   24.5262  -20.8362  -12.0856 C   0  0  0  0  0  0  0  0  0  0  0  0
   24.0360  -21.9397  -11.6698 O   0  0  0  0  0  0  0  0  0  0  0  0
   27.0046  -21.3042  -18.4207 C   0  0  0  0  0  0  0  0  0  0  0  0
   21.3287  -20.0024  -12.4782 C   0  0  1  0  0  0  0  0  0  0  0  0
   22.4122  -20.5059  -13.4160 N   0  0  0  0  0  0  0  0  0  0  0  0
   23.7145  -20.0883  -12.9581 C   0  0  0  0  0  0  0  0  0  0  0  0
   22.1222  -20.0184  -14.8079 O   0  0  0  0  0  0  0  0  0  0  0  0
   21.0082  -20.3813  -15.5132 O   0  0  0  0  0  0  0  0  0  0  0  0
  2  3  1  0
  2  1  1  0
  3  4  1  1
  5  7  1  0
  5  3  1  0
  5  6  1  6
  7  8  2  0
 10 12  1  0
 10  9  1  0
 11 10  2  0
 13 12  1  0
 13 14  1  0
 14 15  1  0
 16 15  1  6
 17 16  1  0
 17  7  1  0
 18 19  2  0
 18 16  1  0
 21 20  1  1
 21 23  1  0
 21 22  1  0
 22 18  1  0
 23 24  1  0
 25 23  2  0
M  END
$$$$
