IRA.pdb
     RDKit          3D

 25 24  0  0  1  0  0  0  0  0999 V2000
   23.5137  -20.2023   -7.3584 C   0  0  0  0  0  0  0  0  0  0  0  0
   24.5056  -20.7646   -8.3147 C   0  0  0  0  0  0  0  0  0  0  0  0
   24.3868  -20.1704   -9.7311 C   0  0  2  0  0  0  0  0  0  0  0  0
   22.9716  -20.1976  -10.1973 C   0  0  0  0  0  0  0  0  0  0  0  0
   25.3774  -20.8910  -10.5766 C   0  0  2  0  0  0  0  0  0  0  0  0
   26.7262  -20.6653  -10.0053 N   0  0  0  0  0  0  0  0  0  0  0  0
   25.4326  -20.5587  -11.9851 C   0  0  0  0  0  0  0  0  0  0  0  0
   25.9759  -19.4784  -12.3722 O   0  0  0  0  0  0  0  0  0  0  0  0
   28.4790  -22.6565  -18.3081 N   0  0  0  0  0  0  0  0  0  0  0  0
   28.0451  -23.5581  -17.3078 C   0  0  0  0  0  0  0  0  0  0  0  0
   28.8923  -24.3192  -16.7056 N   0  0  0  0  0  0  0  0  0  0  0  0
   26.6914  -23.6991  -16.8862 N   0  0  0  0  0  0  0  0  0  0  0  0
   25.6288  -22.9947  -17.5242 C   0  0  0  0  0  0  0  0  0  0  0  0
   25.1819  -21.7696  -16.7394 C   0  0  0  0  0  0  0  0  0  0  0  0
   25.2800  -22.0403  -15.2644 C   0  0  0  0  0  0  0  0  0  0  0  0
   24.8260  -20.9091  -14.4123 C   0  0  2  0  0  0  0  0  0  0  0  0
   24.9069  -21.3801  -13.0012 N   0  0  0  0  0  0  0  0  0  0  0  0
   23.5125  -20.3440  -14.6918 C   0  0  0  0  0  0  0  0  0  0  0  0
   22.5033  -20.9925  -14.2538 O   0  0  0  0  0  0  0  0  0  0  0  0
   28.6806  -24.9980  -15.9764 C   0  0  0  0  0  0  0  0  0  0  0  0
   21.9578  -17.3033  -16.3288 C   0  0  1  0  0  0  0  0  0  0  0  0
   21.8999  -18.6478  -15.6247 N   0  0  0  0  0  0  0  0  0  0  0  0
   23.2291  -19.1556  -15.3895 C   0  0  0  0  0  0  0  0  0  0  0  0
   21.0721  -19.5966  -16.4454 O   0  0  0  0  0  0  0  0  0  0  0  0
   19.7072  -19.6508  -16.3805 O   0  0  0  0  0  0  0  0  0  0  0  0
  2  3  1  0
  2  1  1  0
  3  4  1  6
  5  7  1  0
  5  3  1  0
  5  6  1  1
  7  8  2  0
 10 12  1  0
 10  9  1  0
 11 10  2  0
 13 12  1  0
 13 14  1  0
 14 15  1  0
 16 15  1  6
 17 16  1  0
 17  7  1  0
 18 19  2  0
 18 16  1  0
 21 20  1  1
 21 23  1  0
 21 22  1  0
 22 18  1  0
 23 24  1  0
 25 23  2  0
M  END
$$$$
