IRA.pdb
     RDKit          3D

 25 24  0  0  1  0  0  0  0  0999 V2000
   21.4177  -25.4003  -18.9247 C   0  0  0  0  0  0  0  0  0  0  0  0
   21.4723  -24.6792  -17.6240 C   0  0  0  0  0  0  0  0  0  0  0  0
   21.1886  -25.5891  -16.4136 C   0  0  2  0  0  0  0  0  0  0  0  0
   19.8002  -26.1274  -16.4727 C   0  0  0  0  0  0  0  0  0  0  0  0
   21.5439  -24.8029  -15.2008 C   0  0  2  0  0  0  0  0  0  0  0  0
   23.0017  -24.5372  -15.2309 N   0  0  0  0  0  0  0  0  0  0  0  0
   21.2251  -25.3730  -13.9083 C   0  0  0  0  0  0  0  0  0  0  0  0
   22.0175  -26.1947  -13.3524 O   0  0  0  0  0  0  0  0  0  0  0  0
   17.3111  -26.1658   -7.1082 N   0  0  0  0  0  0  0  0  0  0  0  0
   18.0281  -25.0048   -6.7342 C   0  0  0  0  0  0  0  0  0  0  0  0
   18.4554  -24.8642   -5.5270 N   0  0  0  0  0  0  0  0  0  0  0  0
   18.3371  -23.9318   -7.6193 N   0  0  0  0  0  0  0  0  0  0  0  0
   17.9185  -23.9381   -8.9821 C   0  0  0  0  0  0  0  0  0  0  0  0
   18.5031  -25.1013   -9.7706 C   0  0  0  0  0  0  0  0  0  0  0  0
   19.1310  -24.5979  -11.0398 C   0  0  0  0  0  0  0  0  0  0  0  0
   19.7943  -25.6572  -11.8457 C   0  0  2  0  0  0  0  0  0  0  0  0
   20.0517  -25.0703  -13.1906 N   0  0  0  0  0  0  0  0  0  0  0  0
   19.1085  -26.9371  -11.9653 C   0  0  0  0  0  0  0  0  0  0  0  0
   18.1010  -26.9778  -12.7489 O   0  0  0  0  0  0  0  0  0  0  0  0
   18.9996  -24.0819   -5.1675 C   0  0  0  0  0  0  0  0  0  0  0  0
   19.6591  -30.5652  -11.2569 C   0  0  1  0  0  0  0  0  0  0  0  0
   18.7348  -29.3866  -11.5088 N   0  0  0  0  0  0  0  0  0  0  0  0
   19.4357  -28.1411  -11.3150 C   0  0  0  0  0  0  0  0  0  0  0  0
   17.5352  -29.5028  -10.6107 O   0  0  0  0  0  0  0  0  0  0  0  0
   16.5581  -30.4440  -10.7819 O   0  0  0  0  0  0  0  0  0  0  0  0
  2  3  1  0
  2  1  1  0
  3  4  1  1
  5  7  1  0
  5  3  1  0
  5  6  1  1
  7  8  2  0
 10 12  1  0
 10  9  1  0
 11 10  2  0
 13 12  1  0
 13 14  1  0
 14 15  1  0
 16 15  1  1
 17 16  1  0
 17  7  1  0
 18 19  2  0
 18 16  1  0
 21 20  1  6
 21 23  1  0
 21 22  1  0
 22 18  1  0
 23 24  1  0
 25 23  2  0
M  END
$$$$
