IRA.pdb
     RDKit          3D

 25 24  0  0  1  0  0  0  0  0999 V2000
   30.1833  -20.7729  -19.0909 C   0  0  0  0  0  0  0  0  0  0  0  0
   29.8589  -21.5199  -17.8453 C   0  0  0  0  0  0  0  0  0  0  0  0
   28.3459  -21.6129  -17.5704 C   0  0  2  0  0  0  0  0  0  0  0  0
   27.7170  -20.2628  -17.6206 C   0  0  0  0  0  0  0  0  0  0  0  0
   28.1929  -22.3687  -16.2973 C   0  0  2  0  0  0  0  0  0  0  0  0
   28.7162  -23.7395  -16.5060 N   0  0  0  0  0  0  0  0  0  0  0  0
   26.8632  -22.4838  -15.7353 C   0  0  0  0  0  0  0  0  0  0  0  0
   26.0198  -23.2915  -16.2338 O   0  0  0  0  0  0  0  0  0  0  0  0
   22.0706  -18.7985   -9.9049 N   0  0  0  0  0  0  0  0  0  0  0  0
   21.7592  -20.1381   -9.5727 C   0  0  0  0  0  0  0  0  0  0  0  0
   20.6488  -20.4217   -8.9845 N   0  0  0  0  0  0  0  0  0  0  0  0
   22.6039  -21.2516   -9.8504 N   0  0  0  0  0  0  0  0  0  0  0  0
   23.8272  -21.1057  -10.5679 C   0  0  0  0  0  0  0  0  0  0  0  0
   23.6891  -21.4590  -12.0419 C   0  0  0  0  0  0  0  0  0  0  0  0
   25.0353  -21.4171  -12.7086 C   0  0  0  0  0  0  0  0  0  0  0  0
   25.0172  -21.8499  -14.1313 C   0  0  2  0  0  0  0  0  0  0  0  0
   26.4169  -21.7355  -14.6288 N   0  0  0  0  0  0  0  0  0  0  0  0
   24.0947  -21.1666  -15.0284 C   0  0  0  0  0  0  0  0  0  0  0  0
   24.3648  -19.9514  -15.3133 O   0  0  0  0  0  0  0  0  0  0  0  0
   20.3331  -21.3497   -8.7077 C   0  0  0  0  0  0  0  0  0  0  0  0
   21.6130  -21.7864  -17.6656 C   0  0  1  0  0  0  0  0  0  0  0  0
   22.0403  -20.9513  -16.4711 N   0  0  0  0  0  0  0  0  0  0  0  0
   22.9361  -21.6989  -15.6232 C   0  0  0  0  0  0  0  0  0  0  0  0
   20.8161  -20.4921  -15.7299 O   0  0  0  0  0  0  0  0  0  0  0  0
   19.9594  -19.5415  -16.2122 O   0  0  0  0  0  0  0  0  0  0  0  0
  2  3  1  0
  2  1  1  0
  3  4  1  1
  5  7  1  0
  5  3  1  0
  5  6  1  6
  7  8  2  0
 10 12  1  0
 10  9  1  0
 11 10  2  0
 13 12  1  0
 13 14  1  0
 14 15  1  0
 16 15  1  1
 17 16  1  0
 17  7  1  0
 18 19  2  0
 18 16  1  0
 21 20  1  6
 21 23  1  0
 21 22  1  0
 22 18  1  0
 23 24  1  0
 25 23  2  0
M  END
$$$$
