IRA.pdb
     RDKit          3D

 25 24  0  0  1  0  0  0  0  0999 V2000
   18.8874  -25.7166  -13.9061 C   0  0  0  0  0  0  0  0  0  0  0  0
   18.5917  -24.5066  -13.0918 C   0  0  0  0  0  0  0  0  0  0  0  0
   18.5750  -24.7844  -11.5766 C   0  0  2  0  0  0  0  0  0  0  0  0
   17.6190  -25.8807  -11.2521 C   0  0  0  0  0  0  0  0  0  0  0  0
   18.3346  -23.4759  -10.9092 C   0  0  2  0  0  0  0  0  0  0  0  0
   19.5014  -22.6003  -11.1713 N   0  0  0  0  0  0  0  0  0  0  0  0
   18.0966  -23.4794   -9.4807 C   0  0  0  0  0  0  0  0  0  0  0  0
   19.0474  -23.2623   -8.6677 O   0  0  0  0  0  0  0  0  0  0  0  0
   12.8995  -23.6933   -2.8357 N   0  0  0  0  0  0  0  0  0  0  0  0
   12.8466  -22.3411   -3.2485 C   0  0  0  0  0  0  0  0  0  0  0  0
   12.5240  -21.4169   -2.4110 N   0  0  0  0  0  0  0  0  0  0  0  0
   13.1383  -21.8924   -4.5691 N   0  0  0  0  0  0  0  0  0  0  0  0
   13.3637  -22.8061   -5.6400 C   0  0  0  0  0  0  0  0  0  0  0  0
   14.8223  -23.2249   -5.7574 C   0  0  0  0  0  0  0  0  0  0  0  0
   15.2603  -23.1643   -7.1936 C   0  0  0  0  0  0  0  0  0  0  0  0
   16.6406  -23.6674   -7.4248 C   0  0  2  0  0  0  0  0  0  0  0  0
   16.8347  -23.7147   -8.9011 N   0  0  0  0  0  0  0  0  0  0  0  0
   17.0003  -24.9419   -6.8172 C   0  0  0  0  0  0  0  0  0  0  0  0
   16.5865  -25.9963   -7.4070 O   0  0  0  0  0  0  0  0  0  0  0  0
   12.4274  -20.4240   -2.6166 C   0  0  0  0  0  0  0  0  0  0  0  0
   18.7679  -26.2828   -3.7489 C   0  0  1  0  0  0  0  0  0  0  0  0
   18.0242  -26.4345   -5.0645 N   0  0  0  0  0  0  0  0  0  0  0  0
   17.7602  -25.1433   -5.6504 C   0  0  0  0  0  0  0  0  0  0  0  0
   16.7610  -27.2136   -4.8275 O   0  0  0  0  0  0  0  0  0  0  0  0
   15.5884  -26.6373   -4.4240 O   0  0  0  0  0  0  0  0  0  0  0  0
  2  3  1  0
  2  1  1  0
  3  4  1  6
  5  7  1  0
  5  3  1  0
  5  6  1  1
  7  8  2  0
 10 12  1  0
 10  9  1  0
 11 10  2  0
 13 12  1  0
 13 14  1  0
 14 15  1  0
 16 15  1  6
 17 16  1  0
 17  7  1  0
 18 19  2  0
 18 16  1  0
 21 20  1  6
 21 23  1  0
 21 22  1  0
 22 18  1  0
 23 24  1  0
 25 23  2  0
M  END
$$$$
