IRA.pdb
     RDKit          3D

 25 24  0  0  1  0  0  0  0  0999 V2000
   29.5772  -19.1560   -4.4201 C   0  0  0  0  0  0  0  0  0  0  0  0
   28.1172  -19.0430   -4.6855 C   0  0  0  0  0  0  0  0  0  0  0  0
   27.5814  -20.1515   -5.6114 C   0  0  2  0  0  0  0  0  0  0  0  0
   28.3504  -21.4139   -5.4223 C   0  0  0  0  0  0  0  0  0  0  0  0
   27.5672  -19.5835   -6.9871 C   0  0  2  0  0  0  0  0  0  0  0  0
   26.6888  -18.3897   -6.9869 N   0  0  0  0  0  0  0  0  0  0  0  0
   27.1413  -20.4456   -8.0700 C   0  0  0  0  0  0  0  0  0  0  0  0
   27.7639  -21.5237   -8.3193 O   0  0  0  0  0  0  0  0  0  0  0  0
   21.6217  -20.5288  -13.9313 N   0  0  0  0  0  0  0  0  0  0  0  0
   21.4523  -21.5494  -12.9662 C   0  0  0  0  0  0  0  0  0  0  0  0
   20.9805  -22.6980  -13.3092 N   0  0  0  0  0  0  0  0  0  0  0  0
   21.7788  -21.4118  -11.5860 N   0  0  0  0  0  0  0  0  0  0  0  0
   22.1158  -20.1491  -11.0163 C   0  0  0  0  0  0  0  0  0  0  0  0
   23.6189  -19.9384  -10.9031 C   0  0  0  0  0  0  0  0  0  0  0  0
   24.2464  -21.0936  -10.1748 C   0  0  0  0  0  0  0  0  0  0  0  0
   25.7288  -21.0163  -10.0852 C   0  0  2  0  0  0  0  0  0  0  0  0
   26.0400  -20.1661   -8.9021 N   0  0  0  0  0  0  0  0  0  0  0  0
   26.4481  -20.5449  -11.2613 C   0  0  0  0  0  0  0  0  0  0  0  0
   26.4674  -19.2828  -11.4550 O   0  0  0  0  0  0  0  0  0  0  0  0
   20.8168  -23.4913  -12.6916 C   0  0  0  0  0  0  0  0  0  0  0  0
   28.8578  -21.7836  -13.8658 C   0  0  1  0  0  0  0  0  0  0  0  0
   27.8249  -20.7933  -13.3567 N   0  0  0  0  0  0  0  0  0  0  0  0
   27.1314  -21.3271  -12.2104 C   0  0  0  0  0  0  0  0  0  0  0  0
   26.8816  -20.4493  -14.4751 O   0  0  0  0  0  0  0  0  0  0  0  0
   27.2058  -19.5982  -15.4952 O   0  0  0  0  0  0  0  0  0  0  0  0
  2  3  1  0
  2  1  1  0
  3  4  1  6
  5  7  1  0
  5  3  1  0
  5  6  1  1
  7  8  2  0
 10 12  1  0
 10  9  1  0
 11 10  2  0
 13 12  1  0
 13 14  1  0
 14 15  1  0
 16 15  1  6
 17 16  1  0
 17  7  1  0
 18 19  2  0
 18 16  1  0
 21 20  1  1
 21 23  1  0
 21 22  1  0
 22 18  1  0
 23 24  1  0
 25 23  2  0
M  END
$$$$
