IRA.pdb
     RDKit          3D

 25 24  0  0  1  0  0  0  0  0999 V2000
   29.0603  -20.0971   -7.5809 C   0  0  0  0  0  0  0  0  0  0  0  0
   28.2246  -20.9331   -8.4852 C   0  0  0  0  0  0  0  0  0  0  0  0
   26.9582  -20.2099   -8.9817 C   0  0  2  0  0  0  0  0  0  0  0  0
   26.1490  -19.7149   -7.8323 C   0  0  0  0  0  0  0  0  0  0  0  0
   26.2770  -21.1447   -9.9184 C   0  0  2  0  0  0  0  0  0  0  0  0
   27.2653  -21.5907  -10.9289 N   0  0  0  0  0  0  0  0  0  0  0  0
   25.1092  -20.6614  -10.6255 C   0  0  0  0  0  0  0  0  0  0  0  0
   24.0746  -20.2948   -9.9873 O   0  0  0  0  0  0  0  0  0  0  0  0
   23.7244  -19.2259  -19.4033 N   0  0  0  0  0  0  0  0  0  0  0  0
   22.5431  -18.8504  -18.7211 C   0  0  0  0  0  0  0  0  0  0  0  0
   21.5462  -18.3554  -19.3697 N   0  0  0  0  0  0  0  0  0  0  0  0
   22.3505  -18.9839  -17.3157 N   0  0  0  0  0  0  0  0  0  0  0  0
   23.3720  -19.4954  -16.4628 C   0  0  0  0  0  0  0  0  0  0  0  0
   22.9816  -19.4596  -14.9922 C   0  0  0  0  0  0  0  0  0  0  0  0
   24.1346  -19.9160  -14.1431 C   0  0  0  0  0  0  0  0  0  0  0  0
   23.7983  -20.0715  -12.7028 C   0  0  2  0  0  0  0  0  0  0  0  0
   25.0326  -20.5624  -12.0283 N   0  0  0  0  0  0  0  0  0  0  0  0
   22.6585  -20.9148  -12.3676 C   0  0  0  0  0  0  0  0  0  0  0  0
   22.8424  -22.1774  -12.4223 O   0  0  0  0  0  0  0  0  0  0  0  0
   20.6570  -18.0572  -18.9725 C   0  0  0  0  0  0  0  0  0  0  0  0
   19.4557  -20.8397  -10.5224 C   0  0  1  0  0  0  0  0  0  0  0  0
   20.2825  -21.3852  -11.6738 N   0  0  0  0  0  0  0  0  0  0  0  0
   21.3723  -20.4929  -11.9838 C   0  0  0  0  0  0  0  0  0  0  0  0
   19.3856  -21.6108  -12.8586 O   0  0  0  0  0  0  0  0  0  0  0  0
   18.4074  -22.5659  -12.8882 O   0  0  0  0  0  0  0  0  0  0  0  0
  2  3  1  0
  2  1  1  0
  3  4  1  1
  5  7  1  0
  5  3  1  0
  5  6  1  6
  7  8  2  0
 10 12  1  0
 10  9  1  0
 11 10  2  0
 13 12  1  0
 13 14  1  0
 14 15  1  0
 16 15  1  6
 17 16  1  0
 17  7  1  0
 18 19  2  0
 18 16  1  0
 21 20  1  1
 21 23  1  0
 21 22  1  0
 22 18  1  0
 23 24  1  0
 25 23  2  0
M  END
$$$$
