IRA.pdb
     RDKit          3D

 25 24  0  0  1  0  0  0  0  0999 V2000
   27.5778  -20.1171   -7.0215 C   0  0  0  0  0  0  0  0  0  0  0  0
   26.5969  -20.7295   -7.9583 C   0  0  0  0  0  0  0  0  0  0  0  0
   26.2224  -19.8063   -9.1334 C   0  0  2  0  0  0  0  0  0  0  0  0
   25.5807  -18.5559   -8.6377 C   0  0  0  0  0  0  0  0  0  0  0  0
   25.4240  -20.6306  -10.0812 C   0  0  2  0  0  0  0  0  0  0  0  0
   25.8663  -22.0397   -9.9567 N   0  0  0  0  0  0  0  0  0  0  0  0
   25.4650  -20.2768  -11.4849 C   0  0  0  0  0  0  0  0  0  0  0  0
   24.9768  -19.1759  -11.8872 O   0  0  0  0  0  0  0  0  0  0  0  0
   30.0829  -23.9451  -16.0377 N   0  0  0  0  0  0  0  0  0  0  0  0
   29.4012  -23.5352  -17.2078 C   0  0  0  0  0  0  0  0  0  0  0  0
   29.1841  -24.3729  -18.1620 N   0  0  0  0  0  0  0  0  0  0  0  0
   28.9069  -22.2172  -17.4292 N   0  0  0  0  0  0  0  0  0  0  0  0
   28.9017  -21.2338  -16.3970 C   0  0  0  0  0  0  0  0  0  0  0  0
   27.4961  -20.8654  -15.9441 C   0  0  0  0  0  0  0  0  0  0  0  0
   27.3441  -21.1308  -14.4727 C   0  0  0  0  0  0  0  0  0  0  0  0
   26.0421  -20.6829  -13.9106 C   0  0  2  0  0  0  0  0  0  0  0  0
   26.0313  -21.0973  -12.4796 N   0  0  0  0  0  0  0  0  0  0  0  0
   24.8309  -21.1306  -14.5852 C   0  0  0  0  0  0  0  0  0  0  0  0
   24.4825  -22.3443  -14.3946 O   0  0  0  0  0  0  0  0  0  0  0  0
   28.6635  -24.1898  -19.0181 C   0  0  0  0  0  0  0  0  0  0  0  0
   22.9563  -22.2339  -16.5994 C   0  0  2  0  0  0  0  0  0  0  0  0
   22.7617  -20.8538  -15.9959 N   0  0  0  0  0  0  0  0  0  0  0  0
   23.9946  -20.3712  -15.4239 C   0  0  0  0  0  0  0  0  0  0  0  0
   21.6556  -20.9136  -14.9800 O   0  0  0  0  0  0  0  0  0  0  0  0
   20.3720  -21.2707  -15.2883 O   0  0  0  0  0  0  0  0  0  0  0  0
  2  3  1  0
  2  1  1  0
  3  4  1  1
  5  7  1  0
  5  3  1  0
  5  6  1  6
  7  8  2  0
 10 12  1  0
 10  9  1  0
 11 10  2  0
 13 12  1  0
 13 14  1  0
 14 15  1  0
 16 15  1  6
 17 16  1  0
 17  7  1  0
 18 19  2  0
 18 16  1  0
 21 20  1  6
 21 23  1  0
 21 22  1  0
 22 18  1  0
 23 24  1  0
 25 23  2  0
M  END
$$$$
