IRA.pdb
     RDKit          3D

 25 24  0  0  1  0  0  0  0  0999 V2000
   25.9750  -26.3895  -17.6503 C   0  0  0  0  0  0  0  0  0  0  0  0
   25.5029  -25.8896  -16.3304 C   0  0  0  0  0  0  0  0  0  0  0  0
   25.5145  -24.3528  -16.2244 C   0  0  2  0  0  0  0  0  0  0  0  0
   26.8350  -23.8052  -16.6457 C   0  0  0  0  0  0  0  0  0  0  0  0
   25.0690  -24.0206  -14.8436 C   0  0  2  0  0  0  0  0  0  0  0  0
   23.7278  -24.6152  -14.6334 N   0  0  0  0  0  0  0  0  0  0  0  0
   24.9952  -22.6220  -14.4753 C   0  0  0  0  0  0  0  0  0  0  0  0
   24.0129  -21.9081  -14.8462 O   0  0  0  0  0  0  0  0  0  0  0  0
   22.6779  -21.7922   -9.5416 N   0  0  0  0  0  0  0  0  0  0  0  0
   23.0792  -20.5136   -9.0878 C   0  0  0  0  0  0  0  0  0  0  0  0
   22.2137  -19.6963   -8.5955 N   0  0  0  0  0  0  0  0  0  0  0  0
   24.4199  -20.0326   -9.1250 N   0  0  0  0  0  0  0  0  0  0  0  0
   25.4795  -20.8045   -9.6855 C   0  0  0  0  0  0  0  0  0  0  0  0
   25.2490  -21.1406  -11.1519 C   0  0  0  0  0  0  0  0  0  0  0  0
   26.1235  -20.2802  -12.0199 C   0  0  0  0  0  0  0  0  0  0  0  0
   25.9235  -20.4946  -13.4779 C   0  0  2  0  0  0  0  0  0  0  0  0
   25.9733  -21.9666  -13.7023 N   0  0  0  0  0  0  0  0  0  0  0  0
   26.8284  -19.8044  -14.3876 C   0  0  0  0  0  0  0  0  0  0  0  0
   27.9405  -20.3800  -14.6378 O   0  0  0  0  0  0  0  0  0  0  0  0
   22.4064  -18.7711   -8.2156 C   0  0  0  0  0  0  0  0  0  0  0  0
   28.9607  -18.1881  -15.5453 C   0  0  2  0  0  0  0  0  0  0  0  0
   27.5204  -17.9778  -15.9791 N   0  0  0  0  0  0  0  0  0  0  0  0
   26.6120  -18.5708  -15.0287 C   0  0  0  0  0  0  0  0  0  0  0  0
   27.3364  -18.5412  -17.3603 O   0  0  0  0  0  0  0  0  0  0  0  0
   28.0628  -18.1274  -18.4425 O   0  0  0  0  0  0  0  0  0  0  0  0
  2  3  1  0
  2  1  1  0
  3  4  1  1
  5  7  1  0
  5  3  1  0
  5  6  1  6
  7  8  2  0
 10 12  1  0
 10  9  1  0
 11 10  2  0
 13 12  1  0
 13 14  1  0
 14 15  1  0
 16 15  1  1
 17 16  1  0
 17  7  1  0
 18 19  2  0
 18 16  1  0
 21 20  1  1
 21 23  1  0
 21 22  1  0
 22 18  1  0
 23 24  1  0
 25 23  2  0
M  END
$$$$
