CED.pdb
     RDKit          3D

 24 23  0  0  1  0  0  0  0  0999 V2000
   13.6594   -8.9626   -7.8479 N   0  0  0  0  0  0  0  0  0  0  0  0
   14.2793   -7.7629   -8.4198 C   0  0  1  0  0  0  0  0  0  0  0  0
   14.9057   -7.0048   -7.2587 C   0  0  0  0  0  0  0  0  0  0  0  0
   13.6880   -6.0515   -6.3388 S   0  0  0  0  0  0  0  0  0  0  0  0
   15.4082   -8.1734   -9.3153 C   0  0  0  0  0  0  0  0  0  0  0  0
   16.2110   -9.0751   -8.9648 O   0  0  0  0  0  0  0  0  0  0  0  0
   15.6257   -7.5729  -10.5883 N   0  0  0  0  0  0  0  0  0  0  0  0
   16.6030   -8.0661  -11.5353 C   0  0  1  0  0  0  0  0  0  0  0  0
   15.9671   -8.7901  -12.6771 C   0  0  0  0  0  0  0  0  0  0  0  0
   16.9645   -9.2063  -13.7349 C   0  0  0  0  0  0  0  0  0  0  0  0
   16.2926   -9.9648  -14.8182 C   0  0  0  0  0  0  0  0  0  0  0  0
   16.9808  -10.4533  -15.7387 O   0  0  0  0  0  0  0  0  0  0  0  0
   17.5345   -6.9939  -11.9727 C   0  0  0  0  0  0  0  0  0  0  0  0
   17.0685   -5.8811  -12.3285 O   0  0  0  0  0  0  0  0  0  0  0  0
   14.9127  -10.1464  -14.8347 O   0  0  0  0  0  0  0  0  0  0  0  0
   18.9411   -7.1617  -12.0105 N   0  0  0  0  0  0  0  0  0  0  0  0
   19.8500   -6.1440  -12.4777 C   0  0  1  0  0  0  0  0  0  0  0  0
   21.2910   -6.4748  -12.2952 C   0  0  0  0  0  0  0  0  0  0  0  0
   22.2266   -5.4566  -12.7378 C   0  0  0  0  0  0  0  0  0  0  0  0
   21.8360   -4.2913  -12.9633 O   0  0  0  0  0  0  0  0  0  0  0  0
   19.5338   -5.7414  -13.8866 C   0  0  0  0  0  0  0  0  0  0  0  0
   19.6663   -6.6166  -14.9562 O   0  0  0  0  0  0  0  0  0  0  0  0
   23.5628   -5.7460  -12.9199 O   0  0  0  0  0  0  0  0  0  0  0  0
   19.1320   -4.5794  -14.1496 O   0  0  0  0  0  0  0  0  0  0  0  0
  2  3  1  0
  2  5  1  0
  2  1  1  1
  4  3  1  0
  5  6  2  0
  7  8  1  0
  7  5  1  0
  8 13  1  0
  8  9  1  6
 10  9  1  0
 10 11  1  0
 11 12  2  0
 13 14  2  0
 13 16  1  0
 15 11  1  0
 16 17  1  0
 17 21  1  0
 17 18  1  6
 19 18  1  0
 20 19  2  0
 21 24  2  0
 21 22  1  0
 23 19  1  0
M  END
$$$$
