CED.pdb
     RDKit          3D

 24 23  0  0  1  0  0  0  0  0999 V2000
   19.6904  -10.8859  -14.0915 N   0  0  0  0  0  0  0  0  0  0  0  0
   19.3723   -9.4803  -14.3632 C   0  0  1  0  0  0  0  0  0  0  0  0
   19.1229   -9.3754  -15.8606 C   0  0  0  0  0  0  0  0  0  0  0  0
   20.5710   -9.8430  -16.8211 S   0  0  0  0  0  0  0  0  0  0  0  0
   18.0781   -9.1319  -13.6934 C   0  0  0  0  0  0  0  0  0  0  0  0
   17.4952   -8.0473  -13.9467 O   0  0  0  0  0  0  0  0  0  0  0  0
   17.4528   -9.9975  -12.7510 N   0  0  0  0  0  0  0  0  0  0  0  0
   16.2332   -9.6518  -12.0523 C   0  0  1  0  0  0  0  0  0  0  0  0
   15.4935  -10.8595  -11.5767 C   0  0  0  0  0  0  0  0  0  0  0  0
   14.1822  -10.5167  -10.9059 C   0  0  0  0  0  0  0  0  0  0  0  0
   13.4635  -11.7494  -10.5007 C   0  0  0  0  0  0  0  0  0  0  0  0
   12.4503  -12.1032  -11.1393 O   0  0  0  0  0  0  0  0  0  0  0  0
   16.4796   -8.6587  -10.9745 C   0  0  0  0  0  0  0  0  0  0  0  0
   17.4729   -8.8062  -10.2171 O   0  0  0  0  0  0  0  0  0  0  0  0
   13.8904  -12.5231   -9.4252 O   0  0  0  0  0  0  0  0  0  0  0  0
   15.6420   -7.5375  -10.7519 N   0  0  0  0  0  0  0  0  0  0  0  0
   15.8574   -6.5833   -9.6921 C   0  0  1  0  0  0  0  0  0  0  0  0
   16.7773   -5.4666  -10.0467 C   0  0  0  0  0  0  0  0  0  0  0  0
   16.9695   -4.4637   -9.0146 C   0  0  0  0  0  0  0  0  0  0  0  0
   17.1512   -4.8035   -7.8260 O   0  0  0  0  0  0  0  0  0  0  0  0
   14.5559   -6.0914   -9.1341 C   0  0  0  0  0  0  0  0  0  0  0  0
   13.3362   -6.3776   -9.7324 O   0  0  0  0  0  0  0  0  0  0  0  0
   16.9567   -3.1179   -9.3161 O   0  0  0  0  0  0  0  0  0  0  0  0
   14.5262   -5.3924   -8.0894 O   0  0  0  0  0  0  0  0  0  0  0  0
  2  3  1  0
  2  5  1  0
  2  1  1  6
  4  3  1  0
  5  6  2  0
  7  8  1  0
  7  5  1  0
  8 13  1  0
  8  9  1  1
 10  9  1  0
 10 11  1  0
 11 12  2  0
 13 14  2  0
 13 16  1  0
 15 11  1  0
 16 17  1  0
 17 21  1  0
 17 18  1  6
 19 18  1  0
 20 19  2  0
 21 24  2  0
 21 22  1  0
 23 19  1  0
M  END
$$$$
