CED.pdb
     RDKit          3D

 24 23  0  0  1  0  0  0  0  0999 V2000
   26.4910  -33.8353   -8.1904 N   0  0  0  0  0  0  0  0  0  0  0  0
   25.7295  -34.8627   -7.4727 C   0  0  1  0  0  0  0  0  0  0  0  0
   26.6512  -36.0654   -7.3336 C   0  0  0  0  0  0  0  0  0  0  0  0
   25.8164  -37.4735   -6.5863 S   0  0  0  0  0  0  0  0  0  0  0  0
   25.4477  -34.3825   -6.0817 C   0  0  0  0  0  0  0  0  0  0  0  0
   26.3072  -33.7243   -5.4428 O   0  0  0  0  0  0  0  0  0  0  0  0
   24.2120  -34.6431   -5.4233 N   0  0  0  0  0  0  0  0  0  0  0  0
   23.9216  -34.1825   -4.0822 C   0  0  1  0  0  0  0  0  0  0  0  0
   22.4804  -33.8304   -3.9060 C   0  0  0  0  0  0  0  0  0  0  0  0
   22.1821  -33.2487   -2.5424 C   0  0  0  0  0  0  0  0  0  0  0  0
   20.7472  -32.8903   -2.4287 C   0  0  0  0  0  0  0  0  0  0  0  0
   20.3194  -32.4173   -1.3550 O   0  0  0  0  0  0  0  0  0  0  0  0
   24.4175  -35.1347   -3.0545 C   0  0  0  0  0  0  0  0  0  0  0  0
   24.4056  -36.3680   -3.3012 O   0  0  0  0  0  0  0  0  0  0  0  0
   19.8641  -33.0682   -3.4898 O   0  0  0  0  0  0  0  0  0  0  0  0
   24.9105  -34.7201   -1.7922 N   0  0  0  0  0  0  0  0  0  0  0  0
   25.4648  -35.6284   -0.8187 C   0  0  1  0  0  0  0  0  0  0  0  0
   26.4971  -36.5561   -1.3601 C   0  0  0  0  0  0  0  0  0  0  0  0
   27.0536  -37.4974   -0.4049 C   0  0  0  0  0  0  0  0  0  0  0  0
   26.4132  -37.8141    0.6202 O   0  0  0  0  0  0  0  0  0  0  0  0
   25.9436  -34.8930    0.3967 C   0  0  0  0  0  0  0  0  0  0  0  0
   26.4510  -35.5498    1.5097 O   0  0  0  0  0  0  0  0  0  0  0  0
   28.2957  -38.0638   -0.6020 O   0  0  0  0  0  0  0  0  0  0  0  0
   25.9005  -33.6375    0.4485 O   0  0  0  0  0  0  0  0  0  0  0  0
  2  3  1  0
  2  5  1  0
  2  1  1  6
  4  3  1  0
  5  6  2  0
  7  8  1  0
  7  5  1  0
  8 13  1  0
  8  9  1  6
 10  9  1  0
 10 11  1  0
 11 12  2  0
 13 14  2  0
 13 16  1  0
 15 11  1  0
 16 17  1  0
 17 21  1  0
 17 18  1  6
 19 18  1  0
 20 19  2  0
 21 24  2  0
 21 22  1  0
 23 19  1  0
M  END
$$$$
