CED.pdb
     RDKit          3D

 24 23  0  0  1  0  0  0  0  0999 V2000
   17.4399  -11.0840  -16.4399 N   0  0  0  0  0  0  0  0  0  0  0  0
   17.0909  -10.1155  -15.3955 C   0  0  1  0  0  0  0  0  0  0  0  0
   17.8802  -10.5127  -14.1567 C   0  0  0  0  0  0  0  0  0  0  0  0
   19.6523  -10.5480  -14.4673 S   0  0  0  0  0  0  0  0  0  0  0  0
   17.5878   -8.7603  -15.7972 C   0  0  0  0  0  0  0  0  0  0  0  0
   18.3240   -8.6190  -16.8063 O   0  0  0  0  0  0  0  0  0  0  0  0
   17.2567   -7.5825  -15.0682 N   0  0  0  0  0  0  0  0  0  0  0  0
   17.7509   -6.2698  -15.4258 C   0  0  1  0  0  0  0  0  0  0  0  0
   16.6599   -5.2503  -15.4759 C   0  0  0  0  0  0  0  0  0  0  0  0
   15.7338   -5.4412  -16.6560 C   0  0  0  0  0  0  0  0  0  0  0  0
   14.5786   -4.5146  -16.5701 C   0  0  0  0  0  0  0  0  0  0  0  0
   13.4691   -4.9545  -16.2027 O   0  0  0  0  0  0  0  0  0  0  0  0
   18.8918   -5.8591  -14.5666 C   0  0  0  0  0  0  0  0  0  0  0  0
   18.7858   -5.9521  -13.3168 O   0  0  0  0  0  0  0  0  0  0  0  0
   14.7001   -3.1651  -16.8890 O   0  0  0  0  0  0  0  0  0  0  0  0
   20.1112   -5.3607  -15.0891 N   0  0  0  0  0  0  0  0  0  0  0  0
   21.2106   -4.9262  -14.2630 C   0  0  1  0  0  0  0  0  0  0  0  0
   22.5032   -5.6091  -14.5493 C   0  0  0  0  0  0  0  0  0  0  0  0
   22.5143   -7.0439  -14.3272 C   0  0  0  0  0  0  0  0  0  0  0  0
   21.9066   -7.5399  -13.3546 O   0  0  0  0  0  0  0  0  0  0  0  0
   21.3418   -3.4330  -14.2781 C   0  0  0  0  0  0  0  0  0  0  0  0
   22.1418   -2.7490  -13.3727 O   0  0  0  0  0  0  0  0  0  0  0  0
   23.1913   -7.8926  -15.1780 O   0  0  0  0  0  0  0  0  0  0  0  0
   20.7216   -2.7404  -15.1246 O   0  0  0  0  0  0  0  0  0  0  0  0
  2  3  1  0
  2  5  1  0
  2  1  1  6
  4  3  1  0
  5  6  2  0
  7  8  1  0
  7  5  1  0
  8 13  1  0
  8  9  1  1
 10  9  1  0
 10 11  1  0
 11 12  2  0
 13 14  2  0
 13 16  1  0
 15 11  1  0
 16 17  1  0
 17 21  1  0
 17 18  1  6
 19 18  1  0
 20 19  2  0
 21 24  2  0
 21 22  1  0
 23 19  1  0
M  END
$$$$
