CED.pdb
     RDKit          3D

 24 23  0  0  1  0  0  0  0  0999 V2000
   13.2885   -9.3119   -8.7978 N   0  0  0  0  0  0  0  0  0  0  0  0
   14.1361   -8.1919   -9.2193 C   0  0  1  0  0  0  0  0  0  0  0  0
   14.6936   -7.5694   -7.9476 C   0  0  0  0  0  0  0  0  0  0  0  0
   13.3908   -6.9563   -6.8683 S   0  0  0  0  0  0  0  0  0  0  0  0
   15.3117   -8.7253   -9.9798 C   0  0  0  0  0  0  0  0  0  0  0  0
   15.4860   -9.9637  -10.1075 O   0  0  0  0  0  0  0  0  0  0  0  0
   16.2758   -7.8705  -10.5866 N   0  0  0  0  0  0  0  0  0  0  0  0
   17.2034   -8.3244  -11.6008 C   0  0  1  0  0  0  0  0  0  0  0  0
   16.5315   -9.1429  -12.6547 C   0  0  0  0  0  0  0  0  0  0  0  0
   15.5148   -8.3542  -13.4492 C   0  0  0  0  0  0  0  0  0  0  0  0
   14.9476   -9.1822  -14.5415 C   0  0  0  0  0  0  0  0  0  0  0  0
   13.8515   -9.7548  -14.3672 O   0  0  0  0  0  0  0  0  0  0  0  0
   18.0020   -7.2015  -12.1575 C   0  0  0  0  0  0  0  0  0  0  0  0
   17.4283   -6.1179  -12.4379 O   0  0  0  0  0  0  0  0  0  0  0  0
   15.6068   -9.3373  -15.7575 O   0  0  0  0  0  0  0  0  0  0  0  0
   19.3968   -7.2886  -12.3925 N   0  0  0  0  0  0  0  0  0  0  0  0
   20.1872   -6.1925  -12.8965 C   0  0  1  0  0  0  0  0  0  0  0  0
   21.6585   -6.4199  -12.8452 C   0  0  0  0  0  0  0  0  0  0  0  0
   22.4776   -5.3215  -13.3256 C   0  0  0  0  0  0  0  0  0  0  0  0
   23.3600   -5.5185  -14.1881 O   0  0  0  0  0  0  0  0  0  0  0  0
   19.7246   -5.7735  -14.2594 C   0  0  0  0  0  0  0  0  0  0  0  0
   18.9295   -6.5864  -15.0560 O   0  0  0  0  0  0  0  0  0  0  0  0
   22.3050   -4.0398  -12.8463 O   0  0  0  0  0  0  0  0  0  0  0  0
   20.0468   -4.6542  -14.7330 O   0  0  0  0  0  0  0  0  0  0  0  0
  2  3  1  0
  2  5  1  0
  2  1  1  1
  4  3  1  0
  5  6  2  0
  7  8  1  0
  7  5  1  0
  8 13  1  0
  8  9  1  6
 10  9  1  0
 10 11  1  0
 11 12  2  0
 13 14  2  0
 13 16  1  0
 15 11  1  0
 16 17  1  0
 17 21  1  0
 17 18  1  6
 19 18  1  0
 20 19  2  0
 21 24  2  0
 21 22  1  0
 23 19  1  0
M  END
$$$$
