CED.pdb
     RDKit          3D

 24 23  0  0  1  0  0  0  0  0999 V2000
   19.1663  -12.9702  -15.9730 N   0  0  0  0  0  0  0  0  0  0  0  0
   18.9059  -11.6329  -16.5155 C   0  0  1  0  0  0  0  0  0  0  0  0
   17.4982  -11.2556  -16.0778 C   0  0  0  0  0  0  0  0  0  0  0  0
   16.2516  -12.3186  -16.8223 S   0  0  0  0  0  0  0  0  0  0  0  0
   19.8295  -10.6503  -15.8626 C   0  0  0  0  0  0  0  0  0  0  0  0
   19.9229  -10.5903  -14.6104 O   0  0  0  0  0  0  0  0  0  0  0  0
   20.6355   -9.7490  -16.6151 N   0  0  0  0  0  0  0  0  0  0  0  0
   21.5250   -8.7865  -16.0005 C   0  0  1  0  0  0  0  0  0  0  0  0
   22.9410   -8.9641  -16.4422 C   0  0  0  0  0  0  0  0  0  0  0  0
   23.9008   -8.0500  -15.7141 C   0  0  0  0  0  0  0  0  0  0  0  0
   25.2855   -8.2434  -16.2094 C   0  0  0  0  0  0  0  0  0  0  0  0
   26.0049   -7.2438  -16.4166 O   0  0  0  0  0  0  0  0  0  0  0  0
   21.0323   -7.3949  -16.1720 C   0  0  0  0  0  0  0  0  0  0  0  0
   20.7263   -6.9877  -17.3220 O   0  0  0  0  0  0  0  0  0  0  0  0
   25.8044   -9.5125  -16.4494 O   0  0  0  0  0  0  0  0  0  0  0  0
   20.8869   -6.4890  -15.0920 N   0  0  0  0  0  0  0  0  0  0  0  0
   20.3641   -5.1532  -15.2408 C   0  0  1  0  0  0  0  0  0  0  0  0
   19.0794   -4.9119  -14.5263 C   0  0  0  0  0  0  0  0  0  0  0  0
   18.5361   -3.5714  -14.6533 C   0  0  0  0  0  0  0  0  0  0  0  0
   18.5837   -2.9688  -15.7469 O   0  0  0  0  0  0  0  0  0  0  0  0
   21.4022   -4.1251  -14.9053 C   0  0  0  0  0  0  0  0  0  0  0  0
   21.6015   -2.9910  -15.6809 O   0  0  0  0  0  0  0  0  0  0  0  0
   17.9567   -2.9313  -13.5777 O   0  0  0  0  0  0  0  0  0  0  0  0
   22.1379   -4.2587  -13.8945 O   0  0  0  0  0  0  0  0  0  0  0  0
  2  3  1  0
  2  5  1  0
  2  1  1  1
  4  3  1  0
  5  6  2  0
  7  8  1  0
  7  5  1  0
  8 13  1  0
  8  9  1  6
 10  9  1  0
 10 11  1  0
 11 12  2  0
 13 14  2  0
 13 16  1  0
 15 11  1  0
 16 17  1  0
 17 21  1  0
 17 18  1  1
 19 18  1  0
 20 19  2  0
 21 24  2  0
 21 22  1  0
 23 19  1  0
M  END
$$$$
