CED.pdb
     RDKit          3D

 24 23  0  0  1  0  0  0  0  0999 V2000
   21.8025  -13.6055  -15.0793 N   0  0  0  0  0  0  0  0  0  0  0  0
   22.4983  -13.3022  -16.3341 C   0  0  1  0  0  0  0  0  0  0  0  0
   22.1959  -14.4514  -17.2845 C   0  0  0  0  0  0  0  0  0  0  0  0
   22.9574  -15.9907  -16.7472 S   0  0  0  0  0  0  0  0  0  0  0  0
   21.8930  -12.0762  -16.9467 C   0  0  0  0  0  0  0  0  0  0  0  0
   22.3043  -11.6402  -18.0518 O   0  0  0  0  0  0  0  0  0  0  0  0
   20.8383  -11.3541  -16.3186 N   0  0  0  0  0  0  0  0  0  0  0  0
   20.2984  -10.1227  -16.8547 C   0  0  1  0  0  0  0  0  0  0  0  0
   18.9481  -10.3165  -17.4639 C   0  0  0  0  0  0  0  0  0  0  0  0
   18.4286   -9.0704  -18.1452 C   0  0  0  0  0  0  0  0  0  0  0  0
   17.1018   -9.3235  -18.7583 C   0  0  0  0  0  0  0  0  0  0  0  0
   17.0235   -9.5016  -19.9919 O   0  0  0  0  0  0  0  0  0  0  0  0
   20.3326   -9.0254  -15.8531 C   0  0  0  0  0  0  0  0  0  0  0  0
   20.1018   -9.2875  -14.6448 O   0  0  0  0  0  0  0  0  0  0  0  0
   15.9403   -9.3676  -17.9926 O   0  0  0  0  0  0  0  0  0  0  0  0
   20.6158   -7.6790  -16.1927 N   0  0  0  0  0  0  0  0  0  0  0  0
   20.6765   -6.6117  -15.2246 C   0  0  1  0  0  0  0  0  0  0  0  0
   22.0507   -6.2912  -14.7471 C   0  0  0  0  0  0  0  0  0  0  0  0
   22.1390   -5.2194  -13.7716 C   0  0  0  0  0  0  0  0  0  0  0  0
   21.1031   -4.7096  -13.2940 O   0  0  0  0  0  0  0  0  0  0  0  0
   19.9470   -5.3964  -15.7124 C   0  0  0  0  0  0  0  0  0  0  0  0
   20.1335   -4.8808  -16.9880 O   0  0  0  0  0  0  0  0  0  0  0  0
   23.3605   -4.7384  -13.3485 O   0  0  0  0  0  0  0  0  0  0  0  0
   19.1295   -4.7948  -14.9703 O   0  0  0  0  0  0  0  0  0  0  0  0
  2  3  1  0
  2  5  1  0
  2  1  1  1
  4  3  1  0
  5  6  2  0
  7  8  1  0
  7  5  1  0
  8 13  1  0
  8  9  1  1
 10  9  1  0
 10 11  1  0
 11 12  2  0
 13 14  2  0
 13 16  1  0
 15 11  1  0
 16 17  1  0
 17 21  1  0
 17 18  1  6
 19 18  1  0
 20 19  2  0
 21 24  2  0
 21 22  1  0
 23 19  1  0
M  END
$$$$
