CED.pdb
     RDKit          3D

 24 23  0  0  1  0  0  0  0  0999 V2000
   22.2594  -10.9570  -17.4900 N   0  0  0  0  0  0  0  0  0  0  0  0
   22.0057  -10.3070  -16.2002 C   0  0  1  0  0  0  0  0  0  0  0  0
   23.3396   -9.7468  -15.7289 C   0  0  0  0  0  0  0  0  0  0  0  0
   24.4643  -11.0436  -15.1892 S   0  0  0  0  0  0  0  0  0  0  0  0
   21.1038   -9.1297  -16.4130 C   0  0  0  0  0  0  0  0  0  0  0  0
   21.2397   -8.3901  -17.4205 O   0  0  0  0  0  0  0  0  0  0  0  0
   20.0638   -8.7940  -15.4999 N   0  0  0  0  0  0  0  0  0  0  0  0
   19.1778   -7.6661  -15.6950 C   0  0  1  0  0  0  0  0  0  0  0  0
   17.8093   -7.9230  -15.1537 C   0  0  0  0  0  0  0  0  0  0  0  0
   17.0932   -9.0407  -15.8782 C   0  0  0  0  0  0  0  0  0  0  0  0
   15.7271   -9.2281  -15.3316 C   0  0  0  0  0  0  0  0  0  0  0  0
   14.7542   -8.7302  -15.9358 O   0  0  0  0  0  0  0  0  0  0  0  0
   19.7759   -6.4032  -15.1889 C   0  0  0  0  0  0  0  0  0  0  0  0
   20.4838   -6.4307  -14.1496 O   0  0  0  0  0  0  0  0  0  0  0  0
   15.5015   -9.9459  -14.1605 O   0  0  0  0  0  0  0  0  0  0  0  0
   19.5879   -5.1510  -15.8251 N   0  0  0  0  0  0  0  0  0  0  0  0
   20.2096   -3.9301  -15.3747 C   0  0  1  0  0  0  0  0  0  0  0  0
   21.6710   -4.0450  -15.1093 C   0  0  0  0  0  0  0  0  0  0  0  0
   22.3375   -2.8097  -14.7379 C   0  0  0  0  0  0  0  0  0  0  0  0
   21.6813   -1.8439  -14.2931 O   0  0  0  0  0  0  0  0  0  0  0  0
   19.8870   -2.7884  -16.2910 C   0  0  0  0  0  0  0  0  0  0  0  0
   19.8417   -2.9341  -17.6709 O   0  0  0  0  0  0  0  0  0  0  0  0
   23.7038   -2.6698  -14.8652 O   0  0  0  0  0  0  0  0  0  0  0  0
   19.6430   -1.6434  -15.8322 O   0  0  0  0  0  0  0  0  0  0  0  0
  2  3  1  0
  2  5  1  0
  2  1  1  6
  4  3  1  0
  5  6  2  0
  7  8  1  0
  7  5  1  0
  8 13  1  0
  8  9  1  1
 10  9  1  0
 10 11  1  0
 11 12  2  0
 13 14  2  0
 13 16  1  0
 15 11  1  0
 16 17  1  0
 17 21  1  0
 17 18  1  6
 19 18  1  0
 20 19  2  0
 21 24  2  0
 21 22  1  0
 23 19  1  0
M  END
$$$$
