CED.pdb
     RDKit          3D

 24 23  0  0  1  0  0  0  0  0999 V2000
   21.9639  -13.8212  -15.9296 N   0  0  0  0  0  0  0  0  0  0  0  0
   21.3591  -12.8288  -16.8239 C   0  0  1  0  0  0  0  0  0  0  0  0
   19.8855  -12.7534  -16.4521 C   0  0  0  0  0  0  0  0  0  0  0  0
   19.0353  -14.3130  -16.7398 S   0  0  0  0  0  0  0  0  0  0  0  0
   21.9403  -11.4805  -16.5255 C   0  0  0  0  0  0  0  0  0  0  0  0
   22.0433  -11.0732  -15.3406 O   0  0  0  0  0  0  0  0  0  0  0  0
   22.3981  -10.6059  -17.5520 N   0  0  0  0  0  0  0  0  0  0  0  0
   23.0258   -9.3306  -17.2784 C   0  0  1  0  0  0  0  0  0  0  0  0
   23.9876   -8.9334  -18.3504 C   0  0  0  0  0  0  0  0  0  0  0  0
   24.7129   -7.6437  -18.0380 C   0  0  0  0  0  0  0  0  0  0  0  0
   25.6846   -7.3167  -19.1100 C   0  0  0  0  0  0  0  0  0  0  0  0
   26.8706   -7.6898  -18.9934 O   0  0  0  0  0  0  0  0  0  0  0  0
   22.0217   -8.2769  -16.9781 C   0  0  0  0  0  0  0  0  0  0  0  0
   21.1478   -7.9964  -17.8382 O   0  0  0  0  0  0  0  0  0  0  0  0
   25.3074   -6.6035  -20.2443 O   0  0  0  0  0  0  0  0  0  0  0  0
   21.9965   -7.5608  -15.7555 N   0  0  0  0  0  0  0  0  0  0  0  0
   20.9436   -6.6442  -15.3935 C   0  0  1  0  0  0  0  0  0  0  0  0
   19.5689   -7.2027  -15.5253 C   0  0  0  0  0  0  0  0  0  0  0  0
   18.4934   -6.3198  -15.1105 C   0  0  0  0  0  0  0  0  0  0  0  0
   18.5929   -5.0838  -15.2634 O   0  0  0  0  0  0  0  0  0  0  0  0
   21.1868   -6.0477  -14.0399 C   0  0  0  0  0  0  0  0  0  0  0  0
   20.3086   -5.1429  -13.4588 O   0  0  0  0  0  0  0  0  0  0  0  0
   17.3408   -6.8183  -14.5402 O   0  0  0  0  0  0  0  0  0  0  0  0
   22.2103   -6.3524  -13.3763 O   0  0  0  0  0  0  0  0  0  0  0  0
  2  3  1  0
  2  5  1  0
  2  1  1  1
  4  3  1  0
  5  6  2  0
  7  8  1  0
  7  5  1  0
  8 13  1  0
  8  9  1  6
 10  9  1  0
 10 11  1  0
 11 12  2  0
 13 14  2  0
 13 16  1  0
 15 11  1  0
 16 17  1  0
 17 21  1  0
 17 18  1  1
 19 18  1  0
 20 19  2  0
 21 24  2  0
 21 22  1  0
 23 19  1  0
M  END
$$$$
