CED.pdb
     RDKit          3D

 24 23  0  0  1  0  0  0  0  0999 V2000
   25.4173  -21.7601  -15.0618 N   0  0  0  0  0  0  0  0  0  0  0  0
   24.8601  -20.4068  -15.1554 C   0  0  1  0  0  0  0  0  0  0  0  0
   25.1884  -19.9000  -16.5521 C   0  0  0  0  0  0  0  0  0  0  0  0
   26.9616  -19.7379  -16.8125 S   0  0  0  0  0  0  0  0  0  0  0  0
   23.3661  -20.4847  -15.0739 C   0  0  0  0  0  0  0  0  0  0  0  0
   22.7353  -21.3844  -15.6845 O   0  0  0  0  0  0  0  0  0  0  0  0
   22.5970  -19.5584  -14.3130 N   0  0  0  0  0  0  0  0  0  0  0  0
   21.1537  -19.6202  -14.2221 C   0  0  1  0  0  0  0  0  0  0  0  0
   20.6764  -19.6094  -12.8065 C   0  0  0  0  0  0  0  0  0  0  0  0
   21.7501  -20.0185  -11.8232 C   0  0  0  0  0  0  0  0  0  0  0  0
   21.2072  -20.0624  -10.4435 C   0  0  0  0  0  0  0  0  0  0  0  0
   20.5351  -21.0513  -10.0831 O   0  0  0  0  0  0  0  0  0  0  0  0
   20.5049  -18.5805  -15.0627 C   0  0  0  0  0  0  0  0  0  0  0  0
   20.9742  -17.4136  -15.0699 O   0  0  0  0  0  0  0  0  0  0  0  0
   21.4280  -19.0277   -9.5390 O   0  0  0  0  0  0  0  0  0  0  0  0
   19.3682  -18.8384  -15.8687 N   0  0  0  0  0  0  0  0  0  0  0  0
   18.6915  -17.8218  -16.6360 C   0  0  1  0  0  0  0  0  0  0  0  0
   18.2022  -18.2786  -17.9668 C   0  0  0  0  0  0  0  0  0  0  0  0
   17.5864  -17.2543  -18.7913 C   0  0  0  0  0  0  0  0  0  0  0  0
   18.0331  -16.0874  -18.7922 O   0  0  0  0  0  0  0  0  0  0  0  0
   17.6128  -17.1635  -15.8297 C   0  0  0  0  0  0  0  0  0  0  0  0
   17.5431  -15.7864  -15.6672 O   0  0  0  0  0  0  0  0  0  0  0  0
   16.4990  -17.5397  -19.5904 O   0  0  0  0  0  0  0  0  0  0  0  0
   16.7217  -17.8480  -15.2654 O   0  0  0  0  0  0  0  0  0  0  0  0
  2  3  1  0
  2  5  1  0
  2  1  1  6
  4  3  1  0
  5  6  2  0
  7  8  1  0
  7  5  1  0
  8 13  1  0
  8  9  1  1
 10  9  1  0
 10 11  1  0
 11 12  2  0
 13 14  2  0
 13 16  1  0
 15 11  1  0
 16 17  1  0
 17 21  1  0
 17 18  1  6
 19 18  1  0
 20 19  2  0
 21 24  2  0
 21 22  1  0
 23 19  1  0
M  END
$$$$
