CED.pdb
     RDKit          3D

 24 23  0  0  1  0  0  0  0  0999 V2000
   25.2657  -33.4124  -10.3245 N   0  0  0  0  0  0  0  0  0  0  0  0
   25.3560  -32.7999   -8.9952 C   0  0  1  0  0  0  0  0  0  0  0  0
   23.9856  -32.2092   -8.6975 C   0  0  0  0  0  0  0  0  0  0  0  0
   23.7909  -30.5652   -9.4027 S   0  0  0  0  0  0  0  0  0  0  0  0
   25.5848  -33.8730   -7.9750 C   0  0  0  0  0  0  0  0  0  0  0  0
   25.6650  -35.0796   -8.3186 O   0  0  0  0  0  0  0  0  0  0  0  0
   25.7209  -33.5855   -6.5867 N   0  0  0  0  0  0  0  0  0  0  0  0
   26.0152  -34.6002   -5.5973 C   0  0  1  0  0  0  0  0  0  0  0  0
   27.3421  -34.3849   -4.9454 C   0  0  0  0  0  0  0  0  0  0  0  0
   27.2404  -34.2424   -3.4433 C   0  0  0  0  0  0  0  0  0  0  0  0
   28.5893  -34.2247   -2.8267 C   0  0  0  0  0  0  0  0  0  0  0  0
   29.5970  -34.1918   -3.5636 O   0  0  0  0  0  0  0  0  0  0  0  0
   24.9054  -34.7542   -4.6209 C   0  0  0  0  0  0  0  0  0  0  0  0
   24.2110  -33.7510   -4.3152 O   0  0  0  0  0  0  0  0  0  0  0  0
   28.7609  -34.2439   -1.4455 O   0  0  0  0  0  0  0  0  0  0  0  0
   24.5836  -35.9901   -4.0068 N   0  0  0  0  0  0  0  0  0  0  0  0
   23.4805  -36.1597   -3.0933 C   0  0  1  0  0  0  0  0  0  0  0  0
   23.0549  -37.5738   -2.8979 C   0  0  0  0  0  0  0  0  0  0  0  0
   21.8565  -37.9704   -3.6153 C   0  0  0  0  0  0  0  0  0  0  0  0
   21.2556  -37.1543   -4.3461 O   0  0  0  0  0  0  0  0  0  0  0  0
   23.7420  -35.4605   -1.7933 C   0  0  0  0  0  0  0  0  0  0  0  0
   22.7485  -34.7770   -1.1052 O   0  0  0  0  0  0  0  0  0  0  0  0
   21.3525  -39.2500   -3.5104 O   0  0  0  0  0  0  0  0  0  0  0  0
   24.8877  -35.4705   -1.2757 O   0  0  0  0  0  0  0  0  0  0  0  0
  2  3  1  0
  2  5  1  0
  2  1  1  6
  4  3  1  0
  5  6  2  0
  7  8  1  0
  7  5  1  0
  8 13  1  0
  8  9  1  1
 10  9  1  0
 10 11  1  0
 11 12  2  0
 13 14  2  0
 13 16  1  0
 15 11  1  0
 16 17  1  0
 17 21  1  0
 17 18  1  1
 19 18  1  0
 20 19  2  0
 21 24  2  0
 21 22  1  0
 23 19  1  0
M  END
$$$$
