CED.pdb
     RDKit          3D

 24 23  0  0  1  0  0  0  0  0999 V2000
   25.8117  -11.4574  -17.5984 N   0  0  0  0  0  0  0  0  0  0  0  0
   25.2437  -11.1209  -16.2889 C   0  0  1  0  0  0  0  0  0  0  0  0
   26.2117  -10.1452  -15.6359 C   0  0  0  0  0  0  0  0  0  0  0  0
   27.7338  -10.9509  -15.1140 S   0  0  0  0  0  0  0  0  0  0  0  0
   23.9602  -10.3740  -16.4880 C   0  0  0  0  0  0  0  0  0  0  0  0
   23.8340   -9.5538  -17.4323 O   0  0  0  0  0  0  0  0  0  0  0  0
   22.8363  -10.5524  -15.6318 N   0  0  0  0  0  0  0  0  0  0  0  0
   21.5924   -9.8325  -15.8044 C   0  0  1  0  0  0  0  0  0  0  0  0
   20.4005  -10.6939  -15.5409 C   0  0  0  0  0  0  0  0  0  0  0  0
   20.1055  -11.6486  -16.6760 C   0  0  0  0  0  0  0  0  0  0  0  0
   18.9112  -12.4732  -16.3694 C   0  0  0  0  0  0  0  0  0  0  0  0
   19.0598  -13.6787  -16.0794 O   0  0  0  0  0  0  0  0  0  0  0  0
   21.5779   -8.5659  -15.0272 C   0  0  0  0  0  0  0  0  0  0  0  0
   21.8749   -8.5901  -13.8052 O   0  0  0  0  0  0  0  0  0  0  0  0
   17.6271  -11.9366  -16.3968 O   0  0  0  0  0  0  0  0  0  0  0  0
   21.2421   -7.3134  -15.5989 N   0  0  0  0  0  0  0  0  0  0  0  0
   21.1928   -6.0844  -14.8460 C   0  0  1  0  0  0  0  0  0  0  0  0
   22.2453   -5.0957  -15.2118 C   0  0  0  0  0  0  0  0  0  0  0  0
   22.2108   -3.8450  -14.4752 C   0  0  0  0  0  0  0  0  0  0  0  0
   21.4726   -2.9088  -14.8492 O   0  0  0  0  0  0  0  0  0  0  0  0
   19.8182   -5.4870  -14.8744 C   0  0  0  0  0  0  0  0  0  0  0  0
   19.2651   -4.8446  -13.7748 O   0  0  0  0  0  0  0  0  0  0  0  0
   22.9865   -3.6576  -13.3502 O   0  0  0  0  0  0  0  0  0  0  0  0
   19.1101   -5.5494  -15.9115 O   0  0  0  0  0  0  0  0  0  0  0  0
  2  3  1  0
  2  5  1  0
  2  1  1  6
  4  3  1  0
  5  6  2  0
  7  8  1  0
  7  5  1  0
  8 13  1  0
  8  9  1  1
 10  9  1  0
 10 11  1  0
 11 12  2  0
 13 14  2  0
 13 16  1  0
 15 11  1  0
 16 17  1  0
 17 21  1  0
 17 18  1  6
 19 18  1  0
 20 19  2  0
 21 24  2  0
 21 22  1  0
 23 19  1  0
M  END
$$$$
