CED.pdb
     RDKit          3D

 24 23  0  0  1  0  0  0  0  0999 V2000
   26.8465  -21.2477  -12.4078 N   0  0  0  0  0  0  0  0  0  0  0  0
   25.5230  -21.4831  -11.8217 C   0  0  1  0  0  0  0  0  0  0  0  0
   25.2715  -20.3398  -10.8496 C   0  0  0  0  0  0  0  0  0  0  0  0
   25.9769  -20.6654   -9.2265 S   0  0  0  0  0  0  0  0  0  0  0  0
   24.4833  -21.3633  -12.8938 C   0  0  0  0  0  0  0  0  0  0  0  0
   24.6120  -20.5264  -13.8230 O   0  0  0  0  0  0  0  0  0  0  0  0
   23.3153  -22.1781  -12.9144 N   0  0  0  0  0  0  0  0  0  0  0  0
   22.2807  -22.0464  -13.9181 C   0  0  1  0  0  0  0  0  0  0  0  0
   21.6227  -23.3521  -14.2250 C   0  0  0  0  0  0  0  0  0  0  0  0
   20.5090  -23.2225  -15.2398 C   0  0  0  0  0  0  0  0  0  0  0  0
   19.9224  -24.5501  -15.5457 C   0  0  0  0  0  0  0  0  0  0  0  0
   18.7490  -24.6164  -15.9679 O   0  0  0  0  0  0  0  0  0  0  0  0
   21.3119  -20.9740  -13.5716 C   0  0  0  0  0  0  0  0  0  0  0  0
   21.5656  -20.2020  -12.6116 O   0  0  0  0  0  0  0  0  0  0  0  0
   20.6476  -25.7257  -15.3738 O   0  0  0  0  0  0  0  0  0  0  0  0
   20.0991  -20.7724  -14.2764 N   0  0  0  0  0  0  0  0  0  0  0  0
   19.2945  -19.5823  -14.1483 C   0  0  1  0  0  0  0  0  0  0  0  0
   20.0439  -18.3092  -14.3397 C   0  0  0  0  0  0  0  0  0  0  0  0
   19.2450  -17.0984  -14.2761 C   0  0  0  0  0  0  0  0  0  0  0  0
   18.6674  -16.7747  -13.2165 O   0  0  0  0  0  0  0  0  0  0  0  0
   18.0738  -19.6585  -15.0150 C   0  0  0  0  0  0  0  0  0  0  0  0
   18.1156  -20.1435  -16.3152 O   0  0  0  0  0  0  0  0  0  0  0  0
   19.1031  -16.2784  -15.3760 O   0  0  0  0  0  0  0  0  0  0  0  0
   16.9544  -19.2795  -14.5857 O   0  0  0  0  0  0  0  0  0  0  0  0
  2  3  1  0
  2  5  1  0
  2  1  1  6
  4  3  1  0
  5  6  2  0
  7  8  1  0
  7  5  1  0
  8 13  1  0
  8  9  1  1
 10  9  1  0
 10 11  1  0
 11 12  2  0
 13 14  2  0
 13 16  1  0
 15 11  1  0
 16 17  1  0
 17 21  1  0
 17 18  1  6
 19 18  1  0
 20 19  2  0
 21 24  2  0
 21 22  1  0
 23 19  1  0
M  END
$$$$
