CED.pdb
     RDKit          3D

 24 23  0  0  1  0  0  0  0  0999 V2000
   25.2734  -12.2317  -17.9162 N   0  0  0  0  0  0  0  0  0  0  0  0
   24.8117  -11.7647  -16.6050 C   0  0  1  0  0  0  0  0  0  0  0  0
   25.9129  -10.8721  -16.0518 C   0  0  0  0  0  0  0  0  0  0  0  0
   27.3760  -11.8121  -15.5892 S   0  0  0  0  0  0  0  0  0  0  0  0
   23.6106  -10.8886  -16.7913 C   0  0  0  0  0  0  0  0  0  0  0  0
   23.5505  -10.0756  -17.7483 O   0  0  0  0  0  0  0  0  0  0  0  0
   22.4941  -10.9315  -15.9081 N   0  0  0  0  0  0  0  0  0  0  0  0
   21.3508  -10.0537  -16.0405 C   0  0  1  0  0  0  0  0  0  0  0  0
   20.0623  -10.7611  -15.7737 C   0  0  0  0  0  0  0  0  0  0  0  0
   19.7017  -11.7506  -16.8589 C   0  0  0  0  0  0  0  0  0  0  0  0
   18.4121  -12.4164  -16.5528 C   0  0  0  0  0  0  0  0  0  0  0  0
   17.3855  -12.0746  -17.1764 O   0  0  0  0  0  0  0  0  0  0  0  0
   21.5123   -8.8153  -15.2348 C   0  0  0  0  0  0  0  0  0  0  0  0
   22.3764   -8.7835  -14.3214 O   0  0  0  0  0  0  0  0  0  0  0  0
   18.3168  -13.4140  -15.5868 O   0  0  0  0  0  0  0  0  0  0  0  0
   20.7322   -7.6509  -15.4446 N   0  0  0  0  0  0  0  0  0  0  0  0
   20.9256   -6.4231  -14.7132 C   0  0  1  0  0  0  0  0  0  0  0  0
   22.3444   -5.9790  -14.6199 C   0  0  0  0  0  0  0  0  0  0  0  0
   22.5575   -4.7019  -13.9627 C   0  0  0  0  0  0  0  0  0  0  0  0
   23.1019   -3.7575  -14.5733 O   0  0  0  0  0  0  0  0  0  0  0  0
   20.0242   -5.3403  -15.2254 C   0  0  0  0  0  0  0  0  0  0  0  0
   19.2053   -5.5180  -16.3323 O   0  0  0  0  0  0  0  0  0  0  0  0
   22.1673   -4.4980  -12.6556 O   0  0  0  0  0  0  0  0  0  0  0  0
   19.9799   -4.2181  -14.6601 O   0  0  0  0  0  0  0  0  0  0  0  0
  2  3  1  0
  2  5  1  0
  2  1  1  6
  4  3  1  0
  5  6  2  0
  7  8  1  0
  7  5  1  0
  8 13  1  0
  8  9  1  1
 10  9  1  0
 10 11  1  0
 11 12  2  0
 13 14  2  0
 13 16  1  0
 15 11  1  0
 16 17  1  0
 17 21  1  0
 17 18  1  6
 19 18  1  0
 20 19  2  0
 21 24  2  0
 21 22  1  0
 23 19  1  0
M  END
$$$$
