CED.pdb
     RDKit          3D

 24 23  0  0  1  0  0  0  0  0999 V2000
   26.4739  -12.1894  -16.5209 N   0  0  0  0  0  0  0  0  0  0  0  0
   26.0930  -10.9286  -15.8761 C   0  0  1  0  0  0  0  0  0  0  0  0
   27.1024   -9.8865  -16.3348 C   0  0  0  0  0  0  0  0  0  0  0  0
   28.7460  -10.2007  -15.6729 S   0  0  0  0  0  0  0  0  0  0  0  0
   24.7617  -10.4897  -16.4052 C   0  0  0  0  0  0  0  0  0  0  0  0
   24.1862  -11.1387  -17.3151 O   0  0  0  0  0  0  0  0  0  0  0  0
   24.0915   -9.3337  -15.9123 N   0  0  0  0  0  0  0  0  0  0  0  0
   22.7478   -8.9722  -16.3112 C   0  0  1  0  0  0  0  0  0  0  0  0
   21.7714  -10.0773  -16.0716 C   0  0  0  0  0  0  0  0  0  0  0  0
   21.7131  -11.0656  -17.2148 C   0  0  0  0  0  0  0  0  0  0  0  0
   20.6336  -12.0586  -16.9938 C   0  0  0  0  0  0  0  0  0  0  0  0
   19.6191  -12.0295  -17.7214 O   0  0  0  0  0  0  0  0  0  0  0  0
   22.3243   -7.6811  -15.7093 C   0  0  0  0  0  0  0  0  0  0  0  0
   22.3480   -7.5477  -14.4589 O   0  0  0  0  0  0  0  0  0  0  0  0
   20.7228  -13.0235  -15.9945 O   0  0  0  0  0  0  0  0  0  0  0  0
   21.8886   -6.5757  -16.4817 N   0  0  0  0  0  0  0  0  0  0  0  0
   21.5604   -5.2908  -15.9147 C   0  0  1  0  0  0  0  0  0  0  0  0
   21.9617   -4.1271  -16.7537 C   0  0  0  0  0  0  0  0  0  0  0  0
   23.3922   -3.9281  -16.9028 C   0  0  0  0  0  0  0  0  0  0  0  0
   24.1446   -3.9622  -15.9058 O   0  0  0  0  0  0  0  0  0  0  0  0
   20.1178   -5.2297  -15.5117 C   0  0  0  0  0  0  0  0  0  0  0  0
   19.6196   -4.2311  -14.6857 O   0  0  0  0  0  0  0  0  0  0  0  0
   23.9555   -3.6977  -18.1405 O   0  0  0  0  0  0  0  0  0  0  0  0
   19.2992   -6.0945  -15.9150 O   0  0  0  0  0  0  0  0  0  0  0  0
  2  3  1  0
  2  5  1  0
  2  1  1  6
  4  3  1  0
  5  6  2  0
  7  8  1  0
  7  5  1  0
  8 13  1  0
  8  9  1  1
 10  9  1  0
 10 11  1  0
 11 12  2  0
 13 14  2  0
 13 16  1  0
 15 11  1  0
 16 17  1  0
 17 21  1  0
 17 18  1  6
 19 18  1  0
 20 19  2  0
 21 24  2  0
 21 22  1  0
 23 19  1  0
M  END
$$$$
