CED.pdb
     RDKit          3D

 24 23  0  0  1  0  0  0  0  0999 V2000
   37.3876  -11.1631  -16.9993 N   0  0  0  0  0  0  0  0  0  0  0  0
   36.1856  -10.9418  -16.1888 C   0  0  1  0  0  0  0  0  0  0  0  0
   36.5598   -9.9113  -15.1335 C   0  0  0  0  0  0  0  0  0  0  0  0
   37.7771  -10.5466  -13.9705 S   0  0  0  0  0  0  0  0  0  0  0  0
   35.1284  -10.3094  -17.0415 C   0  0  0  0  0  0  0  0  0  0  0  0
   35.3519  -10.0424  -18.2495 O   0  0  0  0  0  0  0  0  0  0  0  0
   33.8377   -9.9838  -16.5353 N   0  0  0  0  0  0  0  0  0  0  0  0
   32.7807   -9.4420  -17.3627 C   0  0  1  0  0  0  0  0  0  0  0  0
   31.7618  -10.4733  -17.7238 C   0  0  0  0  0  0  0  0  0  0  0  0
   30.6932   -9.9409  -18.6519 C   0  0  0  0  0  0  0  0  0  0  0  0
   29.7008  -10.9971  -18.9681 C   0  0  0  0  0  0  0  0  0  0  0  0
   30.0165  -11.9162  -19.7524 O   0  0  0  0  0  0  0  0  0  0  0  0
   32.1843   -8.2202  -16.7625 C   0  0  0  0  0  0  0  0  0  0  0  0
   31.6634   -8.2872  -15.6196 O   0  0  0  0  0  0  0  0  0  0  0  0
   28.4248  -10.9899  -18.4120 O   0  0  0  0  0  0  0  0  0  0  0  0
   32.1714   -6.9648  -17.4199 N   0  0  0  0  0  0  0  0  0  0  0  0
   31.9207   -5.7164  -16.7428 C   0  0  1  0  0  0  0  0  0  0  0  0
   32.6799   -5.5415  -15.4731 C   0  0  0  0  0  0  0  0  0  0  0  0
   32.4773   -4.2744  -14.7935 C   0  0  0  0  0  0  0  0  0  0  0  0
   31.6564   -3.4422  -15.2348 O   0  0  0  0  0  0  0  0  0  0  0  0
   32.0925   -4.5527  -17.6720 C   0  0  0  0  0  0  0  0  0  0  0  0
   32.5741   -4.7007  -18.9658 O   0  0  0  0  0  0  0  0  0  0  0  0
   33.1808   -3.9573  -13.6503 O   0  0  0  0  0  0  0  0  0  0  0  0
   31.8015   -3.3862  -17.3040 O   0  0  0  0  0  0  0  0  0  0  0  0
  2  3  1  0
  2  5  1  0
  2  1  1  6
  4  3  1  0
  5  6  2  0
  7  8  1  0
  7  5  1  0
  8 13  1  0
  8  9  1  1
 10  9  1  0
 10 11  1  0
 11 12  2  0
 13 14  2  0
 13 16  1  0
 15 11  1  0
 16 17  1  0
 17 21  1  0
 17 18  1  1
 19 18  1  0
 20 19  2  0
 21 24  2  0
 21 22  1  0
 23 19  1  0
M  END
$$$$
