CED.pdb
     RDKit          3D

 24 23  0  0  1  0  0  0  0  0999 V2000
   18.8041  -12.4325  -15.7807 N   0  0  0  0  0  0  0  0  0  0  0  0
   19.2299  -11.4285  -16.7611 C   0  0  1  0  0  0  0  0  0  0  0  0
   17.9938  -10.6115  -17.1077 C   0  0  0  0  0  0  0  0  0  0  0  0
   16.7578  -11.5910  -17.9743 S   0  0  0  0  0  0  0  0  0  0  0  0
   20.1925  -10.4834  -16.1091 C   0  0  0  0  0  0  0  0  0  0  0  0
   20.0518  -10.1524  -14.9045 O   0  0  0  0  0  0  0  0  0  0  0  0
   21.2979   -9.9211  -16.8093 N   0  0  0  0  0  0  0  0  0  0  0  0
   22.2202   -8.9845  -16.2033 C   0  0  1  0  0  0  0  0  0  0  0  0
   23.5950   -9.0945  -16.7776 C   0  0  0  0  0  0  0  0  0  0  0  0
   24.5447   -8.0544  -16.2269 C   0  0  0  0  0  0  0  0  0  0  0  0
   25.8611   -8.1359  -16.9058 C   0  0  0  0  0  0  0  0  0  0  0  0
   26.1838   -7.2463  -17.7206 O   0  0  0  0  0  0  0  0  0  0  0  0
   21.6892   -7.5966  -16.2271 C   0  0  0  0  0  0  0  0  0  0  0  0
   21.4109   -7.0629  -17.3315 O   0  0  0  0  0  0  0  0  0  0  0  0
   26.7471   -9.1803  -16.6573 O   0  0  0  0  0  0  0  0  0  0  0  0
   21.4767   -6.8314  -15.0534 N   0  0  0  0  0  0  0  0  0  0  0  0
   20.9503   -5.4888  -15.0652 C   0  0  1  0  0  0  0  0  0  0  0  0
   19.5793   -5.3601  -14.4967 C   0  0  0  0  0  0  0  0  0  0  0  0
   19.0164   -4.0219  -14.5202 C   0  0  0  0  0  0  0  0  0  0  0  0
   19.5066   -3.1405  -15.2577 O   0  0  0  0  0  0  0  0  0  0  0  0
   21.9151   -4.5236  -14.4449 C   0  0  0  0  0  0  0  0  0  0  0  0
   22.1858   -3.2820  -15.0041 O   0  0  0  0  0  0  0  0  0  0  0  0
   17.9326   -3.6897  -13.7344 O   0  0  0  0  0  0  0  0  0  0  0  0
   22.5202   -4.8118  -13.3811 O   0  0  0  0  0  0  0  0  0  0  0  0
  2  3  1  0
  2  5  1  0
  2  1  1  1
  4  3  1  0
  5  6  2  0
  7  8  1  0
  7  5  1  0
  8 13  1  0
  8  9  1  6
 10  9  1  0
 10 11  1  0
 11 12  2  0
 13 14  2  0
 13 16  1  0
 15 11  1  0
 16 17  1  0
 17 21  1  0
 17 18  1  1
 19 18  1  0
 20 19  2  0
 21 24  2  0
 21 22  1  0
 23 19  1  0
M  END
$$$$
