PKH.pdb
     RDKit          3D

 27 28  0  0  1  0  0  0  0  0999 V2000
   29.0998  -17.3914  -18.2312 N   0  0  0  0  0  0  0  0  0  0  0  0
   30.2223  -16.8684  -18.9847 C   0  0  0  0  0  0  0  0  0  0  0  0
   30.0785  -17.3721  -20.4012 C   0  0  0  0  0  0  0  0  0  0  0  0
   29.0463  -18.4694  -20.2482 C   0  0  0  0  0  0  0  0  0  0  0  0
   28.1415  -17.8684  -19.1760 C   0  0  1  0  0  0  0  0  0  0  0  0
   27.1577  -18.8147  -18.6549 C   0  0  0  0  0  0  0  0  0  0  0  0
   26.1384  -19.0368  -19.3818 O   0  0  0  0  0  0  0  0  0  0  0  0
   27.2527  -19.4933  -17.4190 N   0  0  0  0  0  0  0  0  0  0  0  0
   26.2185  -20.4067  -17.0118 C   0  0  1  0  0  0  0  0  0  0  0  0
   26.7965  -21.5775  -16.2425 C   0  0  0  0  0  0  0  0  0  0  0  0
   27.6450  -22.4330  -17.1532 C   0  0  0  0  0  0  0  0  0  0  0  0
   28.2963  -23.4977  -16.2916 C   0  0  0  0  0  0  0  0  0  0  0  0
   29.2486  -24.3290  -17.1498 C   0  0  0  0  0  0  0  0  0  0  0  0
   30.0490  -25.2170  -16.3294 N   0  0  0  0  0  0  0  0  0  0  0  0
   25.2357  -19.6575  -16.1767 C   0  0  0  0  0  0  0  0  0  0  0  0
   25.5943  -18.9550  -15.1959 O   0  0  0  0  0  0  0  0  0  0  0  0
   23.8476  -19.7157  -16.4680 N   0  0  0  0  0  0  0  0  0  0  0  0
   22.8796  -19.0094  -15.5807 C   0  0  1  0  0  0  0  0  0  0  0  0
   22.0611  -18.0929  -16.4420 C   0  0  0  0  0  0  0  0  0  0  0  0
   20.9880  -17.3960  -15.7056 C   0  0  0  0  0  0  0  0  0  0  0  0
   20.9059  -16.9203  -14.4194 C   0  0  0  0  0  0  0  0  0  0  0  0
   19.7142  -16.2784  -14.2345 N   0  0  0  0  0  0  0  0  0  0  0  0
   19.0751  -16.3566  -15.3876 C   0  0  0  0  0  0  0  0  0  0  0  0
   19.8034  -17.0166  -16.2923 N   0  0  0  0  0  0  0  0  0  0  0  0
   22.0453  -20.0938  -14.9908 C   0  0  0  0  0  0  0  0  0  0  0  0
   21.4188  -19.8492  -13.7621 O   0  0  0  0  0  0  0  0  0  0  0  0
   21.8751  -21.1895  -15.5199 O   0  0  0  0  0  0  0  0  0  0  0  0
  1  5  1  0
  1  2  1  0
  2  3  1  0
  4  3  1  0
  5  4  1  0
  6  7  2  0
  5  6  1  1
  8  6  1  0
  9 10  1  1
  9  8  1  0
 11 12  1  0
 11 10  1  0
 13 14  1  0
 13 12  1  0
 15  9  1  0
 16 15  2  0
 17 15  1  0
 18 17  1  0
 19 20  1  0
 18 19  1  6
 20 21  2  0
 22 21  1  0
 23 22  1  0
 24 23  2  0
 24 20  1  0
 25 26  1  0
 25 18  1  0
 27 25  2  0
M  END
$$$$
