PKH.pdb
     RDKit          3D

 27 28  0  0  1  0  0  0  0  0999 V2000
   25.4057  -16.0854  -16.3896 N   0  0  0  0  0  0  0  0  0  0  0  0
   26.4579  -15.2855  -15.7943 C   0  0  0  0  0  0  0  0  0  0  0  0
   27.7725  -15.8970  -16.2171 C   0  0  0  0  0  0  0  0  0  0  0  0
   27.3425  -17.2505  -16.7423 C   0  0  0  0  0  0  0  0  0  0  0  0
   26.0097  -16.8971  -17.3968 C   0  0  1  0  0  0  0  0  0  0  0  0
   25.2407  -18.0692  -17.8087 C   0  0  0  0  0  0  0  0  0  0  0  0
   25.2666  -18.3633  -19.0454 O   0  0  0  0  0  0  0  0  0  0  0  0
   24.4797  -18.8905  -16.9465 N   0  0  0  0  0  0  0  0  0  0  0  0
   23.8285  -20.0683  -17.4545 C   0  0  1  0  0  0  0  0  0  0  0  0
   24.8406  -21.0735  -17.9664 C   0  0  0  0  0  0  0  0  0  0  0  0
   25.8125  -21.4406  -16.8701 C   0  0  0  0  0  0  0  0  0  0  0  0
   26.8096  -22.4181  -17.4621 C   0  0  0  0  0  0  0  0  0  0  0  0
   27.7830  -22.8678  -16.3737 C   0  0  0  0  0  0  0  0  0  0  0  0
   28.7459  -23.8178  -16.8958 N   0  0  0  0  0  0  0  0  0  0  0  0
   23.0054  -20.6566  -16.3586 C   0  0  0  0  0  0  0  0  0  0  0  0
   22.4171  -21.7618  -16.4877 O   0  0  0  0  0  0  0  0  0  0  0  0
   22.8594  -19.9775  -15.1206 N   0  0  0  0  0  0  0  0  0  0  0  0
   21.8974  -20.4960  -14.1062 C   0  0  1  0  0  0  0  0  0  0  0  0
   22.5273  -20.3242  -12.7552 C   0  0  0  0  0  0  0  0  0  0  0  0
   23.6155  -21.2852  -12.4871 C   0  0  0  0  0  0  0  0  0  0  0  0
   24.1904  -22.2702  -13.2530 C   0  0  0  0  0  0  0  0  0  0  0  0
   25.2255  -22.8461  -12.5724 N   0  0  0  0  0  0  0  0  0  0  0  0
   25.2871  -22.2249  -11.4085 C   0  0  0  0  0  0  0  0  0  0  0  0
   24.3420  -21.2851  -11.3193 N   0  0  0  0  0  0  0  0  0  0  0  0
   20.6882  -19.6385  -14.2577 C   0  0  0  0  0  0  0  0  0  0  0  0
   19.5671  -19.9351  -13.4721 O   0  0  0  0  0  0  0  0  0  0  0  0
   20.6181  -18.6868  -15.0315 O   0  0  0  0  0  0  0  0  0  0  0  0
  1  5  1  0
  1  2  1  0
  2  3  1  0
  4  3  1  0
  5  4  1  0
  6  7  2  0
  5  6  1  1
  8  6  1  0
  9 10  1  1
  9  8  1  0
 11 12  1  0
 11 10  1  0
 13 14  1  0
 13 12  1  0
 15  9  1  0
 16 15  2  0
 17 15  1  0
 18 17  1  0
 19 20  1  0
 18 19  1  1
 20 21  2  0
 22 21  1  0
 23 22  1  0
 24 23  2  0
 24 20  1  0
 25 26  1  0
 25 18  1  0
 27 25  2  0
M  END
$$$$
