PKH.pdb
     RDKit          3D

 27 28  0  0  1  0  0  0  0  0999 V2000
   25.9634  -25.3677  -17.1518 N   0  0  0  0  0  0  0  0  0  0  0  0
   26.8561  -24.3804  -16.5777 C   0  0  0  0  0  0  0  0  0  0  0  0
   28.2658  -24.8727  -16.8043 C   0  0  0  0  0  0  0  0  0  0  0  0
   28.0425  -26.3212  -17.1845 C   0  0  0  0  0  0  0  0  0  0  0  0
   26.7508  -26.2133  -17.9903 C   0  0  1  0  0  0  0  0  0  0  0  0
   26.1609  -27.5111  -18.3108 C   0  0  0  0  0  0  0  0  0  0  0  0
   25.7270  -27.6638  -19.4962 O   0  0  0  0  0  0  0  0  0  0  0  0
   26.0379  -28.5959  -17.4136 N   0  0  0  0  0  0  0  0  0  0  0  0
   25.4681  -29.8409  -17.8547 C   0  0  1  0  0  0  0  0  0  0  0  0
   26.5493  -30.8580  -18.1600 C   0  0  0  0  0  0  0  0  0  0  0  0
   27.4702  -31.0134  -16.9730 C   0  0  0  0  0  0  0  0  0  0  0  0
   28.4542  -32.1175  -17.3091 C   0  0  0  0  0  0  0  0  0  0  0  0
   29.4405  -32.2838  -16.1542 C   0  0  0  0  0  0  0  0  0  0  0  0
   30.3642  -33.3716  -16.4101 N   0  0  0  0  0  0  0  0  0  0  0  0
   24.5560  -30.3419  -16.7862 C   0  0  0  0  0  0  0  0  0  0  0  0
   24.3916  -29.7188  -15.7051 O   0  0  0  0  0  0  0  0  0  0  0  0
   23.8367  -31.5533  -16.9600 N   0  0  0  0  0  0  0  0  0  0  0  0
   22.4689  -31.6860  -16.3813 C   0  0  1  0  0  0  0  0  0  0  0  0
   21.6468  -30.5404  -16.8945 C   0  0  0  0  0  0  0  0  0  0  0  0
   20.2367  -30.5870  -16.4597 C   0  0  0  0  0  0  0  0  0  0  0  0
   19.6470  -30.9197  -15.2644 C   0  0  0  0  0  0  0  0  0  0  0  0
   18.2960  -30.7326  -15.3425 N   0  0  0  0  0  0  0  0  0  0  0  0
   18.0591  -30.2909  -16.5644 C   0  0  0  0  0  0  0  0  0  0  0  0
   19.1932  -30.1900  -17.2629 N   0  0  0  0  0  0  0  0  0  0  0  0
   21.9657  -32.9916  -16.8935 C   0  0  0  0  0  0  0  0  0  0  0  0
   21.3175  -33.8472  -15.9936 O   0  0  0  0  0  0  0  0  0  0  0  0
   22.0865  -33.3606  -18.0592 O   0  0  0  0  0  0  0  0  0  0  0  0
  1  5  1  0
  1  2  1  0
  2  3  1  0
  4  3  1  0
  5  4  1  0
  6  7  2  0
  5  6  1  1
  8  6  1  0
  9 10  1  1
  9  8  1  0
 11 12  1  0
 11 10  1  0
 13 14  1  0
 13 12  1  0
 15  9  1  0
 16 15  2  0
 17 15  1  0
 18 17  1  0
 19 20  1  0
 18 19  1  6
 20 21  2  0
 22 21  1  0
 23 22  1  0
 24 23  2  0
 24 20  1  0
 25 26  1  0
 25 18  1  0
 27 25  2  0
M  END
$$$$
