PKH.pdb
     RDKit          3D

 27 28  0  0  1  0  0  0  0  0999 V2000
   38.5637  -11.4554   -8.3936 N   0  0  0  0  0  0  0  0  0  0  0  0
   37.4970  -12.3735   -8.7409 C   0  0  0  0  0  0  0  0  0  0  0  0
   36.7935  -12.7418   -7.4563 C   0  0  0  0  0  0  0  0  0  0  0  0
   37.7749  -12.2670   -6.4056 C   0  0  0  0  0  0  0  0  0  0  0  0
   38.3135  -10.9997   -7.0639 C   0  0  1  0  0  0  0  0  0  0  0  0
   39.4630  -10.4303   -6.3645 C   0  0  0  0  0  0  0  0  0  0  0  0
   39.2796  -10.0790   -5.1563 O   0  0  0  0  0  0  0  0  0  0  0  0
   40.7476  -10.2430   -6.9229 N   0  0  0  0  0  0  0  0  0  0  0  0
   41.7886   -9.6161   -6.1531 C   0  0  1  0  0  0  0  0  0  0  0  0
   43.1030  -10.3541   -6.3099 C   0  0  0  0  0  0  0  0  0  0  0  0
   44.1754   -9.6936   -5.4764 C   0  0  0  0  0  0  0  0  0  0  0  0
   45.4266  -10.5420   -5.5994 C   0  0  0  0  0  0  0  0  0  0  0  0
   46.5295   -9.9449   -4.7269 C   0  0  0  0  0  0  0  0  0  0  0  0
   47.7571  -10.7073   -4.8443 N   0  0  0  0  0  0  0  0  0  0  0  0
   41.9181   -8.2013   -6.6072 C   0  0  0  0  0  0  0  0  0  0  0  0
   42.0338   -7.9006   -7.8239 O   0  0  0  0  0  0  0  0  0  0  0  0
   41.9145   -7.1377   -5.6671 N   0  0  0  0  0  0  0  0  0  0  0  0
   41.8411   -5.7291   -6.1504 C   0  0  1  0  0  0  0  0  0  0  0  0
   40.7191   -5.0560   -5.4158 C   0  0  0  0  0  0  0  0  0  0  0  0
   39.3904   -5.3180   -6.0036 C   0  0  0  0  0  0  0  0  0  0  0  0
   38.9846   -6.0811   -7.0715 C   0  0  0  0  0  0  0  0  0  0  0  0
   37.6222   -6.0579   -7.1706 N   0  0  0  0  0  0  0  0  0  0  0  0
   37.1974   -5.2950   -6.1798 C   0  0  0  0  0  0  0  0  0  0  0  0
   38.2237   -4.8342   -5.4594 N   0  0  0  0  0  0  0  0  0  0  0  0
   43.1606   -5.1365   -5.7929 C   0  0  0  0  0  0  0  0  0  0  0  0
   43.5968   -4.0162   -6.5118 O   0  0  0  0  0  0  0  0  0  0  0  0
   43.8876   -5.5736   -4.9041 O   0  0  0  0  0  0  0  0  0  0  0  0
  1  5  1  0
  1  2  1  0
  2  3  1  0
  4  3  1  0
  5  4  1  0
  6  7  2  0
  5  6  1  1
  8  6  1  0
  9 10  1  6
  9  8  1  0
 11 12  1  0
 11 10  1  0
 13 14  1  0
 13 12  1  0
 15  9  1  0
 16 15  2  0
 17 15  1  0
 18 17  1  0
 19 20  1  0
 18 19  1  1
 20 21  2  0
 22 21  1  0
 23 22  1  0
 24 23  2  0
 24 20  1  0
 25 26  1  0
 25 18  1  0
 27 25  2  0
M  END
$$$$
