PKH.pdb
     RDKit          3D

 27 28  0  0  1  0  0  0  0  0999 V2000
   23.0300  -11.8921  -18.8595 N   0  0  0  0  0  0  0  0  0  0  0  0
   23.4492  -12.8923  -19.8213 C   0  0  0  0  0  0  0  0  0  0  0  0
   22.6101  -12.6940  -21.0612 C   0  0  0  0  0  0  0  0  0  0  0  0
   21.4990  -11.7977  -20.5565 C   0  0  0  0  0  0  0  0  0  0  0  0
   22.2616  -10.9196  -19.5681 C   0  0  1  0  0  0  0  0  0  0  0  0
   21.3888  -10.0836  -18.7469 C   0  0  0  0  0  0  0  0  0  0  0  0
   20.8431   -9.0900  -19.3228 O   0  0  0  0  0  0  0  0  0  0  0  0
   21.1091  -10.2937  -17.3778 N   0  0  0  0  0  0  0  0  0  0  0  0
   20.1598   -9.4561  -16.6947 C   0  0  1  0  0  0  0  0  0  0  0  0
   19.4588  -10.2168  -15.5870 C   0  0  0  0  0  0  0  0  0  0  0  0
   18.2988  -11.0048  -16.1478 C   0  0  0  0  0  0  0  0  0  0  0  0
   17.6201  -11.6972  -14.9816 C   0  0  0  0  0  0  0  0  0  0  0  0
   16.4145  -12.4839  -15.4934 C   0  0  0  0  0  0  0  0  0  0  0  0
   15.7622  -13.1989  -14.4139 N   0  0  0  0  0  0  0  0  0  0  0  0
   20.8876   -8.2748  -16.1476 C   0  0  0  0  0  0  0  0  0  0  0  0
   22.0437   -8.3726  -15.6595 O   0  0  0  0  0  0  0  0  0  0  0  0
   20.2893   -6.9876  -16.1616 N   0  0  0  0  0  0  0  0  0  0  0  0
   21.0171   -5.8316  -15.5637 C   0  0  1  0  0  0  0  0  0  0  0  0
   20.5502   -4.5904  -16.2658 C   0  0  0  0  0  0  0  0  0  0  0  0
   21.1865   -3.3562  -15.7642 C   0  0  0  0  0  0  0  0  0  0  0  0
   22.4296   -3.1042  -15.2362 C   0  0  0  0  0  0  0  0  0  0  0  0
   22.5681   -1.7684  -14.9858 N   0  0  0  0  0  0  0  0  0  0  0  0
   21.4304   -1.2083  -15.3549 C   0  0  0  0  0  0  0  0  0  0  0  0
   20.5793   -2.1238  -15.8258 N   0  0  0  0  0  0  0  0  0  0  0  0
   20.6147   -5.8315  -14.1291 C   0  0  0  0  0  0  0  0  0  0  0  0
   21.3897   -5.0912  -13.2271 O   0  0  0  0  0  0  0  0  0  0  0  0
   19.6427   -6.4427  -13.6920 O   0  0  0  0  0  0  0  0  0  0  0  0
  1  5  1  0
  1  2  1  0
  2  3  1  0
  4  3  1  0
  5  4  1  0
  6  7  2  0
  5  6  1  1
  8  6  1  0
  9 10  1  1
  9  8  1  0
 11 12  1  0
 11 10  1  0
 13 14  1  0
 13 12  1  0
 15  9  1  0
 16 15  2  0
 17 15  1  0
 18 17  1  0
 19 20  1  0
 18 19  1  6
 20 21  2  0
 22 21  1  0
 23 22  1  0
 24 23  2  0
 24 20  1  0
 25 26  1  0
 25 18  1  0
 27 25  2  0
M  END
$$$$
