PKH.pdb
     RDKit          3D

 27 28  0  0  1  0  0  0  0  0999 V2000
   16.9179  -12.4236  -13.2846 N   0  0  0  0  0  0  0  0  0  0  0  0
   16.8204  -13.5099  -14.2394 C   0  0  0  0  0  0  0  0  0  0  0  0
   15.9772  -13.0141  -15.3901 C   0  0  0  0  0  0  0  0  0  0  0  0
   15.3458  -11.7659  -14.8107 C   0  0  0  0  0  0  0  0  0  0  0  0
   16.4894  -11.2355  -13.9503 C   0  0  1  0  0  0  0  0  0  0  0  0
   16.0919  -10.1318  -13.0792 C   0  0  0  0  0  0  0  0  0  0  0  0
   15.7790   -9.0390  -13.6490 O   0  0  0  0  0  0  0  0  0  0  0  0
   16.0298  -10.1868  -11.6685 N   0  0  0  0  0  0  0  0  0  0  0  0
   15.4644   -9.0933  -10.9243 C   0  0  1  0  0  0  0  0  0  0  0  0
   14.5546   -9.5964   -9.8216 C   0  0  0  0  0  0  0  0  0  0  0  0
   13.1719   -9.8643  -10.3670 C   0  0  0  0  0  0  0  0  0  0  0  0
   12.2878  -10.2305   -9.1903 C   0  0  0  0  0  0  0  0  0  0  0  0
   10.8881  -10.5737   -9.6978 C   0  0  0  0  0  0  0  0  0  0  0  0
   10.0554  -11.0831   -8.6258 N   0  0  0  0  0  0  0  0  0  0  0  0
   16.5832   -8.2842  -10.3601 C   0  0  0  0  0  0  0  0  0  0  0  0
   17.3704   -8.7488   -9.4948 O   0  0  0  0  0  0  0  0  0  0  0  0
   16.7957   -6.9477  -10.7886 N   0  0  0  0  0  0  0  0  0  0  0  0
   17.9170   -6.1574  -10.2043 C   0  0  1  0  0  0  0  0  0  0  0  0
   18.7839   -5.6943  -11.3381 C   0  0  0  0  0  0  0  0  0  0  0  0
   19.5947   -6.7728  -11.9373 C   0  0  0  0  0  0  0  0  0  0  0  0
   19.6980   -8.1150  -11.6628 C   0  0  0  0  0  0  0  0  0  0  0  0
   20.5428   -8.7103  -12.5562 N   0  0  0  0  0  0  0  0  0  0  0  0
   20.9507   -7.7511  -13.3672 C   0  0  0  0  0  0  0  0  0  0  0  0
   20.4063   -6.5787  -13.0305 N   0  0  0  0  0  0  0  0  0  0  0  0
   17.2561   -5.0113   -9.5191 C   0  0  0  0  0  0  0  0  0  0  0  0
   18.0126   -4.2622   -8.6088 O   0  0  0  0  0  0  0  0  0  0  0  0
   16.0864   -4.6854   -9.7066 O   0  0  0  0  0  0  0  0  0  0  0  0
  1  5  1  0
  1  2  1  0
  2  3  1  0
  4  3  1  0
  5  4  1  0
  6  7  2  0
  5  6  1  1
  8  6  1  0
  9 10  1  1
  9  8  1  0
 11 12  1  0
 11 10  1  0
 13 14  1  0
 13 12  1  0
 15  9  1  0
 16 15  2  0
 17 15  1  0
 18 17  1  0
 19 20  1  0
 18 19  1  6
 20 21  2  0
 22 21  1  0
 23 22  1  0
 24 23  2  0
 24 20  1  0
 25 26  1  0
 25 18  1  0
 27 25  2  0
M  END
$$$$
