PKH.pdb
     RDKit          3D

 27 28  0  0  1  0  0  0  0  0999 V2000
   24.1990  -12.5511  -15.3976 N   0  0  0  0  0  0  0  0  0  0  0  0
   24.9498  -13.7890  -15.4698 C   0  0  0  0  0  0  0  0  0  0  0  0
   24.5573  -14.4708  -16.7590 C   0  0  0  0  0  0  0  0  0  0  0  0
   23.3077  -13.7129  -17.1551 C   0  0  0  0  0  0  0  0  0  0  0  0
   23.6683  -12.3016  -16.6993 C   0  0  1  0  0  0  0  0  0  0  0  0
   22.5421  -11.3724  -16.7548 C   0  0  0  0  0  0  0  0  0  0  0  0
   22.3764  -10.7407  -17.8458 O   0  0  0  0  0  0  0  0  0  0  0  0
   21.6345  -11.1257  -15.7001 N   0  0  0  0  0  0  0  0  0  0  0  0
   20.5782  -10.1628  -15.8626 C   0  0  1  0  0  0  0  0  0  0  0  0
   19.3032  -10.6331  -15.1918 C   0  0  0  0  0  0  0  0  0  0  0  0
   18.7349  -11.8237  -15.9269 C   0  0  0  0  0  0  0  0  0  0  0  0
   17.5075  -12.2805  -15.1619 C   0  0  0  0  0  0  0  0  0  0  0  0
   16.9193  -13.5157  -15.8419 C   0  0  0  0  0  0  0  0  0  0  0  0
   16.5652  -13.2337  -17.2192 N   0  0  0  0  0  0  0  0  0  0  0  0
   21.0346   -8.8664  -15.2830 C   0  0  0  0  0  0  0  0  0  0  0  0
   21.9016   -8.8129  -14.3722 O   0  0  0  0  0  0  0  0  0  0  0  0
   20.4968   -7.6379  -15.7484 N   0  0  0  0  0  0  0  0  0  0  0  0
   21.1993   -6.3611  -15.4331 C   0  0  1  0  0  0  0  0  0  0  0  0
   22.5803   -6.4487  -16.0132 C   0  0  0  0  0  0  0  0  0  0  0  0
   23.3025   -5.1610  -16.0102 C   0  0  0  0  0  0  0  0  0  0  0  0
   23.2632   -4.0795  -15.1640 C   0  0  0  0  0  0  0  0  0  0  0  0
   24.1864   -3.1500  -15.5515 N   0  0  0  0  0  0  0  0  0  0  0  0
   24.7842   -3.6520  -16.6167 C   0  0  0  0  0  0  0  0  0  0  0  0
   24.2845   -4.8525  -16.9223 N   0  0  0  0  0  0  0  0  0  0  0  0
   20.3901   -5.3069  -16.1069 C   0  0  0  0  0  0  0  0  0  0  0  0
   19.5922   -5.6831  -17.1951 O   0  0  0  0  0  0  0  0  0  0  0  0
   20.3821   -4.1274  -15.7631 O   0  0  0  0  0  0  0  0  0  0  0  0
  1  5  1  0
  1  2  1  0
  2  3  1  0
  4  3  1  0
  5  4  1  0
  6  7  2  0
  5  6  1  1
  8  6  1  0
  9 10  1  1
  9  8  1  0
 11 12  1  0
 11 10  1  0
 13 14  1  0
 13 12  1  0
 15  9  1  0
 16 15  2  0
 17 15  1  0
 18 17  1  0
 19 20  1  0
 18 19  1  6
 20 21  2  0
 22 21  1  0
 23 22  1  0
 24 23  2  0
 24 20  1  0
 25 26  1  0
 25 18  1  0
 27 25  2  0
M  END
$$$$
