QKA.pdb
     RDKit          3D

 24 23  0  0  1  0  0  0  0  0999 V2000
   23.2928  -11.1973  -15.8012 N   0  0  0  0  0  0  0  0  0  0  0  0
   22.5980  -11.8996  -16.8055 C   0  0  0  0  0  0  0  0  0  0  0  0
   23.2543  -12.6158  -17.6057 O   0  0  0  0  0  0  0  0  0  0  0  0
   21.0986  -11.7877  -16.9097 C   0  0  0  0  0  0  0  0  0  0  0  0
   20.5976  -10.9854  -15.7410 C   0  0  0  0  0  0  0  0  0  0  0  0
   19.1486  -10.6702  -15.7741 C   0  0  2  0  0  0  0  0  0  0  0  0
   18.7158  -10.6864  -17.1587 N   0  0  0  0  0  0  0  0  0  0  0  0
   18.7704   -9.3732  -15.1799 C   0  0  0  0  0  0  0  0  0  0  0  0
   18.5717   -8.3368  -15.8650 O   0  0  0  0  0  0  0  0  0  0  0  0
   18.6032   -9.2106  -13.7616 N   0  0  0  0  0  0  0  0  0  0  0  0
   18.2345   -7.9851  -13.1313 C   0  0  1  0  0  0  0  0  0  0  0  0
   17.5383   -8.1799  -11.7996 C   0  0  0  0  0  0  0  0  0  0  0  0
   17.0649   -6.8805  -11.2007 C   0  0  0  0  0  0  0  0  0  0  0  0
   16.3608   -7.2411   -9.8979 C   0  0  0  0  0  0  0  0  0  0  0  0
   15.6764   -6.0417   -9.2889 C   0  0  0  0  0  0  0  0  0  0  0  0
   15.0785   -6.4584   -8.0341 N   0  0  0  0  0  0  0  0  0  0  0  0
   19.5133   -7.2509  -12.8193 C   0  0  0  0  0  0  0  0  0  0  0  0
   20.2532   -7.7138  -11.9190 O   0  0  0  0  0  0  0  0  0  0  0  0
   22.2180   -5.9436  -14.2370 C   0  0  0  0  0  0  0  0  0  0  0  0
   21.1892   -5.4765  -13.2349 C   0  0  2  0  0  0  0  0  0  0  0  0
   19.8982   -6.0834  -13.4930 N   0  0  0  0  0  0  0  0  0  0  0  0
   21.0403   -4.0020  -13.2392 C   0  0  0  0  0  0  0  0  0  0  0  0
   19.9664   -3.4728  -13.6198 O   0  0  0  0  0  0  0  0  0  0  0  0
   22.0586   -3.1531  -12.8315 O   0  0  0  0  0  0  0  0  0  0  0  0
  2  1  1  0
  2  3  2  0
  4  2  1  0
  5  4  1  0
  6  5  1  0
  6  8  1  0
  6  7  1  6
  8  9  2  0
 10  8  1  0
 10 11  1  0
 11 17  1  0
 11 12  1  1
 12 13  1  0
 13 14  1  0
 14 15  1  0
 16 15  1  0
 17 18  2  0
 20 19  1  6
 21 20  1  0
 21 17  1  0
 22 24  1  0
 22 20  1  0
 23 22  2  0
M  END
$$$$
