QKA.pdb
     RDKit          3D

 24 23  0  0  1  0  0  0  0  0999 V2000
   25.7437  -20.4644  -21.2374 N   0  0  0  0  0  0  0  0  0  0  0  0
   25.0450  -21.2144  -20.2708 C   0  0  0  0  0  0  0  0  0  0  0  0
   25.6418  -22.1595  -19.6926 O   0  0  0  0  0  0  0  0  0  0  0  0
   23.6116  -20.8820  -19.9444 C   0  0  0  0  0  0  0  0  0  0  0  0
   23.1757  -19.7393  -20.8189 C   0  0  0  0  0  0  0  0  0  0  0  0
   23.2743  -18.3989  -20.1916 C   0  0  2  0  0  0  0  0  0  0  0  0
   22.7475  -18.4929  -18.8431 N   0  0  0  0  0  0  0  0  0  0  0  0
   22.5624  -17.3164  -20.8986 C   0  0  0  0  0  0  0  0  0  0  0  0
   21.9333  -17.4969  -21.9730 O   0  0  0  0  0  0  0  0  0  0  0  0
   22.5431  -15.9696  -20.3969 N   0  0  0  0  0  0  0  0  0  0  0  0
   21.7837  -14.9083  -20.9733 C   0  0  1  0  0  0  0  0  0  0  0  0
   20.7862  -14.2928  -20.0131 C   0  0  0  0  0  0  0  0  0  0  0  0
   19.9493  -13.2195  -20.6603 C   0  0  0  0  0  0  0  0  0  0  0  0
   18.9534  -12.7576  -19.6030 C   0  0  0  0  0  0  0  0  0  0  0  0
   17.9976  -11.7286  -20.1558 C   0  0  0  0  0  0  0  0  0  0  0  0
   17.0829  -11.3530  -19.0937 N   0  0  0  0  0  0  0  0  0  0  0  0
   22.7562  -13.8077  -21.3120 C   0  0  0  0  0  0  0  0  0  0  0  0
   23.4811  -13.3591  -20.3925 O   0  0  0  0  0  0  0  0  0  0  0  0
   24.5835  -12.4981  -24.1635 C   0  0  0  0  0  0  0  0  0  0  0  0
   23.8350  -12.2247  -22.8805 C   0  0  2  0  0  0  0  0  0  0  0  0
   22.8758  -13.2758  -22.6035 N   0  0  0  0  0  0  0  0  0  0  0  0
   23.1287  -10.9223  -22.9171 C   0  0  0  0  0  0  0  0  0  0  0  0
   21.8874  -10.8776  -23.1050 O   0  0  0  0  0  0  0  0  0  0  0  0
   23.7908   -9.7152  -22.7491 O   0  0  0  0  0  0  0  0  0  0  0  0
  2  1  1  0
  2  3  2  0
  4  2  1  0
  5  4  1  0
  6  5  1  0
  6  8  1  0
  6  7  1  1
  8  9  2  0
 10  8  1  0
 10 11  1  0
 11 17  1  0
 11 12  1  1
 12 13  1  0
 13 14  1  0
 14 15  1  0
 16 15  1  0
 17 18  2  0
 20 19  1  6
 21 20  1  0
 21 17  1  0
 22 24  1  0
 22 20  1  0
 23 22  2  0
M  END
$$$$
