QKA.pdb
     RDKit          3D

 24 23  0  0  1  0  0  0  0  0999 V2000
   23.4710  -16.9124  -17.2990 N   0  0  0  0  0  0  0  0  0  0  0  0
   24.7610  -16.8857  -17.8648 C   0  0  0  0  0  0  0  0  0  0  0  0
   25.3486  -15.7785  -17.9766 O   0  0  0  0  0  0  0  0  0  0  0  0
   25.4139  -18.1644  -18.3233 C   0  0  0  0  0  0  0  0  0  0  0  0
   24.4992  -19.3116  -17.9953 C   0  0  0  0  0  0  0  0  0  0  0  0
   24.7207  -19.9272  -16.6641 C   0  0  2  0  0  0  0  0  0  0  0  0
   26.0378  -20.5353  -16.6627 N   0  0  0  0  0  0  0  0  0  0  0  0
   23.7321  -20.9491  -16.2681 C   0  0  0  0  0  0  0  0  0  0  0  0
   23.6809  -22.0925  -16.7905 O   0  0  0  0  0  0  0  0  0  0  0  0
   22.7524  -20.6985  -15.2467 N   0  0  0  0  0  0  0  0  0  0  0  0
   21.7953  -21.6570  -14.7989 C   0  0  1  0  0  0  0  0  0  0  0  0
   21.3448  -21.4338  -13.3696 C   0  0  0  0  0  0  0  0  0  0  0  0
   20.3082  -22.4350  -12.9285 C   0  0  0  0  0  0  0  0  0  0  0  0
   20.0477  -22.1592  -11.4523 C   0  0  0  0  0  0  0  0  0  0  0  0
   18.9974  -23.0877  -10.8932 C   0  0  0  0  0  0  0  0  0  0  0  0
   18.6582  -22.6266   -9.5598 N   0  0  0  0  0  0  0  0  0  0  0  0
   20.5633  -21.4753  -15.6479 C   0  0  0  0  0  0  0  0  0  0  0  0
   20.1758  -20.3056  -15.8804 O   0  0  0  0  0  0  0  0  0  0  0  0
   18.7045  -23.2407  -18.2248 C   0  0  0  0  0  0  0  0  0  0  0  0
   18.6882  -22.3272  -17.0222 C   0  0  2  0  0  0  0  0  0  0  0  0
   19.8453  -22.5558  -16.1793 N   0  0  0  0  0  0  0  0  0  0  0  0
   17.4586  -22.4978  -16.2127 C   0  0  0  0  0  0  0  0  0  0  0  0
   17.5156  -23.0247  -15.0737 O   0  0  0  0  0  0  0  0  0  0  0  0
   16.2116  -22.0923  -16.6646 O   0  0  0  0  0  0  0  0  0  0  0  0
  2  1  1  0
  2  3  2  0
  4  2  1  0
  5  4  1  0
  6  5  1  0
  6  8  1  0
  6  7  1  6
  8  9  2  0
 10  8  1  0
 10 11  1  0
 11 17  1  0
 11 12  1  1
 12 13  1  0
 13 14  1  0
 14 15  1  0
 16 15  1  0
 17 18  2  0
 20 19  1  6
 21 20  1  0
 21 17  1  0
 22 24  1  0
 22 20  1  0
 23 22  2  0
M  END
$$$$
