QKA.pdb
     RDKit          3D

 24 23  0  0  1  0  0  0  0  0999 V2000
   27.7896  -11.1685  -16.1485 N   0  0  0  0  0  0  0  0  0  0  0  0
   27.3830  -12.4911  -15.8833 C   0  0  0  0  0  0  0  0  0  0  0  0
   28.2512  -13.3299  -15.5276 O   0  0  0  0  0  0  0  0  0  0  0  0
   25.9344  -12.8817  -16.0263 C   0  0  0  0  0  0  0  0  0  0  0  0
   25.1359  -11.6471  -16.3403 C   0  0  0  0  0  0  0  0  0  0  0  0
   23.6777  -11.8686  -16.4974 C   0  0  2  0  0  0  0  0  0  0  0  0
   23.4759  -12.7520  -17.6303 N   0  0  0  0  0  0  0  0  0  0  0  0
   22.8721  -10.6494  -16.7043 C   0  0  0  0  0  0  0  0  0  0  0  0
   22.6370  -10.1677  -17.8425 O   0  0  0  0  0  0  0  0  0  0  0  0
   22.2976   -9.9260  -15.6031 N   0  0  0  0  0  0  0  0  0  0  0  0
   21.4120   -8.8166  -15.7451 C   0  0  1  0  0  0  0  0  0  0  0  0
   20.0592   -9.0412  -15.1005 C   0  0  0  0  0  0  0  0  0  0  0  0
   19.1838   -9.9677  -15.9046 C   0  0  0  0  0  0  0  0  0  0  0  0
   17.9118  -10.1693  -15.0896 C   0  0  0  0  0  0  0  0  0  0  0  0
   16.9096  -11.0207  -15.8303 C   0  0  0  0  0  0  0  0  0  0  0  0
   15.8044  -11.2938  -14.9306 N   0  0  0  0  0  0  0  0  0  0  0  0
   22.0323   -7.6628  -14.9997 C   0  0  0  0  0  0  0  0  0  0  0  0
   22.4885   -7.8804  -13.8522 O   0  0  0  0  0  0  0  0  0  0  0  0
   23.0167   -4.1079  -15.6739 C   0  0  0  0  0  0  0  0  0  0  0  0
   22.7373   -5.2988  -14.7881 C   0  0  2  0  0  0  0  0  0  0  0  0
   22.1153   -6.3715  -15.5391 N   0  0  0  0  0  0  0  0  0  0  0  0
   21.8690   -4.9448  -13.6404 C   0  0  0  0  0  0  0  0  0  0  0  0
   20.6406   -5.2060  -13.6687 O   0  0  0  0  0  0  0  0  0  0  0  0
   22.3611   -4.3210  -12.5035 O   0  0  0  0  0  0  0  0  0  0  0  0
  2  1  1  0
  2  3  2  0
  4  2  1  0
  5  4  1  0
  6  5  1  0
  6  8  1  0
  6  7  1  6
  8  9  2  0
 10  8  1  0
 10 11  1  0
 11 17  1  0
 11 12  1  1
 12 13  1  0
 13 14  1  0
 14 15  1  0
 16 15  1  0
 17 18  2  0
 20 19  1  6
 21 20  1  0
 21 17  1  0
 22 24  1  0
 22 20  1  0
 23 22  2  0
M  END
$$$$
