QKA.pdb
     RDKit          3D

 24 23  0  0  1  0  0  0  0  0999 V2000
   20.1182  -21.5690  -17.6456 N   0  0  0  0  0  0  0  0  0  0  0  0
   19.1202  -22.1772  -16.8590 C   0  0  0  0  0  0  0  0  0  0  0  0
   18.5125  -23.1774  -17.3218 O   0  0  0  0  0  0  0  0  0  0  0  0
   18.7956  -21.6320  -15.4919 C   0  0  0  0  0  0  0  0  0  0  0  0
   19.9479  -20.7833  -15.0307 C   0  0  0  0  0  0  0  0  0  0  0  0
   21.1551  -21.5394  -14.6172 C   0  0  2  0  0  0  0  0  0  0  0  0
   20.8354  -22.2709  -13.4059 N   0  0  0  0  0  0  0  0  0  0  0  0
   22.3580  -20.7215  -14.3672 C   0  0  0  0  0  0  0  0  0  0  0  0
   22.3067  -19.5380  -13.9434 O   0  0  0  0  0  0  0  0  0  0  0  0
   23.6817  -21.2331  -14.5954 N   0  0  0  0  0  0  0  0  0  0  0  0
   24.8809  -20.5403  -14.2529 C   0  0  1  0  0  0  0  0  0  0  0  0
   25.7371  -21.2822  -13.2467 C   0  0  0  0  0  0  0  0  0  0  0  0
   26.0820  -20.4364  -12.0480 C   0  0  0  0  0  0  0  0  0  0  0  0
   25.4374  -21.1154  -10.8453 C   0  0  0  0  0  0  0  0  0  0  0  0
   25.6993  -20.3492   -9.5716 C   0  0  0  0  0  0  0  0  0  0  0  0
   25.0448  -21.0533   -8.4846 N   0  0  0  0  0  0  0  0  0  0  0  0
   25.7102  -20.4533  -15.5084 C   0  0  0  0  0  0  0  0  0  0  0  0
   25.8244  -21.4854  -16.2112 O   0  0  0  0  0  0  0  0  0  0  0  0
   27.6633  -17.8502  -17.3968 C   0  0  0  0  0  0  0  0  0  0  0  0
   27.1263  -19.2374  -17.1353 C   0  0  2  0  0  0  0  0  0  0  0  0
   26.3498  -19.2727  -15.9116 N   0  0  0  0  0  0  0  0  0  0  0  0
   28.2100  -20.2447  -17.0501 C   0  0  0  0  0  0  0  0  0  0  0  0
   28.4861  -20.9663  -18.0407 O   0  0  0  0  0  0  0  0  0  0  0  0
   28.9557  -20.4351  -15.8963 O   0  0  0  0  0  0  0  0  0  0  0  0
  2  1  1  0
  2  3  2  0
  4  2  1  0
  5  4  1  0
  6  5  1  0
  6  8  1  0
  6  7  1  1
  8  9  2  0
 10  8  1  0
 10 11  1  0
 11 17  1  0
 11 12  1  1
 12 13  1  0
 13 14  1  0
 14 15  1  0
 16 15  1  0
 17 18  2  0
 20 19  1  1
 21 20  1  0
 21 17  1  0
 22 24  1  0
 22 20  1  0
 23 22  2  0
M  END
$$$$
