QKA.pdb
     RDKit          3D

 24 23  0  0  1  0  0  0  0  0999 V2000
   11.0747  -10.7092  -10.3691 N   0  0  0  0  0  0  0  0  0  0  0  0
   11.0085  -11.9016  -11.1163 C   0  0  0  0  0  0  0  0  0  0  0  0
   10.0448  -12.6862  -10.9175 O   0  0  0  0  0  0  0  0  0  0  0  0
   12.0766  -12.2205  -12.1308 C   0  0  0  0  0  0  0  0  0  0  0  0
   12.9812  -11.0269  -12.2626 C   0  0  0  0  0  0  0  0  0  0  0  0
   14.3464  -11.3286  -12.7578 C   0  0  2  0  0  0  0  0  0  0  0  0
   14.5668  -12.7567  -12.6290 N   0  0  0  0  0  0  0  0  0  0  0  0
   15.4407  -10.6210  -12.0648 C   0  0  0  0  0  0  0  0  0  0  0  0
   16.0343  -11.0921  -11.0605 O   0  0  0  0  0  0  0  0  0  0  0  0
   15.9030   -9.3315  -12.4999 N   0  0  0  0  0  0  0  0  0  0  0  0
   16.9275   -8.5831  -11.8475 C   0  0  1  0  0  0  0  0  0  0  0  0
   17.8973   -7.9267  -12.8091 C   0  0  0  0  0  0  0  0  0  0  0  0
   18.9427   -7.1033  -12.1017 C   0  0  0  0  0  0  0  0  0  0  0  0
   19.8759   -6.5746  -13.1845 C   0  0  0  0  0  0  0  0  0  0  0  0
   20.9812   -5.7306  -12.5981 C   0  0  0  0  0  0  0  0  0  0  0  0
   21.7042   -5.1163  -13.6961 N   0  0  0  0  0  0  0  0  0  0  0  0
   16.2475   -7.4524  -11.1190 C   0  0  0  0  0  0  0  0  0  0  0  0
   15.5449   -6.6587  -11.7888 O   0  0  0  0  0  0  0  0  0  0  0  0
   15.5988   -6.4163   -7.5811 C   0  0  0  0  0  0  0  0  0  0  0  0
   15.6538   -6.1901   -9.0734 C   0  0  2  0  0  0  0  0  0  0  0  0
   16.3724   -7.2608   -9.7359 N   0  0  0  0  0  0  0  0  0  0  0  0
   16.2904   -4.8961   -9.4151 C   0  0  0  0  0  0  0  0  0  0  0  0
   15.7954   -3.8166   -9.0055 O   0  0  0  0  0  0  0  0  0  0  0  0
   17.4396   -4.8167  -10.1876 O   0  0  0  0  0  0  0  0  0  0  0  0
  2  1  1  0
  2  3  2  0
  4  2  1  0
  5  4  1  0
  6  5  1  0
  6  8  1  0
  6  7  1  1
  8  9  2  0
 10  8  1  0
 10 11  1  0
 11 17  1  0
 11 12  1  6
 12 13  1  0
 13 14  1  0
 14 15  1  0
 16 15  1  0
 17 18  2  0
 20 19  1  1
 21 20  1  0
 21 17  1  0
 22 24  1  0
 22 20  1  0
 23 22  2  0
M  END
$$$$
