QKA.pdb
     RDKit          3D

 24 23  0  0  1  0  0  0  0  0999 V2000
   29.4309  -22.3645  -19.2906 N   0  0  0  0  0  0  0  0  0  0  0  0
   30.1769  -22.7655  -18.1647 C   0  0  0  0  0  0  0  0  0  0  0  0
   31.4316  -22.6796  -18.2098 O   0  0  0  0  0  0  0  0  0  0  0  0
   29.4749  -23.2854  -16.9365 C   0  0  0  0  0  0  0  0  0  0  0  0
   27.9925  -23.2555  -17.1854 C   0  0  0  0  0  0  0  0  0  0  0  0
   27.2973  -22.0476  -16.6773 C   0  0  2  0  0  0  0  0  0  0  0  0
   27.6931  -21.8480  -15.2960 N   0  0  0  0  0  0  0  0  0  0  0  0
   25.8235  -22.0932  -16.7408 C   0  0  0  0  0  0  0  0  0  0  0  0
   25.1782  -23.1544  -16.9415 O   0  0  0  0  0  0  0  0  0  0  0  0
   25.0220  -20.9117  -16.5749 N   0  0  0  0  0  0  0  0  0  0  0  0
   23.5954  -20.9025  -16.5708 C   0  0  1  0  0  0  0  0  0  0  0  0
   23.0037  -19.9021  -15.5987 C   0  0  0  0  0  0  0  0  0  0  0  0
   21.5001  -19.8393  -15.6795 C   0  0  0  0  0  0  0  0  0  0  0  0
   21.0557  -18.8409  -14.6171 C   0  0  0  0  0  0  0  0  0  0  0  0
   19.5529  -18.7076  -14.5777 C   0  0  0  0  0  0  0  0  0  0  0  0
   19.2179  -17.7319  -13.5572 N   0  0  0  0  0  0  0  0  0  0  0  0
   23.1564  -20.4496  -17.9397 C   0  0  0  0  0  0  0  0  0  0  0  0
   23.6506  -19.3915  -18.3963 O   0  0  0  0  0  0  0  0  0  0  0  0
   21.1216  -21.7549  -20.8030 C   0  0  0  0  0  0  0  0  0  0  0  0
   21.8239  -20.6752  -20.0142 C   0  0  2  0  0  0  0  0  0  0  0  0
   22.2264  -21.1622  -18.7095 N   0  0  0  0  0  0  0  0  0  0  0  0
   20.9744  -19.4732  -19.8411 C   0  0  0  0  0  0  0  0  0  0  0  0
   20.3464  -19.2878  -18.7690 O   0  0  0  0  0  0  0  0  0  0  0  0
   20.8349  -18.5150  -20.8342 O   0  0  0  0  0  0  0  0  0  0  0  0
  2  1  1  0
  2  3  2  0
  4  2  1  0
  5  4  1  0
  6  5  1  0
  6  8  1  0
  6  7  1  1
  8  9  2  0
 10  8  1  0
 10 11  1  0
 11 17  1  0
 11 12  1  1
 12 13  1  0
 13 14  1  0
 14 15  1  0
 16 15  1  0
 17 18  2  0
 20 19  1  1
 21 20  1  0
 21 17  1  0
 22 24  1  0
 22 20  1  0
 23 22  2  0
M  END
$$$$
