QKA.pdb
     RDKit          3D

 24 23  0  0  1  0  0  0  0  0999 V2000
   34.6016  -31.0858  -20.0440 N   0  0  0  0  0  0  0  0  0  0  0  0
   34.3471  -30.1851  -21.0970 C   0  0  0  0  0  0  0  0  0  0  0  0
   34.6956  -30.5054  -22.2631 O   0  0  0  0  0  0  0  0  0  0  0  0
   33.6704  -28.8672  -20.8201 C   0  0  0  0  0  0  0  0  0  0  0  0
   33.1966  -28.8646  -19.3932 C   0  0  0  0  0  0  0  0  0  0  0  0
   32.3945  -27.6795  -19.0029 C   0  0  2  0  0  0  0  0  0  0  0  0
   33.3107  -26.6210  -18.6227 N   0  0  0  0  0  0  0  0  0  0  0  0
   31.4438  -27.8970  -17.8951 C   0  0  0  0  0  0  0  0  0  0  0  0
   31.7710  -27.8097  -16.6834 O   0  0  0  0  0  0  0  0  0  0  0  0
   30.0654  -28.2268  -18.1345 N   0  0  0  0  0  0  0  0  0  0  0  0
   29.0967  -28.4265  -17.1064 C   0  0  1  0  0  0  0  0  0  0  0  0
   27.8535  -27.5776  -17.2791 C   0  0  0  0  0  0  0  0  0  0  0  0
   28.0648  -26.1501  -16.8444 C   0  0  0  0  0  0  0  0  0  0  0  0
   26.7506  -25.4239  -17.1065 C   0  0  0  0  0  0  0  0  0  0  0  0
   26.8687  -23.9467  -16.8211 C   0  0  0  0  0  0  0  0  0  0  0  0
   25.5696  -23.3424  -17.0510 N   0  0  0  0  0  0  0  0  0  0  0  0
   28.6324  -29.8563  -17.2138 C   0  0  0  0  0  0  0  0  0  0  0  0
   28.5247  -30.3558  -18.3588 O   0  0  0  0  0  0  0  0  0  0  0  0
   28.0020  -32.7595  -14.9317 C   0  0  0  0  0  0  0  0  0  0  0  0
   27.9166  -32.0198  -16.2457 C   0  0  2  0  0  0  0  0  0  0  0  0
   28.3209  -30.6362  -16.0913 N   0  0  0  0  0  0  0  0  0  0  0  0
   26.5508  -32.0638  -16.8193 C   0  0  0  0  0  0  0  0  0  0  0  0
   25.7640  -31.0971  -16.6619 O   0  0  0  0  0  0  0  0  0  0  0  0
   26.0853  -33.1520  -17.5423 O   0  0  0  0  0  0  0  0  0  0  0  0
  2  1  1  0
  2  3  2  0
  4  2  1  0
  5  4  1  0
  6  5  1  0
  6  8  1  0
  6  7  1  1
  8  9  2  0
 10  8  1  0
 10 11  1  0
 11 17  1  0
 11 12  1  6
 12 13  1  0
 13 14  1  0
 14 15  1  0
 16 15  1  0
 17 18  2  0
 20 19  1  1
 21 20  1  0
 21 17  1  0
 22 24  1  0
 22 20  1  0
 23 22  2  0
M  END
$$$$
