QKA.pdb
     RDKit          3D

 24 23  0  0  1  0  0  0  0  0999 V2000
   37.2435   -7.4633   -8.2974 N   0  0  0  0  0  0  0  0  0  0  0  0
   37.6588   -6.2193   -7.7829 C   0  0  0  0  0  0  0  0  0  0  0  0
   36.7969   -5.3183   -7.6122 O   0  0  0  0  0  0  0  0  0  0  0  0
   39.1092   -5.9841   -7.4472 C   0  0  0  0  0  0  0  0  0  0  0  0
   39.8979   -7.1941   -7.8646 C   0  0  0  0  0  0  0  0  0  0  0  0
   40.8676   -7.6870   -6.8561 C   0  0  2  0  0  0  0  0  0  0  0  0
   41.4658   -6.5360   -6.2065 N   0  0  0  0  0  0  0  0  0  0  0  0
   41.9487   -8.5419   -7.3840 C   0  0  0  0  0  0  0  0  0  0  0  0
   43.0636   -8.0892   -7.7511 O   0  0  0  0  0  0  0  0  0  0  0  0
   41.7932   -9.9649   -7.5135 N   0  0  0  0  0  0  0  0  0  0  0  0
   42.8002  -10.8406   -8.0180 C   0  0  1  0  0  0  0  0  0  0  0  0
   42.7746  -12.2156   -7.3818 C   0  0  0  0  0  0  0  0  0  0  0  0
   43.7405  -13.1710   -8.0340 C   0  0  0  0  0  0  0  0  0  0  0  0
   45.0396  -13.0729   -7.2429 C   0  0  0  0  0  0  0  0  0  0  0  0
   46.0696  -14.0538   -7.7474 C   0  0  0  0  0  0  0  0  0  0  0  0
   47.2519  -13.9267   -6.9158 N   0  0  0  0  0  0  0  0  0  0  0  0
   42.4976  -11.0610   -9.4779 C   0  0  0  0  0  0  0  0  0  0  0  0
   41.3045  -11.2606   -9.8082 O   0  0  0  0  0  0  0  0  0  0  0  0
   44.3169  -10.9933  -12.7618 C   0  0  0  0  0  0  0  0  0  0  0  0
   43.1560  -11.3157  -11.8510 C   0  0  2  0  0  0  0  0  0  0  0  0
   43.4920  -11.0506  -10.4660 N   0  0  0  0  0  0  0  0  0  0  0  0
   42.7232  -12.7270  -11.9825 C   0  0  0  0  0  0  0  0  0  0  0  0
   43.2119  -13.6135  -11.2387 O   0  0  0  0  0  0  0  0  0  0  0  0
   41.7771  -13.1283  -12.9140 O   0  0  0  0  0  0  0  0  0  0  0  0
  2  1  1  0
  2  3  2  0
  4  2  1  0
  5  4  1  0
  6  5  1  0
  6  8  1  0
  6  7  1  6
  8  9  2  0
 10  8  1  0
 10 11  1  0
 11 17  1  0
 11 12  1  1
 12 13  1  0
 13 14  1  0
 14 15  1  0
 16 15  1  0
 17 18  2  0
 20 19  1  6
 21 20  1  0
 21 17  1  0
 22 24  1  0
 22 20  1  0
 23 22  2  0
M  END
$$$$
