QKA.pdb
     RDKit          3D

 24 23  0  0  1  0  0  0  0  0999 V2000
   21.6924  -21.1335  -11.7395 N   0  0  0  0  0  0  0  0  0  0  0  0
   21.5459  -21.2865  -10.3467 C   0  0  0  0  0  0  0  0  0  0  0  0
   20.5513  -21.9223   -9.9103 O   0  0  0  0  0  0  0  0  0  0  0  0
   22.5664  -20.6958   -9.4080 C   0  0  0  0  0  0  0  0  0  0  0  0
   23.6064  -19.9790  -10.2234 C   0  0  0  0  0  0  0  0  0  0  0  0
   24.6731  -20.8471  -10.7791 C   0  0  2  0  0  0  0  0  0  0  0  0
   25.6818  -21.0337   -9.7532 N   0  0  0  0  0  0  0  0  0  0  0  0
   25.3322  -20.3371  -11.9973 C   0  0  0  0  0  0  0  0  0  0  0  0
   26.1346  -19.3682  -11.9884 O   0  0  0  0  0  0  0  0  0  0  0  0
   25.0951  -20.9237  -13.2879 N   0  0  0  0  0  0  0  0  0  0  0  0
   25.7026  -20.4750  -14.4982 C   0  0  1  0  0  0  0  0  0  0  0  0
   26.4728  -21.5605  -15.2224 C   0  0  0  0  0  0  0  0  0  0  0  0
   27.1192  -21.0619  -16.4892 C   0  0  0  0  0  0  0  0  0  0  0  0
   27.8892  -22.2421  -17.0701 C   0  0  0  0  0  0  0  0  0  0  0  0
   28.7178  -21.8290  -18.2619 C   0  0  0  0  0  0  0  0  0  0  0  0
   29.4917  -22.9801  -18.6880 N   0  0  0  0  0  0  0  0  0  0  0  0
   24.5850  -20.0783  -15.4283 C   0  0  0  0  0  0  0  0  0  0  0  0
   23.5675  -20.8098  -15.4717 O   0  0  0  0  0  0  0  0  0  0  0  0
   23.6617  -17.1155  -17.5333 C   0  0  0  0  0  0  0  0  0  0  0  0
   23.4940  -18.5255  -17.0185 C   0  0  2  0  0  0  0  0  0  0  0  0
   24.6440  -18.9340  -16.2361 N   0  0  0  0  0  0  0  0  0  0  0  0
   23.2874  -19.4968  -18.1187 C   0  0  0  0  0  0  0  0  0  0  0  0
   22.1272  -19.7715  -18.5143 O   0  0  0  0  0  0  0  0  0  0  0  0
   24.3435  -20.1358  -18.7511 O   0  0  0  0  0  0  0  0  0  0  0  0
  2  1  1  0
  2  3  2  0
  4  2  1  0
  5  4  1  0
  6  5  1  0
  6  8  1  0
  6  7  1  1
  8  9  2  0
 10  8  1  0
 10 11  1  0
 11 17  1  0
 11 12  1  6
 12 13  1  0
 13 14  1  0
 14 15  1  0
 16 15  1  0
 17 18  2  0
 20 19  1  6
 21 20  1  0
 21 17  1  0
 22 24  1  0
 22 20  1  0
 23 22  2  0
M  END
$$$$
