QKA.pdb
     RDKit          3D

 24 23  0  0  1  0  0  0  0  0999 V2000
   19.4400  -15.9805  -14.8775 N   0  0  0  0  0  0  0  0  0  0  0  0
   18.0691  -16.2604  -14.7124 C   0  0  0  0  0  0  0  0  0  0  0  0
   17.7307  -17.1702  -13.9114 O   0  0  0  0  0  0  0  0  0  0  0  0
   17.0377  -15.4791  -15.4853 C   0  0  0  0  0  0  0  0  0  0  0  0
   17.7392  -14.3972  -16.2584 C   0  0  0  0  0  0  0  0  0  0  0  0
   16.8417  -13.4562  -16.9720 C   0  0  2  0  0  0  0  0  0  0  0  0
   16.3600  -14.1153  -18.1712 N   0  0  0  0  0  0  0  0  0  0  0  0
   17.4531  -12.1694  -17.3576 C   0  0  0  0  0  0  0  0  0  0  0  0
   18.1589  -12.0274  -18.3894 O   0  0  0  0  0  0  0  0  0  0  0  0
   17.2779  -10.9815  -16.5676 N   0  0  0  0  0  0  0  0  0  0  0  0
   17.8667   -9.7187  -16.8740 C   0  0  1  0  0  0  0  0  0  0  0  0
   16.8911   -8.5629  -16.7833 C   0  0  0  0  0  0  0  0  0  0  0  0
   17.5743   -7.2228  -16.8759 C   0  0  0  0  0  0  0  0  0  0  0  0
   17.3723   -6.7373  -18.3065 C   0  0  0  0  0  0  0  0  0  0  0  0
   18.0075   -5.3861  -18.5267 C   0  0  0  0  0  0  0  0  0  0  0  0
   17.7794   -5.0055  -19.9082 N   0  0  0  0  0  0  0  0  0  0  0  0
   18.9108   -9.4548  -15.8195 C   0  0  0  0  0  0  0  0  0  0  0  0
   18.5617   -9.5173  -14.6169 O   0  0  0  0  0  0  0  0  0  0  0  0
   22.6070   -9.1632  -15.5348 C   0  0  0  0  0  0  0  0  0  0  0  0
   21.1983   -8.8582  -15.0836 C   0  0  2  0  0  0  0  0  0  0  0  0
   20.2415   -9.1459  -16.1340 N   0  0  0  0  0  0  0  0  0  0  0  0
   21.0444   -7.4456  -14.6624 C   0  0  0  0  0  0  0  0  0  0  0  0
   20.6692   -6.5743  -15.4859 O   0  0  0  0  0  0  0  0  0  0  0  0
   21.3020   -7.0266  -13.3656 O   0  0  0  0  0  0  0  0  0  0  0  0
  2  1  1  0
  2  3  2  0
  4  2  1  0
  5  4  1  0
  6  5  1  0
  6  8  1  0
  6  7  1  6
  8  9  2  0
 10  8  1  0
 10 11  1  0
 11 17  1  0
 11 12  1  1
 12 13  1  0
 13 14  1  0
 14 15  1  0
 16 15  1  0
 17 18  2  0
 20 19  1  6
 21 20  1  0
 21 17  1  0
 22 24  1  0
 22 20  1  0
 23 22  2  0
M  END
$$$$
