QKA.pdb
     RDKit          3D

 24 23  0  0  1  0  0  0  0  0999 V2000
   17.9873  -11.2800  -19.3973 N   0  0  0  0  0  0  0  0  0  0  0  0
   16.8403  -11.9193  -18.8870 C   0  0  0  0  0  0  0  0  0  0  0  0
   16.0922  -12.5436  -19.6836 O   0  0  0  0  0  0  0  0  0  0  0  0
   16.5258  -11.8500  -17.4147 C   0  0  0  0  0  0  0  0  0  0  0  0
   17.5574  -10.9841  -16.7466 C   0  0  0  0  0  0  0  0  0  0  0  0
   18.7689  -11.7016  -16.2800 C   0  0  2  0  0  0  0  0  0  0  0  0
   18.3412  -12.8438  -15.4945 N   0  0  0  0  0  0  0  0  0  0  0  0
   19.7054  -10.8992  -15.4691 C   0  0  0  0  0  0  0  0  0  0  0  0
   19.5260  -10.6641  -14.2463 O   0  0  0  0  0  0  0  0  0  0  0  0
   20.8976  -10.3284  -16.0336 N   0  0  0  0  0  0  0  0  0  0  0  0
   21.8399   -9.5478  -15.3000 C   0  0  1  0  0  0  0  0  0  0  0  0
   23.2676   -9.7267  -15.7748 C   0  0  0  0  0  0  0  0  0  0  0  0
   23.8955  -10.9926  -15.2506 C   0  0  0  0  0  0  0  0  0  0  0  0
   25.2621  -11.1003  -15.9169 C   0  0  0  0  0  0  0  0  0  0  0  0
   26.0182  -12.3142  -15.4347 C   0  0  0  0  0  0  0  0  0  0  0  0
   27.3172  -12.3168  -16.0814 N   0  0  0  0  0  0  0  0  0  0  0  0
   21.5035   -8.1010  -15.5555 C   0  0  0  0  0  0  0  0  0  0  0  0
   21.3644   -7.7302  -16.7452 O   0  0  0  0  0  0  0  0  0  0  0  0
   19.6958   -5.3747  -14.6770 C   0  0  0  0  0  0  0  0  0  0  0  0
   21.1481   -5.7634  -14.8212 C   0  0  2  0  0  0  0  0  0  0  0  0
   21.3430   -7.1683  -14.5214 N   0  0  0  0  0  0  0  0  0  0  0  0
   22.0283   -4.9548  -13.9449 C   0  0  0  0  0  0  0  0  0  0  0  0
   22.4909   -5.4434  -12.8840 O   0  0  0  0  0  0  0  0  0  0  0  0
   22.3765   -3.6469  -14.2480 O   0  0  0  0  0  0  0  0  0  0  0  0
  2  1  1  0
  2  3  2  0
  4  2  1  0
  5  4  1  0
  6  5  1  0
  6  8  1  0
  6  7  1  1
  8  9  2  0
 10  8  1  0
 10 11  1  0
 11 17  1  0
 11 12  1  6
 12 13  1  0
 13 14  1  0
 14 15  1  0
 16 15  1  0
 17 18  2  0
 20 19  1  1
 21 20  1  0
 21 17  1  0
 22 24  1  0
 22 20  1  0
 23 22  2  0
M  END
$$$$
