QKA.pdb
     RDKit          3D

 24 23  0  0  1  0  0  0  0  0999 V2000
   26.3855  -16.1723  -20.0683 N   0  0  0  0  0  0  0  0  0  0  0  0
   27.3172  -17.0852  -20.6007 C   0  0  0  0  0  0  0  0  0  0  0  0
   26.9139  -17.9502  -21.4211 O   0  0  0  0  0  0  0  0  0  0  0  0
   28.7652  -17.0173  -20.1883 C   0  0  0  0  0  0  0  0  0  0  0  0
   28.9235  -15.9117  -19.1817 C   0  0  0  0  0  0  0  0  0  0  0  0
   28.7433  -14.5426  -19.7232 C   0  0  2  0  0  0  0  0  0  0  0  0
   29.8111  -14.2896  -20.6722 N   0  0  0  0  0  0  0  0  0  0  0  0
   28.7425  -13.4610  -18.7190 C   0  0  0  0  0  0  0  0  0  0  0  0
   28.0504  -13.5005  -17.6691 O   0  0  0  0  0  0  0  0  0  0  0  0
   29.5436  -12.2785  -18.8799 N   0  0  0  0  0  0  0  0  0  0  0  0
   29.6552  -11.2446  -17.9031 C   0  0  1  0  0  0  0  0  0  0  0  0
   30.8861  -10.3793  -18.0820 C   0  0  0  0  0  0  0  0  0  0  0  0
   31.0130   -9.3281  -17.0096 C   0  0  0  0  0  0  0  0  0  0  0  0
   32.3473   -8.6313  -17.2490 C   0  0  0  0  0  0  0  0  0  0  0  0
   32.6746   -7.6661  -16.1358 C   0  0  0  0  0  0  0  0  0  0  0  0
   34.0254   -7.1807  -16.3487 N   0  0  0  0  0  0  0  0  0  0  0  0
   28.4778  -10.3251  -18.1021 C   0  0  0  0  0  0  0  0  0  0  0  0
   28.2677   -9.8788  -19.2549 O   0  0  0  0  0  0  0  0  0  0  0  0
   25.5425   -9.0892  -16.1163 C   0  0  0  0  0  0  0  0  0  0  0  0
   26.4677   -9.1160  -17.3098 C   0  0  2  0  0  0  0  0  0  0  0  0
   27.6210   -9.9567  -17.0555 N   0  0  0  0  0  0  0  0  0  0  0  0
   26.9311   -7.7587  -17.6829 C   0  0  0  0  0  0  0  0  0  0  0  0
   27.9629   -7.2724  -17.1565 O   0  0  0  0  0  0  0  0  0  0  0  0
   26.2615   -6.9763  -18.6120 O   0  0  0  0  0  0  0  0  0  0  0  0
  2  1  1  0
  2  3  2  0
  4  2  1  0
  5  4  1  0
  6  5  1  0
  6  8  1  0
  6  7  1  6
  8  9  2  0
 10  8  1  0
 10 11  1  0
 11 17  1  0
 11 12  1  6
 12 13  1  0
 13 14  1  0
 14 15  1  0
 16 15  1  0
 17 18  2  0
 20 19  1  1
 21 20  1  0
 21 17  1  0
 22 24  1  0
 22 20  1  0
 23 22  2  0
M  END
$$$$
