NKN.pdb
     RDKit          3D

 26 25  0  0  1  0  0  0  0  0999 V2000
    8.4236  -12.4553   15.3193 N   0  0  0  0  0  0  0  0  0  0  0  0
    7.8354  -13.5949   15.9000 C   0  0  0  0  0  0  0  0  0  0  0  0
    7.2841  -14.4434   15.1646 O   0  0  0  0  0  0  0  0  0  0  0  0
    7.8562  -13.8076   17.3569 C   0  0  0  0  0  0  0  0  0  0  0  0
    8.6219  -15.0398   17.7539 C   0  0  2  0  0  0  0  0  0  0  0  0
    7.9915  -16.2471   17.2589 N   0  0  0  0  0  0  0  0  0  0  0  0
    8.7829  -15.0511   19.2193 C   0  0  0  0  0  0  0  0  0  0  0  0
    9.5001  -14.2152   19.8377 O   0  0  0  0  0  0  0  0  0  0  0  0
    8.1241  -16.0179   19.9863 N   0  0  0  0  0  0  0  0  0  0  0  0
    8.3486  -16.1927   21.4222 C   0  0  1  0  0  0  0  0  0  0  0  0
    7.1577  -16.7705   22.0885 C   0  0  0  0  0  0  0  0  0  0  0  0
    7.5346  -17.6070   23.2751 C   0  0  0  0  0  0  0  0  0  0  0  0
    6.8503  -18.9748   23.2193 C   0  0  0  0  0  0  0  0  0  0  0  0
    7.2736  -19.7108   24.4742 C   0  0  0  0  0  0  0  0  0  0  0  0
    6.6213  -21.0048   24.5161 N   0  0  0  0  0  0  0  0  0  0  0  0
    9.5906  -16.9348   21.6468 C   0  0  0  0  0  0  0  0  0  0  0  0
   10.1133  -17.7646   20.8704 O   0  0  0  0  0  0  0  0  0  0  0  0
   14.5121  -16.6409   22.7866 N   0  0  0  0  0  0  0  0  0  0  0  0
   13.7807  -15.7820   21.8924 C   0  0  0  0  0  0  0  0  0  0  0  0
   14.4157  -15.0613   21.0851 O   0  0  0  0  0  0  0  0  0  0  0  0
   12.2989  -15.7506   21.9260 C   0  0  0  0  0  0  0  0  0  0  0  0
   11.7403  -16.7542   22.8838 C   0  0  2  0  0  0  0  0  0  0  0  0
   10.3027  -16.7103   22.8698 N   0  0  0  0  0  0  0  0  0  0  0  0
   12.2861  -16.5438   24.2495 C   0  0  0  0  0  0  0  0  0  0  0  0
   11.4298  -16.2167   25.2914 O   0  0  0  0  0  0  0  0  0  0  0  0
   13.5048  -16.6490   24.5127 O   0  0  0  0  0  0  0  0  0  0  0  0
  2  1  1  0
  2  3  2  0
  4  5  1  0
  4  2  1  0
  5  7  1  0
  5  6  1  1
  7  8  2  0
  9 10  1  0
  9  7  1  0
 11 12  1  0
 10 11  1  6
 13 14  1  0
 13 12  1  0
 15 14  1  0
 16 17  2  0
 16 10  1  0
 18 19  1  0
 19 20  2  0
 19 21  1  0
 22 21  1  6
 22 24  1  0
 22 23  1  0
 23 16  1  0
 24 25  1  0
 26 24  2  0
M  END
$$$$
