NKN.pdb
     RDKit          3D

 26 25  0  0  1  0  0  0  0  0999 V2000
    7.5021  -16.6160   16.8676 N   0  0  0  0  0  0  0  0  0  0  0  0
    6.7150  -17.7271   17.2258 C   0  0  0  0  0  0  0  0  0  0  0  0
    6.3369  -18.5232   16.3381 O   0  0  0  0  0  0  0  0  0  0  0  0
    6.3281  -17.9704   18.6256 C   0  0  0  0  0  0  0  0  0  0  0  0
    7.1169  -19.0814   19.2623 C   0  0  2  0  0  0  0  0  0  0  0  0
    6.9364  -20.3379   18.5632 N   0  0  0  0  0  0  0  0  0  0  0  0
    6.7484  -19.1737   20.6868 C   0  0  0  0  0  0  0  0  0  0  0  0
    6.6741  -18.1652   21.4435 O   0  0  0  0  0  0  0  0  0  0  0  0
    6.4617  -20.4200   21.2540 N   0  0  0  0  0  0  0  0  0  0  0  0
    6.1085  -20.5979   22.6634 C   0  0  1  0  0  0  0  0  0  0  0  0
    5.0586  -21.6303   22.8307 C   0  0  0  0  0  0  0  0  0  0  0  0
    3.6936  -21.0917   22.5200 C   0  0  0  0  0  0  0  0  0  0  0  0
    2.8069  -22.1741   21.9000 C   0  0  0  0  0  0  0  0  0  0  0  0
    1.4406  -21.5461   21.7140 C   0  0  0  0  0  0  0  0  0  0  0  0
    0.5676  -22.4852   21.0376 N   0  0  0  0  0  0  0  0  0  0  0  0
    7.3179  -20.8268   23.4563 C   0  0  0  0  0  0  0  0  0  0  0  0
    8.3305  -21.4696   23.1016 O   0  0  0  0  0  0  0  0  0  0  0  0
   10.1258  -18.8060   28.6086 N   0  0  0  0  0  0  0  0  0  0  0  0
    9.8452  -19.6989   27.5147 C   0  0  0  0  0  0  0  0  0  0  0  0
   10.5889  -20.6931   27.3343 O   0  0  0  0  0  0  0  0  0  0  0  0
    8.6941  -19.4459   26.6155 C   0  0  0  0  0  0  0  0  0  0  0  0
    8.5087  -20.5478   25.6215 C   0  0  2  0  0  0  0  0  0  0  0  0
    7.3784  -20.2715   24.7759 N   0  0  0  0  0  0  0  0  0  0  0  0
    8.3796  -21.8609   26.3045 C   0  0  0  0  0  0  0  0  0  0  0  0
    9.4904  -22.6824   26.4348 O   0  0  0  0  0  0  0  0  0  0  0  0
    7.2966  -22.2716   26.7779 O   0  0  0  0  0  0  0  0  0  0  0  0
  2  1  1  0
  2  3  2  0
  4  5  1  0
  4  2  1  0
  5  7  1  0
  5  6  1  6
  7  8  2  0
  9 10  1  0
  9  7  1  0
 11 12  1  0
 10 11  1  6
 13 14  1  0
 13 12  1  0
 15 14  1  0
 16 17  2  0
 16 10  1  0
 18 19  1  0
 19 20  2  0
 19 21  1  0
 22 21  1  1
 22 24  1  0
 22 23  1  0
 23 16  1  0
 24 25  1  0
 26 24  2  0
M  END
$$$$
