NKN.pdb
     RDKit          3D

 26 25  0  0  1  0  0  0  0  0999 V2000
   14.1436  -18.7328   16.4377 N   0  0  0  0  0  0  0  0  0  0  0  0
   12.8773  -18.1573   16.6557 C   0  0  0  0  0  0  0  0  0  0  0  0
   11.9693  -18.3348   15.8139 O   0  0  0  0  0  0  0  0  0  0  0  0
   12.6008  -17.3501   17.8558 C   0  0  0  0  0  0  0  0  0  0  0  0
   11.5968  -17.9945   18.7716 C   0  0  2  0  0  0  0  0  0  0  0  0
   10.3757  -18.3403   18.0722 N   0  0  0  0  0  0  0  0  0  0  0  0
   11.3530  -17.1007   19.9183 C   0  0  0  0  0  0  0  0  0  0  0  0
   12.2786  -16.6696   20.6618 O   0  0  0  0  0  0  0  0  0  0  0  0
   10.0492  -16.6939   20.2212 N   0  0  0  0  0  0  0  0  0  0  0  0
    9.7216  -15.8299   21.3565 C   0  0  1  0  0  0  0  0  0  0  0  0
    8.4439  -15.1118   21.1374 C   0  0  0  0  0  0  0  0  0  0  0  0
    8.5446  -14.1277   20.0099 C   0  0  0  0  0  0  0  0  0  0  0  0
    7.1944  -13.4566   19.7476 C   0  0  0  0  0  0  0  0  0  0  0  0
    7.4246  -12.4692   18.6218 C   0  0  0  0  0  0  0  0  0  0  0  0
    6.1794  -11.7951   18.3110 N   0  0  0  0  0  0  0  0  0  0  0  0
    9.7816  -16.5976   22.6018 C   0  0  0  0  0  0  0  0  0  0  0  0
    9.3878  -17.7725   22.7724 O   0  0  0  0  0  0  0  0  0  0  0  0
   11.8853  -16.3630   28.3013 N   0  0  0  0  0  0  0  0  0  0  0  0
   11.7995  -17.0248   27.0257 C   0  0  0  0  0  0  0  0  0  0  0  0
   11.8778  -18.2763   26.9826 O   0  0  0  0  0  0  0  0  0  0  0  0
   11.6211  -16.2377   25.7821 C   0  0  0  0  0  0  0  0  0  0  0  0
   10.4281  -16.6892   25.0013 C   0  0  2  0  0  0  0  0  0  0  0  0
   10.3423  -15.9674   23.7602 N   0  0  0  0  0  0  0  0  0  0  0  0
    9.1865  -16.5539   25.8059 C   0  0  0  0  0  0  0  0  0  0  0  0
    8.8743  -17.5132   26.7587 O   0  0  0  0  0  0  0  0  0  0  0  0
    8.3915  -15.5981   25.6642 O   0  0  0  0  0  0  0  0  0  0  0  0
  2  1  1  0
  2  3  2  0
  4  5  1  0
  4  2  1  0
  5  7  1  0
  5  6  1  6
  7  8  2  0
  9 10  1  0
  9  7  1  0
 11 12  1  0
 10 11  1  6
 13 14  1  0
 13 12  1  0
 15 14  1  0
 16 17  2  0
 16 10  1  0
 18 19  1  0
 19 20  2  0
 19 21  1  0
 22 21  1  1
 22 24  1  0
 22 23  1  0
 23 16  1  0
 24 25  1  0
 26 24  2  0
M  END
$$$$
