NKN.pdb
     RDKit          3D

 26 25  0  0  1  0  0  0  0  0999 V2000
    7.9086  -12.2833   17.7488 N   0  0  0  0  0  0  0  0  0  0  0  0
    7.5936  -13.6320   18.0022 C   0  0  0  0  0  0  0  0  0  0  0  0
    7.6751  -14.4662   17.0736 O   0  0  0  0  0  0  0  0  0  0  0  0
    7.1700  -14.0798   19.3394 C   0  0  0  0  0  0  0  0  0  0  0  0
    8.3254  -14.5029   20.2042 C   0  0  2  0  0  0  0  0  0  0  0  0
    9.1721  -15.4698   19.5347 N   0  0  0  0  0  0  0  0  0  0  0  0
    7.8027  -15.0076   21.4869 C   0  0  0  0  0  0  0  0  0  0  0  0
    6.9821  -14.3605   22.1963 O   0  0  0  0  0  0  0  0  0  0  0  0
    8.2147  -16.2558   21.9657 N   0  0  0  0  0  0  0  0  0  0  0  0
    7.8120  -16.7883   23.2685 C   0  0  1  0  0  0  0  0  0  0  0  0
    8.0507  -18.2485   23.3520 C   0  0  0  0  0  0  0  0  0  0  0  0
    7.5758  -18.8165   24.6565 C   0  0  0  0  0  0  0  0  0  0  0  0
    7.6961  -20.3422   24.6647 C   0  0  0  0  0  0  0  0  0  0  0  0
    7.0801  -20.8079   25.9682 C   0  0  0  0  0  0  0  0  0  0  0  0
    7.0280  -22.2565   25.9852 N   0  0  0  0  0  0  0  0  0  0  0  0
    8.4337  -16.0085   24.3405 C   0  0  0  0  0  0  0  0  0  0  0  0
    9.6243  -15.6286   24.3911 O   0  0  0  0  0  0  0  0  0  0  0  0
    7.7006  -12.5895   24.9261 N   0  0  0  0  0  0  0  0  0  0  0  0
    6.9081  -12.7408   26.1184 C   0  0  0  0  0  0  0  0  0  0  0  0
    6.0107  -11.8991   26.3638 O   0  0  0  0  0  0  0  0  0  0  0  0
    7.1500  -13.8752   27.0416 C   0  0  0  0  0  0  0  0  0  0  0  0
    8.1812  -14.8188   26.5095 C   0  0  2  0  0  0  0  0  0  0  0  0
    7.6228  -15.6264   25.4585 N   0  0  0  0  0  0  0  0  0  0  0  0
    8.7520  -15.6498   27.6008 C   0  0  0  0  0  0  0  0  0  0  0  0
    9.6256  -15.0803   28.5162 O   0  0  0  0  0  0  0  0  0  0  0  0
    8.4786  -16.8630   27.7385 O   0  0  0  0  0  0  0  0  0  0  0  0
  2  1  1  0
  2  3  2  0
  4  5  1  0
  4  2  1  0
  5  7  1  0
  5  6  1  6
  7  8  2  0
  9 10  1  0
  9  7  1  0
 11 12  1  0
 10 11  1  6
 13 14  1  0
 13 12  1  0
 15 14  1  0
 16 17  2  0
 16 10  1  0
 18 19  1  0
 19 20  2  0
 19 21  1  0
 22 21  1  1
 22 24  1  0
 22 23  1  0
 23 16  1  0
 24 25  1  0
 26 24  2  0
M  END
$$$$
