NKN.pdb
     RDKit          3D

 26 25  0  0  1  0  0  0  0  0999 V2000
    7.2218  -13.6918   16.2969 N   0  0  0  0  0  0  0  0  0  0  0  0
    7.9709  -13.2731   17.4130 C   0  0  0  0  0  0  0  0  0  0  0  0
    9.0429  -12.6533   17.2353 O   0  0  0  0  0  0  0  0  0  0  0  0
    7.5171  -13.5506   18.7860 C   0  0  0  0  0  0  0  0  0  0  0  0
    8.4965  -14.3851   19.5648 C   0  0  2  0  0  0  0  0  0  0  0  0
    9.0330  -15.4691   18.7667 N   0  0  0  0  0  0  0  0  0  0  0  0
    7.8428  -14.8648   20.7960 C   0  0  0  0  0  0  0  0  0  0  0  0
    7.1829  -14.1083   21.5625 O   0  0  0  0  0  0  0  0  0  0  0  0
    7.9392  -16.2128   21.1576 N   0  0  0  0  0  0  0  0  0  0  0  0
    7.4291  -16.7425   22.4233 C   0  0  1  0  0  0  0  0  0  0  0  0
    7.2581  -18.2133   22.3632 C   0  0  0  0  0  0  0  0  0  0  0  0
    6.1404  -18.6067   21.4436 C   0  0  0  0  0  0  0  0  0  0  0  0
    6.0499  -20.1289   21.3131 C   0  0  0  0  0  0  0  0  0  0  0  0
    4.8711  -20.4058   20.4024 C   0  0  0  0  0  0  0  0  0  0  0  0
    4.6674  -21.8376   20.3010 N   0  0  0  0  0  0  0  0  0  0  0  0
    8.2606  -16.2720   23.5328 C   0  0  0  0  0  0  0  0  0  0  0  0
    9.5096  -16.2086   23.5528 O   0  0  0  0  0  0  0  0  0  0  0  0
    5.7917  -12.6702   26.0734 N   0  0  0  0  0  0  0  0  0  0  0  0
    7.0715  -13.2633   25.7859 C   0  0  0  0  0  0  0  0  0  0  0  0
    7.7331  -12.8392   24.8078 O   0  0  0  0  0  0  0  0  0  0  0  0
    7.5986  -14.3591   26.6339 C   0  0  0  0  0  0  0  0  0  0  0  0
    8.3867  -15.3511   25.8393 C   0  0  2  0  0  0  0  0  0  0  0  0
    7.6077  -15.8335   24.7306 N   0  0  0  0  0  0  0  0  0  0  0  0
    8.8648  -16.4614   26.7029 C   0  0  0  0  0  0  0  0  0  0  0  0
    8.6152  -17.7764   26.3367 O   0  0  0  0  0  0  0  0  0  0  0  0
    9.4945  -16.2659   27.7664 O   0  0  0  0  0  0  0  0  0  0  0  0
  2  1  1  0
  2  3  2  0
  4  5  1  0
  4  2  1  0
  5  7  1  0
  5  6  1  6
  7  8  2  0
  9 10  1  0
  9  7  1  0
 11 12  1  0
 10 11  1  6
 13 14  1  0
 13 12  1  0
 15 14  1  0
 16 17  2  0
 16 10  1  0
 18 19  1  0
 19 20  2  0
 19 21  1  0
 22 21  1  1
 22 24  1  0
 22 23  1  0
 23 16  1  0
 24 25  1  0
 26 24  2  0
M  END
$$$$
