NKN.pdb
     RDKit          3D

 26 25  0  0  1  0  0  0  0  0999 V2000
   12.8538  -19.2737   13.1113 N   0  0  0  0  0  0  0  0  0  0  0  0
   11.7326  -19.7399   13.8239 C   0  0  0  0  0  0  0  0  0  0  0  0
   11.1143  -20.7441   13.4066 O   0  0  0  0  0  0  0  0  0  0  0  0
   11.2732  -19.0682   15.0511 C   0  0  0  0  0  0  0  0  0  0  0  0
   11.1643  -20.0064   16.2216 C   0  0  2  0  0  0  0  0  0  0  0  0
   10.1526  -21.0210   16.0049 N   0  0  0  0  0  0  0  0  0  0  0  0
   10.9172  -19.2194   17.4435 C   0  0  0  0  0  0  0  0  0  0  0  0
   11.5527  -18.1636   17.7204 O   0  0  0  0  0  0  0  0  0  0  0  0
    9.9413  -19.6349   18.3557 N   0  0  0  0  0  0  0  0  0  0  0  0
    9.6608  -18.9296   19.6073 C   0  0  1  0  0  0  0  0  0  0  0  0
    8.3927  -19.3951   20.2168 C   0  0  0  0  0  0  0  0  0  0  0  0
    7.2202  -19.1584   19.3117 C   0  0  0  0  0  0  0  0  0  0  0  0
    5.9671  -19.8555   19.8466 C   0  0  0  0  0  0  0  0  0  0  0  0
    4.8284  -19.4311   18.9417 C   0  0  0  0  0  0  0  0  0  0  0  0
    3.6026  -20.0695   19.3794 N   0  0  0  0  0  0  0  0  0  0  0  0
   10.8240  -19.0031   20.4935 C   0  0  0  0  0  0  0  0  0  0  0  0
   11.5247  -20.0140   20.7205 O   0  0  0  0  0  0  0  0  0  0  0  0
   14.4719  -15.6111   23.9427 N   0  0  0  0  0  0  0  0  0  0  0  0
   14.2953  -16.6306   22.9417 C   0  0  0  0  0  0  0  0  0  0  0  0
   15.1491  -17.5451   22.8469 O   0  0  0  0  0  0  0  0  0  0  0  0
   13.1213  -16.5990   22.0370 C   0  0  0  0  0  0  0  0  0  0  0  0
   12.3195  -17.8589   22.1177 C   0  0  2  0  0  0  0  0  0  0  0  0
   11.2254  -17.8140   21.1852 N   0  0  0  0  0  0  0  0  0  0  0  0
   11.8517  -18.1007   23.5069 C   0  0  0  0  0  0  0  0  0  0  0  0
   10.6528  -17.5496   23.9365 O   0  0  0  0  0  0  0  0  0  0  0  0
   12.4983  -18.7911   24.3260 O   0  0  0  0  0  0  0  0  0  0  0  0
  2  1  1  0
  2  3  2  0
  4  5  1  0
  4  2  1  0
  5  7  1  0
  5  6  1  6
  7  8  2  0
  9 10  1  0
  9  7  1  0
 11 12  1  0
 10 11  1  1
 13 14  1  0
 13 12  1  0
 15 14  1  0
 16 17  2  0
 16 10  1  0
 18 19  1  0
 19 20  2  0
 19 21  1  0
 22 21  1  1
 22 24  1  0
 22 23  1  0
 23 16  1  0
 24 25  1  0
 26 24  2  0
M  END
$$$$
