NKN.pdb
     RDKit          3D

 26 25  0  0  1  0  0  0  0  0999 V2000
   14.0246  -16.3623   18.1190 N   0  0  0  0  0  0  0  0  0  0  0  0
   14.1908  -15.0725   18.6585 C   0  0  0  0  0  0  0  0  0  0  0  0
   15.0557  -14.3106   18.1725 O   0  0  0  0  0  0  0  0  0  0  0  0
   13.3662  -14.6027   19.7844 C   0  0  0  0  0  0  0  0  0  0  0  0
   12.4892  -15.6837   20.3539 C   0  0  2  0  0  0  0  0  0  0  0  0
   11.7653  -16.3908   19.3166 N   0  0  0  0  0  0  0  0  0  0  0  0
   11.5905  -15.0896   21.3602 C   0  0  0  0  0  0  0  0  0  0  0  0
   12.0104  -14.4235   22.3478 O   0  0  0  0  0  0  0  0  0  0  0  0
   10.2061  -15.2529   21.2425 N   0  0  0  0  0  0  0  0  0  0  0  0
    9.2397  -14.5298   22.0707 C   0  0  1  0  0  0  0  0  0  0  0  0
    8.0819  -14.0668   21.2697 C   0  0  0  0  0  0  0  0  0  0  0  0
    8.4965  -13.6182   19.8998 C   0  0  0  0  0  0  0  0  0  0  0  0
    7.2790  -13.2151   19.0647 C   0  0  0  0  0  0  0  0  0  0  0  0
    7.8033  -12.8953   17.6797 C   0  0  0  0  0  0  0  0  0  0  0  0
    6.7047  -12.4668   16.8365 N   0  0  0  0  0  0  0  0  0  0  0  0
    8.8858  -15.3336   23.2421 C   0  0  0  0  0  0  0  0  0  0  0  0
    8.0756  -15.0215   24.1426 O   0  0  0  0  0  0  0  0  0  0  0  0
    6.5684  -19.9830   24.3219 N   0  0  0  0  0  0  0  0  0  0  0  0
    7.5937  -19.1919   24.9508 C   0  0  0  0  0  0  0  0  0  0  0  0
    7.4580  -18.8650   26.1545 O   0  0  0  0  0  0  0  0  0  0  0  0
    8.7918  -18.7706   24.1860 C   0  0  0  0  0  0  0  0  0  0  0  0
    9.2500  -17.4011   24.5750 C   0  0  2  0  0  0  0  0  0  0  0  0
    9.5137  -16.6117   23.4020 N   0  0  0  0  0  0  0  0  0  0  0  0
   10.4337  -17.4731   25.4699 C   0  0  0  0  0  0  0  0  0  0  0  0
   11.6988  -17.2133   24.9622 O   0  0  0  0  0  0  0  0  0  0  0  0
   10.3451  -17.7624   26.6841 O   0  0  0  0  0  0  0  0  0  0  0  0
  2  1  1  0
  2  3  2  0
  4  5  1  0
  4  2  1  0
  5  7  1  0
  5  6  1  6
  7  8  2  0
  9 10  1  0
  9  7  1  0
 11 12  1  0
 10 11  1  6
 13 14  1  0
 13 12  1  0
 15 14  1  0
 16 17  2  0
 16 10  1  0
 18 19  1  0
 19 20  2  0
 19 21  1  0
 22 21  1  6
 22 24  1  0
 22 23  1  0
 23 16  1  0
 24 25  1  0
 26 24  2  0
M  END
$$$$
