NKN.pdb
     RDKit          3D

 26 25  0  0  1  0  0  0  0  0999 V2000
    6.6483  -12.8959   16.0715 N   0  0  0  0  0  0  0  0  0  0  0  0
    7.9573  -13.3987   15.9447 C   0  0  0  0  0  0  0  0  0  0  0  0
    8.3051  -13.9418   14.8729 O   0  0  0  0  0  0  0  0  0  0  0  0
    8.9253  -13.2977   17.0497 C   0  0  0  0  0  0  0  0  0  0  0  0
    9.4508  -14.6374   17.4867 C   0  0  2  0  0  0  0  0  0  0  0  0
    8.3825  -15.5978   17.6774 N   0  0  0  0  0  0  0  0  0  0  0  0
   10.2673  -14.4577   18.7010 C   0  0  0  0  0  0  0  0  0  0  0  0
   11.2447  -13.6598   18.7593 O   0  0  0  0  0  0  0  0  0  0  0  0
    9.9702  -15.1887   19.8561 N   0  0  0  0  0  0  0  0  0  0  0  0
   10.8231  -15.1908   21.0459 C   0  0  1  0  0  0  0  0  0  0  0  0
   10.2133  -15.9746   22.1459 C   0  0  0  0  0  0  0  0  0  0  0  0
   11.0746  -15.9737   23.3739 C   0  0  0  0  0  0  0  0  0  0  0  0
   10.4138  -16.7640   24.5057 C   0  0  0  0  0  0  0  0  0  0  0  0
   11.2866  -16.5625   25.7277 C   0  0  0  0  0  0  0  0  0  0  0  0
   10.7988  -17.3947   26.8098 N   0  0  0  0  0  0  0  0  0  0  0  0
   12.1811  -15.6030   20.6860 C   0  0  0  0  0  0  0  0  0  0  0  0
   12.5068  -16.6495   20.0833 O   0  0  0  0  0  0  0  0  0  0  0  0
   16.8156  -14.4252   18.0318 N   0  0  0  0  0  0  0  0  0  0  0  0
   16.5768  -14.1571   19.4259 C   0  0  0  0  0  0  0  0  0  0  0  0
   17.5459  -14.1679   20.2227 O   0  0  0  0  0  0  0  0  0  0  0  0
   15.2053  -13.8724   19.9115 C   0  0  0  0  0  0  0  0  0  0  0  0
   14.6044  -15.0500   20.6108 C   0  0  2  0  0  0  0  0  0  0  0  0
   13.2688  -14.7426   21.0469 N   0  0  0  0  0  0  0  0  0  0  0  0
   15.4654  -15.4925   21.7379 C   0  0  0  0  0  0  0  0  0  0  0  0
   16.4001  -16.4983   21.5379 O   0  0  0  0  0  0  0  0  0  0  0  0
   15.3879  -14.9929   22.8825 O   0  0  0  0  0  0  0  0  0  0  0  0
  2  1  1  0
  2  3  2  0
  4  5  1  0
  4  2  1  0
  5  7  1  0
  5  6  1  1
  7  8  2  0
  9 10  1  0
  9  7  1  0
 11 12  1  0
 10 11  1  1
 13 14  1  0
 13 12  1  0
 15 14  1  0
 16 17  2  0
 16 10  1  0
 18 19  1  0
 19 20  2  0
 19 21  1  0
 22 21  1  1
 22 24  1  0
 22 23  1  0
 23 16  1  0
 24 25  1  0
 26 24  2  0
M  END
$$$$
