NKN.pdb
     RDKit          3D

 26 25  0  0  1  0  0  0  0  0999 V2000
   10.3598  -17.8243   15.5812 N   0  0  0  0  0  0  0  0  0  0  0  0
   10.4662  -18.3385   16.8876 C   0  0  0  0  0  0  0  0  0  0  0  0
   10.4876  -19.5773   17.0597 O   0  0  0  0  0  0  0  0  0  0  0  0
   10.5526  -17.4462   18.0557 C   0  0  0  0  0  0  0  0  0  0  0  0
    9.5943  -17.8270   19.1506 C   0  0  2  0  0  0  0  0  0  0  0  0
    8.2171  -17.7703   18.7034 N   0  0  0  0  0  0  0  0  0  0  0  0
    9.8401  -16.9660   20.3218 C   0  0  0  0  0  0  0  0  0  0  0  0
   10.9952  -16.7496   20.7846 O   0  0  0  0  0  0  0  0  0  0  0  0
    8.7662  -16.3467   20.9701 N   0  0  0  0  0  0  0  0  0  0  0  0
    8.9264  -15.4809   22.1395 C   0  0  1  0  0  0  0  0  0  0  0  0
    7.7113  -14.6671   22.3793 C   0  0  0  0  0  0  0  0  0  0  0  0
    7.9402  -13.6208   23.4294 C   0  0  0  0  0  0  0  0  0  0  0  0
    6.9291  -13.7604   24.5698 C   0  0  0  0  0  0  0  0  0  0  0  0
    7.1288  -12.5524   25.4621 C   0  0  0  0  0  0  0  0  0  0  0  0
    6.1795  -12.6006   26.5567 N   0  0  0  0  0  0  0  0  0  0  0  0
    9.3647  -16.2724   23.2907 C   0  0  0  0  0  0  0  0  0  0  0  0
    8.7919  -17.2784   23.7644 O   0  0  0  0  0  0  0  0  0  0  0  0
   12.7499  -18.9458   24.1743 N   0  0  0  0  0  0  0  0  0  0  0  0
   13.2560  -17.5991   24.2258 C   0  0  0  0  0  0  0  0  0  0  0  0
   14.2685  -17.3028   23.5466 O   0  0  0  0  0  0  0  0  0  0  0  0
   12.5894  -16.5784   25.0694 C   0  0  0  0  0  0  0  0  0  0  0  0
   11.0995  -16.6993   25.0204 C   0  0  2  0  0  0  0  0  0  0  0  0
   10.5673  -15.8808   23.9643 N   0  0  0  0  0  0  0  0  0  0  0  0
   10.4974  -16.3632   26.3364 C   0  0  0  0  0  0  0  0  0  0  0  0
    9.7245  -15.2184   26.4689 O   0  0  0  0  0  0  0  0  0  0  0  0
   10.6559  -17.0758   27.3527 O   0  0  0  0  0  0  0  0  0  0  0  0
  2  1  1  0
  2  3  2  0
  4  5  1  0
  4  2  1  0
  5  7  1  0
  5  6  1  6
  7  8  2  0
  9 10  1  0
  9  7  1  0
 11 12  1  0
 10 11  1  1
 13 14  1  0
 13 12  1  0
 15 14  1  0
 16 17  2  0
 16 10  1  0
 18 19  1  0
 19 20  2  0
 19 21  1  0
 22 21  1  1
 22 24  1  0
 22 23  1  0
 23 16  1  0
 24 25  1  0
 26 24  2  0
M  END
$$$$
