NKN.pdb
     RDKit          3D

 26 25  0  0  1  0  0  0  0  0999 V2000
   16.0481  -13.3994   17.2085 N   0  0  0  0  0  0  0  0  0  0  0  0
   14.6436  -13.4734   17.2734 C   0  0  0  0  0  0  0  0  0  0  0  0
   13.9744  -13.3723   16.2214 O   0  0  0  0  0  0  0  0  0  0  0  0
   13.9467  -13.6673   18.5560 C   0  0  0  0  0  0  0  0  0  0  0  0
   13.4686  -15.0800   18.7503 C   0  0  2  0  0  0  0  0  0  0  0  0
   12.4117  -15.4225   17.8199 N   0  0  0  0  0  0  0  0  0  0  0  0
   13.0587  -15.2569   20.1553 C   0  0  0  0  0  0  0  0  0  0  0  0
   13.7786  -14.9017   21.1305 O   0  0  0  0  0  0  0  0  0  0  0  0
   11.8227  -15.8404   20.4534 N   0  0  0  0  0  0  0  0  0  0  0  0
   11.3862  -16.1423   21.8177 C   0  0  1  0  0  0  0  0  0  0  0  0
   10.0078  -16.6863   21.8355 C   0  0  0  0  0  0  0  0  0  0  0  0
    9.5948  -17.1112   23.2134 C   0  0  0  0  0  0  0  0  0  0  0  0
    8.2494  -17.8399   23.1806 C   0  0  0  0  0  0  0  0  0  0  0  0
    7.9888  -18.3106   24.5970 C   0  0  0  0  0  0  0  0  0  0  0  0
    6.8411  -19.1961   24.6061 N   0  0  0  0  0  0  0  0  0  0  0  0
   12.3806  -16.9843   22.4853 C   0  0  0  0  0  0  0  0  0  0  0  0
   12.6960  -18.1540   22.1740 O   0  0  0  0  0  0  0  0  0  0  0  0
   15.7208  -16.8975   22.2142 N   0  0  0  0  0  0  0  0  0  0  0  0
   16.1050  -16.3310   23.4806 C   0  0  0  0  0  0  0  0  0  0  0  0
   17.1810  -15.6905   23.5597 O   0  0  0  0  0  0  0  0  0  0  0  0
   15.2410  -16.5027   24.6729 C   0  0  0  0  0  0  0  0  0  0  0  0
   13.9955  -17.2673   24.3551 C   0  0  2  0  0  0  0  0  0  0  0  0
   13.0802  -16.4429   23.6126 N   0  0  0  0  0  0  0  0  0  0  0  0
   13.3745  -17.8059   25.5926 C   0  0  0  0  0  0  0  0  0  0  0  0
   14.0347  -18.7803   26.3277 O   0  0  0  0  0  0  0  0  0  0  0  0
   12.2623  -17.4168   26.0139 O   0  0  0  0  0  0  0  0  0  0  0  0
  2  1  1  0
  2  3  2  0
  4  5  1  0
  4  2  1  0
  5  7  1  0
  5  6  1  6
  7  8  2  0
  9 10  1  0
  9  7  1  0
 11 12  1  0
 10 11  1  6
 13 14  1  0
 13 12  1  0
 15 14  1  0
 16 17  2  0
 16 10  1  0
 18 19  1  0
 19 20  2  0
 19 21  1  0
 22 21  1  1
 22 24  1  0
 22 23  1  0
 23 16  1  0
 24 25  1  0
 26 24  2  0
M  END
$$$$
