NKN.pdb
     RDKit          3D

 26 25  0  0  1  0  0  0  0  0999 V2000
   17.5928  -13.9636   15.0610 N   0  0  0  0  0  0  0  0  0  0  0  0
   16.6229  -12.9606   15.2493 C   0  0  0  0  0  0  0  0  0  0  0  0
   16.6720  -11.9212   14.5550 O   0  0  0  0  0  0  0  0  0  0  0  0
   15.5515  -13.1111   16.2482 C   0  0  0  0  0  0  0  0  0  0  0  0
   15.6434  -14.4051   17.0092 C   0  0  2  0  0  0  0  0  0  0  0  0
   15.2070  -15.5316   16.2089 N   0  0  0  0  0  0  0  0  0  0  0  0
   14.8785  -14.2775   18.2630 C   0  0  0  0  0  0  0  0  0  0  0  0
   15.3313  -13.6932   19.2872 O   0  0  0  0  0  0  0  0  0  0  0  0
   13.5908  -14.8168   18.3528 N   0  0  0  0  0  0  0  0  0  0  0  0
   12.8074  -14.8216   19.5893 C   0  0  1  0  0  0  0  0  0  0  0  0
   11.3728  -15.0765   19.3186 C   0  0  0  0  0  0  0  0  0  0  0  0
   10.8114  -14.1006   18.3275 C   0  0  0  0  0  0  0  0  0  0  0  0
    9.3262  -14.3707   18.0753 C   0  0  0  0  0  0  0  0  0  0  0  0
    8.8864  -13.3694   17.0269 C   0  0  0  0  0  0  0  0  0  0  0  0
    7.4901  -13.5909   16.7058 N   0  0  0  0  0  0  0  0  0  0  0  0
   13.4138  -15.7335   20.5612 C   0  0  0  0  0  0  0  0  0  0  0  0
   13.7732  -16.9132   20.3522 O   0  0  0  0  0  0  0  0  0  0  0  0
   16.4635  -15.7091   21.4555 N   0  0  0  0  0  0  0  0  0  0  0  0
   16.4230  -15.2274   22.8115 C   0  0  0  0  0  0  0  0  0  0  0  0
   17.4010  -14.5800   23.2571 O   0  0  0  0  0  0  0  0  0  0  0  0
   15.2423  -15.4933   23.6677 C   0  0  0  0  0  0  0  0  0  0  0  0
   14.1348  -16.1476   22.9048 C   0  0  2  0  0  0  0  0  0  0  0  0
   13.6306  -15.2563   21.8948 N   0  0  0  0  0  0  0  0  0  0  0  0
   13.0601  -16.6080   23.8216 C   0  0  0  0  0  0  0  0  0  0  0  0
   13.3103  -17.6413   24.7133 O   0  0  0  0  0  0  0  0  0  0  0  0
   11.9167  -16.0998   23.8299 O   0  0  0  0  0  0  0  0  0  0  0  0
  2  1  1  0
  2  3  2  0
  4  5  1  0
  4  2  1  0
  5  7  1  0
  5  6  1  6
  7  8  2  0
  9 10  1  0
  9  7  1  0
 11 12  1  0
 10 11  1  6
 13 14  1  0
 13 12  1  0
 15 14  1  0
 16 17  2  0
 16 10  1  0
 18 19  1  0
 19 20  2  0
 19 21  1  0
 22 21  1  1
 22 24  1  0
 22 23  1  0
 23 16  1  0
 24 25  1  0
 26 24  2  0
M  END
$$$$
