NKN.pdb
     RDKit          3D

 26 25  0  0  1  0  0  0  0  0999 V2000
   15.8916  -13.1624   16.9421 N   0  0  0  0  0  0  0  0  0  0  0  0
   15.9709  -13.8799   18.1509 C   0  0  0  0  0  0  0  0  0  0  0  0
   17.0347  -14.4677   18.4470 O   0  0  0  0  0  0  0  0  0  0  0  0
   14.8258  -13.9520   19.0737 C   0  0  0  0  0  0  0  0  0  0  0  0
   14.1917  -15.3153   19.1084 C   0  0  2  0  0  0  0  0  0  0  0  0
   13.4364  -15.5877   17.9021 N   0  0  0  0  0  0  0  0  0  0  0  0
   13.3664  -15.4278   20.3248 C   0  0  0  0  0  0  0  0  0  0  0  0
   13.8197  -15.2146   21.4843 O   0  0  0  0  0  0  0  0  0  0  0  0
   12.0175  -15.7842   20.2223 N   0  0  0  0  0  0  0  0  0  0  0  0
   11.1093  -15.8259   21.3696 C   0  0  1  0  0  0  0  0  0  0  0  0
    9.6948  -15.9106   20.9356 C   0  0  0  0  0  0  0  0  0  0  0  0
    9.4545  -17.0966   20.0492 C   0  0  0  0  0  0  0  0  0  0  0  0
    7.9801  -17.1911   19.6502 C   0  0  0  0  0  0  0  0  0  0  0  0
    7.8586  -18.4168   18.7679 C   0  0  0  0  0  0  0  0  0  0  0  0
    6.4791  -18.5748   18.3512 N   0  0  0  0  0  0  0  0  0  0  0  0
   11.5246  -16.8798   22.2972 C   0  0  0  0  0  0  0  0  0  0  0  0
   12.0632  -17.9677   21.9958 O   0  0  0  0  0  0  0  0  0  0  0  0
   13.7761  -19.0868   26.6915 N   0  0  0  0  0  0  0  0  0  0  0  0
   12.6747  -18.1699   26.8275 C   0  0  0  0  0  0  0  0  0  0  0  0
   11.9410  -18.2458   27.8425 O   0  0  0  0  0  0  0  0  0  0  0  0
   12.4123  -17.1515   25.7826 C   0  0  0  0  0  0  0  0  0  0  0  0
   11.6319  -17.7138   24.6375 C   0  0  2  0  0  0  0  0  0  0  0  0
   11.3055  -16.6745   23.6984 N   0  0  0  0  0  0  0  0  0  0  0  0
   10.4188  -18.4226   25.1207 C   0  0  0  0  0  0  0  0  0  0  0  0
   10.5314  -19.7012   25.6481 O   0  0  0  0  0  0  0  0  0  0  0  0
    9.2767  -17.9134   25.0748 O   0  0  0  0  0  0  0  0  0  0  0  0
  2  1  1  0
  2  3  2  0
  4  5  1  0
  4  2  1  0
  5  7  1  0
  5  6  1  6
  7  8  2  0
  9 10  1  0
  9  7  1  0
 11 12  1  0
 10 11  1  6
 13 14  1  0
 13 12  1  0
 15 14  1  0
 16 17  2  0
 16 10  1  0
 18 19  1  0
 19 20  2  0
 19 21  1  0
 22 21  1  1
 22 24  1  0
 22 23  1  0
 23 16  1  0
 24 25  1  0
 26 24  2  0
M  END
$$$$
