NKN.pdb
     RDKit          3D

 26 25  0  0  1  0  0  0  0  0999 V2000
    7.1365  -14.4923   26.5977 N   0  0  0  0  0  0  0  0  0  0  0  0
    8.0977  -15.4086   27.0652 C   0  0  0  0  0  0  0  0  0  0  0  0
    8.9330  -15.0394   27.9201 O   0  0  0  0  0  0  0  0  0  0  0  0
    8.1392  -16.7937   26.5673 C   0  0  0  0  0  0  0  0  0  0  0  0
    7.0361  -17.0937   25.5899 C   0  0  2  0  0  0  0  0  0  0  0  0
    6.3642  -18.3389   25.9033 N   0  0  0  0  0  0  0  0  0  0  0  0
    7.5915  -17.0838   24.2244 C   0  0  0  0  0  0  0  0  0  0  0  0
    7.9175  -18.1370   23.6081 O   0  0  0  0  0  0  0  0  0  0  0  0
    7.7766  -15.8693   23.5551 N   0  0  0  0  0  0  0  0  0  0  0  0
    8.3703  -15.7709   22.2208 C   0  0  1  0  0  0  0  0  0  0  0  0
    7.8821  -14.5718   21.4997 C   0  0  0  0  0  0  0  0  0  0  0  0
    8.3615  -14.5431   20.0787 C   0  0  0  0  0  0  0  0  0  0  0  0
    7.7646  -13.3527   19.3243 C   0  0  0  0  0  0  0  0  0  0  0  0
    8.1212  -13.5547   17.8657 C   0  0  0  0  0  0  0  0  0  0  0  0
    7.5328  -12.4917   17.0749 N   0  0  0  0  0  0  0  0  0  0  0  0
    9.8280  -15.8726   22.3140 C   0  0  0  0  0  0  0  0  0  0  0  0
   10.5679  -15.2581   23.1137 O   0  0  0  0  0  0  0  0  0  0  0  0
   11.0330  -19.9699   22.6647 N   0  0  0  0  0  0  0  0  0  0  0  0
   12.0637  -18.9650   22.6425 C   0  0  0  0  0  0  0  0  0  0  0  0
   12.6800  -18.7016   23.7032 O   0  0  0  0  0  0  0  0  0  0  0  0
   12.3908  -18.2529   21.3842 C   0  0  0  0  0  0  0  0  0  0  0  0
   11.9415  -16.8268   21.4160 C   0  0  2  0  0  0  0  0  0  0  0  0
   10.5049  -16.7565   21.4119 N   0  0  0  0  0  0  0  0  0  0  0  0
   12.5352  -16.0592   20.2910 C   0  0  0  0  0  0  0  0  0  0  0  0
   13.8722  -15.6906   20.3376 O   0  0  0  0  0  0  0  0  0  0  0  0
   11.8760  -15.7214   19.2825 O   0  0  0  0  0  0  0  0  0  0  0  0
  2  1  1  0
  2  3  2  0
  4  5  1  0
  4  2  1  0
  5  7  1  0
  5  6  1  1
  7  8  2  0
  9 10  1  0
  9  7  1  0
 11 12  1  0
 10 11  1  1
 13 14  1  0
 13 12  1  0
 15 14  1  0
 16 17  2  0
 16 10  1  0
 18 19  1  0
 19 20  2  0
 19 21  1  0
 22 21  1  6
 22 24  1  0
 22 23  1  0
 23 16  1  0
 24 25  1  0
 26 24  2  0
M  END
$$$$
