NKN.pdb
     RDKit          3D

 26 25  0  0  1  0  0  0  0  0999 V2000
    9.5033  -12.5304   18.8869 N   0  0  0  0  0  0  0  0  0  0  0  0
    8.5201  -13.5371   18.9316 C   0  0  0  0  0  0  0  0  0  0  0  0
    8.1099  -14.0424   17.8634 O   0  0  0  0  0  0  0  0  0  0  0  0
    7.9648  -14.0069   20.2119 C   0  0  0  0  0  0  0  0  0  0  0  0
    8.8127  -15.0670   20.8596 C   0  0  2  0  0  0  0  0  0  0  0  0
    8.8434  -16.2847   20.0746 N   0  0  0  0  0  0  0  0  0  0  0  0
    8.3258  -15.2960   22.2321 C   0  0  0  0  0  0  0  0  0  0  0  0
    7.9501  -14.3601   22.9925 O   0  0  0  0  0  0  0  0  0  0  0  0
    8.2649  -16.5969   22.7429 N   0  0  0  0  0  0  0  0  0  0  0  0
    7.7426  -16.9128   24.0734 C   0  0  1  0  0  0  0  0  0  0  0  0
    7.1982  -18.2901   24.1267 C   0  0  0  0  0  0  0  0  0  0  0  0
    5.9959  -18.4480   23.2439 C   0  0  0  0  0  0  0  0  0  0  0  0
    5.4520  -19.8770   23.3113 C   0  0  0  0  0  0  0  0  0  0  0  0
    4.2275  -19.9058   22.4194 C   0  0  0  0  0  0  0  0  0  0  0  0
    3.7300  -21.2645   22.3291 N   0  0  0  0  0  0  0  0  0  0  0  0
    8.7550  -16.6197   25.0898 C   0  0  0  0  0  0  0  0  0  0  0  0
    9.9884  -16.7995   24.9862 O   0  0  0  0  0  0  0  0  0  0  0  0
    7.1516  -12.7705   27.4728 N   0  0  0  0  0  0  0  0  0  0  0  0
    8.4348  -13.4072   27.3301 C   0  0  0  0  0  0  0  0  0  0  0  0
    9.2469  -12.9577   26.4859 O   0  0  0  0  0  0  0  0  0  0  0  0
    8.7900  -14.5767   28.1690 C   0  0  0  0  0  0  0  0  0  0  0  0
    9.2871  -15.7234   27.3475 C   0  0  2  0  0  0  0  0  0  0  0  0
    8.3209  -16.0709   26.3403 N   0  0  0  0  0  0  0  0  0  0  0  0
    9.6277  -16.8842   28.2100 C   0  0  0  0  0  0  0  0  0  0  0  0
    9.0090  -18.1077   27.9954 O   0  0  0  0  0  0  0  0  0  0  0  0
   10.4621  -16.8123   29.1396 O   0  0  0  0  0  0  0  0  0  0  0  0
  2  1  1  0
  2  3  2  0
  4  5  1  0
  4  2  1  0
  5  7  1  0
  5  6  1  6
  7  8  2  0
  9 10  1  0
  9  7  1  0
 11 12  1  0
 10 11  1  6
 13 14  1  0
 13 12  1  0
 15 14  1  0
 16 17  2  0
 16 10  1  0
 18 19  1  0
 19 20  2  0
 19 21  1  0
 22 21  1  1
 22 24  1  0
 22 23  1  0
 23 16  1  0
 24 25  1  0
 26 24  2  0
M  END
$$$$
