NKN.pdb
     RDKit          3D

 26 25  0  0  1  0  0  0  0  0999 V2000
   11.7208  -17.1880   17.9626 N   0  0  0  0  0  0  0  0  0  0  0  0
   10.5373  -17.0244   18.7073 C   0  0  0  0  0  0  0  0  0  0  0  0
    9.4807  -17.5607   18.3064 O   0  0  0  0  0  0  0  0  0  0  0  0
   10.5189  -16.2339   19.9495 C   0  0  0  0  0  0  0  0  0  0  0  0
   10.1257  -17.0482   21.1513 C   0  0  2  0  0  0  0  0  0  0  0  0
    8.8189  -17.6526   20.9869 N   0  0  0  0  0  0  0  0  0  0  0  0
   10.2031  -16.1964   22.3520 C   0  0  0  0  0  0  0  0  0  0  0  0
   11.2947  -15.7657   22.8192 O   0  0  0  0  0  0  0  0  0  0  0  0
    9.0323  -15.8312   23.0252 N   0  0  0  0  0  0  0  0  0  0  0  0
    9.0311  -15.1278   24.3089 C   0  0  1  0  0  0  0  0  0  0  0  0
    7.7789  -14.3591   24.5022 C   0  0  0  0  0  0  0  0  0  0  0  0
    7.7701  -13.6296   25.8128 C   0  0  0  0  0  0  0  0  0  0  0  0
    6.5253  -12.7484   25.9396 C   0  0  0  0  0  0  0  0  0  0  0  0
    6.6515  -12.0267   27.2658 C   0  0  0  0  0  0  0  0  0  0  0  0
    5.4942  -11.1761   27.4626 N   0  0  0  0  0  0  0  0  0  0  0  0
    9.3433  -16.0632   25.3912 C   0  0  0  0  0  0  0  0  0  0  0  0
    8.6742  -17.0657   25.7254 O   0  0  0  0  0  0  0  0  0  0  0  0
   12.9087  -18.6000   24.9460 N   0  0  0  0  0  0  0  0  0  0  0  0
   12.1295  -18.5279   26.1543 C   0  0  0  0  0  0  0  0  0  0  0  0
   11.3863  -19.4921   26.4578 O   0  0  0  0  0  0  0  0  0  0  0  0
   12.2052  -17.3313   27.0262 C   0  0  0  0  0  0  0  0  0  0  0  0
   10.8601  -16.7171   27.2501 C   0  0  2  0  0  0  0  0  0  0  0  0
   10.5280  -15.8344   26.1642 N   0  0  0  0  0  0  0  0  0  0  0  0
   10.8069  -16.0226   28.5624 C   0  0  0  0  0  0  0  0  0  0  0  0
   11.0305  -16.7376   29.7305 O   0  0  0  0  0  0  0  0  0  0  0  0
   10.5656  -14.7994   28.6692 O   0  0  0  0  0  0  0  0  0  0  0  0
  2  1  1  0
  2  3  2  0
  4  5  1  0
  4  2  1  0
  5  7  1  0
  5  6  1  6
  7  8  2  0
  9 10  1  0
  9  7  1  0
 11 12  1  0
 10 11  1  1
 13 14  1  0
 13 12  1  0
 15 14  1  0
 16 17  2  0
 16 10  1  0
 18 19  1  0
 19 20  2  0
 19 21  1  0
 22 21  1  6
 22 24  1  0
 22 23  1  0
 23 16  1  0
 24 25  1  0
 26 24  2  0
M  END
$$$$
