MNS.pdb
     RDKit          3D

 23 22  0  0  1  0  0  0  0  0999 V2000
   18.0042  -13.7085  -17.7287 C   0  0  0  0  0  0  0  0  0  0  0  0
   19.5244  -13.1403  -18.4874 S   0  0  0  0  0  0  0  0  0  0  0  0
   19.6736  -11.4050  -18.7992 C   0  0  0  0  0  0  0  0  0  0  0  0
   19.2680  -10.4340  -17.7738 C   0  0  0  0  0  0  0  0  0  0  0  0
   19.3742   -9.0153  -18.1467 C   0  0  2  0  0  0  0  0  0  0  0  0
   20.0772   -8.8390  -19.3822 N   0  0  0  0  0  0  0  0  0  0  0  0
   19.9843   -8.1794  -17.0527 C   0  0  0  0  0  0  0  0  0  0  0  0
   19.5064   -8.1545  -15.9157 O   0  0  0  0  0  0  0  0  0  0  0  0
   23.1234   -4.9836  -14.5263 N   0  0  0  0  0  0  0  0  0  0  0  0
   23.8978   -5.7994  -15.4171 C   0  0  0  0  0  0  0  0  0  0  0  0
   25.1414   -5.7586  -15.3242 O   0  0  0  0  0  0  0  0  0  0  0  0
   23.2597   -6.6638  -16.4158 C   0  0  0  0  0  0  0  0  0  0  0  0
   21.7882   -6.5085  -16.4383 C   0  0  2  0  0  0  0  0  0  0  0  0
   21.1355   -7.4132  -17.3679 N   0  0  0  0  0  0  0  0  0  0  0  0
   21.3605   -5.1343  -16.7482 C   0  0  0  0  0  0  0  0  0  0  0  0
   21.4766   -4.6208  -17.8691 O   0  0  0  0  0  0  0  0  0  0  0  0
   18.5306   -1.4578  -15.4954 O   0  0  0  0  0  0  0  0  0  0  0  0
   18.9890   -2.7453  -15.2783 C   0  0  0  0  0  0  0  0  0  0  0  0
   20.3142   -2.9581  -15.9858 C   0  0  2  0  0  0  0  0  0  0  0  0
   20.7672   -4.3054  -15.7123 N   0  0  0  0  0  0  0  0  0  0  0  0
   21.3120   -1.9473  -15.6306 C   0  0  0  0  0  0  0  0  0  0  0  0
   21.8660   -2.0016  -14.5045 O   0  0  0  0  0  0  0  0  0  0  0  0
   21.6703   -0.9278  -16.4935 O   0  0  0  0  0  0  0  0  0  0  0  0
  1  2  1  0
  3  2  1  0
  4  3  1  0
  5  4  1  0
  5  6  1  6
  7  5  1  0
  8  7  2  0
  9 10  1  0
 10 12  1  0
 11 10  2  0
 13 12  1  6
 13 15  1  0
 13 14  1  0
 14  7  1  0
 15 20  1  0
 16 15  2  0
 19 18  1  1
 18 17  1  0
 19 21  1  0
 20 19  1  0
 21 22  2  0
 21 23  1  0
M  END
$$$$
