MNS.pdb
     RDKit          3D

 23 22  0  0  1  0  0  0  0  0999 V2000
   14.0151  -28.8683   -5.7273 C   0  0  0  0  0  0  0  0  0  0  0  0
   15.2389  -29.0079   -4.4263 S   0  0  0  0  0  0  0  0  0  0  0  0
   16.6521  -27.9480   -4.5279 C   0  0  0  0  0  0  0  0  0  0  0  0
   16.6926  -26.8662   -5.5214 C   0  0  0  0  0  0  0  0  0  0  0  0
   17.8935  -26.0172   -5.5064 C   0  0  2  0  0  0  0  0  0  0  0  0
   18.0469  -25.3313   -4.2583 N   0  0  0  0  0  0  0  0  0  0  0  0
   17.9278  -25.0526   -6.6621 C   0  0  0  0  0  0  0  0  0  0  0  0
   17.7805  -23.8392   -6.4957 O   0  0  0  0  0  0  0  0  0  0  0  0
   18.6403  -23.2817  -11.4934 N   0  0  0  0  0  0  0  0  0  0  0  0
   19.4004  -24.4852  -11.3122 C   0  0  0  0  0  0  0  0  0  0  0  0
   20.2742  -24.7644  -12.1578 O   0  0  0  0  0  0  0  0  0  0  0  0
   19.1685  -25.3739  -10.1685 C   0  0  0  0  0  0  0  0  0  0  0  0
   18.2734  -24.7694   -9.1569 C   0  0  2  0  0  0  0  0  0  0  0  0
   18.1365  -25.5821   -7.9613 N   0  0  0  0  0  0  0  0  0  0  0  0
   16.9279  -24.4804   -9.6800 C   0  0  0  0  0  0  0  0  0  0  0  0
   16.1269  -25.3601  -10.0237 O   0  0  0  0  0  0  0  0  0  0  0  0
   14.8961  -20.6447   -9.2707 O   0  0  0  0  0  0  0  0  0  0  0  0
   14.4515  -21.9544   -9.2257 C   0  0  0  0  0  0  0  0  0  0  0  0
   15.1494  -22.7836  -10.2874 C   0  0  2  0  0  0  0  0  0  0  0  0
   16.4795  -23.1047   -9.8156 N   0  0  0  0  0  0  0  0  0  0  0  0
   15.1610  -22.1289  -11.5970 C   0  0  0  0  0  0  0  0  0  0  0  0
   14.0720  -21.9158  -12.1858 O   0  0  0  0  0  0  0  0  0  0  0  0
   16.3333  -21.7335  -12.2148 O   0  0  0  0  0  0  0  0  0  0  0  0
  1  2  1  0
  3  2  1  0
  4  3  1  0
  5  4  1  0
  5  6  1  1
  7  5  1  0
  8  7  2  0
  9 10  1  0
 10 12  1  0
 11 10  2  0
 13 12  1  6
 13 15  1  0
 13 14  1  0
 14  7  1  0
 15 20  1  0
 16 15  2  0
 19 18  1  1
 18 17  1  0
 19 21  1  0
 20 19  1  0
 21 22  2  0
 21 23  1  0
M  END
$$$$
