MNS.pdb
     RDKit          3D

 23 22  0  0  1  0  0  0  0  0999 V2000
   11.0915  -13.2702  -10.6891 C   0  0  0  0  0  0  0  0  0  0  0  0
   12.1458  -11.9333  -10.1318 S   0  0  0  0  0  0  0  0  0  0  0  0
   13.7969  -11.8867  -10.7664 C   0  0  0  0  0  0  0  0  0  0  0  0
   14.7120  -10.8104  -10.3626 C   0  0  0  0  0  0  0  0  0  0  0  0
   16.0625  -10.8563  -10.9431 C   0  0  2  0  0  0  0  0  0  0  0  0
   16.7680  -12.0430  -10.5610 N   0  0  0  0  0  0  0  0  0  0  0  0
   16.8655   -9.6229  -10.6244 C   0  0  0  0  0  0  0  0  0  0  0  0
   17.4393   -9.4874   -9.5409 O   0  0  0  0  0  0  0  0  0  0  0  0
   20.0764   -8.7967  -11.5843 N   0  0  0  0  0  0  0  0  0  0  0  0
   19.7792   -7.8568  -12.6270 C   0  0  0  0  0  0  0  0  0  0  0  0
   20.5982   -7.7316  -13.5599 O   0  0  0  0  0  0  0  0  0  0  0  0
   18.5497   -7.0570  -12.6112 C   0  0  0  0  0  0  0  0  0  0  0  0
   17.6867   -7.3722  -11.4511 C   0  0  2  0  0  0  0  0  0  0  0  0
   16.9453   -8.6101  -11.6142 N   0  0  0  0  0  0  0  0  0  0  0  0
   16.7325   -6.2962  -11.1361 C   0  0  0  0  0  0  0  0  0  0  0  0
   15.7975   -5.9746  -11.8817 O   0  0  0  0  0  0  0  0  0  0  0  0
   15.6516   -5.5027   -7.3922 O   0  0  0  0  0  0  0  0  0  0  0  0
   15.9673   -4.3178   -8.0335 C   0  0  0  0  0  0  0  0  0  0  0  0
   15.9232   -4.5063   -9.5383 C   0  0  2  0  0  0  0  0  0  0  0  0
   16.8610   -5.5492   -9.8961 N   0  0  0  0  0  0  0  0  0  0  0  0
   16.1626   -3.2608  -10.2700 C   0  0  0  0  0  0  0  0  0  0  0  0
   17.1864   -3.1600  -10.9908 O   0  0  0  0  0  0  0  0  0  0  0  0
   15.2984   -2.1836  -10.1972 O   0  0  0  0  0  0  0  0  0  0  0  0
  1  2  1  0
  3  2  1  0
  4  3  1  0
  5  4  1  0
  5  6  1  1
  7  5  1  0
  8  7  2  0
  9 10  1  0
 10 12  1  0
 11 10  2  0
 13 12  1  6
 13 15  1  0
 13 14  1  0
 14  7  1  0
 15 20  1  0
 16 15  2  0
 19 18  1  1
 18 17  1  0
 19 21  1  0
 20 19  1  0
 21 22  2  0
 21 23  1  0
M  END
$$$$
