MNS.pdb
     RDKit          3D

 23 22  0  0  1  0  0  0  0  0999 V2000
   27.8949  -10.8914  -15.0216 C   0  0  0  0  0  0  0  0  0  0  0  0
   26.3167  -10.0830  -15.2773 S   0  0  0  0  0  0  0  0  0  0  0  0
   25.5636  -10.2639  -16.8682 C   0  0  0  0  0  0  0  0  0  0  0  0
   24.3097   -9.5619  -17.1746 C   0  0  0  0  0  0  0  0  0  0  0  0
   23.1291   -9.9773  -16.4021 C   0  0  2  0  0  0  0  0  0  0  0  0
   22.9260  -11.3941  -16.4576 N   0  0  0  0  0  0  0  0  0  0  0  0
   21.8849   -9.2355  -16.8136 C   0  0  0  0  0  0  0  0  0  0  0  0
   21.2524   -9.5462  -17.8261 O   0  0  0  0  0  0  0  0  0  0  0  0
   17.4476   -9.0655  -16.2297 N   0  0  0  0  0  0  0  0  0  0  0  0
   18.5619   -8.8399  -15.3543 C   0  0  0  0  0  0  0  0  0  0  0  0
   18.9742   -9.7950  -14.6654 O   0  0  0  0  0  0  0  0  0  0  0  0
   19.2102   -7.5274  -15.2605 C   0  0  0  0  0  0  0  0  0  0  0  0
   20.2783   -7.3524  -16.2696 C   0  0  2  0  0  0  0  0  0  0  0  0
   21.4550   -8.1584  -15.9971 N   0  0  0  0  0  0  0  0  0  0  0  0
   20.6997   -5.9501  -16.4224 C   0  0  0  0  0  0  0  0  0  0  0  0
   21.4081   -5.3575  -15.5975 O   0  0  0  0  0  0  0  0  0  0  0  0
   21.2053   -4.2663  -20.0594 O   0  0  0  0  0  0  0  0  0  0  0  0
   20.4623   -3.4423  -19.2325 C   0  0  0  0  0  0  0  0  0  0  0  0
   20.6905   -3.8118  -17.7788 C   0  0  2  0  0  0  0  0  0  0  0  0
   20.2833   -5.1876  -17.5875 N   0  0  0  0  0  0  0  0  0  0  0  0
   20.0237   -2.8950  -16.8523 C   0  0  0  0  0  0  0  0  0  0  0  0
   18.9837   -3.2728  -16.2577 O   0  0  0  0  0  0  0  0  0  0  0  0
   20.4984   -1.6199  -16.6052 O   0  0  0  0  0  0  0  0  0  0  0  0
  1  2  1  0
  3  2  1  0
  4  3  1  0
  5  4  1  0
  5  6  1  6
  7  5  1  0
  8  7  2  0
  9 10  1  0
 10 12  1  0
 11 10  2  0
 13 12  1  1
 13 15  1  0
 13 14  1  0
 14  7  1  0
 15 20  1  0
 16 15  2  0
 19 18  1  6
 18 17  1  0
 19 21  1  0
 20 19  1  0
 21 22  2  0
 21 23  1  0
M  END
$$$$
