MNS.pdb
     RDKit          3D

 23 22  0  0  1  0  0  0  0  0999 V2000
   17.1607  -14.8848  -17.8906 C   0  0  0  0  0  0  0  0  0  0  0  0
   17.3738  -13.2334  -17.2296 S   0  0  0  0  0  0  0  0  0  0  0  0
   18.4314  -13.0556  -15.8223 C   0  0  0  0  0  0  0  0  0  0  0  0
   18.5757  -11.7475  -15.1688 C   0  0  0  0  0  0  0  0  0  0  0  0
   19.1372  -10.6685  -15.9957 C   0  0  2  0  0  0  0  0  0  0  0  0
   20.4693  -10.9664  -16.4297 N   0  0  0  0  0  0  0  0  0  0  0  0
   19.0783   -9.3300  -15.3083 C   0  0  0  0  0  0  0  0  0  0  0  0
   18.0222   -8.8827  -14.8542 O   0  0  0  0  0  0  0  0  0  0  0  0
   20.6775   -4.8826  -13.1830 N   0  0  0  0  0  0  0  0  0  0  0  0
   21.8507   -5.6576  -13.4693 C   0  0  0  0  0  0  0  0  0  0  0  0
   22.9515   -5.2347  -13.0616 O   0  0  0  0  0  0  0  0  0  0  0  0
   21.7748   -6.9154  -14.2202 C   0  0  0  0  0  0  0  0  0  0  0  0
   20.3819   -7.2948  -14.5454 C   0  0  2  0  0  0  0  0  0  0  0  0
   20.2827   -8.5894  -15.1956 N   0  0  0  0  0  0  0  0  0  0  0  0
   19.6965   -6.2984  -15.3851 C   0  0  0  0  0  0  0  0  0  0  0  0
   20.0510   -6.0195  -16.5384 O   0  0  0  0  0  0  0  0  0  0  0  0
   16.0675   -4.6756  -14.0592 O   0  0  0  0  0  0  0  0  0  0  0  0
   16.3250   -4.8207  -15.4110 C   0  0  0  0  0  0  0  0  0  0  0  0
   17.8061   -4.6410  -15.6867 C   0  0  2  0  0  0  0  0  0  0  0  0
   18.5407   -5.5837  -14.8700 N   0  0  0  0  0  0  0  0  0  0  0  0
   18.2529   -3.2607  -15.4904 C   0  0  0  0  0  0  0  0  0  0  0  0
   17.7222   -2.3426  -16.1637 O   0  0  0  0  0  0  0  0  0  0  0  0
   19.2439   -2.9267  -14.5855 O   0  0  0  0  0  0  0  0  0  0  0  0
  1  2  1  0
  3  2  1  0
  4  3  1  0
  5  4  1  0
  5  6  1  1
  7  5  1  0
  8  7  2  0
  9 10  1  0
 10 12  1  0
 11 10  2  0
 13 12  1  6
 13 15  1  0
 13 14  1  0
 14  7  1  0
 15 20  1  0
 16 15  2  0
 19 18  1  1
 18 17  1  0
 19 21  1  0
 20 19  1  0
 21 22  2  0
 21 23  1  0
M  END
$$$$
