MNS.pdb
     RDKit          3D

 23 22  0  0  1  0  0  0  0  0999 V2000
   27.8075  -16.1243  -19.8889 C   0  0  0  0  0  0  0  0  0  0  0  0
   28.0772  -15.8182  -18.1445 S   0  0  0  0  0  0  0  0  0  0  0  0
   27.1594  -14.4994  -17.4032 C   0  0  0  0  0  0  0  0  0  0  0  0
   25.9234  -14.0160  -18.0334 C   0  0  0  0  0  0  0  0  0  0  0  0
   25.1665  -13.0029  -17.2825 C   0  0  2  0  0  0  0  0  0  0  0  0
   24.9064  -13.4193  -15.9369 N   0  0  0  0  0  0  0  0  0  0  0  0
   23.8937  -12.6039  -17.9813 C   0  0  0  0  0  0  0  0  0  0  0  0
   23.8760  -12.3264  -19.1832 O   0  0  0  0  0  0  0  0  0  0  0  0
   19.7397  -14.9553  -18.8978 N   0  0  0  0  0  0  0  0  0  0  0  0
   20.4364  -14.5287  -17.7182 C   0  0  0  0  0  0  0  0  0  0  0  0
   21.1428  -15.3624  -17.1160 O   0  0  0  0  0  0  0  0  0  0  0  0
   20.3315  -13.1527  -17.2209 C   0  0  0  0  0  0  0  0  0  0  0  0
   21.3901  -12.2739  -17.7658 C   0  0  2  0  0  0  0  0  0  0  0  0
   22.7028  -12.5552  -17.2125 N   0  0  0  0  0  0  0  0  0  0  0  0
   21.1020  -10.8426  -17.5763 C   0  0  0  0  0  0  0  0  0  0  0  0
   21.3453  -10.2315  -16.5271 O   0  0  0  0  0  0  0  0  0  0  0  0
   19.7273   -6.7442  -19.8616 O   0  0  0  0  0  0  0  0  0  0  0  0
   19.7918   -8.1265  -19.8750 C   0  0  0  0  0  0  0  0  0  0  0  0
   20.3072   -8.6419  -18.5443 C   0  0  2  0  0  0  0  0  0  0  0  0
   20.5010  -10.0723  -18.6522 N   0  0  0  0  0  0  0  0  0  0  0  0
   19.4393   -8.2759  -17.4234 C   0  0  0  0  0  0  0  0  0  0  0  0
   18.4895   -9.0358  -17.1096 O   0  0  0  0  0  0  0  0  0  0  0  0
   19.6267   -7.1175  -16.6917 O   0  0  0  0  0  0  0  0  0  0  0  0
  1  2  1  0
  3  2  1  0
  4  3  1  0
  5  4  1  0
  5  6  1  1
  7  5  1  0
  8  7  2  0
  9 10  1  0
 10 12  1  0
 11 10  2  0
 13 12  1  1
 13 15  1  0
 13 14  1  0
 14  7  1  0
 15 20  1  0
 16 15  2  0
 19 18  1  6
 18 17  1  0
 19 21  1  0
 20 19  1  0
 21 22  2  0
 21 23  1  0
M  END
$$$$
