MNS.pdb
     RDKit          3D

 23 22  0  0  1  0  0  0  0  0999 V2000
   20.7816  -14.8561  -17.3001 C   0  0  0  0  0  0  0  0  0  0  0  0
   19.7442  -13.4165  -17.5465 S   0  0  0  0  0  0  0  0  0  0  0  0
   20.0879  -11.9923  -16.5544 C   0  0  0  0  0  0  0  0  0  0  0  0
   19.2257  -10.8059  -16.6437 C   0  0  0  0  0  0  0  0  0  0  0  0
   19.5902   -9.6734  -15.7790 C   0  0  2  0  0  0  0  0  0  0  0  0
   20.2865  -10.1019  -14.6029 N   0  0  0  0  0  0  0  0  0  0  0  0
   18.4028   -8.8181  -15.4238 C   0  0  0  0  0  0  0  0  0  0  0  0
   17.5446   -8.5246  -16.2599 O   0  0  0  0  0  0  0  0  0  0  0  0
   17.0637   -9.8167  -10.7838 N   0  0  0  0  0  0  0  0  0  0  0  0
   16.4608   -9.0279  -11.8198 C   0  0  0  0  0  0  0  0  0  0  0  0
   15.4920   -9.5101  -12.4407 O   0  0  0  0  0  0  0  0  0  0  0  0
   16.9584   -7.6886  -12.1519 C   0  0  0  0  0  0  0  0  0  0  0  0
   17.2092   -7.5235  -13.6010 C   0  0  2  0  0  0  0  0  0  0  0  0
   18.2962   -8.3542  -14.0877 N   0  0  0  0  0  0  0  0  0  0  0  0
   17.4839   -6.1278  -13.9808 C   0  0  0  0  0  0  0  0  0  0  0  0
   18.4869   -5.5048  -13.6077 O   0  0  0  0  0  0  0  0  0  0  0  0
   14.6233   -4.0022  -16.2286 O   0  0  0  0  0  0  0  0  0  0  0  0
   15.9613   -3.7214  -16.4432 C   0  0  0  0  0  0  0  0  0  0  0  0
   16.7690   -4.0240  -15.1951 C   0  0  2  0  0  0  0  0  0  0  0  0
   16.5539   -5.4096  -14.8361 N   0  0  0  0  0  0  0  0  0  0  0  0
   16.4711   -3.1060  -14.0941 C   0  0  0  0  0  0  0  0  0  0  0  0
   15.9223   -3.5514  -13.0556 O   0  0  0  0  0  0  0  0  0  0  0  0
   16.7728   -1.7578  -14.1543 O   0  0  0  0  0  0  0  0  0  0  0  0
  1  2  1  0
  3  2  1  0
  4  3  1  0
  5  4  1  0
  5  6  1  1
  7  5  1  0
  8  7  2  0
  9 10  1  0
 10 12  1  0
 11 10  2  0
 13 12  1  1
 13 15  1  0
 13 14  1  0
 14  7  1  0
 15 20  1  0
 16 15  2  0
 19 18  1  6
 18 17  1  0
 19 21  1  0
 20 19  1  0
 21 22  2  0
 21 23  1  0
M  END
$$$$
