MNS.pdb
     RDKit          3D

 23 22  0  0  1  0  0  0  0  0999 V2000
   15.0351  -14.8914  -10.1480 C   0  0  0  0  0  0  0  0  0  0  0  0
   15.4462  -13.3565  -10.9755 S   0  0  0  0  0  0  0  0  0  0  0  0
   15.3614  -11.8723  -10.0160 C   0  0  0  0  0  0  0  0  0  0  0  0
   15.6481  -10.5734  -10.6401 C   0  0  0  0  0  0  0  0  0  0  0  0
   15.5011   -9.3926   -9.7757 C   0  0  2  0  0  0  0  0  0  0  0  0
   14.2244   -9.3613   -9.1269 N   0  0  0  0  0  0  0  0  0  0  0  0
   15.7654   -8.1063  -10.5127 C   0  0  0  0  0  0  0  0  0  0  0  0
   14.8874   -7.5498  -11.1768 O   0  0  0  0  0  0  0  0  0  0  0  0
   17.0272   -3.8310   -8.4850 N   0  0  0  0  0  0  0  0  0  0  0  0
   17.3453   -5.0207   -9.2214 C   0  0  0  0  0  0  0  0  0  0  0  0
   17.8289   -5.9883   -8.5995 O   0  0  0  0  0  0  0  0  0  0  0  0
   17.1139   -5.1130  -10.6670 C   0  0  0  0  0  0  0  0  0  0  0  0
   17.5226   -6.4228  -11.2211 C   0  0  2  0  0  0  0  0  0  0  0  0
   17.0651   -7.5456  -10.4219 N   0  0  0  0  0  0  0  0  0  0  0  0
   18.9791   -6.5415  -11.3999 C   0  0  0  0  0  0  0  0  0  0  0  0
   19.7769   -6.6259  -10.4565 O   0  0  0  0  0  0  0  0  0  0  0  0
   20.6846   -8.8082  -13.9468 O   0  0  0  0  0  0  0  0  0  0  0  0
   21.2193   -7.5496  -14.1589 C   0  0  0  0  0  0  0  0  0  0  0  0
   20.9771   -6.6647  -12.9506 C   0  0  2  0  0  0  0  0  0  0  0  0
   19.5491   -6.5640  -12.7366 N   0  0  0  0  0  0  0  0  0  0  0  0
   21.6202   -5.3551  -13.0725 C   0  0  0  0  0  0  0  0  0  0  0  0
   20.9810   -4.4033  -13.5859 O   0  0  0  0  0  0  0  0  0  0  0  0
   22.9136   -5.1242  -12.6411 O   0  0  0  0  0  0  0  0  0  0  0  0
  1  2  1  0
  3  2  1  0
  4  3  1  0
  5  4  1  0
  5  6  1  6
  7  5  1  0
  8  7  2  0
  9 10  1  0
 10 12  1  0
 11 10  2  0
 13 12  1  1
 13 15  1  0
 13 14  1  0
 14  7  1  0
 15 20  1  0
 16 15  2  0
 19 18  1  6
 18 17  1  0
 19 21  1  0
 20 19  1  0
 21 22  2  0
 21 23  1  0
M  END
$$$$
