MNS.pdb
     RDKit          3D

 23 22  0  0  1  0  0  0  0  0999 V2000
   28.0249  -19.9672   -4.4927 C   0  0  0  0  0  0  0  0  0  0  0  0
   28.1950  -20.4885   -6.1982 S   0  0  0  0  0  0  0  0  0  0  0  0
   26.8079  -20.2290   -7.2657 C   0  0  0  0  0  0  0  0  0  0  0  0
   26.8910  -20.5973   -8.6856 C   0  0  0  0  0  0  0  0  0  0  0  0
   25.7081  -20.2922   -9.5046 C   0  0  2  0  0  0  0  0  0  0  0  0
   24.5293  -20.9289   -8.9980 N   0  0  0  0  0  0  0  0  0  0  0  0
   25.9181  -20.6202  -10.9592 C   0  0  0  0  0  0  0  0  0  0  0  0
   27.0196  -20.4890  -11.4988 O   0  0  0  0  0  0  0  0  0  0  0  0
   25.5627  -24.4117  -13.8672 N   0  0  0  0  0  0  0  0  0  0  0  0
   24.5344  -23.7496  -13.1169 C   0  0  0  0  0  0  0  0  0  0  0  0
   24.1169  -24.2976  -12.0766 O   0  0  0  0  0  0  0  0  0  0  0  0
   23.9784  -22.4624  -13.5479 C   0  0  0  0  0  0  0  0  0  0  0  0
   24.8199  -21.3176  -13.1343 C   0  0  2  0  0  0  0  0  0  0  0  0
   24.8034  -21.0891  -11.7003 N   0  0  0  0  0  0  0  0  0  0  0  0
   24.4536  -20.0620  -13.8100 C   0  0  0  0  0  0  0  0  0  0  0  0
   23.6386  -19.2521  -13.3481 O   0  0  0  0  0  0  0  0  0  0  0  0
   26.8634  -18.7241  -16.7992 O   0  0  0  0  0  0  0  0  0  0  0  0
   26.0141  -17.8124  -16.1971 C   0  0  0  0  0  0  0  0  0  0  0  0
   24.7240  -18.4924  -15.7785 C   0  0  2  0  0  0  0  0  0  0  0  0
   25.0575  -19.7193  -15.0868 N   0  0  0  0  0  0  0  0  0  0  0  0
   23.8116  -18.7116  -16.9024 C   0  0  0  0  0  0  0  0  0  0  0  0
   23.5107  -19.8870  -17.2278 O   0  0  0  0  0  0  0  0  0  0  0  0
   23.2645  -17.6667  -17.6244 O   0  0  0  0  0  0  0  0  0  0  0  0
  1  2  1  0
  3  2  1  0
  4  3  1  0
  5  4  1  0
  5  6  1  1
  7  5  1  0
  8  7  2  0
  9 10  1  0
 10 12  1  0
 11 10  2  0
 13 12  1  1
 13 15  1  0
 13 14  1  0
 14  7  1  0
 15 20  1  0
 16 15  2  0
 19 18  1  6
 18 17  1  0
 19 21  1  0
 20 19  1  0
 21 22  2  0
 21 23  1  0
M  END
$$$$
