MNS.pdb
     RDKit          3D

 23 22  0  0  1  0  0  0  0  0999 V2000
   14.3512  -14.7117  -14.0962 C   0  0  0  0  0  0  0  0  0  0  0  0
   14.1508  -12.9414  -13.9077 S   0  0  0  0  0  0  0  0  0  0  0  0
   15.3026  -12.1041  -12.8575 C   0  0  0  0  0  0  0  0  0  0  0  0
   15.1557  -10.6648  -12.6014 C   0  0  0  0  0  0  0  0  0  0  0  0
   16.1580  -10.0593  -11.7116 C   0  0  2  0  0  0  0  0  0  0  0  0
   16.4350  -10.8883  -10.5769 N   0  0  0  0  0  0  0  0  0  0  0  0
   15.7780   -8.6662  -11.2844 C   0  0  0  0  0  0  0  0  0  0  0  0
   15.4424   -7.8077  -12.1043 O   0  0  0  0  0  0  0  0  0  0  0  0
   13.0374   -9.0321   -7.3550 N   0  0  0  0  0  0  0  0  0  0  0  0
   13.3948   -7.7901   -7.9784 C   0  0  0  0  0  0  0  0  0  0  0  0
   12.4965   -7.1322   -8.5412 O   0  0  0  0  0  0  0  0  0  0  0  0
   14.7749   -7.2934   -7.9630 C   0  0  0  0  0  0  0  0  0  0  0  0
   15.3282   -7.1230   -9.3249 C   0  0  2  0  0  0  0  0  0  0  0  0
   15.8166   -8.3641   -9.8992 N   0  0  0  0  0  0  0  0  0  0  0  0
   16.4091   -6.1252   -9.3848 C   0  0  0  0  0  0  0  0  0  0  0  0
   17.4487   -6.2056   -8.7168 O   0  0  0  0  0  0  0  0  0  0  0  0
   16.9308   -3.9146  -12.7146 O   0  0  0  0  0  0  0  0  0  0  0  0
   17.9284   -4.0661  -11.7676 C   0  0  0  0  0  0  0  0  0  0  0  0
   17.3432   -3.9878  -10.3700 C   0  0  2  0  0  0  0  0  0  0  0  0
   16.2873   -4.9719  -10.2607 N   0  0  0  0  0  0  0  0  0  0  0  0
   16.8918   -2.6391  -10.0222 C   0  0  0  0  0  0  0  0  0  0  0  0
   15.6734   -2.4411   -9.7893 O   0  0  0  0  0  0  0  0  0  0  0  0
   17.7618   -1.5674   -9.9399 O   0  0  0  0  0  0  0  0  0  0  0  0
  1  2  1  0
  3  2  1  0
  4  3  1  0
  5  4  1  0
  5  6  1  1
  7  5  1  0
  8  7  2  0
  9 10  1  0
 10 12  1  0
 11 10  2  0
 13 12  1  1
 13 15  1  0
 13 14  1  0
 14  7  1  0
 15 20  1  0
 16 15  2  0
 19 18  1  6
 18 17  1  0
 19 21  1  0
 20 19  1  0
 21 22  2  0
 21 23  1  0
M  END
$$$$
