MNS.pdb
     RDKit          3D

 23 22  0  0  1  0  0  0  0  0999 V2000
   28.9002  -20.3045   -6.6798 C   0  0  0  0  0  0  0  0  0  0  0  0
   29.8107  -21.5334   -7.6127 S   0  0  0  0  0  0  0  0  0  0  0  0
   29.3446  -21.7753   -9.3024 C   0  0  0  0  0  0  0  0  0  0  0  0
   28.0535  -21.2716   -9.7906 C   0  0  0  0  0  0  0  0  0  0  0  0
   27.7723  -21.4860  -11.2182 C   0  0  2  0  0  0  0  0  0  0  0  0
   28.9518  -21.3556  -12.0203 N   0  0  0  0  0  0  0  0  0  0  0  0
   26.6711  -20.5930  -11.7256 C   0  0  0  0  0  0  0  0  0  0  0  0
   26.6887  -19.3741  -11.5367 O   0  0  0  0  0  0  0  0  0  0  0  0
   23.8998  -19.5090  -16.7415 N   0  0  0  0  0  0  0  0  0  0  0  0
   24.1032  -19.3517  -15.3299 C   0  0  0  0  0  0  0  0  0  0  0  0
   23.4432  -18.4777  -14.7322 O   0  0  0  0  0  0  0  0  0  0  0  0
   25.0577  -20.1883  -14.5945 C   0  0  0  0  0  0  0  0  0  0  0  0
   24.6192  -20.4581  -13.2071 C   0  0  2  0  0  0  0  0  0  0  0  0
   25.6014  -21.1974  -12.4344 N   0  0  0  0  0  0  0  0  0  0  0  0
   23.3365  -21.1777  -13.1401 C   0  0  0  0  0  0  0  0  0  0  0  0
   23.1685  -22.3153  -13.5995 O   0  0  0  0  0  0  0  0  0  0  0  0
   19.9487  -19.0555  -12.1223 O   0  0  0  0  0  0  0  0  0  0  0  0
   19.9478  -20.3557  -11.6488 C   0  0  0  0  0  0  0  0  0  0  0  0
   20.8963  -21.2135  -12.4651 C   0  0  2  0  0  0  0  0  0  0  0  0
   22.1843  -20.5547  -12.5105 N   0  0  0  0  0  0  0  0  0  0  0  0
   20.3746  -21.5190  -13.7985 C   0  0  0  0  0  0  0  0  0  0  0  0
   19.3775  -22.2751  -13.9087 O   0  0  0  0  0  0  0  0  0  0  0  0
   20.9416  -21.0033  -14.9496 O   0  0  0  0  0  0  0  0  0  0  0  0
  1  2  1  0
  3  2  1  0
  4  3  1  0
  5  4  1  0
  5  6  1  6
  7  5  1  0
  8  7  2  0
  9 10  1  0
 10 12  1  0
 11 10  2  0
 13 12  1  6
 13 15  1  0
 13 14  1  0
 14  7  1  0
 15 20  1  0
 16 15  2  0
 19 18  1  6
 18 17  1  0
 19 21  1  0
 20 19  1  0
 21 22  2  0
 21 23  1  0
M  END
$$$$
