MNS.pdb
     RDKit          3D

 23 22  0  0  1  0  0  0  0  0999 V2000
   28.4211  -13.9999  -15.4075 C   0  0  0  0  0  0  0  0  0  0  0  0
   27.1751  -12.7192  -15.5377 S   0  0  0  0  0  0  0  0  0  0  0  0
   26.3258  -12.5710  -17.0828 C   0  0  0  0  0  0  0  0  0  0  0  0
   25.3443  -11.4964  -17.2847 C   0  0  0  0  0  0  0  0  0  0  0  0
   24.6129  -11.0536  -16.0880 C   0  0  2  0  0  0  0  0  0  0  0  0
   23.9239  -12.1365  -15.4522 N   0  0  0  0  0  0  0  0  0  0  0  0
   23.6752   -9.9119  -16.3793 C   0  0  0  0  0  0  0  0  0  0  0  0
   24.0304   -8.9387  -17.0489 O   0  0  0  0  0  0  0  0  0  0  0  0
   20.3782  -10.4215  -18.2375 N   0  0  0  0  0  0  0  0  0  0  0  0
   19.5363  -10.2677  -17.0858 C   0  0  0  0  0  0  0  0  0  0  0  0
   18.4170  -10.8190  -17.0950 O   0  0  0  0  0  0  0  0  0  0  0  0
   19.9654   -9.4866  -15.9207 C   0  0  0  0  0  0  0  0  0  0  0  0
   21.3439   -8.9684  -16.0658 C   0  0  2  0  0  0  0  0  0  0  0  0
   22.3584   -9.9863  -15.8575 N   0  0  0  0  0  0  0  0  0  0  0  0
   21.6291   -7.8364  -15.1688 C   0  0  0  0  0  0  0  0  0  0  0  0
   22.1897   -7.9607  -14.0716 O   0  0  0  0  0  0  0  0  0  0  0  0
   23.3372   -3.7022  -14.5374 O   0  0  0  0  0  0  0  0  0  0  0  0
   22.9229   -4.7802  -15.2998 C   0  0  0  0  0  0  0  0  0  0  0  0
   21.6199   -5.3378  -14.7582 C   0  0  2  0  0  0  0  0  0  0  0  0
   21.2486   -6.4879  -15.5547 N   0  0  0  0  0  0  0  0  0  0  0  0
   20.5583   -4.3314  -14.6961 C   0  0  0  0  0  0  0  0  0  0  0  0
   20.3655   -3.7087  -13.6223 O   0  0  0  0  0  0  0  0  0  0  0  0
   19.7540   -4.0382  -15.7822 O   0  0  0  0  0  0  0  0  0  0  0  0
  1  2  1  0
  3  2  1  0
  4  3  1  0
  5  4  1  0
  5  6  1  6
  7  5  1  0
  8  7  2  0
  9 10  1  0
 10 12  1  0
 11 10  2  0
 13 12  1  1
 13 15  1  0
 13 14  1  0
 14  7  1  0
 15 20  1  0
 16 15  2  0
 19 18  1  6
 18 17  1  0
 19 21  1  0
 20 19  1  0
 21 22  2  0
 21 23  1  0
M  END
$$$$
