MNS.pdb
     RDKit          3D

 23 22  0  0  1  0  0  0  0  0999 V2000
   16.6008  -15.5109  -14.1585 C   0  0  0  0  0  0  0  0  0  0  0  0
   15.7440  -14.2785  -15.1365 S   0  0  0  0  0  0  0  0  0  0  0  0
   16.7099  -12.9451  -15.7844 C   0  0  0  0  0  0  0  0  0  0  0  0
   17.3785  -12.0075  -14.8718 C   0  0  0  0  0  0  0  0  0  0  0  0
   17.0838  -10.5814  -15.0778 C   0  0  2  0  0  0  0  0  0  0  0  0
   17.5560  -10.1164  -16.3476 N   0  0  0  0  0  0  0  0  0  0  0  0
   17.6059   -9.7208  -13.9578 C   0  0  0  0  0  0  0  0  0  0  0  0
   17.4070  -10.0087  -12.7749 O   0  0  0  0  0  0  0  0  0  0  0  0
   22.0294   -8.5709  -13.6984 N   0  0  0  0  0  0  0  0  0  0  0  0
   21.1037   -7.8159  -14.4933 C   0  0  0  0  0  0  0  0  0  0  0  0
   21.1594   -7.9323  -15.7343 O   0  0  0  0  0  0  0  0  0  0  0  0
   20.1123   -6.9265  -13.8786 C   0  0  0  0  0  0  0  0  0  0  0  0
   18.9522   -7.6662  -13.3337 C   0  0  2  0  0  0  0  0  0  0  0  0
   18.3405   -8.5576  -14.3030 N   0  0  0  0  0  0  0  0  0  0  0  0
   17.9086   -6.7797  -12.7929 C   0  0  0  0  0  0  0  0  0  0  0  0
   17.1643   -6.0907  -13.5034 O   0  0  0  0  0  0  0  0  0  0  0  0
   17.6610   -6.2234   -8.6530 O   0  0  0  0  0  0  0  0  0  0  0  0
   16.4638   -6.2445   -9.3466 C   0  0  0  0  0  0  0  0  0  0  0  0
   16.6844   -5.8310  -10.7896 C   0  0  2  0  0  0  0  0  0  0  0  0
   17.7105   -6.6800  -11.3566 N   0  0  0  0  0  0  0  0  0  0  0  0
   16.9948   -4.4068  -10.9271 C   0  0  0  0  0  0  0  0  0  0  0  0
   16.1412   -3.5561  -10.5729 O   0  0  0  0  0  0  0  0  0  0  0  0
   18.2005   -3.9593  -11.4356 O   0  0  0  0  0  0  0  0  0  0  0  0
  1  2  1  0
  3  2  1  0
  4  3  1  0
  5  4  1  0
  5  6  1  6
  7  5  1  0
  8  7  2  0
  9 10  1  0
 10 12  1  0
 11 10  2  0
 13 12  1  6
 13 15  1  0
 13 14  1  0
 14  7  1  0
 15 20  1  0
 16 15  2  0
 19 18  1  1
 18 17  1  0
 19 21  1  0
 20 19  1  0
 21 22  2  0
 21 23  1  0
M  END
$$$$
