MNS.pdb
     RDKit          3D

 23 22  0  0  1  0  0  0  0  0999 V2000
   15.4417   -2.1816   -7.6418 C   0  0  0  0  0  0  0  0  0  0  0  0
   14.3472   -3.3296   -6.8089 S   0  0  0  0  0  0  0  0  0  0  0  0
   14.2030   -4.9535   -7.4966 C   0  0  0  0  0  0  0  0  0  0  0  0
   15.3480   -5.5685   -8.1818 C   0  0  0  0  0  0  0  0  0  0  0  0
   15.1025   -6.8767   -8.8074 C   0  0  2  0  0  0  0  0  0  0  0  0
   14.7242   -7.8668   -7.8440 N   0  0  0  0  0  0  0  0  0  0  0  0
   16.2706   -7.3447   -9.6345 C   0  0  0  0  0  0  0  0  0  0  0  0
   17.1620   -8.0490   -9.1538 O   0  0  0  0  0  0  0  0  0  0  0  0
   18.6400   -9.7229  -12.8131 N   0  0  0  0  0  0  0  0  0  0  0  0
   17.4324   -9.3403  -13.4871 C   0  0  0  0  0  0  0  0  0  0  0  0
   17.0231  -10.0611  -14.4197 O   0  0  0  0  0  0  0  0  0  0  0  0
   16.6872   -8.1370  -13.1019 C   0  0  0  0  0  0  0  0  0  0  0  0
   17.2991   -7.4397  -11.9490 C   0  0  2  0  0  0  0  0  0  0  0  0
   16.3191   -6.9498  -10.9959 N   0  0  0  0  0  0  0  0  0  0  0  0
   18.1614   -6.3156  -12.3495 C   0  0  0  0  0  0  0  0  0  0  0  0
   17.7253   -5.1987  -12.6588 O   0  0  0  0  0  0  0  0  0  0  0  0
   22.7689   -4.9706  -13.3168 O   0  0  0  0  0  0  0  0  0  0  0  0
   21.8992   -5.9545  -12.8805 C   0  0  0  0  0  0  0  0  0  0  0  0
   20.4784   -5.4234  -12.8465 C   0  0  2  0  0  0  0  0  0  0  0  0
   19.6039   -6.4857  -12.3970 N   0  0  0  0  0  0  0  0  0  0  0  0
   20.0580   -4.8547  -14.1284 C   0  0  0  0  0  0  0  0  0  0  0  0
   19.6979   -5.6254  -15.0527 O   0  0  0  0  0  0  0  0  0  0  0  0
   20.0421   -3.4918  -14.3622 O   0  0  0  0  0  0  0  0  0  0  0  0
  1  2  1  0
  3  2  1  0
  4  3  1  0
  5  4  1  0
  5  6  1  1
  7  5  1  0
  8  7  2  0
  9 10  1  0
 10 12  1  0
 11 10  2  0
 13 12  1  6
 13 15  1  0
 13 14  1  0
 14  7  1  0
 15 20  1  0
 16 15  2  0
 19 18  1  6
 18 17  1  0
 19 21  1  0
 20 19  1  0
 21 22  2  0
 21 23  1  0
M  END
$$$$
