MNS.pdb
     RDKit          3D

 23 22  0  0  1  0  0  0  0  0999 V2000
   14.7923   -9.3001  -15.2893 C   0  0  0  0  0  0  0  0  0  0  0  0
   14.9904  -10.9593  -15.9353 S   0  0  0  0  0  0  0  0  0  0  0  0
   16.5770  -11.3881  -16.5909 C   0  0  0  0  0  0  0  0  0  0  0  0
   17.7877  -10.7293  -16.0821 C   0  0  0  0  0  0  0  0  0  0  0  0
   19.0600  -11.1590  -16.6819 C   0  0  2  0  0  0  0  0  0  0  0  0
   19.2899  -12.5610  -16.4994 N   0  0  0  0  0  0  0  0  0  0  0  0
   20.2293  -10.3497  -16.1866 C   0  0  0  0  0  0  0  0  0  0  0  0
   20.7977  -10.6180  -15.1251 O   0  0  0  0  0  0  0  0  0  0  0  0
   25.1553   -7.7816  -16.8212 N   0  0  0  0  0  0  0  0  0  0  0  0
   23.8785   -7.3652  -17.3264 C   0  0  0  0  0  0  0  0  0  0  0  0
   23.6767   -6.1444  -17.4866 O   0  0  0  0  0  0  0  0  0  0  0  0
   22.8281   -8.3363  -17.6509 C   0  0  0  0  0  0  0  0  0  0  0  0
   21.7641   -8.3807  -16.6234 C   0  0  2  0  0  0  0  0  0  0  0  0
   20.6645   -9.2588  -16.9817 N   0  0  0  0  0  0  0  0  0  0  0  0
   21.2148   -7.0517  -16.3079 C   0  0  0  0  0  0  0  0  0  0  0  0
   20.4657   -6.4255  -17.0696 O   0  0  0  0  0  0  0  0  0  0  0  0
   22.1577   -5.0692  -12.6088 O   0  0  0  0  0  0  0  0  0  0  0  0
   20.9114   -4.9969  -13.2060 C   0  0  0  0  0  0  0  0  0  0  0  0
   21.0446   -5.0912  -14.7144 C   0  0  2  0  0  0  0  0  0  0  0  0
   21.5455   -6.4077  -15.0477 N   0  0  0  0  0  0  0  0  0  0  0  0
   21.8678   -4.0186  -15.2760 C   0  0  0  0  0  0  0  0  0  0  0  0
   22.9857   -4.3005  -15.7750 O   0  0  0  0  0  0  0  0  0  0  0  0
   21.4588   -2.6976  -15.2783 O   0  0  0  0  0  0  0  0  0  0  0  0
  1  2  1  0
  3  2  1  0
  4  3  1  0
  5  4  1  0
  5  6  1  1
  7  5  1  0
  8  7  2  0
  9 10  1  0
 10 12  1  0
 11 10  2  0
 13 12  1  6
 13 15  1  0
 13 14  1  0
 14  7  1  0
 15 20  1  0
 16 15  2  0
 19 18  1  1
 18 17  1  0
 19 21  1  0
 20 19  1  0
 21 22  2  0
 21 23  1  0
M  END
$$$$
