TPI.pdb
     RDKit          3D

 23 23  0  0  1  0  0  0  0  0999 V2000
    5.5330  -17.6957   23.1296 C   0  0  0  0  0  0  0  0  0  0  0  0
    6.2088  -18.6826   22.1969 C   0  0  1  0  0  0  0  0  0  0  0  0
    5.2659  -19.6504   21.8697 O   0  0  0  0  0  0  0  0  0  0  0  0
    6.6401  -17.8949   20.9645 C   0  0  2  0  0  0  0  0  0  0  0  0
    6.8789  -18.8228   19.9162 N   0  0  0  0  0  0  0  0  0  0  0  0
    7.7208  -16.9515   21.2624 C   0  0  0  0  0  0  0  0  0  0  0  0
    8.8898  -17.4795   21.3136 O   0  0  0  0  0  0  0  0  0  0  0  0
    7.6229  -15.5753   21.4914 N   0  0  0  0  0  0  0  0  0  0  0  0
    6.5057  -14.6660   21.6098 C   0  0  0  0  0  0  0  0  0  0  0  0
    6.9071  -13.5484   20.6710 C   0  0  0  0  0  0  0  0  0  0  0  0
    8.3831  -13.4155   20.9711 C   0  0  0  0  0  0  0  0  0  0  0  0
    8.7842  -14.6903   21.6767 C   0  0  1  0  0  0  0  0  0  0  0  0
    9.0107  -14.4275   23.1181 C   0  0  0  0  0  0  0  0  0  0  0  0
    9.8261  -13.5221   23.4289 O   0  0  0  0  0  0  0  0  0  0  0  0
    6.4290  -11.7353   25.8418 C   0  0  0  0  0  0  0  0  0  0  0  0
    7.3956  -12.6830   25.1909 C   0  0  0  0  0  0  0  0  0  0  0  0
    7.7839  -13.7741   26.1153 C   0  0  2  0  0  0  0  0  0  0  0  0
    8.5684  -13.1968   27.3074 C   0  0  0  0  0  0  0  0  0  0  0  0
    8.6468  -14.8581   25.5543 C   0  0  2  0  0  0  0  0  0  0  0  0
    8.3812  -15.1159   24.1580 N   0  0  0  0  0  0  0  0  0  0  0  0
    8.7431  -16.0794   26.3649 C   0  0  0  0  0  0  0  0  0  0  0  0
    9.6508  -16.1800   27.4119 O   0  0  0  0  0  0  0  0  0  0  0  0
    8.0296  -17.1096   26.1822 O   0  0  0  0  0  0  0  0  0  0  0  0
  2  1  1  1
  3  2  1  0
  4  2  1  0
  4  5  1  6
  6  4  1  0
  7  6  2  0
  8  6  1  0
  8 12  1  0
  9 10  1  0
  9  8  1  0
 10 11  1  0
 11 12  1  0
 12 13  1  1
 13 14  2  0
 16 15  1  0
 17 16  1  0
 17 18  1  1
 19 20  1  6
 19 17  1  0
 20 13  1  0
 21 19  1  0
 22 21  1  0
 23 21  2  0
M  END
$$$$
