TPI.pdb
     RDKit          3D

 23 23  0  0  1  0  0  0  0  0999 V2000
    3.7925  -18.0284   21.1692 C   0  0  0  0  0  0  0  0  0  0  0  0
    5.0729  -17.3990   21.6835 C   0  0  1  0  0  0  0  0  0  0  0  0
    5.5964  -18.2581   22.6430 O   0  0  0  0  0  0  0  0  0  0  0  0
    6.0099  -17.2730   20.4870 C   0  0  2  0  0  0  0  0  0  0  0  0
    6.1379  -18.5584   19.8969 N   0  0  0  0  0  0  0  0  0  0  0  0
    7.2561  -16.5839   20.8318 C   0  0  0  0  0  0  0  0  0  0  0  0
    8.2986  -17.3328   20.8238 O   0  0  0  0  0  0  0  0  0  0  0  0
    7.4315  -15.2358   21.1601 N   0  0  0  0  0  0  0  0  0  0  0  0
    6.5206  -14.1228   21.3041 C   0  0  0  0  0  0  0  0  0  0  0  0
    7.1926  -13.0545   20.4684 C   0  0  0  0  0  0  0  0  0  0  0  0
    8.6463  -13.2531   20.8338 C   0  0  0  0  0  0  0  0  0  0  0  0
    8.7385  -14.6273   21.4559 C   0  0  1  0  0  0  0  0  0  0  0  0
    8.9374  -14.5133   22.9207 C   0  0  0  0  0  0  0  0  0  0  0  0
   10.0666  -14.1441   23.3329 O   0  0  0  0  0  0  0  0  0  0  0  0
    5.3279  -12.2894   26.0147 C   0  0  0  0  0  0  0  0  0  0  0  0
    6.3091  -13.0495   25.1689 C   0  0  0  0  0  0  0  0  0  0  0  0
    7.2823  -13.7884   26.0070 C   0  0  2  0  0  0  0  0  0  0  0  0
    8.1980  -12.7956   26.7457 C   0  0  0  0  0  0  0  0  0  0  0  0
    8.2012  -14.7322   25.3003 C   0  0  2  0  0  0  0  0  0  0  0  0
    7.9574  -14.7875   23.8776 N   0  0  0  0  0  0  0  0  0  0  0  0
    8.3526  -16.0563   25.9181 C   0  0  0  0  0  0  0  0  0  0  0  0
    8.9907  -16.2120   27.1424 O   0  0  0  0  0  0  0  0  0  0  0  0
    7.9280  -17.1320   25.4021 O   0  0  0  0  0  0  0  0  0  0  0  0
  2  1  1  6
  3  2  1  0
  4  2  1  0
  4  5  1  1
  6  4  1  0
  7  6  2  0
  8  6  1  0
  8 12  1  0
  9 10  1  0
  9  8  1  0
 10 11  1  0
 11 12  1  0
 12 13  1  1
 13 14  2  0
 16 15  1  0
 17 16  1  0
 17 18  1  6
 19 20  1  6
 19 17  1  0
 20 13  1  0
 21 19  1  0
 22 21  1  0
 23 21  2  0
M  END
$$$$
