TPI.pdb
     RDKit          3D

 23 23  0  0  1  0  0  0  0  0999 V2000
    9.3872  -19.3985   21.5196 C   0  0  0  0  0  0  0  0  0  0  0  0
   10.7593  -18.9795   21.0277 C   0  0  1  0  0  0  0  0  0  0  0  0
   11.3097  -20.0713   20.3661 O   0  0  0  0  0  0  0  0  0  0  0  0
   10.5438  -17.8090   20.0743 C   0  0  2  0  0  0  0  0  0  0  0  0
   11.7209  -17.6608   19.2936 N   0  0  0  0  0  0  0  0  0  0  0  0
   10.0640  -16.6117   20.7693 C   0  0  0  0  0  0  0  0  0  0  0  0
   10.9929  -15.8298   21.1860 O   0  0  0  0  0  0  0  0  0  0  0  0
    8.7410  -16.2359   21.0226 N   0  0  0  0  0  0  0  0  0  0  0  0
    7.4664  -16.8803   20.8004 C   0  0  0  0  0  0  0  0  0  0  0  0
    6.6753  -15.7872   20.1144 C   0  0  0  0  0  0  0  0  0  0  0  0
    7.0922  -14.5684   20.9061 C   0  0  0  0  0  0  0  0  0  0  0  0
    8.3558  -14.9560   21.6387 C   0  0  1  0  0  0  0  0  0  0  0  0
    8.0741  -15.1398   23.0826 C   0  0  0  0  0  0  0  0  0  0  0  0
    8.0741  -16.3126   23.5362 O   0  0  0  0  0  0  0  0  0  0  0  0
    7.2541  -11.3748   27.8574 C   0  0  0  0  0  0  0  0  0  0  0  0
    7.8247  -12.6546   27.3166 C   0  0  0  0  0  0  0  0  0  0  0  0
    7.1105  -13.0869   26.0924 C   0  0  2  0  0  0  0  0  0  0  0  0
    5.6425  -13.4072   26.4275 C   0  0  0  0  0  0  0  0  0  0  0  0
    7.6374  -14.3009   25.3974 C   0  0  2  0  0  0  0  0  0  0  0  0
    7.8081  -14.1003   23.9770 N   0  0  0  0  0  0  0  0  0  0  0  0
    6.9704  -15.5662   25.7318 C   0  0  0  0  0  0  0  0  0  0  0  0
    7.4421  -16.3820   26.7527 O   0  0  0  0  0  0  0  0  0  0  0  0
    5.9428  -16.0050   25.1357 O   0  0  0  0  0  0  0  0  0  0  0  0
  2  1  1  6
  3  2  1  0
  4  2  1  0
  4  5  1  1
  6  4  1  0
  7  6  2  0
  8  6  1  0
  8 12  1  0
  9 10  1  0
  9  8  1  0
 10 11  1  0
 11 12  1  0
 12 13  1  1
 13 14  2  0
 16 15  1  0
 17 16  1  0
 17 18  1  1
 19 20  1  6
 19 17  1  0
 20 13  1  0
 21 19  1  0
 22 21  1  0
 23 21  2  0
M  END
$$$$
