TPI.pdb
     RDKit          3D

 23 23  0  0  1  0  0  0  0  0999 V2000
    9.1806  -19.1503   20.9992 C   0  0  0  0  0  0  0  0  0  0  0  0
   10.4960  -18.7055   20.3893 C   0  0  1  0  0  0  0  0  0  0  0  0
   10.7944  -19.5945   19.3629 O   0  0  0  0  0  0  0  0  0  0  0  0
   10.2741  -17.2963   19.8503 C   0  0  2  0  0  0  0  0  0  0  0  0
   11.3260  -17.0073   18.9409 N   0  0  0  0  0  0  0  0  0  0  0  0
   10.0504  -16.3237   20.9229 C   0  0  0  0  0  0  0  0  0  0  0  0
   11.1148  -15.7462   21.3488 O   0  0  0  0  0  0  0  0  0  0  0  0
    8.8375  -15.9640   21.5190 N   0  0  0  0  0  0  0  0  0  0  0  0
    7.4688  -16.3810   21.3141 C   0  0  0  0  0  0  0  0  0  0  0  0
    6.7480  -15.0547   21.2006 C   0  0  0  0  0  0  0  0  0  0  0  0
    7.4304  -14.2453   22.2801 C   0  0  0  0  0  0  0  0  0  0  0  0
    8.7171  -14.9710   22.5986 C   0  0  1  0  0  0  0  0  0  0  0  0
    8.6115  -15.6461   23.9143 C   0  0  0  0  0  0  0  0  0  0  0  0
    8.4441  -16.8924   23.9229 O   0  0  0  0  0  0  0  0  0  0  0  0
   10.3199  -13.6690   29.5504 C   0  0  0  0  0  0  0  0  0  0  0  0
   10.3757  -14.7693   28.5294 C   0  0  0  0  0  0  0  0  0  0  0  0
    9.7564  -14.3483   27.2508 C   0  0  2  0  0  0  0  0  0  0  0  0
    8.3500  -13.7791   27.5119 C   0  0  0  0  0  0  0  0  0  0  0  0
    9.5745  -15.4051   26.2093 C   0  0  2  0  0  0  0  0  0  0  0  0
    8.6848  -14.9946   25.1478 N   0  0  0  0  0  0  0  0  0  0  0  0
    9.2957  -16.7560   26.7145 C   0  0  0  0  0  0  0  0  0  0  0  0
    8.0605  -17.3598   26.5145 O   0  0  0  0  0  0  0  0  0  0  0  0
   10.1315  -17.4599   27.3546 O   0  0  0  0  0  0  0  0  0  0  0  0
  2  1  1  6
  3  2  1  0
  4  2  1  0
  4  5  1  1
  6  4  1  0
  7  6  2  0
  8  6  1  0
  8 12  1  0
  9 10  1  0
  9  8  1  0
 10 11  1  0
 11 12  1  0
 12 13  1  1
 13 14  2  0
 16 15  1  0
 17 16  1  0
 17 18  1  1
 19 20  1  6
 19 17  1  0
 20 13  1  0
 21 19  1  0
 22 21  1  0
 23 21  2  0
M  END
$$$$
