TPI.pdb
     RDKit          3D

 23 23  0  0  1  0  0  0  0  0999 V2000
   10.9953  -13.9802   17.9628 C   0  0  0  0  0  0  0  0  0  0  0  0
   10.2739  -14.2404   19.2713 C   0  0  1  0  0  0  0  0  0  0  0  0
   10.7899  -13.3528   20.2086 O   0  0  0  0  0  0  0  0  0  0  0  0
    8.7944  -13.9732   19.0158 C   0  0  2  0  0  0  0  0  0  0  0  0
    8.6734  -12.6588   18.4918 N   0  0  0  0  0  0  0  0  0  0  0  0
    7.9664  -14.2920   20.1818 C   0  0  0  0  0  0  0  0  0  0  0  0
    7.2705  -13.3088   20.6257 O   0  0  0  0  0  0  0  0  0  0  0  0
    7.8529  -15.5165   20.8477 N   0  0  0  0  0  0  0  0  0  0  0  0
    8.4770  -16.8073   20.6646 C   0  0  0  0  0  0  0  0  0  0  0  0
    7.2843  -17.7393   20.6752 C   0  0  0  0  0  0  0  0  0  0  0  0
    6.4454  -17.1459   21.7843 C   0  0  0  0  0  0  0  0  0  0  0  0
    6.9666  -15.7440   22.0005 C   0  0  1  0  0  0  0  0  0  0  0  0
    7.7347  -15.6733   23.2666 C   0  0  0  0  0  0  0  0  0  0  0  0
    8.9586  -15.9595   23.2276 O   0  0  0  0  0  0  0  0  0  0  0  0
    6.9019  -11.4001   27.4506 C   0  0  0  0  0  0  0  0  0  0  0  0
    7.7844  -12.5450   27.0426 C   0  0  0  0  0  0  0  0  0  0  0  0
    7.1501  -13.3608   25.9807 C   0  0  2  0  0  0  0  0  0  0  0  0
    5.8054  -13.9188   26.4811 C   0  0  0  0  0  0  0  0  0  0  0  0
    7.9187  -14.5456   25.4908 C   0  0  2  0  0  0  0  0  0  0  0  0
    7.1942  -15.3107   24.5026 N   0  0  0  0  0  0  0  0  0  0  0  0
    8.5402  -15.3762   26.5309 C   0  0  0  0  0  0  0  0  0  0  0  0
    8.2267  -16.7235   26.6606 O   0  0  0  0  0  0  0  0  0  0  0  0
    9.3862  -14.9466   27.3696 O   0  0  0  0  0  0  0  0  0  0  0  0
  2  1  1  6
  3  2  1  0
  4  2  1  0
  4  5  1  1
  6  4  1  0
  7  6  2  0
  8  6  1  0
  8 12  1  0
  9 10  1  0
  9  8  1  0
 10 11  1  0
 11 12  1  0
 12 13  1  1
 13 14  2  0
 16 15  1  0
 17 16  1  0
 17 18  1  1
 19 20  1  1
 19 17  1  0
 20 13  1  0
 21 19  1  0
 22 21  1  0
 23 21  2  0
M  END
$$$$
