TPI.pdb
     RDKit          3D

 23 23  0  0  1  0  0  0  0  0999 V2000
   11.0026  -14.9955   20.0426 C   0  0  0  0  0  0  0  0  0  0  0  0
   10.5647  -13.6371   19.5294 C   0  0  1  0  0  0  0  0  0  0  0  0
   11.3160  -13.3661   18.3915 O   0  0  0  0  0  0  0  0  0  0  0  0
    9.0813  -13.7530   19.1953 C   0  0  2  0  0  0  0  0  0  0  0  0
    8.7160  -12.6114   18.4335 N   0  0  0  0  0  0  0  0  0  0  0  0
    8.2686  -14.0361   20.3811 C   0  0  0  0  0  0  0  0  0  0  0  0
    7.6653  -13.0138   20.8698 O   0  0  0  0  0  0  0  0  0  0  0  0
    8.0821  -15.2645   21.0232 N   0  0  0  0  0  0  0  0  0  0  0  0
    8.6946  -16.5652   20.8744 C   0  0  0  0  0  0  0  0  0  0  0  0
    7.4877  -17.4742   20.7839 C   0  0  0  0  0  0  0  0  0  0  0  0
    6.5774  -16.8753   21.8321 C   0  0  0  0  0  0  0  0  0  0  0  0
    7.1062  -15.4857   22.1025 C   0  0  1  0  0  0  0  0  0  0  0  0
    7.7764  -15.4416   23.4241 C   0  0  0  0  0  0  0  0  0  0  0  0
    8.9587  -15.8636   23.4973 O   0  0  0  0  0  0  0  0  0  0  0  0
    5.4779  -12.2314   27.4742 C   0  0  0  0  0  0  0  0  0  0  0  0
    5.9019  -13.3790   26.6027 C   0  0  0  0  0  0  0  0  0  0  0  0
    7.3781  -13.4912   26.5419 C   0  0  2  0  0  0  0  0  0  0  0  0
    7.9711  -12.2439   25.8619 C   0  0  0  0  0  0  0  0  0  0  0  0
    7.9354  -14.6592   25.7938 C   0  0  2  0  0  0  0  0  0  0  0  0
    7.1865  -14.9635   24.5967 N   0  0  0  0  0  0  0  0  0  0  0  0
    8.2474  -15.8443   26.6037 C   0  0  0  0  0  0  0  0  0  0  0  0
    7.6722  -17.0784   26.3273 O   0  0  0  0  0  0  0  0  0  0  0  0
    9.0412  -15.8397   27.5905 O   0  0  0  0  0  0  0  0  0  0  0  0
  2  1  1  6
  3  2  1  0
  4  2  1  0
  4  5  1  1
  6  4  1  0
  7  6  2  0
  8  6  1  0
  8 12  1  0
  9 10  1  0
  9  8  1  0
 10 11  1  0
 11 12  1  0
 12 13  1  1
 13 14  2  0
 16 15  1  0
 17 16  1  0
 17 18  1  6
 19 20  1  6
 19 17  1  0
 20 13  1  0
 21 19  1  0
 22 21  1  0
 23 21  2  0
M  END
$$$$
