TPI.pdb
     RDKit          3D

 23 23  0  0  1  0  0  0  0  0999 V2000
    6.1479  -17.9751   22.9227 C   0  0  0  0  0  0  0  0  0  0  0  0
    6.8545  -18.8860   21.9372 C   0  0  1  0  0  0  0  0  0  0  0  0
    5.9641  -19.9004   21.6041 O   0  0  0  0  0  0  0  0  0  0  0  0
    7.1973  -18.0326   20.7208 C   0  0  2  0  0  0  0  0  0  0  0  0
    7.5598  -18.9081   19.6629 N   0  0  0  0  0  0  0  0  0  0  0  0
    8.1495  -16.9672   21.0443 C   0  0  0  0  0  0  0  0  0  0  0  0
    9.3804  -17.3315   21.0328 O   0  0  0  0  0  0  0  0  0  0  0  0
    7.8737  -15.6321   21.3563 N   0  0  0  0  0  0  0  0  0  0  0  0
    6.6478  -14.8897   21.5441 C   0  0  0  0  0  0  0  0  0  0  0  0
    6.8760  -13.6764   20.6682 C   0  0  0  0  0  0  0  0  0  0  0  0
    8.3271  -13.3635   20.9554 C   0  0  0  0  0  0  0  0  0  0  0  0
    8.9100  -14.6109   21.5782 C   0  0  1  0  0  0  0  0  0  0  0  0
    9.1305  -14.4031   23.0294 C   0  0  0  0  0  0  0  0  0  0  0  0
    9.9115  -13.4815   23.3786 O   0  0  0  0  0  0  0  0  0  0  0  0
    6.7490  -11.6573   26.9126 C   0  0  0  0  0  0  0  0  0  0  0  0
    7.8759  -12.6200   26.6686 C   0  0  0  0  0  0  0  0  0  0  0  0
    7.5055  -13.6356   25.6551 C   0  0  2  0  0  0  0  0  0  0  0  0
    6.1900  -14.3250   26.0604 C   0  0  0  0  0  0  0  0  0  0  0  0
    8.4828  -14.7421   25.4207 C   0  0  2  0  0  0  0  0  0  0  0  0
    8.5310  -15.1601   24.0389 N   0  0  0  0  0  0  0  0  0  0  0  0
    8.4147  -15.8633   26.3673 C   0  0  0  0  0  0  0  0  0  0  0  0
    8.9133  -15.7477   27.6590 O   0  0  0  0  0  0  0  0  0  0  0  0
    7.9122  -16.9930   26.0932 O   0  0  0  0  0  0  0  0  0  0  0  0
  2  1  1  1
  3  2  1  0
  4  2  1  0
  4  5  1  6
  6  4  1  0
  7  6  2  0
  8  6  1  0
  8 12  1  0
  9 10  1  0
  9  8  1  0
 10 11  1  0
 11 12  1  0
 12 13  1  1
 13 14  2  0
 16 15  1  0
 17 16  1  0
 17 18  1  1
 19 20  1  6
 19 17  1  0
 20 13  1  0
 21 19  1  0
 22 21  1  0
 23 21  2  0
M  END
$$$$
