TPI.pdb
     RDKit          3D

 23 23  0  0  1  0  0  0  0  0999 V2000
    9.9224  -19.0890   21.6311 C   0  0  0  0  0  0  0  0  0  0  0  0
   11.2003  -18.4267   21.1530 C   0  0  1  0  0  0  0  0  0  0  0  0
   11.9710  -19.4114   20.5455 O   0  0  0  0  0  0  0  0  0  0  0  0
   10.7885  -17.3533   20.1512 C   0  0  2  0  0  0  0  0  0  0  0  0
   11.9281  -17.0278   19.3687 N   0  0  0  0  0  0  0  0  0  0  0  0
   10.0948  -16.2345   20.7946 C   0  0  0  0  0  0  0  0  0  0  0  0
   10.8643  -15.2829   21.1823 O   0  0  0  0  0  0  0  0  0  0  0  0
    8.7232  -16.0919   21.0271 N   0  0  0  0  0  0  0  0  0  0  0  0
    7.5739  -16.9126   20.7197 C   0  0  0  0  0  0  0  0  0  0  0  0
    6.6336  -15.9130   20.0809 C   0  0  0  0  0  0  0  0  0  0  0  0
    6.8314  -14.7025   20.9651 C   0  0  0  0  0  0  0  0  0  0  0  0
    8.1237  -14.9358   21.7129 C   0  0  1  0  0  0  0  0  0  0  0  0
    7.8421  -15.2634   23.1311 C   0  0  0  0  0  0  0  0  0  0  0  0
    8.1721  -16.4033   23.5472 O   0  0  0  0  0  0  0  0  0  0  0  0
    6.9082  -11.3367   27.8629 C   0  0  0  0  0  0  0  0  0  0  0  0
    7.6370  -12.5388   27.3339 C   0  0  0  0  0  0  0  0  0  0  0  0
    7.1707  -12.8945   25.9731 C   0  0  2  0  0  0  0  0  0  0  0  0
    5.6528  -13.1508   25.9894 C   0  0  0  0  0  0  0  0  0  0  0  0
    7.7763  -14.1103   25.3489 C   0  0  2  0  0  0  0  0  0  0  0  0
    7.2346  -14.3939   24.0402 N   0  0  0  0  0  0  0  0  0  0  0  0
    7.8622  -15.2946   26.2138 C   0  0  0  0  0  0  0  0  0  0  0  0
    8.9221  -15.4683   27.0950 O   0  0  0  0  0  0  0  0  0  0  0  0
    7.0047  -16.2264   26.2271 O   0  0  0  0  0  0  0  0  0  0  0  0
  2  1  1  6
  3  2  1  0
  4  2  1  0
  4  5  1  1
  6  4  1  0
  7  6  2  0
  8  6  1  0
  8 12  1  0
  9 10  1  0
  9  8  1  0
 10 11  1  0
 11 12  1  0
 12 13  1  1
 13 14  2  0
 16 15  1  0
 17 16  1  0
 17 18  1  1
 19 20  1  6
 19 17  1  0
 20 13  1  0
 21 19  1  0
 22 21  1  0
 23 21  2  0
M  END
$$$$
