TPI.pdb
     RDKit          3D

 23 23  0  0  1  0  0  0  0  0999 V2000
    9.0604  -19.2857   21.2413 C   0  0  0  0  0  0  0  0  0  0  0  0
   10.4921  -18.8344   21.0249 C   0  0  1  0  0  0  0  0  0  0  0  0
   11.1217  -19.8146   20.2662 O   0  0  0  0  0  0  0  0  0  0  0  0
   10.4244  -17.5116   20.2691 C   0  0  2  0  0  0  0  0  0  0  0  0
   11.6952  -17.2823   19.6781 N   0  0  0  0  0  0  0  0  0  0  0  0
    9.8821  -16.4304   21.0958 C   0  0  0  0  0  0  0  0  0  0  0  0
   10.7648  -15.7653   21.7488 O   0  0  0  0  0  0  0  0  0  0  0  0
    8.5444  -16.0523   21.2488 N   0  0  0  0  0  0  0  0  0  0  0  0
    7.2946  -16.6205   20.7969 C   0  0  0  0  0  0  0  0  0  0  0  0
    6.6044  -15.4199   20.1856 C   0  0  0  0  0  0  0  0  0  0  0  0
    6.9451  -14.3345   21.1816 C   0  0  0  0  0  0  0  0  0  0  0  0
    8.1097  -14.8576   21.9903 C   0  0  1  0  0  0  0  0  0  0  0  0
    7.6602  -15.2287   23.3534 C   0  0  0  0  0  0  0  0  0  0  0  0
    7.5850  -16.4521   23.6341 O   0  0  0  0  0  0  0  0  0  0  0  0
    5.6484  -11.4431   26.6139 C   0  0  0  0  0  0  0  0  0  0  0  0
    6.9073  -12.0710   26.0877 C   0  0  0  0  0  0  0  0  0  0  0  0
    7.0910  -13.4396   26.6253 C   0  0  2  0  0  0  0  0  0  0  0  0
    7.9646  -13.3923   27.8920 C   0  0  0  0  0  0  0  0  0  0  0  0
    7.7454  -14.4361   25.7235 C   0  0  2  0  0  0  0  0  0  0  0  0
    7.3135  -14.3137   24.3505 N   0  0  0  0  0  0  0  0  0  0  0  0
    7.7589  -15.8224   26.2094 C   0  0  0  0  0  0  0  0  0  0  0  0
    6.9493  -16.7951   25.6363 O   0  0  0  0  0  0  0  0  0  0  0  0
    8.4864  -16.2328   27.1613 O   0  0  0  0  0  0  0  0  0  0  0  0
  2  1  1  6
  3  2  1  0
  4  2  1  0
  4  5  1  1
  6  4  1  0
  7  6  2  0
  8  6  1  0
  8 12  1  0
  9 10  1  0
  9  8  1  0
 10 11  1  0
 11 12  1  0
 12 13  1  1
 13 14  2  0
 16 15  1  0
 17 16  1  0
 17 18  1  1
 19 20  1  6
 19 17  1  0
 20 13  1  0
 21 19  1  0
 22 21  1  0
 23 21  2  0
M  END
$$$$
