LTE.pdb
     RDKit          3D

 25 24  0  0  1  0  0  0  0  0999 V2000
    8.2675  -12.5231   18.2279 C   0  0  0  0  0  0  0  0  0  0  0  0
    7.3845  -13.3353   19.1784 C   0  0  2  0  0  0  0  0  0  0  0  0
    6.7611  -12.3751   20.1361 C   0  0  0  0  0  0  0  0  0  0  0  0
    8.1945  -14.4296   19.8492 C   0  0  0  0  0  0  0  0  0  0  0  0
    8.7581  -15.3312   18.7915 C   0  0  2  0  0  0  0  0  0  0  0  0
    7.6748  -15.8742   17.9993 N   0  0  0  0  0  0  0  0  0  0  0  0
    9.6525  -16.3755   19.3191 C   0  0  0  0  0  0  0  0  0  0  0  0
    9.1700  -17.4412   19.7822 O   0  0  0  0  0  0  0  0  0  0  0  0
   12.6918  -18.3113   17.8731 C   0  0  0  0  0  0  0  0  0  0  0  0
   13.1215  -17.5891   19.1060 C   0  0  1  0  0  0  0  0  0  0  0  0
   13.8879  -16.4705   18.7106 O   0  0  0  0  0  0  0  0  0  0  0  0
   11.9705  -17.1632   19.9895 C   0  0  2  0  0  0  0  0  0  0  0  0
   11.0691  -16.2644   19.3445 N   0  0  0  0  0  0  0  0  0  0  0  0
   12.5609  -16.5558   21.2164 C   0  0  0  0  0  0  0  0  0  0  0  0
   12.7052  -15.3112   21.3301 O   0  0  0  0  0  0  0  0  0  0  0  0
   12.9686  -17.3800   22.2743 N   0  0  0  0  0  0  0  0  0  0  0  0
   13.5144  -16.8168   23.5547 C   0  0  1  0  0  0  0  0  0  0  0  0
   12.8948  -17.6472   24.6083 C   0  0  0  0  0  0  0  0  0  0  0  0
   13.5326  -17.7835   25.9257 C   0  0  0  0  0  0  0  0  0  0  0  0
   12.8817  -18.5853   26.9483 C   0  0  0  0  0  0  0  0  0  0  0  0
   11.7860  -19.1523   26.7087 O   0  0  0  0  0  0  0  0  0  0  0  0
   14.9737  -16.8190   23.4625 C   0  0  0  0  0  0  0  0  0  0  0  0
   15.6561  -17.5712   22.4854 O   0  0  0  0  0  0  0  0  0  0  0  0
   13.4322  -18.7585   28.2092 O   0  0  0  0  0  0  0  0  0  0  0  0
   15.6810  -16.1606   24.2380 O   0  0  0  0  0  0  0  0  0  0  0  0
  2  1  1  6
  2  3  1  0
  4  5  1  0
  4  2  1  0
  5  6  1  1
  7  5  1  0
  7  8  2  0
 10  9  1  6
 10 12  1  0
 11 10  1  0
 12 13  1  6
 13  7  1  0
 14 12  1  0
 15 14  2  0
 16 14  1  0
 17 16  1  0
 17 22  1  0
 17 18  1  1
 19 20  1  0
 19 18  1  0
 20 21  2  0
 22 23  1  0
 24 20  1  0
 25 22  2  0
M  END
$$$$
