LTE.pdb
     RDKit          3D

 25 24  0  0  1  0  0  0  0  0999 V2000
    5.7402  -11.6686   25.8665 C   0  0  0  0  0  0  0  0  0  0  0  0
    6.3764  -12.6342   26.8694 C   0  0  2  0  0  0  0  0  0  0  0  0
    7.1138  -11.8114   27.8727 C   0  0  0  0  0  0  0  0  0  0  0  0
    7.2475  -13.6476   26.1499 C   0  0  0  0  0  0  0  0  0  0  0  0
    6.3849  -14.4610   25.2314 C   0  0  2  0  0  0  0  0  0  0  0  0
    5.2786  -15.0166   25.9819 N   0  0  0  0  0  0  0  0  0  0  0  0
    7.1263  -15.4839   24.4746 C   0  0  0  0  0  0  0  0  0  0  0  0
    7.1398  -16.6762   24.8762 O   0  0  0  0  0  0  0  0  0  0  0  0
    7.1991  -15.7461   20.5152 C   0  0  0  0  0  0  0  0  0  0  0  0
    8.5816  -15.9207   21.0485 C   0  0  1  0  0  0  0  0  0  0  0  0
    9.3310  -14.7759   20.6985 O   0  0  0  0  0  0  0  0  0  0  0  0
    8.6287  -16.1547   22.5418 C   0  0  2  0  0  0  0  0  0  0  0  0
    7.8526  -15.2143   23.2831 N   0  0  0  0  0  0  0  0  0  0  0  0
   10.0631  -16.1166   22.9464 C   0  0  0  0  0  0  0  0  0  0  0  0
   10.6272  -15.0394   23.2691 O   0  0  0  0  0  0  0  0  0  0  0  0
   10.8111  -17.3019   22.9717 N   0  0  0  0  0  0  0  0  0  0  0  0
   12.0900  -17.4171   23.7498 C   0  0  1  0  0  0  0  0  0  0  0  0
   11.7062  -18.1587   24.9690 C   0  0  0  0  0  0  0  0  0  0  0  0
   12.7255  -18.5806   25.9405 C   0  0  0  0  0  0  0  0  0  0  0  0
   12.3177  -19.3405   27.1102 C   0  0  0  0  0  0  0  0  0  0  0  0
   12.7679  -20.4978   27.3041 O   0  0  0  0  0  0  0  0  0  0  0  0
   13.0954  -18.0230   22.8779 C   0  0  0  0  0  0  0  0  0  0  0  0
   14.4611  -17.6885   22.9729 O   0  0  0  0  0  0  0  0  0  0  0  0
   11.4323  -18.8304   28.0477 O   0  0  0  0  0  0  0  0  0  0  0  0
   12.7963  -18.8591   22.0139 O   0  0  0  0  0  0  0  0  0  0  0  0
  2  1  1  6
  2  3  1  0
  4  5  1  0
  4  2  1  0
  5  6  1  1
  7  5  1  0
  7  8  2  0
 10  9  1  1
 10 12  1  0
 11 10  1  0
 12 13  1  1
 13  7  1  0
 14 12  1  0
 15 14  2  0
 16 14  1  0
 17 16  1  0
 17 22  1  0
 17 18  1  1
 19 20  1  0
 19 18  1  0
 20 21  2  0
 22 23  1  0
 24 20  1  0
 25 22  2  0
M  END
$$$$
