LTE.pdb
     RDKit          3D

 25 24  0  0  1  0  0  0  0  0999 V2000
    8.1619  -12.8905   25.0693 C   0  0  0  0  0  0  0  0  0  0  0  0
    6.7304  -12.5448   25.4866 C   0  0  2  0  0  0  0  0  0  0  0  0
    6.8105  -11.4091   26.4517 C   0  0  0  0  0  0  0  0  0  0  0  0
    6.0293  -13.7712   26.0416 C   0  0  0  0  0  0  0  0  0  0  0  0
    5.8688  -14.7761   24.9400 C   0  0  2  0  0  0  0  0  0  0  0  0
    4.7532  -15.6466   25.2460 N   0  0  0  0  0  0  0  0  0  0  0  0
    7.1015  -15.5216   24.6347 C   0  0  0  0  0  0  0  0  0  0  0  0
    7.6343  -16.2436   25.5166 O   0  0  0  0  0  0  0  0  0  0  0  0
    8.0515  -16.0343   20.5533 C   0  0  0  0  0  0  0  0  0  0  0  0
    9.2003  -16.1376   21.4997 C   0  0  1  0  0  0  0  0  0  0  0  0
    9.9633  -14.9542   21.3891 O   0  0  0  0  0  0  0  0  0  0  0  0
    8.7830  -16.3725   22.9341 C   0  0  2  0  0  0  0  0  0  0  0  0
    7.7562  -15.4844   23.3737 N   0  0  0  0  0  0  0  0  0  0  0  0
   10.0087  -16.2466   23.7735 C   0  0  0  0  0  0  0  0  0  0  0  0
   10.4211  -15.1267   24.1715 O   0  0  0  0  0  0  0  0  0  0  0  0
   10.7266  -17.3953   24.1341 N   0  0  0  0  0  0  0  0  0  0  0  0
   11.8585  -17.3473   25.1194 C   0  0  1  0  0  0  0  0  0  0  0  0
   11.3717  -18.1386   26.2685 C   0  0  0  0  0  0  0  0  0  0  0  0
   12.2615  -18.4430   27.3983 C   0  0  0  0  0  0  0  0  0  0  0  0
   11.7641  -19.2621   28.4910 C   0  0  0  0  0  0  0  0  0  0  0  0
   10.6222  -19.7829   28.4253 O   0  0  0  0  0  0  0  0  0  0  0  0
   13.0672  -17.8131   24.4408 C   0  0  0  0  0  0  0  0  0  0  0  0
   14.3557  -17.5000   24.9182 O   0  0  0  0  0  0  0  0  0  0  0  0
   12.5149  -19.5025   29.6318 O   0  0  0  0  0  0  0  0  0  0  0  0
   13.0179  -18.5050   23.4142 O   0  0  0  0  0  0  0  0  0  0  0  0
  2  1  1  1
  2  3  1  0
  4  5  1  0
  4  2  1  0
  5  6  1  1
  7  5  1  0
  7  8  2  0
 10  9  1  6
 10 12  1  0
 11 10  1  0
 12 13  1  1
 13  7  1  0
 14 12  1  0
 15 14  2  0
 16 14  1  0
 17 16  1  0
 17 22  1  0
 17 18  1  1
 19 20  1  0
 19 18  1  0
 20 21  2  0
 22 23  1  0
 24 20  1  0
 25 22  2  0
M  END
$$$$
