LTE.pdb
     RDKit          3D

 25 24  0  0  1  0  0  0  0  0999 V2000
    9.5239  -11.8771   19.1490 C   0  0  0  0  0  0  0  0  0  0  0  0
    8.4622  -12.9301   18.8219 C   0  0  2  0  0  0  0  0  0  0  0  0
    7.1819  -12.2064   18.5671 C   0  0  0  0  0  0  0  0  0  0  0  0
    8.3735  -13.9571   19.9358 C   0  0  0  0  0  0  0  0  0  0  0  0
    9.7380  -14.5328   20.1724 C   0  0  2  0  0  0  0  0  0  0  0  0
   10.3606  -14.8258   18.8986 N   0  0  0  0  0  0  0  0  0  0  0  0
    9.7425  -15.6891   21.0842 C   0  0  0  0  0  0  0  0  0  0  0  0
    8.8794  -15.7743   21.9957 O   0  0  0  0  0  0  0  0  0  0  0  0
   10.1675  -19.5622   19.9478 C   0  0  0  0  0  0  0  0  0  0  0  0
   11.1103  -19.1691   21.0353 C   0  0  1  0  0  0  0  0  0  0  0  0
   12.3837  -18.9712   20.4572 O   0  0  0  0  0  0  0  0  0  0  0  0
   10.6733  -17.9397   21.7997 C   0  0  2  0  0  0  0  0  0  0  0  0
   10.6823  -16.7526   21.0079 N   0  0  0  0  0  0  0  0  0  0  0  0
   11.5747  -17.8140   22.9805 C   0  0  0  0  0  0  0  0  0  0  0  0
   12.5026  -16.9651   23.0122 O   0  0  0  0  0  0  0  0  0  0  0  0
   11.3943  -18.6556   24.0868 N   0  0  0  0  0  0  0  0  0  0  0  0
   12.2760  -18.5729   25.2993 C   0  0  1  0  0  0  0  0  0  0  0  0
   11.3863  -18.9428   26.4196 C   0  0  0  0  0  0  0  0  0  0  0  0
   11.8727  -18.9033   27.8062 C   0  0  0  0  0  0  0  0  0  0  0  0
   11.8394  -20.1180   28.6035 C   0  0  0  0  0  0  0  0  0  0  0  0
   11.4046  -21.1892   28.1107 O   0  0  0  0  0  0  0  0  0  0  0  0
   13.4494  -19.4125   25.0618 C   0  0  0  0  0  0  0  0  0  0  0  0
   14.6876  -19.1530   25.6826 O   0  0  0  0  0  0  0  0  0  0  0  0
   12.2801  -20.1481   29.9180 O   0  0  0  0  0  0  0  0  0  0  0  0
   13.4126  -20.3920   24.3039 O   0  0  0  0  0  0  0  0  0  0  0  0
  2  1  1  1
  2  3  1  0
  4  5  1  0
  4  2  1  0
  5  6  1  6
  7  5  1  0
  7  8  2  0
 10  9  1  6
 10 12  1  0
 11 10  1  0
 12 13  1  6
 13  7  1  0
 14 12  1  0
 15 14  2  0
 16 14  1  0
 17 16  1  0
 17 22  1  0
 17 18  1  1
 19 20  1  0
 19 18  1  0
 20 21  2  0
 22 23  1  0
 24 20  1  0
 25 22  2  0
M  END
$$$$
