LTE.pdb
     RDKit          3D

 25 24  0  0  1  0  0  0  0  0999 V2000
    5.1872  -16.1724   20.4302 C   0  0  0  0  0  0  0  0  0  0  0  0
    6.4148  -17.0216   20.7688 C   0  0  2  0  0  0  0  0  0  0  0  0
    5.9849  -18.4508   20.7537 C   0  0  0  0  0  0  0  0  0  0  0  0
    7.0183  -16.5781   22.0889 C   0  0  0  0  0  0  0  0  0  0  0  0
    7.3776  -15.1252   21.9922 C   0  0  2  0  0  0  0  0  0  0  0  0
    8.1137  -14.8953   20.7669 N   0  0  0  0  0  0  0  0  0  0  0  0
    8.0792  -14.6089   23.1796 C   0  0  0  0  0  0  0  0  0  0  0  0
    9.3369  -14.6003   23.2123 O   0  0  0  0  0  0  0  0  0  0  0  0
    6.7855  -11.6079   25.9254 C   0  0  0  0  0  0  0  0  0  0  0  0
    7.1376  -12.9480   26.4788 C   0  0  1  0  0  0  0  0  0  0  0  0
    5.9349  -13.6401   26.7421 O   0  0  0  0  0  0  0  0  0  0  0  0
    8.0342  -13.7604   25.5715 C   0  0  2  0  0  0  0  0  0  0  0  0
    7.4175  -14.1021   24.3308 N   0  0  0  0  0  0  0  0  0  0  0  0
    8.4403  -14.9771   26.3314 C   0  0  0  0  0  0  0  0  0  0  0  0
    7.7816  -16.0466   26.2615 O   0  0  0  0  0  0  0  0  0  0  0  0
    9.5804  -14.9408   27.1461 N   0  0  0  0  0  0  0  0  0  0  0  0
   10.0255  -16.1335   27.9422 C   0  0  1  0  0  0  0  0  0  0  0  0
   11.1226  -16.7145   27.1408 C   0  0  0  0  0  0  0  0  0  0  0  0
   11.8394  -17.9096   27.6085 C   0  0  0  0  0  0  0  0  0  0  0  0
   12.8999  -18.4669   26.7856 C   0  0  0  0  0  0  0  0  0  0  0  0
   13.1776  -17.9519   25.6734 O   0  0  0  0  0  0  0  0  0  0  0  0
   10.3434  -15.6794   29.2953 C   0  0  0  0  0  0  0  0  0  0  0  0
   10.3377  -14.3134   29.6420 O   0  0  0  0  0  0  0  0  0  0  0  0
   13.6397  -19.5696   27.1855 O   0  0  0  0  0  0  0  0  0  0  0  0
   10.6330  -16.4722   30.2023 O   0  0  0  0  0  0  0  0  0  0  0  0
  2  1  1  1
  2  3  1  0
  4  5  1  0
  4  2  1  0
  5  6  1  6
  7  5  1  0
  7  8  2  0
 10  9  1  6
 10 12  1  0
 11 10  1  0
 12 13  1  6
 13  7  1  0
 14 12  1  0
 15 14  2  0
 16 14  1  0
 17 16  1  0
 17 22  1  0
 17 18  1  6
 19 20  1  0
 19 18  1  0
 20 21  2  0
 22 23  1  0
 24 20  1  0
 25 22  2  0
M  END
$$$$
