LTE.pdb
     RDKit          3D

 25 24  0  0  1  0  0  0  0  0999 V2000
    7.5575  -11.5803   26.3154 C   0  0  0  0  0  0  0  0  0  0  0  0
    6.2794  -12.3416   25.9551 C   0  0  2  0  0  0  0  0  0  0  0  0
    5.3612  -12.2495   27.1282 C   0  0  0  0  0  0  0  0  0  0  0  0
    6.6082  -13.7656   25.5457 C   0  0  0  0  0  0  0  0  0  0  0  0
    7.7445  -13.7371   24.5672 C   0  0  2  0  0  0  0  0  0  0  0  0
    7.4063  -12.8585   23.4674 N   0  0  0  0  0  0  0  0  0  0  0  0
    8.1698  -15.0725   24.1151 C   0  0  0  0  0  0  0  0  0  0  0  0
    8.0842  -16.0567   24.8941 O   0  0  0  0  0  0  0  0  0  0  0  0
    7.9806  -16.3921   20.1661 C   0  0  0  0  0  0  0  0  0  0  0  0
    9.2725  -16.6868   20.8518 C   0  0  1  0  0  0  0  0  0  0  0  0
   10.2461  -15.7964   20.3476 O   0  0  0  0  0  0  0  0  0  0  0  0
    9.1923  -16.5936   22.3590 C   0  0  2  0  0  0  0  0  0  0  0  0
    8.6875  -15.3407   22.8189 N   0  0  0  0  0  0  0  0  0  0  0  0
   10.5611  -16.8569   22.8880 C   0  0  0  0  0  0  0  0  0  0  0  0
   11.2498  -15.9447   23.4137 O   0  0  0  0  0  0  0  0  0  0  0  0
   11.1042  -18.1463   22.8034 N   0  0  0  0  0  0  0  0  0  0  0  0
   12.1816  -18.6168   23.7373 C   0  0  1  0  0  0  0  0  0  0  0  0
   11.5614  -18.5342   25.0761 C   0  0  0  0  0  0  0  0  0  0  0  0
   12.2396  -19.0994   26.2513 C   0  0  0  0  0  0  0  0  0  0  0  0
   11.6459  -18.9209   27.5658 C   0  0  0  0  0  0  0  0  0  0  0  0
   11.6191  -17.7843   28.1014 O   0  0  0  0  0  0  0  0  0  0  0  0
   12.6322  -19.9309   23.2806 C   0  0  0  0  0  0  0  0  0  0  0  0
   11.7401  -20.8736   22.7316 O   0  0  0  0  0  0  0  0  0  0  0  0
   11.0910  -19.9772   28.2726 O   0  0  0  0  0  0  0  0  0  0  0  0
   13.8188  -20.2795   23.3539 O   0  0  0  0  0  0  0  0  0  0  0  0
  2  1  1  1
  2  3  1  0
  4  5  1  0
  4  2  1  0
  5  6  1  6
  7  5  1  0
  7  8  2  0
 10  9  1  6
 10 12  1  0
 11 10  1  0
 12 13  1  6
 13  7  1  0
 14 12  1  0
 15 14  2  0
 16 14  1  0
 17 16  1  0
 17 22  1  0
 17 18  1  1
 19 20  1  0
 19 18  1  0
 20 21  2  0
 22 23  1  0
 24 20  1  0
 25 22  2  0
M  END
$$$$
