LTE.pdb
     RDKit          3D

 25 24  0  0  1  0  0  0  0  0999 V2000
    7.7233  -15.6748   16.6404 C   0  0  0  0  0  0  0  0  0  0  0  0
    9.1201  -15.0997   16.3931 C   0  0  2  0  0  0  0  0  0  0  0  0
    9.8345  -16.0424   15.4829 C   0  0  0  0  0  0  0  0  0  0  0  0
    9.8354  -14.8603   17.7102 C   0  0  0  0  0  0  0  0  0  0  0  0
    8.9842  -13.9724   18.5682 C   0  0  2  0  0  0  0  0  0  0  0  0
    8.9277  -12.6508   17.9801 N   0  0  0  0  0  0  0  0  0  0  0  0
    9.3946  -13.9459   19.9823 C   0  0  0  0  0  0  0  0  0  0  0  0
   10.4220  -13.3065   20.3267 O   0  0  0  0  0  0  0  0  0  0  0  0
    6.9768  -13.6853   23.3528 C   0  0  0  0  0  0  0  0  0  0  0  0
    7.9114  -14.8481   23.3374 C   0  0  1  0  0  0  0  0  0  0  0  0
    7.1672  -16.0005   23.0010 O   0  0  0  0  0  0  0  0  0  0  0  0
    9.0802  -14.6723   22.3940 C   0  0  2  0  0  0  0  0  0  0  0  0
    8.6915  -14.6121   21.0223 N   0  0  0  0  0  0  0  0  0  0  0  0
   10.0201  -15.8020   22.6451 C   0  0  0  0  0  0  0  0  0  0  0  0
   10.4278  -16.5386   21.7102 O   0  0  0  0  0  0  0  0  0  0  0  0
   10.4668  -16.0596   23.9485 N   0  0  0  0  0  0  0  0  0  0  0  0
   11.5478  -17.0618   24.2337 C   0  0  1  0  0  0  0  0  0  0  0  0
   12.7036  -16.5805   23.4486 C   0  0  0  0  0  0  0  0  0  0  0  0
   14.0220  -17.2145   23.5920 C   0  0  0  0  0  0  0  0  0  0  0  0
   15.1814  -16.5835   22.9839 C   0  0  0  0  0  0  0  0  0  0  0  0
   15.2923  -15.3317   22.9768 O   0  0  0  0  0  0  0  0  0  0  0  0
   11.7066  -17.1533   25.6844 C   0  0  0  0  0  0  0  0  0  0  0  0
   12.2861  -18.2812   26.2994 O   0  0  0  0  0  0  0  0  0  0  0  0
   16.1985  -17.3217   22.3976 O   0  0  0  0  0  0  0  0  0  0  0  0
   11.3399  -16.2451   26.4431 O   0  0  0  0  0  0  0  0  0  0  0  0
  2  1  1  1
  2  3  1  0
  4  5  1  0
  4  2  1  0
  5  6  1  6
  7  5  1  0
  7  8  2  0
 10  9  1  6
 10 12  1  0
 11 10  1  0
 12 13  1  6
 13  7  1  0
 14 12  1  0
 15 14  2  0
 16 14  1  0
 17 16  1  0
 17 22  1  0
 17 18  1  6
 19 20  1  0
 19 18  1  0
 20 21  2  0
 22 23  1  0
 24 20  1  0
 25 22  2  0
M  END
$$$$
