LTE.pdb
     RDKit          3D

 25 24  0  0  1  0  0  0  0  0999 V2000
    8.9202  -12.0152   18.5053 C   0  0  0  0  0  0  0  0  0  0  0  0
    7.8233  -12.9884   18.9442 C   0  0  2  0  0  0  0  0  0  0  0  0
    6.8659  -12.2242   19.7968 C   0  0  0  0  0  0  0  0  0  0  0  0
    8.4310  -14.1946   19.6364 C   0  0  0  0  0  0  0  0  0  0  0  0
    9.3073  -14.9216   18.6603 C   0  0  2  0  0  0  0  0  0  0  0  0
    8.5162  -15.3268   17.5175 N   0  0  0  0  0  0  0  0  0  0  0  0
   10.0556  -16.0411   19.2566 C   0  0  0  0  0  0  0  0  0  0  0  0
    9.5129  -17.1705   19.3699 O   0  0  0  0  0  0  0  0  0  0  0  0
   12.7530  -18.1911   18.2979 C   0  0  0  0  0  0  0  0  0  0  0  0
   13.2373  -17.5441   19.5520 C   0  0  1  0  0  0  0  0  0  0  0  0
   14.1719  -16.5472   19.1947 O   0  0  0  0  0  0  0  0  0  0  0  0
   12.1288  -16.9590   20.3979 C   0  0  2  0  0  0  0  0  0  0  0  0
   11.3917  -15.9360   19.7296 N   0  0  0  0  0  0  0  0  0  0  0  0
   12.7557  -16.4490   21.6507 C   0  0  0  0  0  0  0  0  0  0  0  0
   13.0134  -15.2276   21.8073 O   0  0  0  0  0  0  0  0  0  0  0  0
   13.0701  -17.3412   22.6851 N   0  0  0  0  0  0  0  0  0  0  0  0
   13.6675  -16.8751   23.9813 C   0  0  1  0  0  0  0  0  0  0  0  0
   13.1978  -17.8651   24.9728 C   0  0  0  0  0  0  0  0  0  0  0  0
   13.6322  -17.7843   26.3748 C   0  0  0  0  0  0  0  0  0  0  0  0
   13.2642  -18.8491   27.2930 C   0  0  0  0  0  0  0  0  0  0  0  0
   12.4269  -18.6388   28.2063 O   0  0  0  0  0  0  0  0  0  0  0  0
   15.1110  -16.7415   23.7905 C   0  0  0  0  0  0  0  0  0  0  0  0
   15.8769  -15.8187   24.5308 O   0  0  0  0  0  0  0  0  0  0  0  0
   13.8092  -20.1210   27.2016 O   0  0  0  0  0  0  0  0  0  0  0  0
   15.7309  -17.4320   22.9695 O   0  0  0  0  0  0  0  0  0  0  0  0
  2  1  1  1
  2  3  1  0
  4  5  1  0
  4  2  1  0
  5  6  1  6
  7  5  1  0
  7  8  2  0
 10  9  1  6
 10 12  1  0
 11 10  1  0
 12 13  1  6
 13  7  1  0
 14 12  1  0
 15 14  2  0
 16 14  1  0
 17 16  1  0
 17 22  1  0
 17 18  1  1
 19 20  1  0
 19 18  1  0
 20 21  2  0
 22 23  1  0
 24 20  1  0
 25 22  2  0
M  END
$$$$
