LTE.pdb
     RDKit          3D

 25 24  0  0  1  0  0  0  0  0999 V2000
   10.0502  -13.0155   19.0894 C   0  0  0  0  0  0  0  0  0  0  0  0
    8.6056  -13.5184   19.0334 C   0  0  2  0  0  0  0  0  0  0  0  0
    7.7198  -12.3193   18.9608 C   0  0  0  0  0  0  0  0  0  0  0  0
    8.3136  -14.4242   20.2157 C   0  0  0  0  0  0  0  0  0  0  0  0
    9.2643  -15.5837   20.1827 C   0  0  2  0  0  0  0  0  0  0  0  0
    8.9654  -16.4145   19.0354 N   0  0  0  0  0  0  0  0  0  0  0  0
    9.3080  -16.3491   21.4401 C   0  0  0  0  0  0  0  0  0  0  0  0
    8.2922  -16.9835   21.8254 O   0  0  0  0  0  0  0  0  0  0  0  0
   11.2032  -19.3290   22.5295 C   0  0  0  0  0  0  0  0  0  0  0  0
   11.5354  -18.2538   23.5091 C   0  0  1  0  0  0  0  0  0  0  0  0
   12.8296  -17.7750   23.2079 O   0  0  0  0  0  0  0  0  0  0  0  0
   10.5358  -17.1192   23.5240 C   0  0  2  0  0  0  0  0  0  0  0  0
   10.4526  -16.4266   22.2791 N   0  0  0  0  0  0  0  0  0  0  0  0
   10.9292  -16.2027   24.6322 C   0  0  0  0  0  0  0  0  0  0  0  0
   11.3877  -15.0536   24.4040 O   0  0  0  0  0  0  0  0  0  0  0  0
   10.7897  -16.6197   25.9632 N   0  0  0  0  0  0  0  0  0  0  0  0
   10.6491  -15.6393   27.0916 C   0  0  1  0  0  0  0  0  0  0  0  0
    9.4155  -14.8920   26.7701 C   0  0  0  0  0  0  0  0  0  0  0  0
    8.9629  -13.7890   27.6299 C   0  0  0  0  0  0  0  0  0  0  0  0
    7.6960  -13.1385   27.3397 C   0  0  0  0  0  0  0  0  0  0  0  0
    6.9349  -13.5985   26.4517 O   0  0  0  0  0  0  0  0  0  0  0  0
   10.6780  -16.3890   28.3467 C   0  0  0  0  0  0  0  0  0  0  0  0
   11.2433  -15.8523   29.5208 O   0  0  0  0  0  0  0  0  0  0  0  0
    7.2782  -12.0042   28.0192 O   0  0  0  0  0  0  0  0  0  0  0  0
   10.2077  -17.5315   28.4394 O   0  0  0  0  0  0  0  0  0  0  0  0
  2  1  1  1
  2  3  1  0
  4  5  1  0
  4  2  1  0
  5  6  1  6
  7  5  1  0
  7  8  2  0
 10  9  1  6
 10 12  1  0
 11 10  1  0
 12 13  1  6
 13  7  1  0
 14 12  1  0
 15 14  2  0
 16 14  1  0
 17 16  1  0
 17 22  1  0
 17 18  1  6
 19 20  1  0
 19 18  1  0
 20 21  2  0
 22 23  1  0
 24 20  1  0
 25 22  2  0
M  END
$$$$
