LTE.pdb
     RDKit          3D

 25 24  0  0  1  0  0  0  0  0999 V2000
    7.2509  -11.0357   25.0828 C   0  0  0  0  0  0  0  0  0  0  0  0
    6.3736  -12.0729   25.7879 C   0  0  2  0  0  0  0  0  0  0  0  0
    6.1139  -11.5706   27.1692 C   0  0  0  0  0  0  0  0  0  0  0  0
    7.0324  -13.4396   25.7476 C   0  0  0  0  0  0  0  0  0  0  0  0
    7.5461  -13.6879   24.3606 C   0  0  2  0  0  0  0  0  0  0  0  0
    6.4921  -13.4192   23.4052 N   0  0  0  0  0  0  0  0  0  0  0  0
    8.1465  -15.0206   24.1816 C   0  0  0  0  0  0  0  0  0  0  0  0
    8.1278  -15.8506   25.1269 O   0  0  0  0  0  0  0  0  0  0  0  0
    8.3721  -16.9876   20.4804 C   0  0  0  0  0  0  0  0  0  0  0  0
    9.6179  -17.0294   21.3004 C   0  0  1  0  0  0  0  0  0  0  0  0
   10.5417  -16.1227   20.7352 O   0  0  0  0  0  0  0  0  0  0  0  0
    9.3902  -16.7186   22.7627 C   0  0  2  0  0  0  0  0  0  0  0  0
    8.7667  -15.4532   22.9782 N   0  0  0  0  0  0  0  0  0  0  0  0
   10.7168  -16.7946   23.4388 C   0  0  0  0  0  0  0  0  0  0  0  0
   11.2222  -15.7940   24.0100 O   0  0  0  0  0  0  0  0  0  0  0  0
   11.4269  -18.0031   23.4450 N   0  0  0  0  0  0  0  0  0  0  0  0
   12.4294  -18.3293   24.5140 C   0  0  1  0  0  0  0  0  0  0  0  0
   11.6393  -18.3305   25.7628 C   0  0  0  0  0  0  0  0  0  0  0  0
   12.2214  -18.8311   27.0163 C   0  0  0  0  0  0  0  0  0  0  0  0
   11.3948  -18.8816   28.2107 C   0  0  0  0  0  0  0  0  0  0  0  0
   11.5959  -18.0787   29.1564 O   0  0  0  0  0  0  0  0  0  0  0  0
   13.1017  -19.5722   24.1378 C   0  0  0  0  0  0  0  0  0  0  0  0
   14.4731  -19.7808   24.3865 O   0  0  0  0  0  0  0  0  0  0  0  0
   10.3655  -19.7995   28.3554 O   0  0  0  0  0  0  0  0  0  0  0  0
   12.4993  -20.5017   23.5826 O   0  0  0  0  0  0  0  0  0  0  0  0
  2  1  1  1
  2  3  1  0
  4  5  1  0
  4  2  1  0
  5  6  1  6
  7  5  1  0
  7  8  2  0
 10  9  1  6
 10 12  1  0
 11 10  1  0
 12 13  1  6
 13  7  1  0
 14 12  1  0
 15 14  2  0
 16 14  1  0
 17 16  1  0
 17 22  1  0
 17 18  1  1
 19 20  1  0
 19 18  1  0
 20 21  2  0
 22 23  1  0
 24 20  1  0
 25 22  2  0
M  END
$$$$
