LTE.pdb
     RDKit          3D

 25 24  0  0  1  0  0  0  0  0999 V2000
    8.5939  -13.5057   17.8914 C   0  0  0  0  0  0  0  0  0  0  0  0
    7.3098  -13.5713   18.7219 C   0  0  2  0  0  0  0  0  0  0  0  0
    6.4312  -12.4520   18.2716 C   0  0  0  0  0  0  0  0  0  0  0  0
    7.6349  -13.5359   20.2040 C   0  0  0  0  0  0  0  0  0  0  0  0
    8.4672  -14.7360   20.5452 C   0  0  2  0  0  0  0  0  0  0  0  0
    7.7625  -15.9358   20.1453 N   0  0  0  0  0  0  0  0  0  0  0  0
    8.8995  -14.7757   21.9524 C   0  0  0  0  0  0  0  0  0  0  0  0
    9.5457  -13.8120   22.4389 O   0  0  0  0  0  0  0  0  0  0  0  0
    6.7733  -15.1823   25.1017 C   0  0  0  0  0  0  0  0  0  0  0  0
    7.8312  -16.2342   25.1214 C   0  0  1  0  0  0  0  0  0  0  0  0
    7.2289  -17.4639   24.7749 O   0  0  0  0  0  0  0  0  0  0  0  0
    8.9989  -15.9348   24.2084 C   0  0  2  0  0  0  0  0  0  0  0  0
    8.6313  -15.8597   22.8316 N   0  0  0  0  0  0  0  0  0  0  0  0
   10.0213  -16.9944   24.4424 C   0  0  0  0  0  0  0  0  0  0  0  0
   10.1446  -17.9733   23.6619 O   0  0  0  0  0  0  0  0  0  0  0  0
   10.8705  -16.9090   25.5543 N   0  0  0  0  0  0  0  0  0  0  0  0
   12.0079  -17.8674   25.7600 C   0  0  1  0  0  0  0  0  0  0  0  0
   13.1930  -17.1329   25.2705 C   0  0  0  0  0  0  0  0  0  0  0  0
   14.5310  -17.7371   25.3440 C   0  0  0  0  0  0  0  0  0  0  0  0
   15.6725  -16.9943   24.8364 C   0  0  0  0  0  0  0  0  0  0  0  0
   15.5260  -15.8248   24.4003 O   0  0  0  0  0  0  0  0  0  0  0  0
   12.0005  -18.2817   27.1624 C   0  0  0  0  0  0  0  0  0  0  0  0
   12.6270  -19.4694   27.5903 O   0  0  0  0  0  0  0  0  0  0  0  0
   16.9502  -17.5329   24.8137 O   0  0  0  0  0  0  0  0  0  0  0  0
   11.4437  -17.6099   28.0420 O   0  0  0  0  0  0  0  0  0  0  0  0
  2  1  1  6
  2  3  1  0
  4  5  1  0
  4  2  1  0
  5  6  1  1
  7  5  1  0
  7  8  2  0
 10  9  1  6
 10 12  1  0
 11 10  1  0
 12 13  1  6
 13  7  1  0
 14 12  1  0
 15 14  2  0
 16 14  1  0
 17 16  1  0
 17 22  1  0
 17 18  1  1
 19 20  1  0
 19 18  1  0
 20 21  2  0
 22 23  1  0
 24 20  1  0
 25 22  2  0
M  END
$$$$
