LTE.pdb
     RDKit          3D

 25 24  0  0  1  0  0  0  0  0999 V2000
    8.4884  -12.7931   18.1690 C   0  0  0  0  0  0  0  0  0  0  0  0
    7.2488  -13.2498   18.9421 C   0  0  2  0  0  0  0  0  0  0  0  0
    6.6701  -12.0451   19.6065 C   0  0  0  0  0  0  0  0  0  0  0  0
    7.6067  -14.3671   19.9051 C   0  0  0  0  0  0  0  0  0  0  0  0
    8.1748  -15.5147   19.1243 C   0  0  2  0  0  0  0  0  0  0  0  0
    7.1174  -16.1439   18.3615 N   0  0  0  0  0  0  0  0  0  0  0  0
    8.9277  -16.4757   19.9479 C   0  0  0  0  0  0  0  0  0  0  0  0
    8.3193  -17.3916   20.5594 O   0  0  0  0  0  0  0  0  0  0  0  0
   11.1252  -19.2385   19.2336 C   0  0  0  0  0  0  0  0  0  0  0  0
   11.9435  -18.3006   20.0561 C   0  0  1  0  0  0  0  0  0  0  0  0
   12.7963  -17.5878   19.1846 O   0  0  0  0  0  0  0  0  0  0  0  0
   11.1164  -17.3492   20.8912 C   0  0  2  0  0  0  0  0  0  0  0  0
   10.3395  -16.4436   20.1084 N   0  0  0  0  0  0  0  0  0  0  0  0
   12.0581  -16.6228   21.7903 C   0  0  0  0  0  0  0  0  0  0  0  0
   12.5627  -15.5186   21.4604 O   0  0  0  0  0  0  0  0  0  0  0  0
   12.3968  -17.1726   23.0344 N   0  0  0  0  0  0  0  0  0  0  0  0
   13.2914  -16.4542   24.0028 C   0  0  1  0  0  0  0  0  0  0  0  0
   12.8637  -16.9509   25.3272 C   0  0  0  0  0  0  0  0  0  0  0  0
   13.0099  -18.3712   25.6769 C   0  0  0  0  0  0  0  0  0  0  0  0
   12.7729  -18.7912   27.0479 C   0  0  0  0  0  0  0  0  0  0  0  0
   12.5230  -17.9403   27.9384 O   0  0  0  0  0  0  0  0  0  0  0  0
   14.6768  -16.6987   23.6038 C   0  0  0  0  0  0  0  0  0  0  0  0
   15.0151  -17.6892   22.6601 O   0  0  0  0  0  0  0  0  0  0  0  0
   12.8092  -20.1249   27.4260 O   0  0  0  0  0  0  0  0  0  0  0  0
   15.6198  -16.0479   24.0751 O   0  0  0  0  0  0  0  0  0  0  0  0
  2  1  1  1
  2  3  1  0
  4  5  1  0
  4  2  1  0
  5  6  1  1
  7  5  1  0
  7  8  2  0
 10  9  1  6
 10 12  1  0
 11 10  1  0
 12 13  1  6
 13  7  1  0
 14 12  1  0
 15 14  2  0
 16 14  1  0
 17 16  1  0
 17 22  1  0
 17 18  1  1
 19 20  1  0
 19 18  1  0
 20 21  2  0
 22 23  1  0
 24 20  1  0
 25 22  2  0
M  END
$$$$
