NYL.pdb
     RDKit          3D

 29 29  0  0  1  0  0  0  0  0999 V2000
    9.2668  -20.0418   17.4007 N   0  0  0  0  0  0  0  0  0  0  0  0
    9.5478  -19.7707   18.7638 C   0  0  0  0  0  0  0  0  0  0  0  0
    9.6381  -20.7441   19.5585 O   0  0  0  0  0  0  0  0  0  0  0  0
    9.7317  -18.3680   19.2438 C   0  0  0  0  0  0  0  0  0  0  0  0
    9.3348  -18.3095   20.7215 C   0  0  2  0  0  0  0  0  0  0  0  0
    7.9653  -18.6931   20.8666 N   0  0  0  0  0  0  0  0  0  0  0  0
    9.6444  -16.9921   21.3024 C   0  0  0  0  0  0  0  0  0  0  0  0
   10.8442  -16.5938   21.2084 O   0  0  0  0  0  0  0  0  0  0  0  0
    7.5936  -13.5153   16.4244 O   0  0  0  0  0  0  0  0  0  0  0  0
    7.7155  -13.6061   17.8134 C   0  0  0  0  0  0  0  0  0  0  0  0
    8.5508  -12.7166   18.4534 C   0  0  0  0  0  0  0  0  0  0  0  0
    8.6637  -12.8148   19.8240 C   0  0  0  0  0  0  0  0  0  0  0  0
    7.9694  -13.7708   20.5642 C   0  0  0  0  0  0  0  0  0  0  0  0
    8.1234  -13.8527   22.0300 C   0  0  0  0  0  0  0  0  0  0  0  0
    9.1125  -14.8869   22.4720 C   0  0  2  0  0  0  0  0  0  0  0  0
    8.6875  -16.1685   21.9461 N   0  0  0  0  0  0  0  0  0  0  0  0
    9.3308  -14.9386   23.9348 C   0  0  0  0  0  0  0  0  0  0  0  0
   10.3745  -14.4265   24.4007 O   0  0  0  0  0  0  0  0  0  0  0  0
    7.1386  -14.6535   19.9154 C   0  0  0  0  0  0  0  0  0  0  0  0
    7.0277  -14.5527   18.5454 C   0  0  0  0  0  0  0  0  0  0  0  0
    8.7835  -12.6192   27.1856 C   0  0  0  0  0  0  0  0  0  0  0  0
    7.5874  -13.2556   26.4709 C   0  0  2  0  0  0  0  0  0  0  0  0
    6.3663  -12.4824   26.8183 C   0  0  0  0  0  0  0  0  0  0  0  0
    7.5249  -14.7035   26.8636 C   0  0  0  0  0  0  0  0  0  0  0  0
    8.6117  -15.5454   26.2901 C   0  0  2  0  0  0  0  0  0  0  0  0
    8.4087  -15.5433   24.8323 N   0  0  0  0  0  0  0  0  0  0  0  0
    8.6154  -16.9433   26.7668 C   0  0  0  0  0  0  0  0  0  0  0  0
    8.9356  -17.2721   28.0754 O   0  0  0  0  0  0  0  0  0  0  0  0
    8.3246  -17.8906   25.9902 O   0  0  0  0  0  0  0  0  0  0  0  0
  1  2  1  0
  2  3  2  0
  4  2  1  0
  5  4  1  0
  5  6  1  6
  7  8  2  0
  7  5  1  0
  9 10  1  0
 10 20  2  0
 10 11  1  0
 11 12  2  0
 12 13  1  0
 13 14  1  0
 15 14  1  1
 15 16  1  0
 16  7  1  0
 17 15  1  0
 17 18  2  0
 19 13  2  0
 20 19  1  0
 22 23  1  1
 22 21  1  0
 24 22  1  0
 25 24  1  1
 25 26  1  0
 26 17  1  0
 27 25  1  0
 28 27  1  0
 29 27  2  0
M  END
$$$$
