NYL.pdb
     RDKit          3D

 29 29  0  0  1  0  0  0  0  0999 V2000
    8.0797  -21.0558   20.6935 N   0  0  0  0  0  0  0  0  0  0  0  0
    8.3315  -20.7950   22.0643 C   0  0  0  0  0  0  0  0  0  0  0  0
    8.0442  -21.6896   22.9035 O   0  0  0  0  0  0  0  0  0  0  0  0
    8.9218  -19.4939   22.5009 C   0  0  0  0  0  0  0  0  0  0  0  0
    9.0287  -18.5797   21.2772 C   0  0  2  0  0  0  0  0  0  0  0  0
    9.9296  -19.1528   20.3266 N   0  0  0  0  0  0  0  0  0  0  0  0
    9.3805  -17.2049   21.6709 C   0  0  0  0  0  0  0  0  0  0  0  0
   10.6156  -16.9255   21.7292 O   0  0  0  0  0  0  0  0  0  0  0  0
    7.6518  -13.4073   16.2977 O   0  0  0  0  0  0  0  0  0  0  0  0
    7.7036  -13.5313   17.6886 C   0  0  0  0  0  0  0  0  0  0  0  0
    8.5022  -12.6555   18.3912 C   0  0  0  0  0  0  0  0  0  0  0  0
    8.5461  -12.7866   19.7630 C   0  0  0  0  0  0  0  0  0  0  0  0
    7.8187  -13.7618   20.4440 C   0  0  0  0  0  0  0  0  0  0  0  0
    7.8987  -13.8788   21.9132 C   0  0  0  0  0  0  0  0  0  0  0  0
    8.8970  -14.8929   22.3804 C   0  0  2  0  0  0  0  0  0  0  0  0
    8.4265  -16.2037   21.9803 N   0  0  0  0  0  0  0  0  0  0  0  0
    9.1955  -14.8351   23.8288 C   0  0  0  0  0  0  0  0  0  0  0  0
   10.0868  -14.0487   24.2232 O   0  0  0  0  0  0  0  0  0  0  0  0
    7.0249  -14.6305   19.7329 C   0  0  0  0  0  0  0  0  0  0  0  0
    6.9831  -14.4970   18.3618 C   0  0  0  0  0  0  0  0  0  0  0  0
    8.5445  -12.5713   27.2243 C   0  0  0  0  0  0  0  0  0  0  0  0
    7.4393  -13.2090   26.3768 C   0  0  2  0  0  0  0  0  0  0  0  0
    6.1577  -12.5192   26.6792 C   0  0  0  0  0  0  0  0  0  0  0  0
    7.4215  -14.6827   26.6645 C   0  0  0  0  0  0  0  0  0  0  0  0
    8.6502  -15.4089   26.2384 C   0  0  2  0  0  0  0  0  0  0  0  0
    8.5154  -15.6321   24.7898 N   0  0  0  0  0  0  0  0  0  0  0  0
    8.8486  -16.7128   26.9031 C   0  0  0  0  0  0  0  0  0  0  0  0
    8.9012  -17.9005   26.1893 O   0  0  0  0  0  0  0  0  0  0  0  0
    8.9774  -16.7866   28.1534 O   0  0  0  0  0  0  0  0  0  0  0  0
  1  2  1  0
  2  3  2  0
  4  2  1  0
  5  4  1  0
  5  6  1  6
  7  8  2  0
  7  5  1  0
  9 10  1  0
 10 20  2  0
 10 11  1  0
 11 12  2  0
 12 13  1  0
 13 14  1  0
 15 14  1  1
 15 16  1  0
 16  7  1  0
 17 15  1  0
 17 18  2  0
 19 13  2  0
 20 19  1  0
 22 23  1  1
 22 21  1  0
 24 22  1  0
 25 24  1  1
 25 26  1  0
 26 17  1  0
 27 25  1  0
 28 27  1  0
 29 27  2  0
M  END
$$$$
