NYL.pdb
     RDKit          3D

 29 29  0  0  1  0  0  0  0  0999 V2000
   10.0439  -21.9693   20.7124 N   0  0  0  0  0  0  0  0  0  0  0  0
   10.2611  -21.6762   22.0826 C   0  0  0  0  0  0  0  0  0  0  0  0
   11.4319  -21.7808   22.5359 O   0  0  0  0  0  0  0  0  0  0  0  0
    9.1312  -21.2548   22.9644 C   0  0  0  0  0  0  0  0  0  0  0  0
    9.4739  -19.8889   23.5654 C   0  0  2  0  0  0  0  0  0  0  0  0
   10.5816  -20.0215   24.4592 N   0  0  0  0  0  0  0  0  0  0  0  0
    8.2890  -19.2673   24.1807 C   0  0  0  0  0  0  0  0  0  0  0  0
    7.2341  -19.2295   23.4788 O   0  0  0  0  0  0  0  0  0  0  0  0
   11.6179  -15.4149   29.6317 O   0  0  0  0  0  0  0  0  0  0  0  0
   10.4923  -16.0362   29.0843 C   0  0  0  0  0  0  0  0  0  0  0  0
   10.4611  -17.4132   29.0490 C   0  0  0  0  0  0  0  0  0  0  0  0
    9.3459  -18.0161   28.5068 C   0  0  0  0  0  0  0  0  0  0  0  0
    8.2712  -17.2841   28.0037 C   0  0  0  0  0  0  0  0  0  0  0  0
    7.0979  -17.9643   27.4209 C   0  0  0  0  0  0  0  0  0  0  0  0
    7.1015  -17.9884   25.9234 C   0  0  2  0  0  0  0  0  0  0  0  0
    8.2727  -18.7227   25.4889 N   0  0  0  0  0  0  0  0  0  0  0  0
    7.0243  -16.6531   25.2900 C   0  0  0  0  0  0  0  0  0  0  0  0
    6.0073  -15.9523   25.4977 O   0  0  0  0  0  0  0  0  0  0  0  0
    8.3129  -15.9104   28.0440 C   0  0  0  0  0  0  0  0  0  0  0  0
    9.4289  -15.3108   28.5865 C   0  0  0  0  0  0  0  0  0  0  0  0
    5.8004  -12.9521   24.7101 C   0  0  0  0  0  0  0  0  0  0  0  0
    6.8365  -13.5428   25.6713 C   0  0  2  0  0  0  0  0  0  0  0  0
    7.0118  -12.6027   26.8094 C   0  0  0  0  0  0  0  0  0  0  0  0
    8.0961  -13.8049   24.8970 C   0  0  0  0  0  0  0  0  0  0  0  0
    7.9534  -14.8141   23.8108 C   0  0  2  0  0  0  0  0  0  0  0  0
    8.0528  -16.1324   24.4578 N   0  0  0  0  0  0  0  0  0  0  0  0
    8.9835  -14.7240   22.7563 C   0  0  0  0  0  0  0  0  0  0  0  0
    8.9349  -13.7577   21.7629 O   0  0  0  0  0  0  0  0  0  0  0  0
    9.9488  -15.5317   22.7266 O   0  0  0  0  0  0  0  0  0  0  0  0
  1  2  1  0
  2  3  2  0
  4  2  1  0
  5  4  1  0
  5  6  1  1
  7  8  2  0
  7  5  1  0
  9 10  1  0
 10 20  2  0
 10 11  1  0
 11 12  2  0
 12 13  1  0
 13 14  1  0
 15 14  1  1
 15 16  1  0
 16  7  1  0
 17 15  1  0
 17 18  2  0
 19 13  2  0
 20 19  1  0
 22 23  1  1
 22 21  1  0
 24 22  1  0
 25 24  1  1
 25 26  1  0
 26 17  1  0
 27 25  1  0
 28 27  1  0
 29 27  2  0
M  END
$$$$
