NYL.pdb
     RDKit          3D

 29 29  0  0  1  0  0  0  0  0999 V2000
    9.9540  -19.7718   17.3164 N   0  0  0  0  0  0  0  0  0  0  0  0
   10.0709  -19.4464   18.6916 C   0  0  0  0  0  0  0  0  0  0  0  0
   10.3146  -20.3768   19.5052 O   0  0  0  0  0  0  0  0  0  0  0  0
    9.9094  -18.0377   19.1619 C   0  0  0  0  0  0  0  0  0  0  0  0
    9.5817  -18.0646   20.6573 C   0  0  2  0  0  0  0  0  0  0  0  0
    8.2749  -18.6103   20.8530 N   0  0  0  0  0  0  0  0  0  0  0  0
    9.7643  -16.7355   21.2647 C   0  0  0  0  0  0  0  0  0  0  0  0
   10.9055  -16.1993   21.1339 O   0  0  0  0  0  0  0  0  0  0  0  0
    7.5635  -13.2307   16.5188 O   0  0  0  0  0  0  0  0  0  0  0  0
    7.6575  -13.3768   17.9053 C   0  0  0  0  0  0  0  0  0  0  0  0
    8.4690  -12.5053   18.5984 C   0  0  0  0  0  0  0  0  0  0  0  0
    8.5546  -12.6583   19.9660 C   0  0  0  0  0  0  0  0  0  0  0  0
    7.8561  -13.6510   20.6519 C   0  0  0  0  0  0  0  0  0  0  0  0
    7.9806  -13.7911   22.1160 C   0  0  0  0  0  0  0  0  0  0  0  0
    9.0547  -14.7459   22.5378 C   0  0  2  0  0  0  0  0  0  0  0  0
    8.7490  -16.0443   21.9716 N   0  0  0  0  0  0  0  0  0  0  0  0
    9.2666  -14.8207   24.0006 C   0  0  0  0  0  0  0  0  0  0  0  0
   10.2132  -14.1705   24.5002 O   0  0  0  0  0  0  0  0  0  0  0  0
    7.0491  -14.5153   19.9502 C   0  0  0  0  0  0  0  0  0  0  0  0
    6.9656  -14.3598   18.5834 C   0  0  0  0  0  0  0  0  0  0  0  0
    8.3307  -12.6637   27.2743 C   0  0  0  0  0  0  0  0  0  0  0  0
    7.2820  -13.4525   26.4841 C   0  0  2  0  0  0  0  0  0  0  0  0
    5.9457  -12.8605   26.7552 C   0  0  0  0  0  0  0  0  0  0  0  0
    7.3979  -14.8992   26.8692 C   0  0  0  0  0  0  0  0  0  0  0  0
    8.6013  -15.5878   26.3248 C   0  0  2  0  0  0  0  0  0  0  0  0
    8.4437  -15.5974   24.8614 N   0  0  0  0  0  0  0  0  0  0  0  0
    8.7717  -16.9781   26.7929 C   0  0  0  0  0  0  0  0  0  0  0  0
    8.8004  -18.0506   25.9143 O   0  0  0  0  0  0  0  0  0  0  0  0
    8.8976  -17.2352   28.0190 O   0  0  0  0  0  0  0  0  0  0  0  0
  1  2  1  0
  2  3  2  0
  4  2  1  0
  5  4  1  0
  5  6  1  6
  7  8  2  0
  7  5  1  0
  9 10  1  0
 10 20  2  0
 10 11  1  0
 11 12  2  0
 12 13  1  0
 13 14  1  0
 15 14  1  1
 15 16  1  0
 16  7  1  0
 17 15  1  0
 17 18  2  0
 19 13  2  0
 20 19  1  0
 22 23  1  1
 22 21  1  0
 24 22  1  0
 25 24  1  1
 25 26  1  0
 26 17  1  0
 27 25  1  0
 28 27  1  0
 29 27  2  0
M  END
$$$$
