NYL.pdb
     RDKit          3D

 29 29  0  0  1  0  0  0  0  0999 V2000
    7.6192  -20.7201   19.7455 N   0  0  0  0  0  0  0  0  0  0  0  0
    7.9476  -19.7244   18.7908 C   0  0  0  0  0  0  0  0  0  0  0  0
    7.9359  -20.0413   17.5715 O   0  0  0  0  0  0  0  0  0  0  0  0
    8.2979  -18.3371   19.2203 C   0  0  0  0  0  0  0  0  0  0  0  0
    8.3025  -18.2942   20.7508 C   0  0  2  0  0  0  0  0  0  0  0  0
    6.9618  -18.3890   21.2381 N   0  0  0  0  0  0  0  0  0  0  0  0
    9.0296  -17.1134   21.2465 C   0  0  0  0  0  0  0  0  0  0  0  0
   10.2837  -17.0957   21.0626 O   0  0  0  0  0  0  0  0  0  0  0  0
    8.1671  -13.0880   16.4211 O   0  0  0  0  0  0  0  0  0  0  0  0
    8.2718  -13.2216   17.8081 C   0  0  0  0  0  0  0  0  0  0  0  0
    9.4811  -13.6202   18.3345 C   0  0  0  0  0  0  0  0  0  0  0  0
    9.5736  -13.7489   19.7041 C   0  0  0  0  0  0  0  0  0  0  0  0
    8.4979  -13.4916   20.5530 C   0  0  0  0  0  0  0  0  0  0  0  0
    8.6312  -13.6502   22.0144 C   0  0  0  0  0  0  0  0  0  0  0  0
    9.2412  -14.9559   22.4226 C   0  0  2  0  0  0  0  0  0  0  0  0
    8.4085  -16.0222   21.9037 N   0  0  0  0  0  0  0  0  0  0  0  0
    9.4693  -15.0959   23.8781 C   0  0  0  0  0  0  0  0  0  0  0  0
   10.5352  -14.6491   24.3606 O   0  0  0  0  0  0  0  0  0  0  0  0
    7.2957  -13.0944   20.0170 C   0  0  0  0  0  0  0  0  0  0  0  0
    7.2064  -12.9667   18.6476 C   0  0  0  0  0  0  0  0  0  0  0  0
    8.3196  -12.7996   27.1531 C   0  0  0  0  0  0  0  0  0  0  0  0
    7.2714  -13.6080   26.3823 C   0  0  2  0  0  0  0  0  0  0  0  0
    5.9273  -13.0570   26.6977 C   0  0  0  0  0  0  0  0  0  0  0  0
    7.4380  -15.0554   26.7456 C   0  0  0  0  0  0  0  0  0  0  0  0
    8.6789  -15.6855   26.2149 C   0  0  2  0  0  0  0  0  0  0  0  0
    8.5325  -15.7145   24.7506 N   0  0  0  0  0  0  0  0  0  0  0  0
    8.9169  -17.0617   26.6954 C   0  0  0  0  0  0  0  0  0  0  0  0
    9.2462  -17.3321   28.0150 O   0  0  0  0  0  0  0  0  0  0  0  0
    8.8272  -18.0432   25.9120 O   0  0  0  0  0  0  0  0  0  0  0  0
  1  2  1  0
  2  3  2  0
  4  2  1  0
  5  4  1  0
  5  6  1  6
  7  8  2  0
  7  5  1  0
  9 10  1  0
 10 20  2  0
 10 11  1  0
 11 12  2  0
 12 13  1  0
 13 14  1  0
 15 14  1  1
 15 16  1  0
 16  7  1  0
 17 15  1  0
 17 18  2  0
 19 13  2  0
 20 19  1  0
 22 23  1  1
 22 21  1  0
 24 22  1  0
 25 24  1  1
 25 26  1  0
 26 17  1  0
 27 25  1  0
 28 27  1  0
 29 27  2  0
M  END
$$$$
