NYL.pdb
     RDKit          3D

 29 29  0  0  1  0  0  0  0  0999 V2000
   10.6824  -20.4995   15.8654 N   0  0  0  0  0  0  0  0  0  0  0  0
   11.7079  -19.5532   16.1172 C   0  0  0  0  0  0  0  0  0  0  0  0
   12.0248  -18.7580   15.1928 O   0  0  0  0  0  0  0  0  0  0  0  0
   12.3936  -19.5012   17.4435 C   0  0  0  0  0  0  0  0  0  0  0  0
   11.5790  -18.5951   18.3707 C   0  0  2  0  0  0  0  0  0  0  0  0
   11.3421  -17.3397   17.7293 N   0  0  0  0  0  0  0  0  0  0  0  0
   12.2202  -18.4727   19.6909 C   0  0  0  0  0  0  0  0  0  0  0  0
   12.3423  -19.5375   20.3678 O   0  0  0  0  0  0  0  0  0  0  0  0
   18.4818  -18.9419   18.3398 O   0  0  0  0  0  0  0  0  0  0  0  0
   17.5058  -18.3465   19.1433 C   0  0  0  0  0  0  0  0  0  0  0  0
   16.6927  -17.3884   18.5781 C   0  0  0  0  0  0  0  0  0  0  0  0
   15.7331  -16.8072   19.3796 C   0  0  0  0  0  0  0  0  0  0  0  0
   15.5672  -17.1563   20.7192 C   0  0  0  0  0  0  0  0  0  0  0  0
   14.5353  -16.5048   21.5496 C   0  0  0  0  0  0  0  0  0  0  0  0
   13.2316  -17.2418   21.5736 C   0  0  2  0  0  0  0  0  0  0  0  0
   12.6958  -17.2503   20.2273 N   0  0  0  0  0  0  0  0  0  0  0  0
   12.2515  -16.7192   22.5515 C   0  0  0  0  0  0  0  0  0  0  0  0
   12.5680  -16.7039   23.7632 O   0  0  0  0  0  0  0  0  0  0  0  0
   16.3841  -18.1136   21.2729 C   0  0  0  0  0  0  0  0  0  0  0  0
   17.3423  -18.6927   20.4692 C   0  0  0  0  0  0  0  0  0  0  0  0
    7.2501  -13.2086   22.2185 C   0  0  0  0  0  0  0  0  0  0  0  0
    8.2121  -13.8981   23.1909 C   0  0  2  0  0  0  0  0  0  0  0  0
    8.7472  -12.8752   24.1274 C   0  0  0  0  0  0  0  0  0  0  0  0
    9.2675  -14.5994   22.3854 C   0  0  0  0  0  0  0  0  0  0  0  0
   10.0418  -15.6228   23.1415 C   0  0  2  0  0  0  0  0  0  0  0  0
   10.9688  -16.2347   22.1757 N   0  0  0  0  0  0  0  0  0  0  0  0
    9.2159  -16.6873   23.7465 C   0  0  0  0  0  0  0  0  0  0  0  0
    8.7755  -16.6181   25.0597 O   0  0  0  0  0  0  0  0  0  0  0  0
    8.8825  -17.7024   23.0805 O   0  0  0  0  0  0  0  0  0  0  0  0
  1  2  1  0
  2  3  2  0
  4  2  1  0
  5  4  1  0
  5  6  1  6
  7  8  2  0
  7  5  1  0
  9 10  1  0
 10 20  2  0
 10 11  1  0
 11 12  2  0
 12 13  1  0
 13 14  1  0
 15 14  1  6
 15 16  1  0
 16  7  1  0
 17 15  1  0
 17 18  2  0
 19 13  2  0
 20 19  1  0
 22 23  1  1
 22 21  1  0
 24 22  1  0
 25 24  1  6
 25 26  1  0
 26 17  1  0
 27 25  1  0
 28 27  1  0
 29 27  2  0
M  END
$$$$
