NYL.pdb
     RDKit          3D

 29 29  0  0  1  0  0  0  0  0999 V2000
    6.4934  -20.2013   19.5538 N   0  0  0  0  0  0  0  0  0  0  0  0
    7.4039  -19.5147   18.7110 C   0  0  0  0  0  0  0  0  0  0  0  0
    7.5240  -19.9061   17.5196 O   0  0  0  0  0  0  0  0  0  0  0  0
    8.1991  -18.3583   19.2232 C   0  0  0  0  0  0  0  0  0  0  0  0
    7.8881  -18.1827   20.7121 C   0  0  2  0  0  0  0  0  0  0  0  0
    6.4835  -17.9842   20.8894 N   0  0  0  0  0  0  0  0  0  0  0  0
    8.7151  -17.1181   21.3051 C   0  0  0  0  0  0  0  0  0  0  0  0
    9.9721  -17.2675   21.2395 O   0  0  0  0  0  0  0  0  0  0  0  0
    8.0408  -13.4020   16.3660 O   0  0  0  0  0  0  0  0  0  0  0  0
    8.2145  -13.4602   17.7512 C   0  0  0  0  0  0  0  0  0  0  0  0
    7.1017  -13.6573   18.5394 C   0  0  0  0  0  0  0  0  0  0  0  0
    7.2842  -13.7131   19.9049 C   0  0  0  0  0  0  0  0  0  0  0  0
    8.5392  -13.5780   20.4970 C   0  0  0  0  0  0  0  0  0  0  0  0
    8.6948  -13.6328   21.9638 C   0  0  0  0  0  0  0  0  0  0  0  0
    9.1020  -14.9810   22.4736 C   0  0  2  0  0  0  0  0  0  0  0  0
    8.1846  -15.9623   21.9305 N   0  0  0  0  0  0  0  0  0  0  0  0
    9.1968  -15.0744   23.9476 C   0  0  0  0  0  0  0  0  0  0  0  0
   10.2162  -14.6130   24.5102 O   0  0  0  0  0  0  0  0  0  0  0  0
    9.6429  -13.3816   19.7010 C   0  0  0  0  0  0  0  0  0  0  0  0
    9.4573  -13.3263   18.3365 C   0  0  0  0  0  0  0  0  0  0  0  0
    7.9407  -12.7821   27.2265 C   0  0  0  0  0  0  0  0  0  0  0  0
    6.9118  -13.5054   26.3520 C   0  0  2  0  0  0  0  0  0  0  0  0
    5.5781  -12.8946   26.5925 C   0  0  0  0  0  0  0  0  0  0  0  0
    6.9775  -14.9716   26.6692 C   0  0  0  0  0  0  0  0  0  0  0  0
    8.2291  -15.6438   26.2218 C   0  0  2  0  0  0  0  0  0  0  0  0
    8.1827  -15.6641   24.7508 N   0  0  0  0  0  0  0  0  0  0  0  0
    8.3852  -17.0286   26.7109 C   0  0  0  0  0  0  0  0  0  0  0  0
    8.9167  -17.3106   27.9604 O   0  0  0  0  0  0  0  0  0  0  0  0
    8.0365  -18.0072   25.9997 O   0  0  0  0  0  0  0  0  0  0  0  0
  1  2  1  0
  2  3  2  0
  4  2  1  0
  5  4  1  0
  5  6  1  6
  7  8  2  0
  7  5  1  0
  9 10  1  0
 10 20  2  0
 10 11  1  0
 11 12  2  0
 12 13  1  0
 13 14  1  0
 15 14  1  1
 15 16  1  0
 16  7  1  0
 17 15  1  0
 17 18  2  0
 19 13  2  0
 20 19  1  0
 22 23  1  1
 22 21  1  0
 24 22  1  0
 25 24  1  1
 25 26  1  0
 26 17  1  0
 27 25  1  0
 28 27  1  0
 29 27  2  0
M  END
$$$$
