NYL.pdb
     RDKit          3D

 29 29  0  0  1  0  0  0  0  0999 V2000
    7.3322  -19.7813   17.9639 N   0  0  0  0  0  0  0  0  0  0  0  0
    8.3036  -19.7687   18.9967 C   0  0  0  0  0  0  0  0  0  0  0  0
    8.7287  -20.8733   19.4282 O   0  0  0  0  0  0  0  0  0  0  0  0
    8.8089  -18.4794   19.5575 C   0  0  0  0  0  0  0  0  0  0  0  0
    8.9744  -18.6453   21.0706 C   0  0  2  0  0  0  0  0  0  0  0  0
    7.7154  -18.9832   21.6575 N   0  0  0  0  0  0  0  0  0  0  0  0
    9.6056  -17.4567   21.6689 C   0  0  0  0  0  0  0  0  0  0  0  0
   10.7778  -17.1742   21.2777 O   0  0  0  0  0  0  0  0  0  0  0  0
    6.8236  -13.5466   17.6547 O   0  0  0  0  0  0  0  0  0  0  0  0
    7.3010  -13.7248   18.9558 C   0  0  0  0  0  0  0  0  0  0  0  0
    6.5239  -14.4376   19.8427 C   0  0  0  0  0  0  0  0  0  0  0  0
    7.0043  -14.6076   21.1238 C   0  0  0  0  0  0  0  0  0  0  0  0
    8.2303  -14.0879   21.5371 C   0  0  0  0  0  0  0  0  0  0  0  0
    8.7075  -14.2812   22.9204 C   0  0  0  0  0  0  0  0  0  0  0  0
    9.6577  -15.4291   23.0720 C   0  0  2  0  0  0  0  0  0  0  0  0
    8.9794  -16.6338   22.6379 N   0  0  0  0  0  0  0  0  0  0  0  0
   10.2255  -15.5778   24.4306 C   0  0  0  0  0  0  0  0  0  0  0  0
   11.3937  -15.1759   24.6361 O   0  0  0  0  0  0  0  0  0  0  0  0
    8.9976  -13.3782   20.6438 C   0  0  0  0  0  0  0  0  0  0  0  0
    8.5148  -13.2100   19.3640 C   0  0  0  0  0  0  0  0  0  0  0  0
   10.9332  -13.5219   28.1177 C   0  0  0  0  0  0  0  0  0  0  0  0
    9.6071  -13.8903   27.4453 C   0  0  2  0  0  0  0  0  0  0  0  0
    8.5553  -12.9643   27.9412 C   0  0  0  0  0  0  0  0  0  0  0  0
    9.3271  -15.3385   27.7269 C   0  0  0  0  0  0  0  0  0  0  0  0
   10.0751  -16.2910   26.8599 C   0  0  2  0  0  0  0  0  0  0  0  0
    9.5034  -16.1559   25.5103 N   0  0  0  0  0  0  0  0  0  0  0  0
    9.9746  -17.7037   27.2786 C   0  0  0  0  0  0  0  0  0  0  0  0
   10.6389  -18.1876   28.3956 O   0  0  0  0  0  0  0  0  0  0  0  0
    9.2744  -18.5218   26.6262 O   0  0  0  0  0  0  0  0  0  0  0  0
  1  2  1  0
  2  3  2  0
  4  2  1  0
  5  4  1  0
  5  6  1  1
  7  8  2  0
  7  5  1  0
  9 10  1  0
 10 20  2  0
 10 11  1  0
 11 12  2  0
 12 13  1  0
 13 14  1  0
 15 14  1  1
 15 16  1  0
 16  7  1  0
 17 15  1  0
 17 18  2  0
 19 13  2  0
 20 19  1  0
 22 23  1  1
 22 21  1  0
 24 22  1  0
 25 24  1  1
 25 26  1  0
 26 17  1  0
 27 25  1  0
 28 27  1  0
 29 27  2  0
M  END
$$$$
