NYL.pdb
     RDKit          3D

 29 29  0  0  1  0  0  0  0  0999 V2000
    7.8689  -22.9679   21.7138 N   0  0  0  0  0  0  0  0  0  0  0  0
    7.1169  -21.7668   21.7657 C   0  0  0  0  0  0  0  0  0  0  0  0
    5.8962  -21.8409   22.0680 O   0  0  0  0  0  0  0  0  0  0  0  0
    7.7561  -20.4494   21.4698 C   0  0  0  0  0  0  0  0  0  0  0  0
    7.8261  -19.6457   22.7712 C   0  0  2  0  0  0  0  0  0  0  0  0
    6.5608  -19.6944   23.4346 N   0  0  0  0  0  0  0  0  0  0  0  0
    8.3120  -18.2775   22.5246 C   0  0  0  0  0  0  0  0  0  0  0  0
    9.4562  -18.1650   21.9906 O   0  0  0  0  0  0  0  0  0  0  0  0
    8.8395  -12.4605   17.2231 O   0  0  0  0  0  0  0  0  0  0  0  0
    8.4307  -13.0587   18.4179 C   0  0  0  0  0  0  0  0  0  0  0  0
    7.9316  -14.3419   18.3663 C   0  0  0  0  0  0  0  0  0  0  0  0
    7.5311  -14.9228   19.5508 C   0  0  0  0  0  0  0  0  0  0  0  0
    7.6162  -14.2597   20.7743 C   0  0  0  0  0  0  0  0  0  0  0  0
    7.1679  -14.9099   22.0213 C   0  0  0  0  0  0  0  0  0  0  0  0
    8.1948  -15.8162   22.6275 C   0  0  2  0  0  0  0  0  0  0  0  0
    7.5786  -17.1089   22.8483 N   0  0  0  0  0  0  0  0  0  0  0  0
    8.8238  -15.2900   23.8595 C   0  0  0  0  0  0  0  0  0  0  0  0
    9.7851  -14.4954   23.7459 O   0  0  0  0  0  0  0  0  0  0  0  0
    8.1159  -12.9794   20.8143 C   0  0  0  0  0  0  0  0  0  0  0  0
    8.5153  -12.4015   19.6286 C   0  0  0  0  0  0  0  0  0  0  0  0
    8.0901  -12.0784   26.3787 C   0  0  0  0  0  0  0  0  0  0  0  0
    7.1654  -13.2992   26.3529 C   0  0  2  0  0  0  0  0  0  0  0  0
    5.8458  -12.9015   26.9099 C   0  0  0  0  0  0  0  0  0  0  0  0
    7.8367  -14.4097   27.1084 C   0  0  0  0  0  0  0  0  0  0  0  0
    8.9642  -15.0566   26.3812 C   0  0  2  0  0  0  0  0  0  0  0  0
    8.3847  -15.6470   25.1638 N   0  0  0  0  0  0  0  0  0  0  0  0
    9.6511  -16.1190   27.1432 C   0  0  0  0  0  0  0  0  0  0  0  0
   10.3428  -15.8521   28.3152 O   0  0  0  0  0  0  0  0  0  0  0  0
    9.6295  -17.3139   26.7473 O   0  0  0  0  0  0  0  0  0  0  0  0
  1  2  1  0
  2  3  2  0
  4  2  1  0
  5  4  1  0
  5  6  1  6
  7  8  2  0
  7  5  1  0
  9 10  1  0
 10 20  2  0
 10 11  1  0
 11 12  2  0
 12 13  1  0
 13 14  1  0
 15 14  1  1
 15 16  1  0
 16  7  1  0
 17 15  1  0
 17 18  2  0
 19 13  2  0
 20 19  1  0
 22 23  1  1
 22 21  1  0
 24 22  1  0
 25 24  1  1
 25 26  1  0
 26 17  1  0
 27 25  1  0
 28 27  1  0
 29 27  2  0
M  END
$$$$
