NYL.pdb
     RDKit          3D

 29 29  0  0  1  0  0  0  0  0999 V2000
    7.4596  -19.6812   18.7140 N   0  0  0  0  0  0  0  0  0  0  0  0
    6.8680  -18.5008   18.1970 C   0  0  0  0  0  0  0  0  0  0  0  0
    7.1119  -18.1865   17.0017 O   0  0  0  0  0  0  0  0  0  0  0  0
    5.9793  -17.6533   19.0478 C   0  0  0  0  0  0  0  0  0  0  0  0
    6.8481  -16.6201   19.7704 C   0  0  2  0  0  0  0  0  0  0  0  0
    8.1559  -16.6040   19.1930 N   0  0  0  0  0  0  0  0  0  0  0  0
    6.8469  -16.8498   21.2250 C   0  0  0  0  0  0  0  0  0  0  0  0
    5.7503  -16.6618   21.8324 O   0  0  0  0  0  0  0  0  0  0  0  0
    8.6263  -19.2664   29.4455 O   0  0  0  0  0  0  0  0  0  0  0  0
    8.5857  -19.1159   28.0569 C   0  0  0  0  0  0  0  0  0  0  0  0
    9.7069  -18.6282   27.4217 C   0  0  0  0  0  0  0  0  0  0  0  0
    9.6563  -18.4835   26.0515 C   0  0  0  0  0  0  0  0  0  0  0  0
    8.5237  -18.8109   25.3070 C   0  0  0  0  0  0  0  0  0  0  0  0
    8.5026  -18.6328   23.8419 C   0  0  0  0  0  0  0  0  0  0  0  0
    7.8941  -17.3360   23.4044 C   0  0  2  0  0  0  0  0  0  0  0  0
    7.9864  -17.2612   21.9603 N   0  0  0  0  0  0  0  0  0  0  0  0
    8.4727  -16.1389   24.0544 C   0  0  0  0  0  0  0  0  0  0  0  0
    8.8891  -15.2080   23.3274 O   0  0  0  0  0  0  0  0  0  0  0  0
    7.4104  -19.2968   25.9512 C   0  0  0  0  0  0  0  0  0  0  0  0
    7.4642  -19.4402   27.3208 C   0  0  0  0  0  0  0  0  0  0  0  0
    5.6508  -12.3576   26.4919 C   0  0  0  0  0  0  0  0  0  0  0  0
    7.1463  -12.6888   26.5007 C   0  0  2  0  0  0  0  0  0  0  0  0
    7.8800  -11.5678   25.8565 C   0  0  0  0  0  0  0  0  0  0  0  0
    7.3354  -14.0133   25.8189 C   0  0  0  0  0  0  0  0  0  0  0  0
    8.6272  -14.6872   26.1284 C   0  0  2  0  0  0  0  0  0  0  0  0
    8.5760  -16.0004   25.4656 N   0  0  0  0  0  0  0  0  0  0  0  0
    8.8774  -14.8922   27.5694 C   0  0  0  0  0  0  0  0  0  0  0  0
    9.8247  -14.1538   28.2627 O   0  0  0  0  0  0  0  0  0  0  0  0
    8.2306  -15.7543   28.2203 O   0  0  0  0  0  0  0  0  0  0  0  0
  1  2  1  0
  2  3  2  0
  4  2  1  0
  5  4  1  0
  5  6  1  6
  7  8  2  0
  7  5  1  0
  9 10  1  0
 10 20  2  0
 10 11  1  0
 11 12  2  0
 12 13  1  0
 13 14  1  0
 15 14  1  1
 15 16  1  0
 16  7  1  0
 17 15  1  0
 17 18  2  0
 19 13  2  0
 20 19  1  0
 22 23  1  6
 22 21  1  0
 24 22  1  0
 25 24  1  1
 25 26  1  0
 26 17  1  0
 27 25  1  0
 28 27  1  0
 29 27  2  0
M  END
$$$$
