NYL.pdb
     RDKit          3D

 29 29  0  0  1  0  0  0  0  0999 V2000
    8.1609  -12.9292   17.1758 N   0  0  0  0  0  0  0  0  0  0  0  0
    7.8309  -14.3062   17.1011 C   0  0  0  0  0  0  0  0  0  0  0  0
    7.9583  -14.8900   15.9920 O   0  0  0  0  0  0  0  0  0  0  0  0
    7.3454  -15.0441   18.3059 C   0  0  0  0  0  0  0  0  0  0  0  0
    8.5059  -15.1620   19.2977 C   0  0  2  0  0  0  0  0  0  0  0  0
    9.5614  -15.9289   18.7132 N   0  0  0  0  0  0  0  0  0  0  0  0
    8.0444  -15.6840   20.5951 C   0  0  0  0  0  0  0  0  0  0  0  0
    7.0546  -15.0977   21.1276 O   0  0  0  0  0  0  0  0  0  0  0  0
    7.6720  -19.9836   28.2864 O   0  0  0  0  0  0  0  0  0  0  0  0
    7.9432  -19.6014   26.9700 C   0  0  0  0  0  0  0  0  0  0  0  0
    6.8961  -19.5582   26.0755 C   0  0  0  0  0  0  0  0  0  0  0  0
    7.1747  -19.1799   24.7792 C   0  0  0  0  0  0  0  0  0  0  0  0
    8.4615  -18.8468   24.3584 C   0  0  0  0  0  0  0  0  0  0  0  0
    8.7237  -18.4562   22.9593 C   0  0  0  0  0  0  0  0  0  0  0  0
    8.2271  -17.0854   22.6163 C   0  0  2  0  0  0  0  0  0  0  0  0
    8.6403  -16.7842   21.2606 N   0  0  0  0  0  0  0  0  0  0  0  0
    8.6440  -16.0288   23.5651 C   0  0  0  0  0  0  0  0  0  0  0  0
    9.8192  -15.6006   23.5022 O   0  0  0  0  0  0  0  0  0  0  0  0
    9.4990  -18.8933   25.2594 C   0  0  0  0  0  0  0  0  0  0  0  0
    9.2174  -19.2718   26.5543 C   0  0  0  0  0  0  0  0  0  0  0  0
    5.7346  -12.1966   27.3952 C   0  0  0  0  0  0  0  0  0  0  0  0
    7.1173  -12.6494   26.9161 C   0  0  2  0  0  0  0  0  0  0  0  0
    7.8642  -11.4555   26.4400 C   0  0  0  0  0  0  0  0  0  0  0  0
    6.9251  -13.7069   25.8675 C   0  0  0  0  0  0  0  0  0  0  0  0
    8.1786  -14.3922   25.4460 C   0  0  2  0  0  0  0  0  0  0  0  0
    7.7698  -15.4801   24.5428 N   0  0  0  0  0  0  0  0  0  0  0  0
    8.9619  -14.9677   26.5580 C   0  0  0  0  0  0  0  0  0  0  0  0
    8.5309  -16.0836   27.2595 O   0  0  0  0  0  0  0  0  0  0  0  0
   10.0581  -14.4564   26.9074 O   0  0  0  0  0  0  0  0  0  0  0  0
  1  2  1  0
  2  3  2  0
  4  2  1  0
  5  4  1  0
  5  6  1  6
  7  8  2  0
  7  5  1  0
  9 10  1  0
 10 20  2  0
 10 11  1  0
 11 12  2  0
 12 13  1  0
 13 14  1  0
 15 14  1  1
 15 16  1  0
 16  7  1  0
 17 15  1  0
 17 18  2  0
 19 13  2  0
 20 19  1  0
 22 23  1  6
 22 21  1  0
 24 22  1  0
 25 24  1  1
 25 26  1  0
 26 17  1  0
 27 25  1  0
 28 27  1  0
 29 27  2  0
M  END
$$$$
