NYL.pdb
     RDKit          3D

 29 29  0  0  1  0  0  0  0  0999 V2000
   13.4278  -18.6844   19.5252 N   0  0  0  0  0  0  0  0  0  0  0  0
   13.0622  -17.4953   18.8446 C   0  0  0  0  0  0  0  0  0  0  0  0
   13.7151  -17.1726   17.8167 O   0  0  0  0  0  0  0  0  0  0  0  0
   11.9330  -16.6486   19.3343 C   0  0  0  0  0  0  0  0  0  0  0  0
   11.4906  -17.1802   20.7003 C   0  0  2  0  0  0  0  0  0  0  0  0
   10.7655  -18.4003   20.5292 N   0  0  0  0  0  0  0  0  0  0  0  0
   10.7514  -16.1541   21.4551 C   0  0  0  0  0  0  0  0  0  0  0  0
   11.3986  -15.1191   21.7968 O   0  0  0  0  0  0  0  0  0  0  0  0
    7.5864  -13.6644   16.4573 O   0  0  0  0  0  0  0  0  0  0  0  0
    7.5372  -13.9897   17.8154 C   0  0  0  0  0  0  0  0  0  0  0  0
    7.8017  -12.9964   18.7330 C   0  0  0  0  0  0  0  0  0  0  0  0
    7.7506  -13.3281   20.0703 C   0  0  0  0  0  0  0  0  0  0  0  0
    7.4446  -14.6155   20.5095 C   0  0  0  0  0  0  0  0  0  0  0  0
    7.4093  -14.9361   21.9499 C   0  0  0  0  0  0  0  0  0  0  0  0
    8.7626  -15.1822   22.5426 C   0  0  2  0  0  0  0  0  0  0  0  0
    9.3838  -16.2664   21.8090 N   0  0  0  0  0  0  0  0  0  0  0  0
    8.7544  -15.4391   24.0001 C   0  0  0  0  0  0  0  0  0  0  0  0
    9.4791  -16.3571   24.4481 O   0  0  0  0  0  0  0  0  0  0  0  0
    7.1823  -15.5990   19.5852 C   0  0  0  0  0  0  0  0  0  0  0  0
    7.2342  -15.2644   18.2493 C   0  0  0  0  0  0  0  0  0  0  0  0
    8.6483  -12.2710   27.5440 C   0  0  0  0  0  0  0  0  0  0  0  0
    7.4324  -12.5867   26.6674 C   0  0  2  0  0  0  0  0  0  0  0  0
    6.3857  -11.5642   26.9294 C   0  0  0  0  0  0  0  0  0  0  0  0
    6.9977  -13.9937   26.9610 C   0  0  0  0  0  0  0  0  0  0  0  0
    7.8479  -15.0448   26.3358 C   0  0  2  0  0  0  0  0  0  0  0  0
    7.9610  -14.6903   24.9118 N   0  0  0  0  0  0  0  0  0  0  0  0
    7.3021  -16.4131   26.4424 C   0  0  0  0  0  0  0  0  0  0  0  0
    7.4657  -17.1820   27.5848 O   0  0  0  0  0  0  0  0  0  0  0  0
    6.6641  -16.9294   25.4877 O   0  0  0  0  0  0  0  0  0  0  0  0
  1  2  1  0
  2  3  2  0
  4  2  1  0
  5  4  1  0
  5  6  1  6
  7  8  2  0
  7  5  1  0
  9 10  1  0
 10 20  2  0
 10 11  1  0
 11 12  2  0
 12 13  1  0
 13 14  1  0
 15 14  1  6
 15 16  1  0
 16  7  1  0
 17 15  1  0
 17 18  2  0
 19 13  2  0
 20 19  1  0
 22 23  1  1
 22 21  1  0
 24 22  1  0
 25 24  1  1
 25 26  1  0
 26 17  1  0
 27 25  1  0
 28 27  1  0
 29 27  2  0
M  END
$$$$
