NYL.pdb
     RDKit          3D

 29 29  0  0  1  0  0  0  0  0999 V2000
    6.1993  -22.5745   24.5059 N   0  0  0  0  0  0  0  0  0  0  0  0
    5.7762  -22.2306   23.1970 C   0  0  0  0  0  0  0  0  0  0  0  0
    5.3023  -23.1406   22.4658 O   0  0  0  0  0  0  0  0  0  0  0  0
    5.8897  -20.8266   22.6992 C   0  0  0  0  0  0  0  0  0  0  0  0
    6.6251  -19.9993   23.7571 C   0  0  2  0  0  0  0  0  0  0  0  0
    5.7299  -19.6800   24.8250 N   0  0  0  0  0  0  0  0  0  0  0  0
    7.2710  -18.8209   23.1547 C   0  0  0  0  0  0  0  0  0  0  0  0
    8.3511  -19.0220   22.5224 O   0  0  0  0  0  0  0  0  0  0  0  0
    9.2020  -11.6537   18.7828 O   0  0  0  0  0  0  0  0  0  0  0  0
    8.5549  -12.6045   19.5763 C   0  0  0  0  0  0  0  0  0  0  0  0
    8.1110  -12.2195   20.8225 C   0  0  0  0  0  0  0  0  0  0  0  0
    7.4739  -13.1654   21.5973 C   0  0  0  0  0  0  0  0  0  0  0  0
    7.2710  -14.4743   21.1619 C   0  0  0  0  0  0  0  0  0  0  0  0
    6.5937  -15.4630   22.0236 C   0  0  0  0  0  0  0  0  0  0  0  0
    7.5341  -16.4108   22.7023 C   0  0  2  0  0  0  0  0  0  0  0  0
    6.7545  -17.5044   23.2462 N   0  0  0  0  0  0  0  0  0  0  0  0
    8.3958  -15.7859   23.7305 C   0  0  0  0  0  0  0  0  0  0  0  0
    9.4897  -15.2924   23.3724 O   0  0  0  0  0  0  0  0  0  0  0  0
    7.7180  -14.8477   19.9164 C   0  0  0  0  0  0  0  0  0  0  0  0
    8.3545  -13.9000   19.1444 C   0  0  0  0  0  0  0  0  0  0  0  0
    7.3290  -12.2829   25.9248 C   0  0  0  0  0  0  0  0  0  0  0  0
    6.8215  -13.6536   26.3829 C   0  0  2  0  0  0  0  0  0  0  0  0
    5.6385  -13.4481   27.2593 C   0  0  0  0  0  0  0  0  0  0  0  0
    7.9577  -14.3732   27.0507 C   0  0  0  0  0  0  0  0  0  0  0  0
    8.8844  -15.0666   26.1131 C   0  0  2  0  0  0  0  0  0  0  0  0
    8.0360  -15.7218   25.1045 N   0  0  0  0  0  0  0  0  0  0  0  0
    9.7419  -16.0878   26.7480 C   0  0  0  0  0  0  0  0  0  0  0  0
    9.7066  -17.4193   26.3622 O   0  0  0  0  0  0  0  0  0  0  0  0
   10.5407  -15.7769   27.6701 O   0  0  0  0  0  0  0  0  0  0  0  0
  1  2  1  0
  2  3  2  0
  4  2  1  0
  5  4  1  0
  5  6  1  1
  7  8  2  0
  7  5  1  0
  9 10  1  0
 10 20  2  0
 10 11  1  0
 11 12  2  0
 12 13  1  0
 13 14  1  0
 15 14  1  1
 15 16  1  0
 16  7  1  0
 17 15  1  0
 17 18  2  0
 19 13  2  0
 20 19  1  0
 22 23  1  1
 22 21  1  0
 24 22  1  0
 25 24  1  1
 25 26  1  0
 26 17  1  0
 27 25  1  0
 28 27  1  0
 29 27  2  0
M  END
$$$$
