EFP.pdb
     RDKit          3D

 28 29  0  0  1  0  0  0  0  0999 V2000
   11.0403  -16.2563   19.7488 N   0  0  0  0  0  0  0  0  0  0  0  0
   10.5481  -17.0672   20.8484 C   0  0  1  0  0  0  0  0  0  0  0  0
   11.5125  -18.2005   21.0655 C   0  0  0  0  0  0  0  0  0  0  0  0
   10.9727  -19.0408   22.2068 C   0  0  0  0  0  0  0  0  0  0  0  0
   11.4863  -20.4320   22.1430 C   0  0  0  0  0  0  0  0  0  0  0  0
   10.8100  -21.3048   21.5495 O   0  0  0  0  0  0  0  0  0  0  0  0
   10.4383  -16.1768   22.0299 C   0  0  0  0  0  0  0  0  0  0  0  0
   11.4407  -15.4787   22.3836 O   0  0  0  0  0  0  0  0  0  0  0  0
   12.6966  -20.7489   22.7347 O   0  0  0  0  0  0  0  0  0  0  0  0
    9.2685  -16.0573   22.7961 N   0  0  0  0  0  0  0  0  0  0  0  0
    9.1377  -15.1542   23.9657 C   0  0  1  0  0  0  0  0  0  0  0  0
    7.7389  -14.6220   23.8745 C   0  0  0  0  0  0  0  0  0  0  0  0
    7.2405  -13.7812   24.9349 C   0  0  0  0  0  0  0  0  0  0  0  0
    7.4886  -12.4178   24.8836 C   0  0  0  0  0  0  0  0  0  0  0  0
    7.0306  -11.5173   25.8188 C   0  0  0  0  0  0  0  0  0  0  0  0
    6.2808  -12.0083   26.8669 C   0  0  0  0  0  0  0  0  0  0  0  0
    6.0102  -13.3663   26.9547 C   0  0  0  0  0  0  0  0  0  0  0  0
    6.4786  -14.2454   26.0084 C   0  0  0  0  0  0  0  0  0  0  0  0
    9.2896  -16.0111   25.1511 C   0  0  0  0  0  0  0  0  0  0  0  0
    9.1526  -17.2848   25.0280 O   0  0  0  0  0  0  0  0  0  0  0  0
    9.5917  -15.5552   26.4591 N   0  0  0  0  0  0  0  0  0  0  0  0
    9.3134  -14.2656   27.0836 C   0  0  0  0  0  0  0  0  0  0  0  0
   10.5878  -13.9547   27.8680 C   0  0  0  0  0  0  0  0  0  0  0  0
   11.3476  -15.2461   27.8911 C   0  0  0  0  0  0  0  0  0  0  0  0
   10.3122  -16.2746   27.4975 C   0  0  1  0  0  0  0  0  0  0  0  0
    9.5134  -16.6365   28.6640 C   0  0  0  0  0  0  0  0  0  0  0  0
    8.2960  -16.3852   28.8212 O   0  0  0  0  0  0  0  0  0  0  0  0
   10.1854  -17.3287   29.6942 O   0  0  0  0  0  0  0  0  0  0  0  0
  2  1  1  6
  2  7  1  0
  2  3  1  0
  3  4  1  0
  5  4  1  0
  6  5  2  0
  7  8  2  0
  9  5  1  0
 10 11  1  0
 10  7  1  0
 11 12  1  1
 12 13  1  0
 13 18  1  0
 14 13  2  0
 14 15  1  0
 15 16  2  0
 16 17  1  0
 18 17  2  0
 19 20  2  0
 19 11  1  0
 21 19  1  0
 22 21  1  0
 23 24  1  0
 23 22  1  0
 24 25  1  0
 25 21  1  0
 25 26  1  1
 26 28  1  0
 27 26  2  0
M  END
$$$$
