EFP.pdb
     RDKit          3D

 28 29  0  0  1  0  0  0  0  0999 V2000
    9.5166  -18.1595   20.9325 N   0  0  0  0  0  0  0  0  0  0  0  0
   10.8411  -17.8242   21.4243 C   0  0  1  0  0  0  0  0  0  0  0  0
   11.7006  -17.4551   20.2468 C   0  0  0  0  0  0  0  0  0  0  0  0
   13.1176  -17.2808   20.7585 C   0  0  0  0  0  0  0  0  0  0  0  0
   14.1057  -17.3727   19.6546 C   0  0  0  0  0  0  0  0  0  0  0  0
   15.3267  -17.4283   19.9324 O   0  0  0  0  0  0  0  0  0  0  0  0
   10.6778  -16.7054   22.3848 C   0  0  0  0  0  0  0  0  0  0  0  0
   11.6837  -15.9894   22.6894 O   0  0  0  0  0  0  0  0  0  0  0  0
   13.6722  -17.3958   18.3404 O   0  0  0  0  0  0  0  0  0  0  0  0
    9.4526  -16.3842   22.9894 N   0  0  0  0  0  0  0  0  0  0  0  0
    9.3100  -15.4026   24.0925 C   0  0  1  0  0  0  0  0  0  0  0  0
    7.8984  -14.9103   23.9767 C   0  0  0  0  0  0  0  0  0  0  0  0
    7.4427  -13.8776   24.8743 C   0  0  0  0  0  0  0  0  0  0  0  0
    6.6723  -14.2333   25.9711 C   0  0  0  0  0  0  0  0  0  0  0  0
    6.2148  -13.3384   26.9119 C   0  0  0  0  0  0  0  0  0  0  0  0
    6.5466  -12.0101   26.7469 C   0  0  0  0  0  0  0  0  0  0  0  0
    7.3159  -11.6131   25.6626 C   0  0  0  0  0  0  0  0  0  0  0  0
    7.7608  -12.5255   24.7366 C   0  0  0  0  0  0  0  0  0  0  0  0
    9.4912  -16.1685   25.3347 C   0  0  0  0  0  0  0  0  0  0  0  0
    9.4962  -17.4545   25.2856 O   0  0  0  0  0  0  0  0  0  0  0  0
    9.6764  -15.6081   26.6238 N   0  0  0  0  0  0  0  0  0  0  0  0
    9.1673  -14.3574   27.1778 C   0  0  0  0  0  0  0  0  0  0  0  0
   10.3492  -13.7983   27.9694 C   0  0  0  0  0  0  0  0  0  0  0  0
   11.3156  -14.9390   28.0713 C   0  0  0  0  0  0  0  0  0  0  0  0
   10.4801  -16.1459   27.7101 C   0  0  1  0  0  0  0  0  0  0  0  0
    9.7229  -16.5844   28.8780 C   0  0  0  0  0  0  0  0  0  0  0  0
   10.2149  -16.9694   29.9642 O   0  0  0  0  0  0  0  0  0  0  0  0
    8.3169  -16.5674   28.7568 O   0  0  0  0  0  0  0  0  0  0  0  0
  2  1  1  6
  2  7  1  0
  2  3  1  0
  3  4  1  0
  5  4  1  0
  6  5  2  0
  7  8  2  0
  9  5  1  0
 10 11  1  0
 10  7  1  0
 11 12  1  1
 12 13  1  0
 13 18  1  0
 14 13  2  0
 14 15  1  0
 15 16  2  0
 16 17  1  0
 18 17  2  0
 19 20  2  0
 19 11  1  0
 21 19  1  0
 22 21  1  0
 23 24  1  0
 23 22  1  0
 24 25  1  0
 25 21  1  0
 25 26  1  1
 26 28  1  0
 27 26  2  0
M  END
$$$$
