EFP.pdb
     RDKit          3D

 28 29  0  0  1  0  0  0  0  0999 V2000
   10.7843  -16.2896   19.8294 N   0  0  0  0  0  0  0  0  0  0  0  0
   11.0554  -16.9844   21.0754 C   0  0  1  0  0  0  0  0  0  0  0  0
   12.4841  -17.4531   21.0515 C   0  0  0  0  0  0  0  0  0  0  0  0
   12.4622  -18.9694   21.0404 C   0  0  0  0  0  0  0  0  0  0  0  0
   13.8364  -19.5297   21.0725 C   0  0  0  0  0  0  0  0  0  0  0  0
   14.8141  -18.7455   21.0940 O   0  0  0  0  0  0  0  0  0  0  0  0
   10.7876  -16.0252   22.1751 C   0  0  0  0  0  0  0  0  0  0  0  0
   11.5668  -15.0347   22.3460 O   0  0  0  0  0  0  0  0  0  0  0  0
   14.0227  -20.9011   21.0783 O   0  0  0  0  0  0  0  0  0  0  0  0
    9.7022  -16.1496   23.0561 N   0  0  0  0  0  0  0  0  0  0  0  0
    9.4318  -15.2071   24.1693 C   0  0  1  0  0  0  0  0  0  0  0  0
    8.0151  -14.7662   23.9522 C   0  0  0  0  0  0  0  0  0  0  0  0
    7.4088  -13.8688   24.9044 C   0  0  0  0  0  0  0  0  0  0  0  0
    6.5988  -14.3937   25.9001 C   0  0  0  0  0  0  0  0  0  0  0  0
    5.9999  -13.6374   26.8822 C   0  0  0  0  0  0  0  0  0  0  0  0
    6.2237  -12.2767   26.8685 C   0  0  0  0  0  0  0  0  0  0  0  0
    7.0281  -11.7122   25.8890 C   0  0  0  0  0  0  0  0  0  0  0  0
    7.6150  -12.4883   24.9190 C   0  0  0  0  0  0  0  0  0  0  0  0
    9.5440  -16.0016   25.4016 C   0  0  0  0  0  0  0  0  0  0  0  0
    9.4216  -17.2811   25.3382 O   0  0  0  0  0  0  0  0  0  0  0  0
    9.7914  -15.4774   26.6954 N   0  0  0  0  0  0  0  0  0  0  0  0
    9.4266  -14.1823   27.2612 C   0  0  0  0  0  0  0  0  0  0  0  0
   10.6641  -13.7672   28.0565 C   0  0  0  0  0  0  0  0  0  0  0  0
   11.4957  -15.0105   28.1469 C   0  0  0  0  0  0  0  0  0  0  0  0
   10.5294  -16.1121   27.7760 C   0  0  1  0  0  0  0  0  0  0  0  0
    9.7278  -16.4730   28.9407 C   0  0  0  0  0  0  0  0  0  0  0  0
    8.4877  -16.3281   29.0465 O   0  0  0  0  0  0  0  0  0  0  0  0
   10.4249  -17.0322   30.0332 O   0  0  0  0  0  0  0  0  0  0  0  0
  2  1  1  6
  2  7  1  0
  2  3  1  0
  3  4  1  0
  5  4  1  0
  6  5  2  0
  7  8  2  0
  9  5  1  0
 10 11  1  0
 10  7  1  0
 11 12  1  6
 12 13  1  0
 13 18  1  0
 14 13  2  0
 14 15  1  0
 15 16  2  0
 16 17  1  0
 18 17  2  0
 19 20  2  0
 19 11  1  0
 21 19  1  0
 22 21  1  0
 23 24  1  0
 23 22  1  0
 24 25  1  0
 25 21  1  0
 25 26  1  1
 26 28  1  0
 27 26  2  0
M  END
$$$$
