EFP.pdb
     RDKit          3D

 28 29  0  0  1  0  0  0  0  0999 V2000
    9.6659  -16.7793   19.3851 N   0  0  0  0  0  0  0  0  0  0  0  0
    8.9589  -17.3709   20.5071 C   0  0  1  0  0  0  0  0  0  0  0  0
    9.4474  -18.7827   20.6795 C   0  0  0  0  0  0  0  0  0  0  0  0
   10.9609  -18.7305   20.7607 C   0  0  0  0  0  0  0  0  0  0  0  0
   11.5385  -20.0844   20.9523 C   0  0  0  0  0  0  0  0  0  0  0  0
   12.2731  -20.2989   21.9450 O   0  0  0  0  0  0  0  0  0  0  0  0
    9.2363  -16.5222   21.6919 C   0  0  0  0  0  0  0  0  0  0  0  0
   10.3789  -15.9787   21.8195 O   0  0  0  0  0  0  0  0  0  0  0  0
   11.2622  -21.0881   20.0402 O   0  0  0  0  0  0  0  0  0  0  0  0
    8.2918  -16.2790   22.7012 N   0  0  0  0  0  0  0  0  0  0  0  0
    8.5271  -15.3685   23.8485 C   0  0  1  0  0  0  0  0  0  0  0  0
    7.1902  -14.7424   24.1113 C   0  0  0  0  0  0  0  0  0  0  0  0
    7.0427  -13.8580   25.2408 C   0  0  0  0  0  0  0  0  0  0  0  0
    7.2757  -12.5021   25.0668 C   0  0  0  0  0  0  0  0  0  0  0  0
    7.1294  -11.5630   26.0627 C   0  0  0  0  0  0  0  0  0  0  0  0
    6.7265  -12.0048   27.3054 C   0  0  0  0  0  0  0  0  0  0  0  0
    6.4830  -13.3537   27.5207 C   0  0  0  0  0  0  0  0  0  0  0  0
    6.6361  -14.2721   26.5103 C   0  0  0  0  0  0  0  0  0  0  0  0
    8.9237  -16.2332   24.9699 C   0  0  0  0  0  0  0  0  0  0  0  0
    8.6219  -17.4838   24.9370 O   0  0  0  0  0  0  0  0  0  0  0  0
    9.6385  -15.8097   26.1187 N   0  0  0  0  0  0  0  0  0  0  0  0
    9.8198  -14.4666   26.6606 C   0  0  0  0  0  0  0  0  0  0  0  0
   11.2867  -14.4382   27.0888 C   0  0  0  0  0  0  0  0  0  0  0  0
   11.7216  -15.8719   27.0602 C   0  0  0  0  0  0  0  0  0  0  0  0
   10.4189  -16.6378   27.0246 C   0  0  1  0  0  0  0  0  0  0  0  0
    9.8796  -16.7498   28.3759 C   0  0  0  0  0  0  0  0  0  0  0  0
   10.4542  -17.2925   29.3482 O   0  0  0  0  0  0  0  0  0  0  0  0
    8.5999  -16.1940   28.5888 O   0  0  0  0  0  0  0  0  0  0  0  0
  2  1  1  6
  2  7  1  0
  2  3  1  0
  3  4  1  0
  5  4  1  0
  6  5  2  0
  7  8  2  0
  9  5  1  0
 10 11  1  0
 10  7  1  0
 11 12  1  1
 12 13  1  0
 13 18  1  0
 14 13  2  0
 14 15  1  0
 15 16  2  0
 16 17  1  0
 18 17  2  0
 19 20  2  0
 19 11  1  0
 21 19  1  0
 22 21  1  0
 23 24  1  0
 23 22  1  0
 24 25  1  0
 25 21  1  0
 25 26  1  1
 26 28  1  0
 27 26  2  0
M  END
$$$$
