EFP.pdb
     RDKit          3D

 28 29  0  0  1  0  0  0  0  0999 V2000
   11.1086  -16.5345   19.8637 N   0  0  0  0  0  0  0  0  0  0  0  0
   10.3198  -17.1550   20.9133 C   0  0  1  0  0  0  0  0  0  0  0  0
   10.9779  -18.4533   21.2913 C   0  0  0  0  0  0  0  0  0  0  0  0
   10.8868  -19.3730   20.0888 C   0  0  0  0  0  0  0  0  0  0  0  0
   11.4724  -20.7051   20.3822 C   0  0  0  0  0  0  0  0  0  0  0  0
   12.6229  -20.9712   19.9617 O   0  0  0  0  0  0  0  0  0  0  0  0
   10.2645  -16.1934   22.0416 C   0  0  0  0  0  0  0  0  0  0  0  0
   11.2951  -15.5066   22.3304 O   0  0  0  0  0  0  0  0  0  0  0  0
   10.7480  -21.6322   21.1111 O   0  0  0  0  0  0  0  0  0  0  0  0
    9.1175  -15.9931   22.8252 N   0  0  0  0  0  0  0  0  0  0  0  0
    9.0643  -15.0752   23.9894 C   0  0  1  0  0  0  0  0  0  0  0  0
    7.6973  -14.4626   23.9223 C   0  0  0  0  0  0  0  0  0  0  0  0
    7.2835  -13.5609   24.9690 C   0  0  0  0  0  0  0  0  0  0  0  0
    6.5450  -14.0595   26.0315 C   0  0  0  0  0  0  0  0  0  0  0  0
    6.1291  -13.3002   27.1020 C   0  0  0  0  0  0  0  0  0  0  0  0
    6.4715  -11.9643   27.1111 C   0  0  0  0  0  0  0  0  0  0  0  0
    7.2098  -11.4267   26.0667 C   0  0  0  0  0  0  0  0  0  0  0  0
    7.6134  -12.2052   25.0089 C   0  0  0  0  0  0  0  0  0  0  0  0
    9.1909  -15.9306   25.1787 C   0  0  0  0  0  0  0  0  0  0  0  0
    8.9706  -17.1940   25.0710 O   0  0  0  0  0  0  0  0  0  0  0  0
    9.5533  -15.4845   26.4748 N   0  0  0  0  0  0  0  0  0  0  0  0
    9.3052  -14.1994   27.1208 C   0  0  0  0  0  0  0  0  0  0  0  0
   10.6148  -13.8949   27.8478 C   0  0  0  0  0  0  0  0  0  0  0  0
   11.3737  -15.1869   27.8265 C   0  0  0  0  0  0  0  0  0  0  0  0
   10.3204  -16.2120   27.4735 C   0  0  1  0  0  0  0  0  0  0  0  0
    9.5759  -16.5820   28.6729 C   0  0  0  0  0  0  0  0  0  0  0  0
   10.0706  -17.0592   29.7206 O   0  0  0  0  0  0  0  0  0  0  0  0
    8.1799  -16.3785   28.6325 O   0  0  0  0  0  0  0  0  0  0  0  0
  2  1  1  6
  2  7  1  0
  2  3  1  0
  3  4  1  0
  5  4  1  0
  6  5  2  0
  7  8  2  0
  9  5  1  0
 10 11  1  0
 10  7  1  0
 11 12  1  1
 12 13  1  0
 13 18  1  0
 14 13  2  0
 14 15  1  0
 15 16  2  0
 16 17  1  0
 18 17  2  0
 19 20  2  0
 19 11  1  0
 21 19  1  0
 22 21  1  0
 23 24  1  0
 23 22  1  0
 24 25  1  0
 25 21  1  0
 25 26  1  1
 26 28  1  0
 27 26  2  0
M  END
$$$$
