EFP.pdb
     RDKit          3D

 28 29  0  0  1  0  0  0  0  0999 V2000
   10.3969  -16.3147   19.8241 N   0  0  0  0  0  0  0  0  0  0  0  0
   10.6403  -17.0503   21.0523 C   0  0  1  0  0  0  0  0  0  0  0  0
   12.0217  -17.6403   20.9815 C   0  0  0  0  0  0  0  0  0  0  0  0
   11.8832  -19.1389   21.1689 C   0  0  0  0  0  0  0  0  0  0  0  0
   12.8645  -19.8801   20.3376 C   0  0  0  0  0  0  0  0  0  0  0  0
   13.5548  -20.7819   20.8682 O   0  0  0  0  0  0  0  0  0  0  0  0
   10.4868  -16.0893   22.1721 C   0  0  0  0  0  0  0  0  0  0  0  0
   11.4202  -15.2620   22.4200 O   0  0  0  0  0  0  0  0  0  0  0  0
   13.0062  -19.5705   18.9962 O   0  0  0  0  0  0  0  0  0  0  0  0
    9.3479  -16.0389   22.9909 N   0  0  0  0  0  0  0  0  0  0  0  0
    9.1951  -15.1059   24.1340 C   0  0  1  0  0  0  0  0  0  0  0  0
    7.8031  -14.5664   23.9948 C   0  0  0  0  0  0  0  0  0  0  0  0
    7.2769  -13.7141   25.0324 C   0  0  0  0  0  0  0  0  0  0  0  0
    7.5695  -12.3590   25.0008 C   0  0  0  0  0  0  0  0  0  0  0  0
    7.0920  -11.4478   25.9157 C   0  0  0  0  0  0  0  0  0  0  0  0
    6.2741  -11.9187   26.9213 C   0  0  0  0  0  0  0  0  0  0  0  0
    5.9573  -13.2678   26.9881 C   0  0  0  0  0  0  0  0  0  0  0  0
    6.4464  -14.1579   26.0628 C   0  0  0  0  0  0  0  0  0  0  0  0
    9.3113  -15.9339   25.3438 C   0  0  0  0  0  0  0  0  0  0  0  0
    9.1281  -17.2047   25.2560 O   0  0  0  0  0  0  0  0  0  0  0  0
    9.6251  -15.4524   26.6398 N   0  0  0  0  0  0  0  0  0  0  0  0
    9.2454  -14.1996   27.2855 C   0  0  0  0  0  0  0  0  0  0  0  0
   10.5161  -13.7615   28.0130 C   0  0  0  0  0  0  0  0  0  0  0  0
   11.4044  -14.9682   27.9923 C   0  0  0  0  0  0  0  0  0  0  0  0
   10.4627  -16.0966   27.6391 C   0  0  1  0  0  0  0  0  0  0  0  0
    9.7599  -16.5413   28.8383 C   0  0  0  0  0  0  0  0  0  0  0  0
   10.2980  -17.0138   29.8665 O   0  0  0  0  0  0  0  0  0  0  0  0
    8.3537  -16.4219   28.8219 O   0  0  0  0  0  0  0  0  0  0  0  0
  2  1  1  6
  2  7  1  0
  2  3  1  0
  3  4  1  0
  5  4  1  0
  6  5  2  0
  7  8  2  0
  9  5  1  0
 10 11  1  0
 10  7  1  0
 11 12  1  6
 12 13  1  0
 13 18  1  0
 14 13  2  0
 14 15  1  0
 15 16  2  0
 16 17  1  0
 18 17  2  0
 19 20  2  0
 19 11  1  0
 21 19  1  0
 22 21  1  0
 23 24  1  0
 23 22  1  0
 24 25  1  0
 25 21  1  0
 25 26  1  1
 26 28  1  0
 27 26  2  0
M  END
$$$$
