EFP.pdb
     RDKit          3D

 28 29  0  0  1  0  0  0  0  0999 V2000
   11.7078  -16.6717   20.1756 N   0  0  0  0  0  0  0  0  0  0  0  0
   10.6723  -17.2067   21.0418 C   0  0  1  0  0  0  0  0  0  0  0  0
   11.0858  -18.5870   21.4723 C   0  0  0  0  0  0  0  0  0  0  0  0
   12.5716  -18.7196   21.1986 C   0  0  0  0  0  0  0  0  0  0  0  0
   13.0683  -20.0717   21.5572 C   0  0  0  0  0  0  0  0  0  0  0  0
   14.0166  -20.1769   22.3701 O   0  0  0  0  0  0  0  0  0  0  0  0
   10.5342  -16.2700   22.1840 C   0  0  0  0  0  0  0  0  0  0  0  0
   11.5562  -15.6415   22.6058 O   0  0  0  0  0  0  0  0  0  0  0  0
   12.4839  -21.1933   20.9950 O   0  0  0  0  0  0  0  0  0  0  0  0
    9.3164  -16.0318   22.8397 N   0  0  0  0  0  0  0  0  0  0  0  0
    9.1676  -15.1116   23.9937 C   0  0  1  0  0  0  0  0  0  0  0  0
    7.7643  -14.5950   23.8834 C   0  0  0  0  0  0  0  0  0  0  0  0
    7.2888  -13.6493   24.8629 C   0  0  0  0  0  0  0  0  0  0  0  0
    6.5454  -14.1127   25.9379 C   0  0  0  0  0  0  0  0  0  0  0  0
    6.0730  -13.3078   26.9499 C   0  0  0  0  0  0  0  0  0  0  0  0
    6.3605  -11.9607   26.8837 C   0  0  0  0  0  0  0  0  0  0  0  0
    7.1017  -11.4571   25.8244 C   0  0  0  0  0  0  0  0  0  0  0  0
    7.5622  -12.2810   24.8260 C   0  0  0  0  0  0  0  0  0  0  0  0
    9.3188  -15.9481   25.1937 C   0  0  0  0  0  0  0  0  0  0  0  0
    9.2730  -17.2289   25.0774 O   0  0  0  0  0  0  0  0  0  0  0  0
    9.5264  -15.4637   26.5099 N   0  0  0  0  0  0  0  0  0  0  0  0
    9.1079  -14.2033   27.1155 C   0  0  0  0  0  0  0  0  0  0  0  0
   10.3169  -13.7762   27.9473 C   0  0  0  0  0  0  0  0  0  0  0  0
   11.1892  -14.9932   28.0077 C   0  0  0  0  0  0  0  0  0  0  0  0
   10.2677  -16.1124   27.5799 C   0  0  1  0  0  0  0  0  0  0  0  0
    9.4596  -16.5428   28.7163 C   0  0  0  0  0  0  0  0  0  0  0  0
    9.8854  -16.7564   29.8752 O   0  0  0  0  0  0  0  0  0  0  0  0
    8.0822  -16.7297   28.4717 O   0  0  0  0  0  0  0  0  0  0  0  0
  2  1  1  6
  2  7  1  0
  2  3  1  0
  3  4  1  0
  5  4  1  0
  6  5  2  0
  7  8  2  0
  9  5  1  0
 10 11  1  0
 10  7  1  0
 11 12  1  1
 12 13  1  0
 13 18  1  0
 14 13  2  0
 14 15  1  0
 15 16  2  0
 16 17  1  0
 18 17  2  0
 19 20  2  0
 19 11  1  0
 21 19  1  0
 22 21  1  0
 23 24  1  0
 23 22  1  0
 24 25  1  0
 25 21  1  0
 25 26  1  1
 26 28  1  0
 27 26  2  0
M  END
$$$$
