EFP.pdb
     RDKit          3D

 28 29  0  0  1  0  0  0  0  0999 V2000
   10.7280  -16.3511   19.7605 N   0  0  0  0  0  0  0  0  0  0  0  0
   10.4813  -17.1042   20.9773 C   0  0  1  0  0  0  0  0  0  0  0  0
   11.6462  -18.0281   21.2031 C   0  0  0  0  0  0  0  0  0  0  0  0
   11.6876  -18.9965   20.0367 C   0  0  0  0  0  0  0  0  0  0  0  0
   13.0447  -19.5715   19.8600 C   0  0  0  0  0  0  0  0  0  0  0  0
   13.2240  -20.4542   18.9883 O   0  0  0  0  0  0  0  0  0  0  0  0
   10.3145  -16.1177   22.0728 C   0  0  0  0  0  0  0  0  0  0  0  0
   11.1429  -15.1592   22.1841 O   0  0  0  0  0  0  0  0  0  0  0  0
   14.0897  -19.1307   20.6532 O   0  0  0  0  0  0  0  0  0  0  0  0
    9.2744  -16.1818   23.0130 N   0  0  0  0  0  0  0  0  0  0  0  0
    9.1318  -15.2398   24.1501 C   0  0  1  0  0  0  0  0  0  0  0  0
    7.7075  -14.7769   24.0777 C   0  0  0  0  0  0  0  0  0  0  0  0
    7.2224  -13.8505   25.0708 C   0  0  0  0  0  0  0  0  0  0  0  0
    6.5426  -14.3440   26.1740 C   0  0  0  0  0  0  0  0  0  0  0  0
    6.0688  -13.5577   27.2000 C   0  0  0  0  0  0  0  0  0  0  0  0
    6.2873  -12.1985   27.1186 C   0  0  0  0  0  0  0  0  0  0  0  0
    6.9636  -11.6649   26.0309 C   0  0  0  0  0  0  0  0  0  0  0  0
    7.4270  -12.4707   25.0190 C   0  0  0  0  0  0  0  0  0  0  0  0
    9.3552  -16.0409   25.3629 C   0  0  0  0  0  0  0  0  0  0  0  0
    9.2556  -17.3223   25.2973 O   0  0  0  0  0  0  0  0  0  0  0  0
    9.6899  -15.5211   26.6387 N   0  0  0  0  0  0  0  0  0  0  0  0
    9.4047  -14.2107   27.2148 C   0  0  0  0  0  0  0  0  0  0  0  0
   10.6971  -13.8397   27.9416 C   0  0  0  0  0  0  0  0  0  0  0  0
   11.4847  -15.1135   27.9960 C   0  0  0  0  0  0  0  0  0  0  0  0
   10.4592  -16.1790   27.6830 C   0  0  1  0  0  0  0  0  0  0  0  0
    9.7068  -16.5042   28.8904 C   0  0  0  0  0  0  0  0  0  0  0  0
    8.4845  -16.2930   29.0676 O   0  0  0  0  0  0  0  0  0  0  0  0
   10.4335  -17.1079   29.9389 O   0  0  0  0  0  0  0  0  0  0  0  0
  2  1  1  6
  2  7  1  0
  2  3  1  0
  3  4  1  0
  5  4  1  0
  6  5  2  0
  7  8  2  0
  9  5  1  0
 10 11  1  0
 10  7  1  0
 11 12  1  1
 12 13  1  0
 13 18  1  0
 14 13  2  0
 14 15  1  0
 15 16  2  0
 16 17  1  0
 18 17  2  0
 19 20  2  0
 19 11  1  0
 21 19  1  0
 22 21  1  0
 23 24  1  0
 23 22  1  0
 24 25  1  0
 25 21  1  0
 25 26  1  1
 26 28  1  0
 27 26  2  0
M  END
$$$$
