EFP.pdb
     RDKit          3D

 28 29  0  0  1  0  0  0  0  0999 V2000
    8.0873  -18.4335   20.0778 N   0  0  0  0  0  0  0  0  0  0  0  0
    7.7713  -18.7167   21.4665 C   0  0  1  0  0  0  0  0  0  0  0  0
    8.4206  -20.0207   21.8402 C   0  0  0  0  0  0  0  0  0  0  0  0
    8.2784  -20.9531   20.6526 C   0  0  0  0  0  0  0  0  0  0  0  0
    9.5195  -21.7361   20.4292 C   0  0  0  0  0  0  0  0  0  0  0  0
    9.9944  -21.8086   19.2713 O   0  0  0  0  0  0  0  0  0  0  0  0
    8.2778  -17.5763   22.2689 C   0  0  0  0  0  0  0  0  0  0  0  0
    9.4385  -17.1124   22.0351 O   0  0  0  0  0  0  0  0  0  0  0  0
   10.1348  -22.3730   21.4928 O   0  0  0  0  0  0  0  0  0  0  0  0
    7.5353  -16.9667   23.2922 N   0  0  0  0  0  0  0  0  0  0  0  0
    8.0549  -15.8719   24.1477 C   0  0  1  0  0  0  0  0  0  0  0  0
    6.8388  -15.0788   24.5223 C   0  0  0  0  0  0  0  0  0  0  0  0
    6.9973  -13.8992   25.3367 C   0  0  0  0  0  0  0  0  0  0  0  0
    6.0878  -13.6597   26.3558 C   0  0  0  0  0  0  0  0  0  0  0  0
    6.1627  -12.5882   27.2169 C   0  0  0  0  0  0  0  0  0  0  0  0
    7.2079  -11.7043   27.0499 C   0  0  0  0  0  0  0  0  0  0  0  0
    8.1394  -11.9083   26.0420 C   0  0  0  0  0  0  0  0  0  0  0  0
    8.0431  -12.9857   25.1948 C   0  0  0  0  0  0  0  0  0  0  0  0
    8.6301  -16.5284   25.3312 C   0  0  0  0  0  0  0  0  0  0  0  0
    8.1150  -17.6302   25.7518 O   0  0  0  0  0  0  0  0  0  0  0  0
    9.7407  -16.0535   26.0736 N   0  0  0  0  0  0  0  0  0  0  0  0
   10.3989  -14.7513   26.0351 C   0  0  0  0  0  0  0  0  0  0  0  0
   11.8872  -15.0895   26.1164 C   0  0  0  0  0  0  0  0  0  0  0  0
   11.9305  -16.5293   26.5294 C   0  0  0  0  0  0  0  0  0  0  0  0
   10.5335  -16.7941   27.0422 C   0  0  1  0  0  0  0  0  0  0  0  0
   10.4201  -16.3244   28.4192 C   0  0  0  0  0  0  0  0  0  0  0  0
   10.9975  -16.8267   29.4114 O   0  0  0  0  0  0  0  0  0  0  0  0
    9.5844  -15.2076   28.6344 O   0  0  0  0  0  0  0  0  0  0  0  0
  2  1  1  6
  2  7  1  0
  2  3  1  0
  3  4  1  0
  5  4  1  0
  6  5  2  0
  7  8  2  0
  9  5  1  0
 10 11  1  0
 10  7  1  0
 11 12  1  1
 12 13  1  0
 13 18  1  0
 14 13  2  0
 14 15  1  0
 15 16  2  0
 16 17  1  0
 18 17  2  0
 19 20  2  0
 19 11  1  0
 21 19  1  0
 22 21  1  0
 23 24  1  0
 23 22  1  0
 24 25  1  0
 25 21  1  0
 25 26  1  1
 26 28  1  0
 27 26  2  0
M  END
$$$$
