EFP.pdb
     RDKit          3D

 28 29  0  0  1  0  0  0  0  0999 V2000
    9.9400  -17.1828   19.9418 N   0  0  0  0  0  0  0  0  0  0  0  0
   10.7341  -17.5616   21.0971 C   0  0  1  0  0  0  0  0  0  0  0  0
   12.1655  -17.7028   20.6583 C   0  0  0  0  0  0  0  0  0  0  0  0
   12.1683  -18.5215   19.3817 C   0  0  0  0  0  0  0  0  0  0  0  0
   13.4372  -18.3477   18.6314 C   0  0  0  0  0  0  0  0  0  0  0  0
   14.5266  -18.4969   19.2332 O   0  0  0  0  0  0  0  0  0  0  0  0
   10.5518  -16.4998   22.1170 C   0  0  0  0  0  0  0  0  0  0  0  0
   11.4780  -15.6497   22.3087 O   0  0  0  0  0  0  0  0  0  0  0  0
   13.4049  -18.0255   17.2858 O   0  0  0  0  0  0  0  0  0  0  0  0
    9.3928  -16.3759   22.8988 N   0  0  0  0  0  0  0  0  0  0  0  0
    9.2556  -15.4186   24.0237 C   0  0  1  0  0  0  0  0  0  0  0  0
    7.8574  -14.8914   23.8996 C   0  0  0  0  0  0  0  0  0  0  0  0
    7.3579  -13.9909   24.9093 C   0  0  0  0  0  0  0  0  0  0  0  0
    7.6353  -12.6368   24.7979 C   0  0  0  0  0  0  0  0  0  0  0  0
    7.1796  -11.6836   25.6805 C   0  0  0  0  0  0  0  0  0  0  0  0
    6.4011  -12.1086   26.7365 C   0  0  0  0  0  0  0  0  0  0  0  0
    6.1007  -13.4552   26.8836 C   0  0  0  0  0  0  0  0  0  0  0  0
    6.5675  -14.3878   25.9892 C   0  0  0  0  0  0  0  0  0  0  0  0
    9.4007  -16.2187   25.2490 C   0  0  0  0  0  0  0  0  0  0  0  0
    9.3177  -17.5009   25.1764 O   0  0  0  0  0  0  0  0  0  0  0  0
    9.6404  -15.6969   26.5453 N   0  0  0  0  0  0  0  0  0  0  0  0
    9.2876  -14.3962   27.1059 C   0  0  0  0  0  0  0  0  0  0  0  0
   10.5215  -13.9982   27.9153 C   0  0  0  0  0  0  0  0  0  0  0  0
   11.3341  -15.2532   28.0164 C   0  0  0  0  0  0  0  0  0  0  0  0
   10.3566  -16.3411   27.6349 C   0  0  1  0  0  0  0  0  0  0  0  0
    9.5363  -16.6896   28.7905 C   0  0  0  0  0  0  0  0  0  0  0  0
    8.3030  -16.4944   28.8954 O   0  0  0  0  0  0  0  0  0  0  0  0
   10.2052  -17.2979   29.8742 O   0  0  0  0  0  0  0  0  0  0  0  0
  2  1  1  6
  2  7  1  0
  2  3  1  0
  3  4  1  0
  5  4  1  0
  6  5  2  0
  7  8  2  0
  9  5  1  0
 10 11  1  0
 10  7  1  0
 11 12  1  1
 12 13  1  0
 13 18  1  0
 14 13  2  0
 14 15  1  0
 15 16  2  0
 16 17  1  0
 18 17  2  0
 19 20  2  0
 19 11  1  0
 21 19  1  0
 22 21  1  0
 23 24  1  0
 23 22  1  0
 24 25  1  0
 25 21  1  0
 25 26  1  1
 26 28  1  0
 27 26  2  0
M  END
$$$$
