EFP.pdb
     RDKit          3D

 28 29  0  0  1  0  0  0  0  0999 V2000
   11.4483  -16.7123   20.2075 N   0  0  0  0  0  0  0  0  0  0  0  0
   10.3124  -17.1380   21.0059 C   0  0  1  0  0  0  0  0  0  0  0  0
   10.5482  -18.5585   21.4394 C   0  0  0  0  0  0  0  0  0  0  0  0
   12.0417  -18.7275   21.6412 C   0  0  0  0  0  0  0  0  0  0  0  0
   12.3927  -20.1432   21.9172 C   0  0  0  0  0  0  0  0  0  0  0  0
   13.5960  -20.4512   22.0858 O   0  0  0  0  0  0  0  0  0  0  0  0
   10.2108  -16.2009   22.1516 C   0  0  0  0  0  0  0  0  0  0  0  0
   11.2507  -15.5904   22.5557 O   0  0  0  0  0  0  0  0  0  0  0  0
   11.3958  -21.1009   21.9850 O   0  0  0  0  0  0  0  0  0  0  0  0
    9.0092  -15.9435   22.8296 N   0  0  0  0  0  0  0  0  0  0  0  0
    8.9146  -15.1059   24.0503 C   0  0  1  0  0  0  0  0  0  0  0  0
    7.4709  -14.7068   24.1208 C   0  0  0  0  0  0  0  0  0  0  0  0
    7.0539  -13.7687   25.1336 C   0  0  0  0  0  0  0  0  0  0  0  0
    6.3487  -14.2363   26.2323 C   0  0  0  0  0  0  0  0  0  0  0  0
    5.9338  -13.4394   27.2754 C   0  0  0  0  0  0  0  0  0  0  0  0
    6.2416  -12.0965   27.2171 C   0  0  0  0  0  0  0  0  0  0  0  0
    6.9458  -11.5889   26.1347 C   0  0  0  0  0  0  0  0  0  0  0  0
    7.3492  -12.4048   25.1054 C   0  0  0  0  0  0  0  0  0  0  0  0
    9.2624  -15.9923   25.1709 C   0  0  0  0  0  0  0  0  0  0  0  0
    9.3018  -17.2640   24.9780 O   0  0  0  0  0  0  0  0  0  0  0  0
    9.5779  -15.5662   26.4858 N   0  0  0  0  0  0  0  0  0  0  0  0
    9.2233  -14.3292   27.1746 C   0  0  0  0  0  0  0  0  0  0  0  0
   10.4987  -13.9486   27.9260 C   0  0  0  0  0  0  0  0  0  0  0  0
   11.3582  -15.1747   27.8668 C   0  0  0  0  0  0  0  0  0  0  0  0
   10.3926  -16.2665   27.4662 C   0  0  1  0  0  0  0  0  0  0  0  0
    9.6705  -16.7377   28.6436 C   0  0  0  0  0  0  0  0  0  0  0  0
   10.1908  -17.2486   29.6626 O   0  0  0  0  0  0  0  0  0  0  0  0
    8.2663  -16.5987   28.6157 O   0  0  0  0  0  0  0  0  0  0  0  0
  2  1  1  6
  2  7  1  0
  2  3  1  0
  3  4  1  0
  5  4  1  0
  6  5  2  0
  7  8  2  0
  9  5  1  0
 10 11  1  0
 10  7  1  0
 11 12  1  1
 12 13  1  0
 13 18  1  0
 14 13  2  0
 14 15  1  0
 15 16  2  0
 16 17  1  0
 18 17  2  0
 19 20  2  0
 19 11  1  0
 21 19  1  0
 22 21  1  0
 23 24  1  0
 23 22  1  0
 24 25  1  0
 25 21  1  0
 25 26  1  1
 26 28  1  0
 27 26  2  0
M  END
$$$$
