EFP.pdb
     RDKit          3D

 28 29  0  0  1  0  0  0  0  0999 V2000
    3.9688  -20.1172   23.0884 N   0  0  0  0  0  0  0  0  0  0  0  0
    5.3756  -19.7771   22.9704 C   0  0  1  0  0  0  0  0  0  0  0  0
    5.8457  -20.1876   21.6022 C   0  0  0  0  0  0  0  0  0  0  0  0
    7.2040  -20.8414   21.7682 C   0  0  0  0  0  0  0  0  0  0  0  0
    7.7410  -21.3094   20.4659 C   0  0  0  0  0  0  0  0  0  0  0  0
    8.9754  -21.4904   20.3451 O   0  0  0  0  0  0  0  0  0  0  0  0
    5.4902  -18.3157   23.1987 C   0  0  0  0  0  0  0  0  0  0  0  0
    4.8640  -17.5118   22.4378 O   0  0  0  0  0  0  0  0  0  0  0  0
    6.8801  -21.5393   19.4068 O   0  0  0  0  0  0  0  0  0  0  0  0
    6.2654  -17.7568   24.2266 N   0  0  0  0  0  0  0  0  0  0  0  0
    6.5778  -16.3103   24.3302 C   0  0  1  0  0  0  0  0  0  0  0  0
    6.6900  -16.0551   25.8035 C   0  0  0  0  0  0  0  0  0  0  0  0
    6.8972  -14.7046   26.2649 C   0  0  0  0  0  0  0  0  0  0  0  0
    8.1942  -14.2327   26.3998 C   0  0  0  0  0  0  0  0  0  0  0  0
    8.5091  -12.9522   26.7954 C   0  0  0  0  0  0  0  0  0  0  0  0
    7.4667  -12.0929   27.0723 C   0  0  0  0  0  0  0  0  0  0  0  0
    6.1544  -12.5263   26.9495 C   0  0  0  0  0  0  0  0  0  0  0  0
    5.8654  -13.8096   26.5529 C   0  0  0  0  0  0  0  0  0  0  0  0
    7.8817  -16.1353   23.6733 C   0  0  0  0  0  0  0  0  0  0  0  0
    8.7188  -17.1127   23.6666 O   0  0  0  0  0  0  0  0  0  0  0  0
    8.3172  -14.9567   23.0165 N   0  0  0  0  0  0  0  0  0  0  0  0
    7.9042  -13.5713   23.2177 C   0  0  0  0  0  0  0  0  0  0  0  0
    7.8064  -13.0076   21.8003 C   0  0  0  0  0  0  0  0  0  0  0  0
    8.4931  -14.0218   20.9369 C   0  0  0  0  0  0  0  0  0  0  0  0
    9.2727  -14.8596   21.9244 C   0  0  1  0  0  0  0  0  0  0  0  0
   10.5235  -14.1859   22.2581 C   0  0  0  0  0  0  0  0  0  0  0  0
   11.4507  -13.9290   21.4554 O   0  0  0  0  0  0  0  0  0  0  0  0
   10.6866  -13.7968   23.6049 O   0  0  0  0  0  0  0  0  0  0  0  0
  2  1  1  6
  2  7  1  0
  2  3  1  0
  3  4  1  0
  5  4  1  0
  6  5  2  0
  7  8  2  0
  9  5  1  0
 10 11  1  0
 10  7  1  0
 11 12  1  1
 12 13  1  0
 13 18  1  0
 14 13  2  0
 14 15  1  0
 15 16  2  0
 16 17  1  0
 18 17  2  0
 19 20  2  0
 19 11  1  0
 21 19  1  0
 22 21  1  0
 23 24  1  0
 23 22  1  0
 24 25  1  0
 25 21  1  0
 25 26  1  1
 26 28  1  0
 27 26  2  0
M  END
$$$$
