EFP.pdb
     RDKit          3D

 28 29  0  0  1  0  0  0  0  0999 V2000
    9.5691  -17.0952   20.2158 N   0  0  0  0  0  0  0  0  0  0  0  0
   10.6687  -17.2409   21.1530 C   0  0  1  0  0  0  0  0  0  0  0  0
   11.9567  -17.0504   20.4005 C   0  0  0  0  0  0  0  0  0  0  0  0
   12.7555  -18.3320   20.5400 C   0  0  0  0  0  0  0  0  0  0  0  0
   13.6908  -18.5121   19.4015 C   0  0  0  0  0  0  0  0  0  0  0  0
   13.3042  -19.1412   18.3886 O   0  0  0  0  0  0  0  0  0  0  0  0
   10.4724  -16.2237   22.2150 C   0  0  0  0  0  0  0  0  0  0  0  0
   11.4102  -15.4073   22.4815 O   0  0  0  0  0  0  0  0  0  0  0  0
   14.9699  -17.9878   19.4695 O   0  0  0  0  0  0  0  0  0  0  0  0
    9.2874  -16.1074   22.9582 N   0  0  0  0  0  0  0  0  0  0  0  0
    9.1294  -15.2002   24.1211 C   0  0  1  0  0  0  0  0  0  0  0  0
    7.7146  -14.7125   24.0272 C   0  0  0  0  0  0  0  0  0  0  0  0
    7.1873  -13.8894   25.0876 C   0  0  0  0  0  0  0  0  0  0  0  0
    7.4115  -12.5215   25.0504 C   0  0  0  0  0  0  0  0  0  0  0  0
    6.9252  -11.6370   25.9866 C   0  0  0  0  0  0  0  0  0  0  0  0
    6.1705  -12.1498   27.0207 C   0  0  0  0  0  0  0  0  0  0  0  0
    5.9232  -13.5130   27.0940 C   0  0  0  0  0  0  0  0  0  0  0  0
    6.4197  -14.3759   26.1471 C   0  0  0  0  0  0  0  0  0  0  0  0
    9.3088  -16.0431   25.3127 C   0  0  0  0  0  0  0  0  0  0  0  0
    9.1876  -17.3197   25.2039 O   0  0  0  0  0  0  0  0  0  0  0  0
    9.6219  -15.5701   26.6120 N   0  0  0  0  0  0  0  0  0  0  0  0
    9.3537  -14.2705   27.2200 C   0  0  0  0  0  0  0  0  0  0  0  0
   10.6350  -13.9544   27.9911 C   0  0  0  0  0  0  0  0  0  0  0  0
   11.3891  -15.2489   28.0274 C   0  0  0  0  0  0  0  0  0  0  0  0
   10.3463  -16.2781   27.6556 C   0  0  1  0  0  0  0  0  0  0  0  0
    9.5540  -16.6198   28.8325 C   0  0  0  0  0  0  0  0  0  0  0  0
    8.3382  -16.3629   28.9934 O   0  0  0  0  0  0  0  0  0  0  0  0
   10.2307  -17.2974   29.8692 O   0  0  0  0  0  0  0  0  0  0  0  0
  2  1  1  6
  2  7  1  0
  2  3  1  0
  3  4  1  0
  5  4  1  0
  6  5  2  0
  7  8  2  0
  9  5  1  0
 10 11  1  0
 10  7  1  0
 11 12  1  1
 12 13  1  0
 13 18  1  0
 14 13  2  0
 14 15  1  0
 15 16  2  0
 16 17  1  0
 18 17  2  0
 19 20  2  0
 19 11  1  0
 21 19  1  0
 22 21  1  0
 23 24  1  0
 23 22  1  0
 24 25  1  0
 25 21  1  0
 25 26  1  1
 26 28  1  0
 27 26  2  0
M  END
$$$$
