EFP.pdb
     RDKit          3D

 28 29  0  0  1  0  0  0  0  0999 V2000
   11.0128  -16.5166   19.8468 N   0  0  0  0  0  0  0  0  0  0  0  0
   10.4564  -17.2464   20.9722 C   0  0  1  0  0  0  0  0  0  0  0  0
   11.3548  -18.4164   21.2645 C   0  0  0  0  0  0  0  0  0  0  0  0
   12.7449  -18.0508   20.7810 C   0  0  0  0  0  0  0  0  0  0  0  0
   13.6872  -19.1871   20.9366 C   0  0  0  0  0  0  0  0  0  0  0  0
   14.3623  -19.2796   21.9888 O   0  0  0  0  0  0  0  0  0  0  0  0
   10.3704  -16.2952   22.1074 C   0  0  0  0  0  0  0  0  0  0  0  0
   11.3874  -15.5980   22.4190 O   0  0  0  0  0  0  0  0  0  0  0  0
   13.8098  -20.1255   19.9266 O   0  0  0  0  0  0  0  0  0  0  0  0
    9.2082  -16.1159   22.8735 N   0  0  0  0  0  0  0  0  0  0  0  0
    9.1145  -15.1835   24.0235 C   0  0  1  0  0  0  0  0  0  0  0  0
    7.7223  -14.6319   23.9471 C   0  0  0  0  0  0  0  0  0  0  0  0
    7.2430  -13.7937   25.0183 C   0  0  0  0  0  0  0  0  0  0  0  0
    7.4913  -12.4304   24.9664 C   0  0  0  0  0  0  0  0  0  0  0  0
    7.0502  -11.5322   25.9120 C   0  0  0  0  0  0  0  0  0  0  0  0
    6.3181  -12.0254   26.9714 C   0  0  0  0  0  0  0  0  0  0  0  0
    6.0479  -13.3834   27.0600 C   0  0  0  0  0  0  0  0  0  0  0  0
    6.4992  -14.2603   26.1034 C   0  0  0  0  0  0  0  0  0  0  0  0
    9.2772  -16.0145   25.2258 C   0  0  0  0  0  0  0  0  0  0  0  0
    9.1678  -17.2929   25.1262 O   0  0  0  0  0  0  0  0  0  0  0  0
    9.5615  -15.5277   26.5266 N   0  0  0  0  0  0  0  0  0  0  0  0
    9.2807  -14.2215   27.1144 C   0  0  0  0  0  0  0  0  0  0  0  0
   10.5445  -13.8977   27.9106 C   0  0  0  0  0  0  0  0  0  0  0  0
   11.2967  -15.1920   27.9777 C   0  0  0  0  0  0  0  0  0  0  0  0
   10.2619  -16.2247   27.5937 C   0  0  1  0  0  0  0  0  0  0  0  0
    9.4432  -16.5533   28.7562 C   0  0  0  0  0  0  0  0  0  0  0  0
    8.2209  -16.3072   28.8810 O   0  0  0  0  0  0  0  0  0  0  0  0
   10.1002  -17.2038   29.8226 O   0  0  0  0  0  0  0  0  0  0  0  0
  2  1  1  6
  2  7  1  0
  2  3  1  0
  3  4  1  0
  5  4  1  0
  6  5  2  0
  7  8  2  0
  9  5  1  0
 10 11  1  0
 10  7  1  0
 11 12  1  1
 12 13  1  0
 13 18  1  0
 14 13  2  0
 14 15  1  0
 15 16  2  0
 16 17  1  0
 18 17  2  0
 19 20  2  0
 19 11  1  0
 21 19  1  0
 22 21  1  0
 23 24  1  0
 23 22  1  0
 24 25  1  0
 25 21  1  0
 25 26  1  1
 26 28  1  0
 27 26  2  0
M  END
$$$$
