MMF.pdb
     RDKit          3D

 28 28  0  0  1  0  0  0  0  0999 V2000
    7.7449  -11.7498   19.6293 C   0  0  0  0  0  0  0  0  0  0  0  0
    7.4609  -12.9540   18.2959 S   0  0  0  0  0  0  0  0  0  0  0  0
    7.9637  -14.6154   18.8315 C   0  0  0  0  0  0  0  0  0  0  0  0
    7.8149  -14.7181   20.3502 C   0  0  0  0  0  0  0  0  0  0  0  0
    8.4795  -16.0083   20.7709 C   0  0  2  0  0  0  0  0  0  0  0  0
    7.7397  -17.0836   20.1055 N   0  0  0  0  0  0  0  0  0  0  0  0
    8.3644  -16.2396   22.2292 C   0  0  0  0  0  0  0  0  0  0  0  0
    8.7181  -15.4163   23.1104 O   0  0  0  0  0  0  0  0  0  0  0  0
    7.3272  -18.9114   28.3685 C   0  0  0  0  0  0  0  0  0  0  0  0
    6.5475  -18.7410   26.7781 S   0  0  0  0  0  0  0  0  0  0  0  0
    7.2456  -19.7438   25.4855 C   0  0  0  0  0  0  0  0  0  0  0  0
    6.9954  -19.2152   24.0897 C   0  0  0  0  0  0  0  0  0  0  0  0
    7.6123  -17.8350   24.0418 C   0  0  2  0  0  0  0  0  0  0  0  0
    7.8178  -17.4741   22.6623 N   0  0  0  0  0  0  0  0  0  0  0  0
    8.8763  -17.7375   24.7695 C   0  0  0  0  0  0  0  0  0  0  0  0
    9.9150  -18.1912   24.2303 O   0  0  0  0  0  0  0  0  0  0  0  0
    9.0122  -17.1603   26.0555 N   0  0  0  0  0  0  0  0  0  0  0  0
   10.2447  -16.5135   26.4138 C   0  0  1  0  0  0  0  0  0  0  0  0
   10.2207  -15.0436   26.1373 C   0  0  0  0  0  0  0  0  0  0  0  0
    9.0821  -14.4052   26.8338 C   0  0  0  0  0  0  0  0  0  0  0  0
    9.1981  -13.9647   28.1587 C   0  0  0  0  0  0  0  0  0  0  0  0
    8.1634  -13.3528   28.8165 C   0  0  0  0  0  0  0  0  0  0  0  0
    6.9641  -13.1594   28.1617 C   0  0  0  0  0  0  0  0  0  0  0  0
    6.8547  -13.5941   26.8591 C   0  0  0  0  0  0  0  0  0  0  0  0
    7.8816  -14.2060   26.1934 C   0  0  0  0  0  0  0  0  0  0  0  0
   10.5533  -16.8455   27.8213 C   0  0  0  0  0  0  0  0  0  0  0  0
   11.5554  -16.4300   28.4368 O   0  0  0  0  0  0  0  0  0  0  0  0
    9.6770  -17.6724   28.5105 O   0  0  0  0  0  0  0  0  0  0  0  0
  1  2  1  0
  3  2  1  0
  4  3  1  0
  5  6  1  6
  5  4  1  0
  7  5  1  0
  8  7  2  0
 10  9  1  0
 10 11  1  0
 11 12  1  0
 13 12  1  6
 13 14  1  0
 14  7  1  0
 15 13  1  0
 15 16  2  0
 17 15  1  0
 18 19  1  1
 18 17  1  0
 20 21  2  0
 20 19  1  0
 22 21  1  0
 23 22  2  0
 24 23  1  0
 24 25  2  0
 25 20  1  0
 26 18  1  0
 27 26  2  0
 28 26  1  0
M  END
$$$$
