MMF.pdb
     RDKit          3D

 28 28  0  0  1  0  0  0  0  0999 V2000
    1.6702  -17.9399   23.0779 C   0  0  0  0  0  0  0  0  0  0  0  0
    2.2228  -19.6543   22.8253 S   0  0  0  0  0  0  0  0  0  0  0  0
    3.5234  -19.7155   21.5585 C   0  0  0  0  0  0  0  0  0  0  0  0
    4.7556  -18.9676   22.0697 C   0  0  0  0  0  0  0  0  0  0  0  0
    5.7399  -18.9076   20.9248 C   0  0  2  0  0  0  0  0  0  0  0  0
    6.1471  -20.2905   20.6644 N   0  0  0  0  0  0  0  0  0  0  0  0
    6.9633  -18.1552   21.2864 C   0  0  0  0  0  0  0  0  0  0  0  0
    8.1053  -18.6670   21.4022 O   0  0  0  0  0  0  0  0  0  0  0  0
    6.9030  -11.6423   19.9389 C   0  0  0  0  0  0  0  0  0  0  0  0
    8.4680  -11.9270   20.7362 S   0  0  0  0  0  0  0  0  0  0  0  0
    8.7285  -13.5894   21.3128 C   0  0  0  0  0  0  0  0  0  0  0  0
    7.5319  -14.4992   21.1371 C   0  0  0  0  0  0  0  0  0  0  0  0
    7.9511  -15.8566   21.6563 C   0  0  2  0  0  0  0  0  0  0  0  0
    6.8391  -16.7619   21.5181 N   0  0  0  0  0  0  0  0  0  0  0  0
    8.3975  -15.8343   23.0480 C   0  0  0  0  0  0  0  0  0  0  0  0
    9.4383  -15.1936   23.3336 O   0  0  0  0  0  0  0  0  0  0  0  0
    7.7298  -16.4930   24.1090 N   0  0  0  0  0  0  0  0  0  0  0  0
    8.2844  -16.4416   25.4340 C   0  0  1  0  0  0  0  0  0  0  0  0
    7.3083  -15.9249   26.4429 C   0  0  0  0  0  0  0  0  0  0  0  0
    7.2033  -14.4518   26.3531 C   0  0  0  0  0  0  0  0  0  0  0  0
    8.2862  -13.6267   26.6840 C   0  0  0  0  0  0  0  0  0  0  0  0
    8.2180  -12.2614   26.5889 C   0  0  0  0  0  0  0  0  0  0  0  0
    7.0493  -11.6700   26.1542 C   0  0  0  0  0  0  0  0  0  0  0  0
    5.9872  -12.4852   25.8299 C   0  0  0  0  0  0  0  0  0  0  0  0
    6.0452  -13.8492   25.9213 C   0  0  0  0  0  0  0  0  0  0  0  0
    8.8257  -17.7773   25.7649 C   0  0  0  0  0  0  0  0  0  0  0  0
    9.3472  -18.0718   26.8590 O   0  0  0  0  0  0  0  0  0  0  0  0
    8.7533  -18.7745   24.8022 O   0  0  0  0  0  0  0  0  0  0  0  0
  1  2  1  0
  3  2  1  0
  4  3  1  0
  5  6  1  1
  5  4  1  0
  7  5  1  0
  8  7  2  0
 10  9  1  0
 10 11  1  0
 11 12  1  0
 13 12  1  1
 13 14  1  0
 14  7  1  0
 15 13  1  0
 15 16  2  0
 17 15  1  0
 18 19  1  1
 18 17  1  0
 20 21  2  0
 20 19  1  0
 22 21  1  0
 23 22  2  0
 24 23  1  0
 24 25  2  0
 25 20  1  0
 26 18  1  0
 27 26  2  0
 28 26  1  0
M  END
$$$$
