MMF.pdb
     RDKit          3D

 28 28  0  0  1  0  0  0  0  0999 V2000
    4.9312  -22.6556   26.0345 C   0  0  0  0  0  0  0  0  0  0  0  0
    5.8332  -21.1032   25.7434 S   0  0  0  0  0  0  0  0  0  0  0  0
    5.7576  -20.6521   23.9853 C   0  0  0  0  0  0  0  0  0  0  0  0
    6.4639  -19.3110   23.7817 C   0  0  0  0  0  0  0  0  0  0  0  0
    6.3742  -18.9859   22.3088 C   0  0  2  0  0  0  0  0  0  0  0  0
    6.6809  -20.2293   21.5976 N   0  0  0  0  0  0  0  0  0  0  0  0
    7.3905  -17.9893   21.8997 C   0  0  0  0  0  0  0  0  0  0  0  0
    8.4886  -18.2737   21.3587 O   0  0  0  0  0  0  0  0  0  0  0  0
    7.6396  -11.7135   19.6272 C   0  0  0  0  0  0  0  0  0  0  0  0
    6.6487  -13.1830   19.4696 S   0  0  0  0  0  0  0  0  0  0  0  0
    7.2502  -14.5969   20.3656 C   0  0  0  0  0  0  0  0  0  0  0  0
    7.6272  -14.3041   21.8017 C   0  0  0  0  0  0  0  0  0  0  0  0
    8.1043  -15.6132   22.3905 C   0  0  2  0  0  0  0  0  0  0  0  0
    7.1064  -16.6200   22.1341 N   0  0  0  0  0  0  0  0  0  0  0  0
    8.3736  -15.5414   23.8254 C   0  0  0  0  0  0  0  0  0  0  0  0
    7.4030  -15.5801   24.6202 O   0  0  0  0  0  0  0  0  0  0  0  0
    9.6684  -15.4298   24.3880 N   0  0  0  0  0  0  0  0  0  0  0  0
    9.8180  -15.3927   25.8170 C   0  0  1  0  0  0  0  0  0  0  0  0
    8.5028  -15.3773   26.5295 C   0  0  0  0  0  0  0  0  0  0  0  0
    7.9452  -14.0070   26.5557 C   0  0  0  0  0  0  0  0  0  0  0  0
    6.6135  -13.7598   26.1974 C   0  0  0  0  0  0  0  0  0  0  0  0
    6.0705  -12.5022   26.2336 C   0  0  0  0  0  0  0  0  0  0  0  0
    6.8522  -11.4379   26.6346 C   0  0  0  0  0  0  0  0  0  0  0  0
    8.1610  -11.6858   26.9860 C   0  0  0  0  0  0  0  0  0  0  0  0
    8.7125  -12.9375   26.9534 C   0  0  0  0  0  0  0  0  0  0  0  0
   10.6974  -16.5101   26.2228 C   0  0  0  0  0  0  0  0  0  0  0  0
   10.9981  -16.7729   27.4044 O   0  0  0  0  0  0  0  0  0  0  0  0
   11.2274  -17.3247   25.2318 O   0  0  0  0  0  0  0  0  0  0  0  0
  1  2  1  0
  3  2  1  0
  4  3  1  0
  5  6  1  6
  5  4  1  0
  7  5  1  0
  8  7  2  0
 10  9  1  0
 10 11  1  0
 11 12  1  0
 13 12  1  1
 13 14  1  0
 14  7  1  0
 15 13  1  0
 15 16  2  0
 17 15  1  0
 18 19  1  1
 18 17  1  0
 20 21  2  0
 20 19  1  0
 22 21  1  0
 23 22  2  0
 24 23  1  0
 24 25  2  0
 25 20  1  0
 26 18  1  0
 27 26  2  0
 28 26  1  0
M  END
$$$$
