MMF.pdb
     RDKit          3D

 28 28  0  0  1  0  0  0  0  0999 V2000
    6.9029  -23.8363   22.2084 C   0  0  0  0  0  0  0  0  0  0  0  0
    5.1075  -23.6882   22.4598 S   0  0  0  0  0  0  0  0  0  0  0  0
    4.6223  -21.9383   22.5124 C   0  0  0  0  0  0  0  0  0  0  0  0
    5.8696  -21.0680   22.3521 C   0  0  0  0  0  0  0  0  0  0  0  0
    5.5974  -19.7714   23.0787 C   0  0  2  0  0  0  0  0  0  0  0  0
    4.3845  -19.2132   22.4759 N   0  0  0  0  0  0  0  0  0  0  0  0
    6.6806  -18.7830   22.8705 C   0  0  0  0  0  0  0  0  0  0  0  0
    7.9065  -19.0373   22.9792 O   0  0  0  0  0  0  0  0  0  0  0  0
    8.4326  -11.8548   19.6286 C   0  0  0  0  0  0  0  0  0  0  0  0
    7.1878  -13.0682   20.0087 S   0  0  0  0  0  0  0  0  0  0  0  0
    7.6688  -14.2911   21.2073 C   0  0  0  0  0  0  0  0  0  0  0  0
    6.5817  -15.2891   21.5427 C   0  0  0  0  0  0  0  0  0  0  0  0
    7.2371  -16.3653   22.3794 C   0  0  2  0  0  0  0  0  0  0  0  0
    6.3104  -17.4586   22.5248 N   0  0  0  0  0  0  0  0  0  0  0  0
    7.6594  -15.8994   23.6990 C   0  0  0  0  0  0  0  0  0  0  0  0
    7.3150  -14.7500   24.0675 O   0  0  0  0  0  0  0  0  0  0  0  0
    8.4392  -16.6632   24.6012 N   0  0  0  0  0  0  0  0  0  0  0  0
    8.7842  -16.1095   25.8819 C   0  0  1  0  0  0  0  0  0  0  0  0
    7.5807  -15.7105   26.6756 C   0  0  0  0  0  0  0  0  0  0  0  0
    7.3463  -14.2541   26.5619 C   0  0  0  0  0  0  0  0  0  0  0  0
    6.0825  -13.7473   26.2319 C   0  0  0  0  0  0  0  0  0  0  0  0
    5.8378  -12.4021   26.1410 C   0  0  0  0  0  0  0  0  0  0  0  0
    6.8624  -11.5092   26.3804 C   0  0  0  0  0  0  0  0  0  0  0  0
    8.1033  -12.0121   26.7046 C   0  0  0  0  0  0  0  0  0  0  0  0
    8.3579  -13.3532   26.7980 C   0  0  0  0  0  0  0  0  0  0  0  0
    9.6634  -17.0697   26.5831 C   0  0  0  0  0  0  0  0  0  0  0  0
   10.1264  -16.8907   27.7274 O   0  0  0  0  0  0  0  0  0  0  0  0
   10.0008  -18.2493   25.9342 O   0  0  0  0  0  0  0  0  0  0  0  0
  1  2  1  0
  3  2  1  0
  4  3  1  0
  5  6  1  6
  5  4  1  0
  7  5  1  0
  8  7  2  0
 10  9  1  0
 10 11  1  0
 11 12  1  0
 13 12  1  1
 13 14  1  0
 14  7  1  0
 15 13  1  0
 15 16  2  0
 17 15  1  0
 18 19  1  1
 18 17  1  0
 20 21  2  0
 20 19  1  0
 22 21  1  0
 23 22  2  0
 24 23  1  0
 24 25  2  0
 25 20  1  0
 26 18  1  0
 27 26  2  0
 28 26  1  0
M  END
$$$$
