MMF.pdb
     RDKit          3D

 28 28  0  0  1  0  0  0  0  0999 V2000
    7.3222  -12.0808   18.4584 C   0  0  0  0  0  0  0  0  0  0  0  0
    7.1522  -13.6495   17.5537 S   0  0  0  0  0  0  0  0  0  0  0  0
    7.9519  -14.9961   18.4743 C   0  0  0  0  0  0  0  0  0  0  0  0
    8.3003  -14.5036   19.8797 C   0  0  0  0  0  0  0  0  0  0  0  0
    8.9602  -15.6571   20.5988 C   0  0  2  0  0  0  0  0  0  0  0  0
    7.8994  -16.6316   20.8656 N   0  0  0  0  0  0  0  0  0  0  0  0
    9.5135  -15.2473   21.9101 C   0  0  0  0  0  0  0  0  0  0  0  0
   10.6379  -14.7095   22.0713 O   0  0  0  0  0  0  0  0  0  0  0  0
    7.6407  -11.2771   26.4517 C   0  0  0  0  0  0  0  0  0  0  0  0
    6.5754  -12.6531   26.0801 S   0  0  0  0  0  0  0  0  0  0  0  0
    7.1379  -13.7069   24.7622 C   0  0  0  0  0  0  0  0  0  0  0  0
    7.8376  -14.9640   25.2317 C   0  0  0  0  0  0  0  0  0  0  0  0
    9.0945  -15.0861   24.3990 C   0  0  2  0  0  0  0  0  0  0  0  0
    8.7214  -15.4768   23.0635 N   0  0  0  0  0  0  0  0  0  0  0  0
   10.0595  -16.0415   24.9398 C   0  0  0  0  0  0  0  0  0  0  0  0
   11.2804  -15.8494   24.7210 O   0  0  0  0  0  0  0  0  0  0  0  0
    9.7090  -17.1824   25.7021 N   0  0  0  0  0  0  0  0  0  0  0  0
   10.7278  -17.8852   26.4328 C   0  0  1  0  0  0  0  0  0  0  0  0
   10.5239  -17.8117   27.9128 C   0  0  0  0  0  0  0  0  0  0  0  0
   10.2780  -16.4142   28.3319 C   0  0  0  0  0  0  0  0  0  0  0  0
    8.9941  -15.8561   28.2755 C   0  0  0  0  0  0  0  0  0  0  0  0
    8.7397  -14.5710   28.6774 C   0  0  0  0  0  0  0  0  0  0  0  0
    9.7746  -13.7929   29.1547 C   0  0  0  0  0  0  0  0  0  0  0  0
   11.0353  -14.3458   29.2083 C   0  0  0  0  0  0  0  0  0  0  0  0
   11.2997  -15.6277   28.8097 C   0  0  0  0  0  0  0  0  0  0  0  0
   10.8034  -19.2679   25.9141 C   0  0  0  0  0  0  0  0  0  0  0  0
   10.0181  -19.7449   25.0706 O   0  0  0  0  0  0  0  0  0  0  0  0
   11.8101  -20.0962   26.3907 O   0  0  0  0  0  0  0  0  0  0  0  0
  1  2  1  0
  3  2  1  0
  4  3  1  0
  5  6  1  1
  5  4  1  0
  7  5  1  0
  8  7  2  0
 10  9  1  0
 10 11  1  0
 11 12  1  0
 13 12  1  1
 13 14  1  0
 14  7  1  0
 15 13  1  0
 15 16  2  0
 17 15  1  0
 18 19  1  1
 18 17  1  0
 20 21  2  0
 20 19  1  0
 22 21  1  0
 23 22  2  0
 24 23  1  0
 24 25  2  0
 25 20  1  0
 26 18  1  0
 27 26  2  0
 28 26  1  0
M  END
$$$$
