MMF.pdb
     RDKit          3D

 28 28  0  0  1  0  0  0  0  0999 V2000
    7.5980  -11.9069   18.9718 C   0  0  0  0  0  0  0  0  0  0  0  0
    7.5007  -13.3885   17.9212 S   0  0  0  0  0  0  0  0  0  0  0  0
    8.2364  -14.8136   18.7744 C   0  0  0  0  0  0  0  0  0  0  0  0
    8.8646  -14.3418   20.0865 C   0  0  0  0  0  0  0  0  0  0  0  0
    9.4492  -15.5627   20.7580 C   0  0  2  0  0  0  0  0  0  0  0  0
    8.3731  -16.5554   20.8073 N   0  0  0  0  0  0  0  0  0  0  0  0
    9.8494  -15.2858   22.1569 C   0  0  0  0  0  0  0  0  0  0  0  0
   10.5560  -14.3102   22.5151 O   0  0  0  0  0  0  0  0  0  0  0  0
    6.5858  -11.8374   27.3289 C   0  0  0  0  0  0  0  0  0  0  0  0
    6.6933  -12.6599   25.7547 S   0  0  0  0  0  0  0  0  0  0  0  0
    7.8347  -14.0226   25.6931 C   0  0  0  0  0  0  0  0  0  0  0  0
    7.9721  -14.6525   24.3239 C   0  0  0  0  0  0  0  0  0  0  0  0
    8.9667  -15.7822   24.4744 C   0  0  2  0  0  0  0  0  0  0  0  0
    9.4055  -16.1822   23.1619 N   0  0  0  0  0  0  0  0  0  0  0  0
    8.4287  -16.9393   25.1873 C   0  0  0  0  0  0  0  0  0  0  0  0
    7.1875  -17.0143   25.3583 O   0  0  0  0  0  0  0  0  0  0  0  0
    9.2195  -17.9939   25.7048 N   0  0  0  0  0  0  0  0  0  0  0  0
   10.6104  -17.7636   25.9846 C   0  0  1  0  0  0  0  0  0  0  0  0
   10.9605  -16.3092   25.9852 C   0  0  0  0  0  0  0  0  0  0  0  0
   10.6591  -15.7057   27.3021 C   0  0  0  0  0  0  0  0  0  0  0  0
   10.6925  -14.3174   27.4874 C   0  0  0  0  0  0  0  0  0  0  0  0
   10.3974  -13.7357   28.6925 C   0  0  0  0  0  0  0  0  0  0  0  0
   10.0550  -14.5343   29.7646 C   0  0  0  0  0  0  0  0  0  0  0  0
   10.0235  -15.8988   29.5777 C   0  0  0  0  0  0  0  0  0  0  0  0
   10.3163  -16.4894   28.3787 C   0  0  0  0  0  0  0  0  0  0  0  0
   10.9527  -18.4548   27.2462 C   0  0  0  0  0  0  0  0  0  0  0  0
   12.0821  -18.4313   27.7751 O   0  0  0  0  0  0  0  0  0  0  0  0
    9.9597  -19.1792   27.8910 O   0  0  0  0  0  0  0  0  0  0  0  0
  1  2  1  0
  3  2  1  0
  4  3  1  0
  5  6  1  1
  5  4  1  0
  7  5  1  0
  8  7  2  0
 10  9  1  0
 10 11  1  0
 11 12  1  0
 13 12  1  6
 13 14  1  0
 14  7  1  0
 15 13  1  0
 15 16  2  0
 17 15  1  0
 18 19  1  1
 18 17  1  0
 20 21  2  0
 20 19  1  0
 22 21  1  0
 23 22  2  0
 24 23  1  0
 24 25  2  0
 25 20  1  0
 26 18  1  0
 27 26  2  0
 28 26  1  0
M  END
$$$$
