MMF.pdb
     RDKit          3D

 28 28  0  0  1  0  0  0  0  0999 V2000
    6.0172  -19.9184   17.8192 C   0  0  0  0  0  0  0  0  0  0  0  0
    5.2056  -20.7771   19.2021 S   0  0  0  0  0  0  0  0  0  0  0  0
    5.8402  -20.1561   20.7870 C   0  0  0  0  0  0  0  0  0  0  0  0
    7.3454  -19.9148   20.6635 C   0  0  0  0  0  0  0  0  0  0  0  0
    7.8134  -19.3677   21.9920 C   0  0  2  0  0  0  0  0  0  0  0  0
    6.6035  -18.9861   22.7247 N   0  0  0  0  0  0  0  0  0  0  0  0
    8.6275  -18.1412   21.8289 C   0  0  0  0  0  0  0  0  0  0  0  0
    9.7192  -18.0891   21.2086 O   0  0  0  0  0  0  0  0  0  0  0  0
    7.5838  -12.0292   19.6670 C   0  0  0  0  0  0  0  0  0  0  0  0
    6.6983  -13.5305   20.0250 S   0  0  0  0  0  0  0  0  0  0  0  0
    7.6770  -14.8284   20.7471 C   0  0  0  0  0  0  0  0  0  0  0  0
    8.1066  -14.5584   22.1728 C   0  0  0  0  0  0  0  0  0  0  0  0
    8.9313  -15.7520   22.6007 C   0  0  2  0  0  0  0  0  0  0  0  0
    8.1431  -16.9430   22.4121 N   0  0  0  0  0  0  0  0  0  0  0  0
    9.3860  -15.6774   23.9879 C   0  0  0  0  0  0  0  0  0  0  0  0
   10.4057  -14.9935   24.2486 O   0  0  0  0  0  0  0  0  0  0  0  0
    8.7490  -16.3307   25.0709 N   0  0  0  0  0  0  0  0  0  0  0  0
    9.3079  -16.2213   26.3905 C   0  0  1  0  0  0  0  0  0  0  0  0
    8.3460  -15.6304   27.3719 C   0  0  0  0  0  0  0  0  0  0  0  0
    7.9037  -14.2926   26.9206 C   0  0  0  0  0  0  0  0  0  0  0  0
    6.6539  -14.1091   26.3145 C   0  0  0  0  0  0  0  0  0  0  0  0
    6.2155  -12.8764   25.9072 C   0  0  0  0  0  0  0  0  0  0  0  0
    7.0234  -11.7735   26.0955 C   0  0  0  0  0  0  0  0  0  0  0  0
    8.2514  -11.9588   26.6919 C   0  0  0  0  0  0  0  0  0  0  0  0
    8.6983  -13.1852   27.1022 C   0  0  0  0  0  0  0  0  0  0  0  0
    9.8205  -17.5493   26.7910 C   0  0  0  0  0  0  0  0  0  0  0  0
   10.2661  -17.8167   27.9249 O   0  0  0  0  0  0  0  0  0  0  0  0
    9.8090  -18.5708   25.8514 O   0  0  0  0  0  0  0  0  0  0  0  0
  1  2  1  0
  3  2  1  0
  4  3  1  0
  5  6  1  1
  5  4  1  0
  7  5  1  0
  8  7  2  0
 10  9  1  0
 10 11  1  0
 11 12  1  0
 13 12  1  1
 13 14  1  0
 14  7  1  0
 15 13  1  0
 15 16  2  0
 17 15  1  0
 18 19  1  1
 18 17  1  0
 20 21  2  0
 20 19  1  0
 22 21  1  0
 23 22  2  0
 24 23  1  0
 24 25  2  0
 25 20  1  0
 26 18  1  0
 27 26  2  0
 28 26  1  0
M  END
$$$$
