MMF.pdb
     RDKit          3D

 28 28  0  0  1  0  0  0  0  0999 V2000
    7.0517  -19.5836   27.3148 C   0  0  0  0  0  0  0  0  0  0  0  0
    6.0291  -20.9153   26.6153 S   0  0  0  0  0  0  0  0  0  0  0  0
    5.6252  -20.5532   24.8815 C   0  0  0  0  0  0  0  0  0  0  0  0
    6.6638  -19.5824   24.3179 C   0  0  0  0  0  0  0  0  0  0  0  0
    6.1507  -19.1214   22.9735 C   0  0  2  0  0  0  0  0  0  0  0  0
    6.0331  -20.3255   22.1474 N   0  0  0  0  0  0  0  0  0  0  0  0
    7.1106  -18.2207   22.2946 C   0  0  0  0  0  0  0  0  0  0  0  0
    8.0573  -18.6094   21.5651 O   0  0  0  0  0  0  0  0  0  0  0  0
    6.7211  -12.1033   20.0174 C   0  0  0  0  0  0  0  0  0  0  0  0
    6.2738  -13.7358   19.4687 S   0  0  0  0  0  0  0  0  0  0  0  0
    6.9057  -15.0656   20.4668 C   0  0  0  0  0  0  0  0  0  0  0  0
    7.5469  -14.6158   21.7617 C   0  0  0  0  0  0  0  0  0  0  0  0
    8.0316  -15.8706   22.4534 C   0  0  2  0  0  0  0  0  0  0  0  0
    6.9518  -16.8239   22.4795 N   0  0  0  0  0  0  0  0  0  0  0  0
    8.5137  -15.6357   23.8132 C   0  0  0  0  0  0  0  0  0  0  0  0
    7.6831  -15.6479   24.7542 O   0  0  0  0  0  0  0  0  0  0  0  0
    9.8682  -15.3922   24.1468 N   0  0  0  0  0  0  0  0  0  0  0  0
   10.2367  -15.2172   25.5250 C   0  0  1  0  0  0  0  0  0  0  0  0
    9.0861  -15.4316   26.4565 C   0  0  0  0  0  0  0  0  0  0  0  0
    8.2954  -14.1888   26.5958 C   0  0  0  0  0  0  0  0  0  0  0  0
    8.8785  -13.0094   27.0773 C   0  0  0  0  0  0  0  0  0  0  0  0
    8.1706  -11.8420   27.1955 C   0  0  0  0  0  0  0  0  0  0  0  0
    6.8398  -11.8167   26.8311 C   0  0  0  0  0  0  0  0  0  0  0  0
    6.2708  -12.9787   26.3581 C   0  0  0  0  0  0  0  0  0  0  0  0
    6.9688  -14.1492   26.2363 C   0  0  0  0  0  0  0  0  0  0  0  0
   11.3988  -16.0860   25.8106 C   0  0  0  0  0  0  0  0  0  0  0  0
   11.7379  -17.0582   25.1068 O   0  0  0  0  0  0  0  0  0  0  0  0
   12.1681  -15.8095   26.9323 O   0  0  0  0  0  0  0  0  0  0  0  0
  1  2  1  0
  3  2  1  0
  4  3  1  0
  5  6  1  6
  5  4  1  0
  7  5  1  0
  8  7  2  0
 10  9  1  0
 10 11  1  0
 11 12  1  0
 13 12  1  1
 13 14  1  0
 14  7  1  0
 15 13  1  0
 15 16  2  0
 17 15  1  0
 18 19  1  1
 18 17  1  0
 20 21  2  0
 20 19  1  0
 22 21  1  0
 23 22  2  0
 24 23  1  0
 24 25  2  0
 25 20  1  0
 26 18  1  0
 27 26  2  0
 28 26  1  0
M  END
$$$$
