MMF.pdb
     RDKit          3D

 28 28  0  0  1  0  0  0  0  0999 V2000
    7.2742  -11.4174   20.3410 C   0  0  0  0  0  0  0  0  0  0  0  0
    8.0782  -12.5102   19.1295 S   0  0  0  0  0  0  0  0  0  0  0  0
    7.7011  -14.2477   19.5025 C   0  0  0  0  0  0  0  0  0  0  0  0
    7.0274  -14.3305   20.8731 C   0  0  0  0  0  0  0  0  0  0  0  0
    7.9634  -15.0981   21.7774 C   0  0  2  0  0  0  0  0  0  0  0  0
    8.4733  -16.2170   20.9809 N   0  0  0  0  0  0  0  0  0  0  0  0
    7.2549  -15.6800   22.9405 C   0  0  0  0  0  0  0  0  0  0  0  0
    6.3640  -15.0880   23.6001 O   0  0  0  0  0  0  0  0  0  0  0  0
    7.2773  -21.7357   21.9096 C   0  0  0  0  0  0  0  0  0  0  0  0
    5.8487  -21.0941   22.7544 S   0  0  0  0  0  0  0  0  0  0  0  0
    5.9802  -19.3986   23.2757 C   0  0  0  0  0  0  0  0  0  0  0  0
    7.0907  -19.1424   24.2714 C   0  0  0  0  0  0  0  0  0  0  0  0
    7.1026  -17.6502   24.5190 C   0  0  2  0  0  0  0  0  0  0  0  0
    7.6048  -16.9953   23.3383 N   0  0  0  0  0  0  0  0  0  0  0  0
    7.9042  -17.2594   25.6771 C   0  0  0  0  0  0  0  0  0  0  0  0
    7.5630  -17.6766   26.8107 O   0  0  0  0  0  0  0  0  0  0  0  0
    9.0522  -16.4331   25.6087 N   0  0  0  0  0  0  0  0  0  0  0  0
    9.5972  -15.8779   26.8172 C   0  0  1  0  0  0  0  0  0  0  0  0
    8.6126  -15.0206   27.5476 C   0  0  0  0  0  0  0  0  0  0  0  0
    8.1467  -13.9156   26.6810 C   0  0  0  0  0  0  0  0  0  0  0  0
    6.8735  -13.9406   26.0968 C   0  0  0  0  0  0  0  0  0  0  0  0
    6.4137  -12.9192   25.3076 C   0  0  0  0  0  0  0  0  0  0  0  0
    7.2229  -11.8259   25.0745 C   0  0  0  0  0  0  0  0  0  0  0  0
    8.4739  -11.8057   25.6511 C   0  0  0  0  0  0  0  0  0  0  0  0
    8.9424  -12.8202   26.4406 C   0  0  0  0  0  0  0  0  0  0  0  0
   10.1395  -16.9840   27.6352 C   0  0  0  0  0  0  0  0  0  0  0  0
   10.1297  -18.1824   27.2895 O   0  0  0  0  0  0  0  0  0  0  0  0
   10.6975  -16.6789   28.8688 O   0  0  0  0  0  0  0  0  0  0  0  0
  1  2  1  0
  3  2  1  0
  4  3  1  0
  5  6  1  6
  5  4  1  0
  7  5  1  0
  8  7  2  0
 10  9  1  0
 10 11  1  0
 11 12  1  0
 13 12  1  6
 13 14  1  0
 14  7  1  0
 15 13  1  0
 15 16  2  0
 17 15  1  0
 18 19  1  1
 18 17  1  0
 20 21  2  0
 20 19  1  0
 22 21  1  0
 23 22  2  0
 24 23  1  0
 24 25  2  0
 25 20  1  0
 26 18  1  0
 27 26  2  0
 28 26  1  0
M  END
$$$$
