HWT.pdb
     RDKit          3D

 32 34  0  0  1  0  0  0  0  0999 V2000
   10.9671  -16.5635   18.8944 N   0  0  0  0  0  0  0  0  0  0  0  0
   10.1602  -17.2365   19.8950 C   0  0  1  0  0  0  0  0  0  0  0  0
   10.7355  -18.6276   20.0902 C   0  0  0  0  0  0  0  0  0  0  0  0
   10.4366  -19.4168   18.8744 C   0  0  0  0  0  0  0  0  0  0  0  0
    9.7447  -18.9241   17.7859 C   0  0  0  0  0  0  0  0  0  0  0  0
    9.6677  -19.9192   16.8816 N   0  0  0  0  0  0  0  0  0  0  0  0
   10.2879  -21.0184   17.3667 C   0  0  0  0  0  0  0  0  0  0  0  0
   10.7510  -20.6906   18.5858 N   0  0  0  0  0  0  0  0  0  0  0  0
   10.0835  -16.4750   21.1516 C   0  0  0  0  0  0  0  0  0  0  0  0
   11.1496  -15.9401   21.6008 O   0  0  0  0  0  0  0  0  0  0  0  0
    8.8465  -16.3529   21.8267 N   0  0  0  0  0  0  0  0  0  0  0  0
    8.7708  -15.7668   23.1709 C   0  0  1  0  0  0  0  0  0  0  0  0
    7.3070  -15.5279   23.4240 C   0  0  0  0  0  0  0  0  0  0  0  0
    6.9526  -15.0659   24.7654 C   0  0  0  0  0  0  0  0  0  0  0  0
    6.3731  -15.7610   25.7876 C   0  0  0  0  0  0  0  0  0  0  0  0
    6.2018  -14.9416   26.8402 N   0  0  0  0  0  0  0  0  0  0  0  0
    6.6567  -13.7154   26.5360 C   0  0  0  0  0  0  0  0  0  0  0  0
    6.7348  -12.5115   27.2098 C   0  0  0  0  0  0  0  0  0  0  0  0
    7.2768  -11.4016   26.5885 C   0  0  0  0  0  0  0  0  0  0  0  0
    7.7472  -11.4704   25.2945 C   0  0  0  0  0  0  0  0  0  0  0  0
    7.6608  -12.6789   24.6395 C   0  0  0  0  0  0  0  0  0  0  0  0
    7.1228  -13.7838   25.2543 C   0  0  0  0  0  0  0  0  0  0  0  0
    9.3363  -16.6580   24.1719 C   0  0  0  0  0  0  0  0  0  0  0  0
    8.9662  -17.8876   24.1244 O   0  0  0  0  0  0  0  0  0  0  0  0
   12.7335  -18.5790   27.0207 C   0  0  0  0  0  0  0  0  0  0  0  0
   12.2415  -17.5474   26.0115 C   0  0  1  0  0  0  0  0  0  0  0  0
   12.4797  -18.0846   24.7478 O   0  0  0  0  0  0  0  0  0  0  0  0
   10.7273  -17.3889   26.1335 C   0  0  2  0  0  0  0  0  0  0  0  0
   10.2502  -16.3760   25.2031 N   0  0  0  0  0  0  0  0  0  0  0  0
   10.4824  -16.9196   27.5105 C   0  0  0  0  0  0  0  0  0  0  0  0
   10.0743  -15.7716   27.8134 O   0  0  0  0  0  0  0  0  0  0  0  0
   10.7053  -17.7799   28.6128 O   0  0  0  0  0  0  0  0  0  0  0  0
  2  1  1  6
  3  2  1  0
  3  4  1  0
  4  5  2  0
  5  6  1  0
  7  6  1  0
  8  4  1  0
  8  7  2  0
  9 10  2  0
  9  2  1  0
 11  9  1  0
 12 11  1  0
 13 14  1  0
 12 13  1  1
 14 15  2  0
 14 22  1  0
 15 16  1  0
 16 17  1  0
 17 18  2  0
 18 19  1  0
 20 19  2  0
 21 20  1  0
 22 21  2  0
 22 17  1  0
 23 29  1  0
 23 12  1  0
 24 23  2  0
 26 28  1  0
 26 25  1  1
 27 26  1  0
 28 29  1  6
 28 30  1  0
 30 32  1  0
 31 30  2  0
M  END
$$$$
