HWT.pdb
     RDKit          3D

 32 34  0  0  1  0  0  0  0  0999 V2000
    8.2960  -17.4595   18.6158 N   0  0  0  0  0  0  0  0  0  0  0  0
    9.2605  -16.3803   18.7150 C   0  0  1  0  0  0  0  0  0  0  0  0
    8.9901  -15.4155   17.5747 C   0  0  0  0  0  0  0  0  0  0  0  0
    9.3020  -16.1126   16.3069 C   0  0  0  0  0  0  0  0  0  0  0  0
    8.8156  -17.3611   15.9735 C   0  0  0  0  0  0  0  0  0  0  0  0
    9.3077  -17.6664   14.7576 N   0  0  0  0  0  0  0  0  0  0  0  0
   10.0858  -16.6517   14.3181 C   0  0  0  0  0  0  0  0  0  0  0  0
   10.0692  -15.7118   15.2797 N   0  0  0  0  0  0  0  0  0  0  0  0
    9.2267  -15.7236   20.0312 C   0  0  0  0  0  0  0  0  0  0  0  0
   10.0338  -14.7613   20.2481 O   0  0  0  0  0  0  0  0  0  0  0  0
    8.3127  -16.1662   21.0158 N   0  0  0  0  0  0  0  0  0  0  0  0
    8.3984  -15.6858   22.4007 C   0  0  1  0  0  0  0  0  0  0  0  0
    6.9768  -15.6028   22.8866 C   0  0  0  0  0  0  0  0  0  0  0  0
    6.7976  -15.2640   24.2979 C   0  0  0  0  0  0  0  0  0  0  0  0
    6.4747  -16.0813   25.3427 C   0  0  0  0  0  0  0  0  0  0  0  0
    6.3876  -15.3497   26.4677 N   0  0  0  0  0  0  0  0  0  0  0  0
    6.6467  -14.0618   26.1895 C   0  0  0  0  0  0  0  0  0  0  0  0
    6.6990  -12.8973   26.9315 C   0  0  0  0  0  0  0  0  0  0  0  0
    7.0044  -11.6962   26.3185 C   0  0  0  0  0  0  0  0  0  0  0  0
    7.2612  -11.6339   24.9655 C   0  0  0  0  0  0  0  0  0  0  0  0
    7.2043  -12.8050   24.2430 C   0  0  0  0  0  0  0  0  0  0  0  0
    6.9012  -14.0003   24.8493 C   0  0  0  0  0  0  0  0  0  0  0  0
    9.1826  -16.5886   23.2289 C   0  0  0  0  0  0  0  0  0  0  0  0
    8.9345  -17.8436   23.1088 O   0  0  0  0  0  0  0  0  0  0  0  0
   13.2966  -17.9873   25.5160 C   0  0  0  0  0  0  0  0  0  0  0  0
   12.4735  -16.9229   24.7987 C   0  0  1  0  0  0  0  0  0  0  0  0
   12.8806  -16.9389   23.4659 O   0  0  0  0  0  0  0  0  0  0  0  0
   10.9992  -17.3219   24.8034 C   0  0  2  0  0  0  0  0  0  0  0  0
   10.1969  -16.2933   24.1574 N   0  0  0  0  0  0  0  0  0  0  0  0
   10.6099  -17.4032   26.2240 C   0  0  0  0  0  0  0  0  0  0  0  0
   10.4297  -18.4726   26.8566 O   0  0  0  0  0  0  0  0  0  0  0  0
   10.4102  -16.2244   26.9826 O   0  0  0  0  0  0  0  0  0  0  0  0
  2  1  1  1
  3  2  1  0
  3  4  1  0
  4  5  2  0
  5  6  1  0
  7  6  1  0
  8  4  1  0
  8  7  2  0
  9 10  2  0
  9  2  1  0
 11  9  1  0
 12 11  1  0
 13 14  1  0
 12 13  1  1
 14 15  2  0
 14 22  1  0
 15 16  1  0
 16 17  1  0
 17 18  2  0
 18 19  1  0
 20 19  2  0
 21 20  1  0
 22 21  2  0
 22 17  1  0
 23 29  1  0
 23 12  1  0
 24 23  2  0
 26 28  1  0
 26 25  1  1
 27 26  1  0
 28 29  1  6
 28 30  1  0
 30 32  1  0
 31 30  2  0
M  END
$$$$
