HWT.pdb
     RDKit          3D

 32 34  0  0  1  0  0  0  0  0999 V2000
    7.8191  -15.7109   18.6053 N   0  0  0  0  0  0  0  0  0  0  0  0
    8.8305  -14.7228   18.9306 C   0  0  1  0  0  0  0  0  0  0  0  0
    8.3951  -13.4018   18.3226 C   0  0  0  0  0  0  0  0  0  0  0  0
    8.1785  -13.6184   16.8746 C   0  0  0  0  0  0  0  0  0  0  0  0
    7.0492  -13.2086   16.1940 C   0  0  0  0  0  0  0  0  0  0  0  0
    7.2071  -13.5746   14.9075 N   0  0  0  0  0  0  0  0  0  0  0  0
    8.3969  -14.1996   14.7592 C   0  0  0  0  0  0  0  0  0  0  0  0
    8.9751  -14.2161   15.9732 N   0  0  0  0  0  0  0  0  0  0  0  0
    9.0686  -14.6271   20.3794 C   0  0  0  0  0  0  0  0  0  0  0  0
    9.8972  -13.7547   20.7999 O   0  0  0  0  0  0  0  0  0  0  0  0
    8.3836  -15.4921   21.2644 N   0  0  0  0  0  0  0  0  0  0  0  0
    8.5278  -15.3577   22.7194 C   0  0  1  0  0  0  0  0  0  0  0  0
    7.1261  -15.2415   23.2538 C   0  0  0  0  0  0  0  0  0  0  0  0
    7.0030  -14.9948   24.6899 C   0  0  0  0  0  0  0  0  0  0  0  0
    6.6699  -15.8676   25.6855 C   0  0  0  0  0  0  0  0  0  0  0  0
    6.6500  -15.2136   26.8605 N   0  0  0  0  0  0  0  0  0  0  0  0
    6.9637  -13.9229   26.6637 C   0  0  0  0  0  0  0  0  0  0  0  0
    7.0933  -12.8172   27.4823 C   0  0  0  0  0  0  0  0  0  0  0  0
    7.4397  -11.5915   26.9443 C   0  0  0  0  0  0  0  0  0  0  0  0
    7.6614  -11.4463   25.5915 C   0  0  0  0  0  0  0  0  0  0  0  0
    7.5274  -12.5597   24.7920 C   0  0  0  0  0  0  0  0  0  0  0  0
    7.1834  -13.7792   25.3237 C   0  0  0  0  0  0  0  0  0  0  0  0
    9.2134  -16.5049   23.2938 C   0  0  0  0  0  0  0  0  0  0  0  0
    8.7150  -17.6615   23.0393 O   0  0  0  0  0  0  0  0  0  0  0  0
   12.2785  -18.2654   22.6407 C   0  0  0  0  0  0  0  0  0  0  0  0
   12.3114  -18.0292   24.1467 C   0  0  1  0  0  0  0  0  0  0  0  0
   13.0169  -16.8441   24.3465 O   0  0  0  0  0  0  0  0  0  0  0  0
   10.8949  -17.7789   24.6599 C   0  0  2  0  0  0  0  0  0  0  0  0
   10.3665  -16.5443   24.0982 N   0  0  0  0  0  0  0  0  0  0  0  0
   11.0197  -17.6187   26.1211 C   0  0  0  0  0  0  0  0  0  0  0  0
   11.3925  -18.5208   26.9107 O   0  0  0  0  0  0  0  0  0  0  0  0
   10.7114  -16.3816   26.7370 O   0  0  0  0  0  0  0  0  0  0  0  0
  2  1  1  1
  3  2  1  0
  3  4  1  0
  4  5  2  0
  5  6  1  0
  7  6  1  0
  8  4  1  0
  8  7  2  0
  9 10  2  0
  9  2  1  0
 11  9  1  0
 12 11  1  0
 13 14  1  0
 12 13  1  1
 14 15  2  0
 14 22  1  0
 15 16  1  0
 16 17  1  0
 17 18  2  0
 18 19  1  0
 20 19  2  0
 21 20  1  0
 22 21  2  0
 22 17  1  0
 23 29  1  0
 23 12  1  0
 24 23  2  0
 26 28  1  0
 26 25  1  6
 27 26  1  0
 28 29  1  6
 28 30  1  0
 30 32  1  0
 31 30  2  0
M  END
$$$$
