HWT.pdb
     RDKit          3D

 32 34  0  0  1  0  0  0  0  0999 V2000
   10.1472  -13.8239   18.6153 N   0  0  0  0  0  0  0  0  0  0  0  0
    9.8326  -15.0655   19.2968 C   0  0  1  0  0  0  0  0  0  0  0  0
   10.8197  -16.1152   18.8193 C   0  0  0  0  0  0  0  0  0  0  0  0
   10.5129  -16.4153   17.4028 C   0  0  0  0  0  0  0  0  0  0  0  0
   10.6978  -15.5207   16.3675 C   0  0  0  0  0  0  0  0  0  0  0  0
   10.3140  -16.1403   15.2349 N   0  0  0  0  0  0  0  0  0  0  0  0
    9.8950  -17.3925   15.5257 C   0  0  0  0  0  0  0  0  0  0  0  0
   10.0246  -17.5408   16.8559 N   0  0  0  0  0  0  0  0  0  0  0  0
    9.8339  -14.9124   20.7601 C   0  0  0  0  0  0  0  0  0  0  0  0
   10.8972  -14.4919   21.3234 O   0  0  0  0  0  0  0  0  0  0  0  0
    8.6726  -15.2300   21.5025 N   0  0  0  0  0  0  0  0  0  0  0  0
    8.6283  -15.0428   22.9582 C   0  0  1  0  0  0  0  0  0  0  0  0
    7.1691  -14.9202   23.3041 C   0  0  0  0  0  0  0  0  0  0  0  0
    6.8568  -14.7315   24.7202 C   0  0  0  0  0  0  0  0  0  0  0  0
    6.3335  -15.6247   25.6104 C   0  0  0  0  0  0  0  0  0  0  0  0
    6.1847  -15.0250   26.8049 N   0  0  0  0  0  0  0  0  0  0  0  0
    6.5995  -13.7503   26.7246 C   0  0  0  0  0  0  0  0  0  0  0  0
    6.6763  -12.6941   27.6123 C   0  0  0  0  0  0  0  0  0  0  0  0
    7.1683  -11.4711   27.1956 C   0  0  0  0  0  0  0  0  0  0  0  0
    7.5895  -11.2795   25.8970 C   0  0  0  0  0  0  0  0  0  0  0  0
    7.5052  -12.3439   25.0272 C   0  0  0  0  0  0  0  0  0  0  0  0
    7.0167  -13.5608   25.4382 C   0  0  0  0  0  0  0  0  0  0  0  0
    9.2395  -16.1626   23.6570 C   0  0  0  0  0  0  0  0  0  0  0  0
    9.1620  -16.1538   24.9396 O   0  0  0  0  0  0  0  0  0  0  0  0
   10.1848  -20.2097   22.4237 C   0  0  0  0  0  0  0  0  0  0  0  0
   11.2333  -19.3415   23.1105 C   0  0  1  0  0  0  0  0  0  0  0  0
   11.8971  -18.6483   22.1000 O   0  0  0  0  0  0  0  0  0  0  0  0
   10.5437  -18.2875   23.9744 C   0  0  2  0  0  0  0  0  0  0  0  0
    9.9124  -17.2811   23.1332 N   0  0  0  0  0  0  0  0  0  0  0  0
   11.6167  -17.6451   24.7568 C   0  0  0  0  0  0  0  0  0  0  0  0
   11.9544  -16.4403   24.6537 O   0  0  0  0  0  0  0  0  0  0  0  0
   12.3551  -18.3887   25.7090 O   0  0  0  0  0  0  0  0  0  0  0  0
  2  1  1  6
  3  2  1  0
  3  4  1  0
  4  5  2  0
  5  6  1  0
  7  6  1  0
  8  4  1  0
  8  7  2  0
  9 10  2  0
  9  2  1  0
 11  9  1  0
 12 11  1  0
 13 14  1  0
 12 13  1  1
 14 15  2  0
 14 22  1  0
 15 16  1  0
 16 17  1  0
 17 18  2  0
 18 19  1  0
 20 19  2  0
 21 20  1  0
 22 21  2  0
 22 17  1  0
 23 29  1  0
 23 12  1  0
 24 23  2  0
 26 28  1  0
 26 25  1  6
 27 26  1  0
 28 29  1  6
 28 30  1  0
 30 32  1  0
 31 30  2  0
M  END
$$$$
