HWT.pdb
     RDKit          3D

 32 34  0  0  1  0  0  0  0  0999 V2000
   10.6716  -16.5167   18.3320 N   0  0  0  0  0  0  0  0  0  0  0  0
    9.5601  -16.9438   19.1609 C   0  0  1  0  0  0  0  0  0  0  0  0
    9.5046  -18.4599   19.1103 C   0  0  0  0  0  0  0  0  0  0  0  0
    8.4241  -18.8433   18.1744 C   0  0  0  0  0  0  0  0  0  0  0  0
    8.5009  -18.6919   16.8041 C   0  0  0  0  0  0  0  0  0  0  0  0
    7.3421  -19.1462   16.2896 N   0  0  0  0  0  0  0  0  0  0  0  0
    6.5422  -19.5769   17.2909 C   0  0  0  0  0  0  0  0  0  0  0  0
    7.2219  -19.3832   18.4348 N   0  0  0  0  0  0  0  0  0  0  0  0
    9.6606  -16.4274   20.5350 C   0  0  0  0  0  0  0  0  0  0  0  0
   10.8154  -16.1347   20.9883 O   0  0  0  0  0  0  0  0  0  0  0  0
    8.4913  -16.2679   21.3147 N   0  0  0  0  0  0  0  0  0  0  0  0
    8.5547  -15.7094   22.6713 C   0  0  1  0  0  0  0  0  0  0  0  0
    7.1439  -15.3093   23.0082 C   0  0  0  0  0  0  0  0  0  0  0  0
    6.8974  -14.9283   24.3983 C   0  0  0  0  0  0  0  0  0  0  0  0
    6.4007  -15.6847   25.4207 C   0  0  0  0  0  0  0  0  0  0  0  0
    6.3138  -14.9292   26.5298 N   0  0  0  0  0  0  0  0  0  0  0  0
    6.7435  -13.6852   26.2631 C   0  0  0  0  0  0  0  0  0  0  0  0
    6.8751  -12.5225   26.9982 C   0  0  0  0  0  0  0  0  0  0  0  0
    7.3663  -11.3758   26.4020 C   0  0  0  0  0  0  0  0  0  0  0  0
    7.7324  -11.3666   25.0730 C   0  0  0  0  0  0  0  0  0  0  0  0
    7.5940  -12.5349   24.3570 C   0  0  0  0  0  0  0  0  0  0  0  0
    7.1062  -13.6763   24.9466 C   0  0  0  0  0  0  0  0  0  0  0  0
    9.0641  -16.6836   23.6238 C   0  0  0  0  0  0  0  0  0  0  0  0
    8.4859  -17.8310   23.6403 O   0  0  0  0  0  0  0  0  0  0  0  0
   12.1016  -18.6614   23.6648 C   0  0  0  0  0  0  0  0  0  0  0  0
   12.0270  -18.0126   25.0426 C   0  0  1  0  0  0  0  0  0  0  0  0
   12.7049  -16.7988   24.9460 O   0  0  0  0  0  0  0  0  0  0  0  0
   10.5756  -17.6701   25.3728 C   0  0  2  0  0  0  0  0  0  0  0  0
   10.1189  -16.5623   24.5462 N   0  0  0  0  0  0  0  0  0  0  0  0
   10.5758  -17.2393   26.7837 C   0  0  0  0  0  0  0  0  0  0  0  0
   10.3654  -16.0645   27.1733 O   0  0  0  0  0  0  0  0  0  0  0  0
   10.8245  -18.1721   27.8195 O   0  0  0  0  0  0  0  0  0  0  0  0
  2  1  1  6
  3  2  1  0
  3  4  1  0
  4  5  2  0
  5  6  1  0
  7  6  1  0
  8  4  1  0
  8  7  2  0
  9 10  2  0
  9  2  1  0
 11  9  1  0
 12 11  1  0
 13 14  1  0
 12 13  1  1
 14 15  2  0
 14 22  1  0
 15 16  1  0
 16 17  1  0
 17 18  2  0
 18 19  1  0
 20 19  2  0
 21 20  1  0
 22 21  2  0
 22 17  1  0
 23 29  1  0
 23 12  1  0
 24 23  2  0
 26 28  1  0
 26 25  1  6
 27 26  1  0
 28 29  1  6
 28 30  1  0
 30 32  1  0
 31 30  2  0
M  END
$$$$
