HWT.pdb
     RDKit          3D

 32 34  0  0  1  0  0  0  0  0999 V2000
    7.8182  -16.2430   20.7892 N   0  0  0  0  0  0  0  0  0  0  0  0
    8.9690  -15.3894   21.0173 C   0  0  1  0  0  0  0  0  0  0  0  0
    8.6007  -13.9893   20.5611 C   0  0  0  0  0  0  0  0  0  0  0  0
    8.3073  -14.0470   19.1115 C   0  0  0  0  0  0  0  0  0  0  0  0
    8.3759  -15.2007   18.3562 C   0  0  0  0  0  0  0  0  0  0  0  0
    8.0442  -14.8684   17.0939 N   0  0  0  0  0  0  0  0  0  0  0  0
    7.7701  -13.5458   17.0329 C   0  0  0  0  0  0  0  0  0  0  0  0
    7.9367  -13.0621   18.2765 N   0  0  0  0  0  0  0  0  0  0  0  0
    9.4207  -15.4274   22.4170 C   0  0  0  0  0  0  0  0  0  0  0  0
   10.3764  -14.6594   22.7654 O   0  0  0  0  0  0  0  0  0  0  0  0
    8.7948  -16.3023   23.3356 N   0  0  0  0  0  0  0  0  0  0  0  0
    9.3061  -16.4583   24.7031 C   0  0  1  0  0  0  0  0  0  0  0  0
    8.0971  -16.3850   25.5957 C   0  0  0  0  0  0  0  0  0  0  0  0
    7.2191  -15.2326   25.3970 C   0  0  0  0  0  0  0  0  0  0  0  0
    6.0561  -15.1517   24.6864 C   0  0  0  0  0  0  0  0  0  0  0  0
    5.5858  -13.8933   24.7470 N   0  0  0  0  0  0  0  0  0  0  0  0
    6.4147  -13.1369   25.4846 C   0  0  0  0  0  0  0  0  0  0  0  0
    6.4355  -11.8111   25.8735 C   0  0  0  0  0  0  0  0  0  0  0  0
    7.4681  -11.3339   26.6594 C   0  0  0  0  0  0  0  0  0  0  0  0
    8.4909  -12.1625   27.0689 C   0  0  0  0  0  0  0  0  0  0  0  0
    8.4526  -13.4805   26.6713 C   0  0  0  0  0  0  0  0  0  0  0  0
    7.4277  -13.9579   25.8903 C   0  0  0  0  0  0  0  0  0  0  0  0
   10.0029  -17.7244   24.8688 C   0  0  0  0  0  0  0  0  0  0  0  0
    9.2802  -18.7472   25.1561 O   0  0  0  0  0  0  0  0  0  0  0  0
   13.0802  -19.3008   22.7798 C   0  0  0  0  0  0  0  0  0  0  0  0
   13.2722  -19.4816   24.2816 C   0  0  1  0  0  0  0  0  0  0  0  0
   14.0639  -18.4180   24.7106 O   0  0  0  0  0  0  0  0  0  0  0  0
   11.9294  -19.3337   24.9941 C   0  0  2  0  0  0  0  0  0  0  0  0
   11.3756  -18.0088   24.7551 N   0  0  0  0  0  0  0  0  0  0  0  0
   12.2212  -19.4721   26.4335 C   0  0  0  0  0  0  0  0  0  0  0  0
   12.0883  -18.5563   27.2820 O   0  0  0  0  0  0  0  0  0  0  0  0
   12.6879  -20.7023   26.9568 O   0  0  0  0  0  0  0  0  0  0  0  0
  2  1  1  1
  3  2  1  0
  3  4  1  0
  4  5  2  0
  5  6  1  0
  7  6  1  0
  8  4  1  0
  8  7  2  0
  9 10  2  0
  9  2  1  0
 11  9  1  0
 12 11  1  0
 13 14  1  0
 12 13  1  1
 14 15  2  0
 14 22  1  0
 15 16  1  0
 16 17  1  0
 17 18  2  0
 18 19  1  0
 20 19  2  0
 21 20  1  0
 22 21  2  0
 22 17  1  0
 23 29  1  0
 23 12  1  0
 24 23  2  0
 26 28  1  0
 26 25  1  6
 27 26  1  0
 28 29  1  1
 28 30  1  0
 30 32  1  0
 31 30  2  0
M  END
$$$$
