HWT.pdb
     RDKit          3D

 32 34  0  0  1  0  0  0  0  0999 V2000
   10.7961  -15.3384   20.3540 N   0  0  0  0  0  0  0  0  0  0  0  0
    9.8771  -16.2162   21.0539 C   0  0  1  0  0  0  0  0  0  0  0  0
   10.0473  -17.6115   20.4809 C   0  0  0  0  0  0  0  0  0  0  0  0
    9.2188  -17.7039   19.2580 C   0  0  0  0  0  0  0  0  0  0  0  0
    8.3032  -16.7450   18.8726 C   0  0  0  0  0  0  0  0  0  0  0  0
    7.7470  -17.1681   17.7213 N   0  0  0  0  0  0  0  0  0  0  0  0
    8.2831  -18.3593   17.3725 C   0  0  0  0  0  0  0  0  0  0  0  0
    9.1805  -18.6693   18.3247 N   0  0  0  0  0  0  0  0  0  0  0  0
   10.0714  -16.1762   22.5118 C   0  0  0  0  0  0  0  0  0  0  0  0
   11.2082  -15.8148   22.9609 O   0  0  0  0  0  0  0  0  0  0  0  0
    9.0088  -16.5342   23.3740 N   0  0  0  0  0  0  0  0  0  0  0  0
    9.1754  -16.5117   24.8328 C   0  0  1  0  0  0  0  0  0  0  0  0
    7.7835  -16.4107   25.3953 C   0  0  0  0  0  0  0  0  0  0  0  0
    7.0827  -15.1496   25.1569 C   0  0  0  0  0  0  0  0  0  0  0  0
    6.0757  -14.8803   24.2752 C   0  0  0  0  0  0  0  0  0  0  0  0
    5.7407  -13.5812   24.3678 N   0  0  0  0  0  0  0  0  0  0  0  0
    6.5063  -12.9827   25.2946 C   0  0  0  0  0  0  0  0  0  0  0  0
    6.6025  -11.6987   25.7961 C   0  0  0  0  0  0  0  0  0  0  0  0
    7.5290  -11.4047   26.7794 C   0  0  0  0  0  0  0  0  0  0  0  0
    8.3701  -12.3771   27.2769 C   0  0  0  0  0  0  0  0  0  0  0  0
    8.2591  -13.6507   26.7646 C   0  0  0  0  0  0  0  0  0  0  0  0
    7.3392  -13.9461   25.7875 C   0  0  0  0  0  0  0  0  0  0  0  0
    9.8469  -17.7107   25.3096 C   0  0  0  0  0  0  0  0  0  0  0  0
   10.2999  -18.5129   24.4140 O   0  0  0  0  0  0  0  0  0  0  0  0
   12.3291  -18.7841   24.9632 C   0  0  0  0  0  0  0  0  0  0  0  0
   12.3372  -19.0811   26.4588 C   0  0  1  0  0  0  0  0  0  0  0  0
   12.8017  -17.9281   27.0890 O   0  0  0  0  0  0  0  0  0  0  0  0
   10.9065  -19.2934   26.9495 C   0  0  2  0  0  0  0  0  0  0  0  0
   10.0869  -18.1338   26.6293 N   0  0  0  0  0  0  0  0  0  0  0  0
   10.9995  -19.4168   28.4166 C   0  0  0  0  0  0  0  0  0  0  0  0
   10.5504  -18.5776   29.2352 O   0  0  0  0  0  0  0  0  0  0  0  0
   11.6290  -20.5407   29.0044 O   0  0  0  0  0  0  0  0  0  0  0  0
  2  1  1  6
  3  2  1  0
  3  4  1  0
  4  5  2  0
  5  6  1  0
  7  6  1  0
  8  4  1  0
  8  7  2  0
  9 10  2  0
  9  2  1  0
 11  9  1  0
 12 11  1  0
 13 14  1  0
 12 13  1  1
 14 15  2  0
 14 22  1  0
 15 16  1  0
 16 17  1  0
 17 18  2  0
 18 19  1  0
 20 19  2  0
 21 20  1  0
 22 21  2  0
 22 17  1  0
 23 29  1  0
 23 12  1  0
 24 23  2  0
 26 28  1  0
 26 25  1  6
 27 26  1  0
 28 29  1  1
 28 30  1  0
 30 32  1  0
 31 30  2  0
M  END
$$$$
