HWT.pdb
     RDKit          3D

 32 34  0  0  1  0  0  0  0  0999 V2000
    8.5944  -17.2287   21.1229 N   0  0  0  0  0  0  0  0  0  0  0  0
    9.3646  -16.0445   21.4539 C   0  0  1  0  0  0  0  0  0  0  0  0
    8.6603  -14.8503   20.8358 C   0  0  0  0  0  0  0  0  0  0  0  0
    8.5102  -15.1122   19.3868 C   0  0  0  0  0  0  0  0  0  0  0  0
    9.5507  -15.0556   18.4811 C   0  0  0  0  0  0  0  0  0  0  0  0
    9.0391  -15.3503   17.2706 N   0  0  0  0  0  0  0  0  0  0  0  0
    7.7134  -15.5894   17.3874 C   0  0  0  0  0  0  0  0  0  0  0  0
    7.4100  -15.4388   18.6887 N   0  0  0  0  0  0  0  0  0  0  0  0
    9.5610  -15.8964   22.9045 C   0  0  0  0  0  0  0  0  0  0  0  0
   10.2452  -14.9064   23.3244 O   0  0  0  0  0  0  0  0  0  0  0  0
    8.9951  -16.8415   23.7919 N   0  0  0  0  0  0  0  0  0  0  0  0
    9.2875  -16.8009   25.2303 C   0  0  1  0  0  0  0  0  0  0  0  0
    7.9470  -16.7652   25.9127 C   0  0  0  0  0  0  0  0  0  0  0  0
    7.1167  -15.5927   25.6398 C   0  0  0  0  0  0  0  0  0  0  0  0
    5.9235  -15.5203   24.9802 C   0  0  0  0  0  0  0  0  0  0  0  0
    5.5187  -14.2386   24.9352 N   0  0  0  0  0  0  0  0  0  0  0  0
    6.4207  -13.4586   25.5526 C   0  0  0  0  0  0  0  0  0  0  0  0
    6.5260  -12.1039   25.8039 C   0  0  0  0  0  0  0  0  0  0  0  0
    7.6201  -11.6074   26.4880 C   0  0  0  0  0  0  0  0  0  0  0  0
    8.6215  -12.4451   26.9308 C   0  0  0  0  0  0  0  0  0  0  0  0
    8.4986  -13.7920   26.6709 C   0  0  0  0  0  0  0  0  0  0  0  0
    7.4124  -14.2885   25.9913 C   0  0  0  0  0  0  0  0  0  0  0  0
   10.0571  -17.9620   25.6492 C   0  0  0  0  0  0  0  0  0  0  0  0
    9.3942  -19.0343   25.8979 O   0  0  0  0  0  0  0  0  0  0  0  0
   13.7860  -19.1685   24.4948 C   0  0  0  0  0  0  0  0  0  0  0  0
   13.5646  -19.3101   25.9967 C   0  0  1  0  0  0  0  0  0  0  0  0
   14.0723  -18.1520   26.5828 O   0  0  0  0  0  0  0  0  0  0  0  0
   12.0673  -19.3242   26.2976 C   0  0  2  0  0  0  0  0  0  0  0  0
   11.4464  -18.0963   25.8223 N   0  0  0  0  0  0  0  0  0  0  0  0
   11.9537  -19.3738   27.7676 C   0  0  0  0  0  0  0  0  0  0  0  0
   11.4814  -18.4544   28.4803 O   0  0  0  0  0  0  0  0  0  0  0  0
   12.3915  -20.5141   28.4838 O   0  0  0  0  0  0  0  0  0  0  0  0
  2  1  1  1
  3  2  1  0
  3  4  1  0
  4  5  2  0
  5  6  1  0
  7  6  1  0
  8  4  1  0
  8  7  2  0
  9 10  2  0
  9  2  1  0
 11  9  1  0
 12 11  1  0
 13 14  1  0
 12 13  1  1
 14 15  2  0
 14 22  1  0
 15 16  1  0
 16 17  1  0
 17 18  2  0
 18 19  1  0
 20 19  2  0
 21 20  1  0
 22 21  2  0
 22 17  1  0
 23 29  1  0
 23 12  1  0
 24 23  2  0
 26 28  1  0
 26 25  1  6
 27 26  1  0
 28 29  1  1
 28 30  1  0
 30 32  1  0
 31 30  2  0
M  END
$$$$
