HWT.pdb
     RDKit          3D

 32 34  0  0  1  0  0  0  0  0999 V2000
    9.9417  -16.2699   18.6437 N   0  0  0  0  0  0  0  0  0  0  0  0
   10.1080  -17.1510   19.7843 C   0  0  1  0  0  0  0  0  0  0  0  0
   11.4293  -17.8788   19.6144 C   0  0  0  0  0  0  0  0  0  0  0  0
   11.3799  -18.6151   18.3314 C   0  0  0  0  0  0  0  0  0  0  0  0
   10.7583  -19.8369   18.1669 C   0  0  0  0  0  0  0  0  0  0  0  0
   10.9176  -20.1923   16.8776 N   0  0  0  0  0  0  0  0  0  0  0  0
   11.6178  -19.2346   16.2290 C   0  0  0  0  0  0  0  0  0  0  0  0
   11.8908  -18.2793   17.1353 N   0  0  0  0  0  0  0  0  0  0  0  0
   10.0212  -16.4280   21.0628 C   0  0  0  0  0  0  0  0  0  0  0  0
   10.9694  -15.6357   21.3753 O   0  0  0  0  0  0  0  0  0  0  0  0
    8.9037  -16.6232   21.9078 N   0  0  0  0  0  0  0  0  0  0  0  0
    8.8204  -15.9669   23.2186 C   0  0  1  0  0  0  0  0  0  0  0  0
    7.3887  -15.5254   23.3574 C   0  0  0  0  0  0  0  0  0  0  0  0
    7.0015  -14.9978   24.6651 C   0  0  0  0  0  0  0  0  0  0  0  0
    6.3355  -15.6226   25.6800 C   0  0  0  0  0  0  0  0  0  0  0  0
    6.1654  -14.7589   26.6968 N   0  0  0  0  0  0  0  0  0  0  0  0
    6.7060  -13.5723   26.3760 C   0  0  0  0  0  0  0  0  0  0  0  0
    6.8248  -12.3525   27.0143 C   0  0  0  0  0  0  0  0  0  0  0  0
    7.4598  -11.2981   26.3847 C   0  0  0  0  0  0  0  0  0  0  0  0
    7.9839  -11.4385   25.1174 C   0  0  0  0  0  0  0  0  0  0  0  0
    7.8557  -12.6617   24.4976 C   0  0  0  0  0  0  0  0  0  0  0  0
    7.2253  -13.7117   25.1207 C   0  0  0  0  0  0  0  0  0  0  0  0
    9.1946  -16.8742   24.2922 C   0  0  0  0  0  0  0  0  0  0  0  0
    8.5593  -17.9894   24.3526 O   0  0  0  0  0  0  0  0  0  0  0  0
   12.0363  -19.0096   24.8295 C   0  0  0  0  0  0  0  0  0  0  0  0
   11.8905  -18.2401   26.1378 C   0  0  1  0  0  0  0  0  0  0  0  0
   12.6885  -17.1037   26.0200 O   0  0  0  0  0  0  0  0  0  0  0  0
   10.4537  -17.7438   26.2860 C   0  0  2  0  0  0  0  0  0  0  0  0
   10.1702  -16.7177   25.2931 N   0  0  0  0  0  0  0  0  0  0  0  0
   10.3748  -17.1378   27.6287 C   0  0  0  0  0  0  0  0  0  0  0  0
   10.2079  -15.9138   27.8528 O   0  0  0  0  0  0  0  0  0  0  0  0
   10.4882  -17.9429   28.7880 O   0  0  0  0  0  0  0  0  0  0  0  0
  2  1  1  6
  3  2  1  0
  3  4  1  0
  4  5  2  0
  5  6  1  0
  7  6  1  0
  8  4  1  0
  8  7  2  0
  9 10  2  0
  9  2  1  0
 11  9  1  0
 12 11  1  0
 13 14  1  0
 12 13  1  1
 14 15  2  0
 14 22  1  0
 15 16  1  0
 16 17  1  0
 17 18  2  0
 18 19  1  0
 20 19  2  0
 21 20  1  0
 22 21  2  0
 22 17  1  0
 23 29  1  0
 23 12  1  0
 24 23  2  0
 26 28  1  0
 26 25  1  6
 27 26  1  0
 28 29  1  6
 28 30  1  0
 30 32  1  0
 31 30  2  0
M  END
$$$$
