HWT.pdb
     RDKit          3D

 32 34  0  0  1  0  0  0  0  0999 V2000
    8.1030  -13.4639   20.4067 N   0  0  0  0  0  0  0  0  0  0  0  0
    8.2531  -14.8760   20.7039 C   0  0  1  0  0  0  0  0  0  0  0  0
    9.0280  -15.5067   19.5611 C   0  0  0  0  0  0  0  0  0  0  0  0
    8.2795  -15.2512   18.3101 C   0  0  0  0  0  0  0  0  0  0  0  0
    7.1114  -15.9009   17.9639 C   0  0  0  0  0  0  0  0  0  0  0  0
    6.7242  -15.4111   16.7706 N   0  0  0  0  0  0  0  0  0  0  0  0
    7.6099  -14.4768   16.3576 C   0  0  0  0  0  0  0  0  0  0  0  0
    8.5529  -14.3940   17.3126 N   0  0  0  0  0  0  0  0  0  0  0  0
    8.8880  -15.1046   22.0114 C   0  0  0  0  0  0  0  0  0  0  0  0
    9.8692  -14.3628   22.3454 O   0  0  0  0  0  0  0  0  0  0  0  0
    8.4044  -16.1279   22.8598 N   0  0  0  0  0  0  0  0  0  0  0  0
    9.0037  -16.3655   24.1791 C   0  0  1  0  0  0  0  0  0  0  0  0
    7.8447  -16.5043   25.1285 C   0  0  0  0  0  0  0  0  0  0  0  0
    7.0291  -15.3070   25.3283 C   0  0  0  0  0  0  0  0  0  0  0  0
    5.7237  -15.0914   24.9914 C   0  0  0  0  0  0  0  0  0  0  0  0
    5.3780  -13.8381   25.3354 N   0  0  0  0  0  0  0  0  0  0  0  0
    6.4294  -13.2175   25.8944 C   0  0  0  0  0  0  0  0  0  0  0  0
    6.6498  -11.9586   26.4198 C   0  0  0  0  0  0  0  0  0  0  0  0
    7.8902  -11.6277   26.9333 C   0  0  0  0  0  0  0  0  0  0  0  0
    8.9256  -12.5379   26.9325 C   0  0  0  0  0  0  0  0  0  0  0  0
    8.6865  -13.7873   26.4047 C   0  0  0  0  0  0  0  0  0  0  0  0
    7.4548  -14.1193   25.8937 C   0  0  0  0  0  0  0  0  0  0  0  0
    9.8278  -17.5641   24.1805 C   0  0  0  0  0  0  0  0  0  0  0  0
    9.2732  -18.6458   23.7641 O   0  0  0  0  0  0  0  0  0  0  0  0
   12.9823  -18.5184   22.3788 C   0  0  0  0  0  0  0  0  0  0  0  0
   13.1994  -18.8819   23.8436 C   0  0  1  0  0  0  0  0  0  0  0  0
   13.8466  -17.7956   24.4296 O   0  0  0  0  0  0  0  0  0  0  0  0
   11.8503  -19.0103   24.5479 C   0  0  2  0  0  0  0  0  0  0  0  0
   11.1695  -17.7238   24.5709 N   0  0  0  0  0  0  0  0  0  0  0  0
   12.1576  -19.4081   25.9348 C   0  0  0  0  0  0  0  0  0  0  0  0
   11.9710  -18.6857   26.9445 O   0  0  0  0  0  0  0  0  0  0  0  0
   12.7040  -20.6847   26.2116 O   0  0  0  0  0  0  0  0  0  0  0  0
  2  1  1  6
  3  2  1  0
  3  4  1  0
  4  5  2  0
  5  6  1  0
  7  6  1  0
  8  4  1  0
  8  7  2  0
  9 10  2  0
  9  2  1  0
 11  9  1  0
 12 11  1  0
 13 14  1  0
 12 13  1  1
 14 15  2  0
 14 22  1  0
 15 16  1  0
 16 17  1  0
 17 18  2  0
 18 19  1  0
 20 19  2  0
 21 20  1  0
 22 21  2  0
 22 17  1  0
 23 29  1  0
 23 12  1  0
 24 23  2  0
 26 28  1  0
 26 25  1  6
 27 26  1  0
 28 29  1  1
 28 30  1  0
 30 32  1  0
 31 30  2  0
M  END
$$$$
