HWT.pdb
     RDKit          3D

 32 34  0  0  1  0  0  0  0  0999 V2000
    8.4120  -13.0816   20.7524 N   0  0  0  0  0  0  0  0  0  0  0  0
    8.3880  -14.5013   21.0507 C   0  0  1  0  0  0  0  0  0  0  0  0
    9.1127  -15.2197   19.9268 C   0  0  0  0  0  0  0  0  0  0  0  0
    8.4376  -14.8717   18.6565 C   0  0  0  0  0  0  0  0  0  0  0  0
    7.5220  -13.8466   18.5253 C   0  0  0  0  0  0  0  0  0  0  0  0
    7.1267  -13.8305   17.2379 N   0  0  0  0  0  0  0  0  0  0  0  0
    7.7635  -14.8106   16.5583 C   0  0  0  0  0  0  0  0  0  0  0  0
    8.5602  -15.4354   17.4433 N   0  0  0  0  0  0  0  0  0  0  0  0
    8.9582  -14.8012   22.3735 C   0  0  0  0  0  0  0  0  0  0  0  0
   10.0233  -14.1956   22.7247 O   0  0  0  0  0  0  0  0  0  0  0  0
    8.3227  -15.7418   23.2175 N   0  0  0  0  0  0  0  0  0  0  0  0
    8.8802  -16.0780   24.5336 C   0  0  1  0  0  0  0  0  0  0  0  0
    7.6919  -16.2951   25.4306 C   0  0  0  0  0  0  0  0  0  0  0  0
    6.8686  -15.1180   25.7046 C   0  0  0  0  0  0  0  0  0  0  0  0
    5.5132  -14.9791   25.6176 C   0  0  0  0  0  0  0  0  0  0  0  0
    5.1752  -13.7171   25.9363 N   0  0  0  0  0  0  0  0  0  0  0  0
    6.2809  -13.0152   26.2334 C   0  0  0  0  0  0  0  0  0  0  0  0
    6.5323  -11.7120   26.6176 C   0  0  0  0  0  0  0  0  0  0  0  0
    7.8295  -11.2951   26.8527 C   0  0  0  0  0  0  0  0  0  0  0  0
    8.8915  -12.1625   26.7103 C   0  0  0  0  0  0  0  0  0  0  0  0
    8.6208  -13.4572   26.3267 C   0  0  0  0  0  0  0  0  0  0  0  0
    7.3327  -13.8746   26.0924 C   0  0  0  0  0  0  0  0  0  0  0  0
    9.7123  -17.2694   24.4697 C   0  0  0  0  0  0  0  0  0  0  0  0
    9.2099  -18.2927   23.8769 O   0  0  0  0  0  0  0  0  0  0  0  0
   12.8386  -18.2165   22.7817 C   0  0  0  0  0  0  0  0  0  0  0  0
   13.0343  -18.6470   24.2313 C   0  0  1  0  0  0  0  0  0  0  0  0
   13.7028  -17.6029   24.8678 O   0  0  0  0  0  0  0  0  0  0  0  0
   11.6764  -18.7717   24.9194 C   0  0  2  0  0  0  0  0  0  0  0  0
   11.0130  -17.4767   24.9631 N   0  0  0  0  0  0  0  0  0  0  0  0
   11.9643  -19.2028   26.3005 C   0  0  0  0  0  0  0  0  0  0  0  0
   11.6759  -18.5451   27.3304 O   0  0  0  0  0  0  0  0  0  0  0  0
   12.6107  -20.4382   26.5474 O   0  0  0  0  0  0  0  0  0  0  0  0
  2  1  1  6
  3  2  1  0
  3  4  1  0
  4  5  2  0
  5  6  1  0
  7  6  1  0
  8  4  1  0
  8  7  2  0
  9 10  2  0
  9  2  1  0
 11  9  1  0
 12 11  1  0
 13 14  1  0
 12 13  1  1
 14 15  2  0
 14 22  1  0
 15 16  1  0
 16 17  1  0
 17 18  2  0
 18 19  1  0
 20 19  2  0
 21 20  1  0
 22 21  2  0
 22 17  1  0
 23 29  1  0
 23 12  1  0
 24 23  2  0
 26 28  1  0
 26 25  1  6
 27 26  1  0
 28 29  1  1
 28 30  1  0
 30 32  1  0
 31 30  2  0
M  END
$$$$
