HWT.pdb
     RDKit          3D

 32 34  0  0  1  0  0  0  0  0999 V2000
    8.2108  -17.4436   18.7503 N   0  0  0  0  0  0  0  0  0  0  0  0
    9.1610  -16.3501   18.8305 C   0  0  1  0  0  0  0  0  0  0  0  0
    8.7841  -15.3344   17.7672 C   0  0  0  0  0  0  0  0  0  0  0  0
    8.8599  -16.0066   16.4508 C   0  0  0  0  0  0  0  0  0  0  0  0
   10.0309  -16.1818   15.7406 C   0  0  0  0  0  0  0  0  0  0  0  0
    9.7115  -16.8275   14.6027 N   0  0  0  0  0  0  0  0  0  0  0  0
    8.3804  -17.0627   14.5759 C   0  0  0  0  0  0  0  0  0  0  0  0
    7.8782  -16.5532   15.7146 N   0  0  0  0  0  0  0  0  0  0  0  0
    9.2198  -15.7624   20.1781 C   0  0  0  0  0  0  0  0  0  0  0  0
   10.1013  -14.8720   20.4118 O   0  0  0  0  0  0  0  0  0  0  0  0
    8.3103  -16.1903   21.1734 N   0  0  0  0  0  0  0  0  0  0  0  0
    8.4319  -15.7270   22.5614 C   0  0  1  0  0  0  0  0  0  0  0  0
    7.0205  -15.5486   23.0512 C   0  0  0  0  0  0  0  0  0  0  0  0
    6.8692  -15.1743   24.4568 C   0  0  0  0  0  0  0  0  0  0  0  0
    6.4395  -15.9345   25.5062 C   0  0  0  0  0  0  0  0  0  0  0  0
    6.4301  -15.1847   26.6226 N   0  0  0  0  0  0  0  0  0  0  0  0
    6.8456  -13.9408   26.3341 C   0  0  0  0  0  0  0  0  0  0  0  0
    7.0306  -12.7826   27.0646 C   0  0  0  0  0  0  0  0  0  0  0  0
    7.4850  -11.6343   26.4428 C   0  0  0  0  0  0  0  0  0  0  0  0
    7.7610  -11.6191   25.0923 C   0  0  0  0  0  0  0  0  0  0  0  0
    7.5704  -12.7831   24.3812 C   0  0  0  0  0  0  0  0  0  0  0  0
    7.1191  -13.9260   24.9963 C   0  0  0  0  0  0  0  0  0  0  0  0
    9.1528  -16.6881   23.3814 C   0  0  0  0  0  0  0  0  0  0  0  0
    8.7202  -17.8979   23.3669 O   0  0  0  0  0  0  0  0  0  0  0  0
   12.4203  -18.2083   23.1133 C   0  0  0  0  0  0  0  0  0  0  0  0
   12.3465  -17.7518   24.5662 C   0  0  1  0  0  0  0  0  0  0  0  0
   12.9305  -16.4873   24.6142 O   0  0  0  0  0  0  0  0  0  0  0  0
   10.8864  -17.5674   24.9746 C   0  0  2  0  0  0  0  0  0  0  0  0
   10.2788  -16.4940   24.2016 N   0  0  0  0  0  0  0  0  0  0  0  0
   10.9139  -17.1707   26.3953 C   0  0  0  0  0  0  0  0  0  0  0  0
   10.5374  -16.0565   26.8346 O   0  0  0  0  0  0  0  0  0  0  0  0
   11.3883  -18.0680   27.3825 O   0  0  0  0  0  0  0  0  0  0  0  0
  2  1  1  1
  3  2  1  0
  3  4  1  0
  4  5  2  0
  5  6  1  0
  7  6  1  0
  8  4  1  0
  8  7  2  0
  9 10  2  0
  9  2  1  0
 11  9  1  0
 12 11  1  0
 13 14  1  0
 12 13  1  1
 14 15  2  0
 14 22  1  0
 15 16  1  0
 16 17  1  0
 17 18  2  0
 18 19  1  0
 20 19  2  0
 21 20  1  0
 22 21  2  0
 22 17  1  0
 23 29  1  0
 23 12  1  0
 24 23  2  0
 26 28  1  0
 26 25  1  6
 27 26  1  0
 28 29  1  6
 28 30  1  0
 30 32  1  0
 31 30  2  0
M  END
$$$$
