HWT.pdb
     RDKit          3D

 32 34  0  0  1  0  0  0  0  0999 V2000
   11.9494  -16.6824   20.0218 N   0  0  0  0  0  0  0  0  0  0  0  0
   10.6987  -17.0502   20.6586 C   0  0  1  0  0  0  0  0  0  0  0  0
   10.5916  -18.5640   20.6219 C   0  0  0  0  0  0  0  0  0  0  0  0
   10.1638  -18.9556   19.2602 C   0  0  0  0  0  0  0  0  0  0  0  0
   10.6096  -18.3432   18.1058 C   0  0  0  0  0  0  0  0  0  0  0  0
   10.0098  -18.9629   17.0713 N   0  0  0  0  0  0  0  0  0  0  0  0
    9.2035  -19.9425   17.5385 C   0  0  0  0  0  0  0  0  0  0  0  0
    9.3119  -19.9216   18.8787 N   0  0  0  0  0  0  0  0  0  0  0  0
   10.5886  -16.5086   22.0221 C   0  0  0  0  0  0  0  0  0  0  0  0
   11.6614  -16.2928   22.6758 O   0  0  0  0  0  0  0  0  0  0  0  0
    9.3135  -16.2418   22.5732 N   0  0  0  0  0  0  0  0  0  0  0  0
    9.1619  -15.8537   23.9812 C   0  0  1  0  0  0  0  0  0  0  0  0
    7.7075  -15.5069   24.1487 C   0  0  0  0  0  0  0  0  0  0  0  0
    7.3838  -14.6051   25.2535 C   0  0  0  0  0  0  0  0  0  0  0  0
    6.1831  -14.0426   25.5791 C   0  0  0  0  0  0  0  0  0  0  0  0
    6.3399  -13.2560   26.6585 N   0  0  0  0  0  0  0  0  0  0  0  0
    7.6223  -13.2857   27.0560 C   0  0  0  0  0  0  0  0  0  0  0  0
    8.3390  -12.6899   28.0761 C   0  0  0  0  0  0  0  0  0  0  0  0
    9.6924  -12.9383   28.2111 C   0  0  0  0  0  0  0  0  0  0  0  0
   10.3513  -13.7783   27.3390 C   0  0  0  0  0  0  0  0  0  0  0  0
    9.6199  -14.3627   26.3288 C   0  0  0  0  0  0  0  0  0  0  0  0
    8.2747  -14.1179   26.1920 C   0  0  0  0  0  0  0  0  0  0  0  0
    9.5486  -16.9343   24.8750 C   0  0  0  0  0  0  0  0  0  0  0  0
    8.9812  -18.0713   24.6844 O   0  0  0  0  0  0  0  0  0  0  0  0
   12.0555  -19.2579   24.9936 C   0  0  0  0  0  0  0  0  0  0  0  0
   12.0910  -18.7004   26.4124 C   0  0  1  0  0  0  0  0  0  0  0  0
   12.9992  -17.6433   26.3999 O   0  0  0  0  0  0  0  0  0  0  0  0
   10.7325  -18.0968   26.7628 C   0  0  2  0  0  0  0  0  0  0  0  0
   10.4723  -16.9276   25.9355 N   0  0  0  0  0  0  0  0  0  0  0  0
   10.8350  -17.6673   28.1704 C   0  0  0  0  0  0  0  0  0  0  0  0
   10.8685  -16.4721   28.5533 O   0  0  0  0  0  0  0  0  0  0  0  0
   10.9039  -18.6256   29.2105 O   0  0  0  0  0  0  0  0  0  0  0  0
  2  1  1  1
  3  2  1  0
  3  4  1  0
  4  5  2  0
  5  6  1  0
  7  6  1  0
  8  4  1  0
  8  7  2  0
  9 10  2  0
  9  2  1  0
 11  9  1  0
 12 11  1  0
 13 14  1  0
 12 13  1  6
 14 15  2  0
 14 22  1  0
 15 16  1  0
 16 17  1  0
 17 18  2  0
 18 19  1  0
 20 19  2  0
 21 20  1  0
 22 21  2  0
 22 17  1  0
 23 29  1  0
 23 12  1  0
 24 23  2  0
 26 28  1  0
 26 25  1  6
 27 26  1  0
 28 29  1  6
 28 30  1  0
 30 32  1  0
 31 30  2  0
M  END
$$$$
