HWT.pdb
     RDKit          3D

 32 34  0  0  1  0  0  0  0  0999 V2000
    7.9287  -15.9234   20.6629 N   0  0  0  0  0  0  0  0  0  0  0  0
    9.2009  -16.4878   21.0725 C   0  0  1  0  0  0  0  0  0  0  0  0
   10.2739  -15.9066   20.1697 C   0  0  0  0  0  0  0  0  0  0  0  0
   10.6758  -16.9574   19.2080 C   0  0  0  0  0  0  0  0  0  0  0  0
   10.7995  -18.2936   19.5329 C   0  0  0  0  0  0  0  0  0  0  0  0
   11.1779  -18.9403   18.4138 N   0  0  0  0  0  0  0  0  0  0  0  0
   11.2953  -18.0546   17.3990 C   0  0  0  0  0  0  0  0  0  0  0  0
   10.9841  -16.8483   17.9052 N   0  0  0  0  0  0  0  0  0  0  0  0
    9.4774  -16.2584   22.4993 C   0  0  0  0  0  0  0  0  0  0  0  0
   10.3496  -15.3837   22.8135 O   0  0  0  0  0  0  0  0  0  0  0  0
    8.7802  -17.0019   23.4802 N   0  0  0  0  0  0  0  0  0  0  0  0
    9.1026  -16.8656   24.9062 C   0  0  1  0  0  0  0  0  0  0  0  0
    7.7771  -16.7589   25.6101 C   0  0  0  0  0  0  0  0  0  0  0  0
    7.0245  -15.5260   25.3821 C   0  0  0  0  0  0  0  0  0  0  0  0
    5.8690  -15.3432   24.6784 C   0  0  0  0  0  0  0  0  0  0  0  0
    5.5359  -14.0405   24.7032 N   0  0  0  0  0  0  0  0  0  0  0  0
    6.4486  -13.3548   25.4103 C   0  0  0  0  0  0  0  0  0  0  0  0
    6.6146  -12.0276   25.7573 C   0  0  0  0  0  0  0  0  0  0  0  0
    7.7006  -11.6396   26.5199 C   0  0  0  0  0  0  0  0  0  0  0  0
    8.6339  -12.5598   26.9473 C   0  0  0  0  0  0  0  0  0  0  0  0
    8.4514  -13.8777   26.5914 C   0  0  0  0  0  0  0  0  0  0  0  0
    7.3729  -14.2665   25.8337 C   0  0  0  0  0  0  0  0  0  0  0  0
    9.8622  -18.0075   25.3909 C   0  0  0  0  0  0  0  0  0  0  0  0
    9.2785  -19.1512   25.3419 O   0  0  0  0  0  0  0  0  0  0  0  0
   13.0977  -19.3813   24.1787 C   0  0  0  0  0  0  0  0  0  0  0  0
   13.2060  -19.3932   25.6996 C   0  0  1  0  0  0  0  0  0  0  0  0
   13.8766  -18.2253   26.0581 O   0  0  0  0  0  0  0  0  0  0  0  0
   11.8120  -19.2958   26.3160 C   0  0  2  0  0  0  0  0  0  0  0  0
   11.1680  -18.0545   25.9114 N   0  0  0  0  0  0  0  0  0  0  0  0
   12.0198  -19.2671   27.7762 C   0  0  0  0  0  0  0  0  0  0  0  0
   12.4953  -20.2137   28.4501 O   0  0  0  0  0  0  0  0  0  0  0  0
   11.6778  -18.1170   28.5280 O   0  0  0  0  0  0  0  0  0  0  0  0
  2  1  1  6
  3  2  1  0
  3  4  1  0
  4  5  2  0
  5  6  1  0
  7  6  1  0
  8  4  1  0
  8  7  2  0
  9 10  2  0
  9  2  1  0
 11  9  1  0
 12 11  1  0
 13 14  1  0
 12 13  1  1
 14 15  2  0
 14 22  1  0
 15 16  1  0
 16 17  1  0
 17 18  2  0
 18 19  1  0
 20 19  2  0
 21 20  1  0
 22 21  2  0
 22 17  1  0
 23 29  1  0
 23 12  1  0
 24 23  2  0
 26 28  1  0
 26 25  1  6
 27 26  1  0
 28 29  1  6
 28 30  1  0
 30 32  1  0
 31 30  2  0
M  END
$$$$
