HWT.pdb
     RDKit          3D

 32 34  0  0  1  0  0  0  0  0999 V2000
    9.3409  -16.0190   19.9082 N   0  0  0  0  0  0  0  0  0  0  0  0
    9.9120  -17.0639   20.7373 C   0  0  1  0  0  0  0  0  0  0  0  0
   11.2325  -17.4764   20.1125 C   0  0  0  0  0  0  0  0  0  0  0  0
   10.9541  -17.9617   18.7423 C   0  0  0  0  0  0  0  0  0  0  0  0
   10.4137  -19.2000   18.4577 C   0  0  0  0  0  0  0  0  0  0  0  0
   10.3051  -19.2867   17.1180 N   0  0  0  0  0  0  0  0  0  0  0  0
   10.7591  -18.1448   16.5539 C   0  0  0  0  0  0  0  0  0  0  0  0
   11.1511  -17.3480   17.5637 N   0  0  0  0  0  0  0  0  0  0  0  0
   10.0569  -16.6438   22.1399 C   0  0  0  0  0  0  0  0  0  0  0  0
   11.0108  -15.8531   22.4391 O   0  0  0  0  0  0  0  0  0  0  0  0
    9.1485  -17.1184   23.1147 N   0  0  0  0  0  0  0  0  0  0  0  0
    9.2883  -16.7441   24.5276 C   0  0  1  0  0  0  0  0  0  0  0  0
    7.9025  -16.3793   24.9863 C   0  0  0  0  0  0  0  0  0  0  0  0
    7.3773  -15.1049   24.4979 C   0  0  0  0  0  0  0  0  0  0  0  0
    6.8423  -14.8081   23.2773 C   0  0  0  0  0  0  0  0  0  0  0  0
    6.5076  -13.5060   23.2445 N   0  0  0  0  0  0  0  0  0  0  0  0
    6.8103  -12.9326   24.4205 C   0  0  0  0  0  0  0  0  0  0  0  0
    6.6921  -11.6579   24.9407 C   0  0  0  0  0  0  0  0  0  0  0  0
    7.1146  -11.3920   26.2301 C   0  0  0  0  0  0  0  0  0  0  0  0
    7.6583  -12.3836   27.0185 C   0  0  0  0  0  0  0  0  0  0  0  0
    7.7679  -13.6475   26.4824 C   0  0  0  0  0  0  0  0  0  0  0  0
    7.3488  -13.9150   25.2013 C   0  0  0  0  0  0  0  0  0  0  0  0
    9.8293  -17.8397   25.3168 C   0  0  0  0  0  0  0  0  0  0  0  0
    9.0610  -18.8533   25.4995 O   0  0  0  0  0  0  0  0  0  0  0  0
   13.3160  -19.6031   25.0138 C   0  0  0  0  0  0  0  0  0  0  0  0
   12.9964  -19.3959   26.4902 C   0  0  1  0  0  0  0  0  0  0  0  0
   13.6352  -18.2177   26.8722 O   0  0  0  0  0  0  0  0  0  0  0  0
   11.4990  -19.1495   26.6634 C   0  0  2  0  0  0  0  0  0  0  0  0
   11.0939  -17.9657   25.9193 N   0  0  0  0  0  0  0  0  0  0  0  0
   11.2978  -18.8957   28.1027 C   0  0  0  0  0  0  0  0  0  0  0  0
   11.4671  -19.7468   29.0100 O   0  0  0  0  0  0  0  0  0  0  0  0
   10.8841  -17.6197   28.5561 O   0  0  0  0  0  0  0  0  0  0  0  0
  2  1  1  6
  3  2  1  0
  3  4  1  0
  4  5  2  0
  5  6  1  0
  7  6  1  0
  8  4  1  0
  8  7  2  0
  9 10  2  0
  9  2  1  0
 11  9  1  0
 12 11  1  0
 13 14  1  0
 12 13  1  1
 14 15  2  0
 14 22  1  0
 15 16  1  0
 16 17  1  0
 17 18  2  0
 18 19  1  0
 20 19  2  0
 21 20  1  0
 22 21  2  0
 22 17  1  0
 23 29  1  0
 23 12  1  0
 24 23  2  0
 26 28  1  0
 26 25  1  6
 27 26  1  0
 28 29  1  6
 28 30  1  0
 30 32  1  0
 31 30  2  0
M  END
$$$$
