IMS.pdb
     RDKit          3D

 23 22  0  0  1  0  0  0  0  0999 V2000
    7.3619  -19.1291   18.4099 C   0  0  0  0  0  0  0  0  0  0  0  0
    7.3789  -17.6222   18.5430 C   0  0  0  0  0  0  0  0  0  0  0  0
    7.9470  -17.2161   19.8893 C   0  0  2  0  0  0  0  0  0  0  0  0
    7.1962  -17.9856   20.9577 C   0  0  0  0  0  0  0  0  0  0  0  0
    7.8971  -15.7380   20.1065 C   0  0  2  0  0  0  0  0  0  0  0  0
    8.6507  -15.1315   19.0026 N   0  0  0  0  0  0  0  0  0  0  0  0
    8.4465  -15.2894   21.4030 C   0  0  0  0  0  0  0  0  0  0  0  0
    9.6924  -15.3420   21.5676 O   0  0  0  0  0  0  0  0  0  0  0  0
    6.5826  -11.3871   28.0032 C   0  0  0  0  0  0  0  0  0  0  0  0
    6.2645  -11.8417   26.2739 S   0  0  0  0  0  0  0  0  0  0  0  0
    7.4775  -13.1781   25.8706 C   0  0  0  0  0  0  0  0  0  0  0  0
    7.2640  -13.5222   24.4557 C   0  0  0  0  0  0  0  0  0  0  0  0
    8.2145  -14.4788   23.8036 C   0  0  2  0  0  0  0  0  0  0  0  0
    7.6780  -14.8110   22.4591 N   0  0  0  0  0  0  0  0  0  0  0  0
    8.5218  -15.6946   24.5485 C   0  0  0  0  0  0  0  0  0  0  0  0
    7.6192  -16.5639   24.8410 O   0  0  0  0  0  0  0  0  0  0  0  0
   12.3717  -17.0066   25.0152 O   0  0  0  0  0  0  0  0  0  0  0  0
   11.3168  -17.8995   25.0735 C   0  0  0  0  0  0  0  0  0  0  0  0
   10.0955  -17.2754   25.7212 C   0  0  2  0  0  0  0  0  0  0  0  0
    9.8152  -16.0447   25.0155 N   0  0  0  0  0  0  0  0  0  0  0  0
   10.2485  -17.0991   27.1580 C   0  0  0  0  0  0  0  0  0  0  0  0
   10.5189  -18.1840   27.9650 O   0  0  0  0  0  0  0  0  0  0  0  0
   10.1375  -15.9688   27.6775 O   0  0  0  0  0  0  0  0  0  0  0  0
  2  1  1  0
  3  4  1  1
  3  2  1  0
  5  3  1  0
  5  6  1  6
  7  8  2  0
  7  5  1  0
 10 11  1  0
 10  9  1  0
 11 12  1  0
 13 12  1  1
 13 14  1  0
 14  7  1  0
 15 13  1  0
 16 15  2  0
 18 17  1  0
 19 18  1  6
 19 21  1  0
 19 20  1  0
 20 15  1  0
 21 22  1  0
 23 21  2  0
M  END
$$$$
