IMS.pdb
     RDKit          3D

 23 22  0  0  1  0  0  0  0  0999 V2000
    7.6931  -11.9764   19.3313 C   0  0  0  0  0  0  0  0  0  0  0  0
    7.3962  -13.2747   20.0491 C   0  0  0  0  0  0  0  0  0  0  0  0
    8.5371  -14.2562   19.8613 C   0  0  2  0  0  0  0  0  0  0  0  0
    8.6456  -14.5593   18.3802 C   0  0  0  0  0  0  0  0  0  0  0  0
    8.3688  -15.4905   20.6875 C   0  0  2  0  0  0  0  0  0  0  0  0
    6.9560  -15.8730   20.5777 N   0  0  0  0  0  0  0  0  0  0  0  0
    8.7431  -15.3335   22.1084 C   0  0  0  0  0  0  0  0  0  0  0  0
    9.9644  -15.2270   22.3902 O   0  0  0  0  0  0  0  0  0  0  0  0
    7.1862  -11.2820   27.1025 C   0  0  0  0  0  0  0  0  0  0  0  0
    6.0836  -12.7250   27.0950 S   0  0  0  0  0  0  0  0  0  0  0  0
    7.1593  -14.1820   26.7212 C   0  0  0  0  0  0  0  0  0  0  0  0
    7.0733  -14.4024   25.2687 C   0  0  0  0  0  0  0  0  0  0  0  0
    8.2088  -15.1004   24.5851 C   0  0  2  0  0  0  0  0  0  0  0  0
    7.8347  -15.2953   23.1611 N   0  0  0  0  0  0  0  0  0  0  0  0
    8.6455  -16.3593   25.1782 C   0  0  0  0  0  0  0  0  0  0  0  0
    7.9080  -17.4138   25.1645 O   0  0  0  0  0  0  0  0  0  0  0  0
   11.4591  -18.2072   24.3416 O   0  0  0  0  0  0  0  0  0  0  0  0
   11.5819  -18.2457   25.7188 C   0  0  0  0  0  0  0  0  0  0  0  0
   10.2992  -17.8135   26.4034 C   0  0  2  0  0  0  0  0  0  0  0  0
    9.8990  -16.5553   25.8137 N   0  0  0  0  0  0  0  0  0  0  0  0
   10.4244  -17.7620   27.8528 C   0  0  0  0  0  0  0  0  0  0  0  0
   10.7725  -18.8936   28.5596 O   0  0  0  0  0  0  0  0  0  0  0  0
   10.2194  -16.6977   28.4733 O   0  0  0  0  0  0  0  0  0  0  0  0
  2  1  1  0
  3  4  1  6
  3  2  1  0
  5  3  1  0
  5  6  1  1
  7  8  2  0
  7  5  1  0
 10 11  1  0
 10  9  1  0
 11 12  1  0
 13 12  1  1
 13 14  1  0
 14  7  1  0
 15 13  1  0
 16 15  2  0
 18 17  1  0
 19 18  1  6
 19 21  1  0
 19 20  1  0
 20 15  1  0
 21 22  1  0
 23 21  2  0
M  END
$$$$
