IMS.pdb
     RDKit          3D

 23 22  0  0  1  0  0  0  0  0999 V2000
    6.9986  -22.5102   25.6860 C   0  0  0  0  0  0  0  0  0  0  0  0
    6.0746  -21.3335   25.4613 C   0  0  0  0  0  0  0  0  0  0  0  0
    6.8539  -20.1400   24.9430 C   0  0  2  0  0  0  0  0  0  0  0  0
    7.9790  -19.8642   25.9204 C   0  0  0  0  0  0  0  0  0  0  0  0
    5.9841  -18.9451   24.7191 C   0  0  2  0  0  0  0  0  0  0  0  0
    4.9829  -19.3426   23.7221 N   0  0  0  0  0  0  0  0  0  0  0  0
    6.7046  -17.7387   24.2619 C   0  0  0  0  0  0  0  0  0  0  0  0
    7.0803  -17.6930   23.0623 O   0  0  0  0  0  0  0  0  0  0  0  0
    7.2354  -12.2112   27.7042 C   0  0  0  0  0  0  0  0  0  0  0  0
    6.3214  -12.0652   26.1417 S   0  0  0  0  0  0  0  0  0  0  0  0
    6.2122  -13.7796   25.4571 C   0  0  0  0  0  0  0  0  0  0  0  0
    7.5674  -14.3478   25.5369 C   0  0  0  0  0  0  0  0  0  0  0  0
    7.8966  -15.5295   24.6772 C   0  0  2  0  0  0  0  0  0  0  0  0
    6.9980  -16.6449   25.0696 N   0  0  0  0  0  0  0  0  0  0  0  0
    9.2885  -15.9655   24.6821 C   0  0  0  0  0  0  0  0  0  0  0  0
    9.8385  -16.4854   25.7228 O   0  0  0  0  0  0  0  0  0  0  0  0
   11.7581  -15.7322   21.2747 O   0  0  0  0  0  0  0  0  0  0  0  0
   11.7257  -16.8677   22.0641 C   0  0  0  0  0  0  0  0  0  0  0  0
   11.4510  -16.5272   23.5164 C   0  0  2  0  0  0  0  0  0  0  0  0
   10.1633  -15.8712   23.5689 N   0  0  0  0  0  0  0  0  0  0  0  0
   12.5226  -15.7529   24.1255 C   0  0  0  0  0  0  0  0  0  0  0  0
   13.8124  -16.2406   24.1341 O   0  0  0  0  0  0  0  0  0  0  0  0
   12.2904  -14.6417   24.6462 O   0  0  0  0  0  0  0  0  0  0  0  0
  2  1  1  0
  3  4  1  1
  3  2  1  0
  5  3  1  0
  5  6  1  6
  7  8  2  0
  7  5  1  0
 10 11  1  0
 10  9  1  0
 11 12  1  0
 13 12  1  1
 13 14  1  0
 14  7  1  0
 15 13  1  0
 16 15  2  0
 18 17  1  0
 19 18  1  6
 19 21  1  0
 19 20  1  0
 20 15  1  0
 21 22  1  0
 23 21  2  0
M  END
$$$$
