IMS.pdb
     RDKit          3D

 23 22  0  0  1  0  0  0  0  0999 V2000
    8.6552  -13.9091   17.4060 C   0  0  0  0  0  0  0  0  0  0  0  0
    7.6025  -14.0832   18.4785 C   0  0  0  0  0  0  0  0  0  0  0  0
    8.2544  -14.2554   19.8371 C   0  0  2  0  0  0  0  0  0  0  0  0
    9.2885  -15.3568   19.7160 C   0  0  0  0  0  0  0  0  0  0  0  0
    7.2570  -14.5228   20.9180 C   0  0  2  0  0  0  0  0  0  0  0  0
    6.1274  -13.6183   20.6722 N   0  0  0  0  0  0  0  0  0  0  0  0
    7.7722  -14.3303   22.2895 C   0  0  0  0  0  0  0  0  0  0  0  0
    8.3574  -13.2490   22.5554 O   0  0  0  0  0  0  0  0  0  0  0  0
    7.3455  -11.4594   27.4791 C   0  0  0  0  0  0  0  0  0  0  0  0
    6.0381  -12.4059   26.6465 S   0  0  0  0  0  0  0  0  0  0  0  0
    6.8263  -13.1462   25.1463 C   0  0  0  0  0  0  0  0  0  0  0  0
    7.3787  -14.4450   25.5632 C   0  0  0  0  0  0  0  0  0  0  0  0
    8.3193  -15.1506   24.6351 C   0  0  2  0  0  0  0  0  0  0  0  0
    7.6549  -15.2662   23.3119 N   0  0  0  0  0  0  0  0  0  0  0  0
    8.8117  -16.4502   25.0777 C   0  0  0  0  0  0  0  0  0  0  0  0
    8.0626  -17.4964   25.0922 O   0  0  0  0  0  0  0  0  0  0  0  0
   12.8282  -17.2487   25.4110 O   0  0  0  0  0  0  0  0  0  0  0  0
   11.9100  -18.2548   25.1703 C   0  0  0  0  0  0  0  0  0  0  0  0
   10.6089  -18.0084   25.9099 C   0  0  2  0  0  0  0  0  0  0  0  0
   10.1357  -16.6976   25.5241 N   0  0  0  0  0  0  0  0  0  0  0  0
   10.7389  -18.1786   27.3498 C   0  0  0  0  0  0  0  0  0  0  0  0
   11.1971  -19.3710   27.8688 O   0  0  0  0  0  0  0  0  0  0  0  0
   10.4387  -17.2518   28.1313 O   0  0  0  0  0  0  0  0  0  0  0  0
  2  1  1  0
  3  4  1  6
  3  2  1  0
  5  3  1  0
  5  6  1  6
  7  8  2  0
  7  5  1  0
 10 11  1  0
 10  9  1  0
 11 12  1  0
 13 12  1  1
 13 14  1  0
 14  7  1  0
 15 13  1  0
 16 15  2  0
 18 17  1  0
 19 18  1  6
 19 21  1  0
 19 20  1  0
 20 15  1  0
 21 22  1  0
 23 21  2  0
M  END
$$$$
