IMS.pdb
     RDKit          3D

 23 22  0  0  1  0  0  0  0  0999 V2000
    7.1193  -16.7489   17.6083 C   0  0  0  0  0  0  0  0  0  0  0  0
    7.0244  -15.4002   18.2872 C   0  0  0  0  0  0  0  0  0  0  0  0
    7.6376  -15.4611   19.6731 C   0  0  2  0  0  0  0  0  0  0  0  0
    7.0421  -16.6571   20.3887 C   0  0  0  0  0  0  0  0  0  0  0  0
    7.4528  -14.1879   20.4344 C   0  0  2  0  0  0  0  0  0  0  0  0
    8.0123  -13.1199   19.5973 N   0  0  0  0  0  0  0  0  0  0  0  0
    8.0884  -14.1730   21.7684 C   0  0  0  0  0  0  0  0  0  0  0  0
    9.3397  -14.0579   21.8263 O   0  0  0  0  0  0  0  0  0  0  0  0
    7.3514  -11.5818   27.7282 C   0  0  0  0  0  0  0  0  0  0  0  0
    5.9041  -11.7247   26.6403 S   0  0  0  0  0  0  0  0  0  0  0  0
    6.5447  -12.3627   25.0271 C   0  0  0  0  0  0  0  0  0  0  0  0
    7.0769  -13.7089   25.2925 C   0  0  0  0  0  0  0  0  0  0  0  0
    8.0385  -14.3019   24.3089 C   0  0  2  0  0  0  0  0  0  0  0  0
    7.3960  -14.2779   22.9702 N   0  0  0  0  0  0  0  0  0  0  0  0
    8.5362  -15.6381   24.6157 C   0  0  0  0  0  0  0  0  0  0  0  0
    7.8053  -16.6883   24.4784 O   0  0  0  0  0  0  0  0  0  0  0  0
   12.0205  -18.7397   24.4074 O   0  0  0  0  0  0  0  0  0  0  0  0
   11.5135  -17.4549   24.3325 C   0  0  0  0  0  0  0  0  0  0  0  0
   10.3449  -17.2623   25.2800 C   0  0  2  0  0  0  0  0  0  0  0  0
    9.8465  -15.9194   25.0820 N   0  0  0  0  0  0  0  0  0  0  0  0
   10.6878  -17.5566   26.6638 C   0  0  0  0  0  0  0  0  0  0  0  0
   11.1830  -18.7969   27.0070 O   0  0  0  0  0  0  0  0  0  0  0  0
   10.5391  -16.6944   27.5550 O   0  0  0  0  0  0  0  0  0  0  0  0
  2  1  1  0
  3  4  1  1
  3  2  1  0
  5  3  1  0
  5  6  1  6
  7  8  2  0
  7  5  1  0
 10 11  1  0
 10  9  1  0
 11 12  1  0
 13 12  1  1
 13 14  1  0
 14  7  1  0
 15 13  1  0
 16 15  2  0
 18 17  1  0
 19 18  1  6
 19 21  1  0
 19 20  1  0
 20 15  1  0
 21 22  1  0
 23 21  2  0
M  END
$$$$
