IMS.pdb
     RDKit          3D

 23 22  0  0  1  0  0  0  0  0999 V2000
    6.9719  -19.1488   18.2311 C   0  0  0  0  0  0  0  0  0  0  0  0
    7.1451  -17.6568   18.4128 C   0  0  0  0  0  0  0  0  0  0  0  0
    7.6365  -17.3478   19.8140 C   0  0  2  0  0  0  0  0  0  0  0  0
    6.6329  -17.9249   20.7923 C   0  0  0  0  0  0  0  0  0  0  0  0
    7.8687  -15.8866   20.0272 C   0  0  2  0  0  0  0  0  0  0  0  0
    8.8093  -15.4603   18.9841 N   0  0  0  0  0  0  0  0  0  0  0  0
    8.3986  -15.5378   21.3618 C   0  0  0  0  0  0  0  0  0  0  0  0
    9.6137  -15.7660   21.5941 O   0  0  0  0  0  0  0  0  0  0  0  0
    6.5995  -11.6073   27.9707 C   0  0  0  0  0  0  0  0  0  0  0  0
    6.1648  -12.1845   26.3046 S   0  0  0  0  0  0  0  0  0  0  0  0
    7.4852  -13.3873   25.8251 C   0  0  0  0  0  0  0  0  0  0  0  0
    7.2325  -13.7462   24.4204 C   0  0  0  0  0  0  0  0  0  0  0  0
    8.1413  -14.7397   23.7640 C   0  0  2  0  0  0  0  0  0  0  0  0
    7.6437  -14.9723   22.3841 N   0  0  0  0  0  0  0  0  0  0  0  0
    8.3279  -16.0063   24.4628 C   0  0  0  0  0  0  0  0  0  0  0  0
    7.7334  -17.0858   24.0922 O   0  0  0  0  0  0  0  0  0  0  0  0
   10.9520  -18.6602   23.9665 O   0  0  0  0  0  0  0  0  0  0  0  0
   10.9002  -17.3691   24.4602 C   0  0  0  0  0  0  0  0  0  0  0  0
   10.0814  -17.2939   25.7348 C   0  0  2  0  0  0  0  0  0  0  0  0
    9.1660  -16.1833   25.5939 N   0  0  0  0  0  0  0  0  0  0  0  0
   10.9074  -17.2178   26.9310 C   0  0  0  0  0  0  0  0  0  0  0  0
   11.0232  -18.3099   27.7647 O   0  0  0  0  0  0  0  0  0  0  0  0
   11.5198  -16.1676   27.2175 O   0  0  0  0  0  0  0  0  0  0  0  0
  2  1  1  0
  3  4  1  1
  3  2  1  0
  5  3  1  0
  5  6  1  6
  7  8  2  0
  7  5  1  0
 10 11  1  0
 10  9  1  0
 11 12  1  0
 13 12  1  1
 13 14  1  0
 14  7  1  0
 15 13  1  0
 16 15  2  0
 18 17  1  0
 19 18  1  6
 19 21  1  0
 19 20  1  0
 20 15  1  0
 21 22  1  0
 23 21  2  0
M  END
$$$$
