IMS.pdb
     RDKit          3D

 23 22  0  0  1  0  0  0  0  0999 V2000
    8.2640  -16.4190   18.2753 C   0  0  0  0  0  0  0  0  0  0  0  0
    8.6651  -15.1823   19.0490 C   0  0  0  0  0  0  0  0  0  0  0  0
    7.4400  -14.3670   19.4160 C   0  0  2  0  0  0  0  0  0  0  0  0
    6.8001  -13.8906   18.1273 C   0  0  0  0  0  0  0  0  0  0  0  0
    7.7619  -13.2415   20.3456 C   0  0  2  0  0  0  0  0  0  0  0  0
    8.7431  -12.3989   19.6517 N   0  0  0  0  0  0  0  0  0  0  0  0
    8.2931  -13.6631   21.6586 C   0  0  0  0  0  0  0  0  0  0  0  0
    9.5416  -13.6998   21.8076 O   0  0  0  0  0  0  0  0  0  0  0  0
    7.0081  -11.5942   27.9688 C   0  0  0  0  0  0  0  0  0  0  0  0
    5.8532  -12.1206   26.6699 S   0  0  0  0  0  0  0  0  0  0  0  0
    6.8882  -12.4376   25.1705 C   0  0  0  0  0  0  0  0  0  0  0  0
    7.1218  -13.8899   25.1242 C   0  0  0  0  0  0  0  0  0  0  0  0
    8.0392  -14.4311   24.0709 C   0  0  2  0  0  0  0  0  0  0  0  0
    7.5049  -14.0241   22.7463 N   0  0  0  0  0  0  0  0  0  0  0  0
    8.2872  -15.8680   24.1051 C   0  0  0  0  0  0  0  0  0  0  0  0
    7.6146  -16.6953   23.3846 O   0  0  0  0  0  0  0  0  0  0  0  0
   11.4951  -18.2872   22.6787 O   0  0  0  0  0  0  0  0  0  0  0  0
   10.6820  -17.2709   23.1472 C   0  0  0  0  0  0  0  0  0  0  0  0
   10.0443  -17.6365   24.4739 C   0  0  2  0  0  0  0  0  0  0  0  0
    9.2735  -16.4936   24.9109 N   0  0  0  0  0  0  0  0  0  0  0  0
   11.0147  -18.0932   25.4582 C   0  0  0  0  0  0  0  0  0  0  0  0
   11.2401  -17.3583   26.6029 O   0  0  0  0  0  0  0  0  0  0  0  0
   11.6535  -19.1517   25.2806 O   0  0  0  0  0  0  0  0  0  0  0  0
  2  1  1  0
  3  4  1  6
  3  2  1  0
  5  3  1  0
  5  6  1  6
  7  8  2  0
  7  5  1  0
 10 11  1  0
 10  9  1  0
 11 12  1  0
 13 12  1  1
 13 14  1  0
 14  7  1  0
 15 13  1  0
 16 15  2  0
 18 17  1  0
 19 18  1  6
 19 21  1  0
 19 20  1  0
 20 15  1  0
 21 22  1  0
 23 21  2  0
M  END
$$$$
