IMS.pdb
     RDKit          3D

 23 22  0  0  1  0  0  0  0  0999 V2000
    8.5257  -19.8140   20.4172 C   0  0  0  0  0  0  0  0  0  0  0  0
    8.9313  -18.3653   20.2569 C   0  0  0  0  0  0  0  0  0  0  0  0
    7.7057  -17.4884   20.0853 C   0  0  2  0  0  0  0  0  0  0  0  0
    7.0051  -17.9192   18.8123 C   0  0  0  0  0  0  0  0  0  0  0  0
    8.0421  -16.0319   20.0890 C   0  0  2  0  0  0  0  0  0  0  0  0
    9.0403  -15.8347   19.0311 N   0  0  0  0  0  0  0  0  0  0  0  0
    8.5605  -15.5251   21.3767 C   0  0  0  0  0  0  0  0  0  0  0  0
    9.8069  -15.4283   21.5159 O   0  0  0  0  0  0  0  0  0  0  0  0
    6.4788  -11.5360   27.8330 C   0  0  0  0  0  0  0  0  0  0  0  0
    6.1018  -12.2121   26.1902 S   0  0  0  0  0  0  0  0  0  0  0  0
    7.4939  -13.3596   25.7835 C   0  0  0  0  0  0  0  0  0  0  0  0
    7.2547  -13.8360   24.4118 C   0  0  0  0  0  0  0  0  0  0  0  0
    8.2843  -14.7171   23.7735 C   0  0  2  0  0  0  0  0  0  0  0  0
    7.7622  -15.1462   22.4510 N   0  0  0  0  0  0  0  0  0  0  0  0
    8.7211  -15.8706   24.5519 C   0  0  0  0  0  0  0  0  0  0  0  0
    7.9600  -16.8889   24.7513 O   0  0  0  0  0  0  0  0  0  0  0  0
   12.6938  -16.7532   25.1679 O   0  0  0  0  0  0  0  0  0  0  0  0
   11.6785  -17.6922   25.1412 C   0  0  0  0  0  0  0  0  0  0  0  0
   10.4353  -17.1868   25.8480 C   0  0  2  0  0  0  0  0  0  0  0  0
    9.9998  -15.9950   25.1543 N   0  0  0  0  0  0  0  0  0  0  0  0
   10.6415  -16.9856   27.2749 C   0  0  0  0  0  0  0  0  0  0  0  0
   11.0982  -18.0212   28.0626 O   0  0  0  0  0  0  0  0  0  0  0  0
   10.4089  -15.8781   27.8032 O   0  0  0  0  0  0  0  0  0  0  0  0
  2  1  1  0
  3  4  1  6
  3  2  1  0
  5  3  1  0
  5  6  1  6
  7  8  2  0
  7  5  1  0
 10 11  1  0
 10  9  1  0
 11 12  1  0
 13 12  1  1
 13 14  1  0
 14  7  1  0
 15 13  1  0
 16 15  2  0
 18 17  1  0
 19 18  1  6
 19 21  1  0
 19 20  1  0
 20 15  1  0
 21 22  1  0
 23 21  2  0
M  END
$$$$
