PYY.pdb
     RDKit          3D

 32 34  0  0  1  0  0  0  0  0999 V2000
    7.9085  -19.0465   19.6984 N   0  0  0  0  0  0  0  0  0  0  0  0
    7.1440  -20.2608   19.5533 C   0  0  0  0  0  0  0  0  0  0  0  0
    6.6426  -20.6560   20.9041 C   0  0  0  0  0  0  0  0  0  0  0  0
    7.4294  -19.7256   21.8373 C   0  0  0  0  0  0  0  0  0  0  0  0
    7.5163  -18.4921   20.9546 C   0  0  1  0  0  0  0  0  0  0  0  0
    8.4575  -17.4855   21.4837 C   0  0  0  0  0  0  0  0  0  0  0  0
    9.6846  -17.6872   21.2889 O   0  0  0  0  0  0  0  0  0  0  0  0
    8.2230  -13.3205   16.4556 O   0  0  0  0  0  0  0  0  0  0  0  0
    8.2561  -13.4735   17.8415 C   0  0  0  0  0  0  0  0  0  0  0  0
    9.3597  -13.9431   18.4767 C   0  0  0  0  0  0  0  0  0  0  0  0
    9.3856  -14.0933   19.8614 C   0  0  0  0  0  0  0  0  0  0  0  0
    8.2945  -13.7721   20.6418 C   0  0  0  0  0  0  0  0  0  0  0  0
    8.3470  -13.9373   22.0924 C   0  0  0  0  0  0  0  0  0  0  0  0
    8.9798  -15.2391   22.5439 C   0  0  2  0  0  0  0  0  0  0  0  0
    8.0830  -16.3291   22.1829 N   0  0  0  0  0  0  0  0  0  0  0  0
    9.3201  -15.2570   23.9750 C   0  0  0  0  0  0  0  0  0  0  0  0
    9.4677  -14.2087   24.6549 O   0  0  0  0  0  0  0  0  0  0  0  0
    7.1860  -13.2980   19.9811 C   0  0  0  0  0  0  0  0  0  0  0  0
    7.1399  -13.1420   18.6119 C   0  0  0  0  0  0  0  0  0  0  0  0
    6.4302  -10.7984   26.9723 O   0  0  0  0  0  0  0  0  0  0  0  0
    6.7486  -12.1576   26.7736 C   0  0  0  0  0  0  0  0  0  0  0  0
    7.9438  -12.6789   27.2140 C   0  0  0  0  0  0  0  0  0  0  0  0
    8.2447  -14.0170   27.0123 C   0  0  0  0  0  0  0  0  0  0  0  0
    7.3769  -14.8710   26.3734 C   0  0  0  0  0  0  0  0  0  0  0  0
    7.6914  -16.2773   26.1600 C   0  0  0  0  0  0  0  0  0  0  0  0
    9.2025  -16.5642   26.1035 C   0  0  2  0  0  0  0  0  0  0  0  0
    9.4985  -16.4871   24.6647 N   0  0  0  0  0  0  0  0  0  0  0  0
    9.5251  -17.8619   26.6858 C   0  0  0  0  0  0  0  0  0  0  0  0
    9.6997  -17.9925   28.0497 O   0  0  0  0  0  0  0  0  0  0  0  0
    6.1844  -14.3428   25.9361 C   0  0  0  0  0  0  0  0  0  0  0  0
    5.8688  -12.9969   26.1327 C   0  0  0  0  0  0  0  0  0  0  0  0
    9.6505  -18.8803   25.9659 O   0  0  0  0  0  0  0  0  0  0  0  0
  1  5  1  0
  1  2  1  0
  2  3  1  0
  4  3  1  0
  5  4  1  0
  5  6  1  1
  7  6  2  0
  8  9  1  0
  9 10  2  0
 10 11  1  0
 12 13  1  0
 12 11  2  0
 14 13  1  1
 14 16  1  0
 14 15  1  0
 15  6  1  0
 16 17  2  0
 18 12  1  0
 19 18  2  0
 19  9  1  0
 21 22  2  0
 21 20  1  0
 23 22  1  0
 24 23  2  0
 26 25  1  6
 25 24  1  0
 27 26  1  0
 27 16  1  0
 28 29  1  0
 28 26  1  0
 30 24  1  0
 30 31  2  0
 31 21  1  0
 32 28  2  0
M  END
$$$$
