PYY.pdb
     RDKit          3D

 32 34  0  0  1  0  0  0  0  0999 V2000
-479553.03121907324.2500-4306783.5000 N   0  0  0  0  0  0  0  0  0  0  0  0
-479552.93751907325.6250-4306785.0000 C   0  0  0  0  0  0  0  0  0  0  0  0
-479552.12501907325.2500-4306784.0000 C   0  0  0  0  0  0  0  0  0  0  0  0
-479551.21881907326.8750-4306783.0000 C   0  0  0  0  0  0  0  0  0  0  0  0
-479551.56251907324.2500-4306784.5000 C   0  0  1  0  0  0  0  0  0  0  0  0
-479551.34381907323.2500-4306783.5000 C   0  0  0  0  0  0  0  0  0  0  0  0
-479550.71881907322.5000-4306784.5000 O   0  0  0  0  0  0  0  0  0  0  0  0
-479552.28121907319.0000-4306781.0000 O   0  0  0  0  0  0  0  0  0  0  0  0
-479552.75001907319.5000-4306782.0000 C   0  0  0  0  0  0  0  0  0  0  0  0
-479553.65621907321.0000-4306781.5000 C   0  0  0  0  0  0  0  0  0  0  0  0
-479554.46881907321.6250-4306780.5000 C   0  0  0  0  0  0  0  0  0  0  0  0
-479554.28121907322.5000-4306781.5000 C   0  0  0  0  0  0  0  0  0  0  0  0
-479553.46881907323.5000-4306781.5000 C   0  0  0  0  0  0  0  0  0  0  0  0
-479551.96881907323.1250-4306781.5000 C   0  0  1  0  0  0  0  0  0  0  0  0
-479551.21881907322.6250-4306781.0000 N   0  0  0  0  0  0  0  0  0  0  0  0
-479553.31251907322.7500-4306780.5000 C   0  0  0  0  0  0  0  0  0  0  0  0
-479552.93751907322.2500-4306779.0000 O   0  0  0  0  0  0  0  0  0  0  0  0
-479552.28121907322.3750-4306783.0000 C   0  0  0  0  0  0  0  0  0  0  0  0
-479552.62501907320.5000-4306782.5000 C   0  0  0  0  0  0  0  0  0  0  0  0
-479550.81251907319.0000-4306784.0000 O   0  0  0  0  0  0  0  0  0  0  0  0
-479553.43751907321.1250-4306782.5000 C   0  0  0  0  0  0  0  0  0  0  0  0
-479554.84381907321.3750-4306781.5000 C   0  0  0  0  0  0  0  0  0  0  0  0
-479553.59381907322.0000-4306782.5000 C   0  0  0  0  0  0  0  0  0  0  0  0
-479555.31251907321.2500-4306781.5000 C   0  0  0  0  0  0  0  0  0  0  0  0
-479556.15621907322.7500-4306780.5000 C   0  0  0  0  0  0  0  0  0  0  0  0
-479553.15621907320.3750-4306781.0000 C   0  0  2  0  0  0  0  0  0  0  0  0
-479552.50001907321.1250-4306781.0000 N   0  0  0  0  0  0  0  0  0  0  0  0
-479553.46881907320.5000-4306781.0000 C   0  0  0  0  0  0  0  0  0  0  0  0
-479555.06251907321.2500-4306779.0000 O   0  0  0  0  0  0  0  0  0  0  0  0
-479555.03121907321.3750-4306781.5000 C   0  0  0  0  0  0  0  0  0  0  0  0
-479555.06251907320.5000-4306783.0000 C   0  0  0  0  0  0  0  0  0  0  0  0
-479556.09381907320.0000-4306779.0000 O   0  0  0  0  0  0  0  0  0  0  0  0
  1  5  1  0
  1  2  1  0
  2  3  1  0
  4  3  1  0
  5  4  1  0
  5  6  1  1
  7  6  2  0
  8  9  1  0
  9 10  2  0
 10 11  1  0
 12 13  1  0
 12 11  2  0
 14 13  1  6
 14 16  1  0
 14 15  1  0
 15  6  1  0
 16 17  2  0
 18 12  1  0
 19 18  2  0
 19  9  1  0
 21 22  2  0
 21 20  1  0
 23 22  1  0
 24 23  2  0
 26 25  1  1
 25 24  1  0
 27 26  1  0
 27 16  1  0
 28 29  1  0
 28 26  1  0
 30 24  1  0
 30 31  2  0
 31 21  1  0
 32 28  2  0
M  END
$$$$
