PYY.pdb
     RDKit          3D

 32 34  0  0  1  0  0  0  0  0999 V2000
    7.6488  -16.1823   19.4444 N   0  0  0  0  0  0  0  0  0  0  0  0
    7.3424  -16.0777   18.0389 C   0  0  0  0  0  0  0  0  0  0  0  0
    8.0184  -14.8558   17.5078 C   0  0  0  0  0  0  0  0  0  0  0  0
    8.4793  -14.1463   18.7882 C   0  0  0  0  0  0  0  0  0  0  0  0
    8.7950  -15.3561   19.6513 C   0  0  1  0  0  0  0  0  0  0  0  0
    9.0250  -14.9960   21.0643 C   0  0  0  0  0  0  0  0  0  0  0  0
   10.1774  -14.5967   21.3756 O   0  0  0  0  0  0  0  0  0  0  0  0
    7.0918  -11.6184   29.0503 O   0  0  0  0  0  0  0  0  0  0  0  0
    7.0617  -12.1586   27.7648 C   0  0  0  0  0  0  0  0  0  0  0  0
    6.4116  -13.3199   27.4990 C   0  0  0  0  0  0  0  0  0  0  0  0
    6.3857  -13.8537   26.2125 C   0  0  0  0  0  0  0  0  0  0  0  0
    7.0174  -13.2263   25.1590 C   0  0  0  0  0  0  0  0  0  0  0  0
    6.9746  -13.8055   23.8185 C   0  0  0  0  0  0  0  0  0  0  0  0
    8.2258  -14.5716   23.4358 C   0  0  2  0  0  0  0  0  0  0  0  0
    8.0568  -15.0671   22.0762 N   0  0  0  0  0  0  0  0  0  0  0  0
    8.5601  -15.6512   24.3777 C   0  0  0  0  0  0  0  0  0  0  0  0
    7.8452  -16.6764   24.5227 O   0  0  0  0  0  0  0  0  0  0  0  0
    7.6705  -12.0513   25.4471 C   0  0  0  0  0  0  0  0  0  0  0  0
    7.7082  -11.5064   26.7131 C   0  0  0  0  0  0  0  0  0  0  0  0
   12.5829  -18.4898   20.3538 O   0  0  0  0  0  0  0  0  0  0  0  0
   12.3390  -18.0933   21.6848 C   0  0  0  0  0  0  0  0  0  0  0  0
   12.5642  -16.7983   22.0928 C   0  0  0  0  0  0  0  0  0  0  0  0
   12.3203  -16.4214   23.4045 C   0  0  0  0  0  0  0  0  0  0  0  0
   11.8499  -17.3097   24.3427 C   0  0  0  0  0  0  0  0  0  0  0  0
   11.5936  -16.9158   25.7215 C   0  0  0  0  0  0  0  0  0  0  0  0
   10.0993  -16.7196   26.0337 C   0  0  2  0  0  0  0  0  0  0  0  0
    9.7316  -15.5798   25.1796 N   0  0  0  0  0  0  0  0  0  0  0  0
    9.8754  -16.4676   27.4526 C   0  0  0  0  0  0  0  0  0  0  0  0
    9.4394  -15.2296   27.8828 O   0  0  0  0  0  0  0  0  0  0  0  0
   11.6272  -18.6022   23.9274 C   0  0  0  0  0  0  0  0  0  0  0  0
   11.8687  -18.9950   22.6095 C   0  0  0  0  0  0  0  0  0  0  0  0
   10.0726  -17.3630   28.3073 O   0  0  0  0  0  0  0  0  0  0  0  0
  1  5  1  0
  1  2  1  0
  2  3  1  0
  4  3  1  0
  5  4  1  0
  5  6  1  1
  7  6  2  0
  8  9  1  0
  9 10  2  0
 10 11  1  0
 12 13  1  0
 12 11  2  0
 14 13  1  1
 14 16  1  0
 14 15  1  0
 15  6  1  0
 16 17  2  0
 18 12  1  0
 19 18  2  0
 19  9  1  0
 21 22  2  0
 21 20  1  0
 23 22  1  0
 24 23  2  0
 26 25  1  1
 25 24  1  0
 27 26  1  0
 27 16  1  0
 28 29  1  0
 28 26  1  0
 30 24  1  0
 30 31  2  0
 31 21  1  0
 32 28  2  0
M  END
$$$$
