PYY.pdb
     RDKit          3D

 32 34  0  0  1  0  0  0  0  0999 V2000
    7.9739  -15.0244   18.4582 N   0  0  0  0  0  0  0  0  0  0  0  0
    7.4968  -14.7147   17.1328 C   0  0  0  0  0  0  0  0  0  0  0  0
    7.6517  -13.2445   16.9170 C   0  0  0  0  0  0  0  0  0  0  0  0
    7.9812  -12.7334   18.3262 C   0  0  0  0  0  0  0  0  0  0  0  0
    8.7844  -13.9141   18.8450 C   0  0  1  0  0  0  0  0  0  0  0  0
    9.0324  -13.8324   20.2979 C   0  0  0  0  0  0  0  0  0  0  0  0
   10.0671  -13.2203   20.6710 O   0  0  0  0  0  0  0  0  0  0  0  0
    7.3412  -12.9640   28.9365 O   0  0  0  0  0  0  0  0  0  0  0  0
    7.2721  -13.2119   27.5657 C   0  0  0  0  0  0  0  0  0  0  0  0
    7.5637  -12.2484   26.6555 C   0  0  0  0  0  0  0  0  0  0  0  0
    7.4926  -12.5032   25.2878 C   0  0  0  0  0  0  0  0  0  0  0  0
    7.1241  -13.7410   24.8034 C   0  0  0  0  0  0  0  0  0  0  0  0
    7.0582  -13.9837   23.3643 C   0  0  0  0  0  0  0  0  0  0  0  0
    8.4041  -14.2542   22.7207 C   0  0  2  0  0  0  0  0  0  0  0  0
    8.2023  -14.3848   21.2837 N   0  0  0  0  0  0  0  0  0  0  0  0
    9.0980  -15.4211   23.2876 C   0  0  0  0  0  0  0  0  0  0  0  0
    8.7322  -16.6051   23.0700 O   0  0  0  0  0  0  0  0  0  0  0  0
    6.8325  -14.7043   25.7400 C   0  0  0  0  0  0  0  0  0  0  0  0
    6.8968  -14.4726   27.0977 C   0  0  0  0  0  0  0  0  0  0  0  0
   13.4157  -15.0470   18.9332 O   0  0  0  0  0  0  0  0  0  0  0  0
   13.1602  -15.3237   20.2921 C   0  0  0  0  0  0  0  0  0  0  0  0
   13.2487  -14.3365   21.2469 C   0  0  0  0  0  0  0  0  0  0  0  0
   12.9949  -14.6218   22.5796 C   0  0  0  0  0  0  0  0  0  0  0  0
   12.6487  -15.8837   23.0017 C   0  0  0  0  0  0  0  0  0  0  0  0
   12.3822  -16.1857   24.4017 C   0  0  0  0  0  0  0  0  0  0  0  0
   10.8935  -16.4378   24.7002 C   0  0  2  0  0  0  0  0  0  0  0  0
   10.2370  -15.2554   24.1218 N   0  0  0  0  0  0  0  0  0  0  0  0
   10.6498  -16.5858   26.1305 C   0  0  0  0  0  0  0  0  0  0  0  0
   11.1601  -17.6693   26.8185 O   0  0  0  0  0  0  0  0  0  0  0  0
   12.5622  -16.8652   22.0417 C   0  0  0  0  0  0  0  0  0  0  0  0
   12.8152  -16.5914   20.6961 C   0  0  0  0  0  0  0  0  0  0  0  0
    9.9761  -15.7385   26.7626 O   0  0  0  0  0  0  0  0  0  0  0  0
  1  5  1  0
  1  2  1  0
  2  3  1  0
  4  3  1  0
  5  4  1  0
  5  6  1  1
  7  6  2  0
  8  9  1  0
  9 10  2  0
 10 11  1  0
 12 13  1  0
 12 11  2  0
 14 13  1  1
 14 16  1  0
 14 15  1  0
 15  6  1  0
 16 17  2  0
 18 12  1  0
 19 18  2  0
 19  9  1  0
 21 22  2  0
 21 20  1  0
 23 22  1  0
 24 23  2  0
 26 25  1  1
 25 24  1  0
 27 26  1  0
 27 16  1  0
 28 29  1  0
 28 26  1  0
 30 24  1  0
 30 31  2  0
 31 21  1  0
 32 28  2  0
M  END
$$$$
