PYY.pdb
     RDKit          3D

 32 34  0  0  1  0  0  0  0  0999 V2000
    7.5165  -18.7148   20.6189 N   0  0  0  0  0  0  0  0  0  0  0  0
    7.1443  -19.4564   19.4392 C   0  0  0  0  0  0  0  0  0  0  0  0
    7.8971  -18.8896   18.2798 C   0  0  0  0  0  0  0  0  0  0  0  0
    8.4892  -17.6001   18.8646 C   0  0  0  0  0  0  0  0  0  0  0  0
    8.7419  -18.0588   20.2908 C   0  0  1  0  0  0  0  0  0  0  0  0
    9.0802  -16.9392   21.1915 C   0  0  0  0  0  0  0  0  0  0  0  0
   10.2904  -16.5989   21.2561 O   0  0  0  0  0  0  0  0  0  0  0  0
    7.7992  -12.5361   17.0590 O   0  0  0  0  0  0  0  0  0  0  0  0
    7.7578  -12.8855   18.4087 C   0  0  0  0  0  0  0  0  0  0  0  0
    6.7301  -13.6076   18.9227 C   0  0  0  0  0  0  0  0  0  0  0  0
    6.6952  -13.9530   20.2718 C   0  0  0  0  0  0  0  0  0  0  0  0
    7.7003  -13.5767   21.1383 C   0  0  0  0  0  0  0  0  0  0  0  0
    7.6415  -13.9524   22.5489 C   0  0  0  0  0  0  0  0  0  0  0  0
    8.4861  -15.1609   22.9025 C   0  0  2  0  0  0  0  0  0  0  0  0
    8.1549  -16.2338   21.9740 N   0  0  0  0  0  0  0  0  0  0  0  0
    8.3433  -15.5826   24.3047 C   0  0  0  0  0  0  0  0  0  0  0  0
    7.2870  -15.4086   24.9658 O   0  0  0  0  0  0  0  0  0  0  0  0
    8.7328  -12.8459   20.5999 C   0  0  0  0  0  0  0  0  0  0  0  0
    8.7862  -12.4938   19.2679 C   0  0  0  0  0  0  0  0  0  0  0  0
    7.0804  -22.3444   29.2373 O   0  0  0  0  0  0  0  0  0  0  0  0
    7.3482  -21.2948   28.3346 C   0  0  0  0  0  0  0  0  0  0  0  0
    6.5713  -20.1590   28.3151 C   0  0  0  0  0  0  0  0  0  0  0  0
    6.8453  -19.1343   27.4225 C   0  0  0  0  0  0  0  0  0  0  0  0
    7.8890  -19.2046   26.5301 C   0  0  0  0  0  0  0  0  0  0  0  0
    8.1782  -18.1292   25.5910 C   0  0  0  0  0  0  0  0  0  0  0  0
    9.1357  -17.0649   26.1561 C   0  0  2  0  0  0  0  0  0  0  0  0
    9.4163  -16.2198   24.9853 N   0  0  0  0  0  0  0  0  0  0  0  0
   10.3342  -17.6691   26.7267 C   0  0  0  0  0  0  0  0  0  0  0  0
   10.3805  -17.9999   28.0669 O   0  0  0  0  0  0  0  0  0  0  0  0
    8.6611  -20.3428   26.5555 C   0  0  0  0  0  0  0  0  0  0  0  0
    8.3961  -21.3823   27.4494 C   0  0  0  0  0  0  0  0  0  0  0  0
   11.3422  -17.8996   26.0180 O   0  0  0  0  0  0  0  0  0  0  0  0
  1  5  1  0
  1  2  1  0
  2  3  1  0
  4  3  1  0
  5  4  1  0
  5  6  1  1
  7  6  2  0
  8  9  1  0
  9 10  2  0
 10 11  1  0
 12 13  1  0
 12 11  2  0
 14 13  1  6
 14 16  1  0
 14 15  1  0
 15  6  1  0
 16 17  2  0
 18 12  1  0
 19 18  2  0
 19  9  1  0
 21 22  2  0
 21 20  1  0
 23 22  1  0
 24 23  2  0
 26 25  1  6
 25 24  1  0
 27 26  1  0
 27 16  1  0
 28 29  1  0
 28 26  1  0
 30 24  1  0
 30 31  2  0
 31 21  1  0
 32 28  2  0
M  END
$$$$
