PYY.pdb
     RDKit          3D

 32 34  0  0  1  0  0  0  0  0999 V2000
    8.7857  -17.9916   20.4758 N   0  0  0  0  0  0  0  0  0  0  0  0
    8.7195  -18.4108   19.0974 C   0  0  0  0  0  0  0  0  0  0  0  0
    9.4468  -17.4006   18.2712 C   0  0  0  0  0  0  0  0  0  0  0  0
    9.6672  -16.2526   19.2656 C   0  0  0  0  0  0  0  0  0  0  0  0
    9.8605  -17.0536   20.5420 C   0  0  1  0  0  0  0  0  0  0  0  0
    9.8392  -16.2043   21.7492 C   0  0  0  0  0  0  0  0  0  0  0  0
   10.9475  -15.7957   22.1843 O   0  0  0  0  0  0  0  0  0  0  0  0
    6.7097  -10.5907   27.9222 O   0  0  0  0  0  0  0  0  0  0  0  0
    6.8486  -11.5075   26.8803 C   0  0  0  0  0  0  0  0  0  0  0  0
    7.5745  -11.2156   25.7714 C   0  0  0  0  0  0  0  0  0  0  0  0
    7.7090  -12.1362   24.7345 C   0  0  0  0  0  0  0  0  0  0  0  0
    7.1119  -13.3783   24.7916 C   0  0  0  0  0  0  0  0  0  0  0  0
    7.2689  -14.3269   23.6916 C   0  0  0  0  0  0  0  0  0  0  0  0
    8.6461  -14.9558   23.6094 C   0  0  2  0  0  0  0  0  0  0  0  0
    8.6797  -15.8239   22.4398 N   0  0  0  0  0  0  0  0  0  0  0  0
    9.0361  -15.6688   24.8358 C   0  0  0  0  0  0  0  0  0  0  0  0
    8.5850  -16.8036   25.1386 O   0  0  0  0  0  0  0  0  0  0  0  0
    6.3808  -13.6562   25.9222 C   0  0  0  0  0  0  0  0  0  0  0  0
    6.2354  -12.7593   26.9593 C   0  0  0  0  0  0  0  0  0  0  0  0
   12.9657  -20.9095   23.8845 O   0  0  0  0  0  0  0  0  0  0  0  0
   12.6919  -19.7169   24.5854 C   0  0  0  0  0  0  0  0  0  0  0  0
   11.9844  -19.7331   25.7657 C   0  0  0  0  0  0  0  0  0  0  0  0
   11.7219  -18.5534   26.4450 C   0  0  0  0  0  0  0  0  0  0  0  0
   12.1495  -17.3329   25.9781 C   0  0  0  0  0  0  0  0  0  0  0  0
   11.8743  -16.0921   26.6901 C   0  0  0  0  0  0  0  0  0  0  0  0
   10.3750  -15.8501   26.9399 C   0  0  2  0  0  0  0  0  0  0  0  0
    9.9609  -15.0928   25.7488 N   0  0  0  0  0  0  0  0  0  0  0  0
   10.1478  -15.1269   28.1859 C   0  0  0  0  0  0  0  0  0  0  0  0
   10.2440  -15.7782   29.4001 O   0  0  0  0  0  0  0  0  0  0  0  0
   12.8560  -17.3246   24.7978 C   0  0  0  0  0  0  0  0  0  0  0  0
   13.1273  -18.5054   24.1036 C   0  0  0  0  0  0  0  0  0  0  0  0
    9.8618  -13.9065   28.1822 O   0  0  0  0  0  0  0  0  0  0  0  0
  1  5  1  0
  1  2  1  0
  2  3  1  0
  4  3  1  0
  5  4  1  0
  5  6  1  1
  7  6  2  0
  8  9  1  0
  9 10  2  0
 10 11  1  0
 12 13  1  0
 12 11  2  0
 14 13  1  1
 14 16  1  0
 14 15  1  0
 15  6  1  0
 16 17  2  0
 18 12  1  0
 19 18  2  0
 19  9  1  0
 21 22  2  0
 21 20  1  0
 23 22  1  0
 24 23  2  0
 26 25  1  6
 25 24  1  0
 27 26  1  0
 27 16  1  0
 28 29  1  0
 28 26  1  0
 30 24  1  0
 30 31  2  0
 31 21  1  0
 32 28  2  0
M  END
$$$$
