PYY.pdb
     RDKit          3D

 32 34  0  0  1  0  0  0  0  0999 V2000
    8.3877  -18.8097   20.1798 N   0  0  0  0  0  0  0  0  0  0  0  0
    7.7889  -19.5747   19.1138 C   0  0  0  0  0  0  0  0  0  0  0  0
    7.2948  -18.6175   18.0785 C   0  0  0  0  0  0  0  0  0  0  0  0
    7.4117  -17.2640   18.7926 C   0  0  0  0  0  0  0  0  0  0  0  0
    8.6560  -17.5212   19.6256 C   0  0  1  0  0  0  0  0  0  0  0  0
    8.8839  -16.4709   20.6376 C   0  0  0  0  0  0  0  0  0  0  0  0
    9.7678  -15.6110   20.3848 O   0  0  0  0  0  0  0  0  0  0  0  0
    6.8048  -10.7230   27.1050 O   0  0  0  0  0  0  0  0  0  0  0  0
    6.8336  -11.7677   26.1813 C   0  0  0  0  0  0  0  0  0  0  0  0
    6.9939  -11.5360   24.8538 C   0  0  0  0  0  0  0  0  0  0  0  0
    7.0217  -12.5844   23.9369 C   0  0  0  0  0  0  0  0  0  0  0  0
    6.8878  -13.8971   24.3388 C   0  0  0  0  0  0  0  0  0  0  0  0
    6.9215  -14.9792   23.3578 C   0  0  0  0  0  0  0  0  0  0  0  0
    8.2990  -15.2528   22.7863 C   0  0  2  0  0  0  0  0  0  0  0  0
    8.1900  -16.3649   21.8514 N   0  0  0  0  0  0  0  0  0  0  0  0
    9.3202  -15.4977   23.8166 C   0  0  0  0  0  0  0  0  0  0  0  0
    9.0419  -15.6253   25.0370 O   0  0  0  0  0  0  0  0  0  0  0  0
    6.7263  -14.1125   25.6870 C   0  0  0  0  0  0  0  0  0  0  0  0
    6.6961  -13.0892   26.6106 C   0  0  0  0  0  0  0  0  0  0  0  0
    9.5600  -16.1524   30.5708 O   0  0  0  0  0  0  0  0  0  0  0  0
   10.0513  -16.3205   29.2598 C   0  0  0  0  0  0  0  0  0  0  0  0
   10.9922  -15.4620   28.7383 C   0  0  0  0  0  0  0  0  0  0  0  0
   11.4670  -15.6384   27.4478 C   0  0  0  0  0  0  0  0  0  0  0  0
   11.0269  -16.6624   26.6428 C   0  0  0  0  0  0  0  0  0  0  0  0
   11.5241  -16.8491   25.2863 C   0  0  0  0  0  0  0  0  0  0  0  0
   11.7197  -15.5290   24.5196 C   0  0  2  0  0  0  0  0  0  0  0  0
   10.6941  -15.6043   23.4679 N   0  0  0  0  0  0  0  0  0  0  0  0
   13.0739  -15.4100   23.9914 C   0  0  0  0  0  0  0  0  0  0  0  0
   13.3009  -15.4642   22.6300 O   0  0  0  0  0  0  0  0  0  0  0  0
   10.0865  -17.5164   27.1709 C   0  0  0  0  0  0  0  0  0  0  0  0
    9.5998  -17.3501   28.4691 C   0  0  0  0  0  0  0  0  0  0  0  0
   14.0551  -15.2571   24.7563 O   0  0  0  0  0  0  0  0  0  0  0  0
  1  5  1  0
  1  2  1  0
  2  3  1  0
  4  3  1  0
  5  4  1  0
  5  6  1  1
  7  6  2  0
  8  9  1  0
  9 10  2  0
 10 11  1  0
 12 13  1  0
 12 11  2  0
 14 13  1  1
 14 16  1  0
 14 15  1  0
 15  6  1  0
 16 17  2  0
 18 12  1  0
 19 18  2  0
 19  9  1  0
 21 22  2  0
 21 20  1  0
 23 22  1  0
 24 23  2  0
 26 25  1  6
 25 24  1  0
 27 26  1  0
 27 16  1  0
 28 29  1  0
 28 26  1  0
 30 24  1  0
 30 31  2  0
 31 21  1  0
 32 28  2  0
M  END
$$$$
