IFW.pdb
     RDKit          3D

 34 36  0  0  1  0  0  0  0  0999 V2000
   23.5657  -25.6832  -16.9934 C   0  0  0  0  0  0  0  0  0  0  0  0
   23.8645  -24.2168  -17.0547 C   0  0  0  0  0  0  0  0  0  0  0  0
   24.9161  -23.8747  -16.0387 C   0  0  2  0  0  0  0  0  0  0  0  0
   24.4823  -24.2259  -14.6467 C   0  0  0  0  0  0  0  0  0  0  0  0
   25.2682  -22.4027  -16.1853 C   0  0  2  0  0  0  0  0  0  0  0  0
   25.9689  -22.2474  -17.4827 N   0  0  0  0  0  0  0  0  0  0  0  0
   26.1583  -21.8980  -15.1440 C   0  0  0  0  0  0  0  0  0  0  0  0
   27.3780  -22.2805  -15.0832 O   0  0  0  0  0  0  0  0  0  0  0  0
   25.7861  -20.9570  -14.1197 N   0  0  0  0  0  0  0  0  0  0  0  0
   26.7425  -20.5860  -13.0839 C   0  0  1  0  0  0  0  0  0  0  0  0
   26.8795  -19.0720  -13.2220 C   0  0  0  0  0  0  0  0  0  0  0  0
   27.6033  -18.6517  -14.4383 C   0  0  0  0  0  0  0  0  0  0  0  0
   28.9346  -18.9443  -14.6386 C   0  0  0  0  0  0  0  0  0  0  0  0
   29.6252  -18.5669  -15.7965 C   0  0  0  0  0  0  0  0  0  0  0  0
   28.9537  -17.8791  -16.7733 C   0  0  0  0  0  0  0  0  0  0  0  0
   27.6289  -17.5742  -16.6010 C   0  0  0  0  0  0  0  0  0  0  0  0
   26.9567  -17.9538  -15.4483 C   0  0  0  0  0  0  0  0  0  0  0  0
   26.2289  -20.9004  -11.7443 C   0  0  0  0  0  0  0  0  0  0  0  0
   24.9727  -20.7776  -11.5547 O   0  0  0  0  0  0  0  0  0  0  0  0
   27.0333  -21.3329  -10.6533 N   0  0  0  0  0  0  0  0  0  0  0  0
   26.4296  -21.4923   -9.3274 C   0  0  1  0  0  0  0  0  0  0  0  0
   27.5605  -21.4103   -8.3309 C   0  0  0  0  0  0  0  0  0  0  0  0
   27.5528  -20.2205   -7.4860 C   0  0  0  0  0  0  0  0  0  0  0  0
   26.9048  -19.0102   -7.7055 C   0  0  0  0  0  0  0  0  0  0  0  0
   27.1784  -18.1993   -6.6719 N   0  0  0  0  0  0  0  0  0  0  0  0
   27.9750  -18.8384   -5.7971 C   0  0  0  0  0  0  0  0  0  0  0  0
   28.5405  -18.4858   -4.5753 C   0  0  0  0  0  0  0  0  0  0  0  0
   29.3264  -19.3621   -3.8609 C   0  0  0  0  0  0  0  0  0  0  0  0
   29.5858  -20.6341   -4.3337 C   0  0  0  0  0  0  0  0  0  0  0  0
   29.0226  -20.9752   -5.5449 C   0  0  0  0  0  0  0  0  0  0  0  0
   28.2300  -20.1065   -6.2753 C   0  0  0  0  0  0  0  0  0  0  0  0
   25.3430  -20.5502   -9.1155 C   0  0  0  0  0  0  0  0  0  0  0  0
   24.1707  -20.8994   -8.3967 O   0  0  0  0  0  0  0  0  0  0  0  0
   25.3391  -19.3690   -9.5367 O   0  0  0  0  0  0  0  0  0  0  0  0
  2  1  1  0
  3  2  1  0
  3  4  1  1
  5  3  1  0
  5  6  1  6
  7  5  1  0
  8  7  2  0
  9  7  1  0
 10  9  1  0
 11 12  1  0
 10 11  1  1
 12 13  2  0
 13 14  1  0
 15 14  2  0
 16 15  1  0
 17 16  2  0
 17 12  1  0
 18 10  1  0
 18 19  2  0
 20 18  1  0
 21 20  1  0
 21 22  1  1
 23 22  1  0
 23 31  1  0
 24 23  2  0
 25 24  1  0
 25 26  1  0
 26 27  1  0
 26 31  2  0
 27 28  2  0
 28 29  1  0
 30 29  2  0
 31 30  1  0
 32 21  1  0
 33 32  1  0
 34 32  2  0
M  END
$$$$
