IFW.pdb
     RDKit          3D

 34 36  0  0  1  0  0  0  0  0999 V2000
   26.6645  -25.9422  -19.6209 C   0  0  0  0  0  0  0  0  0  0  0  0
   26.9392  -24.4699  -19.6114 C   0  0  0  0  0  0  0  0  0  0  0  0
   27.5435  -24.0794  -18.2932 C   0  0  2  0  0  0  0  0  0  0  0  0
   26.7151  -24.5547  -17.1369 C   0  0  0  0  0  0  0  0  0  0  0  0
   27.7476  -22.5726  -18.2833 C   0  0  2  0  0  0  0  0  0  0  0  0
   28.9291  -22.2853  -19.1317 N   0  0  0  0  0  0  0  0  0  0  0  0
   28.0139  -22.0177  -16.9595 C   0  0  0  0  0  0  0  0  0  0  0  0
   29.0997  -22.2928  -16.3406 O   0  0  0  0  0  0  0  0  0  0  0  0
   27.1320  -21.1389  -16.2362 N   0  0  0  0  0  0  0  0  0  0  0  0
   27.5268  -20.6144  -14.9346 C   0  0  1  0  0  0  0  0  0  0  0  0
   27.4040  -19.1004  -15.0852 C   0  0  0  0  0  0  0  0  0  0  0  0
   28.4440  -18.5051  -15.9478 C   0  0  0  0  0  0  0  0  0  0  0  0
   28.1547  -17.9691  -17.1836 C   0  0  0  0  0  0  0  0  0  0  0  0
   29.1300  -17.3854  -18.0010 C   0  0  0  0  0  0  0  0  0  0  0  0
   30.4261  -17.3425  -17.5578 C   0  0  0  0  0  0  0  0  0  0  0  0
   30.7429  -17.8680  -16.3326 C   0  0  0  0  0  0  0  0  0  0  0  0
   29.7666  -18.4441  -15.5328 C   0  0  0  0  0  0  0  0  0  0  0  0
   26.6140  -21.0663  -13.8765 C   0  0  0  0  0  0  0  0  0  0  0  0
   25.3933  -21.2562  -14.1974 O   0  0  0  0  0  0  0  0  0  0  0  0
   26.9989  -21.3077  -12.5282 N   0  0  0  0  0  0  0  0  0  0  0  0
   25.9968  -21.7604  -11.5593 C   0  0  1  0  0  0  0  0  0  0  0  0
   26.7328  -21.9961  -10.2627 C   0  0  0  0  0  0  0  0  0  0  0  0
   26.8215  -20.8343   -9.3840 C   0  0  0  0  0  0  0  0  0  0  0  0
   25.8534  -19.8702   -9.1277 C   0  0  0  0  0  0  0  0  0  0  0  0
   26.3689  -18.9840   -8.2618 N   0  0  0  0  0  0  0  0  0  0  0  0
   27.6280  -19.3390   -7.9507 C   0  0  0  0  0  0  0  0  0  0  0  0
   28.6002  -18.8014   -7.1122 C   0  0  0  0  0  0  0  0  0  0  0  0
   29.8354  -19.3914   -6.9636 C   0  0  0  0  0  0  0  0  0  0  0  0
   30.1592  -20.5478   -7.6466 C   0  0  0  0  0  0  0  0  0  0  0  0
   29.1912  -21.0734   -8.4755 C   0  0  0  0  0  0  0  0  0  0  0  0
   27.9446  -20.4932   -8.6359 C   0  0  0  0  0  0  0  0  0  0  0  0
   24.8733  -20.8413  -11.4798 C   0  0  0  0  0  0  0  0  0  0  0  0
   23.5675  -21.2739  -11.1328 O   0  0  0  0  0  0  0  0  0  0  0  0
   24.9500  -19.6099  -11.7041 O   0  0  0  0  0  0  0  0  0  0  0  0
  2  1  1  0
  3  2  1  0
  3  4  1  1
  5  3  1  0
  5  6  1  6
  7  5  1  0
  8  7  2  0
  9  7  1  0
 10  9  1  0
 11 12  1  0
 10 11  1  6
 12 13  2  0
 13 14  1  0
 15 14  2  0
 16 15  1  0
 17 16  2  0
 17 12  1  0
 18 10  1  0
 18 19  2  0
 20 18  1  0
 21 20  1  0
 21 22  1  1
 23 22  1  0
 23 31  1  0
 24 23  2  0
 25 24  1  0
 25 26  1  0
 26 27  1  0
 26 31  2  0
 27 28  2  0
 28 29  1  0
 30 29  2  0
 31 30  1  0
 32 21  1  0
 33 32  1  0
 34 32  2  0
M  END
$$$$
