IFW.pdb
     RDKit          3D

 34 36  0  0  1  0  0  0  0  0999 V2000
   25.7178  -20.6948  -18.0323 C   0  0  0  0  0  0  0  0  0  0  0  0
   26.6076  -21.4660  -17.1066 C   0  0  0  0  0  0  0  0  0  0  0  0
   26.1115  -21.3228  -15.6964 C   0  0  2  0  0  0  0  0  0  0  0  0
   25.8961  -19.8861  -15.3239 C   0  0  0  0  0  0  0  0  0  0  0  0
   27.0889  -22.0253  -14.7673 C   0  0  2  0  0  0  0  0  0  0  0  0
   27.0763  -23.4640  -15.1255 N   0  0  0  0  0  0  0  0  0  0  0  0
   26.7420  -21.9234  -13.3528 C   0  0  0  0  0  0  0  0  0  0  0  0
   25.7082  -22.5172  -12.8878 O   0  0  0  0  0  0  0  0  0  0  0  0
   27.4872  -21.1835  -12.3677 N   0  0  0  0  0  0  0  0  0  0  0  0
   27.0185  -21.1228  -10.9886 C   0  0  1  0  0  0  0  0  0  0  0  0
   28.1452  -20.4176  -10.2382 C   0  0  0  0  0  0  0  0  0  0  0  0
   27.8413  -20.1645   -8.8156 C   0  0  0  0  0  0  0  0  0  0  0  0
   28.2105  -21.0409   -7.8187 C   0  0  0  0  0  0  0  0  0  0  0  0
   27.9440  -20.8013   -6.4653 C   0  0  0  0  0  0  0  0  0  0  0  0
   27.2902  -19.6495   -6.1131 C   0  0  0  0  0  0  0  0  0  0  0  0
   26.9109  -18.7597   -7.0837 C   0  0  0  0  0  0  0  0  0  0  0  0
   27.1810  -19.0097   -8.4214 C   0  0  0  0  0  0  0  0  0  0  0  0
   25.7925  -20.3221  -10.8751 C   0  0  0  0  0  0  0  0  0  0  0  0
   25.8153  -19.1433  -11.3637 O   0  0  0  0  0  0  0  0  0  0  0  0
   24.5892  -20.7722  -10.2637 N   0  0  0  0  0  0  0  0  0  0  0  0
   23.3283  -20.0840  -10.5542 C   0  0  1  0  0  0  0  0  0  0  0  0
   23.1752  -20.0896  -12.0558 C   0  0  0  0  0  0  0  0  0  0  0  0
   21.9279  -19.5160  -12.5507 C   0  0  0  0  0  0  0  0  0  0  0  0
   20.9999  -18.7437  -11.8615 C   0  0  0  0  0  0  0  0  0  0  0  0
   20.0032  -18.4394  -12.7069 N   0  0  0  0  0  0  0  0  0  0  0  0
   20.2525  -18.9837  -13.9111 C   0  0  0  0  0  0  0  0  0  0  0  0
   19.5787  -18.9759  -15.1288 C   0  0  0  0  0  0  0  0  0  0  0  0
   20.0790  -19.6207  -16.2378 C   0  0  0  0  0  0  0  0  0  0  0  0
   21.2777  -20.3054  -16.1832 C   0  0  0  0  0  0  0  0  0  0  0  0
   21.9384  -20.3090  -14.9733 C   0  0  0  0  0  0  0  0  0  0  0  0
   21.4497  -19.6656  -13.8492 C   0  0  0  0  0  0  0  0  0  0  0  0
   22.2188  -20.6606   -9.8127 C   0  0  0  0  0  0  0  0  0  0  0  0
   22.1732  -22.0370   -9.4718 O   0  0  0  0  0  0  0  0  0  0  0  0
   21.2223  -20.0124   -9.4135 O   0  0  0  0  0  0  0  0  0  0  0  0
  2  1  1  0
  3  2  1  0
  3  4  1  1
  5  3  1  0
  5  6  1  6
  7  5  1  0
  8  7  2  0
  9  7  1  0
 10  9  1  0
 11 12  1  0
 10 11  1  1
 12 13  2  0
 13 14  1  0
 15 14  2  0
 16 15  1  0
 17 16  2  0
 17 12  1  0
 18 10  1  0
 18 19  2  0
 20 18  1  0
 21 20  1  0
 21 22  1  6
 23 22  1  0
 23 31  1  0
 24 23  2  0
 25 24  1  0
 25 26  1  0
 26 27  1  0
 26 31  2  0
 27 28  2  0
 28 29  1  0
 30 29  2  0
 31 30  1  0
 32 21  1  0
 33 32  1  0
 34 32  2  0
M  END
$$$$
