IFW.pdb
     RDKit          3D

 34 36  0  0  1  0  0  0  0  0999 V2000
   27.9517  -16.3445  -16.6279 C   0  0  0  0  0  0  0  0  0  0  0  0
   28.4985  -17.5397  -15.9096 C   0  0  0  0  0  0  0  0  0  0  0  0
   27.3678  -18.3337  -15.3211 C   0  0  2  0  0  0  0  0  0  0  0  0
   26.5963  -17.5404  -14.3089 C   0  0  0  0  0  0  0  0  0  0  0  0
   27.9321  -19.6225  -14.7442 C   0  0  2  0  0  0  0  0  0  0  0  0
   28.6992  -20.2870  -15.8252 N   0  0  0  0  0  0  0  0  0  0  0  0
   26.9147  -20.5644  -14.2869 C   0  0  0  0  0  0  0  0  0  0  0  0
   26.1555  -21.1655  -15.1235 O   0  0  0  0  0  0  0  0  0  0  0  0
   26.6635  -20.9103  -12.9119 N   0  0  0  0  0  0  0  0  0  0  0  0
   25.5902  -21.8374  -12.5746 C   0  0  1  0  0  0  0  0  0  0  0  0
   25.9833  -22.3874  -11.2060 C   0  0  0  0  0  0  0  0  0  0  0  0
   26.1678  -21.3428  -10.1790 C   0  0  0  0  0  0  0  0  0  0  0  0
   25.1049  -20.6720   -9.6146 C   0  0  0  0  0  0  0  0  0  0  0  0
   25.2677  -19.6935   -8.6266 C   0  0  0  0  0  0  0  0  0  0  0  0
   26.5337  -19.3876   -8.2001 C   0  0  0  0  0  0  0  0  0  0  0  0
   27.6097  -20.0388   -8.7439 C   0  0  0  0  0  0  0  0  0  0  0  0
   27.4342  -21.0062   -9.7227 C   0  0  0  0  0  0  0  0  0  0  0  0
   24.3007  -21.1438  -12.4598 C   0  0  0  0  0  0  0  0  0  0  0  0
   24.3049  -19.9831  -11.9292 O   0  0  0  0  0  0  0  0  0  0  0  0
   23.0569  -21.6757  -12.9012 N   0  0  0  0  0  0  0  0  0  0  0  0
   21.9116  -20.7802  -13.0864 C   0  0  1  0  0  0  0  0  0  0  0  0
   22.2621  -19.8720  -14.2399 C   0  0  0  0  0  0  0  0  0  0  0  0
   21.1843  -18.9934  -14.6826 C   0  0  0  0  0  0  0  0  0  0  0  0
   20.4693  -18.0620  -13.9384 C   0  0  0  0  0  0  0  0  0  0  0  0
   19.5693  -17.4850  -14.7494 N   0  0  0  0  0  0  0  0  0  0  0  0
   19.6767  -18.0066  -15.9842 C   0  0  0  0  0  0  0  0  0  0  0  0
   19.0181  -17.7735  -17.1880 C   0  0  0  0  0  0  0  0  0  0  0  0
   19.3460  -18.4572  -18.3373 C   0  0  0  0  0  0  0  0  0  0  0  0
   20.3482  -19.4081  -18.3391 C   0  0  0  0  0  0  0  0  0  0  0  0
   20.9949  -19.6336  -17.1427 C   0  0  0  0  0  0  0  0  0  0  0  0
   20.6781  -18.9549  -15.9786 C   0  0  0  0  0  0  0  0  0  0  0  0
   20.6692  -21.5208  -13.2318 C   0  0  0  0  0  0  0  0  0  0  0  0
   19.4278  -21.0097  -12.7732 O   0  0  0  0  0  0  0  0  0  0  0  0
   20.5791  -22.6530  -13.7636 O   0  0  0  0  0  0  0  0  0  0  0  0
  2  1  1  0
  3  2  1  0
  3  4  1  1
  5  3  1  0
  5  6  1  6
  7  5  1  0
  8  7  2  0
  9  7  1  0
 10  9  1  0
 11 12  1  0
 10 11  1  1
 12 13  2  0
 13 14  1  0
 15 14  2  0
 16 15  1  0
 17 16  2  0
 17 12  1  0
 18 10  1  0
 18 19  2  0
 20 18  1  0
 21 20  1  0
 21 22  1  6
 23 22  1  0
 23 31  1  0
 24 23  2  0
 25 24  1  0
 25 26  1  0
 26 27  1  0
 26 31  2  0
 27 28  2  0
 28 29  1  0
 30 29  2  0
 31 30  1  0
 32 21  1  0
 33 32  1  0
 34 32  2  0
M  END
$$$$
