IFW.pdb
     RDKit          3D

 34 36  0  0  1  0  0  0  0  0999 V2000
   40.4531   -3.7552  -16.3511 C   0  0  0  0  0  0  0  0  0  0  0  0
   40.4423   -5.1817  -15.8949 C   0  0  0  0  0  0  0  0  0  0  0  0
   39.6537   -5.2969  -14.6221 C   0  0  2  0  0  0  0  0  0  0  0  0
   40.1779   -4.3814  -13.5561 C   0  0  0  0  0  0  0  0  0  0  0  0
   39.6486   -6.7541  -14.1877 C   0  0  2  0  0  0  0  0  0  0  0  0
   38.9402   -7.5220  -15.2398 N   0  0  0  0  0  0  0  0  0  0  0  0
   38.9538   -6.9959  -12.9267 C   0  0  0  0  0  0  0  0  0  0  0  0
   37.6839   -7.1510  -12.8981 O   0  0  0  0  0  0  0  0  0  0  0  0
   39.5858   -7.0863  -11.6361 N   0  0  0  0  0  0  0  0  0  0  0  0
   38.7989   -7.4298  -10.4580 C   0  0  1  0  0  0  0  0  0  0  0  0
   39.3700   -8.7693  -10.0005 C   0  0  0  0  0  0  0  0  0  0  0  0
   38.7872   -9.2605   -8.7359 C   0  0  0  0  0  0  0  0  0  0  0  0
   37.4749   -9.6697   -8.6423 C   0  0  0  0  0  0  0  0  0  0  0  0
   36.9179  -10.1547   -7.4529 C   0  0  0  0  0  0  0  0  0  0  0  0
   37.7062  -10.2279   -6.3343 C   0  0  0  0  0  0  0  0  0  0  0  0
   39.0151   -9.8277   -6.3981 C   0  0  0  0  0  0  0  0  0  0  0  0
   39.5544   -9.3485   -7.5832 C   0  0  0  0  0  0  0  0  0  0  0  0
   38.9796   -6.4410   -9.3871 C   0  0  0  0  0  0  0  0  0  0  0  0
   40.1769   -6.1497   -9.0546 O   0  0  0  0  0  0  0  0  0  0  0  0
   37.9156   -5.7891   -8.7036 N   0  0  0  0  0  0  0  0  0  0  0  0
   38.1981   -5.0262   -7.4845 C   0  0  1  0  0  0  0  0  0  0  0  0
   36.8988   -4.3743   -7.0782 C   0  0  0  0  0  0  0  0  0  0  0  0
   36.9875   -3.4917   -5.9195 C   0  0  0  0  0  0  0  0  0  0  0  0
   37.1689   -2.1135   -5.8962 C   0  0  0  0  0  0  0  0  0  0  0  0
   37.1961   -1.7199   -4.6136 N   0  0  0  0  0  0  0  0  0  0  0  0
   37.0390   -2.7878   -3.8117 C   0  0  0  0  0  0  0  0  0  0  0  0
   36.9770   -2.9538   -2.4312 C   0  0  0  0  0  0  0  0  0  0  0  0
   36.7892   -4.1916   -1.8581 C   0  0  0  0  0  0  0  0  0  0  0  0
   36.6549   -5.3244   -2.6375 C   0  0  0  0  0  0  0  0  0  0  0  0
   36.7183   -5.1515   -4.0037 C   0  0  0  0  0  0  0  0  0  0  0  0
   36.9060   -3.9145   -4.5959 C   0  0  0  0  0  0  0  0  0  0  0  0
   38.8249   -5.8536   -6.4668 C   0  0  0  0  0  0  0  0  0  0  0  0
   40.0333   -5.4762   -5.8262 O   0  0  0  0  0  0  0  0  0  0  0  0
   38.3683   -6.9514   -6.0680 O   0  0  0  0  0  0  0  0  0  0  0  0
  2  1  1  0
  3  2  1  0
  3  4  1  1
  5  3  1  0
  5  6  1  6
  7  5  1  0
  8  7  2  0
  9  7  1  0
 10  9  1  0
 11 12  1  0
 10 11  1  1
 12 13  2  0
 13 14  1  0
 15 14  2  0
 16 15  1  0
 17 16  2  0
 17 12  1  0
 18 10  1  0
 18 19  2  0
 20 18  1  0
 21 20  1  0
 21 22  1  1
 23 22  1  0
 23 31  1  0
 24 23  2  0
 25 24  1  0
 25 26  1  0
 26 27  1  0
 26 31  2  0
 27 28  2  0
 28 29  1  0
 30 29  2  0
 31 30  1  0
 32 21  1  0
 33 32  1  0
 34 32  2  0
M  END
$$$$
