IFW.pdb
     RDKit          3D

 34 36  0  0  1  0  0  0  0  0999 V2000
   29.0149  -18.6125  -15.6893 C   0  0  0  0  0  0  0  0  0  0  0  0
   29.3729  -19.2980  -14.4066 C   0  0  0  0  0  0  0  0  0  0  0  0
   28.1261  -19.5621  -13.6123 C   0  0  2  0  0  0  0  0  0  0  0  0
   27.3160  -18.3156  -13.4144 C   0  0  0  0  0  0  0  0  0  0  0  0
   28.5210  -20.2153  -12.2972 C   0  0  2  0  0  0  0  0  0  0  0  0
   29.2492  -21.4633  -12.6295 N   0  0  0  0  0  0  0  0  0  0  0  0
   27.3884  -20.5813  -11.4518 C   0  0  0  0  0  0  0  0  0  0  0  0
   26.7980  -21.7070  -11.5995 O   0  0  0  0  0  0  0  0  0  0  0  0
   26.8356  -19.7609  -10.4055 N   0  0  0  0  0  0  0  0  0  0  0  0
   25.6576  -20.2063   -9.6712 C   0  0  1  0  0  0  0  0  0  0  0  0
   25.6526  -19.3470   -8.4096 C   0  0  0  0  0  0  0  0  0  0  0  0
   26.6862  -19.7311   -7.4277 C   0  0  0  0  0  0  0  0  0  0  0  0
   26.9423  -21.0465   -7.1077 C   0  0  0  0  0  0  0  0  0  0  0  0
   27.9328  -21.4223   -6.1923 C   0  0  0  0  0  0  0  0  0  0  0  0
   28.6807  -20.4457   -5.5882 C   0  0  0  0  0  0  0  0  0  0  0  0
   28.4478  -19.1290   -5.8873 C   0  0  0  0  0  0  0  0  0  0  0  0
   27.4627  -18.7704   -6.7960 C   0  0  0  0  0  0  0  0  0  0  0  0
   24.4262  -19.9508  -10.4298 C   0  0  0  0  0  0  0  0  0  0  0  0
   24.3302  -18.8287  -11.0303 O   0  0  0  0  0  0  0  0  0  0  0  0
   23.3430  -20.8666  -10.5412 N   0  0  0  0  0  0  0  0  0  0  0  0
   22.1619  -20.4987  -11.3269 C   0  0  1  0  0  0  0  0  0  0  0  0
   22.6570  -20.1737  -12.7152 C   0  0  0  0  0  0  0  0  0  0  0  0
   23.3134  -21.2767  -13.4097 C   0  0  0  0  0  0  0  0  0  0  0  0
   23.3561  -22.6191  -13.0509 C   0  0  0  0  0  0  0  0  0  0  0  0
   24.0748  -23.2736  -13.9760 N   0  0  0  0  0  0  0  0  0  0  0  0
   24.4953  -22.4075  -14.9148 C   0  0  0  0  0  0  0  0  0  0  0  0
   25.2451  -22.5402  -16.0798 C   0  0  0  0  0  0  0  0  0  0  0  0
   25.5248  -21.4612  -16.8881 C   0  0  0  0  0  0  0  0  0  0  0  0
   25.0688  -20.1963  -16.5708 C   0  0  0  0  0  0  0  0  0  0  0  0
   24.3276  -20.0732  -15.4149 C   0  0  0  0  0  0  0  0  0  0  0  0
   24.0371  -21.1475  -14.5916 C   0  0  0  0  0  0  0  0  0  0  0  0
   21.1306  -21.5209  -11.2565 C   0  0  0  0  0  0  0  0  0  0  0  0
   21.3724  -22.7991  -10.6905 O   0  0  0  0  0  0  0  0  0  0  0  0
   19.9589  -21.3733  -11.6783 O   0  0  0  0  0  0  0  0  0  0  0  0
  2  1  1  0
  3  2  1  0
  3  4  1  1
  5  3  1  0
  5  6  1  6
  7  5  1  0
  8  7  2  0
  9  7  1  0
 10  9  1  0
 11 12  1  0
 10 11  1  1
 12 13  2  0
 13 14  1  0
 15 14  2  0
 16 15  1  0
 17 16  2  0
 17 12  1  0
 18 10  1  0
 18 19  2  0
 20 18  1  0
 21 20  1  0
 21 22  1  6
 23 22  1  0
 23 31  1  0
 24 23  2  0
 25 24  1  0
 25 26  1  0
 26 27  1  0
 26 31  2  0
 27 28  2  0
 28 29  1  0
 30 29  2  0
 31 30  1  0
 32 21  1  0
 33 32  1  0
 34 32  2  0
M  END
$$$$
