IFW.pdb
     RDKit          3D

 34 36  0  0  1  0  0  0  0  0999 V2000
   28.8315  -18.2634  -16.0373 C   0  0  0  0  0  0  0  0  0  0  0  0
   29.2848  -18.9910  -14.8091 C   0  0  0  0  0  0  0  0  0  0  0  0
   28.0889  -19.4181  -14.0074 C   0  0  2  0  0  0  0  0  0  0  0  0
   27.1502  -18.2763  -13.7541 C   0  0  0  0  0  0  0  0  0  0  0  0
   28.5766  -20.0675  -12.7218 C   0  0  2  0  0  0  0  0  0  0  0  0
   29.3954  -21.2418  -13.1079 N   0  0  0  0  0  0  0  0  0  0  0  0
   27.5047  -20.5474  -11.8547 C   0  0  0  0  0  0  0  0  0  0  0  0
   26.9268  -21.6656  -12.0855 O   0  0  0  0  0  0  0  0  0  0  0  0
   27.0022  -19.8545  -10.6968 N   0  0  0  0  0  0  0  0  0  0  0  0
   25.9174  -20.4312   -9.9120 C   0  0  1  0  0  0  0  0  0  0  0  0
   25.9345  -19.6402   -8.6066 C   0  0  0  0  0  0  0  0  0  0  0  0
   27.0967  -19.9414   -7.7471 C   0  0  0  0  0  0  0  0  0  0  0  0
   27.4076  -19.1824   -6.6401 C   0  0  0  0  0  0  0  0  0  0  0  0
   28.4960  -19.4707   -5.8080 C   0  0  0  0  0  0  0  0  0  0  0  0
   29.2863  -20.5509   -6.1020 C   0  0  0  0  0  0  0  0  0  0  0  0
   29.0008  -21.3237   -7.1970 C   0  0  0  0  0  0  0  0  0  0  0  0
   27.9193  -21.0265   -8.0136 C   0  0  0  0  0  0  0  0  0  0  0  0
   24.6193  -20.2393  -10.5716 C   0  0  0  0  0  0  0  0  0  0  0  0
   24.2862  -19.0446  -10.8729 O   0  0  0  0  0  0  0  0  0  0  0  0
   23.7171  -21.2901  -10.8974 N   0  0  0  0  0  0  0  0  0  0  0  0
   22.4640  -20.9794  -11.5911 C   0  0  1  0  0  0  0  0  0  0  0  0
   22.5706  -21.5995  -12.9631 C   0  0  0  0  0  0  0  0  0  0  0  0
   22.6445  -20.6471  -14.0663 C   0  0  0  0  0  0  0  0  0  0  0  0
   23.6963  -19.8062  -14.4115 C   0  0  0  0  0  0  0  0  0  0  0  0
   23.3262  -19.0997  -15.4907 N   0  0  0  0  0  0  0  0  0  0  0  0
   22.0802  -19.4522  -15.8537 C   0  0  0  0  0  0  0  0  0  0  0  0
   21.2300  -19.0584  -16.8828 C   0  0  0  0  0  0  0  0  0  0  0  0
   19.9765  -19.6070  -17.0368 C   0  0  0  0  0  0  0  0  0  0  0  0
   19.5115  -20.5760  -16.1687 C   0  0  0  0  0  0  0  0  0  0  0  0
   20.3593  -20.9597  -15.1517 C   0  0  0  0  0  0  0  0  0  0  0  0
   21.6224  -20.4189  -14.9831 C   0  0  0  0  0  0  0  0  0  0  0  0
   21.3049  -21.3842  -10.8127 C   0  0  0  0  0  0  0  0  0  0  0  0
   20.0019  -20.8964  -11.0900 O   0  0  0  0  0  0  0  0  0  0  0  0
   21.3457  -22.1834   -9.8471 O   0  0  0  0  0  0  0  0  0  0  0  0
  2  1  1  0
  3  2  1  0
  3  4  1  1
  5  3  1  0
  5  6  1  6
  7  5  1  0
  8  7  2  0
  9  7  1  0
 10  9  1  0
 11 12  1  0
 10 11  1  1
 12 13  2  0
 13 14  1  0
 15 14  2  0
 16 15  1  0
 17 16  2  0
 17 12  1  0
 18 10  1  0
 18 19  2  0
 20 18  1  0
 21 20  1  0
 21 22  1  6
 23 22  1  0
 23 31  1  0
 24 23  2  0
 25 24  1  0
 25 26  1  0
 26 27  1  0
 26 31  2  0
 27 28  2  0
 28 29  1  0
 30 29  2  0
 31 30  1  0
 32 21  1  0
 33 32  1  0
 34 32  2  0
M  END
$$$$
