IFW.pdb
     RDKit          3D

 34 36  0  0  1  0  0  0  0  0999 V2000
   28.8296  -16.9686  -15.5547 C   0  0  0  0  0  0  0  0  0  0  0  0
   27.5012  -17.6516  -15.6650 C   0  0  0  0  0  0  0  0  0  0  0  0
   27.7066  -19.1338  -15.7916 C   0  0  2  0  0  0  0  0  0  0  0  0
   28.4567  -19.4885  -17.0409 C   0  0  0  0  0  0  0  0  0  0  0  0
   26.3506  -19.8174  -15.7122 C   0  0  2  0  0  0  0  0  0  0  0  0
   25.5070  -19.2427  -16.7875 N   0  0  0  0  0  0  0  0  0  0  0  0
   25.6519  -19.6066  -14.4478 C   0  0  0  0  0  0  0  0  0  0  0  0
   25.1724  -18.4586  -14.1483 O   0  0  0  0  0  0  0  0  0  0  0  0
   25.4303  -20.6157  -13.4448 N   0  0  0  0  0  0  0  0  0  0  0  0
   24.7619  -20.2720  -12.1957 C   0  0  1  0  0  0  0  0  0  0  0  0
   23.3898  -20.9313  -12.3085 C   0  0  0  0  0  0  0  0  0  0  0  0
   22.4289  -20.1623  -13.1242 C   0  0  0  0  0  0  0  0  0  0  0  0
   22.2190  -20.4308  -14.4592 C   0  0  0  0  0  0  0  0  0  0  0  0
   21.2967  -19.7202  -15.2368 C   0  0  0  0  0  0  0  0  0  0  0  0
   20.5705  -18.7167  -14.6504 C   0  0  0  0  0  0  0  0  0  0  0  0
   20.7585  -18.4278  -13.3243 C   0  0  0  0  0  0  0  0  0  0  0  0
   21.6762  -19.1394  -12.5653 C   0  0  0  0  0  0  0  0  0  0  0  0
   25.4698  -20.8339  -11.0381 C   0  0  0  0  0  0  0  0  0  0  0  0
   25.8058  -22.0638  -11.0972 O   0  0  0  0  0  0  0  0  0  0  0  0
   25.8060  -20.1019   -9.8653 N   0  0  0  0  0  0  0  0  0  0  0  0
   26.4313  -20.7935   -8.7346 C   0  0  1  0  0  0  0  0  0  0  0  0
   27.3396  -19.7884   -8.0689 C   0  0  0  0  0  0  0  0  0  0  0  0
   28.0193  -20.2701   -6.8707 C   0  0  0  0  0  0  0  0  0  0  0  0
   28.5441  -21.5339   -6.6254 C   0  0  0  0  0  0  0  0  0  0  0  0
   29.0724  -21.5318   -5.3919 N   0  0  0  0  0  0  0  0  0  0  0  0
   28.9095  -20.3189   -4.8346 C   0  0  0  0  0  0  0  0  0  0  0  0
   29.2678  -19.7675   -3.6079 C   0  0  0  0  0  0  0  0  0  0  0  0
   28.9837  -18.4578   -3.2917 C   0  0  0  0  0  0  0  0  0  0  0  0
   28.3268  -17.6354   -4.1866 C   0  0  0  0  0  0  0  0  0  0  0  0
   27.9748  -18.1894   -5.3989 C   0  0  0  0  0  0  0  0  0  0  0  0
   28.2532  -19.5037   -5.7327 C   0  0  0  0  0  0  0  0  0  0  0  0
   25.4403  -21.4083   -7.8668 C   0  0  0  0  0  0  0  0  0  0  0  0
   25.7607  -22.4834   -6.9983 O   0  0  0  0  0  0  0  0  0  0  0  0
   24.2385  -21.0553   -7.8047 O   0  0  0  0  0  0  0  0  0  0  0  0
  2  1  1  0
  3  2  1  0
  3  4  1  6
  5  3  1  0
  5  6  1  6
  7  5  1  0
  8  7  2  0
  9  7  1  0
 10  9  1  0
 11 12  1  0
 10 11  1  6
 12 13  2  0
 13 14  1  0
 15 14  2  0
 16 15  1  0
 17 16  2  0
 17 12  1  0
 18 10  1  0
 18 19  2  0
 20 18  1  0
 21 20  1  0
 21 22  1  1
 23 22  1  0
 23 31  1  0
 24 23  2  0
 25 24  1  0
 25 26  1  0
 26 27  1  0
 26 31  2  0
 27 28  2  0
 28 29  1  0
 30 29  2  0
 31 30  1  0
 32 21  1  0
 33 32  1  0
 34 32  2  0
M  END
$$$$
