IFW.pdb
     RDKit          3D

 34 36  0  0  1  0  0  0  0  0999 V2000
   26.0989  -17.6273  -16.1034 C   0  0  0  0  0  0  0  0  0  0  0  0
   26.6889  -18.8314  -15.4359 C   0  0  0  0  0  0  0  0  0  0  0  0
   27.6313  -18.3942  -14.3515 C   0  0  2  0  0  0  0  0  0  0  0  0
   28.7347  -17.5305  -14.8859 C   0  0  0  0  0  0  0  0  0  0  0  0
   28.1534  -19.6314  -13.6381 C   0  0  2  0  0  0  0  0  0  0  0  0
   28.7904  -20.4920  -14.6638 N   0  0  0  0  0  0  0  0  0  0  0  0
   27.1152  -20.4235  -12.9855 C   0  0  0  0  0  0  0  0  0  0  0  0
   26.7732  -21.5655  -13.4509 O   0  0  0  0  0  0  0  0  0  0  0  0
   26.3955  -20.0325  -11.8012 N   0  0  0  0  0  0  0  0  0  0  0  0
   25.4052  -20.9286  -11.2170 C   0  0  1  0  0  0  0  0  0  0  0  0
   25.2475  -20.4322   -9.7821 C   0  0  0  0  0  0  0  0  0  0  0  0
   26.4739  -20.5668   -8.9711 C   0  0  0  0  0  0  0  0  0  0  0  0
   27.4295  -21.5227   -9.2379 C   0  0  0  0  0  0  0  0  0  0  0  0
   28.6046  -21.6465   -8.4869 C   0  0  0  0  0  0  0  0  0  0  0  0
   28.8174  -20.7838   -7.4436 C   0  0  0  0  0  0  0  0  0  0  0  0
   27.8839  -19.8231   -7.1552 C   0  0  0  0  0  0  0  0  0  0  0  0
   26.7235  -19.7117   -7.9072 C   0  0  0  0  0  0  0  0  0  0  0  0
   24.1129  -20.8199  -11.9063 C   0  0  0  0  0  0  0  0  0  0  0  0
   23.6110  -19.6530  -12.0298 O   0  0  0  0  0  0  0  0  0  0  0  0
   23.3909  -21.9215  -12.4445 N   0  0  0  0  0  0  0  0  0  0  0  0
   22.1923  -21.6767  -13.2516 C   0  0  1  0  0  0  0  0  0  0  0  0
   22.4372  -22.3321  -14.5890 C   0  0  0  0  0  0  0  0  0  0  0  0
   21.9828  -23.7151  -14.6904 C   0  0  0  0  0  0  0  0  0  0  0  0
   20.6827  -24.2034  -14.6259 C   0  0  0  0  0  0  0  0  0  0  0  0
   20.7330  -25.5375  -14.7608 N   0  0  0  0  0  0  0  0  0  0  0  0
   22.0115  -25.9269  -14.9099 C   0  0  0  0  0  0  0  0  0  0  0  0
   22.6258  -27.1617  -15.0973 C   0  0  0  0  0  0  0  0  0  0  0  0
   23.9904  -27.2777  -15.2398 C   0  0  0  0  0  0  0  0  0  0  0  0
   24.8078  -26.1646  -15.2014 C   0  0  0  0  0  0  0  0  0  0  0  0
   24.1916  -24.9455  -15.0147 C   0  0  0  0  0  0  0  0  0  0  0  0
   22.8214  -24.8114  -14.8702 C   0  0  0  0  0  0  0  0  0  0  0  0
   20.9849  -22.1005  -12.5618 C   0  0  0  0  0  0  0  0  0  0  0  0
   21.0075  -23.0733  -11.5294 O   0  0  0  0  0  0  0  0  0  0  0  0
   19.8378  -21.6571  -12.8073 O   0  0  0  0  0  0  0  0  0  0  0  0
  2  1  1  0
  3  2  1  0
  3  4  1  6
  5  3  1  0
  5  6  1  6
  7  5  1  0
  8  7  2  0
  9  7  1  0
 10  9  1  0
 11 12  1  0
 10 11  1  1
 12 13  2  0
 13 14  1  0
 15 14  2  0
 16 15  1  0
 17 16  2  0
 17 12  1  0
 18 10  1  0
 18 19  2  0
 20 18  1  0
 21 20  1  0
 21 22  1  6
 23 22  1  0
 23 31  1  0
 24 23  2  0
 25 24  1  0
 25 26  1  0
 26 27  1  0
 26 31  2  0
 27 28  2  0
 28 29  1  0
 30 29  2  0
 31 30  1  0
 32 21  1  0
 33 32  1  0
 34 32  2  0
M  END
$$$$
