IFW.pdb
     RDKit          3D

 34 36  0  0  1  0  0  0  0  0999 V2000
   27.4685  -19.2639  -20.2069 C   0  0  0  0  0  0  0  0  0  0  0  0
   28.1317  -20.1851  -19.2297 C   0  0  0  0  0  0  0  0  0  0  0  0
   27.2402  -20.3796  -18.0369 C   0  0  2  0  0  0  0  0  0  0  0  0
   26.8485  -19.0728  -17.4140 C   0  0  0  0  0  0  0  0  0  0  0  0
   27.9419  -21.3055  -17.0558 C   0  0  2  0  0  0  0  0  0  0  0  0
   28.1406  -22.6034  -17.7444 N   0  0  0  0  0  0  0  0  0  0  0  0
   27.1805  -21.5681  -15.8382 C   0  0  0  0  0  0  0  0  0  0  0  0
   26.1569  -22.3359  -15.8588 O   0  0  0  0  0  0  0  0  0  0  0  0
   27.4804  -21.0239  -14.5392 N   0  0  0  0  0  0  0  0  0  0  0  0
   26.5574  -21.2271  -13.4294 C   0  0  1  0  0  0  0  0  0  0  0  0
   27.3684  -20.8535  -12.1913 C   0  0  0  0  0  0  0  0  0  0  0  0
   26.5645  -20.7887  -10.9545 C   0  0  0  0  0  0  0  0  0  0  0  0
   26.4482  -19.6326  -10.2140 C   0  0  0  0  0  0  0  0  0  0  0  0
   25.6734  -19.5555   -9.0504 C   0  0  0  0  0  0  0  0  0  0  0  0
   25.0013  -20.6724   -8.6274 C   0  0  0  0  0  0  0  0  0  0  0  0
   25.0988  -21.8361   -9.3441 C   0  0  0  0  0  0  0  0  0  0  0  0
   25.8705  -21.8989  -10.4953 C   0  0  0  0  0  0  0  0  0  0  0  0
   25.3961  -20.3335  -13.5290 C   0  0  0  0  0  0  0  0  0  0  0  0
   25.6267  -19.0825  -13.6335 O   0  0  0  0  0  0  0  0  0  0  0  0
   24.0412  -20.7678  -13.5203 N   0  0  0  0  0  0  0  0  0  0  0  0
   22.9721  -19.7991  -13.2627 C   0  0  1  0  0  0  0  0  0  0  0  0
   22.7742  -19.0305  -14.5466 C   0  0  0  0  0  0  0  0  0  0  0  0
   22.1415  -19.7834  -15.6248 C   0  0  0  0  0  0  0  0  0  0  0  0
   20.9567  -20.5097  -15.5905 C   0  0  0  0  0  0  0  0  0  0  0  0
   20.7613  -21.0433  -16.8062 N   0  0  0  0  0  0  0  0  0  0  0  0
   21.7713  -20.6894  -17.6205 C   0  0  0  0  0  0  0  0  0  0  0  0
   22.0639  -20.9437  -18.9573 C   0  0  0  0  0  0  0  0  0  0  0  0
   23.1895  -20.4314  -19.5625 C   0  0  0  0  0  0  0  0  0  0  0  0
   24.0782  -19.6401  -18.8606 C   0  0  0  0  0  0  0  0  0  0  0  0
   23.7816  -19.3938  -17.5370 C   0  0  0  0  0  0  0  0  0  0  0  0
   22.6543  -19.9005  -16.9135 C   0  0  0  0  0  0  0  0  0  0  0  0
   21.7814  -20.4423  -12.7318 C   0  0  0  0  0  0  0  0  0  0  0  0
   21.6826  -21.8507  -12.5932 O   0  0  0  0  0  0  0  0  0  0  0  0
   20.7548  -19.8286  -12.3547 O   0  0  0  0  0  0  0  0  0  0  0  0
  2  1  1  0
  3  2  1  0
  3  4  1  1
  5  3  1  0
  5  6  1  6
  7  5  1  0
  8  7  2  0
  9  7  1  0
 10  9  1  0
 11 12  1  0
 10 11  1  1
 12 13  2  0
 13 14  1  0
 15 14  2  0
 16 15  1  0
 17 16  2  0
 17 12  1  0
 18 10  1  0
 18 19  2  0
 20 18  1  0
 21 20  1  0
 21 22  1  6
 23 22  1  0
 23 31  1  0
 24 23  2  0
 25 24  1  0
 25 26  1  0
 26 27  1  0
 26 31  2  0
 27 28  2  0
 28 29  1  0
 30 29  2  0
 31 30  1  0
 32 21  1  0
 33 32  1  0
 34 32  2  0
M  END
$$$$
