IFW.pdb
     RDKit          3D

 34 36  0  0  1  0  0  0  0  0999 V2000
   27.4505  -18.8492  -14.5615 C   0  0  0  0  0  0  0  0  0  0  0  0
   27.7602  -19.9349  -13.5774 C   0  0  0  0  0  0  0  0  0  0  0  0
   28.8765  -19.4929  -12.6753 C   0  0  2  0  0  0  0  0  0  0  0  0
   30.1087  -19.1296  -13.4491 C   0  0  0  0  0  0  0  0  0  0  0  0
   29.1328  -20.5883  -11.6523 C   0  0  2  0  0  0  0  0  0  0  0  0
   29.3852  -21.8403  -12.4054 N   0  0  0  0  0  0  0  0  0  0  0  0
   28.0094  -20.8369  -10.7537 C   0  0  0  0  0  0  0  0  0  0  0  0
   27.2528  -21.8559  -10.9179 O   0  0  0  0  0  0  0  0  0  0  0  0
   27.6439  -20.0083   -9.6343 N   0  0  0  0  0  0  0  0  0  0  0  0
   26.3881  -20.2398   -8.9311 C   0  0  1  0  0  0  0  0  0  0  0  0
   26.4146  -19.2443   -7.7743 C   0  0  0  0  0  0  0  0  0  0  0  0
   27.3402  -19.6234   -6.6882 C   0  0  0  0  0  0  0  0  0  0  0  0
   27.3789  -20.8987   -6.1681 C   0  0  0  0  0  0  0  0  0  0  0  0
   28.2656  -21.2733   -5.1515 C   0  0  0  0  0  0  0  0  0  0  0  0
   29.1323  -20.3373   -4.6508 C   0  0  0  0  0  0  0  0  0  0  0  0
   29.1160  -19.0609   -5.1490 C   0  0  0  0  0  0  0  0  0  0  0  0
   28.2317  -18.7029   -6.1563 C   0  0  0  0  0  0  0  0  0  0  0  0
   25.2327  -19.9467   -9.7891 C   0  0  0  0  0  0  0  0  0  0  0  0
   25.2844  -18.8878  -10.4998 O   0  0  0  0  0  0  0  0  0  0  0  0
   24.0699  -20.7613   -9.8819 N   0  0  0  0  0  0  0  0  0  0  0  0
   23.0955  -20.5134  -10.9482 C   0  0  1  0  0  0  0  0  0  0  0  0
   23.8371  -20.6832  -12.2519 C   0  0  0  0  0  0  0  0  0  0  0  0
   23.1036  -21.4005  -13.2897 C   0  0  0  0  0  0  0  0  0  0  0  0
   22.0128  -20.9648  -14.0334 C   0  0  0  0  0  0  0  0  0  0  0  0
   21.6581  -21.9535  -14.8685 N   0  0  0  0  0  0  0  0  0  0  0  0
   22.4761  -23.0063  -14.6928 C   0  0  0  0  0  0  0  0  0  0  0  0
   22.5703  -24.2614  -15.2867 C   0  0  0  0  0  0  0  0  0  0  0  0
   23.5395  -25.1669  -14.9170 C   0  0  0  0  0  0  0  0  0  0  0  0
   24.4618  -24.8617  -13.9347 C   0  0  0  0  0  0  0  0  0  0  0  0
   24.3611  -23.6169  -13.3508 C   0  0  0  0  0  0  0  0  0  0  0  0
   23.3934  -22.6950  -13.7111 C   0  0  0  0  0  0  0  0  0  0  0  0
   21.9093  -21.3394  -10.7941 C   0  0  0  0  0  0  0  0  0  0  0  0
   21.9436  -22.5932  -10.1311 O   0  0  0  0  0  0  0  0  0  0  0  0
   20.7716  -21.0296  -11.2212 O   0  0  0  0  0  0  0  0  0  0  0  0
  2  1  1  0
  3  2  1  0
  3  4  1  6
  5  3  1  0
  5  6  1  6
  7  5  1  0
  8  7  2  0
  9  7  1  0
 10  9  1  0
 11 12  1  0
 10 11  1  1
 12 13  2  0
 13 14  1  0
 15 14  2  0
 16 15  1  0
 17 16  2  0
 17 12  1  0
 18 10  1  0
 18 19  2  0
 20 18  1  0
 21 20  1  0
 21 22  1  6
 23 22  1  0
 23 31  1  0
 24 23  2  0
 25 24  1  0
 25 26  1  0
 26 27  1  0
 26 31  2  0
 27 28  2  0
 28 29  1  0
 30 29  2  0
 31 30  1  0
 32 21  1  0
 33 32  1  0
 34 32  2  0
M  END
$$$$
