IFW.pdb
     RDKit          3D

 34 36  0  0  1  0  0  0  0  0999 V2000
   28.5148  -17.3379  -16.5768 C   0  0  0  0  0  0  0  0  0  0  0  0
   28.9479  -18.3225  -15.5346 C   0  0  0  0  0  0  0  0  0  0  0  0
   27.7392  -18.9575  -14.9093 C   0  0  2  0  0  0  0  0  0  0  0  0
   26.7184  -17.9360  -14.5049 C   0  0  0  0  0  0  0  0  0  0  0  0
   28.1957  -19.8186  -13.7421 C   0  0  2  0  0  0  0  0  0  0  0  0
   29.1254  -20.8371  -14.2869 N   0  0  0  0  0  0  0  0  0  0  0  0
   27.1129  -20.5299  -13.0691 C   0  0  0  0  0  0  0  0  0  0  0  0
   26.6332  -21.6093  -13.5613 O   0  0  0  0  0  0  0  0  0  0  0  0
   26.4938  -20.1212  -11.8350 N   0  0  0  0  0  0  0  0  0  0  0  0
   25.4677  -20.9541  -11.2197 C   0  0  1  0  0  0  0  0  0  0  0  0
   25.3518  -20.4188   -9.7949 C   0  0  0  0  0  0  0  0  0  0  0  0
   26.6174  -20.4756   -9.0365 C   0  0  0  0  0  0  0  0  0  0  0  0
   26.8706  -19.6446   -7.9671 C   0  0  0  0  0  0  0  0  0  0  0  0
   28.0592  -19.7033   -7.2297 C   0  0  0  0  0  0  0  0  0  0  0  0
   29.0120  -20.6233   -7.5817 C   0  0  0  0  0  0  0  0  0  0  0  0
   28.7873  -21.4626   -8.6412 C   0  0  0  0  0  0  0  0  0  0  0  0
   27.6050  -21.3936   -9.3639 C   0  0  0  0  0  0  0  0  0  0  0  0
   24.1741  -20.7969  -11.8972 C   0  0  0  0  0  0  0  0  0  0  0  0
   23.7532  -19.6072  -12.0879 O   0  0  0  0  0  0  0  0  0  0  0  0
   23.3670  -21.8758  -12.3545 N   0  0  0  0  0  0  0  0  0  0  0  0
   22.1184  -21.5939  -13.0682 C   0  0  1  0  0  0  0  0  0  0  0  0
   22.0012  -22.6380  -14.1520 C   0  0  0  0  0  0  0  0  0  0  0  0
   20.8204  -22.5160  -15.0007 C   0  0  0  0  0  0  0  0  0  0  0  0
   20.6151  -21.6588  -16.0758 C   0  0  0  0  0  0  0  0  0  0  0  0
   19.3838  -21.8857  -16.5585 N   0  0  0  0  0  0  0  0  0  0  0  0
   18.7894  -22.8536  -15.8386 C   0  0  0  0  0  0  0  0  0  0  0  0
   17.5477  -23.4786  -15.9064 C   0  0  0  0  0  0  0  0  0  0  0  0
   17.1911  -24.4784  -15.0294 C   0  0  0  0  0  0  0  0  0  0  0  0
   18.0585  -24.9018  -14.0411 C   0  0  0  0  0  0  0  0  0  0  0  0
   19.2860  -24.2771  -13.9801 C   0  0  0  0  0  0  0  0  0  0  0  0
   19.6603  -23.2710  -14.8541 C   0  0  0  0  0  0  0  0  0  0  0  0
   20.9874  -21.5102  -12.1588 C   0  0  0  0  0  0  0  0  0  0  0  0
   19.7820  -20.8507  -12.5121 O   0  0  0  0  0  0  0  0  0  0  0  0
   20.9701  -22.0013  -11.0050 O   0  0  0  0  0  0  0  0  0  0  0  0
  2  1  1  0
  3  2  1  0
  3  4  1  1
  5  3  1  0
  5  6  1  6
  7  5  1  0
  8  7  2  0
  9  7  1  0
 10  9  1  0
 11 12  1  0
 10 11  1  1
 12 13  2  0
 13 14  1  0
 15 14  2  0
 16 15  1  0
 17 16  2  0
 17 12  1  0
 18 10  1  0
 18 19  2  0
 20 18  1  0
 21 20  1  0
 21 22  1  6
 23 22  1  0
 23 31  1  0
 24 23  2  0
 25 24  1  0
 25 26  1  0
 26 27  1  0
 26 31  2  0
 27 28  2  0
 28 29  1  0
 30 29  2  0
 31 30  1  0
 32 21  1  0
 33 32  1  0
 34 32  2  0
M  END
$$$$
