IFW.pdb
     RDKit          3D

 34 36  0  0  1  0  0  0  0  0999 V2000
   25.8472  -25.7705  -19.3407 C   0  0  0  0  0  0  0  0  0  0  0  0
   26.1997  -24.3159  -19.2851 C   0  0  0  0  0  0  0  0  0  0  0  0
   26.7565  -23.9846  -17.9302 C   0  0  2  0  0  0  0  0  0  0  0  0
   25.7830  -24.3010  -16.8342 C   0  0  0  0  0  0  0  0  0  0  0  0
   27.1829  -22.5251  -17.9274 C   0  0  2  0  0  0  0  0  0  0  0  0
   28.4044  -22.4242  -18.7619 N   0  0  0  0  0  0  0  0  0  0  0  0
   27.5130  -22.0050  -16.6038 C   0  0  0  0  0  0  0  0  0  0  0  0
   28.6036  -22.3377  -16.0228 O   0  0  0  0  0  0  0  0  0  0  0  0
   26.6926  -21.1011  -15.8400 N   0  0  0  0  0  0  0  0  0  0  0  0
   27.1715  -20.5757  -14.5673 C   0  0  1  0  0  0  0  0  0  0  0  0
   26.9805  -19.0660  -14.6868 C   0  0  0  0  0  0  0  0  0  0  0  0
   27.9370  -18.4194  -15.6072 C   0  0  0  0  0  0  0  0  0  0  0  0
   27.5588  -17.4185  -16.4751 C   0  0  0  0  0  0  0  0  0  0  0  0
   28.4616  -16.7859  -17.3383 C   0  0  0  0  0  0  0  0  0  0  0  0
   29.7758  -17.1742  -17.3221 C   0  0  0  0  0  0  0  0  0  0  0  0
   30.1803  -18.1673  -16.4691 C   0  0  0  0  0  0  0  0  0  0  0  0
   29.2751  -18.7862  -15.6193 C   0  0  0  0  0  0  0  0  0  0  0  0
   26.3645  -21.0734  -13.4456 C   0  0  0  0  0  0  0  0  0  0  0  0
   25.1216  -21.2691  -13.6594 O   0  0  0  0  0  0  0  0  0  0  0  0
   26.8744  -21.3528  -12.1470 N   0  0  0  0  0  0  0  0  0  0  0  0
   25.9612  -21.8004  -11.0917 C   0  0  1  0  0  0  0  0  0  0  0  0
   26.8025  -21.9955   -9.8537 C   0  0  0  0  0  0  0  0  0  0  0  0
   26.7813  -20.8811   -8.9118 C   0  0  0  0  0  0  0  0  0  0  0  0
   25.7507  -19.9824   -8.6612 C   0  0  0  0  0  0  0  0  0  0  0  0
   26.1704  -19.1207   -7.7219 N   0  0  0  0  0  0  0  0  0  0  0  0
   27.4278  -19.4288   -7.3582 C   0  0  0  0  0  0  0  0  0  0  0  0
   28.3228  -18.8902   -6.4384 C   0  0  0  0  0  0  0  0  0  0  0  0
   29.5777  -19.4248   -6.2503 C   0  0  0  0  0  0  0  0  0  0  0  0
   29.9994  -20.5239   -6.9733 C   0  0  0  0  0  0  0  0  0  0  0  0
   29.1073  -21.0508   -7.8828 C   0  0  0  0  0  0  0  0  0  0  0  0
   27.8422  -20.5260   -8.0837 C   0  0  0  0  0  0  0  0  0  0  0  0
   24.8313  -20.8982  -10.9412 C   0  0  0  0  0  0  0  0  0  0  0  0
   23.5603  -21.3477  -10.4992 O   0  0  0  0  0  0  0  0  0  0  0  0
   24.8720  -19.6680  -11.1811 O   0  0  0  0  0  0  0  0  0  0  0  0
  2  1  1  0
  3  2  1  0
  3  4  1  1
  5  3  1  0
  5  6  1  6
  7  5  1  0
  8  7  2  0
  9  7  1  0
 10  9  1  0
 11 12  1  0
 10 11  1  6
 12 13  2  0
 13 14  1  0
 15 14  2  0
 16 15  1  0
 17 16  2  0
 17 12  1  0
 18 10  1  0
 18 19  2  0
 20 18  1  0
 21 20  1  0
 21 22  1  1
 23 22  1  0
 23 31  1  0
 24 23  2  0
 25 24  1  0
 25 26  1  0
 26 27  1  0
 26 31  2  0
 27 28  2  0
 28 29  1  0
 30 29  2  0
 31 30  1  0
 32 21  1  0
 33 32  1  0
 34 32  2  0
M  END
$$$$
