IFW.pdb
     RDKit          3D

 34 36  0  0  1  0  0  0  0  0999 V2000
   29.3762  -15.0238  -17.4665 C   0  0  0  0  0  0  0  0  0  0  0  0
   29.1139  -16.4661  -17.7736 C   0  0  0  0  0  0  0  0  0  0  0  0
   28.1114  -17.0138  -16.7988 C   0  0  2  0  0  0  0  0  0  0  0  0
   28.6138  -16.9508  -15.3871 C   0  0  0  0  0  0  0  0  0  0  0  0
   27.7463  -18.4271  -17.2248 C   0  0  2  0  0  0  0  0  0  0  0  0
   27.1884  -18.3407  -18.5958 N   0  0  0  0  0  0  0  0  0  0  0  0
   26.7372  -19.0601  -16.3808 C   0  0  0  0  0  0  0  0  0  0  0  0
   25.5274  -18.6430  -16.3818 O   0  0  0  0  0  0  0  0  0  0  0  0
   26.9743  -20.1723  -15.4976 N   0  0  0  0  0  0  0  0  0  0  0  0
   25.9081  -20.6591  -14.6307 C   0  0  1  0  0  0  0  0  0  0  0  0
   25.6968  -22.1060  -15.0689 C   0  0  0  0  0  0  0  0  0  0  0  0
   24.6084  -22.7912  -14.3438 C   0  0  0  0  0  0  0  0  0  0  0  0
   24.8479  -23.8289  -13.4697 C   0  0  0  0  0  0  0  0  0  0  0  0
   23.8250  -24.4727  -12.7630 C   0  0  0  0  0  0  0  0  0  0  0  0
   22.5318  -24.0568  -12.9443 C   0  0  0  0  0  0  0  0  0  0  0  0
   22.2641  -23.0270  -13.8076 C   0  0  0  0  0  0  0  0  0  0  0  0
   23.2872  -22.3980  -14.5021 C   0  0  0  0  0  0  0  0  0  0  0  0
   26.3153  -20.6404  -13.2198 C   0  0  0  0  0  0  0  0  0  0  0  0
   27.4391  -21.1700  -12.9272 O   0  0  0  0  0  0  0  0  0  0  0  0
   25.5466  -20.0718  -12.1661 N   0  0  0  0  0  0  0  0  0  0  0  0
   25.5070  -20.7349  -10.8597 C   0  0  1  0  0  0  0  0  0  0  0  0
   26.7170  -20.2503  -10.0983 C   0  0  0  0  0  0  0  0  0  0  0  0
   26.7195  -20.5721   -8.6750 C   0  0  0  0  0  0  0  0  0  0  0  0
   26.2034  -21.6981   -8.0438 C   0  0  0  0  0  0  0  0  0  0  0  0
   26.4221  -21.5723   -6.7258 N   0  0  0  0  0  0  0  0  0  0  0  0
   27.0579  -20.4123   -6.4839 C   0  0  0  0  0  0  0  0  0  0  0  0
   27.5294  -19.7962   -5.3284 C   0  0  0  0  0  0  0  0  0  0  0  0
   28.1758  -18.5811   -5.3676 C   0  0  0  0  0  0  0  0  0  0  0  0
   28.3819  -17.9221   -6.5642 C   0  0  0  0  0  0  0  0  0  0  0  0
   27.9111  -18.5387   -7.7039 C   0  0  0  0  0  0  0  0  0  0  0  0
   27.2598  -19.7600   -7.6821 C   0  0  0  0  0  0  0  0  0  0  0  0
   24.2304  -20.5337  -10.1941 C   0  0  0  0  0  0  0  0  0  0  0  0
   23.7580  -21.4133   -9.1862 O   0  0  0  0  0  0  0  0  0  0  0  0
   23.4457  -19.5872  -10.4410 O   0  0  0  0  0  0  0  0  0  0  0  0
  2  1  1  0
  3  2  1  0
  3  4  1  1
  5  3  1  0
  5  6  1  6
  7  5  1  0
  8  7  2  0
  9  7  1  0
 10  9  1  0
 11 12  1  0
 10 11  1  6
 12 13  2  0
 13 14  1  0
 15 14  2  0
 16 15  1  0
 17 16  2  0
 17 12  1  0
 18 10  1  0
 18 19  2  0
 20 18  1  0
 21 20  1  0
 21 22  1  1
 23 22  1  0
 23 31  1  0
 24 23  2  0
 25 24  1  0
 25 26  1  0
 26 27  1  0
 26 31  2  0
 27 28  2  0
 28 29  1  0
 30 29  2  0
 31 30  1  0
 32 21  1  0
 33 32  1  0
 34 32  2  0
M  END
$$$$
