IFW.pdb
     RDKit          3D

 34 36  0  0  1  0  0  0  0  0999 V2000
   27.1706  -21.8286  -19.8856 C   0  0  0  0  0  0  0  0  0  0  0  0
   27.7839  -22.4172  -18.6525 C   0  0  0  0  0  0  0  0  0  0  0  0
   26.8641  -22.2080  -17.4840 C   0  0  2  0  0  0  0  0  0  0  0  0
   26.4934  -20.7644  -17.3171 C   0  0  0  0  0  0  0  0  0  0  0  0
   27.5220  -22.7880  -16.2419 C   0  0  2  0  0  0  0  0  0  0  0  0
   27.6519  -24.2492  -16.4571 N   0  0  0  0  0  0  0  0  0  0  0  0
   26.7534  -22.5928  -15.0161 C   0  0  0  0  0  0  0  0  0  0  0  0
   25.6723  -23.2457  -14.8102 O   0  0  0  0  0  0  0  0  0  0  0  0
   27.1072  -21.6914  -13.9505 N   0  0  0  0  0  0  0  0  0  0  0  0
   26.2215  -21.5296  -12.8040 C   0  0  1  0  0  0  0  0  0  0  0  0
   27.0666  -20.7798  -11.7775 C   0  0  0  0  0  0  0  0  0  0  0  0
   26.3327  -20.4381  -10.5427 C   0  0  0  0  0  0  0  0  0  0  0  0
   25.3950  -21.2818   -9.9884 C   0  0  0  0  0  0  0  0  0  0  0  0
   24.7075  -20.9758   -8.8078 C   0  0  0  0  0  0  0  0  0  0  0  0
   24.9752  -19.7906   -8.1740 C   0  0  0  0  0  0  0  0  0  0  0  0
   25.9031  -18.9320   -8.7027 C   0  0  0  0  0  0  0  0  0  0  0  0
   26.5769  -19.2474   -9.8736 C   0  0  0  0  0  0  0  0  0  0  0  0
   25.0480  -20.7150  -13.1454 C   0  0  0  0  0  0  0  0  0  0  0  0
   25.2615  -19.5433  -13.6040 O   0  0  0  0  0  0  0  0  0  0  0  0
   23.6991  -21.1445  -13.0026 N   0  0  0  0  0  0  0  0  0  0  0  0
   22.6076  -20.2279  -13.3437 C   0  0  1  0  0  0  0  0  0  0  0  0
   22.8193  -19.8296  -14.7842 C   0  0  0  0  0  0  0  0  0  0  0  0
   21.7468  -19.0295  -15.3667 C   0  0  0  0  0  0  0  0  0  0  0  0
   21.4259  -17.7008  -15.1129 C   0  0  0  0  0  0  0  0  0  0  0  0
   20.3635  -17.3789  -15.8670 N   0  0  0  0  0  0  0  0  0  0  0  0
   19.9888  -18.4455  -16.5952 C   0  0  0  0  0  0  0  0  0  0  0  0
   18.9835  -18.6659  -17.5322 C   0  0  0  0  0  0  0  0  0  0  0  0
   18.8282  -19.8840  -18.1551 C   0  0  0  0  0  0  0  0  0  0  0  0
   19.6704  -20.9418  -17.8712 C   0  0  0  0  0  0  0  0  0  0  0  0
   20.6628  -20.7155  -16.9415 C   0  0  0  0  0  0  0  0  0  0  0  0
   20.8330  -19.4972  -16.3066 C   0  0  0  0  0  0  0  0  0  0  0  0
   21.3080  -20.8047  -13.0413 C   0  0  0  0  0  0  0  0  0  0  0  0
   21.1008  -22.2068  -12.9782 O   0  0  0  0  0  0  0  0  0  0  0  0
   20.2729  -20.1346  -12.8126 O   0  0  0  0  0  0  0  0  0  0  0  0
  2  1  1  0
  3  2  1  0
  3  4  1  1
  5  3  1  0
  5  6  1  6
  7  5  1  0
  8  7  2  0
  9  7  1  0
 10  9  1  0
 11 12  1  0
 10 11  1  1
 12 13  2  0
 13 14  1  0
 15 14  2  0
 16 15  1  0
 17 16  2  0
 17 12  1  0
 18 10  1  0
 18 19  2  0
 20 18  1  0
 21 20  1  0
 21 22  1  6
 23 22  1  0
 23 31  1  0
 24 23  2  0
 25 24  1  0
 25 26  1  0
 26 27  1  0
 26 31  2  0
 27 28  2  0
 28 29  1  0
 30 29  2  0
 31 30  1  0
 32 21  1  0
 33 32  1  0
 34 32  2  0
M  END
$$$$
