ICK.pdb
     RDKit          3D

 24 23  0  0  1  0  0  0  0  0999 V2000
    6.9936  -10.9689   27.6215 C   0  0  0  0  0  0  0  0  0  0  0  0
    6.0980  -11.9033   26.8546 C   0  0  0  0  0  0  0  0  0  0  0  0
    6.8589  -12.8766   26.0081 C   0  0  2  0  0  0  0  0  0  0  0  0
    7.8451  -12.1360   25.1627 C   0  0  0  0  0  0  0  0  0  0  0  0
    5.9575  -13.7938   25.2181 C   0  0  2  0  0  0  0  0  0  0  0  0
    5.2750  -14.6554   26.1631 N   0  0  0  0  0  0  0  0  0  0  0  0
    6.8500  -14.6644   24.3794 C   0  0  0  0  0  0  0  0  0  0  0  0
    7.4675  -15.6436   24.8739 O   0  0  0  0  0  0  0  0  0  0  0  0
    7.0351  -14.4189   22.9901 N   0  0  0  0  0  0  0  0  0  0  0  0
    7.8253  -15.3275   22.1500 C   0  0  1  0  0  0  0  0  0  0  0  0
    7.9794  -14.6284   20.8056 C   0  0  0  0  0  0  0  0  0  0  0  0
    9.0086  -15.6467   19.7271 S   0  0  0  0  0  0  0  0  0  0  0  0
    9.1569  -15.5014   22.7414 C   0  0  0  0  0  0  0  0  0  0  0  0
    9.7327  -14.4857   23.2381 O   0  0  0  0  0  0  0  0  0  0  0  0
    9.8304  -16.7393   22.7864 N   0  0  0  0  0  0  0  0  0  0  0  0
   11.0177  -16.9651   23.5914 C   0  0  1  0  0  0  0  0  0  0  0  0
   10.8848  -18.2252   24.4014 C   0  0  0  0  0  0  0  0  0  0  0  0
   12.1057  -18.5790   25.1712 C   0  0  0  0  0  0  0  0  0  0  0  0
   11.9769  -19.8597   25.9395 C   0  0  0  0  0  0  0  0  0  0  0  0
   13.2456  -20.1652   26.6784 C   0  0  0  0  0  0  0  0  0  0  0  0
   13.1427  -21.3032   27.5472 N   0  0  0  0  0  0  0  0  0  0  0  0
   12.1664  -17.0172   22.6543 C   0  0  0  0  0  0  0  0  0  0  0  0
   12.0554  -17.5163   21.3502 O   0  0  0  0  0  0  0  0  0  0  0  0
   13.3293  -16.6138   22.9679 O   0  0  0  0  0  0  0  0  0  0  0  0
  2  1  1  0
  3  2  1  0
  3  4  1  6
  5  6  1  1
  5  7  1  0
  5  3  1  0
  7  9  1  0
  8  7  2  0
  9 10  1  0
 10 11  1  6
 11 12  1  0
 13 15  1  0
 13 10  1  0
 14 13  2  0
 16 22  1  0
 16 15  1  0
 16 17  1  6
 18 17  1  0
 19 18  1  0
 20 19  1  0
 21 20  1  0
 22 23  1  0
 24 22  2  0
M  END
$$$$
