ICK.pdb
     RDKit          3D

 24 23  0  0  1  0  0  0  0  0999 V2000
    8.1831  -11.8013   19.9139 C   0  0  0  0  0  0  0  0  0  0  0  0
    7.7260  -12.8473   20.8938 C   0  0  0  0  0  0  0  0  0  0  0  0
    7.9692  -14.2441   20.4115 C   0  0  2  0  0  0  0  0  0  0  0  0
    7.3581  -14.4166   19.0578 C   0  0  0  0  0  0  0  0  0  0  0  0
    7.5322  -15.2908   21.4073 C   0  0  2  0  0  0  0  0  0  0  0  0
    6.1019  -15.1461   21.5934 N   0  0  0  0  0  0  0  0  0  0  0  0
    8.1922  -14.9508   22.7136 C   0  0  0  0  0  0  0  0  0  0  0  0
    9.4442  -14.9731   22.8438 O   0  0  0  0  0  0  0  0  0  0  0  0
    7.4301  -14.5892   23.8594 N   0  0  0  0  0  0  0  0  0  0  0  0
    8.0363  -14.5289   25.1953 C   0  0  1  0  0  0  0  0  0  0  0  0
    7.2613  -13.4639   25.9601 C   0  0  0  0  0  0  0  0  0  0  0  0
    5.5068  -13.8895   25.9469 S   0  0  0  0  0  0  0  0  0  0  0  0
    7.8507  -15.8177   25.8717 C   0  0  0  0  0  0  0  0  0  0  0  0
    6.7400  -16.4156   25.7344 O   0  0  0  0  0  0  0  0  0  0  0  0
    8.8429  -16.4269   26.6669 N   0  0  0  0  0  0  0  0  0  0  0  0
    8.8842  -17.8554   26.9240 C   0  0  1  0  0  0  0  0  0  0  0  0
    9.2660  -18.6130   25.6822 C   0  0  0  0  0  0  0  0  0  0  0  0
    8.1316  -19.3228   25.0359 C   0  0  0  0  0  0  0  0  0  0  0  0
    8.5523  -20.5240   24.2439 C   0  0  0  0  0  0  0  0  0  0  0  0
    7.4048  -21.0577   23.4392 C   0  0  0  0  0  0  0  0  0  0  0  0
    7.7026  -22.2882   22.7630 N   0  0  0  0  0  0  0  0  0  0  0  0
    9.8511  -18.0636   28.0295 C   0  0  0  0  0  0  0  0  0  0  0  0
    9.7095  -19.0883   28.9741 O   0  0  0  0  0  0  0  0  0  0  0  0
   10.8735  -17.3288   28.1971 O   0  0  0  0  0  0  0  0  0  0  0  0
  2  1  1  0
  3  2  1  0
  3  4  1  6
  5  6  1  1
  5  7  1  0
  5  3  1  0
  7  9  1  0
  8  7  2  0
  9 10  1  0
 10 11  1  1
 11 12  1  0
 13 15  1  0
 13 10  1  0
 14 13  2  0
 16 22  1  0
 16 15  1  0
 16 17  1  6
 18 17  1  0
 19 18  1  0
 20 19  1  0
 21 20  1  0
 22 23  1  0
 24 22  2  0
M  END
$$$$
