ICK.pdb
     RDKit          3D

 24 23  0  0  1  0  0  0  0  0999 V2000
    7.4994  -15.8694   18.0481 C   0  0  0  0  0  0  0  0  0  0  0  0
    7.1820  -14.5938   18.7798 C   0  0  0  0  0  0  0  0  0  0  0  0
    7.6127  -14.6216   20.2139 C   0  0  2  0  0  0  0  0  0  0  0  0
    7.0592  -15.8426   20.8762 C   0  0  0  0  0  0  0  0  0  0  0  0
    7.2912  -13.3413   20.9459 C   0  0  2  0  0  0  0  0  0  0  0  0
    7.9534  -12.2593   20.2445 N   0  0  0  0  0  0  0  0  0  0  0  0
    7.9213  -13.4478   22.3058 C   0  0  0  0  0  0  0  0  0  0  0  0
    9.1688  -13.5384   22.4478 O   0  0  0  0  0  0  0  0  0  0  0  0
    7.1345  -13.4506   23.4913 N   0  0  0  0  0  0  0  0  0  0  0  0
    7.7343  -13.6962   24.8087 C   0  0  1  0  0  0  0  0  0  0  0  0
    6.6435  -13.3973   25.8287 C   0  0  0  0  0  0  0  0  0  0  0  0
    6.4721  -11.6082   26.0001 S   0  0  0  0  0  0  0  0  0  0  0  0
    8.1017  -15.1125   24.9190 C   0  0  0  0  0  0  0  0  0  0  0  0
    7.2551  -15.9844   24.5545 O   0  0  0  0  0  0  0  0  0  0  0  0
    9.3473  -15.5553   25.4092 N   0  0  0  0  0  0  0  0  0  0  0  0
    9.7317  -16.9552   25.4435 C   0  0  1  0  0  0  0  0  0  0  0  0
   10.7807  -17.2489   24.4067 C   0  0  0  0  0  0  0  0  0  0  0  0
   11.2296  -18.6654   24.3872 C   0  0  0  0  0  0  0  0  0  0  0  0
   12.2670  -18.9486   23.3430 C   0  0  0  0  0  0  0  0  0  0  0  0
   12.6029  -20.4098   23.3110 C   0  0  0  0  0  0  0  0  0  0  0  0
   13.6077  -20.7457   22.3426 N   0  0  0  0  0  0  0  0  0  0  0  0
   10.2078  -17.2346   26.8203 C   0  0  0  0  0  0  0  0  0  0  0  0
   10.3322  -18.5344   27.3274 O   0  0  0  0  0  0  0  0  0  0  0  0
   10.5356  -16.3167   27.6348 O   0  0  0  0  0  0  0  0  0  0  0  0
  2  1  1  0
  3  2  1  0
  3  4  1  1
  5  6  1  6
  5  7  1  0
  5  3  1  0
  7  9  1  0
  8  7  2  0
  9 10  1  0
 10 11  1  1
 11 12  1  0
 13 15  1  0
 13 10  1  0
 14 13  2  0
 16 22  1  0
 16 15  1  0
 16 17  1  6
 18 17  1  0
 19 18  1  0
 20 19  1  0
 21 20  1  0
 22 23  1  0
 24 22  2  0
M  END
$$$$
