ICK.pdb
     RDKit          3D

 24 23  0  0  1  0  0  0  0  0999 V2000
    3.4425  -20.0479   22.7317 C   0  0  0  0  0  0  0  0  0  0  0  0
    4.7222  -19.8907   23.5070 C   0  0  0  0  0  0  0  0  0  0  0  0
    5.7846  -20.8563   23.0806 C   0  0  2  0  0  0  0  0  0  0  0  0
    5.2787  -22.2545   23.2385 C   0  0  0  0  0  0  0  0  0  0  0  0
    7.1060  -20.6128   23.7683 C   0  0  2  0  0  0  0  0  0  0  0  0
    6.8419  -20.4823   25.1877 N   0  0  0  0  0  0  0  0  0  0  0  0
    7.6116  -19.2845   23.2810 C   0  0  0  0  0  0  0  0  0  0  0  0
    7.8256  -19.0697   22.0592 O   0  0  0  0  0  0  0  0  0  0  0  0
    7.8702  -18.2124   24.1802 N   0  0  0  0  0  0  0  0  0  0  0  0
    8.4651  -16.9518   23.7189 C   0  0  1  0  0  0  0  0  0  0  0  0
    8.2152  -15.9391   24.8288 C   0  0  0  0  0  0  0  0  0  0  0  0
    7.5646  -16.8005   26.2760 S   0  0  0  0  0  0  0  0  0  0  0  0
    9.9136  -17.1264   23.5632 C   0  0  0  0  0  0  0  0  0  0  0  0
   10.5057  -17.9528   24.3224 O   0  0  0  0  0  0  0  0  0  0  0  0
   10.6824  -16.4232   22.6132 N   0  0  0  0  0  0  0  0  0  0  0  0
   12.0900  -16.6922   22.3790 C   0  0  1  0  0  0  0  0  0  0  0  0
   12.4778  -16.3326   20.9712 C   0  0  0  0  0  0  0  0  0  0  0  0
   12.2417  -17.4185   19.9845 C   0  0  0  0  0  0  0  0  0  0  0  0
   11.6476  -16.9353   18.6958 C   0  0  0  0  0  0  0  0  0  0  0  0
   11.3539  -18.0875   17.7819 C   0  0  0  0  0  0  0  0  0  0  0  0
   10.8468  -17.6872   16.5002 N   0  0  0  0  0  0  0  0  0  0  0  0
   12.8482  -15.9126   23.3879 C   0  0  0  0  0  0  0  0  0  0  0  0
   12.2219  -15.0965   24.3388 O   0  0  0  0  0  0  0  0  0  0  0  0
   14.1162  -15.9301   23.4604 O   0  0  0  0  0  0  0  0  0  0  0  0
  2  1  1  0
  3  2  1  0
  3  4  1  1
  5  6  1  1
  5  7  1  0
  5  3  1  0
  7  9  1  0
  8  7  2  0
  9 10  1  0
 10 11  1  1
 11 12  1  0
 13 15  1  0
 13 10  1  0
 14 13  2  0
 16 22  1  0
 16 15  1  0
 16 17  1  6
 18 17  1  0
 19 18  1  0
 20 19  1  0
 21 20  1  0
 22 23  1  0
 24 22  2  0
M  END
$$$$
