ICK.pdb
     RDKit          3D

 24 23  0  0  1  0  0  0  0  0999 V2000
    7.3016  -10.8053   26.6691 C   0  0  0  0  0  0  0  0  0  0  0  0
    7.3952  -12.2763   26.9709 C   0  0  0  0  0  0  0  0  0  0  0  0
    6.7617  -13.1294   25.9155 C   0  0  2  0  0  0  0  0  0  0  0  0
    5.3649  -12.6576   25.6663 C   0  0  0  0  0  0  0  0  0  0  0  0
    6.8533  -14.6042   26.2233 C   0  0  2  0  0  0  0  0  0  0  0  0
    8.0418  -14.8095   27.0274 N   0  0  0  0  0  0  0  0  0  0  0  0
    7.0691  -15.3092   24.9140 C   0  0  0  0  0  0  0  0  0  0  0  0
    6.2139  -16.1060   24.4468 O   0  0  0  0  0  0  0  0  0  0  0  0
    8.2497  -15.1059   24.1462 N   0  0  0  0  0  0  0  0  0  0  0  0
    8.6701  -16.0661   23.1181 C   0  0  1  0  0  0  0  0  0  0  0  0
    8.6499  -15.3045   21.7993 C   0  0  0  0  0  0  0  0  0  0  0  0
    9.5936  -13.7768   21.9874 S   0  0  0  0  0  0  0  0  0  0  0  0
   10.0469  -16.4958   23.3884 C   0  0  0  0  0  0  0  0  0  0  0  0
   10.8076  -15.7102   24.0319 O   0  0  0  0  0  0  0  0  0  0  0  0
   10.5689  -17.7369   22.9701 N   0  0  0  0  0  0  0  0  0  0  0  0
   11.8450  -18.2543   23.4309 C   0  0  1  0  0  0  0  0  0  0  0  0
   11.6599  -19.5374   24.1931 C   0  0  0  0  0  0  0  0  0  0  0  0
   11.6551  -19.3668   25.6693 C   0  0  0  0  0  0  0  0  0  0  0  0
   11.5275  -20.6585   26.4192 C   0  0  0  0  0  0  0  0  0  0  0  0
   11.5937  -20.4221   27.8986 C   0  0  0  0  0  0  0  0  0  0  0  0
   11.5724  -21.6302   28.6734 N   0  0  0  0  0  0  0  0  0  0  0  0
   12.6943  -18.4321   22.2278 C   0  0  0  0  0  0  0  0  0  0  0  0
   14.0785  -18.2180   22.2417 O   0  0  0  0  0  0  0  0  0  0  0  0
   12.2269  -18.7905   21.1023 O   0  0  0  0  0  0  0  0  0  0  0  0
  2  1  1  0
  3  2  1  0
  3  4  1  1
  5  6  1  1
  5  7  1  0
  5  3  1  0
  7  9  1  0
  8  7  2  0
  9 10  1  0
 10 11  1  6
 11 12  1  0
 13 15  1  0
 13 10  1  0
 14 13  2  0
 16 22  1  0
 16 15  1  0
 16 17  1  6
 18 17  1  0
 19 18  1  0
 20 19  1  0
 21 20  1  0
 22 23  1  0
 24 22  2  0
M  END
$$$$
