ICK.pdb
     RDKit          3D

 24 23  0  0  1  0  0  0  0  0999 V2000
    6.8046  -12.3629   19.6729 C   0  0  0  0  0  0  0  0  0  0  0  0
    8.1206  -13.0265   19.3712 C   0  0  0  0  0  0  0  0  0  0  0  0
    8.5240  -14.0226   20.4143 C   0  0  2  0  0  0  0  0  0  0  0  0
    8.5483  -13.3584   21.7537 C   0  0  0  0  0  0  0  0  0  0  0  0
    9.8084  -14.7383   20.0736 C   0  0  2  0  0  0  0  0  0  0  0  0
    9.6305  -15.3608   18.7766 N   0  0  0  0  0  0  0  0  0  0  0  0
    9.9733  -15.8398   21.0821 C   0  0  0  0  0  0  0  0  0  0  0  0
    9.3404  -16.9235   20.9825 O   0  0  0  0  0  0  0  0  0  0  0  0
   10.8520  -15.7049   22.1930 N   0  0  0  0  0  0  0  0  0  0  0  0
   11.1423  -16.8365   23.0825 C   0  0  1  0  0  0  0  0  0  0  0  0
   12.5897  -16.6629   23.5236 C   0  0  0  0  0  0  0  0  0  0  0  0
   13.6536  -16.6621   22.0649 S   0  0  0  0  0  0  0  0  0  0  0  0
   10.2801  -16.7570   24.2671 C   0  0  0  0  0  0  0  0  0  0  0  0
   10.1390  -15.6311   24.8348 O   0  0  0  0  0  0  0  0  0  0  0  0
    9.5999  -17.8673   24.8078 N   0  0  0  0  0  0  0  0  0  0  0  0
    8.6421  -17.7564   25.8936 C   0  0  1  0  0  0  0  0  0  0  0  0
    7.5385  -18.7665   25.7407 C   0  0  0  0  0  0  0  0  0  0  0  0
    6.9198  -18.7841   24.3896 C   0  0  0  0  0  0  0  0  0  0  0  0
    5.9321  -19.8956   24.1998 C   0  0  0  0  0  0  0  0  0  0  0  0
    5.2616  -19.7872   22.8627 C   0  0  0  0  0  0  0  0  0  0  0  0
    4.3968  -20.8932   22.5641 N   0  0  0  0  0  0  0  0  0  0  0  0
    9.4016  -17.9395   27.1545 C   0  0  0  0  0  0  0  0  0  0  0  0
    8.8707  -17.6162   28.4099 O   0  0  0  0  0  0  0  0  0  0  0  0
   10.5844  -18.4014   27.1847 O   0  0  0  0  0  0  0  0  0  0  0  0
  2  1  1  0
  3  2  1  0
  3  4  1  1
  5  6  1  6
  5  7  1  0
  5  3  1  0
  7  9  1  0
  8  7  2  0
  9 10  1  0
 10 11  1  1
 11 12  1  0
 13 15  1  0
 13 10  1  0
 14 13  2  0
 16 22  1  0
 16 15  1  0
 16 17  1  6
 18 17  1  0
 19 18  1  0
 20 19  1  0
 21 20  1  0
 22 23  1  0
 24 22  2  0
M  END
$$$$
