ICK.pdb
     RDKit          3D

 24 23  0  0  1  0  0  0  0  0999 V2000
    8.2968  -11.6743   20.1108 C   0  0  0  0  0  0  0  0  0  0  0  0
    7.9124  -12.8328   20.9903 C   0  0  0  0  0  0  0  0  0  0  0  0
    8.3090  -14.1578   20.4157 C   0  0  2  0  0  0  0  0  0  0  0  0
    7.8295  -14.2510   19.0025 C   0  0  0  0  0  0  0  0  0  0  0  0
    7.8777  -15.3207   21.2759 C   0  0  2  0  0  0  0  0  0  0  0  0
    6.4305  -15.2935   21.3531 N   0  0  0  0  0  0  0  0  0  0  0  0
    8.4067  -15.0592   22.6578 C   0  0  0  0  0  0  0  0  0  0  0  0
    9.6427  -15.0259   22.8939 O   0  0  0  0  0  0  0  0  0  0  0  0
    7.5326  -14.8381   23.7586 N   0  0  0  0  0  0  0  0  0  0  0  0
    8.0417  -14.7288   25.1314 C   0  0  1  0  0  0  0  0  0  0  0  0
    6.8945  -14.1668   25.9608 C   0  0  0  0  0  0  0  0  0  0  0  0
    6.7541  -12.3945   25.6463 S   0  0  0  0  0  0  0  0  0  0  0  0
    8.3707  -16.0670   25.6356 C   0  0  0  0  0  0  0  0  0  0  0  0
    7.4583  -16.9487   25.6438 O   0  0  0  0  0  0  0  0  0  0  0  0
    9.6488  -16.4244   26.1117 N   0  0  0  0  0  0  0  0  0  0  0  0
    9.9921  -17.7752   26.5190 C   0  0  1  0  0  0  0  0  0  0  0  0
   10.9039  -18.4232   25.5138 C   0  0  0  0  0  0  0  0  0  0  0  0
   11.3341  -19.7959   25.8865 C   0  0  0  0  0  0  0  0  0  0  0  0
   12.3320  -20.3873   24.9368 C   0  0  0  0  0  0  0  0  0  0  0  0
   12.7215  -21.7694   25.3691 C   0  0  0  0  0  0  0  0  0  0  0  0
   13.6148  -22.4247   24.4564 N   0  0  0  0  0  0  0  0  0  0  0  0
   10.6167  -17.6719   27.8605 C   0  0  0  0  0  0  0  0  0  0  0  0
   10.7369  -18.7682   28.7243 O   0  0  0  0  0  0  0  0  0  0  0  0
   11.0857  -16.5844   28.3195 O   0  0  0  0  0  0  0  0  0  0  0  0
  2  1  1  0
  3  2  1  0
  3  4  1  6
  5  6  1  1
  5  7  1  0
  5  3  1  0
  7  9  1  0
  8  7  2  0
  9 10  1  0
 10 11  1  1
 11 12  1  0
 13 15  1  0
 13 10  1  0
 14 13  2  0
 16 22  1  0
 16 15  1  0
 16 17  1  6
 18 17  1  0
 19 18  1  0
 20 19  1  0
 21 20  1  0
 22 23  1  0
 24 22  2  0
M  END
$$$$
