ICK.pdb
     RDKit          3D

 24 23  0  0  1  0  0  0  0  0999 V2000
    7.3806  -11.9734   19.2547 C   0  0  0  0  0  0  0  0  0  0  0  0
    6.9420  -13.1784   20.0413 C   0  0  0  0  0  0  0  0  0  0  0  0
    8.0906  -14.0116   20.5205 C   0  0  2  0  0  0  0  0  0  0  0  0
    8.9577  -14.3788   19.3590 C   0  0  0  0  0  0  0  0  0  0  0  0
    7.6492  -15.1986   21.3416 C   0  0  2  0  0  0  0  0  0  0  0  0
    6.2424  -15.0220   21.6433 N   0  0  0  0  0  0  0  0  0  0  0  0
    8.3997  -15.1315   22.6416 C   0  0  0  0  0  0  0  0  0  0  0  0
    9.6291  -15.3946   22.7061 O   0  0  0  0  0  0  0  0  0  0  0  0
    7.7525  -14.7677   23.8554 N   0  0  0  0  0  0  0  0  0  0  0  0
    8.4826  -14.7185   25.1283 C   0  0  1  0  0  0  0  0  0  0  0  0
    7.6750  -13.8041   26.0402 C   0  0  0  0  0  0  0  0  0  0  0  0
    5.9414  -14.3058   25.9910 S   0  0  0  0  0  0  0  0  0  0  0  0
    8.5151  -16.0600   25.7220 C   0  0  0  0  0  0  0  0  0  0  0  0
    7.4630  -16.7674   25.6697 O   0  0  0  0  0  0  0  0  0  0  0  0
    9.6552  -16.6043   26.3479 N   0  0  0  0  0  0  0  0  0  0  0  0
    9.8010  -18.0207   26.6326 C   0  0  1  0  0  0  0  0  0  0  0  0
   10.4617  -18.7333   25.4847 C   0  0  0  0  0  0  0  0  0  0  0  0
   10.7171  -20.1754   25.7367 C   0  0  0  0  0  0  0  0  0  0  0  0
   11.4852  -20.8464   24.6381 C   0  0  0  0  0  0  0  0  0  0  0  0
   11.6032  -22.3191   24.8959 C   0  0  0  0  0  0  0  0  0  0  0  0
   12.3041  -23.0272   23.8627 N   0  0  0  0  0  0  0  0  0  0  0  0
   10.5858  -18.1265   27.8869 C   0  0  0  0  0  0  0  0  0  0  0  0
   11.2346  -17.0289   28.4670 O   0  0  0  0  0  0  0  0  0  0  0  0
   10.7243  -19.2177   28.5222 O   0  0  0  0  0  0  0  0  0  0  0  0
  2  1  1  0
  3  2  1  0
  3  4  1  6
  5  6  1  1
  5  7  1  0
  5  3  1  0
  7  9  1  0
  8  7  2  0
  9 10  1  0
 10 11  1  1
 11 12  1  0
 13 15  1  0
 13 10  1  0
 14 13  2  0
 16 22  1  0
 16 15  1  0
 16 17  1  6
 18 17  1  0
 19 18  1  0
 20 19  1  0
 21 20  1  0
 22 23  1  0
 24 22  2  0
M  END
$$$$
