HLE.pdb
     RDKit          3D

 28 28  0  0  1  0  0  0  0  0999 V2000
   24.2366  -36.1179   -4.8042 N   0  0  0  0  0  0  0  0  0  0  0  0
   23.2968  -35.7700   -3.7555 C   0  0  1  0  0  0  0  0  0  0  0  0
   22.7031  -37.0201   -3.2082 C   0  0  0  0  0  0  0  0  0  0  0  0
   21.8245  -37.6135   -4.2495 C   0  0  0  0  0  0  0  0  0  0  0  0
   21.9710  -38.8101   -4.9480 C   0  0  0  0  0  0  0  0  0  0  0  0
   20.9693  -38.9893   -5.8036 N   0  0  0  0  0  0  0  0  0  0  0  0
   20.1660  -37.9234   -5.6749 C   0  0  0  0  0  0  0  0  0  0  0  0
   20.6677  -37.0878   -4.7441 N   0  0  0  0  0  0  0  0  0  0  0  0
   24.0349  -34.9757   -2.7409 C   0  0  0  0  0  0  0  0  0  0  0  0
   25.1560  -35.3660   -2.2961 O   0  0  0  0  0  0  0  0  0  0  0  0
   24.1732  -29.3334   -2.7530 C   0  0  0  0  0  0  0  0  0  0  0  0
   24.4487  -30.8163   -2.7060 C   0  0  1  0  0  0  0  0  0  0  0  0
   25.9721  -30.9502   -2.8507 C   0  0  0  0  0  0  0  0  0  0  0  0
   24.0058  -31.4610   -1.4486 C   0  0  0  0  0  0  0  0  0  0  0  0
   24.2550  -32.9031   -1.2803 C   0  0  2  0  0  0  0  0  0  0  0  0
   23.5458  -33.7521   -2.2105 N   0  0  0  0  0  0  0  0  0  0  0  0
   24.2168  -33.4235    0.0926 C   0  0  0  0  0  0  0  0  0  0  0  0
   23.1009  -33.7772    0.5554 O   0  0  0  0  0  0  0  0  0  0  0  0
   25.3502  -33.5627    0.9365 N   0  0  0  0  0  0  0  0  0  0  0  0
   25.2284  -33.9676    2.3130 C   0  0  1  0  0  0  0  0  0  0  0  0
   26.4477  -34.6192    2.8862 C   0  0  0  0  0  0  0  0  0  0  0  0
   26.4004  -35.1001    4.2731 C   0  0  0  0  0  0  0  0  0  0  0  0
   27.6149  -35.6083    4.8896 C   0  0  0  0  0  0  0  0  0  0  0  0
   28.7319  -35.7164    4.3382 O   0  0  0  0  0  0  0  0  0  0  0  0
   24.7466  -32.8687    3.2068 C   0  0  0  0  0  0  0  0  0  0  0  0
   25.1145  -31.7013    3.0089 O   0  0  0  0  0  0  0  0  0  0  0  0
   27.4898  -36.0109    6.2423 O   0  0  0  0  0  0  0  0  0  0  0  0
   23.8942  -33.1500    4.2511 O   0  0  0  0  0  0  0  0  0  0  0  0
  2  1  1  6
  3  4  1  0
  3  2  1  0
  4  8  1  0
  5  4  2  0
  5  6  1  0
  6  7  1  0
  8  7  2  0
  9  2  1  0
  9 16  1  0
 10  9  2  0
 12 13  1  1
 12 11  1  0
 15 14  1  1
 14 12  1  0
 15 16  1  0
 17 15  1  0
 18 17  2  0
 19 17  1  0
 20 25  1  0
 20 19  1  0
 20 21  1  1
 22 21  1  0
 23 22  1  0
 24 23  2  0
 25 28  1  0
 26 25  2  0
 27 23  1  0
M  END
$$$$
