HLE.pdb
     RDKit          3D

 28 28  0  0  1  0  0  0  0  0999 V2000
   16.2820  -10.6335  -16.5647 N   0  0  0  0  0  0  0  0  0  0  0  0
   17.3448  -10.0664  -17.3728 C   0  0  1  0  0  0  0  0  0  0  0  0
   16.8143   -8.8826  -18.1022 C   0  0  0  0  0  0  0  0  0  0  0  0
   15.7764   -9.3504  -19.0572 C   0  0  0  0  0  0  0  0  0  0  0  0
   14.4061   -9.0981  -19.0619 C   0  0  0  0  0  0  0  0  0  0  0  0
   13.8131   -9.7008  -20.0879 N   0  0  0  0  0  0  0  0  0  0  0  0
   14.7788  -10.3463  -20.7577 C   0  0  0  0  0  0  0  0  0  0  0  0
   15.9644  -10.1447  -20.1494 N   0  0  0  0  0  0  0  0  0  0  0  0
   18.4715   -9.7404  -16.4622 C   0  0  0  0  0  0  0  0  0  0  0  0
   18.2706   -9.1366  -15.3659 O   0  0  0  0  0  0  0  0  0  0  0  0
   23.0794  -10.4552  -13.7238 C   0  0  0  0  0  0  0  0  0  0  0  0
   23.3022  -10.3773  -15.2143 C   0  0  1  0  0  0  0  0  0  0  0  0
   24.3869  -11.4219  -15.5171 C   0  0  0  0  0  0  0  0  0  0  0  0
   22.0881  -10.6700  -16.0102 C   0  0  0  0  0  0  0  0  0  0  0  0
   20.9612   -9.7243  -15.9342 C   0  0  2  0  0  0  0  0  0  0  0  0
   19.8216  -10.0743  -16.7514 N   0  0  0  0  0  0  0  0  0  0  0  0
   21.2919   -8.2958  -16.0184 C   0  0  0  0  0  0  0  0  0  0  0  0
   21.2688   -7.7538  -17.1543 O   0  0  0  0  0  0  0  0  0  0  0  0
   21.6310   -7.4774  -14.9086 N   0  0  0  0  0  0  0  0  0  0  0  0
   21.7983   -6.0529  -15.0369 C   0  0  1  0  0  0  0  0  0  0  0  0
   20.6285   -5.3344  -15.6330 C   0  0  0  0  0  0  0  0  0  0  0  0
   20.6944   -3.8730  -15.7631 C   0  0  0  0  0  0  0  0  0  0  0  0
   19.5576   -3.1585  -16.3205 C   0  0  0  0  0  0  0  0  0  0  0  0
   18.4886   -3.6701  -16.7188 O   0  0  0  0  0  0  0  0  0  0  0  0
   22.2290   -5.3963  -13.7634 C   0  0  0  0  0  0  0  0  0  0  0  0
   22.0263   -5.9572  -12.6764 O   0  0  0  0  0  0  0  0  0  0  0  0
   19.7047   -1.7519  -16.4079 O   0  0  0  0  0  0  0  0  0  0  0  0
   22.8511   -4.1682  -13.7944 O   0  0  0  0  0  0  0  0  0  0  0  0
  2  1  1  1
  3  4  1  0
  3  2  1  0
  4  8  1  0
  5  4  2  0
  5  6  1  0
  6  7  1  0
  8  7  2  0
  9  2  1  0
  9 16  1  0
 10  9  2  0
 12 13  1  6
 12 11  1  0
 15 14  1  6
 14 12  1  0
 15 16  1  0
 17 15  1  0
 18 17  2  0
 19 17  1  0
 20 25  1  0
 20 19  1  0
 20 21  1  1
 22 21  1  0
 23 22  1  0
 24 23  2  0
 25 28  1  0
 26 25  2  0
 27 23  1  0
M  END
$$$$
