HLE.pdb
     RDKit          3D

 28 28  0  0  1  0  0  0  0  0999 V2000
   25.9979  -19.4796  -13.6404 N   0  0  0  0  0  0  0  0  0  0  0  0
   26.6667  -20.7438  -13.3987 C   0  0  1  0  0  0  0  0  0  0  0  0
   28.1130  -20.5902  -13.7145 C   0  0  0  0  0  0  0  0  0  0  0  0
   28.2359  -20.1191  -15.1185 C   0  0  0  0  0  0  0  0  0  0  0  0
   28.3159  -18.8165  -15.6064 C   0  0  0  0  0  0  0  0  0  0  0  0
   28.4155  -18.8085  -16.9322 N   0  0  0  0  0  0  0  0  0  0  0  0
   28.4018  -20.0917  -17.3208 C   0  0  0  0  0  0  0  0  0  0  0  0
   28.2942  -20.8909  -16.2410 N   0  0  0  0  0  0  0  0  0  0  0  0
   26.4097  -21.1211  -11.9857 C   0  0  0  0  0  0  0  0  0  0  0  0
   26.6689  -22.2882  -11.5645 O   0  0  0  0  0  0  0  0  0  0  0  0
   27.1207  -18.8927   -7.1498 C   0  0  0  0  0  0  0  0  0  0  0  0
   26.8189  -19.9058   -8.2267 C   0  0  1  0  0  0  0  0  0  0  0  0
   27.2085  -21.2646   -7.6256 C   0  0  0  0  0  0  0  0  0  0  0  0
   25.3959  -19.9281   -8.6362 C   0  0  0  0  0  0  0  0  0  0  0  0
   25.0461  -20.5957   -9.9018 C   0  0  2  0  0  0  0  0  0  0  0  0
   25.8668  -20.2203  -11.0308 N   0  0  0  0  0  0  0  0  0  0  0  0
   23.6190  -20.6559  -10.2436 C   0  0  0  0  0  0  0  0  0  0  0  0
   22.8104  -20.9761   -9.3335 O   0  0  0  0  0  0  0  0  0  0  0  0
   23.0822  -20.3730  -11.5273 N   0  0  0  0  0  0  0  0  0  0  0  0
   21.6642  -20.3836  -11.7781 C   0  0  1  0  0  0  0  0  0  0  0  0
   21.1667  -19.2503  -12.6195 C   0  0  0  0  0  0  0  0  0  0  0  0
   19.7355  -19.1924  -12.9440 C   0  0  0  0  0  0  0  0  0  0  0  0
   19.2577  -18.1746  -13.8654 C   0  0  0  0  0  0  0  0  0  0  0  0
   19.9659  -17.4683  -14.6156 O   0  0  0  0  0  0  0  0  0  0  0  0
   21.1729  -21.6927  -12.3105 C   0  0  0  0  0  0  0  0  0  0  0  0
   21.9042  -22.3808  -13.0380 O   0  0  0  0  0  0  0  0  0  0  0  0
   17.8533  -17.9884  -13.8935 O   0  0  0  0  0  0  0  0  0  0  0  0
   19.9083  -22.1371  -11.9948 O   0  0  0  0  0  0  0  0  0  0  0  0
  2  1  1  1
  3  4  1  0
  3  2  1  0
  4  8  1  0
  5  4  2  0
  5  6  1  0
  6  7  1  0
  8  7  2  0
  9  2  1  0
  9 16  1  0
 10  9  2  0
 12 13  1  1
 12 11  1  0
 15 14  1  1
 14 12  1  0
 15 16  1  0
 17 15  1  0
 18 17  2  0
 19 17  1  0
 20 25  1  0
 20 19  1  0
 20 21  1  6
 22 21  1  0
 23 22  1  0
 24 23  2  0
 25 28  1  0
 26 25  2  0
 27 23  1  0
M  END
$$$$
