HLE.pdb
     RDKit          3D

 28 28  0  0  1  0  0  0  0  0999 V2000
   24.1394  -32.3909    3.0689 N   0  0  0  0  0  0  0  0  0  0  0  0
   23.8624  -31.9323    4.4169 C   0  0  1  0  0  0  0  0  0  0  0  0
   23.0874  -32.9825    5.1320 C   0  0  0  0  0  0  0  0  0  0  0  0
   21.6805  -32.9282    4.6567 C   0  0  0  0  0  0  0  0  0  0  0  0
   21.0174  -33.7734    3.7694 C   0  0  0  0  0  0  0  0  0  0  0  0
   19.7565  -33.3893    3.5960 N   0  0  0  0  0  0  0  0  0  0  0  0
   19.5836  -32.3009    4.3598 C   0  0  0  0  0  0  0  0  0  0  0  0
   20.7320  -32.0120    5.0033 N   0  0  0  0  0  0  0  0  0  0  0  0
   25.1651  -31.6225    5.0588 C   0  0  0  0  0  0  0  0  0  0  0  0
   26.1528  -32.4086    4.9432 O   0  0  0  0  0  0  0  0  0  0  0  0
   28.8887  -27.0661    6.5127 C   0  0  0  0  0  0  0  0  0  0  0  0
   28.2916  -28.3227    7.0974 C   0  0  1  0  0  0  0  0  0  0  0  0
   28.0651  -28.0100    8.5841 C   0  0  0  0  0  0  0  0  0  0  0  0
   27.0111  -28.7181    6.4673 C   0  0  0  0  0  0  0  0  0  0  0  0
   26.6113  -30.1344    6.5325 C   0  0  2  0  0  0  0  0  0  0  0  0
   25.3883  -30.4507    5.8301 N   0  0  0  0  0  0  0  0  0  0  0  0
   26.6825  -30.7800    7.8498 C   0  0  0  0  0  0  0  0  0  0  0  0
   25.6163  -30.8841    8.5109 O   0  0  0  0  0  0  0  0  0  0  0  0
   27.8679  -31.3021    8.4315 N   0  0  0  0  0  0  0  0  0  0  0  0
   27.8337  -32.3563    9.4118 C   0  0  1  0  0  0  0  0  0  0  0  0
   27.0996  -33.5883    8.9837 C   0  0  0  0  0  0  0  0  0  0  0  0
   27.0526  -34.7325    9.9033 C   0  0  0  0  0  0  0  0  0  0  0  0
   26.3871  -35.9543    9.4818 C   0  0  0  0  0  0  0  0  0  0  0  0
   26.7589  -37.1211    9.7343 O   0  0  0  0  0  0  0  0  0  0  0  0
   29.1875  -32.7058    9.9442 C   0  0  0  0  0  0  0  0  0  0  0  0
   29.3720  -32.7847   11.1678 O   0  0  0  0  0  0  0  0  0  0  0  0
   25.2096  -35.7740    8.7146 O   0  0  0  0  0  0  0  0  0  0  0  0
   30.2320  -32.9406    9.0780 O   0  0  0  0  0  0  0  0  0  0  0  0
  2  1  1  6
  3  4  1  0
  3  2  1  0
  4  8  1  0
  5  4  2  0
  5  6  1  0
  6  7  1  0
  8  7  2  0
  9  2  1  0
  9 16  1  0
 10  9  2  0
 12 13  1  1
 12 11  1  0
 15 14  1  1
 14 12  1  0
 15 16  1  0
 17 15  1  0
 18 17  2  0
 19 17  1  0
 20 25  1  0
 20 19  1  0
 20 21  1  6
 22 21  1  0
 23 22  1  0
 24 23  2  0
 25 28  1  0
 26 25  2  0
 27 23  1  0
M  END
$$$$
