HLE.pdb
     RDKit          3D

 28 28  0  0  1  0  0  0  0  0999 V2000
   27.3438  -20.5668  -15.8712 N   0  0  0  0  0  0  0  0  0  0  0  0
   26.4854  -19.6278  -15.1745 C   0  0  1  0  0  0  0  0  0  0  0  0
   25.8093  -18.7600  -16.1768 C   0  0  0  0  0  0  0  0  0  0  0  0
   26.8279  -17.8591  -16.7758 C   0  0  0  0  0  0  0  0  0  0  0  0
   28.1942  -17.7777  -16.5147 C   0  0  0  0  0  0  0  0  0  0  0  0
   28.7673  -16.8366  -17.2587 N   0  0  0  0  0  0  0  0  0  0  0  0
   27.7925  -16.2987  -18.0060 C   0  0  0  0  0  0  0  0  0  0  0  0
   26.6211  -16.9035  -17.7262 N   0  0  0  0  0  0  0  0  0  0  0  0
   25.5394  -20.4183  -14.3467 C   0  0  0  0  0  0  0  0  0  0  0  0
   24.8957  -21.3917  -14.8416 O   0  0  0  0  0  0  0  0  0  0  0  0
   26.1597  -20.6322   -8.7445 C   0  0  0  0  0  0  0  0  0  0  0  0
   25.9918  -20.8945  -10.2211 C   0  0  1  0  0  0  0  0  0  0  0  0
   26.4543  -22.3443  -10.4303 C   0  0  0  0  0  0  0  0  0  0  0  0
   24.5972  -20.7397  -10.6947 C   0  0  0  0  0  0  0  0  0  0  0  0
   24.3388  -20.8361  -12.1417 C   0  0  2  0  0  0  0  0  0  0  0  0
   25.2955  -20.1431  -12.9746 N   0  0  0  0  0  0  0  0  0  0  0  0
   22.9543  -20.6182  -12.5807 C   0  0  0  0  0  0  0  0  0  0  0  0
   22.5516  -19.4301  -12.6848 O   0  0  0  0  0  0  0  0  0  0  0  0
   22.0358  -21.6521  -12.9026 N   0  0  0  0  0  0  0  0  0  0  0  0
   20.6932  -21.3681  -13.3391 C   0  0  1  0  0  0  0  0  0  0  0  0
   20.3242  -21.9619  -14.6624 C   0  0  0  0  0  0  0  0  0  0  0  0
   18.9623  -21.7524  -15.1706 C   0  0  0  0  0  0  0  0  0  0  0  0
   18.7676  -20.9534  -16.3692 C   0  0  0  0  0  0  0  0  0  0  0  0
   19.2706  -21.1743  -17.4924 O   0  0  0  0  0  0  0  0  0  0  0  0
   19.6601  -21.6936  -12.3071 C   0  0  0  0  0  0  0  0  0  0  0  0
   19.8202  -22.6649  -11.5532 O   0  0  0  0  0  0  0  0  0  0  0  0
   17.9237  -19.8250  -16.2195 O   0  0  0  0  0  0  0  0  0  0  0  0
   18.5292  -20.9165  -12.1913 O   0  0  0  0  0  0  0  0  0  0  0  0
  2  1  1  6
  3  4  1  0
  3  2  1  0
  4  8  1  0
  5  4  2  0
  5  6  1  0
  6  7  1  0
  8  7  2  0
  9  2  1  0
  9 16  1  0
 10  9  2  0
 12 13  1  1
 12 11  1  0
 15 14  1  1
 14 12  1  0
 15 16  1  0
 17 15  1  0
 18 17  2  0
 19 17  1  0
 20 25  1  0
 20 19  1  0
 20 21  1  6
 22 21  1  0
 23 22  1  0
 24 23  2  0
 25 28  1  0
 26 25  2  0
 27 23  1  0
M  END
$$$$
