HLE.pdb
     RDKit          3D

 28 28  0  0  1  0  0  0  0  0999 V2000
   27.3474  -21.0178  -16.2025 N   0  0  0  0  0  0  0  0  0  0  0  0
   26.6588  -19.9271  -15.5390 C   0  0  1  0  0  0  0  0  0  0  0  0
   26.0949  -19.0159  -16.5718 C   0  0  0  0  0  0  0  0  0  0  0  0
   27.2055  -18.2034  -17.1327 C   0  0  0  0  0  0  0  0  0  0  0  0
   28.5596  -18.2172  -16.8047 C   0  0  0  0  0  0  0  0  0  0  0  0
   29.2364  -17.3349  -17.5335 N   0  0  0  0  0  0  0  0  0  0  0  0
   28.3418  -16.7415  -18.3370 C   0  0  0  0  0  0  0  0  0  0  0  0
   27.1166  -17.2536  -18.1070 N   0  0  0  0  0  0  0  0  0  0  0  0
   25.6266  -20.5243  -14.6542 C   0  0  0  0  0  0  0  0  0  0  0  0
   24.9519  -21.5310  -15.0258 O   0  0  0  0  0  0  0  0  0  0  0  0
   26.0685  -20.2715   -9.0475 C   0  0  0  0  0  0  0  0  0  0  0  0
   25.9033  -20.6216  -10.5061 C   0  0  1  0  0  0  0  0  0  0  0  0
   26.1502  -22.1354  -10.5900 C   0  0  0  0  0  0  0  0  0  0  0  0
   24.5607  -20.3020  -11.0431 C   0  0  0  0  0  0  0  0  0  0  0  0
   24.3104  -20.5352  -12.4758 C   0  0  2  0  0  0  0  0  0  0  0  0
   25.3305  -20.0189  -13.3601 N   0  0  0  0  0  0  0  0  0  0  0  0
   22.9536  -20.2538  -12.9629 C   0  0  0  0  0  0  0  0  0  0  0  0
   22.6938  -19.0781  -13.3300 O   0  0  0  0  0  0  0  0  0  0  0  0
   21.9123  -21.2146  -13.0559 N   0  0  0  0  0  0  0  0  0  0  0  0
   20.6078  -20.8758  -13.5628 C   0  0  1  0  0  0  0  0  0  0  0  0
   19.9747  -21.9266  -14.4201 C   0  0  0  0  0  0  0  0  0  0  0  0
   19.4481  -23.1360  -13.7742 C   0  0  0  0  0  0  0  0  0  0  0  0
   18.8166  -24.1590  -14.5916 C   0  0  0  0  0  0  0  0  0  0  0  0
   18.6688  -24.1238  -15.8326 O   0  0  0  0  0  0  0  0  0  0  0  0
   19.6625  -20.4252  -12.4942 C   0  0  0  0  0  0  0  0  0  0  0  0
   19.9289  -20.6342  -11.3014 O   0  0  0  0  0  0  0  0  0  0  0  0
   18.3332  -25.2897  -13.8876 O   0  0  0  0  0  0  0  0  0  0  0  0
   18.4949  -19.7778  -12.8315 O   0  0  0  0  0  0  0  0  0  0  0  0
  2  1  1  6
  3  4  1  0
  3  2  1  0
  4  8  1  0
  5  4  2  0
  5  6  1  0
  6  7  1  0
  8  7  2  0
  9  2  1  0
  9 16  1  0
 10  9  2  0
 12 13  1  1
 12 11  1  0
 15 14  1  1
 14 12  1  0
 15 16  1  0
 17 15  1  0
 18 17  2  0
 19 17  1  0
 20 25  1  0
 20 19  1  0
 20 21  1  1
 22 21  1  0
 23 22  1  0
 24 23  2  0
 25 28  1  0
 26 25  2  0
 27 23  1  0
M  END
$$$$
