HLE.pdb
     RDKit          3D

 28 28  0  0  1  0  0  0  0  0999 V2000
   14.8518  -20.2518    1.4407 N   0  0  0  0  0  0  0  0  0  0  0  0
   14.4054  -19.2419    2.3814 C   0  0  1  0  0  0  0  0  0  0  0  0
   13.2608  -19.7850    3.1621 C   0  0  0  0  0  0  0  0  0  0  0  0
   12.1019  -19.9382    2.2446 C   0  0  0  0  0  0  0  0  0  0  0  0
   11.4596  -21.1008    1.8237 C   0  0  0  0  0  0  0  0  0  0  0  0
   10.4587  -20.8200    0.9949 N   0  0  0  0  0  0  0  0  0  0  0  0
   10.4362  -19.4855    0.8666 C   0  0  0  0  0  0  0  0  0  0  0  0
   11.4185  -18.9421    1.6123 N   0  0  0  0  0  0  0  0  0  0  0  0
   15.5705  -18.8723    3.2246 C   0  0  0  0  0  0  0  0  0  0  0  0
   16.4304  -19.7391    3.5654 O   0  0  0  0  0  0  0  0  0  0  0  0
   17.7663  -13.6991    2.8795 C   0  0  0  0  0  0  0  0  0  0  0  0
   17.5931  -15.1968    2.9440 C   0  0  1  0  0  0  0  0  0  0  0  0
   18.9276  -15.7805    2.4562 C   0  0  0  0  0  0  0  0  0  0  0  0
   17.2932  -15.6998    4.3043 C   0  0  0  0  0  0  0  0  0  0  0  0
   16.9465  -17.1231    4.4594 C   0  0  2  0  0  0  0  0  0  0  0  0
   15.7955  -17.5518    3.6975 N   0  0  0  0  0  0  0  0  0  0  0  0
   16.9407  -17.6553    5.8282 C   0  0  0  0  0  0  0  0  0  0  0  0
   15.8252  -17.8415    6.3810 O   0  0  0  0  0  0  0  0  0  0  0  0
   18.1041  -17.9817    6.5739 N   0  0  0  0  0  0  0  0  0  0  0  0
   18.0337  -18.3940    7.9518 C   0  0  1  0  0  0  0  0  0  0  0  0
   19.1327  -19.3105    8.3902 C   0  0  0  0  0  0  0  0  0  0  0  0
   19.1425  -19.7794    9.7819 C   0  0  0  0  0  0  0  0  0  0  0  0
   20.2215  -20.6436   10.2317 C   0  0  0  0  0  0  0  0  0  0  0  0
   20.4138  -21.8275    9.8787 O   0  0  0  0  0  0  0  0  0  0  0  0
   17.8927  -17.2460    8.9008 C   0  0  0  0  0  0  0  0  0  0  0  0
   18.2879  -16.1174    8.5728 O   0  0  0  0  0  0  0  0  0  0  0  0
   21.1238  -20.0616   11.1564 O   0  0  0  0  0  0  0  0  0  0  0  0
   17.3243  -17.4387   10.1402 O   0  0  0  0  0  0  0  0  0  0  0  0
  2  1  1  6
  3  4  1  0
  3  2  1  0
  4  8  1  0
  5  4  2  0
  5  6  1  0
  6  7  1  0
  8  7  2  0
  9  2  1  0
  9 16  1  0
 10  9  2  0
 12 13  1  1
 12 11  1  0
 15 14  1  1
 14 12  1  0
 15 16  1  0
 17 15  1  0
 18 17  2  0
 19 17  1  0
 20 25  1  0
 20 19  1  0
 20 21  1  1
 22 21  1  0
 23 22  1  0
 24 23  2  0
 25 28  1  0
 26 25  2  0
 27 23  1  0
M  END
$$$$
