HLE.pdb
     RDKit          3D

 28 28  0  0  1  0  0  0  0  0999 V2000
   18.8369  -13.5995  -16.5463 N   0  0  0  0  0  0  0  0  0  0  0  0
   19.4306  -12.6389  -17.4566 C   0  0  1  0  0  0  0  0  0  0  0  0
   18.3434  -11.9473  -18.2015 C   0  0  0  0  0  0  0  0  0  0  0  0
   17.6667  -12.9447  -19.0707 C   0  0  0  0  0  0  0  0  0  0  0  0
   16.5037  -13.6745  -18.8334 C   0  0  0  0  0  0  0  0  0  0  0  0
   16.2219  -14.4707  -19.8601 N   0  0  0  0  0  0  0  0  0  0  0  0
   17.1869  -14.2721  -20.7696 C   0  0  0  0  0  0  0  0  0  0  0  0
   18.0625  -13.3573  -20.3085 N   0  0  0  0  0  0  0  0  0  0  0  0
   20.2685  -11.7174  -16.6481 C   0  0  0  0  0  0  0  0  0  0  0  0
   19.7826  -11.0932  -15.6576 O   0  0  0  0  0  0  0  0  0  0  0  0
   24.7059  -10.0017  -14.0146 C   0  0  0  0  0  0  0  0  0  0  0  0
   24.8827  -10.0392  -15.5128 C   0  0  1  0  0  0  0  0  0  0  0  0
   26.3187  -10.5352  -15.7392 C   0  0  0  0  0  0  0  0  0  0  0  0
   23.9273  -10.9390  -16.1991 C   0  0  0  0  0  0  0  0  0  0  0  0
   22.4980  -10.5834  -16.1777 C   0  0  2  0  0  0  0  0  0  0  0  0
   21.6411  -11.4769  -16.9238 N   0  0  0  0  0  0  0  0  0  0  0  0
   22.1660   -9.1709  -16.4050 C   0  0  0  0  0  0  0  0  0  0  0  0
   22.3441   -8.7046  -17.5606 O   0  0  0  0  0  0  0  0  0  0  0  0
   21.6521   -8.2916  -15.4156 N   0  0  0  0  0  0  0  0  0  0  0  0
   21.3562   -6.9121  -15.7036 C   0  0  1  0  0  0  0  0  0  0  0  0
   19.9482   -6.4975  -15.4114 C   0  0  0  0  0  0  0  0  0  0  0  0
   19.5513   -5.1121  -15.6941 C   0  0  0  0  0  0  0  0  0  0  0  0
   18.1896   -4.6917  -15.4071 C   0  0  0  0  0  0  0  0  0  0  0  0
   17.2753   -5.4137  -14.9532 O   0  0  0  0  0  0  0  0  0  0  0  0
   22.3277   -5.9613  -15.0786 C   0  0  0  0  0  0  0  0  0  0  0  0
   22.7225   -6.1505  -13.9185 O   0  0  0  0  0  0  0  0  0  0  0  0
   17.9017   -3.3308  -15.6773 O   0  0  0  0  0  0  0  0  0  0  0  0
   22.7861   -4.8742  -15.7888 O   0  0  0  0  0  0  0  0  0  0  0  0
  2  1  1  1
  3  4  1  0
  3  2  1  0
  4  8  1  0
  5  4  2  0
  5  6  1  0
  6  7  1  0
  8  7  2  0
  9  2  1  0
  9 16  1  0
 10  9  2  0
 12 13  1  1
 12 11  1  0
 15 14  1  6
 14 12  1  0
 15 16  1  0
 17 15  1  0
 18 17  2  0
 19 17  1  0
 20 25  1  0
 20 19  1  0
 20 21  1  1
 22 21  1  0
 23 22  1  0
 24 23  2  0
 25 28  1  0
 26 25  2  0
 27 23  1  0
M  END
$$$$
