HLE.pdb
     RDKit          3D

 28 28  0  0  1  0  0  0  0  0999 V2000
   15.6295  -20.4239    1.4087 N   0  0  0  0  0  0  0  0  0  0  0  0
   15.0488  -19.6978    2.5220 C   0  0  1  0  0  0  0  0  0  0  0  0
   14.2388  -20.6406    3.3405 C   0  0  0  0  0  0  0  0  0  0  0  0
   13.0446  -21.0365    2.5497 C   0  0  0  0  0  0  0  0  0  0  0  0
   12.7480  -22.2616    1.9560 C   0  0  0  0  0  0  0  0  0  0  0  0
   11.5760  -22.2175    1.3300 N   0  0  0  0  0  0  0  0  0  0  0  0
   11.0990  -20.9767    1.5059 C   0  0  0  0  0  0  0  0  0  0  0  0
   11.9715  -20.2555    2.2373 N   0  0  0  0  0  0  0  0  0  0  0  0
   16.1643  -19.0721    3.2765 C   0  0  0  0  0  0  0  0  0  0  0  0
   17.2063  -19.7326    3.5677 O   0  0  0  0  0  0  0  0  0  0  0  0
   17.5444  -13.6492    2.6866 C   0  0  0  0  0  0  0  0  0  0  0  0
   17.5600  -15.1512    2.8314 C   0  0  1  0  0  0  0  0  0  0  0  0
   18.9647  -15.5866    2.3878 C   0  0  0  0  0  0  0  0  0  0  0  0
   17.3047  -15.6151    4.2145 C   0  0  0  0  0  0  0  0  0  0  0  0
   17.1947  -17.0644    4.4535 C   0  0  2  0  0  0  0  0  0  0  0  0
   16.1402  -17.7211    3.7146 N   0  0  0  0  0  0  0  0  0  0  0  0
   17.2583  -17.5092    5.8518 C   0  0  0  0  0  0  0  0  0  0  0  0
   16.1849  -17.8677    6.4031 O   0  0  0  0  0  0  0  0  0  0  0  0
   18.4458  -17.5702    6.6278 N   0  0  0  0  0  0  0  0  0  0  0  0
   18.4272  -17.9423    8.0188 C   0  0  1  0  0  0  0  0  0  0  0  0
   19.6429  -18.6780    8.4885 C   0  0  0  0  0  0  0  0  0  0  0  0
   19.6977  -19.1225    9.8871 C   0  0  0  0  0  0  0  0  0  0  0  0
   20.9019  -19.7722   10.3783 C   0  0  0  0  0  0  0  0  0  0  0  0
   21.9388  -19.1984   10.7770 O   0  0  0  0  0  0  0  0  0  0  0  0
   18.1194  -16.7950    8.9284 C   0  0  0  0  0  0  0  0  0  0  0  0
   18.4620  -15.6452    8.6152 O   0  0  0  0  0  0  0  0  0  0  0  0
   20.8672  -21.1886   10.3950 O   0  0  0  0  0  0  0  0  0  0  0  0
   17.4554  -17.0119   10.1151 O   0  0  0  0  0  0  0  0  0  0  0  0
  2  1  1  6
  3  4  1  0
  3  2  1  0
  4  8  1  0
  5  4  2  0
  5  6  1  0
  6  7  1  0
  8  7  2  0
  9  2  1  0
  9 16  1  0
 10  9  2  0
 12 13  1  1
 12 11  1  0
 15 14  1  1
 14 12  1  0
 15 16  1  0
 17 15  1  0
 18 17  2  0
 19 17  1  0
 20 25  1  0
 20 19  1  0
 20 21  1  1
 22 21  1  0
 23 22  1  0
 24 23  2  0
 25 28  1  0
 26 25  2  0
 27 23  1  0
M  END
$$$$
