HLE.pdb
     RDKit          3D

 28 28  0  0  1  0  0  0  0  0999 V2000
   18.7910  -11.9780  -17.9540 N   0  0  0  0  0  0  0  0  0  0  0  0
   19.3777  -10.7434  -18.4391 C   0  0  1  0  0  0  0  0  0  0  0  0
   18.2855   -9.8306  -18.8737 C   0  0  0  0  0  0  0  0  0  0  0  0
   17.6520  -10.4071  -20.0880 C   0  0  0  0  0  0  0  0  0  0  0  0
   18.0053  -11.5455  -20.8096 C   0  0  0  0  0  0  0  0  0  0  0  0
   17.1884  -11.7287  -21.8424 N   0  0  0  0  0  0  0  0  0  0  0  0
   16.3022  -10.7231  -21.8075 C   0  0  0  0  0  0  0  0  0  0  0  0
   16.5687   -9.9207  -20.7580 N   0  0  0  0  0  0  0  0  0  0  0  0
   20.2105  -10.1850  -17.3438 C   0  0  0  0  0  0  0  0  0  0  0  0
   19.6911   -9.8401  -16.2402 O   0  0  0  0  0  0  0  0  0  0  0  0
   24.5074   -9.6718  -14.0372 C   0  0  0  0  0  0  0  0  0  0  0  0
   24.7893   -9.2742  -15.4654 C   0  0  1  0  0  0  0  0  0  0  0  0
   26.2168   -9.7655  -15.7486 C   0  0  0  0  0  0  0  0  0  0  0  0
   23.8502   -9.8718  -16.4423 C   0  0  0  0  0  0  0  0  0  0  0  0
   22.4588   -9.3885  -16.4556 C   0  0  2  0  0  0  0  0  0  0  0  0
   21.6148  -10.0022  -17.4558 N   0  0  0  0  0  0  0  0  0  0  0  0
   22.2644   -7.9349  -16.3755 C   0  0  0  0  0  0  0  0  0  0  0  0
   22.5069   -7.2526  -17.4052 O   0  0  0  0  0  0  0  0  0  0  0  0
   21.8162   -7.2414  -15.2204 N   0  0  0  0  0  0  0  0  0  0  0  0
   21.6879   -5.8073  -15.1962 C   0  0  1  0  0  0  0  0  0  0  0  0
   20.3044   -5.2962  -15.4502 C   0  0  0  0  0  0  0  0  0  0  0  0
   20.0772   -3.8453  -15.4295 C   0  0  0  0  0  0  0  0  0  0  0  0
   18.7403   -3.3330  -15.6812 C   0  0  0  0  0  0  0  0  0  0  0  0
   17.7191   -4.0177  -15.9088 O   0  0  0  0  0  0  0  0  0  0  0  0
   22.2617   -5.1883  -13.9609 C   0  0  0  0  0  0  0  0  0  0  0  0
   22.3870   -5.8638  -12.9287 O   0  0  0  0  0  0  0  0  0  0  0  0
   18.6140   -1.9218  -15.6602 O   0  0  0  0  0  0  0  0  0  0  0  0
   22.6519   -3.8677  -13.9662 O   0  0  0  0  0  0  0  0  0  0  0  0
  2  1  1  1
  3  4  1  0
  3  2  1  0
  4  8  1  0
  5  4  2  0
  5  6  1  0
  6  7  1  0
  8  7  2  0
  9  2  1  0
  9 16  1  0
 10  9  2  0
 12 13  1  6
 12 11  1  0
 15 14  1  6
 14 12  1  0
 15 16  1  0
 17 15  1  0
 18 17  2  0
 19 17  1  0
 20 25  1  0
 20 19  1  0
 20 21  1  1
 22 21  1  0
 23 22  1  0
 24 23  2  0
 25 28  1  0
 26 25  2  0
 27 23  1  0
M  END
$$$$
