HLE.pdb
     RDKit          3D

 28 28  0  0  1  0  0  0  0  0999 V2000
   22.8734  -14.6081  -18.3531 N   0  0  0  0  0  0  0  0  0  0  0  0
   22.8930  -13.2640  -18.8981 C   0  0  1  0  0  0  0  0  0  0  0  0
   21.5440  -12.9455  -19.4398 C   0  0  0  0  0  0  0  0  0  0  0  0
   21.2721  -13.8589  -20.5799 C   0  0  0  0  0  0  0  0  0  0  0  0
   20.1711  -14.6824  -20.8055 C   0  0  0  0  0  0  0  0  0  0  0  0
   20.3015  -15.3522  -21.9464 N   0  0  0  0  0  0  0  0  0  0  0  0
   21.4763  -14.9779  -22.4733 C   0  0  0  0  0  0  0  0  0  0  0  0
   22.0709  -14.0804  -21.6625 N   0  0  0  0  0  0  0  0  0  0  0  0
   23.3219  -12.3483  -17.8106 C   0  0  0  0  0  0  0  0  0  0  0  0
   22.6335  -12.2233  -16.7535 O   0  0  0  0  0  0  0  0  0  0  0  0
   28.6647  -11.1520  -16.3943 C   0  0  0  0  0  0  0  0  0  0  0  0
   27.1896  -11.4699  -16.4035 C   0  0  1  0  0  0  0  0  0  0  0  0
   26.8540  -11.8784  -14.9613 C   0  0  0  0  0  0  0  0  0  0  0  0
   26.3404  -10.3273  -16.8115 C   0  0  0  0  0  0  0  0  0  0  0  0
   24.8885  -10.5463  -16.9297 C   0  0  2  0  0  0  0  0  0  0  0  0
   24.5059  -11.5665  -17.8794 N   0  0  0  0  0  0  0  0  0  0  0  0
   24.0462   -9.3471  -17.0278 C   0  0  0  0  0  0  0  0  0  0  0  0
   24.0049   -8.7476  -18.1339 O   0  0  0  0  0  0  0  0  0  0  0  0
   23.2685   -8.8160  -15.9651 N   0  0  0  0  0  0  0  0  0  0  0  0
   22.3755   -7.7030  -16.1586 C   0  0  1  0  0  0  0  0  0  0  0  0
   21.3203   -7.9177  -17.1980 C   0  0  0  0  0  0  0  0  0  0  0  0
   20.3872   -6.8213  -17.4879 C   0  0  0  0  0  0  0  0  0  0  0  0
   19.2628   -7.0631  -18.3771 C   0  0  0  0  0  0  0  0  0  0  0  0
   19.0198   -8.1281  -18.9854 O   0  0  0  0  0  0  0  0  0  0  0  0
   21.7685   -7.2099  -14.8831 C   0  0  0  0  0  0  0  0  0  0  0  0
   21.6532   -7.9749  -13.9141 O   0  0  0  0  0  0  0  0  0  0  0  0
   18.3769   -5.9710  -18.5509 O   0  0  0  0  0  0  0  0  0  0  0  0
   21.3363   -5.9064  -14.7812 O   0  0  0  0  0  0  0  0  0  0  0  0
  2  1  1  1
  3  4  1  0
  3  2  1  0
  4  8  1  0
  5  4  2  0
  5  6  1  0
  6  7  1  0
  8  7  2  0
  9  2  1  0
  9 16  1  0
 10  9  2  0
 12 13  1  1
 12 11  1  0
 15 14  1  6
 14 12  1  0
 15 16  1  0
 17 15  1  0
 18 17  2  0
 19 17  1  0
 20 25  1  0
 20 19  1  0
 20 21  1  6
 22 21  1  0
 23 22  1  0
 24 23  2  0
 25 28  1  0
 26 25  2  0
 27 23  1  0
M  END
$$$$
