HLE.pdb
     RDKit          3D

 28 28  0  0  1  0  0  0  0  0999 V2000
   19.8001  -13.1627  -17.9972 N   0  0  0  0  0  0  0  0  0  0  0  0
   20.5021  -12.0630  -18.6311 C   0  0  1  0  0  0  0  0  0  0  0  0
   19.5030  -11.1346  -19.2266 C   0  0  0  0  0  0  0  0  0  0  0  0
   18.7505  -11.8704  -20.2757 C   0  0  0  0  0  0  0  0  0  0  0  0
   17.3825  -12.1181  -20.3682 C   0  0  0  0  0  0  0  0  0  0  0  0
   17.0968  -12.8176  -21.4620 N   0  0  0  0  0  0  0  0  0  0  0  0
   18.2622  -13.0324  -22.0894 C   0  0  0  0  0  0  0  0  0  0  0  0
   19.2651  -12.4686  -21.3876 N   0  0  0  0  0  0  0  0  0  0  0  0
   21.3562  -11.4246  -17.5977 C   0  0  0  0  0  0  0  0  0  0  0  0
   20.8725  -11.0654  -16.4824 O   0  0  0  0  0  0  0  0  0  0  0  0
   26.3700   -8.9427  -16.3734 C   0  0  0  0  0  0  0  0  0  0  0  0
   25.9521  -10.3157  -15.9071 C   0  0  1  0  0  0  0  0  0  0  0  0
   25.2985  -10.0959  -14.5345 C   0  0  0  0  0  0  0  0  0  0  0  0
   24.9939  -10.9837  -16.8175 C   0  0  0  0  0  0  0  0  0  0  0  0
   23.6033  -10.4984  -16.8424 C   0  0  2  0  0  0  0  0  0  0  0  0
   22.7425  -11.1771  -17.7844 N   0  0  0  0  0  0  0  0  0  0  0  0
   23.4129   -9.0422  -16.8598 C   0  0  0  0  0  0  0  0  0  0  0  0
   23.4819   -8.4544  -17.9708 O   0  0  0  0  0  0  0  0  0  0  0  0
   23.1502   -8.2472  -15.7130 N   0  0  0  0  0  0  0  0  0  0  0  0
   22.7458   -6.8692  -15.8191 C   0  0  1  0  0  0  0  0  0  0  0  0
   21.5267   -6.6350  -16.6549 C   0  0  0  0  0  0  0  0  0  0  0  0
   20.9694   -5.2777  -16.7186 C   0  0  0  0  0  0  0  0  0  0  0  0
   19.7417   -5.0490  -17.4629 C   0  0  0  0  0  0  0  0  0  0  0  0
   19.0962   -5.9082  -18.1019 O   0  0  0  0  0  0  0  0  0  0  0  0
   22.6141   -6.1931  -14.4909 C   0  0  0  0  0  0  0  0  0  0  0  0
   22.5253   -6.8700  -13.4559 O   0  0  0  0  0  0  0  0  0  0  0  0
   19.2559   -3.7181  -17.4439 O   0  0  0  0  0  0  0  0  0  0  0  0
   22.5911   -4.8184  -14.4138 O   0  0  0  0  0  0  0  0  0  0  0  0
  2  1  1  1
  3  4  1  0
  3  2  1  0
  4  8  1  0
  5  4  2  0
  5  6  1  0
  6  7  1  0
  8  7  2  0
  9  2  1  0
  9 16  1  0
 10  9  2  0
 12 13  1  1
 12 11  1  0
 15 14  1  6
 14 12  1  0
 15 16  1  0
 17 15  1  0
 18 17  2  0
 19 17  1  0
 20 25  1  0
 20 19  1  0
 20 21  1  1
 22 21  1  0
 23 22  1  0
 24 23  2  0
 25 28  1  0
 26 25  2  0
 27 23  1  0
M  END
$$$$
