HLE.pdb
     RDKit          3D

 28 28  0  0  1  0  0  0  0  0999 V2000
   21.9864  -13.4658  -19.0455 N   0  0  0  0  0  0  0  0  0  0  0  0
   22.4919  -12.1568  -19.4130 C   0  0  1  0  0  0  0  0  0  0  0  0
   21.4939  -11.4848  -20.2888 C   0  0  0  0  0  0  0  0  0  0  0  0
   21.4385  -12.2181  -21.5801 C   0  0  0  0  0  0  0  0  0  0  0  0
   20.4418  -13.0569  -22.0746 C   0  0  0  0  0  0  0  0  0  0  0  0
   20.7656  -13.5269  -23.2753 N   0  0  0  0  0  0  0  0  0  0  0  0
   21.9643  -13.0062  -23.5754 C   0  0  0  0  0  0  0  0  0  0  0  0
   22.3812  -12.2174  -22.5653 N   0  0  0  0  0  0  0  0  0  0  0  0
   22.7653  -11.4155  -18.1557 C   0  0  0  0  0  0  0  0  0  0  0  0
   21.9564  -11.4635  -17.1809 O   0  0  0  0  0  0  0  0  0  0  0  0
   27.9878  -10.3555  -16.3038 C   0  0  0  0  0  0  0  0  0  0  0  0
   26.5346  -10.7307  -16.4606 C   0  0  1  0  0  0  0  0  0  0  0  0
   26.1966  -11.5701  -15.2194 C   0  0  0  0  0  0  0  0  0  0  0  0
   25.6271   -9.5630  -16.5386 C   0  0  0  0  0  0  0  0  0  0  0  0
   24.1980   -9.8081  -16.7987 C   0  0  2  0  0  0  0  0  0  0  0  0
   23.9256  -10.6187  -17.9640 N   0  0  0  0  0  0  0  0  0  0  0  0
   23.3015   -8.6489  -16.7020 C   0  0  0  0  0  0  0  0  0  0  0  0
   23.3329   -7.8031  -17.6338 O   0  0  0  0  0  0  0  0  0  0  0  0
   22.3951   -8.4143  -15.6345 N   0  0  0  0  0  0  0  0  0  0  0  0
   21.5318   -7.2620  -15.6088 C   0  0  1  0  0  0  0  0  0  0  0  0
   20.2570   -7.4151  -16.3777 C   0  0  0  0  0  0  0  0  0  0  0  0
   19.3546   -6.2607  -16.4776 C   0  0  0  0  0  0  0  0  0  0  0  0
   18.0485   -6.4324  -17.0924 C   0  0  0  0  0  0  0  0  0  0  0  0
   17.6004   -7.4890  -17.5886 O   0  0  0  0  0  0  0  0  0  0  0  0
   21.2578   -6.7657  -14.2243 C   0  0  0  0  0  0  0  0  0  0  0  0
   20.8751   -5.5996  -14.0472 O   0  0  0  0  0  0  0  0  0  0  0  0
   17.2292   -5.2766  -17.1168 O   0  0  0  0  0  0  0  0  0  0  0  0
   21.4295   -7.6012  -13.1432 O   0  0  0  0  0  0  0  0  0  0  0  0
  2  1  1  1
  3  4  1  0
  3  2  1  0
  4  8  1  0
  5  4  2  0
  5  6  1  0
  6  7  1  0
  8  7  2  0
  9  2  1  0
  9 16  1  0
 10  9  2  0
 12 13  1  1
 12 11  1  0
 15 14  1  6
 14 12  1  0
 15 16  1  0
 17 15  1  0
 18 17  2  0
 19 17  1  0
 20 25  1  0
 20 19  1  0
 20 21  1  1
 22 21  1  0
 23 22  1  0
 24 23  2  0
 25 28  1  0
 26 25  2  0
 27 23  1  0
M  END
$$$$
