HLE.pdb
     RDKit          3D

 28 28  0  0  1  0  0  0  0  0999 V2000
   17.3968  -25.1874   -5.7556 N   0  0  0  0  0  0  0  0  0  0  0  0
   15.9961  -25.4036   -5.4466 C   0  0  1  0  0  0  0  0  0  0  0  0
   15.8196  -26.8026   -4.9706 C   0  0  0  0  0  0  0  0  0  0  0  0
   15.9563  -27.7126   -6.1374 C   0  0  0  0  0  0  0  0  0  0  0  0
   17.1112  -28.2325   -6.7181 C   0  0  0  0  0  0  0  0  0  0  0  0
   16.8156  -29.0118   -7.7539 N   0  0  0  0  0  0  0  0  0  0  0  0
   15.4789  -29.0097   -7.8602 C   0  0  0  0  0  0  0  0  0  0  0  0
   14.9490  -28.2327   -6.8950 N   0  0  0  0  0  0  0  0  0  0  0  0
   15.5990  -24.3854   -4.4414 C   0  0  0  0  0  0  0  0  0  0  0  0
   16.4453  -23.9069   -3.6280 O   0  0  0  0  0  0  0  0  0  0  0  0
   11.1453  -20.9194   -5.4081 C   0  0  0  0  0  0  0  0  0  0  0  0
   12.5278  -21.4162   -5.0630 C   0  0  1  0  0  0  0  0  0  0  0  0
   13.3934  -20.1532   -4.9406 C   0  0  0  0  0  0  0  0  0  0  0  0
   12.5816  -22.1854   -3.7986 C   0  0  0  0  0  0  0  0  0  0  0  0
   13.8526  -22.8335   -3.4318 C   0  0  2  0  0  0  0  0  0  0  0  0
   14.2730  -23.8896   -4.3245 N   0  0  0  0  0  0  0  0  0  0  0  0
   14.0253  -23.1943   -2.0186 C   0  0  0  0  0  0  0  0  0  0  0  0
   13.7807  -24.3823   -1.6819 O   0  0  0  0  0  0  0  0  0  0  0  0
   14.4547  -22.3004   -1.0023 N   0  0  0  0  0  0  0  0  0  0  0  0
   14.5623  -22.7088    0.3743 C   0  0  1  0  0  0  0  0  0  0  0  0
   15.5472  -21.9273    1.1862 C   0  0  0  0  0  0  0  0  0  0  0  0
   15.7228  -22.2752    2.6021 C   0  0  0  0  0  0  0  0  0  0  0  0
   16.5431  -21.4216    3.4459 C   0  0  0  0  0  0  0  0  0  0  0  0
   17.1259  -20.3743    3.0900 O   0  0  0  0  0  0  0  0  0  0  0  0
   13.2397  -22.7774    1.0704 C   0  0  0  0  0  0  0  0  0  0  0  0
   12.3354  -21.9862    0.7645 O   0  0  0  0  0  0  0  0  0  0  0  0
   16.6759  -21.8418    4.7926 O   0  0  0  0  0  0  0  0  0  0  0  0
   13.0228  -23.7184    2.0521 O   0  0  0  0  0  0  0  0  0  0  0  0
  2  1  1  1
  3  4  1  0
  3  2  1  0
  4  8  1  0
  5  4  2  0
  5  6  1  0
  6  7  1  0
  8  7  2  0
  9  2  1  0
  9 16  1  0
 10  9  2  0
 12 13  1  1
 12 11  1  0
 15 14  1  1
 14 12  1  0
 15 16  1  0
 17 15  1  0
 18 17  2  0
 19 17  1  0
 20 25  1  0
 20 19  1  0
 20 21  1  1
 22 21  1  0
 23 22  1  0
 24 23  2  0
 25 28  1  0
 26 25  2  0
 27 23  1  0
M  END
$$$$
