HLE.pdb
     RDKit          3D

 28 28  0  0  1  0  0  0  0  0999 V2000
   21.1831  -13.0452  -18.1064 N   0  0  0  0  0  0  0  0  0  0  0  0
   21.5306  -11.7412  -18.6382 C   0  0  1  0  0  0  0  0  0  0  0  0
   20.3336  -11.1593  -19.3042 C   0  0  0  0  0  0  0  0  0  0  0  0
   20.0718  -11.9295  -20.5478 C   0  0  0  0  0  0  0  0  0  0  0  0
   20.5565  -11.7133  -21.8361 C   0  0  0  0  0  0  0  0  0  0  0  0
   20.0868  -12.6249  -22.6822 N   0  0  0  0  0  0  0  0  0  0  0  0
   19.2987  -13.4379  -21.9640 C   0  0  0  0  0  0  0  0  0  0  0  0
   19.2802  -13.0319  -20.6791 N   0  0  0  0  0  0  0  0  0  0  0  0
   22.0337  -10.9188  -17.5088 C   0  0  0  0  0  0  0  0  0  0  0  0
   21.3387  -10.7536  -16.4616 O   0  0  0  0  0  0  0  0  0  0  0  0
   27.4177  -10.5961  -15.9612 C   0  0  0  0  0  0  0  0  0  0  0  0
   25.9161  -10.6947  -16.0743 C   0  0  1  0  0  0  0  0  0  0  0  0
   25.4453  -11.2681  -14.7293 C   0  0  0  0  0  0  0  0  0  0  0  0
   25.2547   -9.3933  -16.3237 C   0  0  0  0  0  0  0  0  0  0  0  0
   23.7927   -9.3786  -16.5031 C   0  0  2  0  0  0  0  0  0  0  0  0
   23.2995  -10.2743  -17.5246 N   0  0  0  0  0  0  0  0  0  0  0  0
   23.1478   -8.0601  -16.5569 C   0  0  0  0  0  0  0  0  0  0  0  0
   23.2955   -7.3766  -17.6036 O   0  0  0  0  0  0  0  0  0  0  0  0
   22.3630   -7.5006  -15.5142 N   0  0  0  0  0  0  0  0  0  0  0  0
   21.8367   -6.1625  -15.5925 C   0  0  1  0  0  0  0  0  0  0  0  0
   20.3661   -6.0807  -15.8581 C   0  0  0  0  0  0  0  0  0  0  0  0
   19.7554   -4.7553  -16.0239 C   0  0  0  0  0  0  0  0  0  0  0  0
   18.3241   -4.6582  -16.2592 C   0  0  0  0  0  0  0  0  0  0  0  0
   17.5253   -5.6157  -16.3498 O   0  0  0  0  0  0  0  0  0  0  0  0
   22.2094   -5.3163  -14.4164 C   0  0  0  0  0  0  0  0  0  0  0  0
   22.4551   -5.8467  -13.3229 O   0  0  0  0  0  0  0  0  0  0  0  0
   17.8163   -3.3423  -16.3944 O   0  0  0  0  0  0  0  0  0  0  0  0
   22.2805   -3.9470  -14.5442 O   0  0  0  0  0  0  0  0  0  0  0  0
  2  1  1  1
  3  4  1  0
  3  2  1  0
  4  8  1  0
  5  4  2  0
  5  6  1  0
  6  7  1  0
  8  7  2  0
  9  2  1  0
  9 16  1  0
 10  9  2  0
 12 13  1  1
 12 11  1  0
 15 14  1  6
 14 12  1  0
 15 16  1  0
 17 15  1  0
 18 17  2  0
 19 17  1  0
 20 25  1  0
 20 19  1  0
 20 21  1  1
 22 21  1  0
 23 22  1  0
 24 23  2  0
 25 28  1  0
 26 25  2  0
 27 23  1  0
M  END
$$$$
