IPA.pdb
     RDKit          3D

 21 21  0  0  1  0  0  0  0  0999 V2000
   17.5686   -9.8790  -19.4231 C   0  0  0  0  0  0  0  0  0  0  0  0
   18.7291   -9.9052  -18.4254 C   0  0  0  0  0  0  0  0  0  0  0  0
   18.5641   -8.7598  -17.4865 C   0  0  2  0  0  0  0  0  0  0  0  0
   18.8651   -7.4285  -18.0942 C   0  0  0  0  0  0  0  0  0  0  0  0
   19.2565   -8.9776  -16.1432 C   0  0  2  0  0  0  0  0  0  0  0  0
   18.7607  -10.2169  -15.6045 N   0  0  0  0  0  0  0  0  0  0  0  0
   19.0695   -7.8947  -15.1926 C   0  0  0  0  0  0  0  0  0  0  0  0
   17.9637   -7.8921  -14.5457 O   0  0  0  0  0  0  0  0  0  0  0  0
   20.0123   -6.8703  -14.9457 N   0  0  0  0  0  0  0  0  0  0  0  0
   21.3088   -6.8933  -15.6625 C   0  0  0  0  0  0  0  0  0  0  0  0
   22.2385   -6.0313  -14.8796 C   0  0  0  0  0  0  0  0  0  0  0  0
   21.5018   -5.6796  -13.6333 C   0  0  0  0  0  0  0  0  0  0  0  0
   20.0526   -5.7143  -14.1349 C   0  0  1  0  0  0  0  0  0  0  0  0
   19.8152   -4.4252  -14.7973 C   0  0  0  0  0  0  0  0  0  0  0  0
   20.4543   -4.2651  -15.8909 O   0  0  0  0  0  0  0  0  0  0  0  0
   17.1670   -1.9449  -15.1322 C   0  0  0  0  0  0  0  0  0  0  0  0
   18.6392   -2.3284  -15.2802 C   0  0  2  0  0  0  0  0  0  0  0  0
   18.9844   -3.3848  -14.3650 N   0  0  0  0  0  0  0  0  0  0  0  0
   19.4115   -1.0994  -15.0785 C   0  0  0  0  0  0  0  0  0  0  0  0
   19.3359   -0.0764  -16.0018 O   0  0  0  0  0  0  0  0  0  0  0  0
   20.1468   -0.9504  -14.0793 O   0  0  0  0  0  0  0  0  0  0  0  0
  2  1  1  0
  3  2  1  0
  3  4  1  6
  5  3  1  0
  5  6  1  1
  7  5  1  0
  7  9  1  0
  8  7  2  0
  9 13  1  0
 10  9  1  0
 10 11  1  0
 11 12  1  0
 13 12  1  0
 13 14  1  6
 14 18  1  0
 15 14  2  0
 17 18  1  0
 17 19  1  0
 17 16  1  1
 19 20  1  0
 21 19  2  0
M  END
$$$$
