IPA.pdb
     RDKit          3D

 21 21  0  0  1  0  0  0  0  0999 V2000
   24.5007  -14.5089  -15.4112 C   0  0  0  0  0  0  0  0  0  0  0  0
   23.1923  -14.2619  -16.1661 C   0  0  0  0  0  0  0  0  0  0  0  0
   23.0029  -12.7902  -16.3040 C   0  0  2  0  0  0  0  0  0  0  0  0
   23.0256  -12.0510  -15.0059 C   0  0  0  0  0  0  0  0  0  0  0  0
   21.8157  -12.4159  -17.1880 C   0  0  2  0  0  0  0  0  0  0  0  0
   21.9259  -13.1873  -18.3983 N   0  0  0  0  0  0  0  0  0  0  0  0
   21.7206  -10.9981  -17.4912 C   0  0  0  0  0  0  0  0  0  0  0  0
   22.5135  -10.5567  -18.3957 O   0  0  0  0  0  0  0  0  0  0  0  0
   20.8271  -10.1001  -16.8632 N   0  0  0  0  0  0  0  0  0  0  0  0
   19.9255  -10.6027  -15.8003 C   0  0  0  0  0  0  0  0  0  0  0  0
   18.8195   -9.6111  -15.6822 C   0  0  0  0  0  0  0  0  0  0  0  0
   19.0194   -8.6550  -16.8071 C   0  0  0  0  0  0  0  0  0  0  0  0
   20.5428   -8.7209  -16.9748 C   0  0  1  0  0  0  0  0  0  0  0  0
   21.1087   -7.8370  -15.9476 C   0  0  0  0  0  0  0  0  0  0  0  0
   21.2688   -8.3851  -14.8056 O   0  0  0  0  0  0  0  0  0  0  0  0
   22.9217   -4.5835  -15.6049 C   0  0  0  0  0  0  0  0  0  0  0  0
   22.3024   -5.8786  -15.0799 C   0  0  2  0  0  0  0  0  0  0  0  0
   21.4798   -6.4946  -16.0882 N   0  0  0  0  0  0  0  0  0  0  0  0
   21.5719   -5.5255  -13.8595 C   0  0  0  0  0  0  0  0  0  0  0  0
   22.2627   -5.1653  -12.7205 O   0  0  0  0  0  0  0  0  0  0  0  0
   20.3230   -5.5420  -13.8218 O   0  0  0  0  0  0  0  0  0  0  0  0
  2  1  1  0
  3  2  1  0
  3  4  1  1
  5  3  1  0
  5  6  1  6
  7  5  1  0
  7  9  1  0
  8  7  2  0
  9 13  1  0
 10  9  1  0
 10 11  1  0
 11 12  1  0
 13 12  1  0
 13 14  1  1
 14 18  1  0
 15 14  2  0
 17 18  1  0
 17 19  1  0
 17 16  1  6
 19 20  1  0
 21 19  2  0
M  END
$$$$
