IPA.pdb
     RDKit          3D

 21 21  0  0  1  0  0  0  0  0999 V2000
   16.8802  -13.1418  -16.8018 C   0  0  0  0  0  0  0  0  0  0  0  0
   18.1069  -12.9253  -17.6912 C   0  0  0  0  0  0  0  0  0  0  0  0
   18.9762  -11.9004  -17.0472 C   0  0  2  0  0  0  0  0  0  0  0  0
   18.2696  -10.6261  -16.7170 C   0  0  0  0  0  0  0  0  0  0  0  0
   20.2964  -11.6824  -17.7824 C   0  0  2  0  0  0  0  0  0  0  0  0
   20.9398  -12.9654  -17.8921 N   0  0  0  0  0  0  0  0  0  0  0  0
   21.1804  -10.7187  -17.1491 C   0  0  0  0  0  0  0  0  0  0  0  0
   21.9050  -11.1589  -16.1885 O   0  0  0  0  0  0  0  0  0  0  0  0
   21.2856   -9.3587  -17.5215 N   0  0  0  0  0  0  0  0  0  0  0  0
   20.4032   -8.8314  -18.5885 C   0  0  0  0  0  0  0  0  0  0  0  0
   21.0436   -7.5809  -19.0851 C   0  0  0  0  0  0  0  0  0  0  0  0
   22.3717   -7.5190  -18.4129 C   0  0  0  0  0  0  0  0  0  0  0  0
   22.0677   -8.2590  -17.1040 C   0  0  1  0  0  0  0  0  0  0  0  0
   21.4250   -7.2803  -16.2175 C   0  0  0  0  0  0  0  0  0  0  0  0
   20.1956   -7.0552  -16.4785 O   0  0  0  0  0  0  0  0  0  0  0  0
   21.7853   -5.8042  -12.8450 C   0  0  0  0  0  0  0  0  0  0  0  0
   21.1630   -5.8538  -14.2403 C   0  0  2  0  0  0  0  0  0  0  0  0
   22.0051   -6.5895  -15.1471 N   0  0  0  0  0  0  0  0  0  0  0  0
   20.9363   -4.4636  -14.6444 C   0  0  0  0  0  0  0  0  0  0  0  0
   20.0009   -3.6951  -13.9818 O   0  0  0  0  0  0  0  0  0  0  0  0
   21.5759   -3.9478  -15.5858 O   0  0  0  0  0  0  0  0  0  0  0  0
  2  1  1  0
  3  2  1  0
  3  4  1  6
  5  3  1  0
  5  6  1  1
  7  5  1  0
  7  9  1  0
  8  7  2  0
  9 13  1  0
 10  9  1  0
 10 11  1  0
 11 12  1  0
 13 12  1  0
 13 14  1  1
 14 18  1  0
 15 14  2  0
 17 18  1  0
 17 19  1  0
 17 16  1  1
 19 20  1  0
 21 19  2  0
M  END
$$$$
