IPA.pdb
     RDKit          3D

 21 21  0  0  1  0  0  0  0  0999 V2000
   25.6002  -20.7021   -8.6359 C   0  0  0  0  0  0  0  0  0  0  0  0
   24.8024  -19.9172   -9.6800 C   0  0  0  0  0  0  0  0  0  0  0  0
   25.1413  -20.4544  -11.0280 C   0  0  2  0  0  0  0  0  0  0  0  0
   26.6078  -20.5095  -11.3084 C   0  0  0  0  0  0  0  0  0  0  0  0
   24.3382  -19.8073  -12.1537 C   0  0  2  0  0  0  0  0  0  0  0  0
   22.9508  -20.1064  -11.9136 N   0  0  0  0  0  0  0  0  0  0  0  0
   24.7301  -20.2315  -13.4871 C   0  0  0  0  0  0  0  0  0  0  0  0
   23.9932  -21.1227  -14.0386 O   0  0  0  0  0  0  0  0  0  0  0  0
   25.8480  -19.7310  -14.1935 N   0  0  0  0  0  0  0  0  0  0  0  0
   26.8597  -18.9267  -13.4690 C   0  0  0  0  0  0  0  0  0  0  0  0
   27.6096  -18.1612  -14.5044 C   0  0  0  0  0  0  0  0  0  0  0  0
   26.8884  -18.4094  -15.7841 C   0  0  0  0  0  0  0  0  0  0  0  0
   26.3135  -19.8078  -15.5250 C   0  0  1  0  0  0  0  0  0  0  0  0
   27.4000  -20.7570  -15.7991 C   0  0  0  0  0  0  0  0  0  0  0  0
   28.3814  -20.6894  -14.9852 O   0  0  0  0  0  0  0  0  0  0  0  0
   27.9753  -24.0791  -17.0550 C   0  0  0  0  0  0  0  0  0  0  0  0
   28.5301  -22.6723  -16.8322 C   0  0  2  0  0  0  0  0  0  0  0  0
   27.4678  -21.7006  -16.8308 N   0  0  0  0  0  0  0  0  0  0  0  0
   29.5305  -22.4490  -17.8796 C   0  0  0  0  0  0  0  0  0  0  0  0
   30.6586  -23.2417  -17.9379 O   0  0  0  0  0  0  0  0  0  0  0  0
   29.3876  -21.5477  -18.7332 O   0  0  0  0  0  0  0  0  0  0  0  0
  2  1  1  0
  3  2  1  0
  3  4  1  6
  5  3  1  0
  5  6  1  1
  7  5  1  0
  7  9  1  0
  8  7  2  0
  9 13  1  0
 10  9  1  0
 10 11  1  0
 11 12  1  0
 13 12  1  0
 13 14  1  1
 14 18  1  0
 15 14  2  0
 17 18  1  0
 17 19  1  0
 17 16  1  6
 19 20  1  0
 21 19  2  0
M  END
$$$$
