IPA.pdb
     RDKit          3D

 21 21  0  0  1  0  0  0  0  0999 V2000
   29.1476  -33.9612   -5.4863 C   0  0  0  0  0  0  0  0  0  0  0  0
   30.6413  -33.8187   -5.7881 C   0  0  0  0  0  0  0  0  0  0  0  0
   31.4049  -34.4722   -4.6878 C   0  0  2  0  0  0  0  0  0  0  0  0
   30.9789  -34.0501   -3.3194 C   0  0  0  0  0  0  0  0  0  0  0  0
   32.9173  -34.4185   -4.8897 C   0  0  2  0  0  0  0  0  0  0  0  0
   33.2006  -35.0433   -6.1551 N   0  0  0  0  0  0  0  0  0  0  0  0
   33.6842  -35.0446   -3.8262 C   0  0  0  0  0  0  0  0  0  0  0  0
   33.8186  -36.3168   -3.8967 O   0  0  0  0  0  0  0  0  0  0  0  0
   34.2761  -34.3502   -2.7460 N   0  0  0  0  0  0  0  0  0  0  0  0
   34.0686  -32.8881   -2.6265 C   0  0  0  0  0  0  0  0  0  0  0  0
   35.1525  -32.3799   -1.7391 C   0  0  0  0  0  0  0  0  0  0  0  0
   36.0622  -33.5386   -1.5172 C   0  0  0  0  0  0  0  0  0  0  0  0
   35.0759  -34.7073   -1.6378 C   0  0  1  0  0  0  0  0  0  0  0  0
   34.4042  -34.8152   -0.3363 C   0  0  0  0  0  0  0  0  0  0  0  0
   33.4195  -34.0177   -0.1798 O   0  0  0  0  0  0  0  0  0  0  0  0
   34.1005  -37.0641    2.6307 C   0  0  0  0  0  0  0  0  0  0  0  0
   33.8284  -35.7835    1.8417 C   0  0  2  0  0  0  0  0  0  0  0  0
   34.7235  -35.6777    0.7190 N   0  0  0  0  0  0  0  0  0  0  0  0
   33.9452  -34.6756    2.7938 C   0  0  0  0  0  0  0  0  0  0  0  0
   33.0728  -34.5854    3.8593 O   0  0  0  0  0  0  0  0  0  0  0  0
   34.8255  -33.7981    2.6653 O   0  0  0  0  0  0  0  0  0  0  0  0
  2  1  1  0
  3  2  1  0
  3  4  1  1
  5  3  1  0
  5  6  1  6
  7  5  1  0
  7  9  1  0
  8  7  2  0
  9 13  1  0
 10  9  1  0
 10 11  1  0
 11 12  1  0
 13 12  1  0
 13 14  1  1
 14 18  1  0
 15 14  2  0
 17 18  1  0
 17 19  1  0
 17 16  1  1
 19 20  1  0
 21 19  2  0
M  END
$$$$
