IPA.pdb
     RDKit          3D

 21 21  0  0  1  0  0  0  0  0999 V2000
   18.1192   -9.4652  -18.3397 C   0  0  0  0  0  0  0  0  0  0  0  0
   19.4937   -9.2850  -17.6908 C   0  0  0  0  0  0  0  0  0  0  0  0
   19.2946   -8.7419  -16.3174 C   0  0  2  0  0  0  0  0  0  0  0  0
   18.4245   -7.5285  -16.2647 C   0  0  0  0  0  0  0  0  0  0  0  0
   20.5979   -8.5812  -15.5385 C   0  0  2  0  0  0  0  0  0  0  0  0
   21.2970   -9.8372  -15.6140 N   0  0  0  0  0  0  0  0  0  0  0  0
   20.4202   -8.1764  -14.1543 C   0  0  0  0  0  0  0  0  0  0  0  0
   20.0762   -9.0979  -13.3333 O   0  0  0  0  0  0  0  0  0  0  0  0
   20.6003   -6.8593  -13.6727 N   0  0  0  0  0  0  0  0  0  0  0  0
   20.8835   -5.7700  -14.6362 C   0  0  0  0  0  0  0  0  0  0  0  0
   21.4865   -4.6576  -13.8492 C   0  0  0  0  0  0  0  0  0  0  0  0
   21.7002   -5.2073  -12.4811 C   0  0  0  0  0  0  0  0  0  0  0  0
   20.5674   -6.2388  -12.4041 C   0  0  1  0  0  0  0  0  0  0  0  0
   19.3521   -5.4906  -12.0578 C   0  0  0  0  0  0  0  0  0  0  0  0
   18.8619   -4.8024  -13.0151 O   0  0  0  0  0  0  0  0  0  0  0  0
   16.6471   -5.5640   -9.4962 C   0  0  0  0  0  0  0  0  0  0  0  0
   17.3192   -5.0369  -10.7639 C   0  0  2  0  0  0  0  0  0  0  0  0
   18.6954   -5.4558  -10.8221 N   0  0  0  0  0  0  0  0  0  0  0  0
   17.1471   -3.5816  -10.7515 C   0  0  0  0  0  0  0  0  0  0  0  0
   15.8964   -3.0320  -10.9470 O   0  0  0  0  0  0  0  0  0  0  0  0
   18.1156   -2.8141  -10.5662 O   0  0  0  0  0  0  0  0  0  0  0  0
  2  1  1  0
  3  2  1  0
  3  4  1  6
  5  3  1  0
  5  6  1  1
  7  5  1  0
  7  9  1  0
  8  7  2  0
  9 13  1  0
 10  9  1  0
 10 11  1  0
 11 12  1  0
 13 12  1  0
 13 14  1  6
 14 18  1  0
 15 14  2  0
 17 18  1  0
 17 19  1  0
 17 16  1  1
 19 20  1  0
 21 19  2  0
M  END
$$$$
