IPA.pdb
     RDKit          3D

 21 21  0  0  1  0  0  0  0  0999 V2000
   19.8852  -14.2479  -15.5997 C   0  0  0  0  0  0  0  0  0  0  0  0
   20.9245  -13.7394  -16.6018 C   0  0  0  0  0  0  0  0  0  0  0  0
   21.3104  -12.3536  -16.2123 C   0  0  2  0  0  0  0  0  0  0  0  0
   20.1531  -11.4206  -16.0632 C   0  0  0  0  0  0  0  0  0  0  0  0
   22.4386  -11.7801  -17.0663 C   0  0  2  0  0  0  0  0  0  0  0  0
   23.5522  -12.6865  -16.9653 N   0  0  0  0  0  0  0  0  0  0  0  0
   22.8399  -10.4328  -16.6987 C   0  0  0  0  0  0  0  0  0  0  0  0
   23.8251  -10.3361  -15.8855 O   0  0  0  0  0  0  0  0  0  0  0  0
   22.2230   -9.2527  -17.1739 N   0  0  0  0  0  0  0  0  0  0  0  0
   21.0399   -9.3618  -18.0592 C   0  0  0  0  0  0  0  0  0  0  0  0
   20.9183   -8.0541  -18.7631 C   0  0  0  0  0  0  0  0  0  0  0  0
   22.1432   -7.2890  -18.3973 C   0  0  0  0  0  0  0  0  0  0  0  0
   22.4403   -7.8668  -17.0077 C   0  0  1  0  0  0  0  0  0  0  0  0
   21.5578   -7.1600  -16.0705 C   0  0  0  0  0  0  0  0  0  0  0  0
   20.3640   -7.6103  -16.0237 O   0  0  0  0  0  0  0  0  0  0  0  0
   21.8026   -5.1756  -12.9782 C   0  0  0  0  0  0  0  0  0  0  0  0
   21.0048   -5.7244  -14.1609 C   0  0  2  0  0  0  0  0  0  0  0  0
   21.8820   -6.0751  -15.2475 N   0  0  0  0  0  0  0  0  0  0  0  0
   20.0180   -4.6986  -14.5089 C   0  0  0  0  0  0  0  0  0  0  0  0
   19.0077   -4.3830  -13.6234 O   0  0  0  0  0  0  0  0  0  0  0  0
   20.0671   -4.0933  -15.6010 O   0  0  0  0  0  0  0  0  0  0  0  0
  2  1  1  0
  3  2  1  0
  3  4  1  6
  5  3  1  0
  5  6  1  1
  7  5  1  0
  7  9  1  0
  8  7  2  0
  9 13  1  0
 10  9  1  0
 10 11  1  0
 11 12  1  0
 13 12  1  0
 13 14  1  1
 14 18  1  0
 15 14  2  0
 17 18  1  0
 17 19  1  0
 17 16  1  1
 19 20  1  0
 21 19  2  0
M  END
$$$$
