IPA.pdb
     RDKit          3D

 21 21  0  0  1  0  0  0  0  0999 V2000
   16.6389  -11.1724  -19.3219 C   0  0  0  0  0  0  0  0  0  0  0  0
   17.7194  -11.9754  -18.5936 C   0  0  0  0  0  0  0  0  0  0  0  0
   18.2643  -11.1333  -17.4913 C   0  0  2  0  0  0  0  0  0  0  0  0
   18.9336   -9.8817  -17.9577 C   0  0  0  0  0  0  0  0  0  0  0  0
   19.0998  -11.9231  -16.4867 C   0  0  2  0  0  0  0  0  0  0  0  0
   18.2884  -13.0191  -16.0261 N   0  0  0  0  0  0  0  0  0  0  0  0
   19.5842  -11.1375  -15.3645 C   0  0  0  0  0  0  0  0  0  0  0  0
   18.7427  -10.9104  -14.4255 O   0  0  0  0  0  0  0  0  0  0  0  0
   20.8961  -10.6224  -15.2506 N   0  0  0  0  0  0  0  0  0  0  0  0
   21.8803  -10.9094  -16.3202 C   0  0  0  0  0  0  0  0  0  0  0  0
   23.2274  -10.6802  -15.7257 C   0  0  0  0  0  0  0  0  0  0  0  0
   22.9875  -10.4413  -14.2749 C   0  0  0  0  0  0  0  0  0  0  0  0
   21.5846   -9.8218  -14.3124 C   0  0  1  0  0  0  0  0  0  0  0  0
   21.7691   -8.4048  -14.6511 C   0  0  0  0  0  0  0  0  0  0  0  0
   22.1989   -8.1939  -15.8347 O   0  0  0  0  0  0  0  0  0  0  0  0
   20.3129   -5.2952  -14.5328 C   0  0  0  0  0  0  0  0  0  0  0  0
   21.6758   -5.9698  -14.3778 C   0  0  2  0  0  0  0  0  0  0  0  0
   21.5289   -7.2945  -13.8333 N   0  0  0  0  0  0  0  0  0  0  0  0
   22.4889   -5.0785  -13.5459 C   0  0  0  0  0  0  0  0  0  0  0  0
   22.9382   -3.8771  -14.0551 O   0  0  0  0  0  0  0  0  0  0  0  0
   22.7907   -5.3811  -12.3717 O   0  0  0  0  0  0  0  0  0  0  0  0
  2  1  1  0
  3  2  1  0
  3  4  1  6
  5  3  1  0
  5  6  1  1
  7  5  1  0
  7  9  1  0
  8  7  2  0
  9 13  1  0
 10  9  1  0
 10 11  1  0
 11 12  1  0
 13 12  1  0
 13 14  1  6
 14 18  1  0
 15 14  2  0
 17 18  1  0
 17 19  1  0
 17 16  1  1
 19 20  1  0
 21 19  2  0
M  END
$$$$
