IPA.pdb
     RDKit          3D

 21 21  0  0  1  0  0  0  0  0999 V2000
   17.7544  -12.3411  -19.9163 C   0  0  0  0  0  0  0  0  0  0  0  0
   18.7712  -12.4204  -18.7750 C   0  0  0  0  0  0  0  0  0  0  0  0
   18.4586  -11.3422  -17.7949 C   0  0  2  0  0  0  0  0  0  0  0  0
   18.5062   -9.9649  -18.3718 C   0  0  0  0  0  0  0  0  0  0  0  0
   19.2357  -11.4732  -16.4872 C   0  0  2  0  0  0  0  0  0  0  0  0
   18.9724  -12.7885  -15.9651 N   0  0  0  0  0  0  0  0  0  0  0  0
   18.9171  -10.4567  -15.4990 C   0  0  0  0  0  0  0  0  0  0  0  0
   17.8522  -10.6467  -14.8125 O   0  0  0  0  0  0  0  0  0  0  0  0
   19.6937   -9.3003  -15.2564 N   0  0  0  0  0  0  0  0  0  0  0  0
   20.9183   -9.0710  -16.0583 C   0  0  0  0  0  0  0  0  0  0  0  0
   21.7493   -8.1013  -15.2903 C   0  0  0  0  0  0  0  0  0  0  0  0
   21.0609   -7.9370  -13.9793 C   0  0  0  0  0  0  0  0  0  0  0  0
   19.6036   -8.1927  -14.3843 C   0  0  1  0  0  0  0  0  0  0  0  0
   19.1073   -6.9331  -14.9533 C   0  0  0  0  0  0  0  0  0  0  0  0
   19.8306   -6.4523  -15.8891 O   0  0  0  0  0  0  0  0  0  0  0  0
   16.3150   -4.4247  -14.7430 C   0  0  0  0  0  0  0  0  0  0  0  0
   17.5692   -5.0628  -15.3398 C   0  0  2  0  0  0  0  0  0  0  0  0
   17.9561   -6.2266  -14.5856 N   0  0  0  0  0  0  0  0  0  0  0  0
   18.5935   -4.0154  -15.3724 C   0  0  0  0  0  0  0  0  0  0  0  0
   18.8168   -3.3031  -16.5331 O   0  0  0  0  0  0  0  0  0  0  0  0
   19.2800   -3.7459  -14.3636 O   0  0  0  0  0  0  0  0  0  0  0  0
  2  1  1  0
  3  2  1  0
  3  4  1  6
  5  3  1  0
  5  6  1  1
  7  5  1  0
  7  9  1  0
  8  7  2  0
  9 13  1  0
 10  9  1  0
 10 11  1  0
 11 12  1  0
 13 12  1  0
 13 14  1  6
 14 18  1  0
 15 14  2  0
 17 18  1  0
 17 19  1  0
 17 16  1  1
 19 20  1  0
 21 19  2  0
M  END
$$$$
