IPA.pdb
     RDKit          3D

 21 21  0  0  1  0  0  0  0  0999 V2000
   20.2725  -17.9772  -15.7570 C   0  0  0  0  0  0  0  0  0  0  0  0
   21.5059  -18.5581  -15.0614 C   0  0  0  0  0  0  0  0  0  0  0  0
   21.0493  -19.5761  -14.0735 C   0  0  2  0  0  0  0  0  0  0  0  0
   19.9597  -19.0988  -13.1696 C   0  0  0  0  0  0  0  0  0  0  0  0
   22.1986  -20.2483  -13.3264 C   0  0  2  0  0  0  0  0  0  0  0  0
   23.1614  -20.6652  -14.3119 N   0  0  0  0  0  0  0  0  0  0  0  0
   21.7958  -21.3712  -12.4968 C   0  0  0  0  0  0  0  0  0  0  0  0
   21.5469  -22.4686  -13.1092 O   0  0  0  0  0  0  0  0  0  0  0  0
   21.6662  -21.3251  -11.0896 N   0  0  0  0  0  0  0  0  0  0  0  0
   21.8528  -20.0331  -10.3887 C   0  0  0  0  0  0  0  0  0  0  0  0
   22.1372  -20.3640   -8.9639 C   0  0  0  0  0  0  0  0  0  0  0  0
   22.2850  -21.8459   -8.9206 C   0  0  0  0  0  0  0  0  0  0  0  0
   21.3654  -22.2617  -10.0758 C   0  0  1  0  0  0  0  0  0  0  0  0
   19.9985  -22.2492   -9.5390 C   0  0  0  0  0  0  0  0  0  0  0  0
   19.4203  -21.1118   -9.5864 O   0  0  0  0  0  0  0  0  0  0  0  0
   17.1609  -24.2566   -9.7601 C   0  0  0  0  0  0  0  0  0  0  0  0
   17.8551  -23.2308   -8.8643 C   0  0  2  0  0  0  0  0  0  0  0  0
   19.2856  -23.3249   -8.9968 N   0  0  0  0  0  0  0  0  0  0  0  0
   17.3730  -23.4742   -7.5021 C   0  0  0  0  0  0  0  0  0  0  0  0
   16.0751  -23.1524   -7.1606 O   0  0  0  0  0  0  0  0  0  0  0  0
   18.1155  -23.9721   -6.6290 O   0  0  0  0  0  0  0  0  0  0  0  0
  2  1  1  0
  3  2  1  0
  3  4  1  1
  5  3  1  0
  5  6  1  6
  7  5  1  0
  7  9  1  0
  8  7  2  0
  9 13  1  0
 10  9  1  0
 10 11  1  0
 11 12  1  0
 13 12  1  0
 13 14  1  1
 14 18  1  0
 15 14  2  0
 17 18  1  0
 17 19  1  0
 17 16  1  6
 19 20  1  0
 21 19  2  0
M  END
$$$$
