IPA.pdb
     RDKit          3D

 21 21  0  0  1  0  0  0  0  0999 V2000
   23.3085  -38.8807  -11.3866 C   0  0  0  0  0  0  0  0  0  0  0  0
   23.5150  -37.4046  -11.7350 C   0  0  0  0  0  0  0  0  0  0  0  0
   24.5991  -36.8664  -10.8655 C   0  0  2  0  0  0  0  0  0  0  0  0
   24.3118  -36.9697   -9.4030 C   0  0  0  0  0  0  0  0  0  0  0  0
   25.0769  -35.4791  -11.2876 C   0  0  2  0  0  0  0  0  0  0  0  0
   25.5388  -35.5829  -12.6469 N   0  0  0  0  0  0  0  0  0  0  0  0
   26.1128  -34.9196  -10.4360 C   0  0  0  0  0  0  0  0  0  0  0  0
   27.3144  -35.2846  -10.6897 O   0  0  0  0  0  0  0  0  0  0  0  0
   25.8786  -34.0190   -9.3715 N   0  0  0  0  0  0  0  0  0  0  0  0
   24.4931  -33.5737   -9.0933 C   0  0  0  0  0  0  0  0  0  0  0  0
   24.6056  -32.3215   -8.2935 C   0  0  0  0  0  0  0  0  0  0  0  0
   26.0562  -31.9817   -8.2867 C   0  0  0  0  0  0  0  0  0  0  0  0
   26.6804  -33.3783   -8.4010 C   0  0  1  0  0  0  0  0  0  0  0  0
   26.6710  -33.9456   -7.0464 C   0  0  0  0  0  0  0  0  0  0  0  0
   25.5239  -34.3335   -6.6417 O   0  0  0  0  0  0  0  0  0  0  0  0
   29.0310  -35.3600   -4.5181 C   0  0  0  0  0  0  0  0  0  0  0  0
   27.6479  -34.9960   -5.0576 C   0  0  2  0  0  0  0  0  0  0  0  0
   27.7589  -34.1001   -6.1792 N   0  0  0  0  0  0  0  0  0  0  0  0
   26.8955  -34.4376   -3.9308 C   0  0  0  0  0  0  0  0  0  0  0  0
   26.5702  -35.2365   -2.8536 O   0  0  0  0  0  0  0  0  0  0  0  0
   26.5355  -33.2411   -3.9188 O   0  0  0  0  0  0  0  0  0  0  0  0
  2  1  1  0
  3  2  1  0
  3  4  1  1
  5  3  1  0
  5  6  1  6
  7  5  1  0
  7  9  1  0
  8  7  2  0
  9 13  1  0
 10  9  1  0
 10 11  1  0
 11 12  1  0
 13 12  1  0
 13 14  1  1
 14 18  1  0
 15 14  2  0
 17 18  1  0
 17 19  1  0
 17 16  1  1
 19 20  1  0
 21 19  2  0
M  END
$$$$
