IPA.pdb
     RDKit          3D

 21 21  0  0  1  0  0  0  0  0999 V2000
   13.6027  -19.3572    4.0337 C   0  0  0  0  0  0  0  0  0  0  0  0
   14.9633  -19.0455    3.4057 C   0  0  0  0  0  0  0  0  0  0  0  0
   15.9837  -19.9275    4.0396 C   0  0  2  0  0  0  0  0  0  0  0  0
   16.0998  -19.7553    5.5191 C   0  0  0  0  0  0  0  0  0  0  0  0
   17.3319  -19.8999    3.3237 C   0  0  2  0  0  0  0  0  0  0  0  0
   17.0946  -20.2733    1.9539 N   0  0  0  0  0  0  0  0  0  0  0  0
   18.3424  -20.7567    3.9204 C   0  0  0  0  0  0  0  0  0  0  0  0
   18.3884  -21.9632    3.4919 O   0  0  0  0  0  0  0  0  0  0  0  0
   19.2547  -20.3475    4.9201 N   0  0  0  0  0  0  0  0  0  0  0  0
   19.2236  -18.9448    5.3963 C   0  0  0  0  0  0  0  0  0  0  0  0
   20.5420  -18.6898    6.0422 C   0  0  0  0  0  0  0  0  0  0  0  0
   21.3649  -19.8992    5.7598 C   0  0  0  0  0  0  0  0  0  0  0  0
   20.2752  -20.9750    5.6686 C   0  0  1  0  0  0  0  0  0  0  0  0
   19.9535  -21.3535    7.0506 C   0  0  0  0  0  0  0  0  0  0  0  0
   19.2741  -20.4849    7.6940 O   0  0  0  0  0  0  0  0  0  0  0  0
   19.7133  -24.3006    9.2946 C   0  0  0  0  0  0  0  0  0  0  0  0
   19.7658  -22.7971    9.0238 C   0  0  2  0  0  0  0  0  0  0  0  0
   20.3050  -22.5344    7.7150 N   0  0  0  0  0  0  0  0  0  0  0  0
   20.5485  -22.2055   10.1123 C   0  0  0  0  0  0  0  0  0  0  0  0
   20.0821  -22.2641   11.4098 O   0  0  0  0  0  0  0  0  0  0  0  0
   21.6421  -21.6415    9.8945 O   0  0  0  0  0  0  0  0  0  0  0  0
  2  1  1  0
  3  2  1  0
  3  4  1  1
  5  3  1  0
  5  6  1  6
  7  5  1  0
  7  9  1  0
  8  7  2  0
  9 13  1  0
 10  9  1  0
 10 11  1  0
 11 12  1  0
 13 12  1  0
 13 14  1  1
 14 18  1  0
 15 14  2  0
 17 18  1  0
 17 19  1  0
 17 16  1  1
 19 20  1  0
 21 19  2  0
M  END
$$$$
