TPH.pdb
     RDKit          3D

 25 26  0  0  1  0  0  0  0  0999 V2000
   17.5667  -12.8093  -17.4581 C   0  0  0  0  0  0  0  0  0  0  0  0
   18.7267  -13.6673  -17.8638 C   0  0  1  0  0  0  0  0  0  0  0  0
   18.3065  -14.9860  -18.1125 O   0  0  0  0  0  0  0  0  0  0  0  0
   19.3519  -13.0879  -19.1481 C   0  0  2  0  0  0  0  0  0  0  0  0
   20.1591  -14.1255  -19.6894 N   0  0  0  0  0  0  0  0  0  0  0  0
   19.9734  -11.7921  -18.9046 C   0  0  0  0  0  0  0  0  0  0  0  0
   20.6479  -11.7336  -17.8047 O   0  0  0  0  0  0  0  0  0  0  0  0
   19.9613  -10.6164  -19.6551 N   0  0  0  0  0  0  0  0  0  0  0  0
   19.9858  -10.5699  -21.1315 C   0  0  0  0  0  0  0  0  0  0  0  0
   18.7024   -9.7414  -21.3458 C   0  0  0  0  0  0  0  0  0  0  0  0
   18.5348   -8.9132  -20.0640 C   0  0  0  0  0  0  0  0  0  0  0  0
   19.8747   -9.2244  -19.3699 C   0  0  1  0  0  0  0  0  0  0  0  0
   19.8762   -8.6937  -18.0462 C   0  0  0  0  0  0  0  0  0  0  0  0
   18.8440   -8.8714  -17.3146 O   0  0  0  0  0  0  0  0  0  0  0  0
   20.8676   -7.9546  -17.3494 N   0  0  0  0  0  0  0  0  0  0  0  0
   20.8083   -7.5585  -15.9887 C   0  0  1  0  0  0  0  0  0  0  0  0
   21.9247   -7.7768  -15.0775 C   0  0  0  0  0  0  0  0  0  0  0  0
   22.2949   -9.2099  -14.9815 C   0  0  0  0  0  0  0  0  0  0  0  0
   21.6305  -10.2849  -15.5334 C   0  0  0  0  0  0  0  0  0  0  0  0
   22.2939  -11.4274  -15.2121 N   0  0  0  0  0  0  0  0  0  0  0  0
   23.3577  -11.0499  -14.4678 C   0  0  0  0  0  0  0  0  0  0  0  0
   23.3572   -9.7076  -14.3290 N   0  0  0  0  0  0  0  0  0  0  0  0
   20.4604   -6.1103  -15.9523 C   0  0  0  0  0  0  0  0  0  0  0  0
   20.1157   -5.5031  -14.7569 O   0  0  0  0  0  0  0  0  0  0  0  0
   20.4613   -5.3828  -16.9768 O   0  0  0  0  0  0  0  0  0  0  0  0
  2  1  1  6
  2  3  1  0
  4  2  1  0
  4  5  1  1
  6  4  1  0
  6  8  1  0
  7  6  2  0
  8 12  1  0
  9  8  1  0
  9 10  1  0
 11 10  1  0
 12 11  1  0
 13 15  1  0
 12 13  1  1
 14 13  2  0
 16 17  1  6
 16 15  1  0
 17 18  1  0
 18 19  2  0
 18 22  1  0
 19 20  1  0
 20 21  1  0
 22 21  2  0
 23 16  1  0
 23 24  1  0
 25 23  2  0
M  END
$$$$
