TPH.pdb
     RDKit          3D

 25 26  0  0  1  0  0  0  0  0999 V2000
   44.5020  -10.1957  -10.6330 C   0  0  0  0  0  0  0  0  0  0  0  0
   43.6668  -11.4386  -10.5678 C   0  0  1  0  0  0  0  0  0  0  0  0
   44.2350  -12.4608  -11.3485 O   0  0  0  0  0  0  0  0  0  0  0  0
   43.5865  -11.9104   -9.1025 C   0  0  2  0  0  0  0  0  0  0  0  0
   42.9789  -13.1951   -9.1410 N   0  0  0  0  0  0  0  0  0  0  0  0
   42.9893  -10.8950   -8.2441 C   0  0  0  0  0  0  0  0  0  0  0  0
   41.9801  -10.2884   -8.7750 O   0  0  0  0  0  0  0  0  0  0  0  0
   43.3229  -10.4740   -6.9568 N   0  0  0  0  0  0  0  0  0  0  0  0
   43.9801  -11.3269   -5.9452 C   0  0  0  0  0  0  0  0  0  0  0  0
   45.2018  -10.4289   -5.6620 C   0  0  0  0  0  0  0  0  0  0  0  0
   44.7444   -9.0027   -5.9991 C   0  0  0  0  0  0  0  0  0  0  0  0
   43.2417   -9.2532   -6.2290 C   0  0  1  0  0  0  0  0  0  0  0  0
   42.6207   -8.0756   -6.7402 C   0  0  0  0  0  0  0  0  0  0  0  0
   43.1132   -7.5281   -7.7843 O   0  0  0  0  0  0  0  0  0  0  0  0
   41.4931   -7.3503   -6.2741 N   0  0  0  0  0  0  0  0  0  0  0  0
   40.8895   -6.2423   -6.9222 C   0  0  1  0  0  0  0  0  0  0  0  0
   39.4506   -6.1751   -7.1446 C   0  0  0  0  0  0  0  0  0  0  0  0
   38.9659   -7.2842   -8.0020 C   0  0  0  0  0  0  0  0  0  0  0  0
   39.5505   -7.7698   -9.1525 C   0  0  0  0  0  0  0  0  0  0  0  0
   38.7926   -8.7889   -9.6378 N   0  0  0  0  0  0  0  0  0  0  0  0
   37.7508   -8.9235   -8.7864 C   0  0  0  0  0  0  0  0  0  0  0  0
   37.8569   -8.0122   -7.7969 N   0  0  0  0  0  0  0  0  0  0  0  0
   41.3009   -5.0103   -6.1924 C   0  0  0  0  0  0  0  0  0  0  0  0
   41.0539   -3.7605   -6.7343 O   0  0  0  0  0  0  0  0  0  0  0  0
   41.8780   -5.0393   -5.0768 O   0  0  0  0  0  0  0  0  0  0  0  0
  2  1  1  1
  2  3  1  0
  4  2  1  0
  4  5  1  6
  6  4  1  0
  6  8  1  0
  7  6  2  0
  8 12  1  0
  9  8  1  0
  9 10  1  0
 11 10  1  0
 12 11  1  0
 13 15  1  0
 12 13  1  6
 14 13  2  0
 16 17  1  1
 16 15  1  0
 17 18  1  0
 18 19  2  0
 18 22  1  0
 19 20  1  0
 20 21  1  0
 22 21  2  0
 23 16  1  0
 23 24  1  0
 25 23  2  0
M  END
$$$$
