TPH.pdb
     RDKit          3D

 25 26  0  0  1  0  0  0  0  0999 V2000
   17.4995  -28.1271   -4.9011 C   0  0  0  0  0  0  0  0  0  0  0  0
   16.5683  -27.2421   -4.1289 C   0  0  1  0  0  0  0  0  0  0  0  0
   16.7619  -27.4038   -2.7456 O   0  0  0  0  0  0  0  0  0  0  0  0
   16.8456  -25.7738   -4.5074 C   0  0  2  0  0  0  0  0  0  0  0  0
   16.0804  -24.9884   -3.6026 N   0  0  0  0  0  0  0  0  0  0  0  0
   16.6653  -25.5450   -5.9356 C   0  0  0  0  0  0  0  0  0  0  0  0
   15.6367  -26.1447   -6.4361 O   0  0  0  0  0  0  0  0  0  0  0  0
   17.4116  -24.7927   -6.8428 N   0  0  0  0  0  0  0  0  0  0  0  0
   18.2249  -23.6145   -6.4781 C   0  0  0  0  0  0  0  0  0  0  0  0
   19.5778  -24.1011   -7.0367 C   0  0  0  0  0  0  0  0  0  0  0  0
   19.2231  -25.0855   -8.1601 C   0  0  0  0  0  0  0  0  0  0  0  0
   17.7000  -24.8652   -8.2349 C   0  0  1  0  0  0  0  0  0  0  0  0
   17.1082  -25.8237   -9.1094 C   0  0  0  0  0  0  0  0  0  0  0  0
   17.0792  -27.0481   -8.7455 O   0  0  0  0  0  0  0  0  0  0  0  0
   16.5148  -25.6632  -10.3888 N   0  0  0  0  0  0  0  0  0  0  0  0
   15.8966  -26.6849  -11.1542 C   0  0  1  0  0  0  0  0  0  0  0  0
   14.4565  -26.7101  -11.3777 C   0  0  0  0  0  0  0  0  0  0  0  0
   13.7030  -26.9913  -10.1315 C   0  0  0  0  0  0  0  0  0  0  0  0
   14.0762  -27.8239   -9.0975 C   0  0  0  0  0  0  0  0  0  0  0  0
   13.1079  -27.8054   -8.1431 N   0  0  0  0  0  0  0  0  0  0  0  0
   12.1492  -26.9652   -8.5940 C   0  0  0  0  0  0  0  0  0  0  0  0
   12.5106  -26.4732   -9.7974 N   0  0  0  0  0  0  0  0  0  0  0  0
   16.5698  -26.7272  -12.4827 C   0  0  0  0  0  0  0  0  0  0  0  0
   16.3015  -27.7547  -13.3708 O   0  0  0  0  0  0  0  0  0  0  0  0
   17.3942  -25.8562  -12.8573 O   0  0  0  0  0  0  0  0  0  0  0  0
  2  1  1  6
  2  3  1  0
  4  2  1  0
  4  5  1  1
  6  4  1  0
  6  8  1  0
  7  6  2  0
  8 12  1  0
  9  8  1  0
  9 10  1  0
 11 10  1  0
 12 11  1  0
 13 15  1  0
 12 13  1  1
 14 13  2  0
 16 17  1  6
 16 15  1  0
 17 18  1  0
 18 19  2  0
 18 22  1  0
 19 20  1  0
 20 21  1  0
 22 21  2  0
 23 16  1  0
 23 24  1  0
 25 23  2  0
M  END
$$$$
