TPH.pdb
     RDKit          3D

 25 26  0  0  1  0  0  0  0  0999 V2000
   24.3618  -35.8628  -12.3058 C   0  0  0  0  0  0  0  0  0  0  0  0
   24.3066  -35.5221  -10.8473 C   0  0  1  0  0  0  0  0  0  0  0  0
   23.7140  -36.5660  -10.1151 O   0  0  0  0  0  0  0  0  0  0  0  0
   25.7420  -35.2978  -10.3319 C   0  0  2  0  0  0  0  0  0  0  0  0
   26.4826  -36.4425  -10.7349 N   0  0  0  0  0  0  0  0  0  0  0  0
   25.7543  -34.9354   -8.9201 C   0  0  0  0  0  0  0  0  0  0  0  0
   25.7641  -35.9489   -8.1196 O   0  0  0  0  0  0  0  0  0  0  0  0
   25.7578  -33.6878   -8.2961 N   0  0  0  0  0  0  0  0  0  0  0  0
   26.4454  -32.4927   -8.8265 C   0  0  0  0  0  0  0  0  0  0  0  0
   25.2303  -31.5437   -8.8733 C   0  0  0  0  0  0  0  0  0  0  0  0
   24.2650  -32.0667   -7.8002 C   0  0  0  0  0  0  0  0  0  0  0  0
   25.1605  -33.1274   -7.1318 C   0  0  1  0  0  0  0  0  0  0  0  0
   24.4022  -33.8899   -6.1952 C   0  0  0  0  0  0  0  0  0  0  0  0
   23.3758  -34.5262   -6.6125 O   0  0  0  0  0  0  0  0  0  0  0  0
   24.5815  -34.0808   -4.8002 N   0  0  0  0  0  0  0  0  0  0  0  0
   23.8256  -34.9521   -3.9748 C   0  0  1  0  0  0  0  0  0  0  0  0
   24.4628  -35.8332   -3.0042 C   0  0  0  0  0  0  0  0  0  0  0  0
   25.2295  -36.9219   -3.6575 C   0  0  0  0  0  0  0  0  0  0  0  0
   24.9267  -37.5673   -4.8378 C   0  0  0  0  0  0  0  0  0  0  0  0
   25.8811  -38.5028   -5.0881 N   0  0  0  0  0  0  0  0  0  0  0  0
   26.7614  -38.4274   -4.0645 C   0  0  0  0  0  0  0  0  0  0  0  0
   26.3659  -37.4703   -3.1994 N   0  0  0  0  0  0  0  0  0  0  0  0
   22.8122  -34.1305   -3.2554 C   0  0  0  0  0  0  0  0  0  0  0  0
   21.8432  -34.7389   -2.4761 O   0  0  0  0  0  0  0  0  0  0  0  0
   22.7839  -32.8758   -3.3161 O   0  0  0  0  0  0  0  0  0  0  0  0
  2  1  1  6
  2  3  1  0
  4  2  1  0
  4  5  1  1
  6  4  1  0
  6  8  1  0
  7  6  2  0
  8 12  1  0
  9  8  1  0
  9 10  1  0
 11 10  1  0
 12 11  1  0
 13 15  1  0
 12 13  1  6
 14 13  2  0
 16 17  1  1
 16 15  1  0
 17 18  1  0
 18 19  2  0
 18 22  1  0
 19 20  1  0
 20 21  1  0
 22 21  2  0
 23 16  1  0
 23 24  1  0
 25 23  2  0
M  END
$$$$
