TPH.pdb
     RDKit          3D

 25 26  0  0  1  0  0  0  0  0999 V2000
   15.0829  -24.5967   -4.6547 C   0  0  0  0  0  0  0  0  0  0  0  0
   15.9483  -25.6953   -5.1938 C   0  0  1  0  0  0  0  0  0  0  0  0
   16.4206  -25.3712   -6.4780 O   0  0  0  0  0  0  0  0  0  0  0  0
   17.1513  -25.8923   -4.2504 C   0  0  2  0  0  0  0  0  0  0  0  0
   17.9734  -26.8735   -4.8691 N   0  0  0  0  0  0  0  0  0  0  0  0
   16.7230  -26.1241   -2.8765 C   0  0  0  0  0  0  0  0  0  0  0  0
   16.1017  -25.1237   -2.3461 O   0  0  0  0  0  0  0  0  0  0  0  0
   16.8707  -27.2364   -2.0477 N   0  0  0  0  0  0  0  0  0  0  0  0
   17.1068  -28.6117   -2.5328 C   0  0  0  0  0  0  0  0  0  0  0  0
   18.4104  -28.8961   -1.7589 C   0  0  0  0  0  0  0  0  0  0  0  0
   18.3522  -27.9924   -0.5192 C   0  0  0  0  0  0  0  0  0  0  0  0
   16.9100  -27.4644   -0.6431 C   0  0  1  0  0  0  0  0  0  0  0  0
   16.6771  -26.4425    0.3239 C   0  0  0  0  0  0  0  0  0  0  0  0
   17.4047  -25.3927    0.2922 O   0  0  0  0  0  0  0  0  0  0  0  0
   15.7352  -26.3718    1.3834 N   0  0  0  0  0  0  0  0  0  0  0  0
   15.5664  -25.2830    2.2765 C   0  0  1  0  0  0  0  0  0  0  0  0
   15.0113  -24.0093    1.8360 C   0  0  0  0  0  0  0  0  0  0  0  0
   13.6498  -24.1606    1.2672 C   0  0  0  0  0  0  0  0  0  0  0  0
   13.2166  -25.1199    0.3765 C   0  0  0  0  0  0  0  0  0  0  0  0
   11.9013  -24.9090    0.1041 N   0  0  0  0  0  0  0  0  0  0  0  0
   11.5350  -23.8259    0.8259 C   0  0  0  0  0  0  0  0  0  0  0  0
   12.5942  -23.3739    1.5294 N   0  0  0  0  0  0  0  0  0  0  0  0
   14.7564  -25.7640    3.4308 C   0  0  0  0  0  0  0  0  0  0  0  0
   14.5935  -24.9679    4.5516 O   0  0  0  0  0  0  0  0  0  0  0  0
   14.1935  -26.8871    3.4478 O   0  0  0  0  0  0  0  0  0  0  0  0
  2  1  1  1
  2  3  1  0
  4  2  1  0
  4  5  1  6
  6  4  1  0
  6  8  1  0
  7  6  2  0
  8 12  1  0
  9  8  1  0
  9 10  1  0
 11 10  1  0
 12 11  1  0
 13 15  1  0
 12 13  1  1
 14 13  2  0
 16 17  1  6
 16 15  1  0
 17 18  1  0
 18 19  2  0
 18 22  1  0
 19 20  1  0
 20 21  1  0
 22 21  2  0
 23 16  1  0
 23 24  1  0
 25 23  2  0
M  END
$$$$
