TPH.pdb
     RDKit          3D

 25 26  0  0  1  0  0  0  0  0999 V2000
   34.3849  -12.3205  -22.2627 C   0  0  0  0  0  0  0  0  0  0  0  0
   34.0278  -13.6936  -21.7794 C   0  0  1  0  0  0  0  0  0  0  0  0
   34.6557  -14.6761  -22.5653 O   0  0  0  0  0  0  0  0  0  0  0  0
   34.4930  -13.8456  -20.3177 C   0  0  2  0  0  0  0  0  0  0  0  0
   34.5586  -15.2448  -20.0745 N   0  0  0  0  0  0  0  0  0  0  0  0
   33.6934  -13.0292  -19.4128 C   0  0  0  0  0  0  0  0  0  0  0  0
   32.4363  -13.3255  -19.4132 O   0  0  0  0  0  0  0  0  0  0  0  0
   34.0569  -11.9916  -18.5544 N   0  0  0  0  0  0  0  0  0  0  0  0
   35.3290  -11.9368  -17.8051 C   0  0  0  0  0  0  0  0  0  0  0  0
   35.8308  -10.5740  -18.3249 C   0  0  0  0  0  0  0  0  0  0  0  0
   34.5653   -9.7963  -18.7130 C   0  0  0  0  0  0  0  0  0  0  0  0
   33.4882  -10.7482  -18.1581 C   0  0  1  0  0  0  0  0  0  0  0  0
   32.1925  -10.3133  -18.5655 C   0  0  0  0  0  0  0  0  0  0  0  0
   32.0352   -9.8974  -19.7633 O   0  0  0  0  0  0  0  0  0  0  0  0
   30.9723  -10.2463  -17.8435 N   0  0  0  0  0  0  0  0  0  0  0  0
   29.6952   -9.9615  -18.3911 C   0  0  1  0  0  0  0  0  0  0  0  0
   28.7879  -11.0218  -18.8118 C   0  0  0  0  0  0  0  0  0  0  0  0
   28.5381  -12.0049  -17.7296 C   0  0  0  0  0  0  0  0  0  0  0  0
   28.7883  -11.8486  -16.3826 C   0  0  0  0  0  0  0  0  0  0  0  0
   28.4186  -12.9824  -15.7294 N   0  0  0  0  0  0  0  0  0  0  0  0
   27.9453  -13.8255  -16.6746 C   0  0  0  0  0  0  0  0  0  0  0  0
   28.0182  -13.2327  -17.8847 N   0  0  0  0  0  0  0  0  0  0  0  0
   28.9699   -9.0918  -17.4230 C   0  0  0  0  0  0  0  0  0  0  0  0
   27.8016   -8.4504  -17.7974 O   0  0  0  0  0  0  0  0  0  0  0  0
   29.3692   -8.8994  -16.2473 O   0  0  0  0  0  0  0  0  0  0  0  0
  2  1  1  6
  2  3  1  0
  4  2  1  0
  4  5  1  1
  6  4  1  0
  6  8  1  0
  7  6  2  0
  8 12  1  0
  9  8  1  0
  9 10  1  0
 11 10  1  0
 12 11  1  0
 13 15  1  0
 12 13  1  6
 14 13  2  0
 16 17  1  1
 16 15  1  0
 17 18  1  0
 18 19  2  0
 18 22  1  0
 19 20  1  0
 20 21  1  0
 22 21  2  0
 23 16  1  0
 23 24  1  0
 25 23  2  0
M  END
$$$$
