TPH.pdb
     RDKit          3D

 25 26  0  0  1  0  0  0  0  0999 V2000
   27.1989  -18.0779  -14.6255 C   0  0  0  0  0  0  0  0  0  0  0  0
   27.4577  -19.2189  -15.5623 C   0  0  1  0  0  0  0  0  0  0  0  0
   28.6961  -19.0599  -16.2090 O   0  0  0  0  0  0  0  0  0  0  0  0
   27.4762  -20.5328  -14.7564 C   0  0  2  0  0  0  0  0  0  0  0  0
   28.0369  -21.5114  -15.6219 N   0  0  0  0  0  0  0  0  0  0  0  0
   26.1776  -20.8119  -14.1560 C   0  0  0  0  0  0  0  0  0  0  0  0
   25.1784  -20.5916  -14.9441 O   0  0  0  0  0  0  0  0  0  0  0  0
   25.8382  -21.2736  -12.8842 N   0  0  0  0  0  0  0  0  0  0  0  0
   26.6837  -22.1709  -12.0702 C   0  0  0  0  0  0  0  0  0  0  0  0
   26.7975  -21.2840  -10.8134 C   0  0  0  0  0  0  0  0  0  0  0  0
   25.5378  -20.4063  -10.8202 C   0  0  0  0  0  0  0  0  0  0  0  0
   24.7616  -21.0652  -11.9765 C   0  0  1  0  0  0  0  0  0  0  0  0
   23.6062  -20.2921  -12.2948 C   0  0  0  0  0  0  0  0  0  0  0  0
   23.7581  -19.0592  -12.5933 O   0  0  0  0  0  0  0  0  0  0  0  0
   22.2351  -20.6568  -12.3386 N   0  0  0  0  0  0  0  0  0  0  0  0
   21.1950  -19.9140  -12.9537 C   0  0  1  0  0  0  0  0  0  0  0  0
   21.2228  -19.5874  -14.3738 C   0  0  0  0  0  0  0  0  0  0  0  0
   20.0718  -18.7423  -14.7749 C   0  0  0  0  0  0  0  0  0  0  0  0
   19.6406  -17.5768  -14.1773 C   0  0  0  0  0  0  0  0  0  0  0  0
   18.5534  -17.1114  -14.8482 N   0  0  0  0  0  0  0  0  0  0  0  0
   18.3235  -17.9898  -15.8502 C   0  0  0  0  0  0  0  0  0  0  0  0
   19.2431  -18.9763  -15.8047 N   0  0  0  0  0  0  0  0  0  0  0  0
   19.9092  -20.6094  -12.6660 C   0  0  0  0  0  0  0  0  0  0  0  0
   18.8450  -19.9143  -12.1176 O   0  0  0  0  0  0  0  0  0  0  0  0
   19.7274  -21.8306  -12.8994 O   0  0  0  0  0  0  0  0  0  0  0  0
  2  1  1  1
  2  3  1  0
  4  2  1  0
  4  5  1  6
  6  4  1  0
  6  8  1  0
  7  6  2  0
  8 12  1  0
  9  8  1  0
  9 10  1  0
 11 10  1  0
 12 11  1  0
 13 15  1  0
 12 13  1  6
 14 13  2  0
 16 17  1  6
 16 15  1  0
 17 18  1  0
 18 19  2  0
 18 22  1  0
 19 20  1  0
 20 21  1  0
 22 21  2  0
 23 16  1  0
 23 24  1  0
 25 23  2  0
M  END
$$$$
