TPH.pdb
     RDKit          3D

 25 26  0  0  1  0  0  0  0  0999 V2000
   25.4316  -12.8568  -19.4265 C   0  0  0  0  0  0  0  0  0  0  0  0
   25.0811  -14.0744  -18.6259 C   0  0  1  0  0  0  0  0  0  0  0  0
   25.5362  -15.2395  -19.2682 O   0  0  0  0  0  0  0  0  0  0  0  0
   25.7485  -13.9705  -17.2403 C   0  0  2  0  0  0  0  0  0  0  0  0
   25.7675  -15.2928  -16.7183 N   0  0  0  0  0  0  0  0  0  0  0  0
   25.1413  -12.9222  -16.4298 C   0  0  0  0  0  0  0  0  0  0  0  0
   23.8563  -13.0116  -16.3355 O   0  0  0  0  0  0  0  0  0  0  0  0
   25.7120  -11.8491  -15.7453 N   0  0  0  0  0  0  0  0  0  0  0  0
   27.0439  -11.8815  -15.1067 C   0  0  0  0  0  0  0  0  0  0  0  0
   27.6665  -10.6743  -15.8377 C   0  0  0  0  0  0  0  0  0  0  0  0
   26.4810   -9.7811  -16.2295 C   0  0  0  0  0  0  0  0  0  0  0  0
   25.3462  -10.5001  -15.4752 C   0  0  1  0  0  0  0  0  0  0  0  0
   24.0851   -9.9420  -15.8386 C   0  0  0  0  0  0  0  0  0  0  0  0
   23.8149   -9.7964  -17.0788 O   0  0  0  0  0  0  0  0  0  0  0  0
   23.0113   -9.4845  -15.0310 N   0  0  0  0  0  0  0  0  0  0  0  0
   21.7444   -9.0500  -15.4979 C   0  0  1  0  0  0  0  0  0  0  0  0
   20.5147   -9.7429  -15.1343 C   0  0  0  0  0  0  0  0  0  0  0  0
   19.3267   -9.1607  -15.8048 C   0  0  0  0  0  0  0  0  0  0  0  0
   19.2379   -8.7041  -17.1029 C   0  0  0  0  0  0  0  0  0  0  0  0
   17.9770   -8.2470  -17.3260 N   0  0  0  0  0  0  0  0  0  0  0  0
   17.3007   -8.4245  -16.1687 C   0  0  0  0  0  0  0  0  0  0  0  0
   18.1186   -8.9775  -15.2489 N   0  0  0  0  0  0  0  0  0  0  0  0
   21.5915   -7.6152  -15.1272 C   0  0  0  0  0  0  0  0  0  0  0  0
   20.6073   -6.8408  -15.7172 O   0  0  0  0  0  0  0  0  0  0  0  0
   22.3277   -7.0471  -14.2822 O   0  0  0  0  0  0  0  0  0  0  0  0
  2  1  1  6
  2  3  1  0
  4  2  1  0
  4  5  1  1
  6  4  1  0
  6  8  1  0
  7  6  2  0
  8 12  1  0
  9  8  1  0
  9 10  1  0
 11 10  1  0
 12 11  1  0
 13 15  1  0
 12 13  1  6
 14 13  2  0
 16 17  1  1
 16 15  1  0
 17 18  1  0
 18 19  2  0
 18 22  1  0
 19 20  1  0
 20 21  1  0
 22 21  2  0
 23 16  1  0
 23 24  1  0
 25 23  2  0
M  END
$$$$
