TPH.pdb
     RDKit          3D

 25 26  0  0  1  0  0  0  0  0999 V2000
   18.9334  -10.1458  -18.7646 C   0  0  0  0  0  0  0  0  0  0  0  0
   18.3933  -11.1934  -17.8386 C   0  0  1  0  0  0  0  0  0  0  0  0
   18.0405  -12.3529  -18.5517 O   0  0  0  0  0  0  0  0  0  0  0  0
   19.4767  -11.5506  -16.8019 C   0  0  2  0  0  0  0  0  0  0  0  0
   19.0165  -12.7265  -16.1487 N   0  0  0  0  0  0  0  0  0  0  0  0
   19.8293  -10.4016  -15.9772 C   0  0  0  0  0  0  0  0  0  0  0  0
   19.0095   -9.4093  -16.0841 O   0  0  0  0  0  0  0  0  0  0  0  0
   20.8944  -10.1980  -15.0997 N   0  0  0  0  0  0  0  0  0  0  0  0
   21.5069  -11.2577  -14.2724 C   0  0  0  0  0  0  0  0  0  0  0  0
   22.9614  -11.1048  -14.7625 C   0  0  0  0  0  0  0  0  0  0  0  0
   23.0813   -9.6476  -15.2305 C   0  0  0  0  0  0  0  0  0  0  0  0
   21.7266   -9.0997  -14.7423 C   0  0  1  0  0  0  0  0  0  0  0  0
   21.5287   -7.7745  -15.2308 C   0  0  0  0  0  0  0  0  0  0  0  0
   22.3499   -6.8625  -14.8758 O   0  0  0  0  0  0  0  0  0  0  0  0
   20.5255   -7.2459  -16.0845 N   0  0  0  0  0  0  0  0  0  0  0  0
   20.5044   -5.9389  -16.6352 C   0  0  1  0  0  0  0  0  0  0  0  0
   20.6040   -5.7106  -18.0713 C   0  0  0  0  0  0  0  0  0  0  0  0
   21.7514   -6.4325  -18.6731 C   0  0  0  0  0  0  0  0  0  0  0  0
   21.7121   -7.5870  -19.4262 C   0  0  0  0  0  0  0  0  0  0  0  0
   22.9791   -7.9231  -19.7873 N   0  0  0  0  0  0  0  0  0  0  0  0
   23.7866   -6.9774  -19.2564 C   0  0  0  0  0  0  0  0  0  0  0  0
   23.0423   -6.0759  -18.5824 N   0  0  0  0  0  0  0  0  0  0  0  0
   19.2724   -5.2596  -16.1451 C   0  0  0  0  0  0  0  0  0  0  0  0
   19.0523   -3.9218  -16.4251 O   0  0  0  0  0  0  0  0  0  0  0  0
   18.3916   -5.8487  -15.4700 O   0  0  0  0  0  0  0  0  0  0  0  0
  2  1  1  6
  2  3  1  0
  4  2  1  0
  4  5  1  1
  6  4  1  0
  6  8  1  0
  7  6  2  0
  8 12  1  0
  9  8  1  0
  9 10  1  0
 11 10  1  0
 12 11  1  0
 13 15  1  0
 12 13  1  6
 14 13  2  0
 16 17  1  6
 16 15  1  0
 17 18  1  0
 18 19  2  0
 18 22  1  0
 19 20  1  0
 20 21  1  0
 22 21  2  0
 23 16  1  0
 23 24  1  0
 25 23  2  0
M  END
$$$$
