TPH.pdb
     RDKit          3D

 25 26  0  0  1  0  0  0  0  0999 V2000
   23.9594  -13.3639  -20.3071 C   0  0  0  0  0  0  0  0  0  0  0  0
   23.7167  -12.2581  -19.3249 C   0  0  1  0  0  0  0  0  0  0  0  0
   22.3589  -11.8927  -19.3132 O   0  0  0  0  0  0  0  0  0  0  0  0
   24.1195  -12.7422  -17.9179 C   0  0  2  0  0  0  0  0  0  0  0  0
   23.5119  -14.0175  -17.7573 N   0  0  0  0  0  0  0  0  0  0  0  0
   23.8582  -11.7260  -16.9060 C   0  0  0  0  0  0  0  0  0  0  0  0
   22.6077  -11.4335  -16.7687 O   0  0  0  0  0  0  0  0  0  0  0  0
   24.7259  -11.0243  -16.0691 N   0  0  0  0  0  0  0  0  0  0  0  0
   25.9500  -11.5952  -15.4706 C   0  0  0  0  0  0  0  0  0  0  0  0
   26.9599  -10.5615  -16.0099 C   0  0  0  0  0  0  0  0  0  0  0  0
   26.1484   -9.2769  -16.2291 C   0  0  0  0  0  0  0  0  0  0  0  0
   24.8148   -9.6911  -15.5781 C   0  0  1  0  0  0  0  0  0  0  0  0
   23.8208   -8.6979  -15.8217 C   0  0  0  0  0  0  0  0  0  0  0  0
   23.4187   -8.5158  -17.0207 O   0  0  0  0  0  0  0  0  0  0  0  0
   23.1588   -7.8160  -14.9280 N   0  0  0  0  0  0  0  0  0  0  0  0
   22.1250   -6.9066  -15.2684 C   0  0  1  0  0  0  0  0  0  0  0  0
   20.7417   -7.1345  -14.8697 C   0  0  0  0  0  0  0  0  0  0  0  0
   20.2250   -8.4339  -15.3644 C   0  0  0  0  0  0  0  0  0  0  0  0
   20.0765   -8.8309  -16.6766 C   0  0  0  0  0  0  0  0  0  0  0  0
   19.5703  -10.0925  -16.7026 N   0  0  0  0  0  0  0  0  0  0  0  0
   19.4113  -10.4624  -15.4118 C   0  0  0  0  0  0  0  0  0  0  0  0
   19.8079   -9.4577  -14.6029 N   0  0  0  0  0  0  0  0  0  0  0  0
   22.5284   -5.5576  -14.7814 C   0  0  0  0  0  0  0  0  0  0  0  0
   21.8495   -4.4283  -15.2060 O   0  0  0  0  0  0  0  0  0  0  0  0
   23.4804   -5.3781  -13.9813 O   0  0  0  0  0  0  0  0  0  0  0  0
  2  1  1  6
  2  3  1  0
  4  2  1  0
  4  5  1  1
  6  4  1  0
  6  8  1  0
  7  6  2  0
  8 12  1  0
  9  8  1  0
  9 10  1  0
 11 10  1  0
 12 11  1  0
 13 15  1  0
 12 13  1  6
 14 13  2  0
 16 17  1  1
 16 15  1  0
 17 18  1  0
 18 19  2  0
 18 22  1  0
 19 20  1  0
 20 21  1  0
 22 21  2  0
 23 16  1  0
 23 24  1  0
 25 23  2  0
M  END
$$$$
