TPH.pdb
     RDKit          3D

 25 26  0  0  1  0  0  0  0  0999 V2000
   20.1845  -14.4093  -19.2803 C   0  0  0  0  0  0  0  0  0  0  0  0
   20.1104  -13.1392  -18.4879 C   0  0  1  0  0  0  0  0  0  0  0  0
   18.8263  -12.5730  -18.5756 O   0  0  0  0  0  0  0  0  0  0  0  0
   20.4222  -13.4526  -17.0112 C   0  0  2  0  0  0  0  0  0  0  0  0
   19.5191  -14.4837  -16.6339 N   0  0  0  0  0  0  0  0  0  0  0  0
   20.4563  -12.2410  -16.2016 C   0  0  0  0  0  0  0  0  0  0  0  0
   19.4008  -11.5054  -16.3157 O   0  0  0  0  0  0  0  0  0  0  0  0
   21.4298  -11.7491  -15.3320 N   0  0  0  0  0  0  0  0  0  0  0  0
   22.2915  -12.5953  -14.4812 C   0  0  0  0  0  0  0  0  0  0  0  0
   23.6594  -12.0845  -14.9785 C   0  0  0  0  0  0  0  0  0  0  0  0
   23.4015  -10.6571  -15.4814 C   0  0  0  0  0  0  0  0  0  0  0  0
   21.9496  -10.4653  -15.0029 C   0  0  1  0  0  0  0  0  0  0  0  0
   21.4188   -9.2478  -15.5223 C   0  0  0  0  0  0  0  0  0  0  0  0
   21.4502   -9.0561  -16.7851 O   0  0  0  0  0  0  0  0  0  0  0  0
   20.8322   -8.1392  -14.8580 N   0  0  0  0  0  0  0  0  0  0  0  0
   20.3186   -6.9722  -15.4795 C   0  0  1  0  0  0  0  0  0  0  0  0
   18.9586   -6.5086  -15.2346 C   0  0  0  0  0  0  0  0  0  0  0  0
   17.9458   -7.5219  -15.6185 C   0  0  0  0  0  0  0  0  0  0  0  0
   17.7830   -8.1173  -16.8516 C   0  0  0  0  0  0  0  0  0  0  0  0
   16.7415   -8.9890  -16.7880 N   0  0  0  0  0  0  0  0  0  0  0  0
   16.2720   -8.9247  -15.5216 C   0  0  0  0  0  0  0  0  0  0  0  0
   17.0017   -8.0365  -14.8149 N   0  0  0  0  0  0  0  0  0  0  0  0
   21.2497   -5.8493  -15.1764 C   0  0  0  0  0  0  0  0  0  0  0  0
   21.0982   -4.6253  -15.8054 O   0  0  0  0  0  0  0  0  0  0  0  0
   22.1961   -5.9507  -14.3563 O   0  0  0  0  0  0  0  0  0  0  0  0
  2  1  1  6
  2  3  1  0
  4  2  1  0
  4  5  1  1
  6  4  1  0
  6  8  1  0
  7  6  2  0
  8 12  1  0
  9  8  1  0
  9 10  1  0
 11 10  1  0
 12 11  1  0
 13 15  1  0
 12 13  1  6
 14 13  2  0
 16 17  1  1
 16 15  1  0
 17 18  1  0
 18 19  2  0
 18 22  1  0
 19 20  1  0
 20 21  1  0
 22 21  2  0
 23 16  1  0
 23 24  1  0
 25 23  2  0
M  END
$$$$
