TPH.pdb
     RDKit          3D

 25 26  0  0  1  0  0  0  0  0999 V2000
   27.3297  -18.0288  -14.5353 C   0  0  0  0  0  0  0  0  0  0  0  0
   27.5010  -19.1042  -15.5653 C   0  0  1  0  0  0  0  0  0  0  0  0
   28.7306  -18.9619  -16.2325 O   0  0  0  0  0  0  0  0  0  0  0  0
   27.4645  -20.4770  -14.8652 C   0  0  2  0  0  0  0  0  0  0  0  0
   27.9805  -21.4076  -15.8081 N   0  0  0  0  0  0  0  0  0  0  0  0
   26.1564  -20.7466  -14.2814 C   0  0  0  0  0  0  0  0  0  0  0  0
   25.1680  -20.5017  -15.0759 O   0  0  0  0  0  0  0  0  0  0  0  0
   25.7983  -21.2211  -13.0195 N   0  0  0  0  0  0  0  0  0  0  0  0
   26.6117  -22.1607  -12.2207 C   0  0  0  0  0  0  0  0  0  0  0  0
   26.7503  -21.3020  -10.9468 C   0  0  0  0  0  0  0  0  0  0  0  0
   25.5197  -20.3840  -10.9400 C   0  0  0  0  0  0  0  0  0  0  0  0
   24.7261  -20.9952  -12.1107 C   0  0  1  0  0  0  0  0  0  0  0  0
   23.5974  -20.1792  -12.4170 C   0  0  0  0  0  0  0  0  0  0  0  0
   23.7690  -18.9193  -12.5418 O   0  0  0  0  0  0  0  0  0  0  0  0
   22.2351  -20.5250  -12.6151 N   0  0  0  0  0  0  0  0  0  0  0  0
   21.3156  -19.8422  -13.4517 C   0  0  1  0  0  0  0  0  0  0  0  0
   21.5300  -19.7217  -14.8884 C   0  0  0  0  0  0  0  0  0  0  0  0
   20.4463  -18.9570  -15.5523 C   0  0  0  0  0  0  0  0  0  0  0  0
   19.3107  -18.4360  -14.9689 C   0  0  0  0  0  0  0  0  0  0  0  0
   18.5727  -17.8065  -15.9216 N   0  0  0  0  0  0  0  0  0  0  0  0
   19.2559  -17.9436  -17.0804 C   0  0  0  0  0  0  0  0  0  0  0  0
   20.3896  -18.6400  -16.8555 N   0  0  0  0  0  0  0  0  0  0  0  0
   19.9706  -20.4456  -13.2357 C   0  0  0  0  0  0  0  0  0  0  0  0
   19.7901  -21.8131  -13.3528 O   0  0  0  0  0  0  0  0  0  0  0  0
   18.9564  -19.7639  -12.9437 O   0  0  0  0  0  0  0  0  0  0  0  0
  2  1  1  1
  2  3  1  0
  4  2  1  0
  4  5  1  6
  6  4  1  0
  6  8  1  0
  7  6  2  0
  8 12  1  0
  9  8  1  0
  9 10  1  0
 11 10  1  0
 12 11  1  0
 13 15  1  0
 12 13  1  6
 14 13  2  0
 16 17  1  6
 16 15  1  0
 17 18  1  0
 18 19  2  0
 18 22  1  0
 19 20  1  0
 20 21  1  0
 22 21  2  0
 23 16  1  0
 23 24  1  0
 25 23  2  0
M  END
$$$$
