TPH.pdb
     RDKit          3D

 25 26  0  0  1  0  0  0  0  0999 V2000
   18.6522  -14.6424    2.7787 C   0  0  0  0  0  0  0  0  0  0  0  0
   17.4032  -14.1315    3.4309 C   0  0  1  0  0  0  0  0  0  0  0  0
   16.9215  -12.9938    2.7595 O   0  0  0  0  0  0  0  0  0  0  0  0
   16.3281  -15.2353    3.3851 C   0  0  2  0  0  0  0  0  0  0  0  0
   15.0968  -14.5908    3.6843 N   0  0  0  0  0  0  0  0  0  0  0  0
   16.7105  -16.3899    4.1883 C   0  0  0  0  0  0  0  0  0  0  0  0
   16.9355  -16.1127    5.4296 O   0  0  0  0  0  0  0  0  0  0  0  0
   16.8717  -17.7317    3.8427 N   0  0  0  0  0  0  0  0  0  0  0  0
   15.9571  -18.4794    2.9554 C   0  0  0  0  0  0  0  0  0  0  0  0
   16.9946  -18.9434    1.9126 C   0  0  0  0  0  0  0  0  0  0  0  0
   18.3334  -18.9861    2.6627 C   0  0  0  0  0  0  0  0  0  0  0  0
   17.8393  -18.7432    4.1017 C   0  0  1  0  0  0  0  0  0  0  0  0
   18.9499  -18.5600    4.9773 C   0  0  0  0  0  0  0  0  0  0  0  0
   19.7339  -17.5721    4.7727 O   0  0  0  0  0  0  0  0  0  0  0  0
   19.3769  -19.3195    6.0978 N   0  0  0  0  0  0  0  0  0  0  0  0
   20.3525  -18.9247    7.0487 C   0  0  1  0  0  0  0  0  0  0  0  0
   20.3701  -17.5826    7.6168 C   0  0  0  0  0  0  0  0  0  0  0  0
   21.5489  -17.3610    8.4892 C   0  0  0  0  0  0  0  0  0  0  0  0
   22.8528  -17.7383    8.2463 C   0  0  0  0  0  0  0  0  0  0  0  0
   23.6283  -17.3497    9.2934 N   0  0  0  0  0  0  0  0  0  0  0  0
   22.8002  -16.7383   10.1702 C   0  0  0  0  0  0  0  0  0  0  0  0
   21.5421  -16.7459    9.6823 N   0  0  0  0  0  0  0  0  0  0  0  0
   20.3109  -19.9006    8.1737 C   0  0  0  0  0  0  0  0  0  0  0  0
   21.1956  -19.7864    9.2323 O   0  0  0  0  0  0  0  0  0  0  0  0
   19.4929  -20.8532    8.2201 O   0  0  0  0  0  0  0  0  0  0  0  0
  2  1  1  6
  2  3  1  0
  4  2  1  0
  4  5  1  1
  6  4  1  0
  6  8  1  0
  7  6  2  0
  8 12  1  0
  9  8  1  0
  9 10  1  0
 11 10  1  0
 12 11  1  0
 13 15  1  0
 12 13  1  1
 14 13  2  0
 16 17  1  1
 16 15  1  0
 17 18  1  0
 18 19  2  0
 18 22  1  0
 19 20  1  0
 20 21  1  0
 22 21  2  0
 23 16  1  0
 23 24  1  0
 25 23  2  0
M  END
$$$$
