TPH.pdb
     RDKit          3D

 25 26  0  0  1  0  0  0  0  0999 V2000
   26.9121  -17.8356  -14.6849 C   0  0  0  0  0  0  0  0  0  0  0  0
   27.2710  -18.8125  -15.7635 C   0  0  1  0  0  0  0  0  0  0  0  0
   28.4303  -18.3988  -16.4432 O   0  0  0  0  0  0  0  0  0  0  0  0
   27.5279  -20.1912  -15.1237 C   0  0  2  0  0  0  0  0  0  0  0  0
   28.2286  -20.9487  -16.1018 N   0  0  0  0  0  0  0  0  0  0  0  0
   26.3078  -20.7577  -14.5625 C   0  0  0  0  0  0  0  0  0  0  0  0
   25.2989  -20.7301  -15.3685 O   0  0  0  0  0  0  0  0  0  0  0  0
   26.0513  -21.3199  -13.3119 N   0  0  0  0  0  0  0  0  0  0  0  0
   27.0324  -22.1036  -12.5335 C   0  0  0  0  0  0  0  0  0  0  0  0
   27.0080  -21.2626  -11.2407 C   0  0  0  0  0  0  0  0  0  0  0  0
   25.6244  -20.5979  -11.2145 C   0  0  0  0  0  0  0  0  0  0  0  0
   24.9588  -21.3238  -12.3993 C   0  0  1  0  0  0  0  0  0  0  0  0
   23.6936  -20.7326  -12.6885 C   0  0  0  0  0  0  0  0  0  0  0  0
   23.5603  -19.4704  -12.5425 O   0  0  0  0  0  0  0  0  0  0  0  0
   22.4792  -21.3208  -13.1289 N   0  0  0  0  0  0  0  0  0  0  0  0
   21.2982  -20.6226  -13.4891 C   0  0  1  0  0  0  0  0  0  0  0  0
   20.7783  -20.6474  -14.8505 C   0  0  0  0  0  0  0  0  0  0  0  0
   21.7347  -20.0665  -15.8240 C   0  0  0  0  0  0  0  0  0  0  0  0
   22.2821  -18.8010  -15.8066 C   0  0  0  0  0  0  0  0  0  0  0  0
   23.1106  -18.6625  -16.8757 N   0  0  0  0  0  0  0  0  0  0  0  0
   23.0679  -19.8386  -17.5415 C   0  0  0  0  0  0  0  0  0  0  0  0
   22.2349  -20.6874  -16.9040 N   0  0  0  0  0  0  0  0  0  0  0  0
   20.2109  -21.0667  -12.5725 C   0  0  0  0  0  0  0  0  0  0  0  0
   19.0564  -20.3143  -12.4399 O   0  0  0  0  0  0  0  0  0  0  0  0
   20.2820  -22.1191  -11.8898 O   0  0  0  0  0  0  0  0  0  0  0  0
  2  1  1  1
  2  3  1  0
  4  2  1  0
  4  5  1  6
  6  4  1  0
  6  8  1  0
  7  6  2  0
  8 12  1  0
  9  8  1  0
  9 10  1  0
 11 10  1  0
 12 11  1  0
 13 15  1  0
 12 13  1  6
 14 13  2  0
 16 17  1  6
 16 15  1  0
 17 18  1  0
 18 19  2  0
 18 22  1  0
 19 20  1  0
 20 21  1  0
 22 21  2  0
 23 16  1  0
 23 24  1  0
 25 23  2  0
M  END
$$$$
