TPH.pdb
     RDKit          3D

 25 26  0  0  1  0  0  0  0  0999 V2000
   13.0069  -10.4209  -14.7245 C   0  0  0  0  0  0  0  0  0  0  0  0
   13.3043  -11.6459  -13.9137 C   0  0  1  0  0  0  0  0  0  0  0  0
   12.4984  -12.7222  -14.3253 O   0  0  0  0  0  0  0  0  0  0  0  0
   14.7861  -12.0248  -14.1059 C   0  0  2  0  0  0  0  0  0  0  0  0
   14.9245  -13.3348  -13.5712 N   0  0  0  0  0  0  0  0  0  0  0  0
   15.6751  -10.9831  -13.6068 C   0  0  0  0  0  0  0  0  0  0  0  0
   15.2756  -10.4370  -12.5066 O   0  0  0  0  0  0  0  0  0  0  0  0
   16.8743  -10.4832  -14.1146 N   0  0  0  0  0  0  0  0  0  0  0  0
   17.8878  -11.2996  -14.8138 C   0  0  0  0  0  0  0  0  0  0  0  0
   17.9543  -10.4901  -16.1251 C   0  0  0  0  0  0  0  0  0  0  0  0
   17.5328   -9.0640  -15.7439 C   0  0  0  0  0  0  0  0  0  0  0  0
   17.4869   -9.2018  -14.2101 C   0  0  1  0  0  0  0  0  0  0  0  0
   16.9339   -8.0231  -13.6281 C   0  0  0  0  0  0  0  0  0  0  0  0
   15.7504   -7.6743  -13.9596 O   0  0  0  0  0  0  0  0  0  0  0  0
   17.4885   -7.1058  -12.6976 N   0  0  0  0  0  0  0  0  0  0  0  0
   16.8622   -5.9283  -12.2147 C   0  0  1  0  0  0  0  0  0  0  0  0
   16.8741   -5.5792  -10.7996 C   0  0  0  0  0  0  0  0  0  0  0  0
   16.0297   -6.4929   -9.9921 C   0  0  0  0  0  0  0  0  0  0  0  0
   15.2431   -7.5290  -10.4494 C   0  0  0  0  0  0  0  0  0  0  0  0
   14.6293   -8.1197   -9.3897 N   0  0  0  0  0  0  0  0  0  0  0  0
   15.0403   -7.4461   -8.2916 C   0  0  0  0  0  0  0  0  0  0  0  0
   15.8878   -6.4618   -8.6576 N   0  0  0  0  0  0  0  0  0  0  0  0
   17.4144   -4.7745  -12.9785 C   0  0  0  0  0  0  0  0  0  0  0  0
   16.8021   -3.5346  -12.9134 O   0  0  0  0  0  0  0  0  0  0  0  0
   18.4374   -4.8631  -13.7027 O   0  0  0  0  0  0  0  0  0  0  0  0
  2  1  1  6
  2  3  1  0
  4  2  1  0
  4  5  1  1
  6  4  1  0
  6  8  1  0
  7  6  2  0
  8 12  1  0
  9  8  1  0
  9 10  1  0
 11 10  1  0
 12 11  1  0
 13 15  1  0
 12 13  1  1
 14 13  2  0
 16 17  1  1
 16 15  1  0
 17 18  1  0
 18 19  2  0
 18 22  1  0
 19 20  1  0
 20 21  1  0
 22 21  2  0
 23 16  1  0
 23 24  1  0
 25 23  2  0
M  END
$$$$
