PHA.pdb
     RDKit          3D

 23 24  0  0  1  0  0  0  0  0999 V2000
   24.6802  -11.2222  -16.3111 N   0  0  0  0  0  0  0  0  0  0  0  0
   25.6333  -12.3288  -16.5090 C   0  0  0  0  0  0  0  0  0  0  0  0
   25.2223  -12.7946  -17.8943 C   0  0  0  0  0  0  0  0  0  0  0  0
   24.9114  -11.5084  -18.6311 C   0  0  0  0  0  0  0  0  0  0  0  0
   24.8556  -10.4852  -17.5209 C   0  0  1  0  0  0  0  0  0  0  0  0
   23.7853   -9.4658  -17.7656 C   0  0  0  0  0  0  0  0  0  0  0  0
   23.8546   -8.7610  -18.7790 O   0  0  0  0  0  0  0  0  0  0  0  0
   22.7184   -9.3063  -16.8652 N   0  0  0  0  0  0  0  0  0  0  0  0
   21.5504   -8.5087  -16.9479 C   0  0  1  0  0  0  0  0  0  0  0  0
   20.2445   -9.2669  -17.0984 C   0  0  0  0  0  0  0  0  0  0  0  0
   20.3161  -10.3920  -18.0622 C   0  0  0  0  0  0  0  0  0  0  0  0
   20.5297  -11.7115  -17.7322 C   0  0  0  0  0  0  0  0  0  0  0  0
   20.5828  -12.3964  -18.8770 N   0  0  0  0  0  0  0  0  0  0  0  0
   20.4119  -11.5632  -19.9010 C   0  0  0  0  0  0  0  0  0  0  0  0
   20.2482  -10.3340  -19.4049 N   0  0  0  0  0  0  0  0  0  0  0  0
   21.4350   -7.3812  -16.0504 C   0  0  0  0  0  0  0  0  0  0  0  0
   21.3832   -7.5208  -14.8007 O   0  0  0  0  0  0  0  0  0  0  0  0
   20.0110   -5.2407  -14.7743 C   0  0  0  0  0  0  0  0  0  0  0  0
   21.2412   -4.9374  -15.6369 C   0  0  2  0  0  0  0  0  0  0  0  0
   21.3755   -6.0569  -16.5442 N   0  0  0  0  0  0  0  0  0  0  0  0
   22.4149   -4.7286  -14.7973 C   0  0  0  0  0  0  0  0  0  0  0  0
   23.4581   -5.6330  -14.7842 O   0  0  0  0  0  0  0  0  0  0  0  0
   22.4950   -3.7149  -14.0677 O   0  0  0  0  0  0  0  0  0  0  0  0
  1  5  1  0
  2  1  1  0
  2  3  1  0
  4  3  1  0
  5  6  1  6
  5  4  1  0
  6  7  2  0
  6  8  1  0
  8  9  1  0
  9 16  1  0
  9 10  1  1
 10 11  1  0
 11 15  1  0
 12 11  2  0
 12 13  1  0
 13 14  1  0
 15 14  2  0
 16 20  1  0
 16 17  2  0
 19 18  1  1
 19 21  1  0
 20 19  1  0
 21 22  1  0
 23 21  2  0
M  END
$$$$
