PHA.pdb
     RDKit          3D

 23 24  0  0  1  0  0  0  0  0999 V2000
   27.9595  -20.4997  -17.2349 N   0  0  0  0  0  0  0  0  0  0  0  0
   28.8211  -20.2978  -18.4134 C   0  0  0  0  0  0  0  0  0  0  0  0
   28.5386  -18.8352  -18.7069 C   0  0  0  0  0  0  0  0  0  0  0  0
   28.4415  -18.2029  -17.3341 C   0  0  0  0  0  0  0  0  0  0  0  0
   28.3485  -19.3981  -16.4147 C   0  0  1  0  0  0  0  0  0  0  0  0
   27.4164  -19.1407  -15.2703 C   0  0  0  0  0  0  0  0  0  0  0  0
   27.6334  -18.1735  -14.5314 O   0  0  0  0  0  0  0  0  0  0  0  0
   26.3131  -19.9779  -15.0332 N   0  0  0  0  0  0  0  0  0  0  0  0
   25.2809  -19.8953  -14.0663 C   0  0  1  0  0  0  0  0  0  0  0  0
   23.8656  -19.8798  -14.6135 C   0  0  0  0  0  0  0  0  0  0  0  0
   23.5961  -18.7513  -15.5377 C   0  0  0  0  0  0  0  0  0  0  0  0
   24.4196  -17.6649  -15.7300 C   0  0  0  0  0  0  0  0  0  0  0  0
   23.7999  -16.8528  -16.5897 N   0  0  0  0  0  0  0  0  0  0  0  0
   22.6310  -17.3853  -16.9392 C   0  0  0  0  0  0  0  0  0  0  0  0
   22.5032  -18.5489  -16.2962 N   0  0  0  0  0  0  0  0  0  0  0  0
   25.4038  -20.7030  -12.8735 C   0  0  0  0  0  0  0  0  0  0  0  0
   25.1896  -21.9431  -12.8778 O   0  0  0  0  0  0  0  0  0  0  0  0
   26.5564  -20.1865   -9.3893 C   0  0  0  0  0  0  0  0  0  0  0  0
   25.6367  -20.8745  -10.4043 C   0  0  2  0  0  0  0  0  0  0  0  0
   25.7753  -20.1272  -11.6359 N   0  0  0  0  0  0  0  0  0  0  0  0
   24.2674  -20.9188   -9.9050 C   0  0  0  0  0  0  0  0  0  0  0  0
   23.2360  -20.2995  -10.5824 O   0  0  0  0  0  0  0  0  0  0  0  0
   24.0038  -21.5259   -8.8428 O   0  0  0  0  0  0  0  0  0  0  0  0
  1  5  1  0
  2  1  1  0
  2  3  1  0
  4  3  1  0
  5  6  1  1
  5  4  1  0
  6  7  2  0
  6  8  1  0
  8  9  1  0
  9 16  1  0
  9 10  1  6
 10 11  1  0
 11 15  1  0
 12 11  2  0
 12 13  1  0
 13 14  1  0
 15 14  2  0
 16 20  1  0
 16 17  2  0
 19 18  1  1
 19 21  1  0
 20 19  1  0
 21 22  1  0
 23 21  2  0
M  END
$$$$
