PHA.pdb
     RDKit          3D

 23 24  0  0  1  0  0  0  0  0999 V2000
   22.4295   -9.8429  -16.6440 N   0  0  0  0  0  0  0  0  0  0  0  0
   22.5101  -11.0532  -17.4811 C   0  0  0  0  0  0  0  0  0  0  0  0
   21.1118  -11.6111  -17.2844 C   0  0  0  0  0  0  0  0  0  0  0  0
   20.2299  -10.3799  -17.2693 C   0  0  0  0  0  0  0  0  0  0  0  0
   21.2238   -9.2510  -17.1273 C   0  0  1  0  0  0  0  0  0  0  0  0
   20.6944   -8.1593  -16.2483 C   0  0  0  0  0  0  0  0  0  0  0  0
   19.6911   -7.5353  -16.6125 O   0  0  0  0  0  0  0  0  0  0  0  0
   21.3201   -7.8432  -15.0305 N   0  0  0  0  0  0  0  0  0  0  0  0
   20.9540   -6.9274  -14.0135 C   0  0  1  0  0  0  0  0  0  0  0  0
   21.1603   -7.4081  -12.5890 C   0  0  0  0  0  0  0  0  0  0  0  0
   20.5539   -6.5209  -11.5667 C   0  0  0  0  0  0  0  0  0  0  0  0
   19.9199   -5.3261  -11.8236 C   0  0  0  0  0  0  0  0  0  0  0  0
   19.5684   -4.8093  -10.6438 N   0  0  0  0  0  0  0  0  0  0  0  0
   19.9548   -5.6279   -9.6678 C   0  0  0  0  0  0  0  0  0  0  0  0
   20.5591   -6.6779  -10.2302 N   0  0  0  0  0  0  0  0  0  0  0  0
   21.3203   -5.5397  -14.1874 C   0  0  0  0  0  0  0  0  0  0  0  0
   22.4900   -5.1235  -13.9813 O   0  0  0  0  0  0  0  0  0  0  0  0
   19.7527   -2.8223  -16.0844 C   0  0  0  0  0  0  0  0  0  0  0  0
   20.7906   -3.2685  -15.0484 C   0  0  2  0  0  0  0  0  0  0  0  0
   20.3685   -4.5789  -14.6024 N   0  0  0  0  0  0  0  0  0  0  0  0
   20.8872   -2.2927  -13.9691 C   0  0  0  0  0  0  0  0  0  0  0  0
   20.4381   -2.5837  -12.6963 O   0  0  0  0  0  0  0  0  0  0  0  0
   21.3842   -1.1643  -14.1829 O   0  0  0  0  0  0  0  0  0  0  0  0
  1  5  1  0
  2  1  1  0
  2  3  1  0
  4  3  1  0
  5  6  1  1
  5  4  1  0
  6  7  2  0
  6  8  1  0
  8  9  1  0
  9 16  1  0
  9 10  1  1
 10 11  1  0
 11 15  1  0
 12 11  2  0
 12 13  1  0
 13 14  1  0
 15 14  2  0
 16 20  1  0
 16 17  2  0
 19 18  1  6
 19 21  1  0
 20 19  1  0
 21 22  1  0
 23 21  2  0
M  END
$$$$
