PHA.pdb
     RDKit          3D

 23 24  0  0  1  0  0  0  0  0999 V2000
   24.4631  -12.6240  -15.6575 N   0  0  0  0  0  0  0  0  0  0  0  0
   25.1636  -13.8895  -15.9403 C   0  0  0  0  0  0  0  0  0  0  0  0
   24.7179  -14.1308  -17.3714 C   0  0  0  0  0  0  0  0  0  0  0  0
   24.7200  -12.7480  -17.9891 C   0  0  0  0  0  0  0  0  0  0  0  0
   24.8408  -11.8390  -16.7884 C   0  0  1  0  0  0  0  0  0  0  0  0
   24.0249  -10.5938  -16.9567 C   0  0  0  0  0  0  0  0  0  0  0  0
   24.3913   -9.7486  -17.7813 O   0  0  0  0  0  0  0  0  0  0  0  0
   22.8629  -10.3816  -16.1956 N   0  0  0  0  0  0  0  0  0  0  0  0
   21.9680   -9.2838  -16.1614 C   0  0  1  0  0  0  0  0  0  0  0  0
   20.4971   -9.6369  -16.0401 C   0  0  0  0  0  0  0  0  0  0  0  0
   19.5912   -8.4693  -16.1679 C   0  0  0  0  0  0  0  0  0  0  0  0
   19.4653   -7.6774  -17.2870 C   0  0  0  0  0  0  0  0  0  0  0  0
   18.5994   -6.7075  -16.9833 N   0  0  0  0  0  0  0  0  0  0  0  0
   18.1829   -6.8614  -15.7283 C   0  0  0  0  0  0  0  0  0  0  0  0
   18.7889   -7.9404  -15.2259 N   0  0  0  0  0  0  0  0  0  0  0  0
   22.3302   -8.1392  -15.3559 C   0  0  0  0  0  0  0  0  0  0  0  0
   22.6537   -8.2465  -14.1444 O   0  0  0  0  0  0  0  0  0  0  0  0
   23.0691   -4.5765  -16.0723 C   0  0  0  0  0  0  0  0  0  0  0  0
   22.7144   -5.6976  -15.0889 C   0  0  2  0  0  0  0  0  0  0  0  0
   22.3374   -6.8341  -15.9017 N   0  0  0  0  0  0  0  0  0  0  0  0
   21.6625   -5.2634  -14.1772 C   0  0  0  0  0  0  0  0  0  0  0  0
   21.9572   -4.5750  -13.0172 O   0  0  0  0  0  0  0  0  0  0  0  0
   20.4633   -5.5112  -14.4355 O   0  0  0  0  0  0  0  0  0  0  0  0
  1  5  1  0
  2  1  1  0
  2  3  1  0
  4  3  1  0
  5  6  1  6
  5  4  1  0
  6  7  2  0
  6  8  1  0
  8  9  1  0
  9 16  1  0
  9 10  1  1
 10 11  1  0
 11 15  1  0
 12 11  2  0
 12 13  1  0
 13 14  1  0
 15 14  2  0
 16 20  1  0
 16 17  2  0
 19 18  1  6
 19 21  1  0
 20 19  1  0
 21 22  1  0
 23 21  2  0
M  END
$$$$
