PHA.pdb
     RDKit          3D

 23 24  0  0  1  0  0  0  0  0999 V2000
   24.3813  -11.5427  -16.0232 N   0  0  0  0  0  0  0  0  0  0  0  0
   24.9361  -12.9081  -16.0270 C   0  0  0  0  0  0  0  0  0  0  0  0
   23.7936  -13.6618  -16.6841 C   0  0  0  0  0  0  0  0  0  0  0  0
   23.2968  -12.7080  -17.7505 C   0  0  0  0  0  0  0  0  0  0  0  0
   23.9701  -11.4064  -17.3833 C   0  0  1  0  0  0  0  0  0  0  0  0
   23.0697  -10.2337  -17.6256 C   0  0  0  0  0  0  0  0  0  0  0  0
   22.7405   -9.9655  -18.7868 O   0  0  0  0  0  0  0  0  0  0  0  0
   22.6030   -9.4471  -16.5589 N   0  0  0  0  0  0  0  0  0  0  0  0
   21.7004   -8.3553  -16.5413 C   0  0  1  0  0  0  0  0  0  0  0  0
   20.2732   -8.6870  -16.1463 C   0  0  0  0  0  0  0  0  0  0  0  0
   20.1081   -8.9853  -14.7027 C   0  0  0  0  0  0  0  0  0  0  0  0
   21.0106   -9.6731  -13.9230 C   0  0  0  0  0  0  0  0  0  0  0  0
   20.4724   -9.7806  -12.7059 N   0  0  0  0  0  0  0  0  0  0  0  0
   19.2788   -9.1914  -12.6948 C   0  0  0  0  0  0  0  0  0  0  0  0
   19.0527   -8.7030  -13.9172 N   0  0  0  0  0  0  0  0  0  0  0  0
   22.1567   -7.1082  -15.9698 C   0  0  0  0  0  0  0  0  0  0  0  0
   22.9613   -7.0676  -15.0029 O   0  0  0  0  0  0  0  0  0  0  0  0
   21.7427   -3.5171  -16.8632 C   0  0  0  0  0  0  0  0  0  0  0  0
   22.1677   -4.6234  -15.8911 C   0  0  2  0  0  0  0  0  0  0  0  0
   21.7137   -5.8651  -16.4796 N   0  0  0  0  0  0  0  0  0  0  0  0
   21.6169   -4.3763  -14.5637 C   0  0  0  0  0  0  0  0  0  0  0  0
   22.1892   -3.4550  -13.7094 O   0  0  0  0  0  0  0  0  0  0  0  0
   20.6058   -5.0028  -14.1749 O   0  0  0  0  0  0  0  0  0  0  0  0
  1  5  1  0
  2  1  1  0
  2  3  1  0
  4  3  1  0
  5  6  1  1
  5  4  1  0
  6  7  2  0
  6  8  1  0
  8  9  1  0
  9 16  1  0
  9 10  1  1
 10 11  1  0
 11 15  1  0
 12 11  2  0
 12 13  1  0
 13 14  1  0
 15 14  2  0
 16 20  1  0
 16 17  2  0
 19 18  1  6
 19 21  1  0
 20 19  1  0
 21 22  1  0
 23 21  2  0
M  END
$$$$
