PHA.pdb
     RDKit          3D

 23 24  0  0  1  0  0  0  0  0999 V2000
   28.2699  -20.6569  -17.0894 N   0  0  0  0  0  0  0  0  0  0  0  0
   29.3307  -20.9940  -18.0555 C   0  0  0  0  0  0  0  0  0  0  0  0
   29.9310  -22.2152  -17.3822 C   0  0  0  0  0  0  0  0  0  0  0  0
   28.7295  -22.9445  -16.8180 C   0  0  0  0  0  0  0  0  0  0  0  0
   27.6246  -21.9207  -16.9339 C   0  0  1  0  0  0  0  0  0  0  0  0
   26.6934  -21.9811  -15.7618 C   0  0  0  0  0  0  0  0  0  0  0  0
   25.7606  -22.7922  -15.7834 O   0  0  0  0  0  0  0  0  0  0  0  0
   26.8690  -21.1351  -14.6537 N   0  0  0  0  0  0  0  0  0  0  0  0
   26.1119  -21.0013  -13.4637 C   0  0  1  0  0  0  0  0  0  0  0  0
   26.8929  -20.5913  -12.2289 C   0  0  0  0  0  0  0  0  0  0  0  0
   26.0942  -20.6261  -10.9795 C   0  0  0  0  0  0  0  0  0  0  0  0
   24.7455  -20.8921  -10.9032 C   0  0  0  0  0  0  0  0  0  0  0  0
   24.3962  -20.7724   -9.6201 N   0  0  0  0  0  0  0  0  0  0  0  0
   25.4653  -20.4449   -8.8978 C   0  0  0  0  0  0  0  0  0  0  0  0
   26.5076  -20.3545   -9.7280 N   0  0  0  0  0  0  0  0  0  0  0  0
   24.8268  -20.3445  -13.5485 C   0  0  0  0  0  0  0  0  0  0  0  0
   24.7170  -19.0945  -13.6450 O   0  0  0  0  0  0  0  0  0  0  0  0
   21.5090  -21.4032  -14.5721 C   0  0  0  0  0  0  0  0  0  0  0  0
   22.3492  -20.4330  -13.7342 C   0  0  2  0  0  0  0  0  0  0  0  0
   23.6232  -21.0877  -13.5274 N   0  0  0  0  0  0  0  0  0  0  0  0
   21.6602  -20.1017  -12.4925 C   0  0  0  0  0  0  0  0  0  0  0  0
   20.6452  -19.1662  -12.4626 O   0  0  0  0  0  0  0  0  0  0  0  0
   21.9824  -20.6668  -11.4234 O   0  0  0  0  0  0  0  0  0  0  0  0
  1  5  1  0
  2  1  1  0
  2  3  1  0
  4  3  1  0
  5  6  1  1
  5  4  1  0
  6  7  2  0
  6  8  1  0
  8  9  1  0
  9 16  1  0
  9 10  1  1
 10 11  1  0
 11 15  1  0
 12 11  2  0
 12 13  1  0
 13 14  1  0
 15 14  2  0
 16 20  1  0
 16 17  2  0
 19 18  1  6
 19 21  1  0
 20 19  1  0
 21 22  1  0
 23 21  2  0
M  END
$$$$
