PHA.pdb
     RDKit          3D

 23 24  0  0  1  0  0  0  0  0999 V2000
   36.3839  -27.7919  -17.5242 N   0  0  0  0  0  0  0  0  0  0  0  0
   37.5501  -26.9920  -17.1089 C   0  0  0  0  0  0  0  0  0  0  0  0
   37.9322  -27.7156  -15.8301 C   0  0  0  0  0  0  0  0  0  0  0  0
   37.7010  -29.1761  -16.1579 C   0  0  0  0  0  0  0  0  0  0  0  0
   36.9129  -29.1153  -17.4454 C   0  0  1  0  0  0  0  0  0  0  0  0
   35.8667  -30.1863  -17.5011 C   0  0  0  0  0  0  0  0  0  0  0  0
   36.2151  -31.3662  -17.3786 O   0  0  0  0  0  0  0  0  0  0  0  0
   34.5116  -29.8652  -17.6888 N   0  0  0  0  0  0  0  0  0  0  0  0
   33.3558  -30.6840  -17.6648 C   0  0  1  0  0  0  0  0  0  0  0  0
   32.0879  -30.0189  -17.1619 C   0  0  0  0  0  0  0  0  0  0  0  0
   31.0311  -30.9783  -16.7582 C   0  0  0  0  0  0  0  0  0  0  0  0
   31.1014  -32.3462  -16.8978 C   0  0  0  0  0  0  0  0  0  0  0  0
   29.9368  -32.8421  -16.4730 N   0  0  0  0  0  0  0  0  0  0  0  0
   29.1482  -31.8455  -16.0766 C   0  0  0  0  0  0  0  0  0  0  0  0
   29.8161  -30.7020  -16.2501 N   0  0  0  0  0  0  0  0  0  0  0  0
   33.1144  -31.5488  -18.7980 C   0  0  0  0  0  0  0  0  0  0  0  0
   32.7633  -31.1016  -19.9207 O   0  0  0  0  0  0  0  0  0  0  0  0
   33.7164  -35.1619  -19.4483 C   0  0  0  0  0  0  0  0  0  0  0  0
   33.1645  -33.7939  -19.8647 C   0  0  2  0  0  0  0  0  0  0  0  0
   33.2653  -32.9515  -18.6922 N   0  0  0  0  0  0  0  0  0  0  0  0
   31.8024  -33.9244  -20.3685 C   0  0  0  0  0  0  0  0  0  0  0  0
   30.7114  -33.6610  -19.5642 O   0  0  0  0  0  0  0  0  0  0  0  0
   31.5997  -34.2812  -21.5507 O   0  0  0  0  0  0  0  0  0  0  0  0
  1  5  1  0
  2  1  1  0
  2  3  1  0
  4  3  1  0
  5  6  1  1
  5  4  1  0
  6  7  2  0
  6  8  1  0
  8  9  1  0
  9 16  1  0
  9 10  1  6
 10 11  1  0
 11 15  1  0
 12 11  2  0
 12 13  1  0
 13 14  1  0
 15 14  2  0
 16 20  1  0
 16 17  2  0
 19 18  1  1
 19 21  1  0
 20 19  1  0
 21 22  1  0
 23 21  2  0
M  END
$$$$
