PHA.pdb
     RDKit          3D

 23 24  0  0  1  0  0  0  0  0999 V2000
   24.4123  -12.2774  -15.5981 N   0  0  0  0  0  0  0  0  0  0  0  0
   24.9451  -13.5726  -16.0574 C   0  0  0  0  0  0  0  0  0  0  0  0
   23.9369  -13.9100  -17.1413 C   0  0  0  0  0  0  0  0  0  0  0  0
   23.6554  -12.5764  -17.8016 C   0  0  0  0  0  0  0  0  0  0  0  0
   24.2616  -11.5843  -16.8368 C   0  0  1  0  0  0  0  0  0  0  0  0
   23.4330  -10.3403  -16.7339 C   0  0  0  0  0  0  0  0  0  0  0  0
   23.4044   -9.5625  -17.6945 O   0  0  0  0  0  0  0  0  0  0  0  0
   22.6985  -10.0542  -15.5706 N   0  0  0  0  0  0  0  0  0  0  0  0
   21.7656   -9.0238  -15.2965 C   0  0  1  0  0  0  0  0  0  0  0  0
   20.4314   -9.4764  -14.7326 C   0  0  0  0  0  0  0  0  0  0  0  0
   19.7138  -10.4416  -15.6006 C   0  0  0  0  0  0  0  0  0  0  0  0
   19.3635  -10.2241  -16.9142 C   0  0  0  0  0  0  0  0  0  0  0  0
   18.6868  -11.3008  -17.3210 N   0  0  0  0  0  0  0  0  0  0  0  0
   18.6015  -12.1753  -16.3210 C   0  0  0  0  0  0  0  0  0  0  0  0
   19.2301  -11.6516  -15.2653 N   0  0  0  0  0  0  0  0  0  0  0  0
   22.2534   -7.8190  -14.6636 C   0  0  0  0  0  0  0  0  0  0  0  0
   22.6944   -7.8115  -13.4849 O   0  0  0  0  0  0  0  0  0  0  0  0
   22.9138   -4.3368  -15.7831 C   0  0  0  0  0  0  0  0  0  0  0  0
   22.6575   -5.3660  -14.6765 C   0  0  2  0  0  0  0  0  0  0  0  0
   22.2569   -6.5824  -15.3507 N   0  0  0  0  0  0  0  0  0  0  0  0
   21.6588   -4.8686  -13.7376 C   0  0  0  0  0  0  0  0  0  0  0  0
   22.0001   -3.9992  -12.7207 O   0  0  0  0  0  0  0  0  0  0  0  0
   20.4640   -5.2264  -13.8408 O   0  0  0  0  0  0  0  0  0  0  0  0
  1  5  1  0
  2  1  1  0
  2  3  1  0
  4  3  1  0
  5  6  1  1
  5  4  1  0
  6  7  2  0
  6  8  1  0
  8  9  1  0
  9 16  1  0
  9 10  1  1
 10 11  1  0
 11 15  1  0
 12 11  2  0
 12 13  1  0
 13 14  1  0
 15 14  2  0
 16 20  1  0
 16 17  2  0
 19 18  1  6
 19 21  1  0
 20 19  1  0
 21 22  1  0
 23 21  2  0
M  END
$$$$
