PHA.pdb
     RDKit          3D

 23 24  0  0  1  0  0  0  0  0999 V2000
   24.3814  -12.0034  -15.6275 N   0  0  0  0  0  0  0  0  0  0  0  0
   24.9771  -13.2534  -16.1323 C   0  0  0  0  0  0  0  0  0  0  0  0
   23.9364  -13.6511  -17.1637 C   0  0  0  0  0  0  0  0  0  0  0  0
   23.5262  -12.3346  -17.7901 C   0  0  0  0  0  0  0  0  0  0  0  0
   24.1141  -11.3112  -16.8469 C   0  0  1  0  0  0  0  0  0  0  0  0
   23.2075  -10.1298  -16.6825 C   0  0  0  0  0  0  0  0  0  0  0  0
   22.9863   -9.4080  -17.6616 O   0  0  0  0  0  0  0  0  0  0  0  0
   22.6150   -9.8395  -15.4419 N   0  0  0  0  0  0  0  0  0  0  0  0
   21.6469   -8.8688  -15.0844 C   0  0  1  0  0  0  0  0  0  0  0  0
   20.4968   -9.3693  -14.2302 C   0  0  0  0  0  0  0  0  0  0  0  0
   19.6821  -10.4219  -14.8847 C   0  0  0  0  0  0  0  0  0  0  0  0
   19.6992  -10.7226  -16.2281 C   0  0  0  0  0  0  0  0  0  0  0  0
   18.7911  -11.6813  -16.4250 N   0  0  0  0  0  0  0  0  0  0  0  0
   18.2122  -11.9889  -15.2664 C   0  0  0  0  0  0  0  0  0  0  0  0
   18.7561  -11.2187  -14.3205 N   0  0  0  0  0  0  0  0  0  0  0  0
   22.1152   -7.5646  -14.6722 C   0  0  0  0  0  0  0  0  0  0  0  0
   22.7632   -7.3899  -13.6076 O   0  0  0  0  0  0  0  0  0  0  0  0
   22.3097   -4.2406  -16.3130 C   0  0  0  0  0  0  0  0  0  0  0  0
   22.3830   -5.1240  -15.0625 C   0  0  2  0  0  0  0  0  0  0  0  0
   21.8629   -6.4154  -15.4578 N   0  0  0  0  0  0  0  0  0  0  0  0
   21.6448   -4.5145  -13.9626 C   0  0  0  0  0  0  0  0  0  0  0  0
   20.4105   -4.9952  -13.5732 O   0  0  0  0  0  0  0  0  0  0  0  0
   22.1246   -3.5355  -13.3482 O   0  0  0  0  0  0  0  0  0  0  0  0
  1  5  1  0
  2  1  1  0
  2  3  1  0
  4  3  1  0
  5  6  1  1
  5  4  1  0
  6  7  2  0
  6  8  1  0
  8  9  1  0
  9 16  1  0
  9 10  1  1
 10 11  1  0
 11 15  1  0
 12 11  2  0
 12 13  1  0
 13 14  1  0
 15 14  2  0
 16 20  1  0
 16 17  2  0
 19 18  1  6
 19 21  1  0
 20 19  1  0
 21 22  1  0
 23 21  2  0
M  END
$$$$
