PHA.pdb
     RDKit          3D

 23 24  0  0  1  0  0  0  0  0999 V2000
   18.9111  -11.7329  -16.4550 N   0  0  0  0  0  0  0  0  0  0  0  0
   18.6784  -13.0055  -17.1611 C   0  0  0  0  0  0  0  0  0  0  0  0
   17.5717  -12.5876  -18.1128 C   0  0  0  0  0  0  0  0  0  0  0  0
   17.9676  -11.1884  -18.5361 C   0  0  0  0  0  0  0  0  0  0  0  0
   19.0555  -10.8298  -17.5509 C   0  0  1  0  0  0  0  0  0  0  0  0
   18.9854   -9.3865  -17.1552 C   0  0  0  0  0  0  0  0  0  0  0  0
   19.2038   -8.5227  -18.0123 O   0  0  0  0  0  0  0  0  0  0  0  0
   18.6779   -9.0119  -15.8362 N   0  0  0  0  0  0  0  0  0  0  0  0
   18.6287   -7.7344  -15.2258 C   0  0  1  0  0  0  0  0  0  0  0  0
   17.4533   -7.4933  -14.2968 C   0  0  0  0  0  0  0  0  0  0  0  0
   17.4621   -8.3536  -13.0885 C   0  0  0  0  0  0  0  0  0  0  0  0
   17.5332   -9.7285  -13.0899 C   0  0  0  0  0  0  0  0  0  0  0  0
   17.4577  -10.1245  -11.8170 N   0  0  0  0  0  0  0  0  0  0  0  0
   17.3434   -9.0592  -11.0269 C   0  0  0  0  0  0  0  0  0  0  0  0
   17.3458   -7.9723  -11.8032 N   0  0  0  0  0  0  0  0  0  0  0  0
   19.8617   -7.1808  -14.7127 C   0  0  0  0  0  0  0  0  0  0  0  0
   20.6579   -7.8544  -14.0083 O   0  0  0  0  0  0  0  0  0  0  0  0
   21.6775   -3.9713  -15.2440 C   0  0  0  0  0  0  0  0  0  0  0  0
   21.5140   -5.3300  -14.5536 C   0  0  2  0  0  0  0  0  0  0  0  0
   20.2309   -5.8424  -14.9844 N   0  0  0  0  0  0  0  0  0  0  0  0
   21.6232   -5.1844  -13.1069 C   0  0  0  0  0  0  0  0  0  0  0  0
   22.8516   -5.0598  -12.4888 O   0  0  0  0  0  0  0  0  0  0  0  0
   20.5935   -5.1700  -12.3959 O   0  0  0  0  0  0  0  0  0  0  0  0
  1  5  1  0
  2  1  1  0
  2  3  1  0
  4  3  1  0
  5  6  1  1
  5  4  1  0
  6  7  2  0
  6  8  1  0
  8  9  1  0
  9 16  1  0
  9 10  1  1
 10 11  1  0
 11 15  1  0
 12 11  2  0
 12 13  1  0
 13 14  1  0
 15 14  2  0
 16 20  1  0
 16 17  2  0
 19 18  1  6
 19 21  1  0
 20 19  1  0
 21 22  1  0
 23 21  2  0
M  END
$$$$
