PHA.pdb
     RDKit          3D

 23 24  0  0  1  0  0  0  0  0999 V2000
   25.4308  -12.4131  -15.8367 N   0  0  0  0  0  0  0  0  0  0  0  0
   26.1794  -13.6423  -16.1545 C   0  0  0  0  0  0  0  0  0  0  0  0
   25.1842  -14.3358  -17.0676 C   0  0  0  0  0  0  0  0  0  0  0  0
   24.5923  -13.2050  -17.8830 C   0  0  0  0  0  0  0  0  0  0  0  0
   25.0540  -11.9726  -17.1411 C   0  0  1  0  0  0  0  0  0  0  0  0
   24.0010  -10.9068  -17.1360 C   0  0  0  0  0  0  0  0  0  0  0  0
   23.6055  -10.4551  -18.2168 O   0  0  0  0  0  0  0  0  0  0  0  0
   23.4668  -10.4231  -15.9297 N   0  0  0  0  0  0  0  0  0  0  0  0
   22.4053   -9.5170  -15.6865 C   0  0  1  0  0  0  0  0  0  0  0  0
   21.1536  -10.1181  -15.0742 C   0  0  0  0  0  0  0  0  0  0  0  0
   20.7110  -11.3717  -15.7320 C   0  0  0  0  0  0  0  0  0  0  0  0
   19.9861  -11.4454  -16.9002 C   0  0  0  0  0  0  0  0  0  0  0  0
   19.7409  -12.7382  -17.1263 N   0  0  0  0  0  0  0  0  0  0  0  0
   20.2801  -13.4690  -16.1530 C   0  0  0  0  0  0  0  0  0  0  0  0
   20.8754  -12.6344  -15.2970 N   0  0  0  0  0  0  0  0  0  0  0  0
   22.7318   -8.2265  -15.1225 C   0  0  0  0  0  0  0  0  0  0  0  0
   23.3441   -8.1073  -14.0295 O   0  0  0  0  0  0  0  0  0  0  0  0
   22.4347   -4.7093  -16.3129 C   0  0  0  0  0  0  0  0  0  0  0  0
   22.7201   -5.7422  -15.2170 C   0  0  2  0  0  0  0  0  0  0  0  0
   22.3735   -7.0281  -15.7834 N   0  0  0  0  0  0  0  0  0  0  0  0
   21.9728   -5.4224  -14.0064 C   0  0  0  0  0  0  0  0  0  0  0  0
   22.4561   -4.5169  -13.0829 O   0  0  0  0  0  0  0  0  0  0  0  0
   20.8699   -5.9702  -13.7840 O   0  0  0  0  0  0  0  0  0  0  0  0
  1  5  1  0
  2  1  1  0
  2  3  1  0
  4  3  1  0
  5  6  1  1
  5  4  1  0
  6  7  2  0
  6  8  1  0
  8  9  1  0
  9 16  1  0
  9 10  1  1
 10 11  1  0
 11 15  1  0
 12 11  2  0
 12 13  1  0
 13 14  1  0
 15 14  2  0
 16 20  1  0
 16 17  2  0
 19 18  1  6
 19 21  1  0
 20 19  1  0
 21 22  1  0
 23 21  2  0
M  END
$$$$
