STS.pdb
     RDKit          3D

 20 19  0  0  1  0  0  0  0  0999 V2000
   21.0432  -10.8609  -20.9842 O   0  0  0  0  0  0  0  0  0  0  0  0
   20.4297  -10.1898  -19.9267 C   0  0  0  0  0  0  0  0  0  0  0  0
   21.3895  -10.2198  -18.7564 C   0  0  2  0  0  0  0  0  0  0  0  0
   21.5391  -11.6202  -18.3789 N   0  0  0  0  0  0  0  0  0  0  0  0
   20.8778   -9.4834  -17.5906 C   0  0  0  0  0  0  0  0  0  0  0  0
   20.2881  -10.0591  -16.6410 O   0  0  0  0  0  0  0  0  0  0  0  0
   22.9116   -7.5581  -15.5116 C   0  0  0  0  0  0  0  0  0  0  0  0
   21.4596   -7.6592  -15.1768 C   0  0  1  0  0  0  0  0  0  0  0  0
   21.1026   -6.8748  -14.0803 O   0  0  0  0  0  0  0  0  0  0  0  0
   20.5786   -7.2920  -16.3777 C   0  0  2  0  0  0  0  0  0  0  0  0
   21.0382   -8.0792  -17.5040 N   0  0  0  0  0  0  0  0  0  0  0  0
   20.8695   -5.8520  -16.6610 C   0  0  0  0  0  0  0  0  0  0  0  0
   22.0175   -5.4892  -17.0605 O   0  0  0  0  0  0  0  0  0  0  0  0
   19.2075   -1.4589  -17.4854 O   0  0  0  0  0  0  0  0  0  0  0  0
   18.9082   -2.7072  -16.9605 C   0  0  0  0  0  0  0  0  0  0  0  0
   20.2365   -3.4483  -16.8002 C   0  0  2  0  0  0  0  0  0  0  0  0
   19.9029   -4.8347  -16.5033 N   0  0  0  0  0  0  0  0  0  0  0  0
   21.0643   -2.8472  -15.7476 C   0  0  0  0  0  0  0  0  0  0  0  0
   22.1334   -2.0129  -16.0123 O   0  0  0  0  0  0  0  0  0  0  0  0
   20.7940   -3.0984  -14.5563 O   0  0  0  0  0  0  0  0  0  0  0  0
  2  1  1  0
  3  4  1  1
  3  2  1  0
  5  3  1  0
  5  6  2  0
  8  7  1  6
  8 10  1  0
  9  8  1  0
 10 11  1  6
 10 12  1  0
 11  5  1  0
 12 13  2  0
 12 17  1  0
 14 15  1  0
 16 15  1  1
 16 18  1  0
 17 16  1  0
 18 20  2  0
 18 19  1  0
M  END
$$$$
