STS.pdb
     RDKit          3D

 20 19  0  0  1  0  0  0  0  0999 V2000
   16.2745   -9.8672  -16.1262 O   0  0  0  0  0  0  0  0  0  0  0  0
   17.0638  -10.1120  -17.2496 C   0  0  0  0  0  0  0  0  0  0  0  0
   18.1794  -11.0421  -16.8228 C   0  0  2  0  0  0  0  0  0  0  0  0
   17.5399  -12.2229  -16.2546 N   0  0  0  0  0  0  0  0  0  0  0  0
   19.0431  -10.4479  -15.7911 C   0  0  0  0  0  0  0  0  0  0  0  0
   18.9035  -10.7093  -14.5692 O   0  0  0  0  0  0  0  0  0  0  0  0
   22.7724  -10.6867  -15.4352 C   0  0  0  0  0  0  0  0  0  0  0  0
   22.4103   -9.2572  -15.6721 C   0  0  1  0  0  0  0  0  0  0  0  0
   22.5454   -8.8803  -17.0081 O   0  0  0  0  0  0  0  0  0  0  0  0
   20.9846   -8.9518  -15.1954 C   0  0  2  0  0  0  0  0  0  0  0  0
   20.0749   -9.5481  -16.1526 N   0  0  0  0  0  0  0  0  0  0  0  0
   20.8456   -7.4644  -15.2788 C   0  0  0  0  0  0  0  0  0  0  0  0
   20.0561   -6.9333  -16.1175 O   0  0  0  0  0  0  0  0  0  0  0  0
   19.5439   -3.6615  -13.9344 O   0  0  0  0  0  0  0  0  0  0  0  0
   19.8297   -5.0184  -13.9533 C   0  0  0  0  0  0  0  0  0  0  0  0
   21.2720   -5.1586  -14.4424 C   0  0  2  0  0  0  0  0  0  0  0  0
   21.5705   -6.5843  -14.4457 N   0  0  0  0  0  0  0  0  0  0  0  0
   22.2036   -4.4066  -13.5931 C   0  0  0  0  0  0  0  0  0  0  0  0
   22.5628   -3.0961  -13.8432 O   0  0  0  0  0  0  0  0  0  0  0  0
   22.6969   -4.9729  -12.5974 O   0  0  0  0  0  0  0  0  0  0  0  0
  2  1  1  0
  3  4  1  1
  3  2  1  0
  5  3  1  0
  5  6  2  0
  8  7  1  6
  8 10  1  0
  9  8  1  0
 10 11  1  6
 10 12  1  0
 11  5  1  0
 12 13  2  0
 12 17  1  0
 14 15  1  0
 16 15  1  1
 16 18  1  0
 17 16  1  0
 18 20  2  0
 18 19  1  0
M  END
$$$$
