STS.pdb
     RDKit          3D

 20 19  0  0  1  0  0  0  0  0999 V2000
   26.3818  -12.7514  -15.7086 O   0  0  0  0  0  0  0  0  0  0  0  0
   25.7017  -11.6881  -16.3018 C   0  0  0  0  0  0  0  0  0  0  0  0
   24.2576  -12.1118  -16.4656 C   0  0  2  0  0  0  0  0  0  0  0  0
   24.2343  -13.0970  -17.5403 N   0  0  0  0  0  0  0  0  0  0  0  0
   23.3837  -10.9932  -16.8506 C   0  0  0  0  0  0  0  0  0  0  0  0
   23.3342  -10.5572  -18.0289 O   0  0  0  0  0  0  0  0  0  0  0  0
   19.7654  -10.6905  -16.9196 C   0  0  0  0  0  0  0  0  0  0  0  0
   20.2467   -9.7127  -15.8983 C   0  0  1  0  0  0  0  0  0  0  0  0
   20.1741  -10.2109  -14.5977 O   0  0  0  0  0  0  0  0  0  0  0  0
   21.6806   -9.2532  -16.1914 C   0  0  2  0  0  0  0  0  0  0  0  0
   22.5585  -10.3649  -15.8867 N   0  0  0  0  0  0  0  0  0  0  0  0
   21.9560   -8.1552  -15.2131 C   0  0  0  0  0  0  0  0  0  0  0  0
   22.9736   -8.2008  -14.4573 O   0  0  0  0  0  0  0  0  0  0  0  0
   23.2739   -4.1691  -14.7912 O   0  0  0  0  0  0  0  0  0  0  0  0
   22.7885   -5.3395  -15.3549 C   0  0  0  0  0  0  0  0  0  0  0  0
   21.6217   -5.7997  -14.4799 C   0  0  2  0  0  0  0  0  0  0  0  0
   21.1162   -7.0280  -15.0776 N   0  0  0  0  0  0  0  0  0  0  0  0
   20.5809   -4.7688  -14.3852 C   0  0  0  0  0  0  0  0  0  0  0  0
   20.5039   -3.8679  -13.3405 O   0  0  0  0  0  0  0  0  0  0  0  0
   19.7234   -4.6987  -15.2880 O   0  0  0  0  0  0  0  0  0  0  0  0
  2  1  1  0
  3  4  1  6
  3  2  1  0
  5  3  1  0
  5  6  2  0
  8  7  1  6
  8 10  1  0
  9  8  1  0
 10 11  1  1
 10 12  1  0
 11  5  1  0
 12 13  2  0
 12 17  1  0
 14 15  1  0
 16 15  1  6
 16 18  1  0
 17 16  1  0
 18 20  2  0
 18 19  1  0
M  END
$$$$
