STS.pdb
     RDKit          3D

 20 19  0  0  1  0  0  0  0  0999 V2000
   17.3793  -11.5802  -18.3386 O   0  0  0  0  0  0  0  0  0  0  0  0
   17.8971  -11.0521  -17.1564 C   0  0  0  0  0  0  0  0  0  0  0  0
   19.3184  -11.5560  -17.0220 C   0  0  2  0  0  0  0  0  0  0  0  0
   19.2273  -12.9867  -16.7556 N   0  0  0  0  0  0  0  0  0  0  0  0
   20.0348  -10.9262  -15.9025 C   0  0  0  0  0  0  0  0  0  0  0  0
   19.8402  -11.2656  -14.7076 O   0  0  0  0  0  0  0  0  0  0  0  0
   23.5482  -10.7621  -14.8060 C   0  0  0  0  0  0  0  0  0  0  0  0
   23.1521   -9.3925  -15.2509 C   0  0  1  0  0  0  0  0  0  0  0  0
   23.5250   -9.1236  -16.5675 O   0  0  0  0  0  0  0  0  0  0  0  0
   21.6441   -9.1627  -15.0885 C   0  0  2  0  0  0  0  0  0  0  0  0
   20.9811   -9.9011  -16.1442 N   0  0  0  0  0  0  0  0  0  0  0  0
   21.4341   -7.7017  -15.3336 C   0  0  0  0  0  0  0  0  0  0  0  0
   21.2900   -7.2566  -16.5126 O   0  0  0  0  0  0  0  0  0  0  0  0
   19.5681   -3.6640  -14.5387 O   0  0  0  0  0  0  0  0  0  0  0  0
   19.7505   -5.0070  -14.2452 C   0  0  0  0  0  0  0  0  0  0  0  0
   21.2047   -5.3389  -14.5836 C   0  0  2  0  0  0  0  0  0  0  0  0
   21.3851   -6.7537  -14.2881 N   0  0  0  0  0  0  0  0  0  0  0  0
   22.1389   -4.4981  -13.8253 C   0  0  0  0  0  0  0  0  0  0  0  0
   22.5698   -3.2617  -14.2663 O   0  0  0  0  0  0  0  0  0  0  0  0
   22.5668   -4.9151  -12.7306 O   0  0  0  0  0  0  0  0  0  0  0  0
  2  1  1  0
  3  4  1  1
  3  2  1  0
  5  3  1  0
  5  6  2  0
  8  7  1  6
  8 10  1  0
  9  8  1  0
 10 11  1  6
 10 12  1  0
 11  5  1  0
 12 13  2  0
 12 17  1  0
 14 15  1  0
 16 15  1  1
 16 18  1  0
 17 16  1  0
 18 20  2  0
 18 19  1  0
M  END
$$$$
