STS.pdb
     RDKit          3D

 20 19  0  0  1  0  0  0  0  0999 V2000
   12.4016  -12.6354  -14.9545 O   0  0  0  0  0  0  0  0  0  0  0  0
   13.2964  -11.9783  -14.1105 C   0  0  0  0  0  0  0  0  0  0  0  0
   14.6928  -12.2780  -14.6128 C   0  0  2  0  0  0  0  0  0  0  0  0
   14.9627  -13.6716  -14.2798 N   0  0  0  0  0  0  0  0  0  0  0  0
   15.7153  -11.4451  -13.9616 C   0  0  0  0  0  0  0  0  0  0  0  0
   15.9512  -11.5164  -12.7287 O   0  0  0  0  0  0  0  0  0  0  0  0
   19.2794  -11.3938  -14.0637 C   0  0  0  0  0  0  0  0  0  0  0  0
   18.8424  -10.1086  -14.6866 C   0  0  1  0  0  0  0  0  0  0  0  0
   18.7888  -10.1742  -16.0786 O   0  0  0  0  0  0  0  0  0  0  0  0
   17.4821   -9.6539  -14.1424 C   0  0  2  0  0  0  0  0  0  0  0  0
   16.4766  -10.5228  -14.7197 N   0  0  0  0  0  0  0  0  0  0  0  0
   17.2769   -8.2739  -14.6828 C   0  0  0  0  0  0  0  0  0  0  0  0
   16.8498   -8.0973  -15.8640 O   0  0  0  0  0  0  0  0  0  0  0  0
   16.8274   -5.0904  -12.3690 O   0  0  0  0  0  0  0  0  0  0  0  0
   16.3851   -5.0318  -13.6821 C   0  0  0  0  0  0  0  0  0  0  0  0
   17.4084   -5.7927  -14.5266 C   0  0  2  0  0  0  0  0  0  0  0  0
   17.5415   -7.1124  -13.9245 N   0  0  0  0  0  0  0  0  0  0  0  0
   18.6931   -5.0847  -14.5823 C   0  0  0  0  0  0  0  0  0  0  0  0
   18.8532   -3.8594  -15.2002 O   0  0  0  0  0  0  0  0  0  0  0  0
   19.6901   -5.6099  -14.0479 O   0  0  0  0  0  0  0  0  0  0  0  0
  2  1  1  0
  3  4  1  1
  3  2  1  0
  5  3  1  0
  5  6  2  0
  8  7  1  1
  8 10  1  0
  9  8  1  0
 10 11  1  6
 10 12  1  0
 11  5  1  0
 12 13  2  0
 12 17  1  0
 14 15  1  0
 16 15  1  1
 16 18  1  0
 17 16  1  0
 18 20  2  0
 18 19  1  0
M  END
$$$$
