STS.pdb
     RDKit          3D

 20 19  0  0  1  0  0  0  0  0999 V2000
   19.3879  -12.8352  -17.0916 O   0  0  0  0  0  0  0  0  0  0  0  0
   18.5465  -11.7234  -17.1212 C   0  0  0  0  0  0  0  0  0  0  0  0
   17.9427  -11.5782  -15.7405 C   0  0  2  0  0  0  0  0  0  0  0  0
   16.6566  -12.2643  -15.7765 N   0  0  0  0  0  0  0  0  0  0  0  0
   17.7024  -10.1735  -15.3768 C   0  0  0  0  0  0  0  0  0  0  0  0
   16.7641   -9.5032  -15.8780 O   0  0  0  0  0  0  0  0  0  0  0  0
   16.6163   -8.7046  -12.2867 C   0  0  0  0  0  0  0  0  0  0  0  0
   17.9970   -8.1836  -12.5166 C   0  0  1  0  0  0  0  0  0  0  0  0
   18.9690   -8.9075  -11.8266 O   0  0  0  0  0  0  0  0  0  0  0  0
   18.3452   -8.1531  -14.0103 C   0  0  2  0  0  0  0  0  0  0  0  0
   18.5371   -9.5251  -14.4345 N   0  0  0  0  0  0  0  0  0  0  0  0
   19.6604   -7.4454  -14.0994 C   0  0  0  0  0  0  0  0  0  0  0  0
   20.7480   -8.0982  -14.1120 O   0  0  0  0  0  0  0  0  0  0  0  0
   19.8542   -3.4125  -14.1749 O   0  0  0  0  0  0  0  0  0  0  0  0
   20.7356   -4.0343  -15.0466 C   0  0  0  0  0  0  0  0  0  0  0  0
   21.0477   -5.4086  -14.4524 C   0  0  2  0  0  0  0  0  0  0  0  0
   19.7648   -6.0391  -14.1730 N   0  0  0  0  0  0  0  0  0  0  0  0
   21.8769   -5.2975  -13.2462 C   0  0  0  0  0  0  0  0  0  0  0  0
   21.4458   -5.6944  -11.9950 O   0  0  0  0  0  0  0  0  0  0  0  0
   23.0255   -4.8229  -13.3505 O   0  0  0  0  0  0  0  0  0  0  0  0
  2  1  1  0
  3  4  1  6
  3  2  1  0
  5  3  1  0
  5  6  2  0
  8  7  1  6
  8 10  1  0
  9  8  1  0
 10 11  1  1
 10 12  1  0
 11  5  1  0
 12 13  2  0
 12 17  1  0
 14 15  1  0
 16 15  1  1
 16 18  1  0
 17 16  1  0
 18 20  2  0
 18 19  1  0
M  END
$$$$
