STS.pdb
     RDKit          3D

 20 19  0  0  1  0  0  0  0  0999 V2000
   17.9410  -13.8598  -15.6584 O   0  0  0  0  0  0  0  0  0  0  0  0
   18.0599  -12.4954  -15.9215 C   0  0  0  0  0  0  0  0  0  0  0  0
   17.1862  -11.7660  -14.9233 C   0  0  2  0  0  0  0  0  0  0  0  0
   15.8083  -12.1213  -15.2413 N   0  0  0  0  0  0  0  0  0  0  0  0
   17.3173  -10.3045  -15.0239 C   0  0  0  0  0  0  0  0  0  0  0  0
   16.7024   -9.6354  -15.8929 O   0  0  0  0  0  0  0  0  0  0  0  0
   16.1718   -7.8615  -12.7187 C   0  0  0  0  0  0  0  0  0  0  0  0
   17.6556   -7.6938  -12.7510 C   0  0  1  0  0  0  0  0  0  0  0  0
   18.2972   -8.3615  -11.7082 O   0  0  0  0  0  0  0  0  0  0  0  0
   18.2443   -8.1518  -14.0915 C   0  0  2  0  0  0  0  0  0  0  0  0
   18.1553   -9.5976  -14.1278 N   0  0  0  0  0  0  0  0  0  0  0  0
   19.6904   -7.7711  -14.0435 C   0  0  0  0  0  0  0  0  0  0  0  0
   20.5647   -8.5963  -13.6390 O   0  0  0  0  0  0  0  0  0  0  0  0
   21.8579   -6.7634  -16.7109 O   0  0  0  0  0  0  0  0  0  0  0  0
   21.9028   -5.6761  -15.8513 C   0  0  0  0  0  0  0  0  0  0  0  0
   21.5828   -6.2061  -14.4527 C   0  0  2  0  0  0  0  0  0  0  0  0
   20.1557   -6.4975  -14.4377 N   0  0  0  0  0  0  0  0  0  0  0  0
   21.9546   -5.2391  -13.4129 C   0  0  0  0  0  0  0  0  0  0  0  0
   23.2594   -5.0280  -13.0104 O   0  0  0  0  0  0  0  0  0  0  0  0
   21.0538   -4.5740  -12.8637 O   0  0  0  0  0  0  0  0  0  0  0  0
  2  1  1  0
  3  4  1  6
  3  2  1  0
  5  3  1  0
  5  6  2  0
  8  7  1  6
  8 10  1  0
  9  8  1  0
 10 11  1  1
 10 12  1  0
 11  5  1  0
 12 13  2  0
 12 17  1  0
 14 15  1  0
 16 15  1  6
 16 18  1  0
 17 16  1  0
 18 20  2  0
 18 19  1  0
M  END
$$$$
