STS.pdb
     RDKit          3D

 20 19  0  0  1  0  0  0  0  0999 V2000
   15.0461  -12.9647  -15.3025 O   0  0  0  0  0  0  0  0  0  0  0  0
   15.6645  -11.8945  -15.9484 C   0  0  0  0  0  0  0  0  0  0  0  0
   16.7371  -11.3663  -15.0197 C   0  0  2  0  0  0  0  0  0  0  0  0
   16.0544  -10.9131  -13.8136 N   0  0  0  0  0  0  0  0  0  0  0  0
   17.4632  -10.2225  -15.5922 C   0  0  0  0  0  0  0  0  0  0  0  0
   18.1669  -10.3272  -16.6288 O   0  0  0  0  0  0  0  0  0  0  0  0
   15.7462   -7.0173  -16.6111 C   0  0  0  0  0  0  0  0  0  0  0  0
   16.7818   -6.7029  -15.5818 C   0  0  1  0  0  0  0  0  0  0  0  0
   16.2508   -6.5975  -14.2965 O   0  0  0  0  0  0  0  0  0  0  0  0
   17.9118   -7.7403  -15.5857 C   0  0  2  0  0  0  0  0  0  0  0  0
   17.3881   -8.9479  -14.9801 N   0  0  0  0  0  0  0  0  0  0  0  0
   18.9686   -7.1832  -14.6849 C   0  0  0  0  0  0  0  0  0  0  0  0
   19.0445   -7.5474  -13.4723 O   0  0  0  0  0  0  0  0  0  0  0  0
   23.3038   -6.0383  -13.9296 O   0  0  0  0  0  0  0  0  0  0  0  0
   22.2593   -6.5293  -14.6984 C   0  0  0  0  0  0  0  0  0  0  0  0
   20.9935   -5.8060  -14.2363 C   0  0  2  0  0  0  0  0  0  0  0  0
   19.9227   -6.2392  -15.1238 N   0  0  0  0  0  0  0  0  0  0  0  0
   21.1676   -4.3486  -14.2599 C   0  0  0  0  0  0  0  0  0  0  0  0
   21.8046   -3.6483  -13.2535 O   0  0  0  0  0  0  0  0  0  0  0  0
   20.7213   -3.7077  -15.2322 O   0  0  0  0  0  0  0  0  0  0  0  0
  2  1  1  0
  3  4  1  1
  3  2  1  0
  5  3  1  0
  5  6  2  0
  8  7  1  6
  8 10  1  0
  9  8  1  0
 10 11  1  1
 10 12  1  0
 11  5  1  0
 12 13  2  0
 12 17  1  0
 14 15  1  0
 16 15  1  6
 16 18  1  0
 17 16  1  0
 18 20  2  0
 18 19  1  0
M  END
$$$$
