PCM.pdb
     RDKit          3D

 22 22  0  0  1  0  0  0  0  0999 V2000
   16.7785  -10.3026  -14.9174 N   0  0  0  0  0  0  0  0  0  0  0  0
   16.7695  -11.5584  -15.6924 C   0  0  0  0  0  0  0  0  0  0  0  0
   17.4573  -12.4541  -14.6493 C   0  0  0  0  0  0  0  0  0  0  0  0
   16.5528  -12.1653  -13.4440 C   0  0  0  0  0  0  0  0  0  0  0  0
   16.1632  -10.7335  -13.6705 C   0  0  1  0  0  0  0  0  0  0  0  0
   16.5629   -9.8633  -12.5385 C   0  0  0  0  0  0  0  0  0  0  0  0
   16.0497  -10.1682  -11.4101 O   0  0  0  0  0  0  0  0  0  0  0  0
   17.4306   -8.7672  -12.6010 N   0  0  0  0  0  0  0  0  0  0  0  0
   17.7378   -7.9016  -11.4856 C   0  0  1  0  0  0  0  0  0  0  0  0
   18.9816   -7.0668  -11.7690 C   0  0  0  0  0  0  0  0  0  0  0  0
   20.4190   -8.0994  -12.0932 S   0  0  0  0  0  0  0  0  0  0  0  0
   16.6133   -7.0630  -11.0508 C   0  0  0  0  0  0  0  0  0  0  0  0
   15.8520   -6.4572  -11.8703 O   0  0  0  0  0  0  0  0  0  0  0  0
   12.5289   -9.0349   -6.7263 C   0  0  0  0  0  0  0  0  0  0  0  0
   12.0327   -7.3561   -7.0286 S   0  0  0  0  0  0  0  0  0  0  0  0
   13.3102   -6.2333   -7.5760 C   0  0  0  0  0  0  0  0  0  0  0  0
   14.4189   -6.9108   -8.2976 C   0  0  0  0  0  0  0  0  0  0  0  0
   15.2543   -6.0736   -9.1822 C   0  0  2  0  0  0  0  0  0  0  0  0
   16.3628   -6.9197   -9.6738 N   0  0  0  0  0  0  0  0  0  0  0  0
   15.8369   -4.9301   -8.4696 C   0  0  0  0  0  0  0  0  0  0  0  0
   15.2030   -3.7310   -8.2638 O   0  0  0  0  0  0  0  0  0  0  0  0
   17.0179   -5.0177   -7.9896 O   0  0  0  0  0  0  0  0  0  0  0  0
  2  1  1  0
  3  2  1  0
  4  3  1  0
  4  5  1  0
  5  1  1  0
  5  6  1  1
  6  8  1  0
  7  6  2  0
  9  8  1  0
  9 12  1  0
  9 10  1  6
 11 10  1  0
 12 19  1  0
 13 12  2  0
 14 15  1  0
 16 15  1  0
 17 16  1  0
 18 20  1  0
 18 17  1  1
 19 18  1  0
 20 21  1  0
 22 20  2  0
M  END
$$$$
