PCM.pdb
     RDKit          3D

 22 22  0  0  1  0  0  0  0  0999 V2000
   24.9692  -12.8288  -19.7496 N   0  0  0  0  0  0  0  0  0  0  0  0
   24.7085  -14.1988  -20.2321 C   0  0  0  0  0  0  0  0  0  0  0  0
   24.0737  -14.7567  -18.9480 C   0  0  0  0  0  0  0  0  0  0  0  0
   22.9942  -13.6894  -18.7247 C   0  0  0  0  0  0  0  0  0  0  0  0
   23.6558  -12.4486  -19.2499 C   0  0  1  0  0  0  0  0  0  0  0  0
   23.7537  -11.3909  -18.2154 C   0  0  0  0  0  0  0  0  0  0  0  0
   22.6389  -10.9894  -17.7405 O   0  0  0  0  0  0  0  0  0  0  0  0
   24.9316  -10.8123  -17.7294 N   0  0  0  0  0  0  0  0  0  0  0  0
   24.9794   -9.7619  -16.7385 C   0  0  1  0  0  0  0  0  0  0  0  0
   26.4110   -9.5101  -16.2786 C   0  0  0  0  0  0  0  0  0  0  0  0
   27.1584  -10.9909  -15.5815 S   0  0  0  0  0  0  0  0  0  0  0  0
   24.3195   -8.5170  -17.1529 C   0  0  0  0  0  0  0  0  0  0  0  0
   24.4293   -8.0402  -18.3271 O   0  0  0  0  0  0  0  0  0  0  0  0
   18.4817   -5.6482  -20.0592 C   0  0  0  0  0  0  0  0  0  0  0  0
   19.7575   -6.7347  -19.4693 S   0  0  0  0  0  0  0  0  0  0  0  0
   20.7938   -6.1084  -18.1556 C   0  0  0  0  0  0  0  0  0  0  0  0
   21.8151   -7.0853  -17.6957 C   0  0  0  0  0  0  0  0  0  0  0  0
   22.7278   -6.6460  -16.6208 C   0  0  2  0  0  0  0  0  0  0  0  0
   23.5332   -7.8190  -16.2182 N   0  0  0  0  0  0  0  0  0  0  0  0
   21.9985   -6.1685  -15.4398 C   0  0  0  0  0  0  0  0  0  0  0  0
   21.4760   -4.9078  -15.2997 O   0  0  0  0  0  0  0  0  0  0  0  0
   21.8144   -6.9537  -14.4486 O   0  0  0  0  0  0  0  0  0  0  0  0
  2  1  1  0
  3  2  1  0
  4  3  1  0
  4  5  1  0
  5  1  1  0
  5  6  1  1
  6  8  1  0
  7  6  2  0
  9  8  1  0
  9 12  1  0
  9 10  1  6
 11 10  1  0
 12 19  1  0
 13 12  2  0
 14 15  1  0
 16 15  1  0
 17 16  1  0
 18 20  1  0
 18 17  1  6
 19 18  1  0
 20 21  1  0
 22 20  2  0
M  END
$$$$
