PCM.pdb
     RDKit          3D

 22 22  0  0  1  0  0  0  0  0999 V2000
   20.6197  -12.3843  -17.2972 N   0  0  0  0  0  0  0  0  0  0  0  0
   20.1033  -12.9278  -18.5683 C   0  0  0  0  0  0  0  0  0  0  0  0
   20.6047  -11.8082  -19.4948 C   0  0  0  0  0  0  0  0  0  0  0  0
   22.0838  -11.7966  -19.0868 C   0  0  0  0  0  0  0  0  0  0  0  0
   22.0185  -12.1590  -17.6316 C   0  0  1  0  0  0  0  0  0  0  0  0
   22.6209  -11.1127  -16.7710 C   0  0  0  0  0  0  0  0  0  0  0  0
   22.1953  -11.0862  -15.5678 O   0  0  0  0  0  0  0  0  0  0  0  0
   23.5892  -10.1783  -17.1555 N   0  0  0  0  0  0  0  0  0  0  0  0
   24.1352   -9.1608  -16.2872 C   0  0  1  0  0  0  0  0  0  0  0  0
   25.6590   -9.2079  -16.2819 C   0  0  0  0  0  0  0  0  0  0  0  0
   26.2826  -10.5167  -15.2162 S   0  0  0  0  0  0  0  0  0  0  0  0
   23.6387   -7.8068  -16.5650 C   0  0  0  0  0  0  0  0  0  0  0  0
   23.6448   -7.2997  -17.7316 O   0  0  0  0  0  0  0  0  0  0  0  0
   18.3937   -6.1108  -18.3285 C   0  0  0  0  0  0  0  0  0  0  0  0
   18.5412   -5.2303  -16.7926 S   0  0  0  0  0  0  0  0  0  0  0  0
   20.1969   -4.8041  -16.2736 C   0  0  0  0  0  0  0  0  0  0  0  0
   21.0719   -5.9878  -16.0686 C   0  0  0  0  0  0  0  0  0  0  0  0
   22.4894   -5.7268  -15.7466 C   0  0  2  0  0  0  0  0  0  0  0  0
   23.1351   -7.0344  -15.5024 N   0  0  0  0  0  0  0  0  0  0  0  0
   22.6380   -4.9130  -14.5339 C   0  0  0  0  0  0  0  0  0  0  0  0
   22.3786   -3.5681  -14.4575 O   0  0  0  0  0  0  0  0  0  0  0  0
   23.0346   -5.4595  -13.4490 O   0  0  0  0  0  0  0  0  0  0  0  0
  2  1  1  0
  3  2  1  0
  4  3  1  0
  4  5  1  0
  5  1  1  0
  5  6  1  1
  6  8  1  0
  7  6  2  0
  9  8  1  0
  9 12  1  0
  9 10  1  6
 11 10  1  0
 12 19  1  0
 13 12  2  0
 14 15  1  0
 16 15  1  0
 17 16  1  0
 18 20  1  0
 18 17  1  1
 19 18  1  0
 20 21  1  0
 22 20  2  0
M  END
$$$$
