PCM.pdb
     RDKit          3D

 22 22  0  0  1  0  0  0  0  0999 V2000
   15.6781  -10.4132  -12.5812 N   0  0  0  0  0  0  0  0  0  0  0  0
   15.1664  -11.7863  -12.7557 C   0  0  0  0  0  0  0  0  0  0  0  0
   15.1090  -12.1796  -11.2706 C   0  0  0  0  0  0  0  0  0  0  0  0
   14.2837  -11.0014  -10.7369 C   0  0  0  0  0  0  0  0  0  0  0  0
   14.7231   -9.8733  -11.6243 C   0  0  1  0  0  0  0  0  0  0  0  0
   15.3059   -8.7515  -10.8494 C   0  0  0  0  0  0  0  0  0  0  0  0
   14.5328   -8.2346   -9.9751 O   0  0  0  0  0  0  0  0  0  0  0  0
   16.5954   -8.2268  -10.9916 N   0  0  0  0  0  0  0  0  0  0  0  0
   17.1130   -7.1104  -10.2344 C   0  0  1  0  0  0  0  0  0  0  0  0
   18.5651   -6.8275  -10.6027 C   0  0  0  0  0  0  0  0  0  0  0  0
   19.6143   -8.2641  -10.3329 S   0  0  0  0  0  0  0  0  0  0  0  0
   16.2896   -5.8972  -10.3173 C   0  0  0  0  0  0  0  0  0  0  0  0
   15.8757   -5.4230  -11.4227 O   0  0  0  0  0  0  0  0  0  0  0  0
   12.7892   -4.1086   -4.8693 C   0  0  0  0  0  0  0  0  0  0  0  0
   12.0581   -3.4443   -6.3459 S   0  0  0  0  0  0  0  0  0  0  0  0
   13.1679   -3.1157   -7.7070 C   0  0  0  0  0  0  0  0  0  0  0  0
   14.0903   -4.2438   -7.9992 C   0  0  0  0  0  0  0  0  0  0  0  0
   15.0086   -4.0805   -9.1443 C   0  0  2  0  0  0  0  0  0  0  0  0
   15.9413   -5.2277   -9.1299 N   0  0  0  0  0  0  0  0  0  0  0  0
   15.8012   -2.8490   -9.0436 C   0  0  0  0  0  0  0  0  0  0  0  0
   15.3683   -1.6061   -9.4304 O   0  0  0  0  0  0  0  0  0  0  0  0
   16.9852   -2.8951   -8.5652 O   0  0  0  0  0  0  0  0  0  0  0  0
  2  1  1  0
  3  2  1  0
  4  3  1  0
  4  5  1  0
  5  1  1  0
  5  6  1  1
  6  8  1  0
  7  6  2  0
  9  8  1  0
  9 12  1  0
  9 10  1  6
 11 10  1  0
 12 19  1  0
 13 12  2  0
 14 15  1  0
 16 15  1  0
 17 16  1  0
 18 20  1  0
 18 17  1  1
 19 18  1  0
 20 21  1  0
 22 20  2  0
M  END
$$$$
