PCM.pdb
     RDKit          3D

 22 22  0  0  1  0  0  0  0  0999 V2000
   24.2807  -19.0582  -17.1166 N   0  0  0  0  0  0  0  0  0  0  0  0
   23.9440  -19.0624  -18.5534 C   0  0  0  0  0  0  0  0  0  0  0  0
   24.3492  -20.5133  -18.8600 C   0  0  0  0  0  0  0  0  0  0  0  0
   23.5391  -21.2292  -17.7712 C   0  0  0  0  0  0  0  0  0  0  0  0
   23.5540  -20.2304  -16.6507 C   0  0  1  0  0  0  0  0  0  0  0  0
   24.1576  -20.7886  -15.4168 C   0  0  0  0  0  0  0  0  0  0  0  0
   23.4233  -21.6140  -14.7772 O   0  0  0  0  0  0  0  0  0  0  0  0
   25.4281  -20.4954  -14.9089 N   0  0  0  0  0  0  0  0  0  0  0  0
   25.9597  -21.0282  -13.6755 C   0  0  1  0  0  0  0  0  0  0  0  0
   27.4675  -21.2310  -13.7735 C   0  0  0  0  0  0  0  0  0  0  0  0
   28.1963  -21.6041  -12.1713 S   0  0  0  0  0  0  0  0  0  0  0  0
   25.5964  -20.2528  -12.4823 C   0  0  0  0  0  0  0  0  0  0  0  0
   25.8133  -19.0033  -12.3838 O   0  0  0  0  0  0  0  0  0  0  0  0
   21.3401  -22.8082   -8.2669 C   0  0  0  0  0  0  0  0  0  0  0  0
   21.8901  -21.3723   -7.3771 S   0  0  0  0  0  0  0  0  0  0  0  0
   23.2719  -20.4815   -8.0767 C   0  0  0  0  0  0  0  0  0  0  0  0
   23.5914  -20.8911   -9.4691 C   0  0  0  0  0  0  0  0  0  0  0  0
   24.7288  -20.2135  -10.1237 C   0  0  2  0  0  0  0  0  0  0  0  0
   24.9839  -20.9128  -11.4013 N   0  0  0  0  0  0  0  0  0  0  0  0
   25.9517  -20.2842   -9.3148 C   0  0  0  0  0  0  0  0  0  0  0  0
   26.8512  -21.3195   -9.3453 O   0  0  0  0  0  0  0  0  0  0  0  0
   26.2361  -19.3316   -8.5120 O   0  0  0  0  0  0  0  0  0  0  0  0
  2  1  1  0
  3  2  1  0
  4  3  1  0
  4  5  1  0
  5  1  1  0
  5  6  1  1
  6  8  1  0
  7  6  2  0
  9  8  1  0
  9 12  1  0
  9 10  1  6
 11 10  1  0
 12 19  1  0
 13 12  2  0
 14 15  1  0
 16 15  1  0
 17 16  1  0
 18 20  1  0
 18 17  1  1
 19 18  1  0
 20 21  1  0
 22 20  2  0
M  END
$$$$
