PCM.pdb
     RDKit          3D

 22 22  0  0  1  0  0  0  0  0999 V2000
   20.0062  -11.8163  -18.5792 N   0  0  0  0  0  0  0  0  0  0  0  0
   19.2211  -12.9358  -19.1342 C   0  0  0  0  0  0  0  0  0  0  0  0
   18.5055  -13.3531  -17.8392 C   0  0  0  0  0  0  0  0  0  0  0  0
   17.9213  -11.9936  -17.4332 C   0  0  0  0  0  0  0  0  0  0  0  0
   18.9654  -11.0349  -17.9269 C   0  0  1  0  0  0  0  0  0  0  0  0
   19.5176  -10.2022  -16.8313 C   0  0  0  0  0  0  0  0  0  0  0  0
   18.6925   -9.3866  -16.2990 O   0  0  0  0  0  0  0  0  0  0  0  0
   20.8295  -10.2343  -16.3455 N   0  0  0  0  0  0  0  0  0  0  0  0
   21.3425   -9.3611  -15.3150 C   0  0  1  0  0  0  0  0  0  0  0  0
   22.4920  -10.0214  -14.5623 C   0  0  0  0  0  0  0  0  0  0  0  0
   23.8755  -10.3944  -15.6505 S   0  0  0  0  0  0  0  0  0  0  0  0
   21.7098   -8.0218  -15.7929 C   0  0  0  0  0  0  0  0  0  0  0  0
   22.2570   -7.8231  -16.9239 O   0  0  0  0  0  0  0  0  0  0  0  0
   17.9368   -2.5428  -16.2162 C   0  0  0  0  0  0  0  0  0  0  0  0
   19.2958   -2.9186  -17.2970 S   0  0  0  0  0  0  0  0  0  0  0  0
   20.7806   -3.5427  -16.5237 C   0  0  0  0  0  0  0  0  0  0  0  0
   20.6729   -4.9650  -16.1062 C   0  0  0  0  0  0  0  0  0  0  0  0
   21.8281   -5.5436  -15.3906 C   0  0  2  0  0  0  0  0  0  0  0  0
   21.4489   -6.9099  -14.9713 N   0  0  0  0  0  0  0  0  0  0  0  0
   22.1702   -4.7771  -14.1863 C   0  0  0  0  0  0  0  0  0  0  0  0
   21.9857   -5.2171  -12.9001 O   0  0  0  0  0  0  0  0  0  0  0  0
   22.6804   -3.6112  -14.3012 O   0  0  0  0  0  0  0  0  0  0  0  0
  2  1  1  0
  3  2  1  0
  4  3  1  0
  4  5  1  0
  5  1  1  0
  5  6  1  1
  6  8  1  0
  7  6  2  0
  9  8  1  0
  9 12  1  0
  9 10  1  6
 11 10  1  0
 12 19  1  0
 13 12  2  0
 14 15  1  0
 16 15  1  0
 17 16  1  0
 18 20  1  0
 18 17  1  1
 19 18  1  0
 20 21  1  0
 22 20  2  0
M  END
$$$$
