PCM.pdb
     RDKit          3D

 22 22  0  0  1  0  0  0  0  0999 V2000
   17.9685  -14.1191  -17.9988 N   0  0  0  0  0  0  0  0  0  0  0  0
   17.5807  -15.3001  -18.7941 C   0  0  0  0  0  0  0  0  0  0  0  0
   16.7048  -14.5774  -19.8304 C   0  0  0  0  0  0  0  0  0  0  0  0
   17.7019  -13.5050  -20.2886 C   0  0  0  0  0  0  0  0  0  0  0  0
   18.4816  -13.2345  -19.0348 C   0  0  1  0  0  0  0  0  0  0  0  0
   18.3981  -11.8121  -18.6247 C   0  0  0  0  0  0  0  0  0  0  0  0
   19.0238  -10.9915  -19.3762 O   0  0  0  0  0  0  0  0  0  0  0  0
   17.7108  -11.3076  -17.5150 N   0  0  0  0  0  0  0  0  0  0  0  0
   17.7202   -9.9217  -17.1068 C   0  0  1  0  0  0  0  0  0  0  0  0
   16.3244   -9.4629  -16.7002 C   0  0  0  0  0  0  0  0  0  0  0  0
   15.2035   -9.4083  -18.1067 S   0  0  0  0  0  0  0  0  0  0  0  0
   18.7135   -9.6090  -16.0712 C   0  0  0  0  0  0  0  0  0  0  0  0
   18.9585  -10.3900  -15.0974 O   0  0  0  0  0  0  0  0  0  0  0  0
   23.8194  -11.9006  -14.0522 C   0  0  0  0  0  0  0  0  0  0  0  0
   23.9572  -10.5170  -15.1581 S   0  0  0  0  0  0  0  0  0  0  0  0
   22.8810   -9.1278  -14.8351 C   0  0  0  0  0  0  0  0  0  0  0  0
   21.5949   -9.1955  -15.5768 C   0  0  0  0  0  0  0  0  0  0  0  0
   20.5998   -8.1420  -15.2920 C   0  0  2  0  0  0  0  0  0  0  0  0
   19.4257   -8.3985  -16.1536 N   0  0  0  0  0  0  0  0  0  0  0  0
   21.1104   -6.8022  -15.6068 C   0  0  0  0  0  0  0  0  0  0  0  0
   21.8423   -6.0221  -14.7480 O   0  0  0  0  0  0  0  0  0  0  0  0
   20.8791   -6.2896  -16.7543 O   0  0  0  0  0  0  0  0  0  0  0  0
  2  1  1  0
  3  2  1  0
  4  3  1  0
  4  5  1  0
  5  1  1  0
  5  6  1  1
  6  8  1  0
  7  6  2  0
  9  8  1  0
  9 12  1  0
  9 10  1  1
 11 10  1  0
 12 19  1  0
 13 12  2  0
 14 15  1  0
 16 15  1  0
 17 16  1  0
 18 20  1  0
 18 17  1  6
 19 18  1  0
 20 21  1  0
 22 20  2  0
M  END
$$$$
