PCM.pdb
     RDKit          3D

 22 22  0  0  1  0  0  0  0  0999 V2000
   27.4728  -21.4622  -15.7392 N   0  0  0  0  0  0  0  0  0  0  0  0
   27.7323  -21.3474  -17.1874 C   0  0  0  0  0  0  0  0  0  0  0  0
   27.0597  -19.9837  -17.4140 C   0  0  0  0  0  0  0  0  0  0  0  0
   27.7813  -19.1716  -16.3305 C   0  0  0  0  0  0  0  0  0  0  0  0
   28.0003  -20.1950  -15.2544 C   0  0  1  0  0  0  0  0  0  0  0  0
   27.3680  -19.7980  -13.9734 C   0  0  0  0  0  0  0  0  0  0  0  0
   27.7958  -18.7053  -13.4710 O   0  0  0  0  0  0  0  0  0  0  0  0
   26.3702  -20.5003  -13.2881 N   0  0  0  0  0  0  0  0  0  0  0  0
   25.6775  -20.0074  -12.1198 C   0  0  1  0  0  0  0  0  0  0  0  0
   24.1722  -19.9612  -12.3567 C   0  0  0  0  0  0  0  0  0  0  0  0
   23.4796  -21.6078  -12.5725 S   0  0  0  0  0  0  0  0  0  0  0  0
   26.0066  -20.7249  -10.8814 C   0  0  0  0  0  0  0  0  0  0  0  0
   26.3016  -21.9622  -10.8629 O   0  0  0  0  0  0  0  0  0  0  0  0
   29.1800  -19.7078   -3.8021 C   0  0  0  0  0  0  0  0  0  0  0  0
   28.3533  -19.0743   -5.2413 S   0  0  0  0  0  0  0  0  0  0  0  0
   27.3346  -20.2283   -6.1485 C   0  0  0  0  0  0  0  0  0  0  0  0
   27.0735  -19.8068   -7.5496 C   0  0  0  0  0  0  0  0  0  0  0  0
   26.2517  -20.7104   -8.3800 C   0  0  2  0  0  0  0  0  0  0  0  0
   25.9966  -20.0213   -9.6631 N   0  0  0  0  0  0  0  0  0  0  0  0
   24.9557  -21.0049   -7.7567 C   0  0  0  0  0  0  0  0  0  0  0  0
   24.7772  -21.8290   -6.6746 O   0  0  0  0  0  0  0  0  0  0  0  0
   23.8921  -20.4742   -8.2256 O   0  0  0  0  0  0  0  0  0  0  0  0
  2  1  1  0
  3  2  1  0
  4  3  1  0
  4  5  1  0
  5  1  1  0
  5  6  1  1
  6  8  1  0
  7  6  2  0
  9  8  1  0
  9 12  1  0
  9 10  1  6
 11 10  1  0
 12 19  1  0
 13 12  2  0
 14 15  1  0
 16 15  1  0
 17 16  1  0
 18 20  1  0
 18 17  1  1
 19 18  1  0
 20 21  1  0
 22 20  2  0
M  END
$$$$
