PCM.pdb
     RDKit          3D

 22 22  0  0  1  0  0  0  0  0999 V2000
   29.2802  -10.0796  -20.9538 N   0  0  0  0  0  0  0  0  0  0  0  0
   28.4294  -11.2406  -21.2791 C   0  0  0  0  0  0  0  0  0  0  0  0
   27.5803  -11.2447  -19.9975 C   0  0  0  0  0  0  0  0  0  0  0  0
   27.1083   -9.7849  -20.0117 C   0  0  0  0  0  0  0  0  0  0  0  0
   28.2782   -9.0749  -20.6285 C   0  0  1  0  0  0  0  0  0  0  0  0
   28.8285   -8.0292  -19.7329 C   0  0  0  0  0  0  0  0  0  0  0  0
   28.0114   -7.1022  -19.4124 O   0  0  0  0  0  0  0  0  0  0  0  0
   30.1308   -7.9743  -19.2237 N   0  0  0  0  0  0  0  0  0  0  0  0
   30.6264   -6.9328  -18.3535 C   0  0  1  0  0  0  0  0  0  0  0  0
   31.8759   -7.3913  -17.6101 C   0  0  0  0  0  0  0  0  0  0  0  0
   31.5483   -8.8266  -16.5757 S   0  0  0  0  0  0  0  0  0  0  0  0
   30.8404   -5.6437  -19.0238 C   0  0  0  0  0  0  0  0  0  0  0  0
   31.4519   -5.5411  -20.1346 O   0  0  0  0  0  0  0  0  0  0  0  0
   26.3906   -0.5841  -18.7312 C   0  0  0  0  0  0  0  0  0  0  0  0
   27.3804   -0.7279  -20.1994 S   0  0  0  0  0  0  0  0  0  0  0  0
   29.0613   -1.2909  -19.9759 C   0  0  0  0  0  0  0  0  0  0  0  0
   29.1541   -2.6143  -19.3059 C   0  0  0  0  0  0  0  0  0  0  0  0
   30.5087   -3.1527  -19.0682 C   0  0  2  0  0  0  0  0  0  0  0  0
   30.3522   -4.4715  -18.4181 N   0  0  0  0  0  0  0  0  0  0  0  0
   31.2931   -2.2945  -18.1722 C   0  0  0  0  0  0  0  0  0  0  0  0
   32.0030   -1.1900  -18.5697 O   0  0  0  0  0  0  0  0  0  0  0  0
   31.3433   -2.5607  -16.9234 O   0  0  0  0  0  0  0  0  0  0  0  0
  2  1  1  0
  3  2  1  0
  4  3  1  0
  4  5  1  0
  5  1  1  0
  5  6  1  1
  6  8  1  0
  7  6  2  0
  9  8  1  0
  9 12  1  0
  9 10  1  6
 11 10  1  0
 12 19  1  0
 13 12  2  0
 14 15  1  0
 16 15  1  0
 17 16  1  0
 18 20  1  0
 18 17  1  1
 19 18  1  0
 20 21  1  0
 22 20  2  0
M  END
$$$$
