PCM.pdb
     RDKit          3D

 22 22  0  0  1  0  0  0  0  0999 V2000
   24.2282  -14.5396  -19.5068 N   0  0  0  0  0  0  0  0  0  0  0  0
   23.6921  -15.8890  -19.7703 C   0  0  0  0  0  0  0  0  0  0  0  0
   23.0863  -16.1494  -18.3816 C   0  0  0  0  0  0  0  0  0  0  0  0
   22.2324  -14.8819  -18.2454 C   0  0  0  0  0  0  0  0  0  0  0  0
   23.0501  -13.8627  -18.9841 C   0  0  1  0  0  0  0  0  0  0  0  0
   23.4212  -12.7161  -18.1203 C   0  0  0  0  0  0  0  0  0  0  0  0
   22.4405  -12.0331  -17.6717 O   0  0  0  0  0  0  0  0  0  0  0  0
   24.7188  -12.3307  -17.7653 N   0  0  0  0  0  0  0  0  0  0  0  0
   25.0359  -11.1949  -16.9305 C   0  0  1  0  0  0  0  0  0  0  0  0
   26.3809  -11.3848  -16.2384 C   0  0  0  0  0  0  0  0  0  0  0  0
   26.8757   -9.9149  -15.3262 S   0  0  0  0  0  0  0  0  0  0  0  0
   24.9646   -9.9027  -17.6248 C   0  0  0  0  0  0  0  0  0  0  0  0
   25.6378   -9.6495  -18.6741 O   0  0  0  0  0  0  0  0  0  0  0  0
   19.8428   -4.4779  -19.7918 C   0  0  0  0  0  0  0  0  0  0  0  0
   20.3918   -5.9229  -18.9162 S   0  0  0  0  0  0  0  0  0  0  0  0
   22.1555   -6.0952  -18.6885 C   0  0  0  0  0  0  0  0  0  0  0  0
   22.5427   -7.3770  -18.0434 C   0  0  0  0  0  0  0  0  0  0  0  0
   23.9822   -7.5955  -17.7956 C   0  0  2  0  0  0  0  0  0  0  0  0
   24.1200   -8.9003  -17.1137 N   0  0  0  0  0  0  0  0  0  0  0  0
   24.5536   -6.5636  -16.9220 C   0  0  0  0  0  0  0  0  0  0  0  0
   24.9562   -5.3203  -17.3392 O   0  0  0  0  0  0  0  0  0  0  0  0
   24.7027   -6.8006  -15.6752 O   0  0  0  0  0  0  0  0  0  0  0  0
  2  1  1  0
  3  2  1  0
  4  3  1  0
  4  5  1  0
  5  1  1  0
  5  6  1  1
  6  8  1  0
  7  6  2  0
  9  8  1  0
  9 12  1  0
  9 10  1  6
 11 10  1  0
 12 19  1  0
 13 12  2  0
 14 15  1  0
 16 15  1  0
 17 16  1  0
 18 20  1  0
 18 17  1  1
 19 18  1  0
 20 21  1  0
 22 20  2  0
M  END
$$$$
