PCM.pdb
     RDKit          3D

 22 22  0  0  1  0  0  0  0  0999 V2000
   27.0985  -22.1542  -16.2169 N   0  0  0  0  0  0  0  0  0  0  0  0
   27.7293  -22.1445  -17.5509 C   0  0  0  0  0  0  0  0  0  0  0  0
   27.7857  -20.6206  -17.7458 C   0  0  0  0  0  0  0  0  0  0  0  0
   28.4950  -20.2330  -16.4417 C   0  0  0  0  0  0  0  0  0  0  0  0
   27.9817  -21.2633  -15.4783 C   0  0  1  0  0  0  0  0  0  0  0  0
   27.2876  -20.6461  -14.3225 C   0  0  0  0  0  0  0  0  0  0  0  0
   28.0174  -19.9058  -13.5816 O   0  0  0  0  0  0  0  0  0  0  0  0
   25.9385  -20.8021  -13.9851 N   0  0  0  0  0  0  0  0  0  0  0  0
   25.2982  -20.1671  -12.8562 C   0  0  1  0  0  0  0  0  0  0  0  0
   23.8559  -19.7975  -13.1836 C   0  0  0  0  0  0  0  0  0  0  0  0
   22.9044  -19.4418  -11.6984 S   0  0  0  0  0  0  0  0  0  0  0  0
   25.3880  -20.9343  -11.6071 C   0  0  0  0  0  0  0  0  0  0  0  0
   24.9901  -22.1387  -11.5116 O   0  0  0  0  0  0  0  0  0  0  0  0
   28.3844  -18.0434   -6.5015 C   0  0  0  0  0  0  0  0  0  0  0  0
   27.9911  -19.6477   -5.8475 S   0  0  0  0  0  0  0  0  0  0  0  0
   26.9338  -20.6807   -6.8512 C   0  0  0  0  0  0  0  0  0  0  0  0
   26.8173  -20.2127   -8.2570 C   0  0  0  0  0  0  0  0  0  0  0  0
   25.9740  -21.0170   -9.1644 C   0  0  2  0  0  0  0  0  0  0  0  0
   25.9346  -20.3179  -10.4667 N   0  0  0  0  0  0  0  0  0  0  0  0
   24.5965  -21.1393   -8.6723 C   0  0  0  0  0  0  0  0  0  0  0  0
   23.5498  -20.3474   -9.0716 O   0  0  0  0  0  0  0  0  0  0  0  0
   24.3094  -22.0368   -7.8093 O   0  0  0  0  0  0  0  0  0  0  0  0
  2  1  1  0
  3  2  1  0
  4  3  1  0
  4  5  1  0
  5  1  1  0
  5  6  1  1
  6  8  1  0
  7  6  2  0
  9  8  1  0
  9 12  1  0
  9 10  1  6
 11 10  1  0
 12 19  1  0
 13 12  2  0
 14 15  1  0
 16 15  1  0
 17 16  1  0
 18 20  1  0
 18 17  1  1
 19 18  1  0
 20 21  1  0
 22 20  2  0
M  END
$$$$
