PCM.pdb
     RDKit          3D

 22 22  0  0  1  0  0  0  0  0999 V2000
   26.6406  -23.4404  -17.4535 N   0  0  0  0  0  0  0  0  0  0  0  0
   25.9908  -23.3644  -18.7762 C   0  0  0  0  0  0  0  0  0  0  0  0
   25.3722  -21.9651  -18.6265 C   0  0  0  0  0  0  0  0  0  0  0  0
   26.6297  -21.1830  -18.2252 C   0  0  0  0  0  0  0  0  0  0  0  0
   27.4045  -22.2012  -17.4403 C   0  0  1  0  0  0  0  0  0  0  0  0
   27.6767  -21.7457  -16.0558 C   0  0  0  0  0  0  0  0  0  0  0  0
   28.5151  -22.4547  -15.4047 O   0  0  0  0  0  0  0  0  0  0  0  0
   27.1083  -20.6358  -15.4207 N   0  0  0  0  0  0  0  0  0  0  0  0
   27.3899  -20.2375  -14.0607 C   0  0  1  0  0  0  0  0  0  0  0  0
   27.6228  -18.7337  -13.9694 C   0  0  0  0  0  0  0  0  0  0  0  0
   26.1421  -17.8022  -14.3907 S   0  0  0  0  0  0  0  0  0  0  0  0
   26.3889  -20.6883  -13.0851 C   0  0  0  0  0  0  0  0  0  0  0  0
   25.1977  -20.9899  -13.4138 O   0  0  0  0  0  0  0  0  0  0  0  0
   27.7277  -19.2458   -6.8862 C   0  0  0  0  0  0  0  0  0  0  0  0
   26.2048  -20.1419   -6.7020 S   0  0  0  0  0  0  0  0  0  0  0  0
   25.4232  -20.7040   -8.2071 C   0  0  0  0  0  0  0  0  0  0  0  0
   26.3033  -20.6016   -9.4004 C   0  0  0  0  0  0  0  0  0  0  0  0
   25.7493  -21.0743  -10.6853 C   0  0  2  0  0  0  0  0  0  0  0  0
   26.7560  -20.7924  -11.7310 N   0  0  0  0  0  0  0  0  0  0  0  0
   24.5121  -20.3704  -11.0440 C   0  0  0  0  0  0  0  0  0  0  0  0
   23.2633  -20.6968  -10.5794 O   0  0  0  0  0  0  0  0  0  0  0  0
   24.5588  -19.3748  -11.8437 O   0  0  0  0  0  0  0  0  0  0  0  0
  2  1  1  0
  3  2  1  0
  4  3  1  0
  4  5  1  0
  5  1  1  0
  5  6  1  1
  6  8  1  0
  7  6  2  0
  9  8  1  0
  9 12  1  0
  9 10  1  6
 11 10  1  0
 12 19  1  0
 13 12  2  0
 14 15  1  0
 16 15  1  0
 17 16  1  0
 18 20  1  0
 18 17  1  1
 19 18  1  0
 20 21  1  0
 22 20  2  0
M  END
$$$$
