PCM.pdb
     RDKit          3D

 22 22  0  0  1  0  0  0  0  0999 V2000
   27.7842  -19.6537  -16.6260 N   0  0  0  0  0  0  0  0  0  0  0  0
   28.2612  -18.9631  -17.8398 C   0  0  0  0  0  0  0  0  0  0  0  0
   27.6008  -17.5995  -17.5790 C   0  0  0  0  0  0  0  0  0  0  0  0
   28.1282  -17.3390  -16.1619 C   0  0  0  0  0  0  0  0  0  0  0  0
   28.2019  -18.7236  -15.5869 C   0  0  1  0  0  0  0  0  0  0  0  0
   27.3708  -18.8634  -14.3669 C   0  0  0  0  0  0  0  0  0  0  0  0
   27.7037  -18.1090  -13.3924 O   0  0  0  0  0  0  0  0  0  0  0  0
   26.2833  -19.7279  -14.1985 N   0  0  0  0  0  0  0  0  0  0  0  0
   25.3604  -19.6758  -13.0881 C   0  0  1  0  0  0  0  0  0  0  0  0
   23.9613  -20.0993  -13.5208 C   0  0  0  0  0  0  0  0  0  0  0  0
   23.9900  -21.6286  -14.4683 S   0  0  0  0  0  0  0  0  0  0  0  0
   25.8066  -20.4199  -11.9031 C   0  0  0  0  0  0  0  0  0  0  0  0
   26.4848  -21.4931  -11.9820 O   0  0  0  0  0  0  0  0  0  0  0  0
   29.4867  -18.7495   -7.1286 C   0  0  0  0  0  0  0  0  0  0  0  0
   28.0583  -19.3626   -6.2685 S   0  0  0  0  0  0  0  0  0  0  0  0
   26.9585  -20.4183   -7.2005 C   0  0  0  0  0  0  0  0  0  0  0  0
   26.6585  -19.9002   -8.5608 C   0  0  0  0  0  0  0  0  0  0  0  0
   25.7648  -20.7160   -9.4075 C   0  0  2  0  0  0  0  0  0  0  0  0
   25.4734  -19.9314  -10.6265 N   0  0  0  0  0  0  0  0  0  0  0  0
   24.4905  -21.0094   -8.7405 C   0  0  0  0  0  0  0  0  0  0  0  0
   24.3432  -21.8600   -7.6743 O   0  0  0  0  0  0  0  0  0  0  0  0
   23.4169  -20.4517   -9.1519 O   0  0  0  0  0  0  0  0  0  0  0  0
  2  1  1  0
  3  2  1  0
  4  3  1  0
  4  5  1  0
  5  1  1  0
  5  6  1  1
  6  8  1  0
  7  6  2  0
  9  8  1  0
  9 12  1  0
  9 10  1  6
 11 10  1  0
 12 19  1  0
 13 12  2  0
 14 15  1  0
 16 15  1  0
 17 16  1  0
 18 20  1  0
 18 17  1  1
 19 18  1  0
 20 21  1  0
 22 20  2  0
M  END
$$$$
