NQY.pdb
     RDKit          3D

 30 30  0  0  1  0  0  0  0  0999 V2000
    9.0978  -12.3520   17.6158 N   0  0  0  0  0  0  0  0  0  0  0  0
    7.9398  -13.1226   17.3095 C   0  0  0  0  0  0  0  0  0  0  0  0
    7.3718  -12.8906   16.2271 O   0  0  0  0  0  0  0  0  0  0  0  0
    7.4398  -14.1512   18.2406 C   0  0  0  0  0  0  0  0  0  0  0  0
    8.2568  -14.1022   19.5040 C   0  0  2  0  0  0  0  0  0  0  0  0
    9.6476  -14.2545   19.2147 N   0  0  0  0  0  0  0  0  0  0  0  0
    7.7574  -15.0601   20.5251 C   0  0  0  0  0  0  0  0  0  0  0  0
    6.5787  -15.1088   20.9085 O   0  0  0  0  0  0  0  0  0  0  0  0
    9.8990  -20.2166   18.9808 N   0  0  0  0  0  0  0  0  0  0  0  0
   10.1470  -19.7361   20.2927 C   0  0  0  0  0  0  0  0  0  0  0  0
   10.5835  -20.5502   21.1317 O   0  0  0  0  0  0  0  0  0  0  0  0
    9.9148  -18.3316   20.7069 C   0  0  0  0  0  0  0  0  0  0  0  0
    8.7181  -18.2732   21.5922 C   0  0  0  0  0  0  0  0  0  0  0  0
    8.3658  -16.9209   22.1217 C   0  0  2  0  0  0  0  0  0  0  0  0
    8.6989  -15.9615   21.0809 N   0  0  0  0  0  0  0  0  0  0  0  0
    9.0515  -16.5784   23.3971 C   0  0  0  0  0  0  0  0  0  0  0  0
   10.2395  -16.1834   23.4717 O   0  0  0  0  0  0  0  0  0  0  0  0
    6.5490  -10.4612   25.5795 O   0  0  0  0  0  0  0  0  0  0  0  0
    6.9138  -11.7563   25.9022 C   0  0  0  0  0  0  0  0  0  0  0  0
    5.9354  -12.6660   26.2704 C   0  0  0  0  0  0  0  0  0  0  0  0
    6.2704  -13.9728   26.5997 C   0  0  0  0  0  0  0  0  0  0  0  0
    7.5763  -14.4175   26.5750 C   0  0  0  0  0  0  0  0  0  0  0  0
    8.0057  -15.7838   26.9108 C   0  0  0  0  0  0  0  0  0  0  0  0
    8.9932  -16.3591   25.9233 C   0  0  2  0  0  0  0  0  0  0  0  0
    8.3641  -16.6855   24.6613 N   0  0  0  0  0  0  0  0  0  0  0  0
    9.7801  -17.4640   26.4743 C   0  0  0  0  0  0  0  0  0  0  0  0
   10.5961  -17.2976   27.5712 O   0  0  0  0  0  0  0  0  0  0  0  0
    8.5408  -13.5011   26.2065 C   0  0  0  0  0  0  0  0  0  0  0  0
    8.2155  -12.2067   25.8796 C   0  0  0  0  0  0  0  0  0  0  0  0
    9.7155  -18.5913   25.9408 O   0  0  0  0  0  0  0  0  0  0  0  0
  1  2  1  0
  2  3  2  0
  4  2  1  0
  4  5  1  0
  5  7  1  0
  5  6  1  6
  7  8  2  0
  9 10  1  0
 10 11  2  0
 12 10  1  0
 12 13  1  0
 14 13  1  6
 15 14  1  0
 15  7  1  0
 16 17  2  0
 16 14  1  0
 18 19  1  0
 19 29  2  0
 20 19  1  0
 20 21  2  0
 21 22  1  0
 22 28  2  0
 22 23  1  0
 24 23  1  1
 24 26  1  0
 24 25  1  0
 25 16  1  0
 26 27  1  0
 29 28  1  0
 30 26  2  0
M  END
$$$$
