NQY.pdb
     RDKit          3D

 30 30  0  0  1  0  0  0  0  0999 V2000
    8.2166  -14.2668   16.6082 N   0  0  0  0  0  0  0  0  0  0  0  0
    8.4735  -13.5314   17.8005 C   0  0  0  0  0  0  0  0  0  0  0  0
    8.5286  -12.2921   17.7041 O   0  0  0  0  0  0  0  0  0  0  0  0
    8.6652  -14.2160   19.0927 C   0  0  0  0  0  0  0  0  0  0  0  0
    8.6451  -15.7035   18.8628 C   0  0  2  0  0  0  0  0  0  0  0  0
    7.4608  -16.0928   18.1649 N   0  0  0  0  0  0  0  0  0  0  0  0
    8.8655  -16.4625   20.1218 C   0  0  0  0  0  0  0  0  0  0  0  0
    7.9887  -17.1348   20.6855 O   0  0  0  0  0  0  0  0  0  0  0  0
   11.5963  -21.4269   22.2192 N   0  0  0  0  0  0  0  0  0  0  0  0
   12.3969  -20.3128   21.8564 C   0  0  0  0  0  0  0  0  0  0  0  0
   13.2705  -20.4909   20.9833 O   0  0  0  0  0  0  0  0  0  0  0  0
   12.2455  -18.9663   22.4581 C   0  0  0  0  0  0  0  0  0  0  0  0
   11.7160  -18.0270   21.4303 C   0  0  0  0  0  0  0  0  0  0  0  0
   10.5563  -17.1851   21.8541 C   0  0  2  0  0  0  0  0  0  0  0  0
   10.1597  -16.4010   20.6953 N   0  0  0  0  0  0  0  0  0  0  0  0
   10.8480  -16.3027   23.0162 C   0  0  0  0  0  0  0  0  0  0  0  0
   11.4547  -15.2082   22.9321 O   0  0  0  0  0  0  0  0  0  0  0  0
    5.4759  -11.3859   27.3797 O   0  0  0  0  0  0  0  0  0  0  0  0
    6.2007  -12.3186   26.6591 C   0  0  0  0  0  0  0  0  0  0  0  0
    7.5691  -12.1531   26.5165 C   0  0  0  0  0  0  0  0  0  0  0  0
    8.3234  -13.0723   25.7992 C   0  0  0  0  0  0  0  0  0  0  0  0
    7.7504  -14.1774   25.2042 C   0  0  0  0  0  0  0  0  0  0  0  0
    8.4840  -15.1908   24.4304 C   0  0  0  0  0  0  0  0  0  0  0  0
    9.6395  -15.8001   25.1886 C   0  0  2  0  0  0  0  0  0  0  0  0
   10.4351  -16.6701   24.3491 N   0  0  0  0  0  0  0  0  0  0  0  0
    9.2336  -16.4309   26.4460 C   0  0  0  0  0  0  0  0  0  0  0  0
    9.3566  -15.7839   27.6555 O   0  0  0  0  0  0  0  0  0  0  0  0
    6.3865  -14.3302   25.3541 C   0  0  0  0  0  0  0  0  0  0  0  0
    5.6349  -13.4241   26.0626 C   0  0  0  0  0  0  0  0  0  0  0  0
    8.7619  -17.5872   26.4300 O   0  0  0  0  0  0  0  0  0  0  0  0
  1  2  1  0
  2  3  2  0
  4  2  1  0
  4  5  1  0
  5  7  1  0
  5  6  1  1
  7  8  2  0
  9 10  1  0
 10 11  2  0
 12 10  1  0
 12 13  1  0
 14 13  1  6
 15 14  1  0
 15  7  1  0
 16 17  2  0
 16 14  1  0
 18 19  1  0
 19 29  2  0
 20 19  1  0
 20 21  2  0
 21 22  1  0
 22 28  2  0
 22 23  1  0
 24 23  1  6
 24 26  1  0
 24 25  1  0
 25 16  1  0
 26 27  1  0
 29 28  1  0
 30 26  2  0
M  END
$$$$
