NQY.pdb
     RDKit          3D

 30 30  0  0  1  0  0  0  0  0999 V2000
    7.6787  -12.1282   17.8928 N   0  0  0  0  0  0  0  0  0  0  0  0
    7.8793  -13.5383   17.8977 C   0  0  0  0  0  0  0  0  0  0  0  0
    8.4543  -14.0348   16.9123 O   0  0  0  0  0  0  0  0  0  0  0  0
    7.4222  -14.3699   19.0267 C   0  0  0  0  0  0  0  0  0  0  0  0
    8.4295  -14.2731   20.1412 C   0  0  2  0  0  0  0  0  0  0  0  0
    9.7608  -14.3657   19.6310 N   0  0  0  0  0  0  0  0  0  0  0  0
    8.1456  -15.2431   21.2313 C   0  0  0  0  0  0  0  0  0  0  0  0
    7.0168  -15.4355   21.7081 O   0  0  0  0  0  0  0  0  0  0  0  0
   12.7093  -19.5601   21.0653 N   0  0  0  0  0  0  0  0  0  0  0  0
   11.3537  -19.2853   20.7483 C   0  0  0  0  0  0  0  0  0  0  0  0
   10.7081  -20.1753   20.1579 O   0  0  0  0  0  0  0  0  0  0  0  0
   10.6785  -18.0081   21.0812 C   0  0  0  0  0  0  0  0  0  0  0  0
    9.8724  -18.1885   22.3209 C   0  0  0  0  0  0  0  0  0  0  0  0
    9.1106  -16.9884   22.7820 C   0  0  2  0  0  0  0  0  0  0  0  0
    9.2424  -15.9809   21.7417 N   0  0  0  0  0  0  0  0  0  0  0  0
    9.5654  -16.4568   24.0952 C   0  0  0  0  0  0  0  0  0  0  0  0
   10.5976  -15.7617   24.2521 O   0  0  0  0  0  0  0  0  0  0  0  0
    6.2640  -10.7783   25.2014 O   0  0  0  0  0  0  0  0  0  0  0  0
    6.7256  -11.9661   25.7404 C   0  0  0  0  0  0  0  0  0  0  0  0
    5.9227  -13.0943   25.6858 C   0  0  0  0  0  0  0  0  0  0  0  0
    6.3584  -14.3007   26.2180 C   0  0  0  0  0  0  0  0  0  0  0  0
    7.5947  -14.4274   26.8174 C   0  0  0  0  0  0  0  0  0  0  0  0
    8.1221  -15.6699   27.4022 C   0  0  0  0  0  0  0  0  0  0  0  0
    9.2563  -16.2703   26.6057 C   0  0  2  0  0  0  0  0  0  0  0  0
    8.8188  -16.7204   25.3015 N   0  0  0  0  0  0  0  0  0  0  0  0
   10.0004  -17.2919   27.3448 C   0  0  0  0  0  0  0  0  0  0  0  0
   10.6951  -16.9932   28.4959 O   0  0  0  0  0  0  0  0  0  0  0  0
    8.3841  -13.2959   26.8650 C   0  0  0  0  0  0  0  0  0  0  0  0
    7.9586  -12.0995   26.3401 C   0  0  0  0  0  0  0  0  0  0  0  0
   10.0106  -18.4687   26.9268 O   0  0  0  0  0  0  0  0  0  0  0  0
  1  2  1  0
  2  3  2  0
  4  2  1  0
  4  5  1  0
  5  7  1  0
  5  6  1  6
  7  8  2  0
  9 10  1  0
 10 11  2  0
 12 10  1  0
 12 13  1  0
 14 13  1  6
 15 14  1  0
 15  7  1  0
 16 17  2  0
 16 14  1  0
 18 19  1  0
 19 29  2  0
 20 19  1  0
 20 21  2  0
 21 22  1  0
 22 28  2  0
 22 23  1  0
 24 23  1  1
 24 26  1  0
 24 25  1  0
 25 16  1  0
 26 27  1  0
 29 28  1  0
 30 26  2  0
M  END
$$$$
