NQY.pdb
     RDKit          3D

 30 30  0  0  1  0  0  0  0  0999 V2000
   11.1035  -17.8513   16.2917 N   0  0  0  0  0  0  0  0  0  0  0  0
   12.0957  -17.3298   15.4129 C   0  0  0  0  0  0  0  0  0  0  0  0
   11.7321  -17.0196   14.2641 O   0  0  0  0  0  0  0  0  0  0  0  0
   13.4941  -17.1667   15.8523 C   0  0  0  0  0  0  0  0  0  0  0  0
   13.6307  -17.7066   17.2508 C   0  0  2  0  0  0  0  0  0  0  0  0
   12.7016  -17.0731   18.1320 N   0  0  0  0  0  0  0  0  0  0  0  0
   15.0357  -17.6492   17.7328 C   0  0  0  0  0  0  0  0  0  0  0  0
   15.8831  -18.5238   17.4971 O   0  0  0  0  0  0  0  0  0  0  0  0
   20.1302  -16.7407   16.5173 N   0  0  0  0  0  0  0  0  0  0  0  0
   19.3217  -15.6104   16.8040 C   0  0  0  0  0  0  0  0  0  0  0  0
   19.9018  -14.5272   17.0220 O   0  0  0  0  0  0  0  0  0  0  0  0
   17.8407  -15.6560   16.8557 C   0  0  0  0  0  0  0  0  0  0  0  0
   17.3851  -15.2506   18.2149 C   0  0  0  0  0  0  0  0  0  0  0  0
   16.7484  -16.3254   19.0352 C   0  0  2  0  0  0  0  0  0  0  0  0
   15.4084  -16.5213   18.5052 N   0  0  0  0  0  0  0  0  0  0  0  0
   16.7032  -16.0219   20.4912 C   0  0  0  0  0  0  0  0  0  0  0  0
   16.4700  -14.8841   20.9646 O   0  0  0  0  0  0  0  0  0  0  0  0
   10.4452  -17.3867   22.0607 O   0  0  0  0  0  0  0  0  0  0  0  0
   11.7754  -17.5029   22.4235 C   0  0  0  0  0  0  0  0  0  0  0  0
   12.4561  -16.3843   22.8769 C   0  0  0  0  0  0  0  0  0  0  0  0
   13.7915  -16.4694   23.2483 C   0  0  0  0  0  0  0  0  0  0  0  0
   14.4907  -17.6572   23.1830 C   0  0  0  0  0  0  0  0  0  0  0  0
   15.9033  -17.8229   23.5581 C   0  0  0  0  0  0  0  0  0  0  0  0
   16.8187  -16.8206   22.8957 C   0  0  2  0  0  0  0  0  0  0  0  0
   16.9331  -17.0550   21.4720 N   0  0  0  0  0  0  0  0  0  0  0  0
   18.1163  -16.6981   23.5627 C   0  0  0  0  0  0  0  0  0  0  0  0
   18.2217  -16.3072   24.8790 O   0  0  0  0  0  0  0  0  0  0  0  0
   13.8005  -18.7635   22.7297 C   0  0  0  0  0  0  0  0  0  0  0  0
   12.4792  -18.6855   22.3608 C   0  0  0  0  0  0  0  0  0  0  0  0
   19.1609  -16.9533   22.9276 O   0  0  0  0  0  0  0  0  0  0  0  0
  1  2  1  0
  2  3  2  0
  4  2  1  0
  4  5  1  0
  5  7  1  0
  5  6  1  1
  7  8  2  0
  9 10  1  0
 10 11  2  0
 12 10  1  0
 12 13  1  0
 14 13  1  6
 15 14  1  0
 15  7  1  0
 16 17  2  0
 16 14  1  0
 18 19  1  0
 19 29  2  0
 20 19  1  0
 20 21  2  0
 21 22  1  0
 22 28  2  0
 22 23  1  0
 24 23  1  1
 24 26  1  0
 24 25  1  0
 25 16  1  0
 26 27  1  0
 29 28  1  0
 30 26  2  0
M  END
$$$$
