NQY.pdb
     RDKit          3D

 30 30  0  0  1  0  0  0  0  0999 V2000
    8.6179  -12.4673   18.7189 N   0  0  0  0  0  0  0  0  0  0  0  0
    7.4373  -13.1121   19.1870 C   0  0  0  0  0  0  0  0  0  0  0  0
    6.3505  -12.5599   18.9383 O   0  0  0  0  0  0  0  0  0  0  0  0
    7.5068  -14.3814   19.9349 C   0  0  0  0  0  0  0  0  0  0  0  0
    8.9518  -14.7166   20.1909 C   0  0  2  0  0  0  0  0  0  0  0  0
    9.7148  -14.6248   18.9865 N   0  0  0  0  0  0  0  0  0  0  0  0
    9.1036  -16.0204   20.8886 C   0  0  0  0  0  0  0  0  0  0  0  0
    8.8201  -17.1145   20.3775 O   0  0  0  0  0  0  0  0  0  0  0  0
   13.0421  -14.1376   18.7349 N   0  0  0  0  0  0  0  0  0  0  0  0
   13.3245  -14.9513   19.8627 C   0  0  0  0  0  0  0  0  0  0  0  0
   14.4573  -14.8509   20.3765 O   0  0  0  0  0  0  0  0  0  0  0  0
   12.3499  -15.9015   20.4503 C   0  0  0  0  0  0  0  0  0  0  0  0
   11.8268  -15.3399   21.7271 C   0  0  0  0  0  0  0  0  0  0  0  0
   10.9905  -16.2651   22.5505 C   0  0  2  0  0  0  0  0  0  0  0  0
    9.6027  -15.9897   22.2144 N   0  0  0  0  0  0  0  0  0  0  0  0
   11.2167  -16.1354   24.0154 C   0  0  0  0  0  0  0  0  0  0  0  0
   12.3321  -16.2833   24.5697 O   0  0  0  0  0  0  0  0  0  0  0  0
    4.8309  -12.5659   25.0964 O   0  0  0  0  0  0  0  0  0  0  0  0
    6.0814  -12.9883   25.5116 C   0  0  0  0  0  0  0  0  0  0  0  0
    6.1992  -13.7057   26.6914 C   0  0  0  0  0  0  0  0  0  0  0  0
    7.4405  -14.1432   27.1340 C   0  0  0  0  0  0  0  0  0  0  0  0
    8.5972  -13.8860   26.4271 C   0  0  0  0  0  0  0  0  0  0  0  0
    9.9440  -14.3161   26.8334 C   0  0  0  0  0  0  0  0  0  0  0  0
   10.3035  -15.6980   26.3409 C   0  0  2  0  0  0  0  0  0  0  0  0
   10.1284  -15.8217   24.9095 N   0  0  0  0  0  0  0  0  0  0  0  0
    9.6437  -16.7665   27.0936 C   0  0  0  0  0  0  0  0  0  0  0  0
    9.8299  -16.9208   28.4494 O   0  0  0  0  0  0  0  0  0  0  0  0
    8.4656  -13.1706   25.2538 C   0  0  0  0  0  0  0  0  0  0  0  0
    7.2401  -12.7350   24.8107 C   0  0  0  0  0  0  0  0  0  0  0  0
    8.8899  -17.5640   26.4974 O   0  0  0  0  0  0  0  0  0  0  0  0
  1  2  1  0
  2  3  2  0
  4  2  1  0
  4  5  1  0
  5  7  1  0
  5  6  1  6
  7  8  2  0
  9 10  1  0
 10 11  2  0
 12 10  1  0
 12 13  1  0
 14 13  1  6
 15 14  1  0
 15  7  1  0
 16 17  2  0
 16 14  1  0
 18 19  1  0
 19 29  2  0
 20 19  1  0
 20 21  2  0
 21 22  1  0
 22 28  2  0
 22 23  1  0
 24 23  1  1
 24 26  1  0
 24 25  1  0
 25 16  1  0
 26 27  1  0
 29 28  1  0
 30 26  2  0
M  END
$$$$
