NQY.pdb
     RDKit          3D

 30 30  0  0  1  0  0  0  0  0999 V2000
    8.9468  -14.8216   16.3454 N   0  0  0  0  0  0  0  0  0  0  0  0
    7.9484  -13.9709   16.9005 C   0  0  0  0  0  0  0  0  0  0  0  0
    7.4327  -13.1291   16.1432 O   0  0  0  0  0  0  0  0  0  0  0  0
    7.5469  -14.0879   18.3148 C   0  0  0  0  0  0  0  0  0  0  0  0
    8.3980  -15.1384   18.9768 C   0  0  2  0  0  0  0  0  0  0  0  0
    8.2733  -16.3914   18.3020 N   0  0  0  0  0  0  0  0  0  0  0  0
    8.1359  -15.2252   20.4375 C   0  0  0  0  0  0  0  0  0  0  0  0
    8.3078  -14.2842   21.2272 O   0  0  0  0  0  0  0  0  0  0  0  0
    5.7791  -20.6531   22.4786 N   0  0  0  0  0  0  0  0  0  0  0  0
    5.8058  -19.9004   23.6812 C   0  0  0  0  0  0  0  0  0  0  0  0
    5.3656  -20.4470   24.7130 O   0  0  0  0  0  0  0  0  0  0  0  0
    6.3252  -18.5144   23.7674 C   0  0  0  0  0  0  0  0  0  0  0  0
    6.6443  -18.0246   22.3972 C   0  0  0  0  0  0  0  0  0  0  0  0
    7.2584  -16.6644   22.3191 C   0  0  2  0  0  0  0  0  0  0  0  0
    7.6628  -16.4640   20.9367 N   0  0  0  0  0  0  0  0  0  0  0  0
    8.4101  -16.4719   23.2413 C   0  0  0  0  0  0  0  0  0  0  0  0
    9.4997  -17.0851   23.1418 O   0  0  0  0  0  0  0  0  0  0  0  0
    4.9914  -10.9547   26.9553 O   0  0  0  0  0  0  0  0  0  0  0  0
    6.1347  -11.6297   26.5652 C   0  0  0  0  0  0  0  0  0  0  0  0
    6.2377  -12.0964   25.2645 C   0  0  0  0  0  0  0  0  0  0  0  0
    7.3724  -12.7772   24.8436 C   0  0  0  0  0  0  0  0  0  0  0  0
    8.4344  -13.0159   25.6916 C   0  0  0  0  0  0  0  0  0  0  0  0
    9.6655  -13.7287   25.3173 C   0  0  0  0  0  0  0  0  0  0  0  0
    9.4722  -15.2199   25.1745 C   0  0  2  0  0  0  0  0  0  0  0  0
    8.3344  -15.5374   24.3382 N   0  0  0  0  0  0  0  0  0  0  0  0
    9.4538  -15.9229   26.4586 C   0  0  0  0  0  0  0  0  0  0  0  0
    8.3973  -16.7231   26.8330 O   0  0  0  0  0  0  0  0  0  0  0  0
    8.3186  -12.5455   26.9844 C   0  0  0  0  0  0  0  0  0  0  0  0
    7.1983  -11.8713   27.4067 C   0  0  0  0  0  0  0  0  0  0  0  0
   10.4187  -15.7989   27.2417 O   0  0  0  0  0  0  0  0  0  0  0  0
  1  2  1  0
  2  3  2  0
  4  2  1  0
  4  5  1  0
  5  7  1  0
  5  6  1  6
  7  8  2  0
  9 10  1  0
 10 11  2  0
 12 10  1  0
 12 13  1  0
 14 13  1  6
 15 14  1  0
 15  7  1  0
 16 17  2  0
 16 14  1  0
 18 19  1  0
 19 29  2  0
 20 19  1  0
 20 21  2  0
 21 22  1  0
 22 28  2  0
 22 23  1  0
 24 23  1  1
 24 26  1  0
 24 25  1  0
 25 16  1  0
 26 27  1  0
 29 28  1  0
 30 26  2  0
M  END
$$$$
