NQY.pdb
     RDKit          3D

 30 30  0  0  1  0  0  0  0  0999 V2000
    4.9395  -20.6128   22.9053 N   0  0  0  0  0  0  0  0  0  0  0  0
    6.3590  -20.6884   22.8162 C   0  0  0  0  0  0  0  0  0  0  0  0
    6.8696  -21.8231   22.8168 O   0  0  0  0  0  0  0  0  0  0  0  0
    7.1839  -19.4690   22.7271 C   0  0  0  0  0  0  0  0  0  0  0  0
    7.0956  -18.9232   21.3270 C   0  0  2  0  0  0  0  0  0  0  0  0
    7.3957  -19.9380   20.3672 N   0  0  0  0  0  0  0  0  0  0  0  0
    7.9108  -17.6916   21.1593 C   0  0  0  0  0  0  0  0  0  0  0  0
    9.0427  -17.6762   20.6522 O   0  0  0  0  0  0  0  0  0  0  0  0
    7.3920  -13.0366   18.2282 N   0  0  0  0  0  0  0  0  0  0  0  0
    8.0275  -12.7959   19.4739 C   0  0  0  0  0  0  0  0  0  0  0  0
    9.2510  -12.5503   19.4588 O   0  0  0  0  0  0  0  0  0  0  0  0
    7.3155  -12.8224   20.7741 C   0  0  0  0  0  0  0  0  0  0  0  0
    6.8819  -14.2171   21.0670 C   0  0  0  0  0  0  0  0  0  0  0  0
    7.9726  -15.1787   21.4118 C   0  0  2  0  0  0  0  0  0  0  0  0
    7.3436  -16.4745   21.6120 N   0  0  0  0  0  0  0  0  0  0  0  0
    8.7650  -14.7840   22.6078 C   0  0  0  0  0  0  0  0  0  0  0  0
    8.9015  -13.6007   23.0006 O   0  0  0  0  0  0  0  0  0  0  0  0
    6.8323  -10.3471   27.0063 O   0  0  0  0  0  0  0  0  0  0  0  0
    7.1086  -11.6408   26.6008 C   0  0  0  0  0  0  0  0  0  0  0  0
    6.1128  -12.3903   25.9950 C   0  0  0  0  0  0  0  0  0  0  0  0
    6.3598  -13.6914   25.5774 C   0  0  0  0  0  0  0  0  0  0  0  0
    7.5926  -14.2879   25.7452 C   0  0  0  0  0  0  0  0  0  0  0  0
    7.9268  -15.6588   25.3295 C   0  0  0  0  0  0  0  0  0  0  0  0
    9.3523  -15.8075   24.8528 C   0  0  2  0  0  0  0  0  0  0  0  0
    9.4431  -15.7744   23.4087 N   0  0  0  0  0  0  0  0  0  0  0  0
   10.0395  -16.9571   25.4442 C   0  0  0  0  0  0  0  0  0  0  0  0
   10.6339  -16.8881   26.6847 O   0  0  0  0  0  0  0  0  0  0  0  0
    8.5754  -13.5302   26.3500 C   0  0  0  0  0  0  0  0  0  0  0  0
    8.3370  -12.2423   26.7654 C   0  0  0  0  0  0  0  0  0  0  0  0
   10.0927  -18.0335   24.8131 O   0  0  0  0  0  0  0  0  0  0  0  0
  1  2  1  0
  2  3  2  0
  4  2  1  0
  4  5  1  0
  5  7  1  0
  5  6  1  6
  7  8  2  0
  9 10  1  0
 10 11  2  0
 12 10  1  0
 12 13  1  0
 14 13  1  1
 15 14  1  0
 15  7  1  0
 16 17  2  0
 16 14  1  0
 18 19  1  0
 19 29  2  0
 20 19  1  0
 20 21  2  0
 21 22  1  0
 22 28  2  0
 22 23  1  0
 24 23  1  6
 24 26  1  0
 24 25  1  0
 25 16  1  0
 26 27  1  0
 29 28  1  0
 30 26  2  0
M  END
$$$$
