NQY.pdb
     RDKit          3D

 30 30  0  0  1  0  0  0  0  0999 V2000
    9.4366  -20.2494   12.2113 N   0  0  0  0  0  0  0  0  0  0  0  0
    8.5600  -19.2731   12.7652 C   0  0  0  0  0  0  0  0  0  0  0  0
    8.1324  -18.3916   11.9981 O   0  0  0  0  0  0  0  0  0  0  0  0
    8.1788  -19.3106   14.1894 C   0  0  0  0  0  0  0  0  0  0  0  0
    8.9090  -20.4441   14.8587 C   0  0  2  0  0  0  0  0  0  0  0  0
    8.3971  -21.7047   14.4230 N   0  0  0  0  0  0  0  0  0  0  0  0
    8.9300  -20.2941   16.3375 C   0  0  0  0  0  0  0  0  0  0  0  0
    9.3879  -19.3021   16.9247 O   0  0  0  0  0  0  0  0  0  0  0  0
    5.3049  -24.1410   19.6106 N   0  0  0  0  0  0  0  0  0  0  0  0
    6.0175  -23.4997   20.6569 C   0  0  0  0  0  0  0  0  0  0  0  0
    5.7062  -23.7918   21.8295 O   0  0  0  0  0  0  0  0  0  0  0  0
    7.0993  -22.5129   20.4246 C   0  0  0  0  0  0  0  0  0  0  0  0
    7.2697  -22.3084   18.9589 C   0  0  0  0  0  0  0  0  0  0  0  0
    8.3436  -21.3503   18.5562 C   0  0  2  0  0  0  0  0  0  0  0  0
    8.3908  -21.3578   17.1027 N   0  0  0  0  0  0  0  0  0  0  0  0
    9.6785  -21.6686   19.1312 C   0  0  0  0  0  0  0  0  0  0  0  0
   10.3668  -22.6635   18.8003 O   0  0  0  0  0  0  0  0  0  0  0  0
   17.7210  -21.0984   22.5265 O   0  0  0  0  0  0  0  0  0  0  0  0
   16.4393  -20.8101   22.0921 C   0  0  0  0  0  0  0  0  0  0  0  0
   15.5137  -20.3076   22.9927 C   0  0  0  0  0  0  0  0  0  0  0  0
   14.2198  -20.0087   22.5866 C   0  0  0  0  0  0  0  0  0  0  0  0
   13.8040  -20.1966   21.2845 C   0  0  0  0  0  0  0  0  0  0  0  0
   12.4525  -19.9038   20.7829 C   0  0  0  0  0  0  0  0  0  0  0  0
   11.5526  -21.1164   20.7487 C   0  0  2  0  0  0  0  0  0  0  0  0
   10.2751  -20.8214   20.1355 N   0  0  0  0  0  0  0  0  0  0  0  0
   11.4253  -21.7750   22.0501 C   0  0  0  0  0  0  0  0  0  0  0  0
   12.3083  -22.7492   22.4600 O   0  0  0  0  0  0  0  0  0  0  0  0
   14.7361  -20.6978   20.3979 C   0  0  0  0  0  0  0  0  0  0  0  0
   16.0178  -20.9954   20.7937 C   0  0  0  0  0  0  0  0  0  0  0  0
   10.4933  -21.4504   22.8154 O   0  0  0  0  0  0  0  0  0  0  0  0
  1  2  1  0
  2  3  2  0
  4  2  1  0
  4  5  1  0
  5  7  1  0
  5  6  1  1
  7  8  2  0
  9 10  1  0
 10 11  2  0
 12 10  1  0
 12 13  1  0
 14 13  1  6
 15 14  1  0
 15  7  1  0
 16 17  2  0
 16 14  1  0
 18 19  1  0
 19 29  2  0
 20 19  1  0
 20 21  2  0
 21 22  1  0
 22 28  2  0
 22 23  1  0
 24 23  1  1
 24 26  1  0
 24 25  1  0
 25 16  1  0
 26 27  1  0
 29 28  1  0
 30 26  2  0
M  END
$$$$
