NQY.pdb
     RDKit          3D

 30 30  0  0  1  0  0  0  0  0999 V2000
    8.9921  -12.2559   18.1293 N   0  0  0  0  0  0  0  0  0  0  0  0
    7.9213  -13.1262   17.7762 C   0  0  0  0  0  0  0  0  0  0  0  0
    7.4228  -12.9853   16.6449 O   0  0  0  0  0  0  0  0  0  0  0  0
    7.4285  -14.1497   18.7167 C   0  0  0  0  0  0  0  0  0  0  0  0
    8.1607  -14.0023   20.0237 C   0  0  2  0  0  0  0  0  0  0  0  0
    9.5662  -13.8677   19.8052 N   0  0  0  0  0  0  0  0  0  0  0  0
    7.8125  -15.0857   20.9800 C   0  0  0  0  0  0  0  0  0  0  0  0
    6.6550  -15.3349   21.3499 O   0  0  0  0  0  0  0  0  0  0  0  0
   10.6429  -20.4165   21.0401 N   0  0  0  0  0  0  0  0  0  0  0  0
   11.1973  -19.1550   20.7011 C   0  0  0  0  0  0  0  0  0  0  0  0
   12.2400  -19.1493   20.0155 O   0  0  0  0  0  0  0  0  0  0  0  0
   10.6036  -17.8620   21.1178 C   0  0  0  0  0  0  0  0  0  0  0  0
    9.4127  -18.1228   21.9738 C   0  0  0  0  0  0  0  0  0  0  0  0
    8.6997  -16.9122   22.4830 C   0  0  2  0  0  0  0  0  0  0  0  0
    8.8797  -15.8678   21.4872 N   0  0  0  0  0  0  0  0  0  0  0  0
    9.1694  -16.4566   23.8194 C   0  0  0  0  0  0  0  0  0  0  0  0
   10.1745  -15.7284   23.9998 O   0  0  0  0  0  0  0  0  0  0  0  0
    6.1760  -10.6780   25.2270 O   0  0  0  0  0  0  0  0  0  0  0  0
    6.5596  -11.9238   25.6909 C   0  0  0  0  0  0  0  0  0  0  0  0
    5.8090  -13.0371   25.3484 C   0  0  0  0  0  0  0  0  0  0  0  0
    6.1688  -14.3005   25.7987 C   0  0  0  0  0  0  0  0  0  0  0  0
    7.2762  -14.5004   26.5972 C   0  0  0  0  0  0  0  0  0  0  0  0
    7.7175  -15.8061   27.1112 C   0  0  0  0  0  0  0  0  0  0  0  0
    8.8748  -16.3923   26.3377 C   0  0  2  0  0  0  0  0  0  0  0  0
    8.4709  -16.8406   25.0222 N   0  0  0  0  0  0  0  0  0  0  0  0
    9.6120  -17.4100   27.0890 C   0  0  0  0  0  0  0  0  0  0  0  0
    9.7463  -18.6996   26.6246 O   0  0  0  0  0  0  0  0  0  0  0  0
    8.0150  -13.3828   26.9307 C   0  0  0  0  0  0  0  0  0  0  0  0
    7.6639  -12.1303   26.4883 C   0  0  0  0  0  0  0  0  0  0  0  0
   10.1363  -17.1087   28.1816 O   0  0  0  0  0  0  0  0  0  0  0  0
  1  2  1  0
  2  3  2  0
  4  2  1  0
  4  5  1  0
  5  7  1  0
  5  6  1  6
  7  8  2  0
  9 10  1  0
 10 11  2  0
 12 10  1  0
 12 13  1  0
 14 13  1  6
 15 14  1  0
 15  7  1  0
 16 17  2  0
 16 14  1  0
 18 19  1  0
 19 29  2  0
 20 19  1  0
 20 21  2  0
 21 22  1  0
 22 28  2  0
 22 23  1  0
 24 23  1  1
 24 26  1  0
 24 25  1  0
 25 16  1  0
 26 27  1  0
 29 28  1  0
 30 26  2  0
M  END
$$$$
