NQY.pdb
     RDKit          3D

 30 30  0  0  1  0  0  0  0  0999 V2000
    9.3602  -13.5488   17.1816 N   0  0  0  0  0  0  0  0  0  0  0  0
    8.6529  -12.8164   18.1775 C   0  0  0  0  0  0  0  0  0  0  0  0
    8.5120  -11.5941   17.9924 O   0  0  0  0  0  0  0  0  0  0  0  0
    8.1125  -13.4845   19.3761 C   0  0  0  0  0  0  0  0  0  0  0  0
    8.4236  -14.9552   19.2950 C   0  0  2  0  0  0  0  0  0  0  0  0
    7.9291  -15.5117   18.0756 N   0  0  0  0  0  0  0  0  0  0  0  0
    7.9672  -15.6863   20.5062 C   0  0  0  0  0  0  0  0  0  0  0  0
    6.7986  -16.0603   20.6878 O   0  0  0  0  0  0  0  0  0  0  0  0
   11.0403  -20.3006   20.7095 N   0  0  0  0  0  0  0  0  0  0  0  0
    9.6231  -20.3607   20.6685 C   0  0  0  0  0  0  0  0  0  0  0  0
    9.1041  -21.3499   20.1123 O   0  0  0  0  0  0  0  0  0  0  0  0
    8.7431  -19.3175   21.2477 C   0  0  0  0  0  0  0  0  0  0  0  0
    9.5838  -18.2202   21.8030 C   0  0  0  0  0  0  0  0  0  0  0  0
    8.8408  -17.0812   22.4227 C   0  0  2  0  0  0  0  0  0  0  0  0
    8.9395  -15.9621   21.4993 N   0  0  0  0  0  0  0  0  0  0  0  0
    9.3412  -16.7010   23.7714 C   0  0  0  0  0  0  0  0  0  0  0  0
   10.4931  -16.2573   23.9938 O   0  0  0  0  0  0  0  0  0  0  0  0
    5.9533  -10.6593   25.3337 O   0  0  0  0  0  0  0  0  0  0  0  0
    6.3720  -11.9138   25.7406 C   0  0  0  0  0  0  0  0  0  0  0  0
    7.6646  -12.0789   26.2120 C   0  0  0  0  0  0  0  0  0  0  0  0
    8.1137  -13.3255   26.6274 C   0  0  0  0  0  0  0  0  0  0  0  0
    7.3025  -14.4410   26.5896 C   0  0  0  0  0  0  0  0  0  0  0  0
    7.7084  -15.7905   27.0116 C   0  0  0  0  0  0  0  0  0  0  0  0
    8.8900  -16.3275   26.2392 C   0  0  2  0  0  0  0  0  0  0  0  0
    8.5004  -16.8261   24.9374 N   0  0  0  0  0  0  0  0  0  0  0  0
    9.6897  -17.2860   27.0044 C   0  0  0  0  0  0  0  0  0  0  0  0
   10.4068  -16.9076   28.1176 O   0  0  0  0  0  0  0  0  0  0  0  0
    6.0174  -14.2624   26.1179 C   0  0  0  0  0  0  0  0  0  0  0  0
    5.5673  -13.0314   25.7054 C   0  0  0  0  0  0  0  0  0  0  0  0
    9.7279  -18.4813   26.6444 O   0  0  0  0  0  0  0  0  0  0  0  0
  1  2  1  0
  2  3  2  0
  4  2  1  0
  4  5  1  0
  5  7  1  0
  5  6  1  6
  7  8  2  0
  9 10  1  0
 10 11  2  0
 12 10  1  0
 12 13  1  0
 14 13  1  6
 15 14  1  0
 15  7  1  0
 16 17  2  0
 16 14  1  0
 18 19  1  0
 19 29  2  0
 20 19  1  0
 20 21  2  0
 21 22  1  0
 22 28  2  0
 22 23  1  0
 24 23  1  1
 24 26  1  0
 24 25  1  0
 25 16  1  0
 26 27  1  0
 29 28  1  0
 30 26  2  0
M  END
$$$$
