NQY.pdb
     RDKit          3D

 30 30  0  0  1  0  0  0  0  0999 V2000
    8.9667  -13.9628   15.5844 N   0  0  0  0  0  0  0  0  0  0  0  0
    8.1060  -15.0829   15.4020 C   0  0  0  0  0  0  0  0  0  0  0  0
    7.5620  -15.2074   14.2899 O   0  0  0  0  0  0  0  0  0  0  0  0
    7.8733  -16.0513   16.4897 C   0  0  0  0  0  0  0  0  0  0  0  0
    8.6801  -15.6366   17.6910 C   0  0  2  0  0  0  0  0  0  0  0  0
   10.0741  -15.6058   17.3797 N   0  0  0  0  0  0  0  0  0  0  0  0
    8.3595  -16.4607   18.8859 C   0  0  0  0  0  0  0  0  0  0  0  0
    7.2148  -16.5981   19.3434 O   0  0  0  0  0  0  0  0  0  0  0  0
   10.3697  -21.4535   22.0283 N   0  0  0  0  0  0  0  0  0  0  0  0
    9.8544  -21.2318   20.7248 C   0  0  0  0  0  0  0  0  0  0  0  0
    9.0938  -22.1000   20.2505 O   0  0  0  0  0  0  0  0  0  0  0  0
   10.1732  -20.0335   19.9121 C   0  0  0  0  0  0  0  0  0  0  0  0
   10.3773  -18.8678   20.8169 C   0  0  0  0  0  0  0  0  0  0  0  0
    9.3055  -17.8268   20.7888 C   0  0  2  0  0  0  0  0  0  0  0  0
    9.4390  -17.1194   19.5252 N   0  0  0  0  0  0  0  0  0  0  0  0
    9.3589  -16.8792   21.9347 C   0  0  0  0  0  0  0  0  0  0  0  0
   10.4140  -16.3526   22.3621 O   0  0  0  0  0  0  0  0  0  0  0  0
    6.8623  -10.7855   27.8853 O   0  0  0  0  0  0  0  0  0  0  0  0
    6.9236  -11.6843   26.8350 C   0  0  0  0  0  0  0  0  0  0  0  0
    8.1591  -12.1317   26.3949 C   0  0  0  0  0  0  0  0  0  0  0  0
    8.2528  -13.0336   25.3432 C   0  0  0  0  0  0  0  0  0  0  0  0
    7.1335  -13.5179   24.6980 C   0  0  0  0  0  0  0  0  0  0  0  0
    7.1552  -14.4723   23.5787 C   0  0  0  0  0  0  0  0  0  0  0  0
    8.1670  -15.5794   23.7575 C   0  0  2  0  0  0  0  0  0  0  0  0
    8.1591  -16.5010   22.6416 N   0  0  0  0  0  0  0  0  0  0  0  0
    8.0630  -16.2494   25.0552 C   0  0  0  0  0  0  0  0  0  0  0  0
    8.9123  -15.9494   26.0970 O   0  0  0  0  0  0  0  0  0  0  0  0
    5.9092  -13.0640   25.1464 C   0  0  0  0  0  0  0  0  0  0  0  0
    5.8101  -12.1717   26.1866 C   0  0  0  0  0  0  0  0  0  0  0  0
    7.1829  -17.1179   25.2303 O   0  0  0  0  0  0  0  0  0  0  0  0
  1  2  1  0
  2  3  2  0
  4  2  1  0
  4  5  1  0
  5  7  1  0
  5  6  1  6
  7  8  2  0
  9 10  1  0
 10 11  2  0
 12 10  1  0
 12 13  1  0
 14 13  1  1
 15 14  1  0
 15  7  1  0
 16 17  2  0
 16 14  1  0
 18 19  1  0
 19 29  2  0
 20 19  1  0
 20 21  2  0
 21 22  1  0
 22 28  2  0
 22 23  1  0
 24 23  1  6
 24 26  1  0
 24 25  1  0
 25 16  1  0
 26 27  1  0
 29 28  1  0
 30 26  2  0
M  END
$$$$
