NQY.pdb
     RDKit          3D

 30 30  0  0  1  0  0  0  0  0999 V2000
    6.9982  -19.5933   15.7694 N   0  0  0  0  0  0  0  0  0  0  0  0
    7.0416  -18.4946   16.6748 C   0  0  0  0  0  0  0  0  0  0  0  0
    7.5329  -17.4310   16.2559 O   0  0  0  0  0  0  0  0  0  0  0  0
    6.5242  -18.6188   18.0503 C   0  0  0  0  0  0  0  0  0  0  0  0
    7.6723  -18.4895   19.0154 C   0  0  2  0  0  0  0  0  0  0  0  0
    8.4860  -19.6637   18.9958 N   0  0  0  0  0  0  0  0  0  0  0  0
    7.2121  -18.1121   20.3776 C   0  0  0  0  0  0  0  0  0  0  0  0
    6.5382  -17.1002   20.6233 O   0  0  0  0  0  0  0  0  0  0  0  0
    6.2016  -21.7673   26.7269 N   0  0  0  0  0  0  0  0  0  0  0  0
    6.7175  -21.4386   25.4465 C   0  0  0  0  0  0  0  0  0  0  0  0
    7.0575  -22.3813   24.7028 O   0  0  0  0  0  0  0  0  0  0  0  0
    6.8691  -20.0469   24.9583 C   0  0  0  0  0  0  0  0  0  0  0  0
    7.0676  -20.0643   23.4820 C   0  0  0  0  0  0  0  0  0  0  0  0
    7.2018  -18.7275   22.8277 C   0  0  2  0  0  0  0  0  0  0  0  0
    7.5754  -18.9719   21.4437 N   0  0  0  0  0  0  0  0  0  0  0  0
    8.1858  -17.8303   23.4916 C   0  0  0  0  0  0  0  0  0  0  0  0
    9.4295  -17.9758   23.4190 O   0  0  0  0  0  0  0  0  0  0  0  0
    8.2590  -12.6310   19.4008 O   0  0  0  0  0  0  0  0  0  0  0  0
    8.2613  -13.0582   20.7169 C   0  0  0  0  0  0  0  0  0  0  0  0
    7.2451  -12.6493   21.5657 C   0  0  0  0  0  0  0  0  0  0  0  0
    7.2202  -13.0614   22.8916 C   0  0  0  0  0  0  0  0  0  0  0  0
    8.1943  -13.8861   23.4157 C   0  0  0  0  0  0  0  0  0  0  0  0
    8.2337  -14.3618   24.8071 C   0  0  0  0  0  0  0  0  0  0  0  0
    8.6728  -15.8015   24.9337 C   0  0  2  0  0  0  0  0  0  0  0  0
    7.7488  -16.7052   24.2824 N   0  0  0  0  0  0  0  0  0  0  0  0
    8.9797  -16.1901   26.3116 C   0  0  0  0  0  0  0  0  0  0  0  0
    9.9830  -15.5801   27.0314 O   0  0  0  0  0  0  0  0  0  0  0  0
    9.2007  -14.2858   22.5594 C   0  0  0  0  0  0  0  0  0  0  0  0
    9.2307  -13.8814   21.2465 C   0  0  0  0  0  0  0  0  0  0  0  0
    8.3183  -17.0986   26.8564 O   0  0  0  0  0  0  0  0  0  0  0  0
  1  2  1  0
  2  3  2  0
  4  2  1  0
  4  5  1  0
  5  7  1  0
  5  6  1  1
  7  8  2  0
  9 10  1  0
 10 11  2  0
 12 10  1  0
 12 13  1  0
 14 13  1  1
 15 14  1  0
 15  7  1  0
 16 17  2  0
 16 14  1  0
 18 19  1  0
 19 29  2  0
 20 19  1  0
 20 21  2  0
 21 22  1  0
 22 28  2  0
 22 23  1  0
 24 23  1  1
 24 26  1  0
 24 25  1  0
 25 16  1  0
 26 27  1  0
 29 28  1  0
 30 26  2  0
M  END
$$$$
