VTY.pdb
     RDKit          3D

 27 27  0  0  1  0  0  0  0  0999 V2000
    8.3399  -12.0556   18.5032 C   0  0  0  0  0  0  0  0  0  0  0  0
    8.4680  -13.1058   19.5832 C   0  0  1  0  0  0  0  0  0  0  0  0
    7.3477  -13.0266   20.5898 C   0  0  0  0  0  0  0  0  0  0  0  0
    8.6386  -14.4902   19.0127 C   0  0  2  0  0  0  0  0  0  0  0  0
    7.4890  -14.7238   18.1369 N   0  0  0  0  0  0  0  0  0  0  0  0
    8.6738  -15.5509   20.0168 C   0  0  0  0  0  0  0  0  0  0  0  0
    7.5624  -16.0031   20.4294 O   0  0  0  0  0  0  0  0  0  0  0  0
    9.5429  -18.8710   19.9614 C   0  0  0  0  0  0  0  0  0  0  0  0
   10.4026  -18.3787   21.0821 C   0  0  1  0  0  0  0  0  0  0  0  0
   11.6909  -18.0921   20.5747 O   0  0  0  0  0  0  0  0  0  0  0  0
    9.8713  -17.0583   21.6553 C   0  0  2  0  0  0  0  0  0  0  0  0
    9.8366  -16.1206   20.5716 N   0  0  0  0  0  0  0  0  0  0  0  0
   10.8062  -16.6057   22.7436 C   0  0  0  0  0  0  0  0  0  0  0  0
   11.2940  -15.4482   22.7013 O   0  0  0  0  0  0  0  0  0  0  0  0
   10.2064  -14.1778   30.8658 O   0  0  0  0  0  0  0  0  0  0  0  0
   10.1499  -14.7453   29.5868 C   0  0  0  0  0  0  0  0  0  0  0  0
    9.9831  -13.9419   28.4773 C   0  0  0  0  0  0  0  0  0  0  0  0
    9.9229  -14.4632   27.2026 C   0  0  0  0  0  0  0  0  0  0  0  0
   10.0294  -15.8320   26.9897 C   0  0  0  0  0  0  0  0  0  0  0  0
    9.9387  -16.3302   25.6168 C   0  0  0  0  0  0  0  0  0  0  0  0
   11.2109  -17.0060   25.2067 C   0  0  2  0  0  0  0  0  0  0  0  0
   11.1522  -17.4613   23.8238 N   0  0  0  0  0  0  0  0  0  0  0  0
   11.6008  -18.0669   26.1255 C   0  0  0  0  0  0  0  0  0  0  0  0
   12.6766  -18.0879   26.9813 O   0  0  0  0  0  0  0  0  0  0  0  0
   10.1963  -16.6209   28.1165 C   0  0  0  0  0  0  0  0  0  0  0  0
   10.2569  -16.1033   29.3916 C   0  0  0  0  0  0  0  0  0  0  0  0
   10.8621  -19.1134   26.1479 O   0  0  0  0  0  0  0  0  0  0  0  0
  2  3  1  6
  2  1  1  0
  4  2  1  0
  4  5  1  6
  6  7  2  0
  6  4  1  0
  9  8  1  6
  9 11  1  0
 10  9  1  0
 11 12  1  6
 12  6  1  0
 13 14  2  0
 13 11  1  0
 16 15  1  0
 17 16  2  0
 18 17  1  0
 19 25  1  0
 19 18  2  0
 20 19  1  0
 21 20  1  1
 21 22  1  0
 22 13  1  0
 23 21  1  0
 24 23  1  0
 25 26  2  0
 26 16  1  0
 27 23  2  0
M  END
$$$$
