VTY.pdb
     RDKit          3D

 27 27  0  0  1  0  0  0  0  0999 V2000
    8.9899  -12.6277   18.4165 C   0  0  0  0  0  0  0  0  0  0  0  0
    8.8198  -13.4825   19.6518 C   0  0  1  0  0  0  0  0  0  0  0  0
    7.6076  -13.0854   20.4564 C   0  0  0  0  0  0  0  0  0  0  0  0
    8.8473  -14.9551   19.3326 C   0  0  2  0  0  0  0  0  0  0  0  0
    7.7376  -15.2014   18.4100 N   0  0  0  0  0  0  0  0  0  0  0  0
    8.6785  -15.8228   20.4958 C   0  0  0  0  0  0  0  0  0  0  0  0
    7.7449  -16.6811   20.4550 O   0  0  0  0  0  0  0  0  0  0  0  0
    8.9769  -18.4795   21.0610 C   0  0  0  0  0  0  0  0  0  0  0  0
    9.7630  -18.0789   22.2689 C   0  0  1  0  0  0  0  0  0  0  0  0
   11.1251  -17.9641   21.9075 O   0  0  0  0  0  0  0  0  0  0  0  0
    9.3422  -16.6927   22.7748 C   0  0  2  0  0  0  0  0  0  0  0  0
    9.4630  -15.7928   21.6655 N   0  0  0  0  0  0  0  0  0  0  0  0
   10.2600  -16.3023   23.9012 C   0  0  0  0  0  0  0  0  0  0  0  0
   11.4726  -16.0735   23.6630 O   0  0  0  0  0  0  0  0  0  0  0  0
    5.1605  -12.3597   26.8375 O   0  0  0  0  0  0  0  0  0  0  0  0
    6.4737  -12.8267   26.7023 C   0  0  0  0  0  0  0  0  0  0  0  0
    7.3511  -12.7494   27.7645 C   0  0  0  0  0  0  0  0  0  0  0  0
    8.6510  -13.1984   27.6700 C   0  0  0  0  0  0  0  0  0  0  0  0
    9.1271  -13.7507   26.4874 C   0  0  0  0  0  0  0  0  0  0  0  0
   10.5214  -14.1923   26.4392 C   0  0  0  0  0  0  0  0  0  0  0  0
   10.6077  -15.6834   26.3275 C   0  0  2  0  0  0  0  0  0  0  0  0
    9.7847  -16.1858   25.2351 N   0  0  0  0  0  0  0  0  0  0  0  0
   10.3275  -16.3550   27.5893 C   0  0  0  0  0  0  0  0  0  0  0  0
   10.9607  -16.1790   28.7968 O   0  0  0  0  0  0  0  0  0  0  0  0
    8.2306  -13.8190   25.4332 C   0  0  0  0  0  0  0  0  0  0  0  0
    6.9311  -13.3714   25.5241 C   0  0  0  0  0  0  0  0  0  0  0  0
    9.3802  -17.2175   27.5877 O   0  0  0  0  0  0  0  0  0  0  0  0
  2  3  1  6
  2  1  1  0
  4  2  1  0
  4  5  1  6
  6  7  2  0
  6  4  1  0
  9  8  1  6
  9 11  1  0
 10  9  1  0
 11 12  1  6
 12  6  1  0
 13 14  2  0
 13 11  1  0
 16 15  1  0
 17 16  2  0
 18 17  1  0
 19 25  1  0
 19 18  2  0
 20 19  1  0
 21 20  1  1
 21 22  1  0
 22 13  1  0
 23 21  1  0
 24 23  1  0
 25 26  2  0
 26 16  1  0
 27 23  2  0
M  END
$$$$
