VTY.pdb
     RDKit          3D

 27 27  0  0  1  0  0  0  0  0999 V2000
    8.3458  -11.9145   19.3178 C   0  0  0  0  0  0  0  0  0  0  0  0
    8.2127  -13.0835   20.2672 C   0  0  1  0  0  0  0  0  0  0  0  0
    6.8164  -13.2095   20.8229 C   0  0  0  0  0  0  0  0  0  0  0  0
    8.7138  -14.3687   19.6604 C   0  0  2  0  0  0  0  0  0  0  0  0
    7.8848  -14.6228   18.4809 N   0  0  0  0  0  0  0  0  0  0  0  0
    8.6181  -15.5262   20.5469 C   0  0  0  0  0  0  0  0  0  0  0  0
    7.8974  -16.4979   20.1646 O   0  0  0  0  0  0  0  0  0  0  0  0
    9.1692  -18.2492   20.6689 C   0  0  0  0  0  0  0  0  0  0  0  0
    9.7775  -17.9780   22.0083 C   0  0  1  0  0  0  0  0  0  0  0  0
   11.1347  -17.6250   21.8282 O   0  0  0  0  0  0  0  0  0  0  0  0
    9.1147  -16.7732   22.6891 C   0  0  2  0  0  0  0  0  0  0  0  0
    9.2573  -15.6620   21.7949 N   0  0  0  0  0  0  0  0  0  0  0  0
    9.8192  -16.5217   23.9944 C   0  0  0  0  0  0  0  0  0  0  0  0
   10.8918  -15.8668   24.0048 O   0  0  0  0  0  0  0  0  0  0  0  0
    6.3551  -11.1488   25.3183 O   0  0  0  0  0  0  0  0  0  0  0  0
    6.8366  -12.3768   25.7886 C   0  0  0  0  0  0  0  0  0  0  0  0
    7.9152  -12.4164   26.6485 C   0  0  0  0  0  0  0  0  0  0  0  0
    8.4177  -13.6052   27.1327 C   0  0  0  0  0  0  0  0  0  0  0  0
    7.8480  -14.8183   26.7667 C   0  0  0  0  0  0  0  0  0  0  0  0
    8.4358  -16.0494   27.2962 C   0  0  0  0  0  0  0  0  0  0  0  0
    9.6525  -16.4413   26.5156 C   0  0  2  0  0  0  0  0  0  0  0  0
    9.2971  -17.0102   25.2222 N   0  0  0  0  0  0  0  0  0  0  0  0
   10.5492  -17.3026   27.2746 C   0  0  0  0  0  0  0  0  0  0  0  0
   11.4062  -16.9433   28.2877 O   0  0  0  0  0  0  0  0  0  0  0  0
    6.7665  -14.7567   25.9028 C   0  0  0  0  0  0  0  0  0  0  0  0
    6.2618  -13.5706   25.4170 C   0  0  0  0  0  0  0  0  0  0  0  0
   10.5509  -18.5471   26.9706 O   0  0  0  0  0  0  0  0  0  0  0  0
  2  3  1  6
  2  1  1  0
  4  2  1  0
  4  5  1  6
  6  7  2  0
  6  4  1  0
  9  8  1  6
  9 11  1  0
 10  9  1  0
 11 12  1  6
 12  6  1  0
 13 14  2  0
 13 11  1  0
 16 15  1  0
 17 16  2  0
 18 17  1  0
 19 25  1  0
 19 18  2  0
 20 19  1  0
 21 20  1  1
 21 22  1  0
 22 13  1  0
 23 21  1  0
 24 23  1  0
 25 26  2  0
 26 16  1  0
 27 23  2  0
M  END
$$$$
