VTY.pdb
     RDKit          3D

 27 27  0  0  1  0  0  0  0  0999 V2000
    8.7875  -12.1560   18.9457 C   0  0  0  0  0  0  0  0  0  0  0  0
    8.4874  -13.0739   20.1089 C   0  0  1  0  0  0  0  0  0  0  0  0
    7.1499  -12.7760   20.7388 C   0  0  0  0  0  0  0  0  0  0  0  0
    8.6450  -14.5270   19.7419 C   0  0  2  0  0  0  0  0  0  0  0  0
    7.7135  -14.7815   18.6415 N   0  0  0  0  0  0  0  0  0  0  0  0
    8.3376  -15.4551   20.8276 C   0  0  0  0  0  0  0  0  0  0  0  0
    7.1313  -15.8271   20.9555 O   0  0  0  0  0  0  0  0  0  0  0  0
    8.8513  -18.8035   21.3317 C   0  0  0  0  0  0  0  0  0  0  0  0
    9.5146  -18.2140   22.5358 C   0  0  1  0  0  0  0  0  0  0  0  0
   10.8852  -18.0173   22.2493 O   0  0  0  0  0  0  0  0  0  0  0  0
    8.9481  -16.8258   22.8621 C   0  0  2  0  0  0  0  0  0  0  0  0
    9.2646  -15.9776   21.7508 N   0  0  0  0  0  0  0  0  0  0  0  0
    9.5966  -16.3368   24.1285 C   0  0  0  0  0  0  0  0  0  0  0  0
   10.6389  -15.6377   24.0623 O   0  0  0  0  0  0  0  0  0  0  0  0
    6.0989  -10.9996   25.6272 O   0  0  0  0  0  0  0  0  0  0  0  0
    6.6767  -12.1811   26.1080 C   0  0  0  0  0  0  0  0  0  0  0  0
    7.9214  -12.1533   26.7031 C   0  0  0  0  0  0  0  0  0  0  0  0
    8.5227  -13.2949   27.1885 C   0  0  0  0  0  0  0  0  0  0  0  0
    7.8876  -14.5269   27.0936 C   0  0  0  0  0  0  0  0  0  0  0  0
    8.5822  -15.7076   27.6083 C   0  0  0  0  0  0  0  0  0  0  0  0
    9.6374  -16.1686   26.6506 C   0  0  2  0  0  0  0  0  0  0  0  0
    9.0548  -16.6488   25.4044 N   0  0  0  0  0  0  0  0  0  0  0  0
   10.5489  -17.1356   27.2472 C   0  0  0  0  0  0  0  0  0  0  0  0
   11.4628  -16.9238   28.2522 O   0  0  0  0  0  0  0  0  0  0  0  0
    6.6390  -14.5332   26.4929 C   0  0  0  0  0  0  0  0  0  0  0  0
    6.0353  -13.3945   26.0068 C   0  0  0  0  0  0  0  0  0  0  0  0
   10.5056  -18.3310   26.7886 O   0  0  0  0  0  0  0  0  0  0  0  0
  2  3  1  6
  2  1  1  0
  4  2  1  0
  4  5  1  6
  6  7  2  0
  6  4  1  0
  9  8  1  6
  9 11  1  0
 10  9  1  0
 11 12  1  6
 12  6  1  0
 13 14  2  0
 13 11  1  0
 16 15  1  0
 17 16  2  0
 18 17  1  0
 19 25  1  0
 19 18  2  0
 20 19  1  0
 21 20  1  1
 21 22  1  0
 22 13  1  0
 23 21  1  0
 24 23  1  0
 25 26  2  0
 26 16  1  0
 27 23  2  0
M  END
$$$$
