VTY.pdb
     RDKit          3D

 27 27  0  0  1  0  0  0  0  0999 V2000
    9.6356  -20.1829   17.6844 C   0  0  0  0  0  0  0  0  0  0  0  0
    9.7298  -19.0606   18.6931 C   0  0  1  0  0  0  0  0  0  0  0  0
   10.8651  -19.2625   19.6649 C   0  0  0  0  0  0  0  0  0  0  0  0
    9.7639  -17.7056   18.0345 C   0  0  2  0  0  0  0  0  0  0  0  0
   10.9322  -17.7012   17.1523 N   0  0  0  0  0  0  0  0  0  0  0  0
    9.8897  -16.5893   18.9686 C   0  0  0  0  0  0  0  0  0  0  0  0
   11.0571  -16.1499   19.2014 O   0  0  0  0  0  0  0  0  0  0  0  0
    7.6267  -13.3215   19.4129 C   0  0  0  0  0  0  0  0  0  0  0  0
    7.7018  -14.1238   20.6731 C   0  0  1  0  0  0  0  0  0  0  0  0
    6.6048  -15.0151   20.7108 O   0  0  0  0  0  0  0  0  0  0  0  0
    8.9600  -15.0016   20.7023 C   0  0  2  0  0  0  0  0  0  0  0  0
    8.8263  -15.9527   19.6382 N   0  0  0  0  0  0  0  0  0  0  0  0
    9.0299  -15.6825   22.0420 C   0  0  0  0  0  0  0  0  0  0  0  0
    8.6764  -16.8840   22.1469 O   0  0  0  0  0  0  0  0  0  0  0  0
    5.9891  -10.7981   28.2770 O   0  0  0  0  0  0  0  0  0  0  0  0
    6.3612  -11.7377   27.3076 C   0  0  0  0  0  0  0  0  0  0  0  0
    5.6488  -12.9113   27.1685 C   0  0  0  0  0  0  0  0  0  0  0  0
    5.9843  -13.8600   26.2263 C   0  0  0  0  0  0  0  0  0  0  0  0
    7.0643  -13.6638   25.3747 C   0  0  0  0  0  0  0  0  0  0  0  0
    7.3856  -14.7139   24.4074 C   0  0  0  0  0  0  0  0  0  0  0  0
    8.8307  -15.0979   24.4934 C   0  0  2  0  0  0  0  0  0  0  0  0
    9.4888  -14.9949   23.1975 N   0  0  0  0  0  0  0  0  0  0  0  0
    9.0261  -16.4009   25.1145 C   0  0  0  0  0  0  0  0  0  0  0  0
    8.5011  -17.6093   24.7216 O   0  0  0  0  0  0  0  0  0  0  0  0
    7.7663  -12.4795   25.5307 C   0  0  0  0  0  0  0  0  0  0  0  0
    7.4338  -11.5294   26.4710 C   0  0  0  0  0  0  0  0  0  0  0  0
    9.7738  -16.4401   26.1540 O   0  0  0  0  0  0  0  0  0  0  0  0
  2  3  1  6
  2  1  1  0
  4  2  1  0
  4  5  1  6
  6  7  2  0
  6  4  1  0
  9  8  1  6
  9 11  1  0
 10  9  1  0
 11 12  1  6
 12  6  1  0
 13 14  2  0
 13 11  1  0
 16 15  1  0
 17 16  2  0
 18 17  1  0
 19 25  1  0
 19 18  2  0
 20 19  1  0
 21 20  1  6
 21 22  1  0
 22 13  1  0
 23 21  1  0
 24 23  1  0
 25 26  2  0
 26 16  1  0
 27 23  2  0
M  END
$$$$
