VTY.pdb
     RDKit          3D

 27 27  0  0  1  0  0  0  0  0999 V2000
    9.0419  -20.5318   18.3235 C   0  0  0  0  0  0  0  0  0  0  0  0
    9.3416  -19.4090   19.2905 C   0  0  1  0  0  0  0  0  0  0  0  0
   10.6830  -19.5764   19.9591 C   0  0  0  0  0  0  0  0  0  0  0  0
    9.1751  -18.0523   18.6558 C   0  0  2  0  0  0  0  0  0  0  0  0
   10.0963  -18.0091   17.5188 N   0  0  0  0  0  0  0  0  0  0  0  0
    9.4878  -16.9343   19.5428 C   0  0  0  0  0  0  0  0  0  0  0  0
   10.6825  -16.5069   19.5466 O   0  0  0  0  0  0  0  0  0  0  0  0
    7.6089  -13.5823   20.0926 C   0  0  0  0  0  0  0  0  0  0  0  0
    7.7541  -14.2861   21.4045 C   0  0  1  0  0  0  0  0  0  0  0  0
    6.5874  -15.0483   21.6431 O   0  0  0  0  0  0  0  0  0  0  0  0
    8.9149  -15.2892   21.3748 C   0  0  2  0  0  0  0  0  0  0  0  0
    8.5778  -16.2839   20.3992 N   0  0  0  0  0  0  0  0  0  0  0  0
    9.0546  -15.8906   22.7467 C   0  0  0  0  0  0  0  0  0  0  0  0
    8.6166  -17.0482   22.9646 O   0  0  0  0  0  0  0  0  0  0  0  0
    5.7183  -10.5339   26.8788 O   0  0  0  0  0  0  0  0  0  0  0  0
    6.3146  -11.7563   26.5453 C   0  0  0  0  0  0  0  0  0  0  0  0
    5.5317  -12.8594   26.2725 C   0  0  0  0  0  0  0  0  0  0  0  0
    6.0816  -14.0791   25.9406 C   0  0  0  0  0  0  0  0  0  0  0  0
    7.4596  -14.2406   25.8688 C   0  0  0  0  0  0  0  0  0  0  0  0
    7.9871  -15.5631   25.5310 C   0  0  0  0  0  0  0  0  0  0  0  0
    9.4486  -15.4917   25.2118 C   0  0  2  0  0  0  0  0  0  0  0  0
    9.6739  -15.1761   23.8072 N   0  0  0  0  0  0  0  0  0  0  0  0
   10.1718  -16.6824   25.6372 C   0  0  0  0  0  0  0  0  0  0  0  0
   10.3545  -17.1449   26.9189 O   0  0  0  0  0  0  0  0  0  0  0  0
    8.2276  -13.1212   26.1464 C   0  0  0  0  0  0  0  0  0  0  0  0
    7.6815  -11.9010   26.4783 C   0  0  0  0  0  0  0  0  0  0  0  0
   10.7090  -17.3929   24.7164 O   0  0  0  0  0  0  0  0  0  0  0  0
  2  3  1  6
  2  1  1  0
  4  2  1  0
  4  5  1  6
  6  7  2  0
  6  4  1  0
  9  8  1  6
  9 11  1  0
 10  9  1  0
 11 12  1  6
 12  6  1  0
 13 14  2  0
 13 11  1  0
 16 15  1  0
 17 16  2  0
 18 17  1  0
 19 25  1  0
 19 18  2  0
 20 19  1  0
 21 20  1  6
 21 22  1  0
 22 13  1  0
 23 21  1  0
 24 23  1  0
 25 26  2  0
 26 16  1  0
 27 23  2  0
M  END
$$$$
