VTY.pdb
     RDKit          3D

 27 27  0  0  1  0  0  0  0  0999 V2000
    7.0267  -12.9634   19.7915 C   0  0  0  0  0  0  0  0  0  0  0  0
    8.4225  -13.2557   19.2897 C   0  0  1  0  0  0  0  0  0  0  0  0
    9.4799  -12.5647   20.1136 C   0  0  0  0  0  0  0  0  0  0  0  0
    8.6758  -14.7340   19.1424 C   0  0  2  0  0  0  0  0  0  0  0  0
    7.7087  -15.2258   18.1595 N   0  0  0  0  0  0  0  0  0  0  0  0
    8.5040  -15.4964   20.3768 C   0  0  0  0  0  0  0  0  0  0  0  0
    7.5216  -16.2971   20.4381 O   0  0  0  0  0  0  0  0  0  0  0  0
    8.9116  -18.0081   20.7675 C   0  0  0  0  0  0  0  0  0  0  0  0
    9.7099  -17.7252   22.0004 C   0  0  1  0  0  0  0  0  0  0  0  0
   11.0772  -17.6479   21.6490 O   0  0  0  0  0  0  0  0  0  0  0  0
    9.3496  -16.3585   22.5977 C   0  0  2  0  0  0  0  0  0  0  0  0
    9.3350  -15.4228   21.5119 N   0  0  0  0  0  0  0  0  0  0  0  0
   10.3945  -15.9990   23.6187 C   0  0  0  0  0  0  0  0  0  0  0  0
   11.5732  -16.4096   23.4716 O   0  0  0  0  0  0  0  0  0  0  0  0
    5.6665  -10.9493   26.4293 O   0  0  0  0  0  0  0  0  0  0  0  0
    6.3837  -12.1518   26.4483 C   0  0  0  0  0  0  0  0  0  0  0  0
    5.8940  -13.2629   25.7927 C   0  0  0  0  0  0  0  0  0  0  0  0
    6.5710  -14.4638   25.7886 C   0  0  0  0  0  0  0  0  0  0  0  0
    7.7839  -14.5972   26.4527 C   0  0  0  0  0  0  0  0  0  0  0  0
    8.4479  -15.9011   26.4307 C   0  0  0  0  0  0  0  0  0  0  0  0
    9.8983  -15.7582   26.0858 C   0  0  2  0  0  0  0  0  0  0  0  0
   10.0777  -15.2017   24.7512 N   0  0  0  0  0  0  0  0  0  0  0  0
   10.6421  -16.9960   26.2768 C   0  0  0  0  0  0  0  0  0  0  0  0
   11.6038  -17.2643   27.2220 O   0  0  0  0  0  0  0  0  0  0  0  0
    8.2580  -13.4702   27.1046 C   0  0  0  0  0  0  0  0  0  0  0  0
    7.5843  -12.2688   27.1107 C   0  0  0  0  0  0  0  0  0  0  0  0
   10.3799  -17.9585   25.4731 O   0  0  0  0  0  0  0  0  0  0  0  0
  2  3  1  1
  2  1  1  0
  4  2  1  0
  4  5  1  6
  6  7  2  0
  6  4  1  0
  9  8  1  6
  9 11  1  0
 10  9  1  0
 11 12  1  6
 12  6  1  0
 13 14  2  0
 13 11  1  0
 16 15  1  0
 17 16  2  0
 18 17  1  0
 19 25  1  0
 19 18  2  0
 20 19  1  0
 21 20  1  6
 21 22  1  0
 22 13  1  0
 23 21  1  0
 24 23  1  0
 25 26  2  0
 26 16  1  0
 27 23  2  0
M  END
$$$$
