VTY.pdb
     RDKit          3D

 27 27  0  0  1  0  0  0  0  0999 V2000
    8.7187  -12.3691   19.1114 C   0  0  0  0  0  0  0  0  0  0  0  0
    8.5604  -13.2042   20.3617 C   0  0  1  0  0  0  0  0  0  0  0  0
    7.2993  -12.8658   21.1163 C   0  0  0  0  0  0  0  0  0  0  0  0
    8.6901  -14.6791   20.0806 C   0  0  2  0  0  0  0  0  0  0  0  0
    7.6356  -15.0142   19.1220 N   0  0  0  0  0  0  0  0  0  0  0  0
    8.5276  -15.5291   21.2577 C   0  0  0  0  0  0  0  0  0  0  0  0
    7.5965  -16.3908   21.2331 O   0  0  0  0  0  0  0  0  0  0  0  0
    8.6627  -18.1849   21.9475 C   0  0  0  0  0  0  0  0  0  0  0  0
    9.5358  -17.7580   23.0846 C   0  0  1  0  0  0  0  0  0  0  0  0
   10.8734  -17.6925   22.6310 O   0  0  0  0  0  0  0  0  0  0  0  0
    9.1815  -16.3428   23.5601 C   0  0  2  0  0  0  0  0  0  0  0  0
    9.3155  -15.4785   22.4244 N   0  0  0  0  0  0  0  0  0  0  0  0
   10.1371  -15.9601   24.6573 C   0  0  0  0  0  0  0  0  0  0  0  0
   11.3167  -15.6370   24.3683 O   0  0  0  0  0  0  0  0  0  0  0  0
    5.2173  -12.5325   25.7312 O   0  0  0  0  0  0  0  0  0  0  0  0
    6.4365  -12.9840   26.2514 C   0  0  0  0  0  0  0  0  0  0  0  0
    7.6273  -12.4957   25.7536 C   0  0  0  0  0  0  0  0  0  0  0  0
    8.8470  -12.9156   26.2397 C   0  0  0  0  0  0  0  0  0  0  0  0
    8.9190  -13.8561   27.2597 C   0  0  0  0  0  0  0  0  0  0  0  0
   10.2414  -14.2789   27.7222 C   0  0  0  0  0  0  0  0  0  0  0  0
   10.6303  -15.5887   27.1088 C   0  0  2  0  0  0  0  0  0  0  0  0
    9.7344  -15.9556   26.0198 N   0  0  0  0  0  0  0  0  0  0  0  0
   10.7674  -16.6496   28.0975 C   0  0  0  0  0  0  0  0  0  0  0  0
   11.6383  -16.7044   29.1598 O   0  0  0  0  0  0  0  0  0  0  0  0
    7.7124  -14.3337   27.7453 C   0  0  0  0  0  0  0  0  0  0  0  0
    6.4919  -13.9164   27.2620 C   0  0  0  0  0  0  0  0  0  0  0  0
    9.9901  -17.6603   27.9733 O   0  0  0  0  0  0  0  0  0  0  0  0
  2  3  1  6
  2  1  1  0
  4  2  1  0
  4  5  1  6
  6  7  2  0
  6  4  1  0
  9  8  1  6
  9 11  1  0
 10  9  1  0
 11 12  1  6
 12  6  1  0
 13 14  2  0
 13 11  1  0
 16 15  1  0
 17 16  2  0
 18 17  1  0
 19 25  1  0
 19 18  2  0
 20 19  1  0
 21 20  1  1
 21 22  1  0
 22 13  1  0
 23 21  1  0
 24 23  1  0
 25 26  2  0
 26 16  1  0
 27 23  2  0
M  END
$$$$
