VTY.pdb
     RDKit          3D

 27 27  0  0  1  0  0  0  0  0999 V2000
   11.8348  -17.5574   18.3585 C   0  0  0  0  0  0  0  0  0  0  0  0
   10.6796  -18.5136   18.5507 C   0  0  1  0  0  0  0  0  0  0  0  0
   10.6921  -19.1544   19.9159 C   0  0  0  0  0  0  0  0  0  0  0  0
    9.3539  -17.8773   18.2207 C   0  0  2  0  0  0  0  0  0  0  0  0
    9.4511  -17.4070   16.8377 N   0  0  0  0  0  0  0  0  0  0  0  0
    9.0086  -16.7393   19.0694 C   0  0  0  0  0  0  0  0  0  0  0  0
    8.7121  -15.6484   18.4933 O   0  0  0  0  0  0  0  0  0  0  0  0
    6.7440  -15.1954   19.5151 C   0  0  0  0  0  0  0  0  0  0  0  0
    6.9305  -15.6088   20.9404 C   0  0  1  0  0  0  0  0  0  0  0  0
    6.3984  -16.9077   21.1105 O   0  0  0  0  0  0  0  0  0  0  0  0
    8.4181  -15.7114   21.3022 C   0  0  2  0  0  0  0  0  0  0  0  0
    8.9747  -16.7435   20.4777 N   0  0  0  0  0  0  0  0  0  0  0  0
    8.5264  -16.0567   22.7625 C   0  0  0  0  0  0  0  0  0  0  0  0
    8.4092  -17.2535   23.1277 O   0  0  0  0  0  0  0  0  0  0  0  0
   10.8300  -15.5564   31.2121 O   0  0  0  0  0  0  0  0  0  0  0  0
   10.4199  -15.1749   29.9287 C   0  0  0  0  0  0  0  0  0  0  0  0
   10.8355  -15.8916   28.8251 C   0  0  0  0  0  0  0  0  0  0  0  0
   10.4531  -15.5471   27.5463 C   0  0  0  0  0  0  0  0  0  0  0  0
    9.6261  -14.4534   27.3230 C   0  0  0  0  0  0  0  0  0  0  0  0
    9.2687  -14.1233   25.9429 C   0  0  0  0  0  0  0  0  0  0  0  0
    9.0056  -15.3638   25.1460 C   0  0  2  0  0  0  0  0  0  0  0  0
    8.7594  -15.0556   23.7434 N   0  0  0  0  0  0  0  0  0  0  0  0
    7.9547  -16.1882   25.7271 C   0  0  0  0  0  0  0  0  0  0  0  0
    8.0984  -17.3117   26.5063 O   0  0  0  0  0  0  0  0  0  0  0  0
    9.2201  -13.7473   28.4440 C   0  0  0  0  0  0  0  0  0  0  0  0
    9.6003  -14.0887   29.7231 C   0  0  0  0  0  0  0  0  0  0  0  0
    6.7458  -15.8365   25.4902 O   0  0  0  0  0  0  0  0  0  0  0  0
  2  3  1  1
  2  1  1  0
  4  2  1  0
  4  5  1  6
  6  7  2  0
  6  4  1  0
  9  8  1  6
  9 11  1  0
 10  9  1  0
 11 12  1  6
 12  6  1  0
 13 14  2  0
 13 11  1  0
 16 15  1  0
 17 16  2  0
 18 17  1  0
 19 25  1  0
 19 18  2  0
 20 19  1  0
 21 20  1  1
 21 22  1  0
 22 13  1  0
 23 21  1  0
 24 23  1  0
 25 26  2  0
 26 16  1  0
 27 23  2  0
M  END
$$$$
