VTY.pdb
     RDKit          3D

 27 27  0  0  1  0  0  0  0  0999 V2000
    7.0726  -13.7715   17.9472 C   0  0  0  0  0  0  0  0  0  0  0  0
    8.4531  -13.2730   18.3093 C   0  0  1  0  0  0  0  0  0  0  0  0
    8.4215  -11.8825   18.8922 C   0  0  0  0  0  0  0  0  0  0  0  0
    9.2003  -14.2502   19.1799 C   0  0  2  0  0  0  0  0  0  0  0  0
    9.3264  -15.4858   18.4049 N   0  0  0  0  0  0  0  0  0  0  0  0
    8.5291  -14.5645   20.4390 C   0  0  0  0  0  0  0  0  0  0  0  0
    8.4372  -13.6374   21.3004 O   0  0  0  0  0  0  0  0  0  0  0  0
    5.5364  -17.3480   20.6362 C   0  0  0  0  0  0  0  0  0  0  0  0
    6.5214  -17.4327   21.7588 C   0  0  1  0  0  0  0  0  0  0  0  0
    7.5335  -18.3552   21.4070 O   0  0  0  0  0  0  0  0  0  0  0  0
    7.2318  -16.0909   21.9810 C   0  0  2  0  0  0  0  0  0  0  0  0
    7.9713  -15.8108   20.7854 N   0  0  0  0  0  0  0  0  0  0  0  0
    8.1427  -16.2301   23.1703 C   0  0  0  0  0  0  0  0  0  0  0  0
    9.3601  -16.4869   22.9930 O   0  0  0  0  0  0  0  0  0  0  0  0
   11.5426  -15.1119   31.2097 O   0  0  0  0  0  0  0  0  0  0  0  0
   10.9029  -15.0678   29.9648 C   0  0  0  0  0  0  0  0  0  0  0  0
    9.9145  -14.1352   29.7246 C   0  0  0  0  0  0  0  0  0  0  0  0
    9.2622  -14.0607   28.5124 C   0  0  0  0  0  0  0  0  0  0  0  0
    9.5821  -14.9327   27.4793 C   0  0  0  0  0  0  0  0  0  0  0  0
    8.8430  -14.8198   26.2214 C   0  0  0  0  0  0  0  0  0  0  0  0
    8.5130  -16.1728   25.6704 C   0  0  2  0  0  0  0  0  0  0  0  0
    7.6556  -16.0769   24.4961 N   0  0  0  0  0  0  0  0  0  0  0  0
    7.9724  -17.0710   26.6818 C   0  0  0  0  0  0  0  0  0  0  0  0
    8.6649  -17.9205   27.5117 O   0  0  0  0  0  0  0  0  0  0  0  0
   10.5768  -15.8612   27.7409 C   0  0  0  0  0  0  0  0  0  0  0  0
   11.2306  -15.9385   28.9508 C   0  0  0  0  0  0  0  0  0  0  0  0
    6.6993  -17.0820   26.8248 O   0  0  0  0  0  0  0  0  0  0  0  0
  2  3  1  1
  2  1  1  0
  4  2  1  0
  4  5  1  6
  6  7  2  0
  6  4  1  0
  9  8  1  6
  9 11  1  0
 10  9  1  0
 11 12  1  6
 12  6  1  0
 13 14  2  0
 13 11  1  0
 16 15  1  0
 17 16  2  0
 18 17  1  0
 19 25  1  0
 19 18  2  0
 20 19  1  0
 21 20  1  1
 21 22  1  0
 22 13  1  0
 23 21  1  0
 24 23  1  0
 25 26  2  0
 26 16  1  0
 27 23  2  0
M  END
$$$$
