VTY.pdb
     RDKit          3D

 27 27  0  0  1  0  0  0  0  0999 V2000
    8.6606  -20.2173   16.6676 C   0  0  0  0  0  0  0  0  0  0  0  0
    8.9999  -19.1110   17.6405 C   0  0  1  0  0  0  0  0  0  0  0  0
   10.2428  -19.4159   18.4384 C   0  0  0  0  0  0  0  0  0  0  0  0
    9.0570  -17.7623   16.9704 C   0  0  2  0  0  0  0  0  0  0  0  0
   10.1066  -17.8472   15.9534 N   0  0  0  0  0  0  0  0  0  0  0  0
    9.3799  -16.6592   17.8725 C   0  0  0  0  0  0  0  0  0  0  0  0
   10.6061  -16.4430   18.1169 O   0  0  0  0  0  0  0  0  0  0  0  0
    7.7028  -13.0243   20.8558 C   0  0  0  0  0  0  0  0  0  0  0  0
    7.5191  -13.9914   19.7296 C   0  0  1  0  0  0  0  0  0  0  0  0
    7.4506  -13.2687   18.5163 O   0  0  0  0  0  0  0  0  0  0  0  0
    8.7267  -14.9284   19.5953 C   0  0  2  0  0  0  0  0  0  0  0  0
    8.4479  -15.8089   18.4991 N   0  0  0  0  0  0  0  0  0  0  0  0
    8.8807  -15.6882   20.8847 C   0  0  0  0  0  0  0  0  0  0  0  0
    8.1200  -16.6586   21.1279 O   0  0  0  0  0  0  0  0  0  0  0  0
   14.1340  -19.5496   19.6578 O   0  0  0  0  0  0  0  0  0  0  0  0
   13.4698  -18.7614   20.6058 C   0  0  0  0  0  0  0  0  0  0  0  0
   13.4497  -17.3877   20.4754 C   0  0  0  0  0  0  0  0  0  0  0  0
   12.8067  -16.5786   21.3877 C   0  0  0  0  0  0  0  0  0  0  0  0
   12.1493  -17.1259   22.4824 C   0  0  0  0  0  0  0  0  0  0  0  0
   11.5009  -16.2171   23.4286 C   0  0  0  0  0  0  0  0  0  0  0  0
   10.0506  -16.0439   23.0972 C   0  0  2  0  0  0  0  0  0  0  0  0
    9.8715  -15.3320   21.8386 N   0  0  0  0  0  0  0  0  0  0  0  0
    9.2966  -15.4422   24.1887 C   0  0  0  0  0  0  0  0  0  0  0  0
    9.0007  -15.9931   25.4130 O   0  0  0  0  0  0  0  0  0  0  0  0
   12.1815  -18.5065   22.5950 C   0  0  0  0  0  0  0  0  0  0  0  0
   12.8229  -19.3180   21.6854 C   0  0  0  0  0  0  0  0  0  0  0  0
    8.8476  -14.2577   23.9976 O   0  0  0  0  0  0  0  0  0  0  0  0
  2  3  1  6
  2  1  1  0
  4  2  1  0
  4  5  1  6
  6  7  2  0
  6  4  1  0
  9  8  1  1
  9 11  1  0
 10  9  1  0
 11 12  1  6
 12  6  1  0
 13 14  2  0
 13 11  1  0
 16 15  1  0
 17 16  2  0
 18 17  1  0
 19 25  1  0
 19 18  2  0
 20 19  1  0
 21 20  1  1
 21 22  1  0
 22 13  1  0
 23 21  1  0
 24 23  1  0
 25 26  2  0
 26 16  1  0
 27 23  2  0
M  END
$$$$
