VTY.pdb
     RDKit          3D

 27 27  0  0  1  0  0  0  0  0999 V2000
    8.4236  -12.7896   20.3161 C   0  0  0  0  0  0  0  0  0  0  0  0
    7.9973  -13.1542   18.9122 C   0  0  1  0  0  0  0  0  0  0  0  0
    8.1899  -12.0136   17.9445 C   0  0  0  0  0  0  0  0  0  0  0  0
    8.6385  -14.4326   18.4372 C   0  0  2  0  0  0  0  0  0  0  0  0
    8.0515  -14.7315   17.1297 N   0  0  0  0  0  0  0  0  0  0  0  0
    8.4112  -15.5781   19.3151 C   0  0  0  0  0  0  0  0  0  0  0  0
    7.2196  -15.9978   19.4328 O   0  0  0  0  0  0  0  0  0  0  0  0
    9.3309  -19.0561   19.4915 C   0  0  0  0  0  0  0  0  0  0  0  0
    9.8625  -18.4871   20.7686 C   0  0  1  0  0  0  0  0  0  0  0  0
   11.2269  -18.1627   20.5886 O   0  0  0  0  0  0  0  0  0  0  0  0
    9.1599  -17.1716   21.1293 C   0  0  2  0  0  0  0  0  0  0  0  0
    9.4010  -16.2630   20.0471 N   0  0  0  0  0  0  0  0  0  0  0  0
    9.7466  -16.6603   22.4168 C   0  0  0  0  0  0  0  0  0  0  0  0
   10.7962  -15.9696   22.3896 O   0  0  0  0  0  0  0  0  0  0  0  0
   10.9256  -14.1383   30.6745 O   0  0  0  0  0  0  0  0  0  0  0  0
   10.4393  -14.3858   29.3849 C   0  0  0  0  0  0  0  0  0  0  0  0
   11.1017  -15.2615   28.5491 C   0  0  0  0  0  0  0  0  0  0  0  0
   10.6540  -15.5308   27.2734 C   0  0  0  0  0  0  0  0  0  0  0  0
    9.5066  -14.9220   26.7805 C   0  0  0  0  0  0  0  0  0  0  0  0
    9.0898  -15.2309   25.4122 C   0  0  0  0  0  0  0  0  0  0  0  0
    9.7065  -16.5115   24.9401 C   0  0  2  0  0  0  0  0  0  0  0  0
    9.1380  -16.9418   23.6694 N   0  0  0  0  0  0  0  0  0  0  0  0
    9.6628  -17.5585   25.9519 C   0  0  0  0  0  0  0  0  0  0  0  0
   10.6483  -17.9112   26.8433 O   0  0  0  0  0  0  0  0  0  0  0  0
    8.8565  -14.0464   27.6352 C   0  0  0  0  0  0  0  0  0  0  0  0
    9.3010  -13.7750   28.9104 C   0  0  0  0  0  0  0  0  0  0  0  0
    8.5822  -18.2421   26.0307 O   0  0  0  0  0  0  0  0  0  0  0  0
  2  3  1  6
  2  1  1  0
  4  2  1  0
  4  5  1  6
  6  7  2  0
  6  4  1  0
  9  8  1  6
  9 11  1  0
 10  9  1  0
 11 12  1  6
 12  6  1  0
 13 14  2  0
 13 11  1  0
 16 15  1  0
 17 16  2  0
 18 17  1  0
 19 25  1  0
 19 18  2  0
 20 19  1  0
 21 20  1  1
 21 22  1  0
 22 13  1  0
 23 21  1  0
 24 23  1  0
 25 26  2  0
 26 16  1  0
 27 23  2  0
M  END
$$$$
