VTY.pdb
     RDKit          3D

 27 27  0  0  1  0  0  0  0  0999 V2000
    6.0791  -10.9819   25.6650 C   0  0  0  0  0  0  0  0  0  0  0  0
    6.9933  -12.1561   25.3982 C   0  0  1  0  0  0  0  0  0  0  0  0
    8.1336  -12.2249   26.3827 C   0  0  0  0  0  0  0  0  0  0  0  0
    6.2356  -13.4549   25.2964 C   0  0  2  0  0  0  0  0  0  0  0  0
    5.5179  -13.6181   26.5619 N   0  0  0  0  0  0  0  0  0  0  0  0
    7.0831  -14.6277   25.0947 C   0  0  0  0  0  0  0  0  0  0  0  0
    7.4894  -15.2408   26.1286 O   0  0  0  0  0  0  0  0  0  0  0  0
    6.8729  -17.0324   21.9167 C   0  0  0  0  0  0  0  0  0  0  0  0
    8.2955  -16.6750   22.2096 C   0  0  1  0  0  0  0  0  0  0  0  0
    8.6720  -15.5924   21.3819 O   0  0  0  0  0  0  0  0  0  0  0  0
    8.4615  -16.1807   23.6527 C   0  0  2  0  0  0  0  0  0  0  0  0
    7.4925  -15.1428   23.8490 N   0  0  0  0  0  0  0  0  0  0  0  0
    9.8639  -15.6609   23.8156 C   0  0  0  0  0  0  0  0  0  0  0  0
   10.1609  -14.5251   23.3670 O   0  0  0  0  0  0  0  0  0  0  0  0
   10.1718  -17.1377   30.5508 O   0  0  0  0  0  0  0  0  0  0  0  0
   10.6693  -16.5666   29.3730 C   0  0  0  0  0  0  0  0  0  0  0  0
   11.6484  -17.2137   28.6472 C   0  0  0  0  0  0  0  0  0  0  0  0
   12.1629  -16.6835   27.4833 C   0  0  0  0  0  0  0  0  0  0  0  0
   11.7073  -15.4648   26.9963 C   0  0  0  0  0  0  0  0  0  0  0  0
   12.3039  -14.9415   25.7668 C   0  0  0  0  0  0  0  0  0  0  0  0
   12.2281  -15.9505   24.6626 C   0  0  2  0  0  0  0  0  0  0  0  0
   10.8654  -16.4286   24.4684 N   0  0  0  0  0  0  0  0  0  0  0  0
   13.1802  -17.0394   24.8349 C   0  0  0  0  0  0  0  0  0  0  0  0
   12.9113  -18.3807   24.9714 O   0  0  0  0  0  0  0  0  0  0  0  0
   10.7244  -14.8314   27.7397 C   0  0  0  0  0  0  0  0  0  0  0  0
   10.2080  -15.3583   28.9029 C   0  0  0  0  0  0  0  0  0  0  0  0
   14.4213  -16.7232   24.8667 O   0  0  0  0  0  0  0  0  0  0  0  0
  2  3  1  1
  2  1  1  0
  4  2  1  0
  4  5  1  1
  6  7  2  0
  6  4  1  0
  9  8  1  6
  9 11  1  0
 10  9  1  0
 11 12  1  6
 12  6  1  0
 13 14  2  0
 13 11  1  0
 16 15  1  0
 17 16  2  0
 18 17  1  0
 19 25  1  0
 19 18  2  0
 20 19  1  0
 21 20  1  1
 21 22  1  0
 22 13  1  0
 23 21  1  0
 24 23  1  0
 25 26  2  0
 26 16  1  0
 27 23  2  0
M  END
$$$$
