VTY.pdb
     RDKit          3D

 27 27  0  0  1  0  0  0  0  0999 V2000
    8.8116  -19.5529   19.8668 C   0  0  0  0  0  0  0  0  0  0  0  0
    9.3977  -19.1471   18.5336 C   0  0  1  0  0  0  0  0  0  0  0  0
    9.0816  -20.1429   17.4461 C   0  0  0  0  0  0  0  0  0  0  0  0
    9.0259  -17.7367   18.1548 C   0  0  2  0  0  0  0  0  0  0  0  0
    9.7672  -17.4254   16.9313 N   0  0  0  0  0  0  0  0  0  0  0  0
    9.3655  -16.7366   19.1643 C   0  0  0  0  0  0  0  0  0  0  0  0
   10.5940  -16.4647   19.3284 O   0  0  0  0  0  0  0  0  0  0  0  0
    7.6022  -13.3201   20.0203 C   0  0  0  0  0  0  0  0  0  0  0  0
    7.6818  -14.1756   21.2447 C   0  0  1  0  0  0  0  0  0  0  0  0
    6.4683  -14.8882   21.3811 O   0  0  0  0  0  0  0  0  0  0  0  0
    8.7822  -15.2369   21.1140 C   0  0  2  0  0  0  0  0  0  0  0  0
    8.4474  -16.0428   19.9768 N   0  0  0  0  0  0  0  0  0  0  0  0
    8.8042  -16.0526   22.3780 C   0  0  0  0  0  0  0  0  0  0  0  0
    7.9734  -16.9832   22.5307 O   0  0  0  0  0  0  0  0  0  0  0  0
   14.5550  -19.3694   21.4691 O   0  0  0  0  0  0  0  0  0  0  0  0
   13.3758  -19.0424   22.1498 C   0  0  0  0  0  0  0  0  0  0  0  0
   13.4191  -18.6861   23.4823 C   0  0  0  0  0  0  0  0  0  0  0  0
   12.2801  -18.3576   24.1860 C   0  0  0  0  0  0  0  0  0  0  0  0
   11.0352  -18.3746   23.5697 C   0  0  0  0  0  0  0  0  0  0  0  0
    9.8588  -18.0358   24.3714 C   0  0  0  0  0  0  0  0  0  0  0  0
    9.8016  -16.5642   24.6439 C   0  0  2  0  0  0  0  0  0  0  0  0
    9.7476  -15.7938   23.4083 N   0  0  0  0  0  0  0  0  0  0  0  0
   10.8677  -16.1187   25.5309 C   0  0  0  0  0  0  0  0  0  0  0  0
   11.8286  -15.1674   25.2826 O   0  0  0  0  0  0  0  0  0  0  0  0
   11.0134  -18.7350   22.2320 C   0  0  0  0  0  0  0  0  0  0  0  0
   12.1494  -19.0638   21.5257 C   0  0  0  0  0  0  0  0  0  0  0  0
   10.9303  -16.6731   26.6841 O   0  0  0  0  0  0  0  0  0  0  0  0
  2  3  1  6
  2  1  1  0
  4  2  1  0
  4  5  1  6
  6  7  2  0
  6  4  1  0
  9  8  1  6
  9 11  1  0
 10  9  1  0
 11 12  1  6
 12  6  1  0
 13 14  2  0
 13 11  1  0
 16 15  1  0
 17 16  2  0
 18 17  1  0
 19 25  1  0
 19 18  2  0
 20 19  1  0
 21 20  1  6
 21 22  1  0
 22 13  1  0
 23 21  1  0
 24 23  1  0
 25 26  2  0
 26 16  1  0
 27 23  2  0
M  END
$$$$
