CIK.pdb
     RDKit          3D

 24 23  0  0  1  0  0  0  0  0999 V2000
   26.4096  -21.6590  -11.0560 N   0  0  0  0  0  0  0  0  0  0  0  0
   26.0370  -21.8603  -12.4230 C   0  0  1  0  0  0  0  0  0  0  0  0
   24.9806  -22.9125  -12.5174 C   0  0  0  0  0  0  0  0  0  0  0  0
   25.7197  -24.4931  -11.9946 S   0  0  0  0  0  0  0  0  0  0  0  0
   25.5518  -20.5709  -13.0179 C   0  0  0  0  0  0  0  0  0  0  0  0
   24.9059  -19.7797  -12.2501 O   0  0  0  0  0  0  0  0  0  0  0  0
   28.5818  -19.2733  -15.9169 C   0  0  0  0  0  0  0  0  0  0  0  0
   27.5834  -18.1870  -15.5797 C   0  0  0  0  0  0  0  0  0  0  0  0
   26.1863  -18.5664  -16.0614 C   0  0  2  0  0  0  0  0  0  0  0  0
   25.5982  -17.3183  -16.6817 C   0  0  0  0  0  0  0  0  0  0  0  0
   25.3180  -18.9889  -14.8960 C   0  0  2  0  0  0  0  0  0  0  0  0
   25.8085  -20.2640  -14.3701 N   0  0  0  0  0  0  0  0  0  0  0  0
   23.9382  -19.2515  -15.3899 C   0  0  0  0  0  0  0  0  0  0  0  0
   23.7766  -20.3708  -16.0108 O   0  0  0  0  0  0  0  0  0  0  0  0
   22.8291  -18.4210  -15.2430 N   0  0  0  0  0  0  0  0  0  0  0  0
   21.5131  -18.8501  -15.7525 C   0  0  1  0  0  0  0  0  0  0  0  0
   20.5515  -18.8567  -14.6144 C   0  0  0  0  0  0  0  0  0  0  0  0
   19.4781  -19.8670  -14.6209 C   0  0  0  0  0  0  0  0  0  0  0  0
   18.3481  -19.5868  -15.5438 C   0  0  0  0  0  0  0  0  0  0  0  0
   17.3242  -20.7011  -15.5287 C   0  0  0  0  0  0  0  0  0  0  0  0
   16.0149  -20.1886  -15.1795 N   0  0  0  0  0  0  0  0  0  0  0  0
   21.1788  -18.0808  -16.9333 C   0  0  0  0  0  0  0  0  0  0  0  0
   20.7142  -18.6977  -18.0827 O   0  0  0  0  0  0  0  0  0  0  0  0
   21.2905  -16.8361  -16.9700 O   0  0  0  0  0  0  0  0  0  0  0  0
  2  5  1  0
  2  1  1  1
  3  2  1  0
  4  3  1  0
  5  6  2  0
  8  7  1  0
  9 11  1  0
  9  8  1  0
  9 10  1  1
 12  5  1  0
 11 12  1  6
 13 11  1  0
 13 14  2  0
 15 13  1  0
 16 22  1  0
 16 15  1  0
 16 17  1  1
 18 17  1  0
 19 18  1  0
 20 19  1  0
 21 20  1  0
 22 23  1  0
 24 22  2  0
M  END
$$$$
