CIK.pdb
     RDKit          3D

 24 23  0  0  1  0  0  0  0  0999 V2000
   25.8349  -21.6711  -11.2632 N   0  0  0  0  0  0  0  0  0  0  0  0
   25.5824  -21.5971  -12.6699 C   0  0  1  0  0  0  0  0  0  0  0  0
   24.3712  -22.4001  -13.0169 C   0  0  0  0  0  0  0  0  0  0  0  0
   24.8641  -24.1524  -13.0829 S   0  0  0  0  0  0  0  0  0  0  0  0
   25.4032  -20.1661  -13.0846 C   0  0  0  0  0  0  0  0  0  0  0  0
   24.8973  -19.3676  -12.2248 O   0  0  0  0  0  0  0  0  0  0  0  0
   26.6399  -15.4464  -14.8227 C   0  0  0  0  0  0  0  0  0  0  0  0
   26.8673  -16.4721  -15.9119 C   0  0  0  0  0  0  0  0  0  0  0  0
   27.0070  -17.8709  -15.3188 C   0  0  2  0  0  0  0  0  0  0  0  0
   27.3217  -18.7927  -16.4762 C   0  0  0  0  0  0  0  0  0  0  0  0
   25.7066  -18.3115  -14.6824 C   0  0  2  0  0  0  0  0  0  0  0  0
   25.7836  -19.7405  -14.3740 N   0  0  0  0  0  0  0  0  0  0  0  0
   24.6068  -18.1640  -15.6752 C   0  0  0  0  0  0  0  0  0  0  0  0
   24.5957  -19.0397  -16.6226 O   0  0  0  0  0  0  0  0  0  0  0  0
   23.6082  -17.1922  -15.6734 N   0  0  0  0  0  0  0  0  0  0  0  0
   22.4904  -17.2810  -16.6316 C   0  0  1  0  0  0  0  0  0  0  0  0
   21.2548  -16.7982  -15.9533 C   0  0  0  0  0  0  0  0  0  0  0  0
   20.0205  -16.6971  -16.7527 C   0  0  0  0  0  0  0  0  0  0  0  0
   18.8316  -17.3739  -16.1732 C   0  0  0  0  0  0  0  0  0  0  0  0
   17.6040  -17.1856  -17.0381 C   0  0  0  0  0  0  0  0  0  0  0  0
   16.5182  -18.0259  -16.5757 N   0  0  0  0  0  0  0  0  0  0  0  0
   22.8770  -16.6620  -17.8826 C   0  0  0  0  0  0  0  0  0  0  0  0
   22.4466  -17.1700  -19.0967 O   0  0  0  0  0  0  0  0  0  0  0  0
   23.6083  -15.6488  -17.9255 O   0  0  0  0  0  0  0  0  0  0  0  0
  2  5  1  0
  2  1  1  1
  3  2  1  0
  4  3  1  0
  5  6  2  0
  8  7  1  0
  9 11  1  0
  9  8  1  0
  9 10  1  6
 12  5  1  0
 11 12  1  6
 13 11  1  0
 13 14  2  0
 15 13  1  0
 16 22  1  0
 16 15  1  0
 16 17  1  1
 18 17  1  0
 19 18  1  0
 20 19  1  0
 21 20  1  0
 22 23  1  0
 24 22  2  0
M  END
$$$$
