CIK.pdb
     RDKit          3D

 24 23  0  0  1  0  0  0  0  0999 V2000
   15.9634   -3.8158   -8.8379 N   0  0  0  0  0  0  0  0  0  0  0  0
   16.3844   -5.1828   -8.8855 C   0  0  1  0  0  0  0  0  0  0  0  0
   15.2730   -6.0777   -8.4429 C   0  0  0  0  0  0  0  0  0  0  0  0
   15.1670   -5.9789   -6.6271 S   0  0  0  0  0  0  0  0  0  0  0  0
   16.8244   -5.5361  -10.2760 C   0  0  0  0  0  0  0  0  0  0  0  0
   16.2642   -4.9146  -11.2417 O   0  0  0  0  0  0  0  0  0  0  0  0
   21.7467   -5.7744  -12.3010 C   0  0  0  0  0  0  0  0  0  0  0  0
   20.2541   -5.6615  -12.0778 C   0  0  0  0  0  0  0  0  0  0  0  0
   19.6060   -7.0422  -12.0374 C   0  0  2  0  0  0  0  0  0  0  0  0
   19.8919   -7.6842  -13.3770 C   0  0  0  0  0  0  0  0  0  0  0  0
   18.1076   -6.9219  -11.8627 C   0  0  2  0  0  0  0  0  0  0  0  0
   17.8162   -6.5160  -10.4867 N   0  0  0  0  0  0  0  0  0  0  0  0
   17.4902   -8.2658  -12.0342 C   0  0  0  0  0  0  0  0  0  0  0  0
   17.8628   -9.1587  -11.1807 O   0  0  0  0  0  0  0  0  0  0  0  0
   16.5645   -8.6390  -13.0065 N   0  0  0  0  0  0  0  0  0  0  0  0
   16.0705  -10.0277  -13.0608 C   0  0  1  0  0  0  0  0  0  0  0  0
   14.7087  -10.0625  -12.4575 C   0  0  0  0  0  0  0  0  0  0  0  0
   14.0138  -11.3609  -12.3911 C   0  0  0  0  0  0  0  0  0  0  0  0
   12.6035  -11.3032  -11.9275 C   0  0  0  0  0  0  0  0  0  0  0  0
   11.9819  -12.6811  -11.8549 C   0  0  0  0  0  0  0  0  0  0  0  0
   10.5929  -12.5955  -11.4520 N   0  0  0  0  0  0  0  0  0  0  0  0
   16.2447  -10.5497  -14.4006 C   0  0  0  0  0  0  0  0  0  0  0  0
   16.2920  -11.9130  -14.6381 O   0  0  0  0  0  0  0  0  0  0  0  0
   16.3575   -9.8021  -15.3964 O   0  0  0  0  0  0  0  0  0  0  0  0
  2  5  1  0
  2  1  1  6
  3  2  1  0
  4  3  1  0
  5  6  2  0
  8  7  1  0
  9 11  1  0
  9  8  1  0
  9 10  1  6
 12  5  1  0
 11 12  1  1
 13 11  1  0
 13 14  2  0
 15 13  1  0
 16 22  1  0
 16 15  1  0
 16 17  1  6
 18 17  1  0
 19 18  1  0
 20 19  1  0
 21 20  1  0
 22 23  1  0
 24 22  2  0
M  END
$$$$
