CIK.pdb
     RDKit          3D

 24 23  0  0  1  0  0  0  0  0999 V2000
   28.2455  -18.7763  -15.8487 N   0  0  0  0  0  0  0  0  0  0  0  0
   27.2408  -18.2745  -14.9616 C   0  0  1  0  0  0  0  0  0  0  0  0
   26.3847  -17.2748  -15.6686 C   0  0  0  0  0  0  0  0  0  0  0  0
   27.2243  -15.6607  -15.5813 S   0  0  0  0  0  0  0  0  0  0  0  0
   26.4068  -19.4067  -14.4378 C   0  0  0  0  0  0  0  0  0  0  0  0
   26.2494  -20.4187  -15.2019 O   0  0  0  0  0  0  0  0  0  0  0  0
   26.2885  -20.7795   -9.1277 C   0  0  0  0  0  0  0  0  0  0  0  0
   26.2461  -20.9721  -10.6282 C   0  0  0  0  0  0  0  0  0  0  0  0
   24.9276  -20.4634  -11.2031 C   0  0  2  0  0  0  0  0  0  0  0  0
   23.8655  -21.4461  -10.7618 C   0  0  0  0  0  0  0  0  0  0  0  0
   24.9783  -20.4448  -12.7155 C   0  0  2  0  0  0  0  0  0  0  0  0
   25.8296  -19.3372  -13.1532 N   0  0  0  0  0  0  0  0  0  0  0  0
   23.6173  -20.1502  -13.2425 C   0  0  0  0  0  0  0  0  0  0  0  0
   23.1597  -18.9758  -12.9669 O   0  0  0  0  0  0  0  0  0  0  0  0
   22.8119  -21.0047  -13.9927 N   0  0  0  0  0  0  0  0  0  0  0  0
   21.4898  -20.5497  -14.4622 C   0  0  1  0  0  0  0  0  0  0  0  0
   21.4619  -20.6515  -15.9484 C   0  0  0  0  0  0  0  0  0  0  0  0
   20.2074  -20.3087  -16.6425 C   0  0  0  0  0  0  0  0  0  0  0  0
   20.2446  -20.4385  -18.1220 C   0  0  0  0  0  0  0  0  0  0  0  0
   18.9536  -19.9692  -18.7571 C   0  0  0  0  0  0  0  0  0  0  0  0
   18.8969  -18.5220  -18.7923 N   0  0  0  0  0  0  0  0  0  0  0  0
   20.4523  -21.2196  -13.7055 C   0  0  0  0  0  0  0  0  0  0  0  0
   19.1902  -20.6654  -13.5735 O   0  0  0  0  0  0  0  0  0  0  0  0
   20.6442  -22.3197  -13.1432 O   0  0  0  0  0  0  0  0  0  0  0  0
  2  5  1  0
  2  1  1  6
  3  2  1  0
  4  3  1  0
  5  6  2  0
  8  7  1  0
  9 11  1  0
  9  8  1  0
  9 10  1  6
 12  5  1  0
 11 12  1  1
 13 11  1  0
 13 14  2  0
 15 13  1  0
 16 22  1  0
 16 15  1  0
 16 17  1  6
 18 17  1  0
 19 18  1  0
 20 19  1  0
 21 20  1  0
 22 23  1  0
 24 22  2  0
M  END
$$$$
