CIK.pdb
     RDKit          3D

 24 23  0  0  1  0  0  0  0  0999 V2000
   16.7420  -11.2148  -14.2650 N   0  0  0  0  0  0  0  0  0  0  0  0
   16.6685   -9.7984  -14.4556 C   0  0  1  0  0  0  0  0  0  0  0  0
   15.2544   -9.3871  -14.7072 C   0  0  0  0  0  0  0  0  0  0  0  0
   14.7778  -10.0069  -16.3524 S   0  0  0  0  0  0  0  0  0  0  0  0
   17.2180   -9.0895  -13.2525 C   0  0  0  0  0  0  0  0  0  0  0  0
   17.0145   -9.6296  -12.1125 O   0  0  0  0  0  0  0  0  0  0  0  0
   22.1049   -6.7912  -13.3157 C   0  0  0  0  0  0  0  0  0  0  0  0
   20.8397   -7.5126  -12.9041 C   0  0  0  0  0  0  0  0  0  0  0  0
   19.7425   -6.5173  -12.5390 C   0  0  2  0  0  0  0  0  0  0  0  0
   20.2329   -5.7754  -11.3153 C   0  0  0  0  0  0  0  0  0  0  0  0
   18.4608   -7.2424  -12.1902 C   0  0  2  0  0  0  0  0  0  0  0  0
   17.9264   -7.8787  -13.3955 N   0  0  0  0  0  0  0  0  0  0  0  0
   17.4401   -6.2453  -11.7650 C   0  0  0  0  0  0  0  0  0  0  0  0
   16.9541   -5.5138  -12.7101 O   0  0  0  0  0  0  0  0  0  0  0  0
   16.9685   -6.0367  -10.4705 N   0  0  0  0  0  0  0  0  0  0  0  0
   15.8778   -5.0737  -10.2286 C   0  0  1  0  0  0  0  0  0  0  0  0
   15.0591   -5.5727   -9.0882 C   0  0  0  0  0  0  0  0  0  0  0  0
   14.0089   -4.6888   -8.5508 C   0  0  0  0  0  0  0  0  0  0  0  0
   13.3363   -5.1777   -7.3195 C   0  0  0  0  0  0  0  0  0  0  0  0
   12.3470   -4.1657   -6.7834 C   0  0  0  0  0  0  0  0  0  0  0  0
   11.6427   -4.6975   -5.6345 N   0  0  0  0  0  0  0  0  0  0  0  0
   16.4246   -3.7348  -10.1511 C   0  0  0  0  0  0  0  0  0  0  0  0
   15.6760   -2.6321  -10.5266 O   0  0  0  0  0  0  0  0  0  0  0  0
   17.5856   -3.5130   -9.7438 O   0  0  0  0  0  0  0  0  0  0  0  0
  2  5  1  0
  2  1  1  1
  3  2  1  0
  4  3  1  0
  5  6  2  0
  8  7  1  0
  9 11  1  0
  9  8  1  0
  9 10  1  1
 12  5  1  0
 11 12  1  6
 13 11  1  0
 13 14  2  0
 15 13  1  0
 16 22  1  0
 16 15  1  0
 16 17  1  1
 18 17  1  0
 19 18  1  0
 20 19  1  0
 21 20  1  0
 22 23  1  0
 24 22  2  0
M  END
$$$$
