CIK.pdb
     RDKit          3D

 24 23  0  0  1  0  0  0  0  0999 V2000
   22.7768  -21.4726  -15.4108 N   0  0  0  0  0  0  0  0  0  0  0  0
   23.2493  -20.6356  -16.4711 C   0  0  1  0  0  0  0  0  0  0  0  0
   22.3482  -20.7517  -17.6571 C   0  0  0  0  0  0  0  0  0  0  0  0
   22.2721  -22.5092  -18.1296 S   0  0  0  0  0  0  0  0  0  0  0  0
   23.3267  -19.2113  -16.0049 C   0  0  0  0  0  0  0  0  0  0  0  0
   22.4808  -18.8384  -15.1228 O   0  0  0  0  0  0  0  0  0  0  0  0
   27.9988  -17.6316  -15.9887 C   0  0  0  0  0  0  0  0  0  0  0  0
   26.7163  -17.3266  -15.2455 C   0  0  0  0  0  0  0  0  0  0  0  0
   25.7863  -16.4690  -16.0985 C   0  0  2  0  0  0  0  0  0  0  0  0
   25.8500  -15.0719  -15.5218 C   0  0  0  0  0  0  0  0  0  0  0  0
   24.3622  -16.9724  -16.0040 C   0  0  2  0  0  0  0  0  0  0  0  0
   24.3000  -18.3369  -16.5308 N   0  0  0  0  0  0  0  0  0  0  0  0
   23.4970  -16.1489  -16.8928 C   0  0  0  0  0  0  0  0  0  0  0  0
   23.7600  -16.2327  -18.1531 O   0  0  0  0  0  0  0  0  0  0  0  0
   22.4502  -15.3179  -16.4987 N   0  0  0  0  0  0  0  0  0  0  0  0
   21.6439  -14.6147  -17.5140 C   0  0  1  0  0  0  0  0  0  0  0  0
   20.2199  -15.0171  -17.3397 C   0  0  0  0  0  0  0  0  0  0  0  0
   19.2122  -14.3947  -18.2173 C   0  0  0  0  0  0  0  0  0  0  0  0
   17.8258  -14.9025  -18.0519 C   0  0  0  0  0  0  0  0  0  0  0  0
   16.8985  -14.3528  -19.1140 C   0  0  0  0  0  0  0  0  0  0  0  0
   15.8009  -13.6260  -18.5090 N   0  0  0  0  0  0  0  0  0  0  0  0
   21.9689  -13.2034  -17.4955 C   0  0  0  0  0  0  0  0  0  0  0  0
   21.8151  -12.4177  -18.6253 O   0  0  0  0  0  0  0  0  0  0  0  0
   22.3973  -12.6328  -16.4688 O   0  0  0  0  0  0  0  0  0  0  0  0
  2  5  1  0
  2  1  1  1
  3  2  1  0
  4  3  1  0
  5  6  2  0
  8  7  1  0
  9 11  1  0
  9  8  1  0
  9 10  1  1
 12  5  1  0
 11 12  1  6
 13 11  1  0
 13 14  2  0
 15 13  1  0
 16 22  1  0
 16 15  1  0
 16 17  1  1
 18 17  1  0
 19 18  1  0
 20 19  1  0
 21 20  1  0
 22 23  1  0
 24 22  2  0
M  END
$$$$
