CIK.pdb
     RDKit          3D

 24 23  0  0  1  0  0  0  0  0999 V2000
   25.1468  -20.4262   -7.8827 N   0  0  0  0  0  0  0  0  0  0  0  0
   24.5636  -20.8679   -9.1127 C   0  0  1  0  0  0  0  0  0  0  0  0
   23.0962  -20.5876   -9.1149 C   0  0  0  0  0  0  0  0  0  0  0  0
   22.3247  -21.6449   -7.8481 S   0  0  0  0  0  0  0  0  0  0  0  0
   25.2324  -20.1876  -10.2711 C   0  0  0  0  0  0  0  0  0  0  0  0
   25.3352  -18.9149  -10.2212 O   0  0  0  0  0  0  0  0  0  0  0  0
   30.0302  -21.0862  -11.4083 C   0  0  0  0  0  0  0  0  0  0  0  0
   28.6430  -20.4901  -11.3038 C   0  0  0  0  0  0  0  0  0  0  0  0
   27.8260  -20.7957  -12.5555 C   0  0  2  0  0  0  0  0  0  0  0  0
   28.5301  -20.1025  -13.7011 C   0  0  0  0  0  0  0  0  0  0  0  0
   26.4271  -20.2322  -12.4287 C   0  0  2  0  0  0  0  0  0  0  0  0
   25.7203  -20.9396  -11.3596 N   0  0  0  0  0  0  0  0  0  0  0  0
   25.6734  -20.5199  -13.6801 C   0  0  0  0  0  0  0  0  0  0  0  0
   25.4748  -21.7697  -13.9313 O   0  0  0  0  0  0  0  0  0  0  0  0
   25.1702  -19.5851  -14.5826 N   0  0  0  0  0  0  0  0  0  0  0  0
   24.3569  -20.0304  -15.7297 C   0  0  1  0  0  0  0  0  0  0  0  0
   23.3293  -18.9875  -16.0061 C   0  0  0  0  0  0  0  0  0  0  0  0
   22.4925  -19.1419  -17.2098 C   0  0  0  0  0  0  0  0  0  0  0  0
   21.4890  -18.0681  -17.4273 C   0  0  0  0  0  0  0  0  0  0  0  0
   20.6525  -18.3263  -18.6617 C   0  0  0  0  0  0  0  0  0  0  0  0
   19.7349  -17.2300  -18.8967 N   0  0  0  0  0  0  0  0  0  0  0  0
   25.2302  -20.4413  -16.8097 C   0  0  0  0  0  0  0  0  0  0  0  0
   26.4589  -19.8343  -17.0082 O   0  0  0  0  0  0  0  0  0  0  0  0
   24.9206  -21.3553  -17.6045 O   0  0  0  0  0  0  0  0  0  0  0  0
  2  5  1  0
  2  1  1  1
  3  2  1  0
  4  3  1  0
  5  6  2  0
  8  7  1  0
  9 11  1  0
  9  8  1  0
  9 10  1  6
 12  5  1  0
 11 12  1  1
 13 11  1  0
 13 14  2  0
 15 13  1  0
 16 22  1  0
 16 15  1  0
 16 17  1  6
 18 17  1  0
 19 18  1  0
 20 19  1  0
 21 20  1  0
 22 23  1  0
 24 22  2  0
M  END
$$$$
