CIK.pdb
     RDKit          3D

 24 23  0  0  1  0  0  0  0  0999 V2000
   27.1185   -9.5569  -20.9465 N   0  0  0  0  0  0  0  0  0  0  0  0
   25.7636   -9.9412  -21.2011 C   0  0  1  0  0  0  0  0  0  0  0  0
   25.7253  -11.2832  -21.8566 C   0  0  0  0  0  0  0  0  0  0  0  0
   26.2330  -11.0704  -23.5929 S   0  0  0  0  0  0  0  0  0  0  0  0
   24.9853   -9.9583  -19.9182 C   0  0  0  0  0  0  0  0  0  0  0  0
   23.7384  -10.2267  -19.9948 O   0  0  0  0  0  0  0  0  0  0  0  0
   27.6305  -11.4954  -15.5234 C   0  0  0  0  0  0  0  0  0  0  0  0
   26.4048  -11.4050  -16.4066 C   0  0  0  0  0  0  0  0  0  0  0  0
   25.7543  -10.0296  -16.2919 C   0  0  2  0  0  0  0  0  0  0  0  0
   24.9370  -10.0519  -15.0192 C   0  0  0  0  0  0  0  0  0  0  0  0
   24.8289   -9.7793  -17.4630 C   0  0  2  0  0  0  0  0  0  0  0  0
   25.6223   -9.6866  -18.6898 N   0  0  0  0  0  0  0  0  0  0  0  0
   24.1797   -8.4503  -17.2921 C   0  0  0  0  0  0  0  0  0  0  0  0
   24.9872   -7.4502  -17.1819 O   0  0  0  0  0  0  0  0  0  0  0  0
   22.8112   -8.1920  -17.2458 N   0  0  0  0  0  0  0  0  0  0  0  0
   22.3266   -6.8098  -17.0714 C   0  0  1  0  0  0  0  0  0  0  0  0
   21.1790   -6.5974  -17.9975 C   0  0  0  0  0  0  0  0  0  0  0  0
   20.4212   -5.3381  -17.8834 C   0  0  0  0  0  0  0  0  0  0  0  0
   19.3264   -5.1642  -18.8726 C   0  0  0  0  0  0  0  0  0  0  0  0
   18.6519   -3.8170  -18.7291 C   0  0  0  0  0  0  0  0  0  0  0  0
   17.5673   -3.6837  -19.6803 N   0  0  0  0  0  0  0  0  0  0  0  0
   22.1339   -6.5404  -15.6614 C   0  0  0  0  0  0  0  0  0  0  0  0
   21.7020   -7.5306  -14.7951 O   0  0  0  0  0  0  0  0  0  0  0  0
   22.3481   -5.4135  -15.1641 O   0  0  0  0  0  0  0  0  0  0  0  0
  2  5  1  0
  2  1  1  1
  3  2  1  0
  4  3  1  0
  5  6  2  0
  8  7  1  0
  9 11  1  0
  9  8  1  0
  9 10  1  1
 12  5  1  0
 11 12  1  6
 13 11  1  0
 13 14  2  0
 15 13  1  0
 16 22  1  0
 16 15  1  0
 16 17  1  6
 18 17  1  0
 19 18  1  0
 20 19  1  0
 21 20  1  0
 22 23  1  0
 24 22  2  0
M  END
$$$$
