CIK.pdb
     RDKit          3D

 24 23  0  0  1  0  0  0  0  0999 V2000
   18.1037  -14.2262  -16.9439 N   0  0  0  0  0  0  0  0  0  0  0  0
   18.2539  -12.8096  -17.0815 C   0  0  1  0  0  0  0  0  0  0  0  0
   16.9126  -12.1568  -17.1631 C   0  0  0  0  0  0  0  0  0  0  0  0
   16.1747  -12.5978  -18.7691 S   0  0  0  0  0  0  0  0  0  0  0  0
   19.0377  -12.2619  -15.9249 C   0  0  0  0  0  0  0  0  0  0  0  0
   18.8218  -12.7780  -14.7762 O   0  0  0  0  0  0  0  0  0  0  0  0
   24.3288  -11.2516  -16.1671 C   0  0  0  0  0  0  0  0  0  0  0  0
   22.9333  -11.6181  -15.7103 C   0  0  0  0  0  0  0  0  0  0  0  0
   22.1203  -10.3664  -15.3939 C   0  0  2  0  0  0  0  0  0  0  0  0
   22.8248   -9.6831  -14.2426 C   0  0  0  0  0  0  0  0  0  0  0  0
   20.7192  -10.7377  -14.9586 C   0  0  2  0  0  0  0  0  0  0  0  0
   19.9688  -11.2209  -16.1190 N   0  0  0  0  0  0  0  0  0  0  0  0
   20.0145   -9.5107  -14.4953 C   0  0  0  0  0  0  0  0  0  0  0  0
   19.7355   -8.6518  -15.4168 O   0  0  0  0  0  0  0  0  0  0  0  0
   19.6329   -9.2128  -13.1887 N   0  0  0  0  0  0  0  0  0  0  0  0
   18.9158   -7.9572  -12.8974 C   0  0  1  0  0  0  0  0  0  0  0  0
   18.0084   -8.1958  -11.7400 C   0  0  0  0  0  0  0  0  0  0  0  0
   17.3758   -7.0262  -11.1036 C   0  0  0  0  0  0  0  0  0  0  0  0
   16.4823   -7.3333   -9.9570 C   0  0  0  0  0  0  0  0  0  0  0  0
   15.8110   -6.0870   -9.4218 C   0  0  0  0  0  0  0  0  0  0  0  0
   15.0157   -6.3965   -8.2511 N   0  0  0  0  0  0  0  0  0  0  0  0
   19.8658   -6.8669  -12.8156 C   0  0  0  0  0  0  0  0  0  0  0  0
   21.1461   -7.0671  -12.3276 O   0  0  0  0  0  0  0  0  0  0  0  0
   19.5788   -5.7058  -13.1797 O   0  0  0  0  0  0  0  0  0  0  0  0
  2  5  1  0
  2  1  1  1
  3  2  1  0
  4  3  1  0
  5  6  2  0
  8  7  1  0
  9 11  1  0
  9  8  1  0
  9 10  1  1
 12  5  1  0
 11 12  1  6
 13 11  1  0
 13 14  2  0
 15 13  1  0
 16 22  1  0
 16 15  1  0
 16 17  1  1
 18 17  1  0
 19 18  1  0
 20 19  1  0
 21 20  1  0
 22 23  1  0
 24 22  2  0
M  END
$$$$
