CIK.pdb
     RDKit          3D

 24 23  0  0  1  0  0  0  0  0999 V2000
   25.8912  -22.0149  -15.7786 N   0  0  0  0  0  0  0  0  0  0  0  0
   24.5610  -21.6395  -16.1496 C   0  0  1  0  0  0  0  0  0  0  0  0
   24.1167  -22.4304  -17.3367 C   0  0  0  0  0  0  0  0  0  0  0  0
   25.3404  -22.1807  -18.6627 S   0  0  0  0  0  0  0  0  0  0  0  0
   23.6268  -21.8519  -14.9945 C   0  0  0  0  0  0  0  0  0  0  0  0
   23.8537  -22.8551  -14.2364 O   0  0  0  0  0  0  0  0  0  0  0  0
   20.2338  -18.5925  -11.1416 C   0  0  0  0  0  0  0  0  0  0  0  0
   20.4892  -19.9395  -11.7823 C   0  0  0  0  0  0  0  0  0  0  0  0
   21.5243  -19.8221  -12.8971 C   0  0  2  0  0  0  0  0  0  0  0  0
   20.9524  -18.8508  -13.9060 C   0  0  0  0  0  0  0  0  0  0  0  0
   21.7343  -21.1605  -13.5715 C   0  0  2  0  0  0  0  0  0  0  0  0
   22.5494  -20.9696  -14.7724 N   0  0  0  0  0  0  0  0  0  0  0  0
   20.4201  -21.6763  -14.0446 C   0  0  0  0  0  0  0  0  0  0  0  0
   19.9725  -21.1384  -15.1285 O   0  0  0  0  0  0  0  0  0  0  0  0
   19.6484  -22.6671  -13.4410 N   0  0  0  0  0  0  0  0  0  0  0  0
   18.3679  -23.0771  -14.0476 C   0  0  1  0  0  0  0  0  0  0  0  0
   18.1087  -24.4964  -13.6758 C   0  0  0  0  0  0  0  0  0  0  0  0
   16.8694  -25.1255  -14.1671 C   0  0  0  0  0  0  0  0  0  0  0  0
   16.7028  -26.5594  -13.8155 C   0  0  0  0  0  0  0  0  0  0  0  0
   15.3967  -27.1156  -14.3399 C   0  0  0  0  0  0  0  0  0  0  0  0
   15.3110  -28.5405  -14.0923 N   0  0  0  0  0  0  0  0  0  0  0  0
   17.3529  -22.0888  -13.7462 C   0  0  0  0  0  0  0  0  0  0  0  0
   16.2635  -21.9029  -14.5804 O   0  0  0  0  0  0  0  0  0  0  0  0
   17.4103  -21.3655  -12.7280 O   0  0  0  0  0  0  0  0  0  0  0  0
  2  5  1  0
  2  1  1  1
  3  2  1  0
  4  3  1  0
  5  6  2  0
  8  7  1  0
  9 11  1  0
  9  8  1  0
  9 10  1  6
 12  5  1  0
 11 12  1  6
 13 11  1  0
 13 14  2  0
 15 13  1  0
 16 22  1  0
 16 15  1  0
 16 17  1  1
 18 17  1  0
 19 18  1  0
 20 19  1  0
 21 20  1  0
 22 23  1  0
 24 22  2  0
M  END
$$$$
