CIK.pdb
     RDKit          3D

 24 23  0  0  1  0  0  0  0  0999 V2000
   22.2769  -14.8611  -18.6357 N   0  0  0  0  0  0  0  0  0  0  0  0
   23.0508  -13.7103  -18.9890 C   0  0  1  0  0  0  0  0  0  0  0  0
   22.3685  -12.9473  -20.0772 C   0  0  0  0  0  0  0  0  0  0  0  0
   20.7741  -12.3535  -19.4266 S   0  0  0  0  0  0  0  0  0  0  0  0
   23.2564  -12.8404  -17.7836 C   0  0  0  0  0  0  0  0  0  0  0  0
   22.4433  -12.9901  -16.8094 O   0  0  0  0  0  0  0  0  0  0  0  0
   28.1386  -11.6670  -15.7715 C   0  0  0  0  0  0  0  0  0  0  0  0
   26.6557  -11.9535  -15.8682 C   0  0  0  0  0  0  0  0  0  0  0  0
   25.8951  -10.7195  -16.3442 C   0  0  2  0  0  0  0  0  0  0  0  0
   26.0035   -9.6995  -15.2323 C   0  0  0  0  0  0  0  0  0  0  0  0
   24.4344  -11.0474  -16.5661 C   0  0  2  0  0  0  0  0  0  0  0  0
   24.3091  -11.9029  -17.7475 N   0  0  0  0  0  0  0  0  0  0  0  0
   23.6994   -9.7931  -16.8872 C   0  0  0  0  0  0  0  0  0  0  0  0
   24.0290   -9.2281  -17.9993 O   0  0  0  0  0  0  0  0  0  0  0  0
   22.7077   -9.1887  -16.1172 N   0  0  0  0  0  0  0  0  0  0  0  0
   22.0932   -7.9249  -16.5651 C   0  0  1  0  0  0  0  0  0  0  0  0
   20.8194   -8.2484  -17.2671 C   0  0  0  0  0  0  0  0  0  0  0  0
   19.9406   -7.1309  -17.6569 C   0  0  0  0  0  0  0  0  0  0  0  0
   18.6554   -7.5248  -18.2896 C   0  0  0  0  0  0  0  0  0  0  0  0
   17.8102   -6.3185  -18.6370 C   0  0  0  0  0  0  0  0  0  0  0  0
   16.5061   -6.7282  -19.1169 N   0  0  0  0  0  0  0  0  0  0  0  0
   22.0533   -6.9896  -15.4599 C   0  0  0  0  0  0  0  0  0  0  0  0
   22.0521   -5.6222  -15.6780 O   0  0  0  0  0  0  0  0  0  0  0  0
   22.0163   -7.3683  -14.2690 O   0  0  0  0  0  0  0  0  0  0  0  0
  2  5  1  0
  2  1  1  1
  3  2  1  0
  4  3  1  0
  5  6  2  0
  8  7  1  0
  9 11  1  0
  9  8  1  0
  9 10  1  1
 12  5  1  0
 11 12  1  6
 13 11  1  0
 13 14  2  0
 15 13  1  0
 16 22  1  0
 16 15  1  0
 16 17  1  1
 18 17  1  0
 19 18  1  0
 20 19  1  0
 21 20  1  0
 22 23  1  0
 24 22  2  0
M  END
$$$$
