CIK.pdb
     RDKit          3D

 24 23  0  0  1  0  0  0  0  0999 V2000
   19.3621  -18.0048  -14.8314 N   0  0  0  0  0  0  0  0  0  0  0  0
   18.6301  -16.9346  -15.4372 C   0  0  1  0  0  0  0  0  0  0  0  0
   17.2760  -16.8227  -14.8160 C   0  0  0  0  0  0  0  0  0  0  0  0
   16.3536  -18.3427  -15.2121 S   0  0  0  0  0  0  0  0  0  0  0  0
   19.3865  -15.6470  -15.2889 C   0  0  0  0  0  0  0  0  0  0  0  0
   19.9619  -15.4331  -14.1682 O   0  0  0  0  0  0  0  0  0  0  0  0
   22.8829  -11.8113  -18.3406 C   0  0  0  0  0  0  0  0  0  0  0  0
   21.8793  -11.9680  -17.2188 C   0  0  0  0  0  0  0  0  0  0  0  0
   21.2135  -13.3397  -17.2747 C   0  0  2  0  0  0  0  0  0  0  0  0
   20.4870  -13.4047  -18.5999 C   0  0  0  0  0  0  0  0  0  0  0  0
   20.2048  -13.4877  -16.1563 C   0  0  2  0  0  0  0  0  0  0  0  0
   19.4476  -14.7249  -16.3540 N   0  0  0  0  0  0  0  0  0  0  0  0
   19.2137  -12.3803  -16.2478 C   0  0  0  0  0  0  0  0  0  0  0  0
   18.3926  -12.4535  -17.2402 O   0  0  0  0  0  0  0  0  0  0  0  0
   19.0909  -11.2988  -15.3779 N   0  0  0  0  0  0  0  0  0  0  0  0
   18.0844  -10.2526  -15.6386 C   0  0  1  0  0  0  0  0  0  0  0  0
   16.8580  -10.5800  -14.8585 C   0  0  0  0  0  0  0  0  0  0  0  0
   15.7261   -9.6376  -14.9200 C   0  0  0  0  0  0  0  0  0  0  0  0
   14.5417  -10.0141  -14.1060 C   0  0  0  0  0  0  0  0  0  0  0  0
   13.4731   -8.9432  -14.1450 C   0  0  0  0  0  0  0  0  0  0  0  0
   12.3214   -9.3404  -13.3609 N   0  0  0  0  0  0  0  0  0  0  0  0
   18.6874   -8.9479  -15.4600 C   0  0  0  0  0  0  0  0  0  0  0  0
   18.0468   -7.7975  -15.8887 O   0  0  0  0  0  0  0  0  0  0  0  0
   19.8023   -8.7994  -14.9141 O   0  0  0  0  0  0  0  0  0  0  0  0
  2  5  1  0
  2  1  1  1
  3  2  1  0
  4  3  1  0
  5  6  2  0
  8  7  1  0
  9 11  1  0
  9  8  1  0
  9 10  1  6
 12  5  1  0
 11 12  1  6
 13 11  1  0
 13 14  2  0
 15 13  1  0
 16 22  1  0
 16 15  1  0
 16 17  1  1
 18 17  1  0
 19 18  1  0
 20 19  1  0
 21 20  1  0
 22 23  1  0
 24 22  2  0
M  END
$$$$
