CIK.pdb
     RDKit          3D

 24 23  0  0  1  0  0  0  0  0999 V2000
   28.8794  -25.1797  -16.8906 N   0  0  0  0  0  0  0  0  0  0  0  0
   27.6301  -25.6230  -17.4298 C   0  0  1  0  0  0  0  0  0  0  0  0
   27.7351  -27.0489  -17.8629 C   0  0  0  0  0  0  0  0  0  0  0  0
   28.9858  -27.1396  -19.1841 S   0  0  0  0  0  0  0  0  0  0  0  0
   26.5435  -25.4608  -16.4075 C   0  0  0  0  0  0  0  0  0  0  0  0
   26.8744  -25.5810  -15.1791 O   0  0  0  0  0  0  0  0  0  0  0  0
   23.7037  -21.1828  -16.0728 C   0  0  0  0  0  0  0  0  0  0  0  0
   24.4163  -22.4878  -15.7910 C   0  0  0  0  0  0  0  0  0  0  0  0
   23.4883  -23.6750  -16.0307 C   0  0  2  0  0  0  0  0  0  0  0  0
   22.3550  -23.5342  -15.0386 C   0  0  0  0  0  0  0  0  0  0  0  0
   24.2114  -24.9777  -15.7654 C   0  0  2  0  0  0  0  0  0  0  0  0
   25.2190  -25.1875  -16.8065 N   0  0  0  0  0  0  0  0  0  0  0  0
   23.2455  -26.1033  -15.8957 C   0  0  0  0  0  0  0  0  0  0  0  0
   22.7104  -26.2410  -17.0615 O   0  0  0  0  0  0  0  0  0  0  0  0
   22.8775  -27.0043  -14.8985 N   0  0  0  0  0  0  0  0  0  0  0  0
   21.8912  -28.0623  -15.1872 C   0  0  1  0  0  0  0  0  0  0  0  0
   22.3878  -29.3370  -14.5968 C   0  0  0  0  0  0  0  0  0  0  0  0
   21.5292  -30.5304  -14.7040 C   0  0  0  0  0  0  0  0  0  0  0  0
   21.9795  -31.7090  -13.9195 C   0  0  0  0  0  0  0  0  0  0  0  0
   22.4688  -32.8247  -14.8173 C   0  0  0  0  0  0  0  0  0  0  0  0
   22.9409  -33.9455  -14.0301 N   0  0  0  0  0  0  0  0  0  0  0  0
   20.5681  -27.6016  -14.8200 C   0  0  0  0  0  0  0  0  0  0  0  0
   19.4585  -27.9290  -15.5809 O   0  0  0  0  0  0  0  0  0  0  0  0
   20.3666  -26.8956  -13.8081 O   0  0  0  0  0  0  0  0  0  0  0  0
  2  5  1  0
  2  1  1  1
  3  2  1  0
  4  3  1  0
  5  6  2  0
  8  7  1  0
  9 11  1  0
  9  8  1  0
  9 10  1  1
 12  5  1  0
 11 12  1  6
 13 11  1  0
 13 14  2  0
 15 13  1  0
 16 22  1  0
 16 15  1  0
 16 17  1  1
 18 17  1  0
 19 18  1  0
 20 19  1  0
 21 20  1  0
 22 23  1  0
 24 22  2  0
M  END
$$$$
