HSE.pdb
     RDKit          3D

 26 26  0  0  1  0  0  0  0  0999 V2000
   22.1834  -18.1836  -19.4317 N   0  0  0  0  0  0  0  0  0  0  0  0
   21.0279  -17.3430  -19.1967 C   0  0  1  0  0  0  0  0  0  0  0  0
   20.0392  -17.4337  -20.3528 C   0  0  0  0  0  0  0  0  0  0  0  0
   20.6576  -16.7612  -21.5185 C   0  0  0  0  0  0  0  0  0  0  0  0
   20.9044  -17.3372  -22.7324 C   0  0  0  0  0  0  0  0  0  0  0  0
   21.4762  -16.4097  -23.5372 N   0  0  0  0  0  0  0  0  0  0  0  0
   21.5897  -15.2656  -22.8452 C   0  0  0  0  0  0  0  0  0  0  0  0
   21.0831  -15.4930  -21.6045 N   0  0  0  0  0  0  0  0  0  0  0  0
   20.3340  -17.8600  -17.9805 C   0  0  0  0  0  0  0  0  0  0  0  0
   19.8852  -19.0289  -17.9739 O   0  0  0  0  0  0  0  0  0  0  0  0
   19.3917  -15.5327  -14.4687 O   0  0  0  0  0  0  0  0  0  0  0  0
   19.7384  -16.8494  -14.4081 C   0  0  0  0  0  0  0  0  0  0  0  0
   19.4680  -17.6389  -15.6761 C   0  0  2  0  0  0  0  0  0  0  0  0
   20.1532  -17.0828  -16.8108 N   0  0  0  0  0  0  0  0  0  0  0  0
   18.0025  -17.7477  -15.8917 C   0  0  0  0  0  0  0  0  0  0  0  0
   17.3799  -16.8681  -16.5826 O   0  0  0  0  0  0  0  0  0  0  0  0
   17.1860  -18.7872  -15.3794 N   0  0  0  0  0  0  0  0  0  0  0  0
   15.7618  -18.8888  -15.6370 C   0  0  1  0  0  0  0  0  0  0  0  0
   15.4110  -20.3670  -15.6485 C   0  0  0  0  0  0  0  0  0  0  0  0
   15.8407  -20.9756  -14.3500 C   0  0  0  0  0  0  0  0  0  0  0  0
   15.4466  -22.3906  -14.3106 C   0  0  0  0  0  0  0  0  0  0  0  0
   16.2731  -23.2823  -14.5882 O   0  0  0  0  0  0  0  0  0  0  0  0
   15.0520  -18.2763  -14.4920 C   0  0  0  0  0  0  0  0  0  0  0  0
   15.7013  -17.8126  -13.3551 O   0  0  0  0  0  0  0  0  0  0  0  0
   14.1530  -22.7307  -13.9639 O   0  0  0  0  0  0  0  0  0  0  0  0
   13.8041  -18.1545  -14.5163 O   0  0  0  0  0  0  0  0  0  0  0  0
  2  9  1  0
  2  1  1  6
  3  2  1  0
  4  3  1  0
  5  4  2  0
  6  7  1  0
  6  5  1  0
  7  8  2  0
  8  4  1  0
  9 14  1  0
 10  9  2  0
 12 11  1  0
 13 12  1  1
 14 13  1  0
 15 16  2  0
 15 13  1  0
 17 15  1  0
 18 19  1  1
 18 17  1  0
 19 20  1  0
 20 21  1  0
 21 22  2  0
 23 18  1  0
 24 23  1  0
 25 21  1  0
 26 23  2  0
M  END
$$$$
