HSE.pdb
     RDKit          3D

 26 26  0  0  1  0  0  0  0  0999 V2000
   23.8859  -34.4444  -10.4949 N   0  0  0  0  0  0  0  0  0  0  0  0
   23.0969  -33.9082   -9.4053 C   0  0  1  0  0  0  0  0  0  0  0  0
   21.7983  -34.6868   -9.2332 C   0  0  0  0  0  0  0  0  0  0  0  0
   20.8947  -34.2912  -10.3379 C   0  0  0  0  0  0  0  0  0  0  0  0
   21.0117  -33.1617  -11.0975 C   0  0  0  0  0  0  0  0  0  0  0  0
   20.0034  -33.1486  -12.0021 N   0  0  0  0  0  0  0  0  0  0  0  0
   19.2603  -34.2508  -11.8189 C   0  0  0  0  0  0  0  0  0  0  0  0
   19.8175  -34.9467  -10.7926 N   0  0  0  0  0  0  0  0  0  0  0  0
   23.8855  -34.0814   -8.1498 C   0  0  0  0  0  0  0  0  0  0  0  0
   24.4483  -35.1757   -7.9186 O   0  0  0  0  0  0  0  0  0  0  0  0
   25.8633  -31.1764   -5.6007 O   0  0  0  0  0  0  0  0  0  0  0  0
   24.9207  -32.0458   -5.1390 C   0  0  0  0  0  0  0  0  0  0  0  0
   24.7537  -33.3053   -5.9697 C   0  0  2  0  0  0  0  0  0  0  0  0
   24.0334  -33.0530   -7.1878 N   0  0  0  0  0  0  0  0  0  0  0  0
   24.1233  -34.3665   -5.1436 C   0  0  0  0  0  0  0  0  0  0  0  0
   22.8501  -34.4945   -5.1107 O   0  0  0  0  0  0  0  0  0  0  0  0
   24.8345  -35.2997   -4.3479 N   0  0  0  0  0  0  0  0  0  0  0  0
   24.1908  -36.2788   -3.4923 C   0  0  1  0  0  0  0  0  0  0  0  0
   25.2873  -37.1429   -2.8931 C   0  0  0  0  0  0  0  0  0  0  0  0
   24.6584  -38.1904   -2.0279 C   0  0  0  0  0  0  0  0  0  0  0  0
   25.7016  -39.0497   -1.4513 C   0  0  0  0  0  0  0  0  0  0  0  0
   25.3960  -40.1206   -0.8900 O   0  0  0  0  0  0  0  0  0  0  0  0
   23.5462  -35.5490   -2.3779 C   0  0  0  0  0  0  0  0  0  0  0  0
   22.2816  -35.8610   -1.8958 O   0  0  0  0  0  0  0  0  0  0  0  0
   27.0265  -38.6658   -1.5335 O   0  0  0  0  0  0  0  0  0  0  0  0
   24.1424  -34.5976   -1.8193 O   0  0  0  0  0  0  0  0  0  0  0  0
  2  9  1  0
  2  1  1  6
  3  2  1  0
  4  3  1  0
  5  4  2  0
  6  7  1  0
  6  5  1  0
  7  8  2  0
  8  4  1  0
  9 14  1  0
 10  9  2  0
 12 11  1  0
 13 12  1  1
 14 13  1  0
 15 16  2  0
 15 13  1  0
 17 15  1  0
 18 19  1  1
 18 17  1  0
 19 20  1  0
 20 21  1  0
 21 22  2  0
 23 18  1  0
 24 23  1  0
 25 21  1  0
 26 23  2  0
M  END
$$$$
