HSE.pdb
     RDKit          3D

 26 26  0  0  1  0  0  0  0  0999 V2000
   18.9896  -12.4134  -17.6004 N   0  0  0  0  0  0  0  0  0  0  0  0
   19.9536  -11.3893  -17.9454 C   0  0  1  0  0  0  0  0  0  0  0  0
   19.3914  -10.4372  -18.9939 C   0  0  0  0  0  0  0  0  0  0  0  0
   19.2444  -11.2021  -20.2535 C   0  0  0  0  0  0  0  0  0  0  0  0
   18.1576  -11.1741  -21.0808 C   0  0  0  0  0  0  0  0  0  0  0  0
   18.3948  -12.0021  -22.1263 N   0  0  0  0  0  0  0  0  0  0  0  0
   19.6110  -12.5455  -21.9644 C   0  0  0  0  0  0  0  0  0  0  0  0
   20.1249  -12.0465  -20.8091 N   0  0  0  0  0  0  0  0  0  0  0  0
   20.2175  -10.5859  -16.7153 C   0  0  0  0  0  0  0  0  0  0  0  0
   19.2788  -10.3384  -15.9246 O   0  0  0  0  0  0  0  0  0  0  0  0
   23.1416   -8.9203  -13.3127 O   0  0  0  0  0  0  0  0  0  0  0  0
   22.9269   -9.6438  -14.4475 C   0  0  0  0  0  0  0  0  0  0  0  0
   21.6742   -9.2660  -15.2170 C   0  0  2  0  0  0  0  0  0  0  0  0
   21.4988  -10.0791  -16.3893 N   0  0  0  0  0  0  0  0  0  0  0  0
   21.7003   -7.8140  -15.5286 C   0  0  0  0  0  0  0  0  0  0  0  0
   22.3280   -7.3808  -16.5567 O   0  0  0  0  0  0  0  0  0  0  0  0
   21.0625   -6.8108  -14.7561 N   0  0  0  0  0  0  0  0  0  0  0  0
   21.0899   -5.4001  -15.0941 C   0  0  1  0  0  0  0  0  0  0  0  0
   19.6984   -4.8482  -14.8348 C   0  0  0  0  0  0  0  0  0  0  0  0
   19.6651   -3.4092  -15.2464 C   0  0  0  0  0  0  0  0  0  0  0  0
   18.3162   -2.8647  -15.0385 C   0  0  0  0  0  0  0  0  0  0  0  0
   17.4108   -3.5857  -14.5742 O   0  0  0  0  0  0  0  0  0  0  0  0
   22.0130   -4.7289  -14.1521 C   0  0  0  0  0  0  0  0  0  0  0  0
   22.7316   -3.5856  -14.4769 O   0  0  0  0  0  0  0  0  0  0  0  0
   18.0537   -1.5468  -15.3605 O   0  0  0  0  0  0  0  0  0  0  0  0
   22.1779   -5.1879  -12.9968 O   0  0  0  0  0  0  0  0  0  0  0  0
  2  9  1  0
  2  1  1  1
  3  2  1  0
  4  3  1  0
  5  4  2  0
  6  7  1  0
  6  5  1  0
  7  8  2  0
  8  4  1  0
  9 14  1  0
 10  9  2  0
 12 11  1  0
 13 12  1  6
 14 13  1  0
 15 16  2  0
 15 13  1  0
 17 15  1  0
 18 19  1  1
 18 17  1  0
 19 20  1  0
 20 21  1  0
 21 22  2  0
 23 18  1  0
 24 23  1  0
 25 21  1  0
 26 23  2  0
M  END
$$$$
