HSE.pdb
     RDKit          3D

 26 26  0  0  1  0  0  0  0  0999 V2000
   19.1397  -13.2543  -18.1307 N   0  0  0  0  0  0  0  0  0  0  0  0
   20.2524  -12.6166  -17.4579 C   0  0  1  0  0  0  0  0  0  0  0  0
   21.5265  -12.7181  -18.2877 C   0  0  0  0  0  0  0  0  0  0  0  0
   21.9258  -14.1441  -18.3138 C   0  0  0  0  0  0  0  0  0  0  0  0
   21.8099  -14.9847  -19.3844 C   0  0  0  0  0  0  0  0  0  0  0  0
   22.2782  -16.2035  -19.0236 N   0  0  0  0  0  0  0  0  0  0  0  0
   22.6839  -16.1364  -17.7463 C   0  0  0  0  0  0  0  0  0  0  0  0
   22.4626  -14.8649  -17.3193 N   0  0  0  0  0  0  0  0  0  0  0  0
   19.9269  -11.1661  -17.3238 C   0  0  0  0  0  0  0  0  0  0  0  0
   19.5562  -10.5195  -18.3299 O   0  0  0  0  0  0  0  0  0  0  0  0
   18.5372   -9.4269  -13.8462 O   0  0  0  0  0  0  0  0  0  0  0  0
   18.3793   -8.9379  -15.1085 C   0  0  0  0  0  0  0  0  0  0  0  0
   19.5892   -9.0995  -16.0107 C   0  0  2  0  0  0  0  0  0  0  0  0
   20.0170  -10.4692  -16.0945 N   0  0  0  0  0  0  0  0  0  0  0  0
   20.6728   -8.1902  -15.5580 C   0  0  0  0  0  0  0  0  0  0  0  0
   21.5534   -8.5942  -14.7213 O   0  0  0  0  0  0  0  0  0  0  0  0
   20.8331   -6.8486  -15.9873 N   0  0  0  0  0  0  0  0  0  0  0  0
   21.8330   -5.9476  -15.4456 C   0  0  1  0  0  0  0  0  0  0  0  0
   21.7554   -4.6572  -16.2438 C   0  0  0  0  0  0  0  0  0  0  0  0
   22.8714   -3.7561  -15.8150 C   0  0  0  0  0  0  0  0  0  0  0  0
   22.8161   -2.5007  -16.5765 C   0  0  0  0  0  0  0  0  0  0  0  0
   22.1016   -2.4129  -17.5948 O   0  0  0  0  0  0  0  0  0  0  0  0
   21.4454   -5.6287  -14.0535 C   0  0  0  0  0  0  0  0  0  0  0  0
   20.1641   -5.8292  -13.5564 O   0  0  0  0  0  0  0  0  0  0  0  0
   23.5609   -1.4142  -16.1589 O   0  0  0  0  0  0  0  0  0  0  0  0
   22.2897   -5.1532  -13.2574 O   0  0  0  0  0  0  0  0  0  0  0  0
  2  9  1  0
  2  1  1  6
  3  2  1  0
  4  3  1  0
  5  4  2  0
  6  7  1  0
  6  5  1  0
  7  8  2  0
  8  4  1  0
  9 14  1  0
 10  9  2  0
 12 11  1  0
 13 12  1  1
 14 13  1  0
 15 16  2  0
 15 13  1  0
 17 15  1  0
 18 19  1  6
 18 17  1  0
 19 20  1  0
 20 21  1  0
 21 22  2  0
 23 18  1  0
 24 23  1  0
 25 21  1  0
 26 23  2  0
M  END
$$$$
