HSE.pdb
     RDKit          3D

 26 26  0  0  1  0  0  0  0  0999 V2000
   26.5190   -9.7910  -15.0401 N   0  0  0  0  0  0  0  0  0  0  0  0
   25.6051   -9.2808  -16.0410 C   0  0  1  0  0  0  0  0  0  0  0  0
   25.5157  -10.2242  -17.2343 C   0  0  0  0  0  0  0  0  0  0  0  0
   26.8485  -10.2498  -17.8797 C   0  0  0  0  0  0  0  0  0  0  0  0
   27.3493   -9.2898  -18.7126 C   0  0  0  0  0  0  0  0  0  0  0  0
   28.5915   -9.6658  -19.1003 N   0  0  0  0  0  0  0  0  0  0  0  0
   28.8731  -10.8440  -18.5230 C   0  0  0  0  0  0  0  0  0  0  0  0
   27.7940  -11.1942  -17.7742 N   0  0  0  0  0  0  0  0  0  0  0  0
   24.2478   -9.2202  -15.4230 C   0  0  0  0  0  0  0  0  0  0  0  0
   23.7881  -10.2279  -14.8391 O   0  0  0  0  0  0  0  0  0  0  0  0
   22.5461   -6.2738  -13.2004 O   0  0  0  0  0  0  0  0  0  0  0  0
   21.8040   -6.6786  -14.2695 C   0  0  0  0  0  0  0  0  0  0  0  0
   22.1577   -8.0534  -14.8072 C   0  0  2  0  0  0  0  0  0  0  0  0
   23.4367   -8.0602  -15.4631 N   0  0  0  0  0  0  0  0  0  0  0  0
   21.0636   -8.5410  -15.6854 C   0  0  0  0  0  0  0  0  0  0  0  0
   21.0685   -8.2765  -16.9379 O   0  0  0  0  0  0  0  0  0  0  0  0
   19.9581   -9.3119  -15.2458 N   0  0  0  0  0  0  0  0  0  0  0  0
   18.8588   -9.7019  -16.1086 C   0  0  1  0  0  0  0  0  0  0  0  0
   18.0702  -10.7739  -15.3758 C   0  0  0  0  0  0  0  0  0  0  0  0
   16.8741  -11.1408  -16.1981 C   0  0  0  0  0  0  0  0  0  0  0  0
   16.2145  -12.3181  -15.6169 C   0  0  0  0  0  0  0  0  0  0  0  0
   16.7243  -12.9095  -14.6445 O   0  0  0  0  0  0  0  0  0  0  0  0
   17.9697   -8.5291  -16.2636 C   0  0  0  0  0  0  0  0  0  0  0  0
   17.2252   -8.2862  -17.4107 O   0  0  0  0  0  0  0  0  0  0  0  0
   15.0235  -12.7690  -16.1534 O   0  0  0  0  0  0  0  0  0  0  0  0
   17.8597   -7.6945  -15.3341 O   0  0  0  0  0  0  0  0  0  0  0  0
  2  9  1  0
  2  1  1  1
  3  2  1  0
  4  3  1  0
  5  4  2  0
  6  7  1  0
  6  5  1  0
  7  8  2  0
  8  4  1  0
  9 14  1  0
 10  9  2  0
 12 11  1  0
 13 12  1  6
 14 13  1  0
 15 16  2  0
 15 13  1  0
 17 15  1  0
 18 19  1  1
 18 17  1  0
 19 20  1  0
 20 21  1  0
 21 22  2  0
 23 18  1  0
 24 23  1  0
 25 21  1  0
 26 23  2  0
M  END
$$$$
