HSE.pdb
     RDKit          3D

 26 26  0  0  1  0  0  0  0  0999 V2000
   17.6033  -12.2639  -15.1379 N   0  0  0  0  0  0  0  0  0  0  0  0
   17.7995  -11.1926  -16.0923 C   0  0  1  0  0  0  0  0  0  0  0  0
   16.4997  -10.4387  -16.3461 C   0  0  0  0  0  0  0  0  0  0  0  0
   15.5809  -11.3639  -17.0485 C   0  0  0  0  0  0  0  0  0  0  0  0
   15.6574  -11.7150  -18.3665 C   0  0  0  0  0  0  0  0  0  0  0  0
   14.6475  -12.5758  -18.6388 N   0  0  0  0  0  0  0  0  0  0  0  0
   13.9432  -12.7669  -17.5127 C   0  0  0  0  0  0  0  0  0  0  0  0
   14.5260  -12.0166  -16.5405 N   0  0  0  0  0  0  0  0  0  0  0  0
   18.7621  -10.2233  -15.4906 C   0  0  0  0  0  0  0  0  0  0  0  0
   18.5636   -9.7927  -14.3317 O   0  0  0  0  0  0  0  0  0  0  0  0
   23.1558   -8.3066  -15.2404 O   0  0  0  0  0  0  0  0  0  0  0  0
   22.2577   -9.1646  -15.8015 C   0  0  0  0  0  0  0  0  0  0  0  0
   20.8018   -8.8282  -15.5342 C   0  0  2  0  0  0  0  0  0  0  0  0
   19.9103   -9.7561  -16.1748 N   0  0  0  0  0  0  0  0  0  0  0  0
   20.5365   -7.4200  -15.9249 C   0  0  0  0  0  0  0  0  0  0  0  0
   20.0839   -7.1427  -17.0898 O   0  0  0  0  0  0  0  0  0  0  0  0
   20.7469   -6.2961  -15.0868 N   0  0  0  0  0  0  0  0  0  0  0  0
   20.5701   -4.9245  -15.5255 C   0  0  1  0  0  0  0  0  0  0  0  0
   19.1054   -4.5736  -15.3261 C   0  0  0  0  0  0  0  0  0  0  0  0
   18.8967   -3.1397  -15.7023 C   0  0  0  0  0  0  0  0  0  0  0  0
   17.4833   -2.7802  -15.5226 C   0  0  0  0  0  0  0  0  0  0  0  0
   16.6845   -3.5970  -15.0228 O   0  0  0  0  0  0  0  0  0  0  0  0
   21.3581   -4.0572  -14.6216 C   0  0  0  0  0  0  0  0  0  0  0  0
   21.7414   -2.7639  -14.9525 O   0  0  0  0  0  0  0  0  0  0  0  0
   17.0412   -1.5298  -15.9106 O   0  0  0  0  0  0  0  0  0  0  0  0
   21.7135   -4.4787  -13.4953 O   0  0  0  0  0  0  0  0  0  0  0  0
  2  9  1  0
  2  1  1  1
  3  2  1  0
  4  3  1  0
  5  4  2  0
  6  7  1  0
  6  5  1  0
  7  8  2  0
  8  4  1  0
  9 14  1  0
 10  9  2  0
 12 11  1  0
 13 12  1  6
 14 13  1  0
 15 16  2  0
 15 13  1  0
 17 15  1  0
 18 19  1  1
 18 17  1  0
 19 20  1  0
 20 21  1  0
 21 22  2  0
 23 18  1  0
 24 23  1  0
 25 21  1  0
 26 23  2  0
M  END
$$$$
