HSE.pdb
     RDKit          3D

 26 26  0  0  1  0  0  0  0  0999 V2000
   28.2999  -29.7729  -16.0590 N   0  0  0  0  0  0  0  0  0  0  0  0
   29.3308  -29.1302  -16.8473 C   0  0  1  0  0  0  0  0  0  0  0  0
   29.0426  -29.2600  -18.3380 C   0  0  0  0  0  0  0  0  0  0  0  0
   29.2950  -30.6693  -18.7170 C   0  0  0  0  0  0  0  0  0  0  0  0
   28.3522  -31.5607  -19.1447 C   0  0  0  0  0  0  0  0  0  0  0  0
   28.9640  -32.7433  -19.3939 N   0  0  0  0  0  0  0  0  0  0  0  0
   30.2720  -32.6038  -19.1287 C   0  0  0  0  0  0  0  0  0  0  0  0
   30.4648  -31.3240  -18.7129 N   0  0  0  0  0  0  0  0  0  0  0  0
   29.3083  -27.6744  -16.5182 C   0  0  0  0  0  0  0  0  0  0  0  0
   28.2160  -27.1109  -16.2791 O   0  0  0  0  0  0  0  0  0  0  0  0
   32.4026  -25.5216  -14.6473 O   0  0  0  0  0  0  0  0  0  0  0  0
   31.7730  -24.9423  -15.7083 C   0  0  0  0  0  0  0  0  0  0  0  0
   30.4032  -25.5138  -16.0263 C   0  0  2  0  0  0  0  0  0  0  0  0
   30.4802  -26.8818  -16.4608 N   0  0  0  0  0  0  0  0  0  0  0  0
   29.7158  -24.6402  -17.0114 C   0  0  0  0  0  0  0  0  0  0  0  0
   29.8691  -24.8310  -18.2678 O   0  0  0  0  0  0  0  0  0  0  0  0
   28.8614  -23.5602  -16.6748 N   0  0  0  0  0  0  0  0  0  0  0  0
   28.1497  -22.7646  -17.6575 C   0  0  1  0  0  0  0  0  0  0  0  0
   27.2416  -21.8147  -16.8951 C   0  0  0  0  0  0  0  0  0  0  0  0
   26.4864  -20.9751  -17.8780 C   0  0  0  0  0  0  0  0  0  0  0  0
   25.6142  -20.0350  -17.1608 C   0  0  0  0  0  0  0  0  0  0  0  0
   25.9325  -18.8336  -17.0585 O   0  0  0  0  0  0  0  0  0  0  0  0
   29.1461  -21.9398  -18.3765 C   0  0  0  0  0  0  0  0  0  0  0  0
   28.9048  -21.3678  -19.6190 O   0  0  0  0  0  0  0  0  0  0  0  0
   24.4363  -20.4884  -16.5982 O   0  0  0  0  0  0  0  0  0  0  0  0
   30.2726  -21.7270  -17.8684 O   0  0  0  0  0  0  0  0  0  0  0  0
  2  9  1  0
  2  1  1  1
  3  2  1  0
  4  3  1  0
  5  4  2  0
  6  7  1  0
  6  5  1  0
  7  8  2  0
  8  4  1  0
  9 14  1  0
 10  9  2  0
 12 11  1  0
 13 12  1  6
 14 13  1  0
 15 16  2  0
 15 13  1  0
 17 15  1  0
 18 19  1  1
 18 17  1  0
 19 20  1  0
 20 21  1  0
 21 22  2  0
 23 18  1  0
 24 23  1  0
 25 21  1  0
 26 23  2  0
M  END
$$$$
