HSE.pdb
     RDKit          3D

 26 26  0  0  1  0  0  0  0  0999 V2000
   20.1235  -13.2293  -17.2086 N   0  0  0  0  0  0  0  0  0  0  0  0
   19.8989  -11.8682  -17.6491 C   0  0  1  0  0  0  0  0  0  0  0  0
   18.4821  -11.6902  -18.1810 C   0  0  0  0  0  0  0  0  0  0  0  0
   18.3794  -12.4683  -19.4370 C   0  0  0  0  0  0  0  0  0  0  0  0
   18.5042  -11.9631  -20.7000 C   0  0  0  0  0  0  0  0  0  0  0  0
   18.3487  -12.9779  -21.5837 N   0  0  0  0  0  0  0  0  0  0  0  0
   18.1290  -14.1069  -20.8925 C   0  0  0  0  0  0  0  0  0  0  0  0
   18.1499  -13.7821  -19.5727 N   0  0  0  0  0  0  0  0  0  0  0  0
   20.0383  -10.9800  -16.4575 C   0  0  0  0  0  0  0  0  0  0  0  0
   19.6817  -11.3949  -15.3313 O   0  0  0  0  0  0  0  0  0  0  0  0
   22.1048   -9.0714  -13.2537 O   0  0  0  0  0  0  0  0  0  0  0  0
   21.7324   -9.7350  -14.3843 C   0  0  0  0  0  0  0  0  0  0  0  0
   20.8561   -8.9368  -15.3326 C   0  0  2  0  0  0  0  0  0  0  0  0
   20.5629   -9.6671  -16.5354 N   0  0  0  0  0  0  0  0  0  0  0  0
   21.4873   -7.6200  -15.6042 C   0  0  0  0  0  0  0  0  0  0  0  0
   22.5292   -7.5386  -16.3434 O   0  0  0  0  0  0  0  0  0  0  0  0
   21.0207   -6.3810  -15.0973 N   0  0  0  0  0  0  0  0  0  0  0  0
   21.6074   -5.1005  -15.4450 C   0  0  1  0  0  0  0  0  0  0  0  0
   20.4632   -4.1229  -15.6530 C   0  0  0  0  0  0  0  0  0  0  0  0
   21.0312   -2.7766  -15.9787 C   0  0  0  0  0  0  0  0  0  0  0  0
   19.9399   -1.8211  -16.2136 C   0  0  0  0  0  0  0  0  0  0  0  0
   18.7517   -2.1943  -16.1496 O   0  0  0  0  0  0  0  0  0  0  0  0
   22.3837   -4.6284  -14.2769 C   0  0  0  0  0  0  0  0  0  0  0  0
   23.4341   -3.7252  -14.3770 O   0  0  0  0  0  0  0  0  0  0  0  0
   20.2358   -0.5036  -16.5067 O   0  0  0  0  0  0  0  0  0  0  0  0
   22.1063   -5.0435  -13.1265 O   0  0  0  0  0  0  0  0  0  0  0  0
  2  9  1  0
  2  1  1  1
  3  2  1  0
  4  3  1  0
  5  4  2  0
  6  7  1  0
  6  5  1  0
  7  8  2  0
  8  4  1  0
  9 14  1  0
 10  9  2  0
 12 11  1  0
 13 12  1  1
 14 13  1  0
 15 16  2  0
 15 13  1  0
 17 15  1  0
 18 19  1  1
 18 17  1  0
 19 20  1  0
 20 21  1  0
 21 22  2  0
 23 18  1  0
 24 23  1  0
 25 21  1  0
 26 23  2  0
M  END
$$$$
