HSE.pdb
     RDKit          3D

 26 26  0  0  1  0  0  0  0  0999 V2000
   18.1887  -12.1609  -16.7821 N   0  0  0  0  0  0  0  0  0  0  0  0
   19.0795  -11.1929  -17.3874 C   0  0  1  0  0  0  0  0  0  0  0  0
   18.3156  -10.2368  -18.2955 C   0  0  0  0  0  0  0  0  0  0  0  0
   17.8486  -11.0152  -19.4657 C   0  0  0  0  0  0  0  0  0  0  0  0
   16.5687  -11.4425  -19.6793 C   0  0  0  0  0  0  0  0  0  0  0  0
   16.5343  -12.1196  -20.8521 N   0  0  0  0  0  0  0  0  0  0  0  0
   17.7711  -12.1213  -21.3726 C   0  0  0  0  0  0  0  0  0  0  0  0
   18.5718  -11.4392  -20.5117 N   0  0  0  0  0  0  0  0  0  0  0  0
   19.6739  -10.3775  -16.2875 C   0  0  0  0  0  0  0  0  0  0  0  0
   18.9352   -9.9274  -15.3823 O   0  0  0  0  0  0  0  0  0  0  0  0
   23.8901   -9.8704  -15.5337 O   0  0  0  0  0  0  0  0  0  0  0  0
   22.8907   -9.8360  -14.6078 C   0  0  0  0  0  0  0  0  0  0  0  0
   21.5661   -9.2990  -15.1191 C   0  0  2  0  0  0  0  0  0  0  0  0
   21.0563  -10.0806  -16.2124 N   0  0  0  0  0  0  0  0  0  0  0  0
   21.7118   -7.8618  -15.4645 C   0  0  0  0  0  0  0  0  0  0  0  0
   22.0190   -7.5073  -16.6556 O   0  0  0  0  0  0  0  0  0  0  0  0
   21.5326   -6.7903  -14.5537 N   0  0  0  0  0  0  0  0  0  0  0  0
   21.8087   -5.4043  -14.8821 C   0  0  1  0  0  0  0  0  0  0  0  0
   20.4862   -4.7595  -15.2607 C   0  0  0  0  0  0  0  0  0  0  0  0
   20.7174   -3.3051  -15.5300 C   0  0  0  0  0  0  0  0  0  0  0  0
   19.4449   -2.6555  -15.8731 C   0  0  0  0  0  0  0  0  0  0  0  0
   19.2838   -1.4367  -15.6642 O   0  0  0  0  0  0  0  0  0  0  0  0
   22.2883   -4.7366  -13.6515 C   0  0  0  0  0  0  0  0  0  0  0  0
   23.0122   -3.5513  -13.6628 O   0  0  0  0  0  0  0  0  0  0  0  0
   18.4242   -3.4024  -16.4298 O   0  0  0  0  0  0  0  0  0  0  0  0
   22.0471   -5.2380  -12.5277 O   0  0  0  0  0  0  0  0  0  0  0  0
  2  9  1  0
  2  1  1  1
  3  2  1  0
  4  3  1  0
  5  4  2  0
  6  7  1  0
  6  5  1  0
  7  8  2  0
  8  4  1  0
  9 14  1  0
 10  9  2  0
 12 11  1  0
 13 12  1  6
 14 13  1  0
 15 16  2  0
 15 13  1  0
 17 15  1  0
 18 19  1  1
 18 17  1  0
 19 20  1  0
 20 21  1  0
 21 22  2  0
 23 18  1  0
 24 23  1  0
 25 21  1  0
 26 23  2  0
M  END
$$$$
