HSE.pdb
     RDKit          3D

 26 26  0  0  1  0  0  0  0  0999 V2000
   19.6920  -12.6091  -15.8705 N   0  0  0  0  0  0  0  0  0  0  0  0
   18.6079  -11.6492  -15.8534 C   0  0  1  0  0  0  0  0  0  0  0  0
   17.4743  -12.1176  -14.9492 C   0  0  0  0  0  0  0  0  0  0  0  0
   16.8251  -13.2709  -15.6139 C   0  0  0  0  0  0  0  0  0  0  0  0
   16.8492  -14.5630  -15.1713 C   0  0  0  0  0  0  0  0  0  0  0  0
   16.1470  -15.3265  -16.0426 N   0  0  0  0  0  0  0  0  0  0  0  0
   15.6859  -14.5317  -17.0205 C   0  0  0  0  0  0  0  0  0  0  0  0
   16.1088  -13.2691  -16.7470 N   0  0  0  0  0  0  0  0  0  0  0  0
   19.1388  -10.3798  -15.2748 C   0  0  0  0  0  0  0  0  0  0  0  0
   20.3121  -10.3413  -14.8394 O   0  0  0  0  0  0  0  0  0  0  0  0
   20.6627   -6.3367  -15.4903 O   0  0  0  0  0  0  0  0  0  0  0  0
   20.0515   -7.5169  -15.7921 C   0  0  0  0  0  0  0  0  0  0  0  0
   18.9929   -7.9589  -14.7980 C   0  0  2  0  0  0  0  0  0  0  0  0
   18.3702   -9.1935  -15.1908 N   0  0  0  0  0  0  0  0  0  0  0  0
   18.0104   -6.8633  -14.5969 C   0  0  0  0  0  0  0  0  0  0  0  0
   17.1847   -6.5522  -15.5242 O   0  0  0  0  0  0  0  0  0  0  0  0
   17.8939   -6.0903  -13.4142 N   0  0  0  0  0  0  0  0  0  0  0  0
   16.8791   -5.0719  -13.2188 C   0  0  1  0  0  0  0  0  0  0  0  0
   16.8298   -4.7654  -11.7316 C   0  0  0  0  0  0  0  0  0  0  0  0
   15.7563   -3.7521  -11.4826 C   0  0  0  0  0  0  0  0  0  0  0  0
   15.7464   -3.3786  -10.0615 C   0  0  0  0  0  0  0  0  0  0  0  0
   16.6100   -3.8331   -9.2850 O   0  0  0  0  0  0  0  0  0  0  0  0
   17.3349   -3.8437  -13.9071 C   0  0  0  0  0  0  0  0  0  0  0  0
   16.4638   -2.8808  -14.4000 O   0  0  0  0  0  0  0  0  0  0  0  0
   14.7739   -2.5192   -9.5871 O   0  0  0  0  0  0  0  0  0  0  0  0
   18.5599   -3.6305  -14.0703 O   0  0  0  0  0  0  0  0  0  0  0  0
  2  9  1  0
  2  1  1  1
  3  2  1  0
  4  3  1  0
  5  4  2  0
  6  7  1  0
  6  5  1  0
  7  8  2  0
  8  4  1  0
  9 14  1  0
 10  9  2  0
 12 11  1  0
 13 12  1  6
 14 13  1  0
 15 16  2  0
 15 13  1  0
 17 15  1  0
 18 19  1  1
 18 17  1  0
 19 20  1  0
 20 21  1  0
 21 22  2  0
 23 18  1  0
 24 23  1  0
 25 21  1  0
 26 23  2  0
M  END
$$$$
