HSE.pdb
     RDKit          3D

 26 26  0  0  1  0  0  0  0  0999 V2000
   19.5314  -11.6320  -18.0137 N   0  0  0  0  0  0  0  0  0  0  0  0
   20.7308  -10.8441  -17.8192 C   0  0  1  0  0  0  0  0  0  0  0  0
   21.1172  -10.1084  -19.0966 C   0  0  0  0  0  0  0  0  0  0  0  0
   21.5251  -11.1287  -20.0895 C   0  0  0  0  0  0  0  0  0  0  0  0
   20.8778  -11.4050  -21.2603 C   0  0  0  0  0  0  0  0  0  0  0  0
   21.5484  -12.3954  -21.8961 N   0  0  0  0  0  0  0  0  0  0  0  0
   22.6026  -12.7409  -21.1411 C   0  0  0  0  0  0  0  0  0  0  0  0
   22.5788  -11.9554  -20.0319 N   0  0  0  0  0  0  0  0  0  0  0  0
   20.4278   -9.8088  -16.7875 C   0  0  0  0  0  0  0  0  0  0  0  0
   19.3404   -9.1897  -16.8328 O   0  0  0  0  0  0  0  0  0  0  0  0
   22.7852   -9.0347  -13.2751 O   0  0  0  0  0  0  0  0  0  0  0  0
   21.4487   -8.7952  -13.3924 C   0  0  0  0  0  0  0  0  0  0  0  0
   20.9830   -8.4539  -14.7963 C   0  0  2  0  0  0  0  0  0  0  0  0
   21.3230   -9.4838  -15.7397 N   0  0  0  0  0  0  0  0  0  0  0  0
   21.5153   -7.1236  -15.1877 C   0  0  0  0  0  0  0  0  0  0  0  0
   22.5507   -7.0317  -15.9348 O   0  0  0  0  0  0  0  0  0  0  0  0
   20.9562   -5.8821  -14.7927 N   0  0  0  0  0  0  0  0  0  0  0  0
   21.5563   -4.5979  -15.1021 C   0  0  1  0  0  0  0  0  0  0  0  0
   20.4214   -3.6232  -15.3668 C   0  0  0  0  0  0  0  0  0  0  0  0
   21.0008   -2.2705  -15.6424 C   0  0  0  0  0  0  0  0  0  0  0  0
   19.9176   -1.2981  -15.8431 C   0  0  0  0  0  0  0  0  0  0  0  0
   18.7264   -1.6528  -15.7416 O   0  0  0  0  0  0  0  0  0  0  0  0
   22.2667   -4.1291  -13.8916 C   0  0  0  0  0  0  0  0  0  0  0  0
   23.3253   -3.2309  -13.9316 O   0  0  0  0  0  0  0  0  0  0  0  0
   20.2247    0.0148  -16.1456 O   0  0  0  0  0  0  0  0  0  0  0  0
   21.9222   -4.5426  -12.7589 O   0  0  0  0  0  0  0  0  0  0  0  0
  2  9  1  0
  2  1  1  6
  3  2  1  0
  4  3  1  0
  5  4  2  0
  6  7  1  0
  6  5  1  0
  7  8  2  0
  8  4  1  0
  9 14  1  0
 10  9  2  0
 12 11  1  0
 13 12  1  1
 14 13  1  0
 15 16  2  0
 15 13  1  0
 17 15  1  0
 18 19  1  1
 18 17  1  0
 19 20  1  0
 20 21  1  0
 21 22  2  0
 23 18  1  0
 24 23  1  0
 25 21  1  0
 26 23  2  0
M  END
$$$$
