HSE.pdb
     RDKit          3D

 26 26  0  0  1  0  0  0  0  0999 V2000
   21.8609  -11.9268  -19.9448 N   0  0  0  0  0  0  0  0  0  0  0  0
   22.9847  -11.3702  -19.2206 C   0  0  1  0  0  0  0  0  0  0  0  0
   23.8168  -10.4591  -20.1149 C   0  0  0  0  0  0  0  0  0  0  0  0
   24.5010  -11.3182  -21.1085 C   0  0  0  0  0  0  0  0  0  0  0  0
   24.2194  -11.3716  -22.4442 C   0  0  0  0  0  0  0  0  0  0  0  0
   25.0524  -12.2706  -23.0211 N   0  0  0  0  0  0  0  0  0  0  0  0
   25.8482  -12.7782  -22.0673 C   0  0  0  0  0  0  0  0  0  0  0  0
   25.5006  -12.1854  -20.8945 N   0  0  0  0  0  0  0  0  0  0  0  0
   22.4371  -10.5265  -18.1177 C   0  0  0  0  0  0  0  0  0  0  0  0
   21.3701   -9.8953  -18.2928 O   0  0  0  0  0  0  0  0  0  0  0  0
   24.1996  -10.1492  -14.2016 O   0  0  0  0  0  0  0  0  0  0  0  0
   22.8562  -10.1822  -14.4292 C   0  0  0  0  0  0  0  0  0  0  0  0
   22.4286   -9.6789  -15.7960 C   0  0  2  0  0  0  0  0  0  0  0  0
   23.0735  -10.4000  -16.8591 N   0  0  0  0  0  0  0  0  0  0  0  0
   22.6562   -8.2136  -15.8805 C   0  0  0  0  0  0  0  0  0  0  0  0
   23.7256   -7.7513  -16.4108 O   0  0  0  0  0  0  0  0  0  0  0  0
   21.7547   -7.2278  -15.4060 N   0  0  0  0  0  0  0  0  0  0  0  0
   22.0069   -5.8017  -15.4944 C   0  0  1  0  0  0  0  0  0  0  0  0
   20.8443   -5.1854  -16.2537 C   0  0  0  0  0  0  0  0  0  0  0  0
   21.0318   -3.7009  -16.3024 C   0  0  0  0  0  0  0  0  0  0  0  0
   19.8955   -3.0796  -16.9967 C   0  0  0  0  0  0  0  0  0  0  0  0
   19.2303   -3.7329  -17.8249 O   0  0  0  0  0  0  0  0  0  0  0  0
   21.9766   -5.2527  -14.1204 C   0  0  0  0  0  0  0  0  0  0  0  0
   22.5505   -4.0360  -13.7752 O   0  0  0  0  0  0  0  0  0  0  0  0
   19.5658   -1.7649  -16.7278 O   0  0  0  0  0  0  0  0  0  0  0  0
   21.4138   -5.8909  -13.1992 O   0  0  0  0  0  0  0  0  0  0  0  0
  2  9  1  0
  2  1  1  6
  3  2  1  0
  4  3  1  0
  5  4  2  0
  6  7  1  0
  6  5  1  0
  7  8  2  0
  8  4  1  0
  9 14  1  0
 10  9  2  0
 12 11  1  0
 13 12  1  1
 14 13  1  0
 15 16  2  0
 15 13  1  0
 17 15  1  0
 18 19  1  6
 18 17  1  0
 19 20  1  0
 20 21  1  0
 21 22  2  0
 23 18  1  0
 24 23  1  0
 25 21  1  0
 26 23  2  0
M  END
$$$$
