KPP.pdb
     RDKit          3D

 24 25  0  0  1  0  0  0  0  0999 V2000
   10.2618  -15.4382   20.3819 N   0  0  0  0  0  0  0  0  0  0  0  0
    9.7817  -16.3440   21.3985 C   0  0  1  0  0  0  0  0  0  0  0  0
   10.4816  -17.6539   21.3435 C   0  0  0  0  0  0  0  0  0  0  0  0
   10.0726  -18.6724   22.3057 C   0  0  0  0  0  0  0  0  0  0  0  0
    9.4987  -19.9601   21.9416 C   0  0  0  0  0  0  0  0  0  0  0  0
    9.1160  -20.9502   22.9663 C   0  0  0  0  0  0  0  0  0  0  0  0
    8.4434  -22.0706   22.2453 N   0  0  0  0  0  0  0  0  0  0  0  0
    9.8995  -15.7711   22.7920 C   0  0  0  0  0  0  0  0  0  0  0  0
   11.0463  -15.9047   23.2698 O   0  0  0  0  0  0  0  0  0  0  0  0
    8.8703  -15.1592   23.4864 N   0  0  0  0  0  0  0  0  0  0  0  0
    7.8284  -14.2642   22.9133 C   0  0  0  0  0  0  0  0  0  0  0  0
    6.5712  -14.8868   23.5471 C   0  0  0  0  0  0  0  0  0  0  0  0
    7.0743  -15.7323   24.7224 C   0  0  0  0  0  0  0  0  0  0  0  0
    8.4644  -15.1180   24.8741 C   0  0  1  0  0  0  0  0  0  0  0  0
    9.2911  -15.6814   25.8895 C   0  0  0  0  0  0  0  0  0  0  0  0
    9.8152  -16.8025   25.8315 O   0  0  0  0  0  0  0  0  0  0  0  0
    9.5496  -14.9109   27.0712 N   0  0  0  0  0  0  0  0  0  0  0  0
    9.0826  -13.5707   27.3864 C   0  0  0  0  0  0  0  0  0  0  0  0
   10.1772  -12.9940   28.2758 C   0  0  0  0  0  0  0  0  0  0  0  0
   10.4543  -14.2016   29.1412 C   0  0  0  0  0  0  0  0  0  0  0  0
   10.3667  -15.3456   28.2009 C   0  0  1  0  0  0  0  0  0  0  0  0
    9.8526  -16.5697   28.8184 C   0  0  0  0  0  0  0  0  0  0  0  0
   10.6387  -17.2738   29.7009 O   0  0  0  0  0  0  0  0  0  0  0  0
    8.7082  -16.9863   28.5559 O   0  0  0  0  0  0  0  0  0  0  0  0
  2  1  1  6
  3  4  1  0
  3  2  1  0
  5  6  1  0
  5  4  1  0
  6  7  1  0
  8  2  1  0
  9  8  2  0
 10 11  1  0
 10  8  1  0
 12 11  1  0
 13 12  1  0
 13 14  1  0
 14 10  1  0
 14 15  1  1
 16 15  2  0
 17 18  1  0
 17 15  1  0
 19 18  1  0
 20 21  1  0
 20 19  1  0
 21 17  1  0
 22 23  1  0
 21 22  1  1
 24 22  2  0
M  END
$$$$
