KPP.pdb
     RDKit          3D

 24 25  0  0  1  0  0  0  0  0999 V2000
   11.2012  -16.0743   20.1691 N   0  0  0  0  0  0  0  0  0  0  0  0
   10.3289  -16.7710   21.0845 C   0  0  1  0  0  0  0  0  0  0  0  0
   10.6696  -18.2145   21.1785 C   0  0  0  0  0  0  0  0  0  0  0  0
    9.9401  -19.0121   22.1594 C   0  0  0  0  0  0  0  0  0  0  0  0
    9.9940  -20.4651   22.2371 C   0  0  0  0  0  0  0  0  0  0  0  0
    9.2804  -21.2069   23.2942 C   0  0  0  0  0  0  0  0  0  0  0  0
    9.5880  -22.6517   23.0819 N   0  0  0  0  0  0  0  0  0  0  0  0
   10.3324  -16.1642   22.4686 C   0  0  0  0  0  0  0  0  0  0  0  0
   11.4102  -16.3531   23.0719 O   0  0  0  0  0  0  0  0  0  0  0  0
    9.2758  -15.4697   23.0316 N   0  0  0  0  0  0  0  0  0  0  0  0
    8.2964  -14.6137   22.3083 C   0  0  0  0  0  0  0  0  0  0  0  0
    6.9852  -15.1494   22.9114 C   0  0  0  0  0  0  0  0  0  0  0  0
    7.3890  -15.8885   24.1920 C   0  0  0  0  0  0  0  0  0  0  0  0
    8.7813  -15.2889   24.3789 C   0  0  1  0  0  0  0  0  0  0  0  0
    9.5254  -15.7688   25.4960 C   0  0  0  0  0  0  0  0  0  0  0  0
   10.0956  -16.8676   25.5448 O   0  0  0  0  0  0  0  0  0  0  0  0
    9.6366  -14.9343   26.6570 N   0  0  0  0  0  0  0  0  0  0  0  0
    9.1905  -13.5600   26.8183 C   0  0  0  0  0  0  0  0  0  0  0  0
   10.1625  -12.9689   27.8319 C   0  0  0  0  0  0  0  0  0  0  0  0
   10.2474  -14.1280   28.7979 C   0  0  0  0  0  0  0  0  0  0  0  0
   10.2506  -15.3259   27.9229 C   0  0  1  0  0  0  0  0  0  0  0  0
    9.5914  -16.4877   28.5227 C   0  0  0  0  0  0  0  0  0  0  0  0
   10.2368  -17.2142   29.4965 O   0  0  0  0  0  0  0  0  0  0  0  0
    8.4490  -16.8308   28.1634 O   0  0  0  0  0  0  0  0  0  0  0  0
  2  1  1  6
  3  4  1  0
  3  2  1  0
  5  6  1  0
  5  4  1  0
  6  7  1  0
  8  2  1  0
  9  8  2  0
 10 11  1  0
 10  8  1  0
 12 11  1  0
 13 12  1  0
 13 14  1  0
 14 10  1  0
 14 15  1  1
 16 15  2  0
 17 18  1  0
 17 15  1  0
 19 18  1  0
 20 21  1  0
 20 19  1  0
 21 17  1  0
 22 23  1  0
 21 22  1  1
 24 22  2  0
M  END
$$$$
