KPP.pdb
     RDKit          3D

 24 25  0  0  1  0  0  0  0  0999 V2000
    9.0296  -14.9386   20.6995 N   0  0  0  0  0  0  0  0  0  0  0  0
    8.0885  -15.0299   21.7906 C   0  0  1  0  0  0  0  0  0  0  0  0
    7.4199  -16.3565   21.8311 C   0  0  0  0  0  0  0  0  0  0  0  0
    8.2701  -17.5295   22.0092 C   0  0  0  0  0  0  0  0  0  0  0  0
    7.7753  -18.8973   22.0766 C   0  0  0  0  0  0  0  0  0  0  0  0
    8.6894  -20.0380   22.2767 C   0  0  0  0  0  0  0  0  0  0  0  0
    7.8473  -21.2696   22.2404 N   0  0  0  0  0  0  0  0  0  0  0  0
    8.7233  -14.7474   23.1326 C   0  0  0  0  0  0  0  0  0  0  0  0
    9.8769  -15.2182   23.2257 O   0  0  0  0  0  0  0  0  0  0  0  0
    8.1197  -14.0468   24.1625 N   0  0  0  0  0  0  0  0  0  0  0  0
    7.2712  -12.8317   24.0253 C   0  0  0  0  0  0  0  0  0  0  0  0
    6.0865  -13.2374   24.9208 C   0  0  0  0  0  0  0  0  0  0  0  0
    6.6004  -14.3887   25.7924 C   0  0  0  0  0  0  0  0  0  0  0  0
    8.1006  -14.1735   25.6033 C   0  0  1  0  0  0  0  0  0  0  0  0
    8.9552  -15.1053   26.2617 C   0  0  0  0  0  0  0  0  0  0  0  0
    9.2131  -16.2430   25.8448 O   0  0  0  0  0  0  0  0  0  0  0  0
    9.5731  -14.7172   27.4963 N   0  0  0  0  0  0  0  0  0  0  0  0
    9.3813  -13.4863   28.2458 C   0  0  0  0  0  0  0  0  0  0  0  0
   10.7147  -13.2666   28.9497 C   0  0  0  0  0  0  0  0  0  0  0  0
   11.0011  -14.6852   29.3848 C   0  0  0  0  0  0  0  0  0  0  0  0
   10.5482  -15.5113   28.2389 C   0  0  1  0  0  0  0  0  0  0  0  0
   10.0142  -16.8156   28.6356 C   0  0  0  0  0  0  0  0  0  0  0  0
   10.8682  -17.8002   29.0759 O   0  0  0  0  0  0  0  0  0  0  0  0
    8.7918  -17.0496   28.5806 O   0  0  0  0  0  0  0  0  0  0  0  0
  2  1  1  6
  3  4  1  0
  3  2  1  0
  5  6  1  0
  5  4  1  0
  6  7  1  0
  8  2  1  0
  9  8  2  0
 10 11  1  0
 10  8  1  0
 12 11  1  0
 13 12  1  0
 13 14  1  0
 14 10  1  0
 14 15  1  6
 16 15  2  0
 17 18  1  0
 17 15  1  0
 19 18  1  0
 20 21  1  0
 20 19  1  0
 21 17  1  0
 22 23  1  0
 21 22  1  1
 24 22  2  0
M  END
$$$$
