KPP.pdb
     RDKit          3D

 24 25  0  0  1  0  0  0  0  0999 V2000
    5.6896  -19.4459   24.6864 N   0  0  0  0  0  0  0  0  0  0  0  0
    6.8594  -18.6000   24.6672 C   0  0  1  0  0  0  0  0  0  0  0  0
    8.0944  -19.3749   24.3792 C   0  0  0  0  0  0  0  0  0  0  0  0
    9.2672  -19.0955   25.2019 C   0  0  0  0  0  0  0  0  0  0  0  0
    9.7005  -19.9230   26.3189 C   0  0  0  0  0  0  0  0  0  0  0  0
   10.9469  -19.6340   27.0535 C   0  0  0  0  0  0  0  0  0  0  0  0
   11.1095  -20.7232   28.0608 N   0  0  0  0  0  0  0  0  0  0  0  0
    6.7397  -17.4626   23.6794 C   0  0  0  0  0  0  0  0  0  0  0  0
    6.3030  -17.8355   22.5697 O   0  0  0  0  0  0  0  0  0  0  0  0
    7.0678  -16.1445   23.9456 N   0  0  0  0  0  0  0  0  0  0  0  0
    6.6387  -15.3494   25.1284 C   0  0  0  0  0  0  0  0  0  0  0  0
    7.9922  -14.7431   25.5411 C   0  0  0  0  0  0  0  0  0  0  0  0
    8.9027  -14.8886   24.3167 C   0  0  0  0  0  0  0  0  0  0  0  0
    7.8307  -15.1277   23.2554 C   0  0  1  0  0  0  0  0  0  0  0  0
    8.3014  -15.3489   21.9281 C   0  0  0  0  0  0  0  0  0  0  0  0
    8.8283  -16.3978   21.5318 O   0  0  0  0  0  0  0  0  0  0  0  0
    8.1627  -14.2950   20.9654 N   0  0  0  0  0  0  0  0  0  0  0  0
    7.4565  -13.0330   21.1145 C   0  0  0  0  0  0  0  0  0  0  0  0
    6.9924  -12.6964   19.7028 C   0  0  0  0  0  0  0  0  0  0  0  0
    8.2375  -13.0779   18.9358 C   0  0  0  0  0  0  0  0  0  0  0  0
    8.7143  -14.3085   19.6132 C   0  0  1  0  0  0  0  0  0  0  0  0
   10.1719  -14.4479   19.6104 C   0  0  0  0  0  0  0  0  0  0  0  0
   10.8839  -14.2184   20.7650 O   0  0  0  0  0  0  0  0  0  0  0  0
   10.7811  -14.7729   18.5735 O   0  0  0  0  0  0  0  0  0  0  0  0
  2  1  1  6
  3  4  1  0
  3  2  1  0
  5  6  1  0
  5  4  1  0
  6  7  1  0
  8  2  1  0
  9  8  2  0
 10 11  1  0
 10  8  1  0
 12 11  1  0
 13 12  1  0
 13 14  1  0
 14 10  1  0
 14 15  1  6
 16 15  2  0
 17 18  1  0
 17 15  1  0
 19 18  1  0
 20 21  1  0
 20 19  1  0
 21 17  1  0
 22 23  1  0
 21 22  1  1
 24 22  2  0
M  END
$$$$
