KPP.pdb
     RDKit          3D

 24 25  0  0  1  0  0  0  0  0999 V2000
    9.0861  -14.3920   20.5152 N   0  0  0  0  0  0  0  0  0  0  0  0
    8.4940  -15.2557   21.5092 C   0  0  1  0  0  0  0  0  0  0  0  0
    8.7370  -16.6903   21.2069 C   0  0  0  0  0  0  0  0  0  0  0  0
    8.1650  -17.6735   22.1216 C   0  0  0  0  0  0  0  0  0  0  0  0
    8.0597  -19.0968   21.8333 C   0  0  0  0  0  0  0  0  0  0  0  0
    8.8007  -20.0994   22.6222 C   0  0  0  0  0  0  0  0  0  0  0  0
    8.4160  -21.4359   22.0809 N   0  0  0  0  0  0  0  0  0  0  0  0
    8.9760  -14.9497   22.9084 C   0  0  0  0  0  0  0  0  0  0  0  0
   10.1561  -15.3133   23.0990 O   0  0  0  0  0  0  0  0  0  0  0  0
    8.2186  -14.3348   23.8903 N   0  0  0  0  0  0  0  0  0  0  0  0
    7.2385  -13.2329   23.6889 C   0  0  0  0  0  0  0  0  0  0  0  0
    6.0522  -13.7868   24.4987 C   0  0  0  0  0  0  0  0  0  0  0  0
    6.6407  -14.8708   25.4085 C   0  0  0  0  0  0  0  0  0  0  0  0
    8.1126  -14.4711   25.3265 C   0  0  1  0  0  0  0  0  0  0  0  0
    9.0265  -15.2940   26.0472 C   0  0  0  0  0  0  0  0  0  0  0  0
    9.3782  -16.4300   25.7000 O   0  0  0  0  0  0  0  0  0  0  0  0
    9.5934  -14.7889   27.2639 N   0  0  0  0  0  0  0  0  0  0  0  0
    9.4291  -13.4676   27.8476 C   0  0  0  0  0  0  0  0  0  0  0  0
   10.7302  -13.2297   28.6042 C   0  0  0  0  0  0  0  0  0  0  0  0
   10.9099  -14.5969   29.2226 C   0  0  0  0  0  0  0  0  0  0  0  0
   10.4775  -15.5335   28.1566 C   0  0  1  0  0  0  0  0  0  0  0  0
    9.8481  -16.7515   28.6708 C   0  0  0  0  0  0  0  0  0  0  0  0
   10.6247  -17.7403   29.2291 O   0  0  0  0  0  0  0  0  0  0  0  0
    8.6136  -16.9077   28.6105 O   0  0  0  0  0  0  0  0  0  0  0  0
  2  1  1  6
  3  4  1  0
  3  2  1  0
  5  6  1  0
  5  4  1  0
  6  7  1  0
  8  2  1  0
  9  8  2  0
 10 11  1  0
 10  8  1  0
 12 11  1  0
 13 12  1  0
 13 14  1  0
 14 10  1  0
 14 15  1  6
 16 15  2  0
 17 18  1  0
 17 15  1  0
 19 18  1  0
 20 21  1  0
 20 19  1  0
 21 17  1  0
 22 23  1  0
 21 22  1  1
 24 22  2  0
M  END
$$$$
