KPP.pdb
     RDKit          3D

 24 25  0  0  1  0  0  0  0  0999 V2000
    8.8588  -14.9051   20.6884 N   0  0  0  0  0  0  0  0  0  0  0  0
    7.9117  -14.8135   21.7742 C   0  0  1  0  0  0  0  0  0  0  0  0
    7.0052  -15.9905   21.8146 C   0  0  0  0  0  0  0  0  0  0  0  0
    7.6093  -17.2918   22.0828 C   0  0  0  0  0  0  0  0  0  0  0  0
    6.8664  -18.5425   22.1461 C   0  0  0  0  0  0  0  0  0  0  0  0
    7.5366  -19.8222   22.4464 C   0  0  0  0  0  0  0  0  0  0  0  0
    6.8855  -20.3658   23.6743 N   0  0  0  0  0  0  0  0  0  0  0  0
    8.5813  -14.6503   23.1191 C   0  0  0  0  0  0  0  0  0  0  0  0
    9.6871  -15.2291   23.1773 O   0  0  0  0  0  0  0  0  0  0  0  0
    8.0541  -13.9432   24.1858 N   0  0  0  0  0  0  0  0  0  0  0  0
    7.2927  -12.6666   24.1089 C   0  0  0  0  0  0  0  0  0  0  0  0
    6.1029  -13.0162   25.0211 C   0  0  0  0  0  0  0  0  0  0  0  0
    6.5523  -14.2298   25.8424 C   0  0  0  0  0  0  0  0  0  0  0  0
    8.0594  -14.1163   25.6219 C   0  0  1  0  0  0  0  0  0  0  0  0
    8.8594  -15.1283   26.2284 C   0  0  0  0  0  0  0  0  0  0  0  0
    8.9978  -16.2775   25.7870 O   0  0  0  0  0  0  0  0  0  0  0  0
    9.5656  -14.8138   27.4364 N   0  0  0  0  0  0  0  0  0  0  0  0
    9.5363  -13.5733   28.1939 C   0  0  0  0  0  0  0  0  0  0  0  0
   10.9135  -13.4993   28.8416 C   0  0  0  0  0  0  0  0  0  0  0  0
   11.0659  -14.9424   29.2637 C   0  0  0  0  0  0  0  0  0  0  0  0
   10.4811  -15.7103   28.1371 C   0  0  1  0  0  0  0  0  0  0  0  0
    9.8288  -16.9528   28.5551 C   0  0  0  0  0  0  0  0  0  0  0  0
   10.5908  -18.0189   28.9741 O   0  0  0  0  0  0  0  0  0  0  0  0
    8.5878  -17.0608   28.5373 O   0  0  0  0  0  0  0  0  0  0  0  0
  2  1  1  6
  3  4  1  0
  3  2  1  0
  5  6  1  0
  5  4  1  0
  6  7  1  0
  8  2  1  0
  9  8  2  0
 10 11  1  0
 10  8  1  0
 12 11  1  0
 13 12  1  0
 13 14  1  0
 14 10  1  0
 14 15  1  6
 16 15  2  0
 17 18  1  0
 17 15  1  0
 19 18  1  0
 20 21  1  0
 20 19  1  0
 21 17  1  0
 22 23  1  0
 21 22  1  1
 24 22  2  0
M  END
$$$$
