KPP.pdb
     RDKit          3D

 24 25  0  0  1  0  0  0  0  0999 V2000
   11.5908  -16.6011   20.4019 N   0  0  0  0  0  0  0  0  0  0  0  0
   10.2707  -16.8639   20.9240 C   0  0  1  0  0  0  0  0  0  0  0  0
   10.1528  -18.2484   21.4512 C   0  0  0  0  0  0  0  0  0  0  0  0
    9.9876  -18.4039   22.8931 C   0  0  0  0  0  0  0  0  0  0  0  0
    9.8352  -19.6857   23.5667 C   0  0  0  0  0  0  0  0  0  0  0  0
    9.6647  -19.7715   25.0297 C   0  0  0  0  0  0  0  0  0  0  0  0
    9.4858  -21.2174   25.3532 N   0  0  0  0  0  0  0  0  0  0  0  0
    9.8630  -15.8822   21.9982 C   0  0  0  0  0  0  0  0  0  0  0  0
   10.6454  -15.8856   22.9725 O   0  0  0  0  0  0  0  0  0  0  0  0
    8.7535  -15.0569   21.9372 N   0  0  0  0  0  0  0  0  0  0  0  0
    8.2447  -14.3493   20.7308 C   0  0  0  0  0  0  0  0  0  0  0  0
    6.7512  -14.7106   20.8260 C   0  0  0  0  0  0  0  0  0  0  0  0
    6.5270  -15.1708   22.2707 C   0  0  0  0  0  0  0  0  0  0  0  0
    7.7865  -14.5812   22.9021 C   0  0  1  0  0  0  0  0  0  0  0  0
    7.9659  -14.8316   24.2939 C   0  0  0  0  0  0  0  0  0  0  0  0
    8.4348  -15.8755   24.7685 O   0  0  0  0  0  0  0  0  0  0  0  0
    7.5846  -13.8140   25.2298 N   0  0  0  0  0  0  0  0  0  0  0  0
    7.1391  -12.4592   24.9476 C   0  0  0  0  0  0  0  0  0  0  0  0
    7.5938  -11.6569   26.1606 C   0  0  0  0  0  0  0  0  0  0  0  0
    7.2337  -12.6363   27.2537 C   0  0  0  0  0  0  0  0  0  0  0  0
    7.5887  -13.9588   26.6830 C   0  0  1  0  0  0  0  0  0  0  0  0
    6.7136  -15.0424   27.1346 C   0  0  0  0  0  0  0  0  0  0  0  0
    6.9670  -15.6741   28.3302 O   0  0  0  0  0  0  0  0  0  0  0  0
    5.7376  -15.4037   26.4497 O   0  0  0  0  0  0  0  0  0  0  0  0
  2  1  1  1
  3  4  1  0
  3  2  1  0
  5  6  1  0
  5  4  1  0
  6  7  1  0
  8  2  1  0
  9  8  2  0
 10 11  1  0
 10  8  1  0
 12 11  1  0
 13 12  1  0
 13 14  1  0
 14 10  1  0
 14 15  1  1
 16 15  2  0
 17 18  1  0
 17 15  1  0
 19 18  1  0
 20 21  1  0
 20 19  1  0
 21 17  1  0
 22 23  1  0
 21 22  1  6
 24 22  2  0
M  END
$$$$
