KPP.pdb
     RDKit          3D

 24 25  0  0  1  0  0  0  0  0999 V2000
   11.4122  -16.2847   20.0498 N   0  0  0  0  0  0  0  0  0  0  0  0
   10.0835  -16.5080   20.5686 C   0  0  1  0  0  0  0  0  0  0  0  0
    9.8765  -17.9269   20.9590 C   0  0  0  0  0  0  0  0  0  0  0  0
    8.5920  -18.2759   21.5580 C   0  0  0  0  0  0  0  0  0  0  0  0
    7.8539  -19.4955   21.2612 C   0  0  0  0  0  0  0  0  0  0  0  0
    6.5679  -19.7968   21.9185 C   0  0  0  0  0  0  0  0  0  0  0  0
    6.1980  -21.1848   21.5138 N   0  0  0  0  0  0  0  0  0  0  0  0
    9.7580  -15.6128   21.7418 C   0  0  0  0  0  0  0  0  0  0  0  0
   10.5307  -15.7888   22.7078 O   0  0  0  0  0  0  0  0  0  0  0  0
    8.7268  -14.6901   21.7718 N   0  0  0  0  0  0  0  0  0  0  0  0
    8.2772  -13.8313   20.6424 C   0  0  0  0  0  0  0  0  0  0  0  0
    6.7579  -14.0656   20.7241 C   0  0  0  0  0  0  0  0  0  0  0  0
    6.5007  -14.6360   22.1233 C   0  0  0  0  0  0  0  0  0  0  0  0
    7.8114  -14.2218   22.7892 C   0  0  1  0  0  0  0  0  0  0  0  0
    7.9748  -14.6150   24.1496 C   0  0  0  0  0  0  0  0  0  0  0  0
    8.4471  -15.6991   24.5190 O   0  0  0  0  0  0  0  0  0  0  0  0
    7.5718  -13.7040   25.1813 N   0  0  0  0  0  0  0  0  0  0  0  0
    7.0688  -12.3481   25.0325 C   0  0  0  0  0  0  0  0  0  0  0  0
    7.5145  -11.6430   26.3076 C   0  0  0  0  0  0  0  0  0  0  0  0
    7.2132  -12.7325   27.3106 C   0  0  0  0  0  0  0  0  0  0  0  0
    7.6085  -13.9815   26.6146 C   0  0  1  0  0  0  0  0  0  0  0  0
    6.7848  -15.1365   26.9770 C   0  0  0  0  0  0  0  0  0  0  0  0
    7.0537  -15.8341   28.1318 O   0  0  0  0  0  0  0  0  0  0  0  0
    5.8388  -15.4998   26.2523 O   0  0  0  0  0  0  0  0  0  0  0  0
  2  1  1  1
  3  4  1  0
  3  2  1  0
  5  6  1  0
  5  4  1  0
  6  7  1  0
  8  2  1  0
  9  8  2  0
 10 11  1  0
 10  8  1  0
 12 11  1  0
 13 12  1  0
 13 14  1  0
 14 10  1  0
 14 15  1  1
 16 15  2  0
 17 18  1  0
 17 15  1  0
 19 18  1  0
 20 21  1  0
 20 19  1  0
 21 17  1  0
 22 23  1  0
 21 22  1  6
 24 22  2  0
M  END
$$$$
