KPP.pdb
     RDKit          3D

 24 25  0  0  1  0  0  0  0  0999 V2000
    9.2048  -14.7669   20.7094 N   0  0  0  0  0  0  0  0  0  0  0  0
    8.2814  -15.0317   21.7872 C   0  0  1  0  0  0  0  0  0  0  0  0
    7.7873  -16.4330   21.7568 C   0  0  0  0  0  0  0  0  0  0  0  0
    8.7875  -17.4960   21.7691 C   0  0  0  0  0  0  0  0  0  0  0  0
    8.4722  -18.9172   21.7996 C   0  0  0  0  0  0  0  0  0  0  0  0
    9.5338  -19.9419   21.7945 C   0  0  0  0  0  0  0  0  0  0  0  0
    8.8465  -21.2666   21.7947 N   0  0  0  0  0  0  0  0  0  0  0  0
    8.8731  -14.7384   23.1465 C   0  0  0  0  0  0  0  0  0  0  0  0
   10.0496  -15.1450   23.2550 O   0  0  0  0  0  0  0  0  0  0  0  0
    8.2110  -14.0917   24.1757 N   0  0  0  0  0  0  0  0  0  0  0  0
    7.3315  -12.8979   24.0473 C   0  0  0  0  0  0  0  0  0  0  0  0
    6.1275  -13.3686   24.8832 C   0  0  0  0  0  0  0  0  0  0  0  0
    6.6437  -14.5340   25.7345 C   0  0  0  0  0  0  0  0  0  0  0  0
    8.1426  -14.2688   25.6097 C   0  0  1  0  0  0  0  0  0  0  0  0
    9.0004  -15.1975   26.2684 C   0  0  0  0  0  0  0  0  0  0  0  0
    9.2252  -16.3510   25.8765 O   0  0  0  0  0  0  0  0  0  0  0  0
    9.6625  -14.7866   27.4723 N   0  0  0  0  0  0  0  0  0  0  0  0
    9.5882  -13.4974   28.1401 C   0  0  0  0  0  0  0  0  0  0  0  0
   10.9428  -13.3522   28.8226 C   0  0  0  0  0  0  0  0  0  0  0  0
   11.1065  -14.7594   29.3487 C   0  0  0  0  0  0  0  0  0  0  0  0
   10.5707  -15.6146   28.2614 C   0  0  1  0  0  0  0  0  0  0  0  0
    9.9269  -16.8375   28.7451 C   0  0  0  0  0  0  0  0  0  0  0  0
   10.6917  -17.8488   29.2789 O   0  0  0  0  0  0  0  0  0  0  0  0
    8.6907  -16.9778   28.6807 O   0  0  0  0  0  0  0  0  0  0  0  0
  2  1  1  6
  3  4  1  0
  3  2  1  0
  5  6  1  0
  5  4  1  0
  6  7  1  0
  8  2  1  0
  9  8  2  0
 10 11  1  0
 10  8  1  0
 12 11  1  0
 13 12  1  0
 13 14  1  0
 14 10  1  0
 14 15  1  6
 16 15  2  0
 17 18  1  0
 17 15  1  0
 19 18  1  0
 20 21  1  0
 20 19  1  0
 21 17  1  0
 22 23  1  0
 21 22  1  1
 24 22  2  0
M  END
$$$$
