KPP.pdb
     RDKit          3D

 24 25  0  0  1  0  0  0  0  0999 V2000
    8.1921  -12.6831   18.7603 N   0  0  0  0  0  0  0  0  0  0  0  0
    8.8109  -13.6696   19.6136 C   0  0  1  0  0  0  0  0  0  0  0  0
   10.2934  -13.5696   19.5853 C   0  0  0  0  0  0  0  0  0  0  0  0
   11.0479  -14.6080   20.2803 C   0  0  0  0  0  0  0  0  0  0  0  0
   12.4865  -14.7963   20.1578 C   0  0  0  0  0  0  0  0  0  0  0  0
   13.1923  -15.8498   20.9119 C   0  0  0  0  0  0  0  0  0  0  0  0
   14.6425  -15.7042   20.5907 N   0  0  0  0  0  0  0  0  0  0  0  0
    8.3303  -13.5865   21.0439 C   0  0  0  0  0  0  0  0  0  0  0  0
    8.8502  -12.6383   21.6699 O   0  0  0  0  0  0  0  0  0  0  0  0
    7.4158  -14.4488   21.6236 N   0  0  0  0  0  0  0  0  0  0  0  0
    6.2289  -15.0536   20.9596 C   0  0  0  0  0  0  0  0  0  0  0  0
    6.4064  -16.5205   21.3919 C   0  0  0  0  0  0  0  0  0  0  0  0
    7.3706  -16.4882   22.5830 C   0  0  0  0  0  0  0  0  0  0  0  0
    7.2447  -15.0100   22.9458 C   0  0  1  0  0  0  0  0  0  0  0  0
    8.0481  -14.5612   24.0345 C   0  0  0  0  0  0  0  0  0  0  0  0
    9.2635  -14.7724   24.1487 O   0  0  0  0  0  0  0  0  0  0  0  0
    7.4248  -13.8073   25.0832 N   0  0  0  0  0  0  0  0  0  0  0  0
    6.0752  -13.2679   25.1181 C   0  0  0  0  0  0  0  0  0  0  0  0
    6.1934  -12.0234   25.9893 C   0  0  0  0  0  0  0  0  0  0  0  0
    7.0979  -12.5649   27.0722 C   0  0  0  0  0  0  0  0  0  0  0  0
    8.0613  -13.4233   26.3403 C   0  0  1  0  0  0  0  0  0  0  0  0
    8.5106  -14.5840   27.1115 C   0  0  0  0  0  0  0  0  0  0  0  0
    8.0112  -15.8330   26.8228 O   0  0  0  0  0  0  0  0  0  0  0  0
    9.3427  -14.4582   28.0301 O   0  0  0  0  0  0  0  0  0  0  0  0
  2  1  1  6
  3  4  1  0
  3  2  1  0
  5  6  1  0
  5  4  1  0
  6  7  1  0
  8  2  1  0
  9  8  2  0
 10 11  1  0
 10  8  1  0
 12 11  1  0
 13 12  1  0
 13 14  1  0
 14 10  1  0
 14 15  1  1
 16 15  2  0
 17 18  1  0
 17 15  1  0
 19 18  1  0
 20 21  1  0
 20 19  1  0
 21 17  1  0
 22 23  1  0
 21 22  1  1
 24 22  2  0
M  END
$$$$
