KPP.pdb
     RDKit          3D

 24 25  0  0  1  0  0  0  0  0999 V2000
   12.1782  -14.8990   19.9913 N   0  0  0  0  0  0  0  0  0  0  0  0
   10.7635  -15.1257   20.1695 C   0  0  1  0  0  0  0  0  0  0  0  0
   10.4479  -16.5737   20.2809 C   0  0  0  0  0  0  0  0  0  0  0  0
   11.1371  -17.3310   21.3210 C   0  0  0  0  0  0  0  0  0  0  0  0
   10.9032  -18.7410   21.5991 C   0  0  0  0  0  0  0  0  0  0  0  0
   11.6141  -19.4398   22.6868 C   0  0  0  0  0  0  0  0  0  0  0  0
   11.1494  -20.8577   22.6568 N   0  0  0  0  0  0  0  0  0  0  0  0
   10.2033  -14.3969   21.3689 C   0  0  0  0  0  0  0  0  0  0  0  0
   10.9960  -14.3833   22.3347 O   0  0  0  0  0  0  0  0  0  0  0  0
    8.9557  -13.7997   21.4212 N   0  0  0  0  0  0  0  0  0  0  0  0
    8.3459  -12.9356   20.3740 C   0  0  0  0  0  0  0  0  0  0  0  0
    6.9499  -13.5783   20.2847 C   0  0  0  0  0  0  0  0  0  0  0  0
    6.7872  -14.3974   21.5700 C   0  0  0  0  0  0  0  0  0  0  0  0
    7.8930  -13.7501   22.4013 C   0  0  1  0  0  0  0  0  0  0  0  0
    8.0864  -14.2820   23.7096 C   0  0  0  0  0  0  0  0  0  0  0  0
    8.6733  -15.3439   23.9601 O   0  0  0  0  0  0  0  0  0  0  0  0
    7.5743  -13.5500   24.8315 N   0  0  0  0  0  0  0  0  0  0  0  0
    6.9061  -12.2588   24.8289 C   0  0  0  0  0  0  0  0  0  0  0  0
    7.2621  -11.6519   26.1805 C   0  0  0  0  0  0  0  0  0  0  0  0
    7.1003  -12.8764   27.0514 C   0  0  0  0  0  0  0  0  0  0  0  0
    7.6472  -13.9804   26.2252 C   0  0  1  0  0  0  0  0  0  0  0  0
    6.9743  -15.2620   26.4455 C   0  0  0  0  0  0  0  0  0  0  0  0
    7.4086  -16.1003   27.4461 O   0  0  0  0  0  0  0  0  0  0  0  0
    6.0092  -15.6075   25.7375 O   0  0  0  0  0  0  0  0  0  0  0  0
  2  1  1  1
  3  4  1  0
  3  2  1  0
  5  6  1  0
  5  4  1  0
  6  7  1  0
  8  2  1  0
  9  8  2  0
 10 11  1  0
 10  8  1  0
 12 11  1  0
 13 12  1  0
 13 14  1  0
 14 10  1  0
 14 15  1  1
 16 15  2  0
 17 18  1  0
 17 15  1  0
 19 18  1  0
 20 21  1  0
 20 19  1  0
 21 17  1  0
 22 23  1  0
 21 22  1  6
 24 22  2  0
M  END
$$$$
