KPP.pdb
     RDKit          3D

 24 25  0  0  1  0  0  0  0  0999 V2000
    9.1560  -14.9371   20.8525 N   0  0  0  0  0  0  0  0  0  0  0  0
    8.1445  -15.0621   21.8751 C   0  0  1  0  0  0  0  0  0  0  0  0
    7.4931  -16.3976   21.8445 C   0  0  0  0  0  0  0  0  0  0  0  0
    8.3154  -17.5344   21.4422 C   0  0  0  0  0  0  0  0  0  0  0  0
    7.8352  -18.9070   21.3670 C   0  0  0  0  0  0  0  0  0  0  0  0
    8.7314  -20.0170   20.9907 C   0  0  0  0  0  0  0  0  0  0  0  0
    7.9161  -21.2650   21.0618 N   0  0  0  0  0  0  0  0  0  0  0  0
    8.6829  -14.7988   23.2624 C   0  0  0  0  0  0  0  0  0  0  0  0
    9.8652  -15.1798   23.3979 O   0  0  0  0  0  0  0  0  0  0  0  0
    7.9706  -14.2025   24.2884 N   0  0  0  0  0  0  0  0  0  0  0  0
    7.0509  -13.0389   24.1647 C   0  0  0  0  0  0  0  0  0  0  0  0
    5.8439  -13.5740   24.9565 C   0  0  0  0  0  0  0  0  0  0  0  0
    6.3808  -14.7403   25.7935 C   0  0  0  0  0  0  0  0  0  0  0  0
    7.8716  -14.4173   25.7155 C   0  0  1  0  0  0  0  0  0  0  0  0
    8.7459  -15.3300   26.3748 C   0  0  0  0  0  0  0  0  0  0  0  0
    8.9697  -16.4892   25.9992 O   0  0  0  0  0  0  0  0  0  0  0  0
    9.4275  -14.8946   27.5591 N   0  0  0  0  0  0  0  0  0  0  0  0
    9.3236  -13.6095   28.2310 C   0  0  0  0  0  0  0  0  0  0  0  0
   10.6915  -13.4126   28.8728 C   0  0  0  0  0  0  0  0  0  0  0  0
   10.9249  -14.8128   29.3915 C   0  0  0  0  0  0  0  0  0  0  0  0
   10.3901  -15.6874   28.3192 C   0  0  1  0  0  0  0  0  0  0  0  0
    9.8086  -16.9344   28.8199 C   0  0  0  0  0  0  0  0  0  0  0  0
   10.6250  -17.9052   29.3525 O   0  0  0  0  0  0  0  0  0  0  0  0
    8.5795  -17.1317   28.7711 O   0  0  0  0  0  0  0  0  0  0  0  0
  2  1  1  6
  3  4  1  0
  3  2  1  0
  5  6  1  0
  5  4  1  0
  6  7  1  0
  8  2  1  0
  9  8  2  0
 10 11  1  0
 10  8  1  0
 12 11  1  0
 13 12  1  0
 13 14  1  0
 14 10  1  0
 14 15  1  6
 16 15  2  0
 17 18  1  0
 17 15  1  0
 19 18  1  0
 20 21  1  0
 20 19  1  0
 21 17  1  0
 22 23  1  0
 21 22  1  1
 24 22  2  0
M  END
$$$$
