KPP.pdb
     RDKit          3D

 24 25  0  0  1  0  0  0  0  0999 V2000
   10.2312  -14.5444   15.2648 N   0  0  0  0  0  0  0  0  0  0  0  0
    9.2679  -15.2438   16.0817 C   0  0  1  0  0  0  0  0  0  0  0  0
    9.0965  -16.6539   15.6451 C   0  0  0  0  0  0  0  0  0  0  0  0
    8.1267  -17.4668   16.3725 C   0  0  0  0  0  0  0  0  0  0  0  0
    7.7909  -18.8421   16.0318 C   0  0  0  0  0  0  0  0  0  0  0  0
    6.8264  -19.6204   16.8324 C   0  0  0  0  0  0  0  0  0  0  0  0
    6.7540  -20.9757   16.2119 N   0  0  0  0  0  0  0  0  0  0  0  0
    9.6188  -15.2133   17.5513 C   0  0  0  0  0  0  0  0  0  0  0  0
   10.6207  -15.9102   17.8193 O   0  0  0  0  0  0  0  0  0  0  0  0
    8.9277  -14.5010   18.5160 N   0  0  0  0  0  0  0  0  0  0  0  0
    8.4401  -13.0997   18.3988 C   0  0  0  0  0  0  0  0  0  0  0  0
    6.9966  -13.2820   18.9018 C   0  0  0  0  0  0  0  0  0  0  0  0
    6.9845  -14.6182   19.6526 C   0  0  0  0  0  0  0  0  0  0  0  0
    8.4882  -14.7804   19.8655 C   0  0  1  0  0  0  0  0  0  0  0  0
    8.9020  -15.9705   20.5322 C   0  0  0  0  0  0  0  0  0  0  0  0
    8.7206  -17.1188   20.1039 O   0  0  0  0  0  0  0  0  0  0  0  0
    9.5809  -15.8529   21.7899 N   0  0  0  0  0  0  0  0  0  0  0  0
   10.0132  -14.6396   22.4643 C   0  0  0  0  0  0  0  0  0  0  0  0
   11.2427  -15.0702   23.2547 C   0  0  0  0  0  0  0  0  0  0  0  0
   10.7481  -16.3995   23.7762 C   0  0  0  0  0  0  0  0  0  0  0  0
    9.9841  -16.9700   22.6397 C   0  0  1  0  0  0  0  0  0  0  0  0
    8.8442  -17.7892   23.0563 C   0  0  0  0  0  0  0  0  0  0  0  0
    9.0531  -19.0661   23.5239 O   0  0  0  0  0  0  0  0  0  0  0  0
    7.6816  -17.3461   22.9938 O   0  0  0  0  0  0  0  0  0  0  0  0
  2  1  1  6
  3  4  1  0
  3  2  1  0
  5  6  1  0
  5  4  1  0
  6  7  1  0
  8  2  1  0
  9  8  2  0
 10 11  1  0
 10  8  1  0
 12 11  1  0
 13 12  1  0
 13 14  1  0
 14 10  1  0
 14 15  1  6
 16 15  2  0
 17 18  1  0
 17 15  1  0
 19 18  1  0
 20 21  1  0
 20 19  1  0
 21 17  1  0
 22 23  1  0
 21 22  1  1
 24 22  2  0
M  END
$$$$
