KPP.pdb
     RDKit          3D

 24 25  0  0  1  0  0  0  0  0999 V2000
   12.5820  -15.1393   18.0301 N   0  0  0  0  0  0  0  0  0  0  0  0
   11.1671  -14.8640   18.1132 C   0  0  1  0  0  0  0  0  0  0  0  0
   10.3601  -15.9284   17.4617 C   0  0  0  0  0  0  0  0  0  0  0  0
   10.0105  -15.7385   16.0574 C   0  0  0  0  0  0  0  0  0  0  0  0
    9.9667  -16.8096   15.0720 C   0  0  0  0  0  0  0  0  0  0  0  0
    9.4583  -16.5793   13.7062 C   0  0  0  0  0  0  0  0  0  0  0  0
    9.6088  -17.8703   12.9727 N   0  0  0  0  0  0  0  0  0  0  0  0
   10.6929  -14.6753   19.5356 C   0  0  0  0  0  0  0  0  0  0  0  0
   11.4237  -15.2571   20.3656 O   0  0  0  0  0  0  0  0  0  0  0  0
    9.5785  -13.9440   19.9086 N   0  0  0  0  0  0  0  0  0  0  0  0
    9.1991  -12.5952   19.4067 C   0  0  0  0  0  0  0  0  0  0  0  0
    7.7142  -12.8437   19.0853 C   0  0  0  0  0  0  0  0  0  0  0  0
    7.3316  -14.1161   19.8494 C   0  0  0  0  0  0  0  0  0  0  0  0
    8.4925  -14.1512   20.8413 C   0  0  1  0  0  0  0  0  0  0  0  0
    8.5117  -15.2535   21.7449 C   0  0  0  0  0  0  0  0  0  0  0  0
    8.6551  -16.4377   21.4105 O   0  0  0  0  0  0  0  0  0  0  0  0
    8.3575  -14.9952   23.1471 N   0  0  0  0  0  0  0  0  0  0  0  0
    8.2500  -13.7080   23.8142 C   0  0  0  0  0  0  0  0  0  0  0  0
    8.8508  -13.9512   25.1932 C   0  0  0  0  0  0  0  0  0  0  0  0
    8.2441  -15.3027   25.4922 C   0  0  0  0  0  0  0  0  0  0  0  0
    8.2920  -16.0142   24.1913 C   0  0  1  0  0  0  0  0  0  0  0  0
    7.1760  -16.9409   23.9923 C   0  0  0  0  0  0  0  0  0  0  0  0
    7.2629  -18.2294   24.4667 O   0  0  0  0  0  0  0  0  0  0  0  0
    6.1431  -16.5795   23.3970 O   0  0  0  0  0  0  0  0  0  0  0  0
  2  1  1  1
  3  4  1  0
  3  2  1  0
  5  6  1  0
  5  4  1  0
  6  7  1  0
  8  2  1  0
  9  8  2  0
 10 11  1  0
 10  8  1  0
 12 11  1  0
 13 12  1  0
 13 14  1  0
 14 10  1  0
 14 15  1  6
 16 15  2  0
 17 18  1  0
 17 15  1  0
 19 18  1  0
 20 21  1  0
 20 19  1  0
 21 17  1  0
 22 23  1  0
 21 22  1  6
 24 22  2  0
M  END
$$$$
