KPP.pdb
     RDKit          3D

 24 25  0  0  1  0  0  0  0  0999 V2000
    8.8152  -14.8503   20.7311 N   0  0  0  0  0  0  0  0  0  0  0  0
    7.8664  -14.8450   21.8193 C   0  0  1  0  0  0  0  0  0  0  0  0
    7.0541  -16.0891   21.8474 C   0  0  0  0  0  0  0  0  0  0  0  0
    7.2330  -17.0305   20.7464 C   0  0  0  0  0  0  0  0  0  0  0  0
    7.4918  -18.4530   20.9186 C   0  0  0  0  0  0  0  0  0  0  0  0
    7.5700  -19.3670   19.7631 C   0  0  0  0  0  0  0  0  0  0  0  0
    7.8459  -20.7264   20.3137 N   0  0  0  0  0  0  0  0  0  0  0  0
    8.5246  -14.6457   23.1650 C   0  0  0  0  0  0  0  0  0  0  0  0
    9.6716  -15.1389   23.2153 O   0  0  0  0  0  0  0  0  0  0  0  0
    7.9473  -13.9926   24.2402 N   0  0  0  0  0  0  0  0  0  0  0  0
    7.1315  -12.7490   24.1833 C   0  0  0  0  0  0  0  0  0  0  0  0
    5.9421  -13.1760   25.0625 C   0  0  0  0  0  0  0  0  0  0  0  0
    6.4299  -14.3913   25.8589 C   0  0  0  0  0  0  0  0  0  0  0  0
    7.9342  -14.2056   25.6708 C   0  0  1  0  0  0  0  0  0  0  0  0
    8.7673  -15.1981   26.2649 C   0  0  0  0  0  0  0  0  0  0  0  0
    8.9299  -16.3423   25.8186 O   0  0  0  0  0  0  0  0  0  0  0  0
    9.4795  -14.8686   27.4653 N   0  0  0  0  0  0  0  0  0  0  0  0
    9.4446  -13.6229   28.2141 C   0  0  0  0  0  0  0  0  0  0  0  0
   10.8258  -13.5318   28.8509 C   0  0  0  0  0  0  0  0  0  0  0  0
   10.9944  -14.9704   29.2821 C   0  0  0  0  0  0  0  0  0  0  0  0
   10.4082  -15.7516   28.1656 C   0  0  1  0  0  0  0  0  0  0  0  0
    9.7704  -16.9969   28.5973 C   0  0  0  0  0  0  0  0  0  0  0  0
   10.5460  -18.0649   28.9853 O   0  0  0  0  0  0  0  0  0  0  0  0
    8.5295  -17.1056   28.6190 O   0  0  0  0  0  0  0  0  0  0  0  0
  2  1  1  6
  3  4  1  0
  3  2  1  0
  5  6  1  0
  5  4  1  0
  6  7  1  0
  8  2  1  0
  9  8  2  0
 10 11  1  0
 10  8  1  0
 12 11  1  0
 13 12  1  0
 13 14  1  0
 14 10  1  0
 14 15  1  6
 16 15  2  0
 17 18  1  0
 17 15  1  0
 19 18  1  0
 20 21  1  0
 20 19  1  0
 21 17  1  0
 22 23  1  0
 21 22  1  1
 24 22  2  0
M  END
$$$$
