GKQ.pdb
     RDKit          3D

 23 22  0  0  1  0  0  0  0  0999 V2000
    4.9441  -18.9449   22.5085 N   0  0  0  0  0  0  0  0  0  0  0  0
    5.0626  -17.5349   22.7218 C   0  0  0  0  0  0  0  0  0  0  0  0
    6.3674  -17.0207   22.1827 C   0  0  0  0  0  0  0  0  0  0  0  0
    7.2271  -17.7828   21.7039 O   0  0  0  0  0  0  0  0  0  0  0  0
    6.6233  -15.6245   22.2223 N   0  0  0  0  0  0  0  0  0  0  0  0
    7.8874  -15.0497   21.7010 C   0  0  1  0  0  0  0  0  0  0  0  0
    7.5652  -13.6306   21.3675 C   0  0  0  0  0  0  0  0  0  0  0  0
    6.9771  -13.3984   20.0165 C   0  0  0  0  0  0  0  0  0  0  0  0
    8.0139  -13.6687   18.9248 C   0  0  0  0  0  0  0  0  0  0  0  0
    7.4560  -13.4736   17.5545 C   0  0  0  0  0  0  0  0  0  0  0  0
    8.4532  -13.7943   16.5441 N   0  0  0  0  0  0  0  0  0  0  0  0
    8.9026  -15.2572   22.7318 C   0  0  0  0  0  0  0  0  0  0  0  0
    8.7681  -14.7344   23.8987 O   0  0  0  0  0  0  0  0  0  0  0  0
   10.3583  -20.0634   25.6543 N   0  0  0  0  0  0  0  0  0  0  0  0
   11.0857  -18.9997   26.3258 C   0  0  0  0  0  0  0  0  0  0  0  0
   11.5183  -19.2772   27.4459 O   0  0  0  0  0  0  0  0  0  0  0  0
   11.2746  -17.7022   25.6973 C   0  0  0  0  0  0  0  0  0  0  0  0
   10.7181  -17.4673   24.3557 C   0  0  0  0  0  0  0  0  0  0  0  0
   11.0704  -16.1768   23.6752 C   0  0  2  0  0  0  0  0  0  0  0  0
   10.0970  -16.0165   22.5985 N   0  0  0  0  0  0  0  0  0  0  0  0
   12.4491  -15.9546   23.3154 C   0  0  0  0  0  0  0  0  0  0  0  0
   13.3624  -15.6996   24.3584 O   0  0  0  0  0  0  0  0  0  0  0  0
   12.9205  -15.9619   22.1476 O   0  0  0  0  0  0  0  0  0  0  0  0
  2  1  1  0
  3  2  1  0
  4  3  2  0
  5  3  1  0
  6 12  1  0
  6  5  1  0
  6  7  1  1
  8  7  1  0
  9  8  1  0
 10  9  1  0
 11 10  1  0
 12 20  1  0
 13 12  2  0
 15 17  1  0
 15 14  1  0
 16 15  2  0
 18 17  1  0
 19 18  1  6
 20 19  1  0
 21 22  1  0
 21 19  1  0
 23 21  2  0
M  END
$$$$
