GKQ.pdb
     RDKit          3D

 23 22  0  0  1  0  0  0  0  0999 V2000
    5.0617  -19.4443   22.9801 N   0  0  0  0  0  0  0  0  0  0  0  0
    5.0552  -18.0675   23.3700 C   0  0  0  0  0  0  0  0  0  0  0  0
    6.4109  -17.4501   23.1739 C   0  0  0  0  0  0  0  0  0  0  0  0
    7.4177  -18.1391   22.9272 O   0  0  0  0  0  0  0  0  0  0  0  0
    6.5432  -16.0399   23.2737 N   0  0  0  0  0  0  0  0  0  0  0  0
    7.8557  -15.3678   23.1127 C   0  0  1  0  0  0  0  0  0  0  0  0
    7.5705  -14.1334   22.3230 C   0  0  0  0  0  0  0  0  0  0  0  0
    7.2698  -14.3425   20.8771 C   0  0  0  0  0  0  0  0  0  0  0  0
    8.1311  -13.4227   20.0100 C   0  0  0  0  0  0  0  0  0  0  0  0
    7.8361  -13.5774   18.5553 C   0  0  0  0  0  0  0  0  0  0  0  0
    8.6467  -12.6609   17.7671 N   0  0  0  0  0  0  0  0  0  0  0  0
    8.3945  -15.1658   24.4564 C   0  0  0  0  0  0  0  0  0  0  0  0
    7.6086  -14.9689   25.4547 O   0  0  0  0  0  0  0  0  0  0  0  0
    8.9354  -13.3889   27.7436 N   0  0  0  0  0  0  0  0  0  0  0  0
    9.4824  -14.4812   28.5305 C   0  0  0  0  0  0  0  0  0  0  0  0
   10.2096  -14.1482   29.4680 O   0  0  0  0  0  0  0  0  0  0  0  0
    9.1784  -15.8667   28.2106 C   0  0  0  0  0  0  0  0  0  0  0  0
    9.1269  -16.2825   26.8003 C   0  0  0  0  0  0  0  0  0  0  0  0
   10.3044  -15.9428   25.9339 C   0  0  2  0  0  0  0  0  0  0  0  0
    9.7681  -15.1621   24.8225 N   0  0  0  0  0  0  0  0  0  0  0  0
   11.2119  -17.0050   25.5767 C   0  0  0  0  0  0  0  0  0  0  0  0
   12.0903  -17.4754   26.5738 O   0  0  0  0  0  0  0  0  0  0  0  0
   11.2999  -17.5559   24.4476 O   0  0  0  0  0  0  0  0  0  0  0  0
  2  1  1  0
  3  2  1  0
  4  3  2  0
  5  3  1  0
  6 12  1  0
  6  5  1  0
  6  7  1  1
  8  7  1  0
  9  8  1  0
 10  9  1  0
 11 10  1  0
 12 20  1  0
 13 12  2  0
 15 17  1  0
 15 14  1  0
 16 15  2  0
 18 17  1  0
 19 18  1  6
 20 19  1  0
 21 22  1  0
 21 19  1  0
 23 21  2  0
M  END
$$$$
