GKQ.pdb
     RDKit          3D

 23 22  0  0  1  0  0  0  0  0999 V2000
    8.0287  -11.8675   19.4885 N   0  0  0  0  0  0  0  0  0  0  0  0
    8.3889  -13.2511   19.5487 C   0  0  0  0  0  0  0  0  0  0  0  0
    7.6678  -13.9428   20.6708 C   0  0  0  0  0  0  0  0  0  0  0  0
    6.9959  -13.3127   21.5079 O   0  0  0  0  0  0  0  0  0  0  0  0
    7.7578  -15.3560   20.7758 N   0  0  0  0  0  0  0  0  0  0  0  0
    7.1199  -16.0958   21.8920 C   0  0  1  0  0  0  0  0  0  0  0  0
    6.9915  -17.5023   21.4081 C   0  0  0  0  0  0  0  0  0  0  0  0
    6.3758  -18.4652   22.3666 C   0  0  0  0  0  0  0  0  0  0  0  0
    6.3037  -19.8641   21.7521 C   0  0  0  0  0  0  0  0  0  0  0  0
    5.5464  -20.8208   22.6115 C   0  0  0  0  0  0  0  0  0  0  0  0
    5.3990  -22.1050   21.9427 N   0  0  0  0  0  0  0  0  0  0  0  0
    7.9611  -15.8914   23.0697 C   0  0  0  0  0  0  0  0  0  0  0  0
    9.2420  -15.8614   22.9628 O   0  0  0  0  0  0  0  0  0  0  0  0
    6.7348  -10.7247   25.7761 N   0  0  0  0  0  0  0  0  0  0  0  0
    6.8070  -12.0623   26.3394 C   0  0  0  0  0  0  0  0  0  0  0  0
    6.3166  -12.1928   27.4624 O   0  0  0  0  0  0  0  0  0  0  0  0
    7.4244  -13.1563   25.6070 C   0  0  0  0  0  0  0  0  0  0  0  0
    7.8144  -14.3752   26.3327 C   0  0  0  0  0  0  0  0  0  0  0  0
    8.4138  -15.4958   25.5341 C   0  0  2  0  0  0  0  0  0  0  0  0
    7.5114  -15.7067   24.4056 N   0  0  0  0  0  0  0  0  0  0  0  0
    8.8289  -16.6836   26.2386 C   0  0  0  0  0  0  0  0  0  0  0  0
    8.1898  -17.8955   25.9072 O   0  0  0  0  0  0  0  0  0  0  0  0
    9.7130  -16.7432   27.1336 O   0  0  0  0  0  0  0  0  0  0  0  0
  2  1  1  0
  3  2  1  0
  4  3  2  0
  5  3  1  0
  6 12  1  0
  6  5  1  0
  6  7  1  6
  8  7  1  0
  9  8  1  0
 10  9  1  0
 11 10  1  0
 12 20  1  0
 13 12  2  0
 15 17  1  0
 15 14  1  0
 16 15  2  0
 18 17  1  0
 19 18  1  1
 20 19  1  0
 21 22  1  0
 21 19  1  0
 23 21  2  0
M  END
$$$$
