GKQ.pdb
     RDKit          3D

 23 22  0  0  1  0  0  0  0  0999 V2000
    5.0682  -19.9819   22.7477 N   0  0  0  0  0  0  0  0  0  0  0  0
    4.9698  -18.6047   23.1239 C   0  0  0  0  0  0  0  0  0  0  0  0
    6.2331  -17.8661   22.7833 C   0  0  0  0  0  0  0  0  0  0  0  0
    7.2521  -18.4569   22.3812 O   0  0  0  0  0  0  0  0  0  0  0  0
    6.2612  -16.4536   22.9256 N   0  0  0  0  0  0  0  0  0  0  0  0
    7.4981  -15.6714   22.6839 C   0  0  1  0  0  0  0  0  0  0  0  0
    7.0762  -14.5246   21.8262 C   0  0  0  0  0  0  0  0  0  0  0  0
    7.2917  -14.6963   20.3603 C   0  0  0  0  0  0  0  0  0  0  0  0
    7.8115  -13.3995   19.7375 C   0  0  0  0  0  0  0  0  0  0  0  0
    7.9328  -13.4940   18.2530 C   0  0  0  0  0  0  0  0  0  0  0  0
    8.3265  -12.2120   17.6877 N   0  0  0  0  0  0  0  0  0  0  0  0
    8.0456  -15.3306   23.9957 C   0  0  0  0  0  0  0  0  0  0  0  0
    7.2857  -15.2876   25.0318 O   0  0  0  0  0  0  0  0  0  0  0  0
    7.9284  -19.0123   26.9204 N   0  0  0  0  0  0  0  0  0  0  0  0
    9.1054  -18.5350   27.6262 C   0  0  0  0  0  0  0  0  0  0  0  0
    9.4661  -19.2227   28.5831 O   0  0  0  0  0  0  0  0  0  0  0  0
    9.7924  -17.3221   27.2124 C   0  0  0  0  0  0  0  0  0  0  0  0
    9.2423  -16.5297   26.1016 C   0  0  0  0  0  0  0  0  0  0  0  0
   10.2147  -15.7942   25.2263 C   0  0  2  0  0  0  0  0  0  0  0  0
    9.4021  -15.0233   24.2894 N   0  0  0  0  0  0  0  0  0  0  0  0
   11.3045  -16.5407   24.6478 C   0  0  0  0  0  0  0  0  0  0  0  0
   12.6059  -16.2598   25.1109 O   0  0  0  0  0  0  0  0  0  0  0  0
   11.2060  -17.4252   23.7567 O   0  0  0  0  0  0  0  0  0  0  0  0
  2  1  1  0
  3  2  1  0
  4  3  2  0
  5  3  1  0
  6 12  1  0
  6  5  1  0
  6  7  1  1
  8  7  1  0
  9  8  1  0
 10  9  1  0
 11 10  1  0
 12 20  1  0
 13 12  2  0
 15 17  1  0
 15 14  1  0
 16 15  2  0
 18 17  1  0
 19 18  1  6
 20 19  1  0
 21 22  1  0
 21 19  1  0
 23 21  2  0
M  END
$$$$
