GKQ.pdb
     RDKit          3D

 23 22  0  0  1  0  0  0  0  0999 V2000
    5.0908  -19.3236   22.7151 N   0  0  0  0  0  0  0  0  0  0  0  0
    5.0659  -17.9231   23.0077 C   0  0  0  0  0  0  0  0  0  0  0  0
    6.3852  -17.2846   22.6771 C   0  0  0  0  0  0  0  0  0  0  0  0
    7.3592  -17.9528   22.2849 O   0  0  0  0  0  0  0  0  0  0  0  0
    6.5206  -15.8781   22.8175 N   0  0  0  0  0  0  0  0  0  0  0  0
    7.7860  -15.1806   22.4818 C   0  0  1  0  0  0  0  0  0  0  0  0
    7.3790  -13.8026   22.0762 C   0  0  0  0  0  0  0  0  0  0  0  0
    6.7965  -13.6735   20.7091 C   0  0  0  0  0  0  0  0  0  0  0  0
    7.9022  -13.4878   19.6686 C   0  0  0  0  0  0  0  0  0  0  0  0
    7.3566  -13.2652   18.2974 C   0  0  0  0  0  0  0  0  0  0  0  0
    8.4285  -13.2632   17.3129 N   0  0  0  0  0  0  0  0  0  0  0  0
    8.6482  -15.2803   23.6579 C   0  0  0  0  0  0  0  0  0  0  0  0
    8.2519  -14.8426   24.8000 O   0  0  0  0  0  0  0  0  0  0  0  0
    8.5342  -18.0985   28.0348 N   0  0  0  0  0  0  0  0  0  0  0  0
    9.1789  -18.7968   26.9355 C   0  0  0  0  0  0  0  0  0  0  0  0
    9.1096  -20.0265   26.9741 O   0  0  0  0  0  0  0  0  0  0  0  0
    9.8563  -18.0694   25.8742 C   0  0  0  0  0  0  0  0  0  0  0  0
    9.9165  -16.6007   25.9366 C   0  0  0  0  0  0  0  0  0  0  0  0
   10.7628  -15.8975   24.9157 C   0  0  2  0  0  0  0  0  0  0  0  0
    9.9544  -15.8396   23.7010 N   0  0  0  0  0  0  0  0  0  0  0  0
   12.1250  -16.3386   24.7448 C   0  0  0  0  0  0  0  0  0  0  0  0
   12.5255  -16.7336   23.4523 O   0  0  0  0  0  0  0  0  0  0  0  0
   12.9995  -16.4103   25.6483 O   0  0  0  0  0  0  0  0  0  0  0  0
  2  1  1  0
  3  2  1  0
  4  3  2  0
  5  3  1  0
  6 12  1  0
  6  5  1  0
  6  7  1  1
  8  7  1  0
  9  8  1  0
 10  9  1  0
 11 10  1  0
 12 20  1  0
 13 12  2  0
 15 17  1  0
 15 14  1  0
 16 15  2  0
 18 17  1  0
 19 18  1  1
 20 19  1  0
 21 22  1  0
 21 19  1  0
 23 21  2  0
M  END
$$$$
