GKQ.pdb
     RDKit          3D

 23 22  0  0  1  0  0  0  0  0999 V2000
    8.1738  -22.0744   19.0678 N   0  0  0  0  0  0  0  0  0  0  0  0
    7.6092  -22.9197   20.0749 C   0  0  0  0  0  0  0  0  0  0  0  0
    7.4994  -22.1909   21.3843 C   0  0  0  0  0  0  0  0  0  0  0  0
    7.9121  -21.0251   21.5246 O   0  0  0  0  0  0  0  0  0  0  0  0
    6.9071  -22.8546   22.4910 N   0  0  0  0  0  0  0  0  0  0  0  0
    6.7937  -22.2041   23.8192 C   0  0  1  0  0  0  0  0  0  0  0  0
    5.6645  -22.9015   24.5029 C   0  0  0  0  0  0  0  0  0  0  0  0
    4.3016  -22.6007   23.9768 C   0  0  0  0  0  0  0  0  0  0  0  0
    3.2602  -23.5119   24.6286 C   0  0  0  0  0  0  0  0  0  0  0  0
    1.8752  -23.2136   24.1596 C   0  0  0  0  0  0  0  0  0  0  0  0
    0.9321  -24.1845   24.6946 N   0  0  0  0  0  0  0  0  0  0  0  0
    8.1039  -22.3156   24.4575 C   0  0  0  0  0  0  0  0  0  0  0  0
    8.7430  -23.4311   24.4514 O   0  0  0  0  0  0  0  0  0  0  0  0
   12.0071  -18.8335   22.4907 N   0  0  0  0  0  0  0  0  0  0  0  0
   12.4960  -20.0042   23.1992 C   0  0  0  0  0  0  0  0  0  0  0  0
   13.7180  -20.1630   23.1828 O   0  0  0  0  0  0  0  0  0  0  0  0
   11.5829  -20.9137   23.8726 C   0  0  0  0  0  0  0  0  0  0  0  0
   11.0536  -20.5491   25.1960 C   0  0  0  0  0  0  0  0  0  0  0  0
   10.0688  -21.4868   25.8312 C   0  0  2  0  0  0  0  0  0  0  0  0
    8.8077  -21.2767   25.1256 N   0  0  0  0  0  0  0  0  0  0  0  0
    9.9879  -21.5114   27.2708 C   0  0  0  0  0  0  0  0  0  0  0  0
    8.9375  -20.7935   27.8775 O   0  0  0  0  0  0  0  0  0  0  0  0
   10.7754  -22.1145   28.0469 O   0  0  0  0  0  0  0  0  0  0  0  0
  2  1  1  0
  3  2  1  0
  4  3  2  0
  5  3  1  0
  6 12  1  0
  6  5  1  0
  6  7  1  1
  8  7  1  0
  9  8  1  0
 10  9  1  0
 11 10  1  0
 12 20  1  0
 13 12  2  0
 15 17  1  0
 15 14  1  0
 16 15  2  0
 18 17  1  0
 19 18  1  1
 20 19  1  0
 21 22  1  0
 21 19  1  0
 23 21  2  0
M  END
$$$$
