GKQ.pdb
     RDKit          3D

 23 22  0  0  1  0  0  0  0  0999 V2000
    5.2206  -19.1813   24.8855 N   0  0  0  0  0  0  0  0  0  0  0  0
    5.3150  -17.7968   24.5365 C   0  0  0  0  0  0  0  0  0  0  0  0
    6.5080  -17.5473   23.6578 C   0  0  0  0  0  0  0  0  0  0  0  0
    7.3201  -18.4487   23.3801 O   0  0  0  0  0  0  0  0  0  0  0  0
    6.7113  -16.2444   23.1311 N   0  0  0  0  0  0  0  0  0  0  0  0
    7.9006  -15.9142   22.3085 C   0  0  1  0  0  0  0  0  0  0  0  0
    7.4256  -14.9004   21.3208 C   0  0  0  0  0  0  0  0  0  0  0  0
    8.3488  -14.6198   20.1833 C   0  0  0  0  0  0  0  0  0  0  0  0
    7.6856  -13.6850   19.1703 C   0  0  0  0  0  0  0  0  0  0  0  0
    8.4961  -13.5327   17.9265 C   0  0  0  0  0  0  0  0  0  0  0  0
    7.8453  -12.6195   16.9987 N   0  0  0  0  0  0  0  0  0  0  0  0
    8.9452  -15.4767   23.2326 C   0  0  0  0  0  0  0  0  0  0  0  0
    8.6453  -14.8251   24.2996 O   0  0  0  0  0  0  0  0  0  0  0  0
    9.3878  -19.0999   26.6970 N   0  0  0  0  0  0  0  0  0  0  0  0
   10.6502  -18.4894   27.0779 C   0  0  0  0  0  0  0  0  0  0  0  0
   11.1607  -18.9256   28.1112 O   0  0  0  0  0  0  0  0  0  0  0  0
   11.2491  -17.4338   26.2770 C   0  0  0  0  0  0  0  0  0  0  0  0
   10.5262  -16.9295   25.0990 C   0  0  0  0  0  0  0  0  0  0  0  0
   11.2346  -15.9380   24.2228 C   0  0  2  0  0  0  0  0  0  0  0  0
   10.3424  -15.6980   23.0920 N   0  0  0  0  0  0  0  0  0  0  0  0
   12.6154  -16.1906   23.8925 C   0  0  0  0  0  0  0  0  0  0  0  0
   12.9193  -17.4041   23.2429 O   0  0  0  0  0  0  0  0  0  0  0  0
   13.5868  -15.4264   24.1346 O   0  0  0  0  0  0  0  0  0  0  0  0
  2  1  1  0
  3  2  1  0
  4  3  2  0
  5  3  1  0
  6 12  1  0
  6  5  1  0
  6  7  1  6
  8  7  1  0
  9  8  1  0
 10  9  1  0
 11 10  1  0
 12 20  1  0
 13 12  2  0
 15 17  1  0
 15 14  1  0
 16 15  2  0
 18 17  1  0
 19 18  1  6
 20 19  1  0
 21 22  1  0
 21 19  1  0
 23 21  2  0
M  END
$$$$
