GKQ.pdb
     RDKit          3D

 23 22  0  0  1  0  0  0  0  0999 V2000
    4.4723  -19.3114   22.7355 N   0  0  0  0  0  0  0  0  0  0  0  0
    4.7270  -17.9574   23.1223 C   0  0  0  0  0  0  0  0  0  0  0  0
    6.1355  -17.5603   22.7818 C   0  0  0  0  0  0  0  0  0  0  0  0
    7.0106  -18.4044   22.5156 O   0  0  0  0  0  0  0  0  0  0  0  0
    6.4741  -16.1814   22.7641 N   0  0  0  0  0  0  0  0  0  0  0  0
    7.8755  -15.7261   22.5946 C   0  0  1  0  0  0  0  0  0  0  0  0
    7.7948  -14.5298   21.7049 C   0  0  0  0  0  0  0  0  0  0  0  0
    7.5157  -14.8081   20.2663 C   0  0  0  0  0  0  0  0  0  0  0  0
    7.9718  -13.6375   19.3937 C   0  0  0  0  0  0  0  0  0  0  0  0
    7.5892  -13.8166   17.9623 C   0  0  0  0  0  0  0  0  0  0  0  0
    7.9648  -12.6478   17.1807 N   0  0  0  0  0  0  0  0  0  0  0  0
    8.4113  -15.4996   23.9355 C   0  0  0  0  0  0  0  0  0  0  0  0
    7.6234  -15.2818   24.9278 O   0  0  0  0  0  0  0  0  0  0  0  0
    7.8435  -19.4409   27.9772 N   0  0  0  0  0  0  0  0  0  0  0  0
    8.9289  -19.4635   27.0113 C   0  0  0  0  0  0  0  0  0  0  0  0
    9.0870  -20.5302   26.4149 O   0  0  0  0  0  0  0  0  0  0  0  0
    9.7603  -18.2923   26.7841 C   0  0  0  0  0  0  0  0  0  0  0  0
    9.4291  -17.3815   25.6772 C   0  0  0  0  0  0  0  0  0  0  0  0
   10.3001  -16.1737   25.4889 C   0  0  2  0  0  0  0  0  0  0  0  0
    9.7840  -15.4921   24.3050 N   0  0  0  0  0  0  0  0  0  0  0  0
   11.7299  -16.3550   25.5376 C   0  0  0  0  0  0  0  0  0  0  0  0
   12.3890  -16.6694   24.3319 O   0  0  0  0  0  0  0  0  0  0  0  0
   12.4537  -16.2632   26.5641 O   0  0  0  0  0  0  0  0  0  0  0  0
  2  1  1  0
  3  2  1  0
  4  3  2  0
  5  3  1  0
  6 12  1  0
  6  5  1  0
  6  7  1  6
  8  7  1  0
  9  8  1  0
 10  9  1  0
 11 10  1  0
 12 20  1  0
 13 12  2  0
 15 17  1  0
 15 14  1  0
 16 15  2  0
 18 17  1  0
 19 18  1  6
 20 19  1  0
 21 22  1  0
 21 19  1  0
 23 21  2  0
M  END
$$$$
