GKQ.pdb
     RDKit          3D

 23 22  0  0  1  0  0  0  0  0999 V2000
   13.8849  -15.3338   14.1178 N   0  0  0  0  0  0  0  0  0  0  0  0
   12.7644  -15.8706   14.8277 C   0  0  0  0  0  0  0  0  0  0  0  0
   12.5142  -15.0995   16.0928 C   0  0  0  0  0  0  0  0  0  0  0  0
   13.4045  -14.4201   16.6358 O   0  0  0  0  0  0  0  0  0  0  0  0
   11.2235  -15.1499   16.6827 N   0  0  0  0  0  0  0  0  0  0  0  0
   10.9434  -14.5219   17.9970 C   0  0  1  0  0  0  0  0  0  0  0  0
    9.4548  -14.4869   18.1061 C   0  0  0  0  0  0  0  0  0  0  0  0
    8.9090  -13.8644   19.3468 C   0  0  0  0  0  0  0  0  0  0  0  0
    7.3796  -13.8882   19.3327 C   0  0  0  0  0  0  0  0  0  0  0  0
    6.7932  -13.2723   20.5591 C   0  0  0  0  0  0  0  0  0  0  0  0
    5.3393  -13.2870   20.4956 N   0  0  0  0  0  0  0  0  0  0  0  0
   11.6469  -15.3155   19.0030 C   0  0  0  0  0  0  0  0  0  0  0  0
   11.6653  -16.5989   18.9298 O   0  0  0  0  0  0  0  0  0  0  0  0
   17.9057  -15.1921   20.6356 N   0  0  0  0  0  0  0  0  0  0  0  0
   16.6604  -14.4999   20.3500 C   0  0  0  0  0  0  0  0  0  0  0  0
   16.7528  -13.2800   20.2017 O   0  0  0  0  0  0  0  0  0  0  0  0
   15.4017  -15.2215   20.2536 C   0  0  0  0  0  0  0  0  0  0  0  0
   14.3920  -15.0468   21.3093 C   0  0  0  0  0  0  0  0  0  0  0  0
   13.0445  -15.6703   21.0899 C   0  0  2  0  0  0  0  0  0  0  0  0
   12.3625  -14.8134   20.1240 N   0  0  0  0  0  0  0  0  0  0  0  0
   12.2753  -16.0474   22.2500 C   0  0  0  0  0  0  0  0  0  0  0  0
   10.9746  -15.5179   22.3706 O   0  0  0  0  0  0  0  0  0  0  0  0
   12.6585  -16.8082   23.1777 O   0  0  0  0  0  0  0  0  0  0  0  0
  2  1  1  0
  3  2  1  0
  4  3  2  0
  5  3  1  0
  6 12  1  0
  6  5  1  0
  6  7  1  1
  8  7  1  0
  9  8  1  0
 10  9  1  0
 11 10  1  0
 12 20  1  0
 13 12  2  0
 15 17  1  0
 15 14  1  0
 16 15  2  0
 18 17  1  0
 19 18  1  1
 20 19  1  0
 21 22  1  0
 21 19  1  0
 23 21  2  0
M  END
$$$$
