GKQ.pdb
     RDKit          3D

 23 22  0  0  1  0  0  0  0  0999 V2000
    8.1454  -12.7438   17.3445 N   0  0  0  0  0  0  0  0  0  0  0  0
    7.5375  -13.6399   18.2801 C   0  0  0  0  0  0  0  0  0  0  0  0
    8.3759  -13.7671   19.5203 C   0  0  0  0  0  0  0  0  0  0  0  0
    9.5946  -13.5142   19.5191 O   0  0  0  0  0  0  0  0  0  0  0  0
    7.7565  -14.1883   20.7267 N   0  0  0  0  0  0  0  0  0  0  0  0
    8.5408  -14.4238   21.9635 C   0  0  1  0  0  0  0  0  0  0  0  0
    7.5314  -14.4912   23.0615 C   0  0  0  0  0  0  0  0  0  0  0  0
    7.3564  -13.2438   23.8603 C   0  0  0  0  0  0  0  0  0  0  0  0
    6.3403  -13.4618   24.9827 C   0  0  0  0  0  0  0  0  0  0  0  0
    6.2667  -12.2972   25.9129 C   0  0  0  0  0  0  0  0  0  0  0  0
    5.3268  -12.5613   26.9923 N   0  0  0  0  0  0  0  0  0  0  0  0
    9.3328  -15.6314   21.7381 C   0  0  0  0  0  0  0  0  0  0  0  0
    9.1464  -16.3509   20.6890 O   0  0  0  0  0  0  0  0  0  0  0  0
   14.3894  -13.8341   20.0913 N   0  0  0  0  0  0  0  0  0  0  0  0
   13.4903  -14.6591   19.3022 C   0  0  0  0  0  0  0  0  0  0  0  0
   13.7670  -14.7508   18.1049 O   0  0  0  0  0  0  0  0  0  0  0  0
   12.3457  -15.3196   19.9087 C   0  0  0  0  0  0  0  0  0  0  0  0
   12.0802  -15.1222   21.3423 C   0  0  0  0  0  0  0  0  0  0  0  0
   11.7338  -16.3344   22.1567 C   0  0  2  0  0  0  0  0  0  0  0  0
   10.3518  -16.1423   22.5874 N   0  0  0  0  0  0  0  0  0  0  0  0
   12.6602  -16.7503   23.1806 C   0  0  0  0  0  0  0  0  0  0  0  0
   13.3922  -17.9338   22.9563 O   0  0  0  0  0  0  0  0  0  0  0  0
   12.8777  -16.1551   24.2690 O   0  0  0  0  0  0  0  0  0  0  0  0
  2  1  1  0
  3  2  1  0
  4  3  2  0
  5  3  1  0
  6 12  1  0
  6  5  1  0
  6  7  1  1
  8  7  1  0
  9  8  1  0
 10  9  1  0
 11 10  1  0
 12 20  1  0
 13 12  2  0
 15 17  1  0
 15 14  1  0
 16 15  2  0
 18 17  1  0
 19 18  1  1
 20 19  1  0
 21 22  1  0
 21 19  1  0
 23 21  2  0
M  END
$$$$
