GKQ.pdb
     RDKit          3D

 23 22  0  0  1  0  0  0  0  0999 V2000
    5.3071  -20.0176   23.0831 N   0  0  0  0  0  0  0  0  0  0  0  0
    5.2113  -18.6205   23.3774 C   0  0  0  0  0  0  0  0  0  0  0  0
    6.3230  -17.8574   22.7147 C   0  0  0  0  0  0  0  0  0  0  0  0
    7.3314  -18.4272   22.2592 O   0  0  0  0  0  0  0  0  0  0  0  0
    6.2163  -16.4455   22.6067 N   0  0  0  0  0  0  0  0  0  0  0  0
    7.3186  -15.6216   22.0534 C   0  0  1  0  0  0  0  0  0  0  0  0
    6.7114  -14.2851   21.7812 C   0  0  0  0  0  0  0  0  0  0  0  0
    7.5627  -13.3287   21.0161 C   0  0  0  0  0  0  0  0  0  0  0  0
    7.7556  -13.8121   19.5778 C   0  0  0  0  0  0  0  0  0  0  0  0
    8.5946  -12.8753   18.7742 C   0  0  0  0  0  0  0  0  0  0  0  0
    8.7473  -13.3636   17.4116 N   0  0  0  0  0  0  0  0  0  0  0  0
    8.4020  -15.6519   23.0342 C   0  0  0  0  0  0  0  0  0  0  0  0
    8.1498  -15.5663   24.2920 O   0  0  0  0  0  0  0  0  0  0  0  0
   11.1025  -20.0244   24.4126 N   0  0  0  0  0  0  0  0  0  0  0  0
   11.5725  -19.1821   25.4995 C   0  0  0  0  0  0  0  0  0  0  0  0
   12.2811  -19.7426   26.3375 O   0  0  0  0  0  0  0  0  0  0  0  0
   11.2140  -17.7748   25.5717 C   0  0  0  0  0  0  0  0  0  0  0  0
   10.3126  -17.2111   24.5547 C   0  0  0  0  0  0  0  0  0  0  0  0
   10.7979  -16.0194   23.7821 C   0  0  2  0  0  0  0  0  0  0  0  0
    9.7902  -15.7750   22.7539 N   0  0  0  0  0  0  0  0  0  0  0  0
   12.1685  -16.0146   23.3338 C   0  0  0  0  0  0  0  0  0  0  0  0
   12.4024  -16.1367   21.9491 O   0  0  0  0  0  0  0  0  0  0  0  0
   13.1875  -15.9154   24.0673 O   0  0  0  0  0  0  0  0  0  0  0  0
  2  1  1  0
  3  2  1  0
  4  3  2  0
  5  3  1  0
  6 12  1  0
  6  5  1  0
  6  7  1  1
  8  7  1  0
  9  8  1  0
 10  9  1  0
 11 10  1  0
 12 20  1  0
 13 12  2  0
 15 17  1  0
 15 14  1  0
 16 15  2  0
 18 17  1  0
 19 18  1  6
 20 19  1  0
 21 22  1  0
 21 19  1  0
 23 21  2  0
M  END
$$$$
