GKQ.pdb
     RDKit          3D

 23 22  0  0  1  0  0  0  0  0999 V2000
    5.1480  -19.4707   23.4810 N   0  0  0  0  0  0  0  0  0  0  0  0
    5.3337  -18.1101   23.8835 C   0  0  0  0  0  0  0  0  0  0  0  0
    6.3888  -17.4444   23.0462 C   0  0  0  0  0  0  0  0  0  0  0  0
    7.3063  -18.0909   22.5084 O   0  0  0  0  0  0  0  0  0  0  0  0
    6.3341  -16.0370   22.8657 N   0  0  0  0  0  0  0  0  0  0  0  0
    7.4263  -15.2960   22.1888 C   0  0  1  0  0  0  0  0  0  0  0  0
    6.8298  -13.9826   21.8038 C   0  0  0  0  0  0  0  0  0  0  0  0
    7.6448  -13.1463   20.8758 C   0  0  0  0  0  0  0  0  0  0  0  0
    7.8634  -13.8734   19.5479 C   0  0  0  0  0  0  0  0  0  0  0  0
    8.6546  -13.0579   18.5803 C   0  0  0  0  0  0  0  0  0  0  0  0
    8.8889  -13.8034   17.3524 N   0  0  0  0  0  0  0  0  0  0  0  0
    8.5475  -15.2474   23.1253 C   0  0  0  0  0  0  0  0  0  0  0  0
    8.3462  -15.0420   24.3784 O   0  0  0  0  0  0  0  0  0  0  0  0
   10.2277  -19.1847   27.1643 N   0  0  0  0  0  0  0  0  0  0  0  0
   10.9428  -18.0623   26.5810 C   0  0  0  0  0  0  0  0  0  0  0  0
   11.2808  -17.1793   27.3714 O   0  0  0  0  0  0  0  0  0  0  0  0
   11.2260  -18.0074   25.1558 C   0  0  0  0  0  0  0  0  0  0  0  0
   10.3583  -17.2015   24.2827 C   0  0  0  0  0  0  0  0  0  0  0  0
   10.9138  -15.9119   23.7525 C   0  0  2  0  0  0  0  0  0  0  0  0
    9.9224  -15.4122   22.8040 N   0  0  0  0  0  0  0  0  0  0  0  0
   12.2823  -15.8996   23.2977 C   0  0  0  0  0  0  0  0  0  0  0  0
   12.5117  -16.0545   21.9156 O   0  0  0  0  0  0  0  0  0  0  0  0
   13.3030  -15.7671   24.0235 O   0  0  0  0  0  0  0  0  0  0  0  0
  2  1  1  0
  3  2  1  0
  4  3  2  0
  5  3  1  0
  6 12  1  0
  6  5  1  0
  6  7  1  1
  8  7  1  0
  9  8  1  0
 10  9  1  0
 11 10  1  0
 12 20  1  0
 13 12  2  0
 15 17  1  0
 15 14  1  0
 16 15  2  0
 18 17  1  0
 19 18  1  6
 20 19  1  0
 21 22  1  0
 21 19  1  0
 23 21  2  0
M  END
$$$$
