GKQ.pdb
     RDKit          3D

 23 22  0  0  1  0  0  0  0  0999 V2000
   12.5034  -18.5912   17.9065 N   0  0  0  0  0  0  0  0  0  0  0  0
   11.2003  -18.2928   18.4170 C   0  0  0  0  0  0  0  0  0  0  0  0
   11.2794  -17.2826   19.5264 C   0  0  0  0  0  0  0  0  0  0  0  0
   12.3684  -16.9117   20.0016 O   0  0  0  0  0  0  0  0  0  0  0  0
   10.0751  -16.7375   20.0448 N   0  0  0  0  0  0  0  0  0  0  0  0
   10.0834  -15.6895   21.0944 C   0  0  1  0  0  0  0  0  0  0  0  0
    8.7335  -15.0553   21.0268 C   0  0  0  0  0  0  0  0  0  0  0  0
    8.4667  -14.2232   19.8180 C   0  0  0  0  0  0  0  0  0  0  0  0
    7.0257  -13.7102   19.8254 C   0  0  0  0  0  0  0  0  0  0  0  0
    6.7285  -12.8423   18.6483 C   0  0  0  0  0  0  0  0  0  0  0  0
    5.3203  -12.4755   18.6239 N   0  0  0  0  0  0  0  0  0  0  0  0
   10.4238  -16.3531   22.3514 C   0  0  0  0  0  0  0  0  0  0  0  0
   10.0783  -17.5734   22.5627 O   0  0  0  0  0  0  0  0  0  0  0  0
   16.0273  -16.8829   23.6095 N   0  0  0  0  0  0  0  0  0  0  0  0
   15.2329  -18.0633   23.9050 C   0  0  0  0  0  0  0  0  0  0  0  0
   15.8371  -19.1362   23.8550 O   0  0  0  0  0  0  0  0  0  0  0  0
   13.8201  -17.9585   24.2326 C   0  0  0  0  0  0  0  0  0  0  0  0
   13.1857  -16.6313   24.2555 C   0  0  0  0  0  0  0  0  0  0  0  0
   11.7106  -16.5724   24.5264 C   0  0  2  0  0  0  0  0  0  0  0  0
   11.1381  -15.7824   23.4400 N   0  0  0  0  0  0  0  0  0  0  0  0
   11.2794  -16.2193   25.8564 C   0  0  0  0  0  0  0  0  0  0  0  0
   10.3393  -15.1766   25.9820 O   0  0  0  0  0  0  0  0  0  0  0  0
   11.6685  -16.7545   26.9280 O   0  0  0  0  0  0  0  0  0  0  0  0
  2  1  1  0
  3  2  1  0
  4  3  2  0
  5  3  1  0
  6 12  1  0
  6  5  1  0
  6  7  1  1
  8  7  1  0
  9  8  1  0
 10  9  1  0
 11 10  1  0
 12 20  1  0
 13 12  2  0
 15 17  1  0
 15 14  1  0
 16 15  2  0
 18 17  1  0
 19 18  1  1
 20 19  1  0
 21 22  1  0
 21 19  1  0
 23 21  2  0
M  END
$$$$
