GKQ.pdb
     RDKit          3D

 23 22  0  0  1  0  0  0  0  0999 V2000
    8.2231  -12.0042   18.7839 N   0  0  0  0  0  0  0  0  0  0  0  0
    8.7403  -13.3208   18.9998 C   0  0  0  0  0  0  0  0  0  0  0  0
    8.0966  -13.9579   20.1986 C   0  0  0  0  0  0  0  0  0  0  0  0
    7.6575  -13.2813   21.1465 O   0  0  0  0  0  0  0  0  0  0  0  0
    7.9881  -15.3729   20.2479 N   0  0  0  0  0  0  0  0  0  0  0  0
    7.3634  -16.0659   21.4010 C   0  0  1  0  0  0  0  0  0  0  0  0
    7.1307  -17.4662   20.9383 C   0  0  0  0  0  0  0  0  0  0  0  0
    6.5976  -18.4089   21.9640 C   0  0  0  0  0  0  0  0  0  0  0  0
    6.4160  -19.8059   21.3679 C   0  0  0  0  0  0  0  0  0  0  0  0
    5.7210  -20.7351   22.3064 C   0  0  0  0  0  0  0  0  0  0  0  0
    5.5371  -22.0417   21.6923 N   0  0  0  0  0  0  0  0  0  0  0  0
    8.2712  -15.9020   22.5348 C   0  0  0  0  0  0  0  0  0  0  0  0
    9.5401  -15.8090   22.3502 O   0  0  0  0  0  0  0  0  0  0  0  0
    6.2855  -11.6131   25.9647 N   0  0  0  0  0  0  0  0  0  0  0  0
    6.9823  -12.3837   26.9807 C   0  0  0  0  0  0  0  0  0  0  0  0
    6.9195  -11.9324   28.1256 O   0  0  0  0  0  0  0  0  0  0  0  0
    7.7009  -13.6017   26.6423 C   0  0  0  0  0  0  0  0  0  0  0  0
    8.0250  -13.8752   25.2335 C   0  0  0  0  0  0  0  0  0  0  0  0
    8.7216  -15.1674   24.9206 C   0  0  2  0  0  0  0  0  0  0  0  0
    7.9029  -15.8247   23.9057 N   0  0  0  0  0  0  0  0  0  0  0  0
    9.1412  -15.9956   26.0240 C   0  0  0  0  0  0  0  0  0  0  0  0
    8.5102  -17.2467   26.1775 O   0  0  0  0  0  0  0  0  0  0  0  0
   10.0226  -15.7048   26.8753 O   0  0  0  0  0  0  0  0  0  0  0  0
  2  1  1  0
  3  2  1  0
  4  3  2  0
  5  3  1  0
  6 12  1  0
  6  5  1  0
  6  7  1  6
  8  7  1  0
  9  8  1  0
 10  9  1  0
 11 10  1  0
 12 20  1  0
 13 12  2  0
 15 17  1  0
 15 14  1  0
 16 15  2  0
 18 17  1  0
 19 18  1  1
 20 19  1  0
 21 22  1  0
 21 19  1  0
 23 21  2  0
M  END
$$$$
