GKQ.pdb
     RDKit          3D

 23 22  0  0  1  0  0  0  0  0999 V2000
    9.1124  -18.1254   16.7031 N   0  0  0  0  0  0  0  0  0  0  0  0
    8.3195  -17.8843   17.8697 C   0  0  0  0  0  0  0  0  0  0  0  0
    8.9729  -16.8642   18.7585 C   0  0  0  0  0  0  0  0  0  0  0  0
   10.1217  -16.4392   18.5377 O   0  0  0  0  0  0  0  0  0  0  0  0
    8.2560  -16.3734   19.8816 N   0  0  0  0  0  0  0  0  0  0  0  0
    8.8895  -15.4752   20.8776 C   0  0  1  0  0  0  0  0  0  0  0  0
    7.7574  -14.8946   21.6588 C   0  0  0  0  0  0  0  0  0  0  0  0
    8.1300  -13.8762   22.6829 C   0  0  0  0  0  0  0  0  0  0  0  0
    6.8902  -13.3941   23.4380 C   0  0  0  0  0  0  0  0  0  0  0  0
    7.2342  -12.4695   24.5579 C   0  0  0  0  0  0  0  0  0  0  0  0
    6.0360  -12.0747   25.2836 N   0  0  0  0  0  0  0  0  0  0  0  0
    9.8455  -16.2857   21.6297 C   0  0  0  0  0  0  0  0  0  0  0  0
    9.7511  -17.5678   21.6415 O   0  0  0  0  0  0  0  0  0  0  0  0
   13.1651  -19.0492   26.2157 N   0  0  0  0  0  0  0  0  0  0  0  0
   11.9384  -19.1670   25.4457 C   0  0  0  0  0  0  0  0  0  0  0  0
   10.9188  -19.3878   26.1017 O   0  0  0  0  0  0  0  0  0  0  0  0
   11.9411  -19.0317   23.9979 C   0  0  0  0  0  0  0  0  0  0  0  0
   11.1756  -17.9387   23.3783 C   0  0  0  0  0  0  0  0  0  0  0  0
   11.9163  -16.6775   23.0415 C   0  0  2  0  0  0  0  0  0  0  0  0
   10.9400  -15.8029   22.3979 N   0  0  0  0  0  0  0  0  0  0  0  0
   13.1898  -16.7967   22.3757 C   0  0  0  0  0  0  0  0  0  0  0  0
   13.2907  -17.7283   21.3226 O   0  0  0  0  0  0  0  0  0  0  0  0
   14.2328  -16.1460   22.6495 O   0  0  0  0  0  0  0  0  0  0  0  0
  2  1  1  0
  3  2  1  0
  4  3  2  0
  5  3  1  0
  6 12  1  0
  6  5  1  0
  6  7  1  1
  8  7  1  0
  9  8  1  0
 10  9  1  0
 11 10  1  0
 12 20  1  0
 13 12  2  0
 15 17  1  0
 15 14  1  0
 16 15  2  0
 18 17  1  0
 19 18  1  6
 20 19  1  0
 21 22  1  0
 21 19  1  0
 23 21  2  0
M  END
$$$$
