YMD.pdb
     RDKit          3D

 29 29  0  0  1  0  0  0  0  0999 V2000
   26.6211  -31.4458    2.6782 O   0  0  0  0  0  0  0  0  0  0  0  0
   26.7915  -30.7160    3.8492 C   0  0  0  0  0  0  0  0  0  0  0  0
   25.7169  -30.0231    4.3804 C   0  0  0  0  0  0  0  0  0  0  0  0
   25.8630  -29.2995    5.5310 C   0  0  0  0  0  0  0  0  0  0  0  0
   27.0800  -29.2610    6.1602 C   0  0  0  0  0  0  0  0  0  0  0  0
   27.1993  -28.4507    7.4233 C   0  0  0  0  0  0  0  0  0  0  0  0
   28.3585  -29.0777    8.2100 C   0  0  2  0  0  0  0  0  0  0  0  0
   27.9572  -30.3802    8.6808 N   0  0  0  0  0  0  0  0  0  0  0  0
   28.5565  -28.1962    9.4211 C   0  0  0  0  0  0  0  0  0  0  0  0
   28.2522  -28.7032   10.5231 O   0  0  0  0  0  0  0  0  0  0  0  0
   28.1440  -29.9510    5.6284 C   0  0  0  0  0  0  0  0  0  0  0  0
   28.0087  -30.6805    4.4740 C   0  0  0  0  0  0  0  0  0  0  0  0
   33.3945  -23.5837   10.2318 C   0  0  0  0  0  0  0  0  0  0  0  0
   31.8411  -22.7291   10.6590 S   0  0  0  0  0  0  0  0  0  0  0  0
   30.5959  -23.9654   11.1702 C   0  0  0  0  0  0  0  0  0  0  0  0
   30.3213  -24.8947   10.0204 C   0  0  0  0  0  0  0  0  0  0  0  0
   29.2906  -25.9547   10.3324 C   0  0  2  0  0  0  0  0  0  0  0  0
   29.0573  -26.8848    9.2780 N   0  0  0  0  0  0  0  0  0  0  0  0
   28.1046  -25.4902   11.0253 C   0  0  0  0  0  0  0  0  0  0  0  0
   28.0588  -24.8465   12.0838 O   0  0  0  0  0  0  0  0  0  0  0  0
   26.8201  -25.7970   10.4398 N   0  0  0  0  0  0  0  0  0  0  0  0
   25.5904  -25.4082   11.0328 C   0  0  1  0  0  0  0  0  0  0  0  0
   24.8360  -24.3345   10.3505 C   0  0  0  0  0  0  0  0  0  0  0  0
   25.1284  -22.9927   10.9027 C   0  0  0  0  0  0  0  0  0  0  0  0
   25.8528  -22.7992   11.9037 O   0  0  0  0  0  0  0  0  0  0  0  0
   24.6853  -26.6028   11.1800 C   0  0  0  0  0  0  0  0  0  0  0  0
   23.4427  -26.4764   11.7951 O   0  0  0  0  0  0  0  0  0  0  0  0
   24.5733  -21.8880   10.2823 O   0  0  0  0  0  0  0  0  0  0  0  0
   25.0690  -27.7164   10.7391 O   0  0  0  0  0  0  0  0  0  0  0  0
  2  1  1  0
  3  2  2  0
  4  3  1  0
  5 11  1  0
  5  4  2  0
  6  5  1  0
  7  9  1  0
  7  6  1  0
  7  8  1  1
  9 10  2  0
 11 12  2  0
 12  2  1  0
 14 15  1  0
 14 13  1  0
 17 16  1  6
 16 15  1  0
 18 17  1  0
 18  9  1  0
 19 17  1  0
 20 19  2  0
 21 19  1  0
 22 23  1  6
 22 21  1  0
 23 24  1  0
 24 25  2  0
 24 28  1  0
 26 27  1  0
 26 22  1  0
 29 26  2  0
M  END
$$$$
