YMD.pdb
     RDKit          3D

 29 29  0  0  1  0  0  0  0  0999 V2000
   21.2274  -10.9923    6.0313 O   0  0  0  0  0  0  0  0  0  0  0  0
   20.2706  -12.0010    6.0443 C   0  0  0  0  0  0  0  0  0  0  0  0
   19.0769  -11.8139    5.3683 C   0  0  0  0  0  0  0  0  0  0  0  0
   18.1229  -12.7930    5.3684 C   0  0  0  0  0  0  0  0  0  0  0  0
   18.3512  -13.9648    6.0415 C   0  0  0  0  0  0  0  0  0  0  0  0
   17.2741  -15.0164    6.0188 C   0  0  0  0  0  0  0  0  0  0  0  0
   17.8455  -16.1770    5.1928 C   0  0  2  0  0  0  0  0  0  0  0  0
   16.7562  -16.9185    4.6072 N   0  0  0  0  0  0  0  0  0  0  0  0
   18.5346  -17.0856    6.1840 C   0  0  0  0  0  0  0  0  0  0  0  0
   17.9645  -18.1740    6.4175 O   0  0  0  0  0  0  0  0  0  0  0  0
   19.5385  -14.1456    6.7113 C   0  0  0  0  0  0  0  0  0  0  0  0
   20.5030  -13.1695    6.7179 C   0  0  0  0  0  0  0  0  0  0  0  0
   25.2755  -18.0080   10.4029 C   0  0  0  0  0  0  0  0  0  0  0  0
   24.3437  -17.0326    9.1757 S   0  0  0  0  0  0  0  0  0  0  0  0
   22.6687  -17.7400    8.9919 C   0  0  0  0  0  0  0  0  0  0  0  0
   21.9051  -16.9434    7.9704 C   0  0  0  0  0  0  0  0  0  0  0  0
   20.5096  -17.4643    7.7170 C   0  0  2  0  0  0  0  0  0  0  0  0
   19.7481  -16.6955    6.7895 N   0  0  0  0  0  0  0  0  0  0  0  0
   19.7875  -17.9168    8.8901 C   0  0  0  0  0  0  0  0  0  0  0  0
   19.1760  -17.2165    9.7101 O   0  0  0  0  0  0  0  0  0  0  0  0
   19.7607  -19.3363    9.1575 N   0  0  0  0  0  0  0  0  0  0  0  0
   19.0327  -19.9036   10.2359 C   0  0  1  0  0  0  0  0  0  0  0  0
   18.2648  -21.1331    9.9429 C   0  0  0  0  0  0  0  0  0  0  0  0
   16.8274  -20.8661    9.7115 C   0  0  0  0  0  0  0  0  0  0  0  0
   16.3193  -19.7242    9.7587 O   0  0  0  0  0  0  0  0  0  0  0  0
   19.9552  -20.1858   11.3923 C   0  0  0  0  0  0  0  0  0  0  0  0
   19.6255  -19.7656   12.6781 O   0  0  0  0  0  0  0  0  0  0  0  0
   15.9948  -21.9336    9.4271 O   0  0  0  0  0  0  0  0  0  0  0  0
   21.0280  -20.8066   11.1792 O   0  0  0  0  0  0  0  0  0  0  0  0
  2  1  1  0
  3  2  2  0
  4  3  1  0
  5 11  1  0
  5  4  2  0
  6  5  1  0
  7  9  1  0
  7  6  1  0
  7  8  1  1
  9 10  2  0
 11 12  2  0
 12  2  1  0
 14 15  1  0
 14 13  1  0
 17 16  1  1
 16 15  1  0
 18 17  1  0
 18  9  1  0
 19 17  1  0
 20 19  2  0
 21 19  1  0
 22 23  1  6
 22 21  1  0
 23 24  1  0
 24 25  2  0
 24 28  1  0
 26 27  1  0
 26 22  1  0
 29 26  2  0
M  END
$$$$
