YMD.pdb
     RDKit          3D

 29 29  0  0  1  0  0  0  0  0999 V2000
   21.9140  -16.1934  -23.2892 O   0  0  0  0  0  0  0  0  0  0  0  0
   22.4855  -15.5281  -22.2104 C   0  0  0  0  0  0  0  0  0  0  0  0
   21.7139  -15.2567  -21.0933 C   0  0  0  0  0  0  0  0  0  0  0  0
   22.2564  -14.6038  -20.0218 C   0  0  0  0  0  0  0  0  0  0  0  0
   23.5707  -14.2167  -20.0556 C   0  0  0  0  0  0  0  0  0  0  0  0
   24.1287  -13.4980  -18.8561 C   0  0  0  0  0  0  0  0  0  0  0  0
   23.0234  -12.5368  -18.3977 C   0  0  2  0  0  0  0  0  0  0  0  0
   22.8159  -11.5382  -19.4169 N   0  0  0  0  0  0  0  0  0  0  0  0
   23.5706  -11.8351  -17.1766 C   0  0  0  0  0  0  0  0  0  0  0  0
   23.7174  -12.5445  -16.1571 O   0  0  0  0  0  0  0  0  0  0  0  0
   24.3327  -14.4887  -21.1674 C   0  0  0  0  0  0  0  0  0  0  0  0
   23.7985  -15.1435  -22.2487 C   0  0  0  0  0  0  0  0  0  0  0  0
   28.7902   -9.5386  -17.5407 C   0  0  0  0  0  0  0  0  0  0  0  0
   28.4413  -10.3186  -15.9295 S   0  0  0  0  0  0  0  0  0  0  0  0
   26.6567  -10.6964  -15.8183 C   0  0  0  0  0  0  0  0  0  0  0  0
   25.8683   -9.4568  -16.1389 C   0  0  0  0  0  0  0  0  0  0  0  0
   24.3729   -9.6739  -16.1376 C   0  0  2  0  0  0  0  0  0  0  0  0
   23.8861  -10.4605  -17.2219 N   0  0  0  0  0  0  0  0  0  0  0  0
   23.5719   -8.5125  -15.8034 C   0  0  0  0  0  0  0  0  0  0  0  0
   23.8809   -7.5820  -15.0448 O   0  0  0  0  0  0  0  0  0  0  0  0
   22.2640   -8.4011  -16.4069 N   0  0  0  0  0  0  0  0  0  0  0  0
   21.4288   -7.2669  -16.2320 C   0  0  1  0  0  0  0  0  0  0  0  0
   21.9296   -5.9852  -16.7739 C   0  0  0  0  0  0  0  0  0  0  0  0
   20.9706   -4.8733  -16.5868 C   0  0  0  0  0  0  0  0  0  0  0  0
   20.2915   -4.3817  -17.5148 O   0  0  0  0  0  0  0  0  0  0  0  0
   20.0675   -7.5300  -16.8200 C   0  0  0  0  0  0  0  0  0  0  0  0
   18.9294   -6.9708  -16.2452 O   0  0  0  0  0  0  0  0  0  0  0  0
   20.8122   -4.3444  -15.3185 O   0  0  0  0  0  0  0  0  0  0  0  0
   19.9743   -8.2625  -17.8381 O   0  0  0  0  0  0  0  0  0  0  0  0
  2  1  1  0
  3  2  2  0
  4  3  1  0
  5 11  1  0
  5  4  2  0
  6  5  1  0
  7  9  1  0
  7  6  1  0
  7  8  1  6
  9 10  2  0
 11 12  2  0
 12  2  1  0
 14 15  1  0
 14 13  1  0
 17 16  1  6
 16 15  1  0
 18 17  1  0
 18  9  1  0
 19 17  1  0
 20 19  2  0
 21 19  1  0
 22 23  1  6
 22 21  1  0
 23 24  1  0
 24 25  2  0
 24 28  1  0
 26 27  1  0
 26 22  1  0
 29 26  2  0
M  END
$$$$
