YMD.pdb
     RDKit          3D

 29 29  0  0  1  0  0  0  0  0999 V2000
   25.1437  -13.4669  -18.9390 O   0  0  0  0  0  0  0  0  0  0  0  0
   24.8590  -14.6776  -18.3176 C   0  0  0  0  0  0  0  0  0  0  0  0
   25.6387  -15.0942  -17.2520 C   0  0  0  0  0  0  0  0  0  0  0  0
   25.3758  -16.2812  -16.6269 C   0  0  0  0  0  0  0  0  0  0  0  0
   24.3349  -17.0612  -17.0588 C   0  0  0  0  0  0  0  0  0  0  0  0
   24.0805  -18.3620  -16.3450 C   0  0  0  0  0  0  0  0  0  0  0  0
   22.6495  -18.2621  -15.7989 C   0  0  2  0  0  0  0  0  0  0  0  0
   22.6209  -17.2964  -14.7285 N   0  0  0  0  0  0  0  0  0  0  0  0
   22.3435  -19.6153  -15.2004 C   0  0  0  0  0  0  0  0  0  0  0  0
   22.3642  -20.5822  -15.9935 O   0  0  0  0  0  0  0  0  0  0  0  0
   23.5636  -16.6428  -18.1176 C   0  0  0  0  0  0  0  0  0  0  0  0
   23.8186  -15.4531  -18.7524 C   0  0  0  0  0  0  0  0  0  0  0  0
   25.7846  -19.8520   -9.7773 C   0  0  0  0  0  0  0  0  0  0  0  0
   24.3889  -20.9709  -10.1323 S   0  0  0  0  0  0  0  0  0  0  0  0
   23.5954  -20.4640  -11.6986 C   0  0  0  0  0  0  0  0  0  0  0  0
   22.3338  -21.2586  -11.8932 C   0  0  0  0  0  0  0  0  0  0  0  0
   21.5953  -20.9188  -13.1670 C   0  0  2  0  0  0  0  0  0  0  0  0
   22.0565  -19.7415  -13.8246 N   0  0  0  0  0  0  0  0  0  0  0  0
   20.1552  -21.0799  -13.1179 C   0  0  0  0  0  0  0  0  0  0  0  0
   19.3161  -20.2260  -12.7962 O   0  0  0  0  0  0  0  0  0  0  0  0
   19.6098  -22.3680  -13.4790 N   0  0  0  0  0  0  0  0  0  0  0  0
   18.2230  -22.6634  -13.4132 C   0  0  1  0  0  0  0  0  0  0  0  0
   17.5763  -23.0922  -14.6723 C   0  0  0  0  0  0  0  0  0  0  0  0
   16.1212  -23.3158  -14.5186 C   0  0  0  0  0  0  0  0  0  0  0  0
   15.4996  -23.1179  -13.4516 O   0  0  0  0  0  0  0  0  0  0  0  0
   17.9663  -23.7156  -12.3668 C   0  0  0  0  0  0  0  0  0  0  0  0
   16.8537  -23.6276  -11.5344 O   0  0  0  0  0  0  0  0  0  0  0  0
   15.4037  -23.7686  -15.6112 O   0  0  0  0  0  0  0  0  0  0  0  0
   18.7721  -24.6748  -12.2561 O   0  0  0  0  0  0  0  0  0  0  0  0
  2  1  1  0
  3  2  2  0
  4  3  1  0
  5 11  1  0
  5  4  2  0
  6  5  1  0
  7  9  1  0
  7  6  1  0
  7  8  1  1
  9 10  2  0
 11 12  2  0
 12  2  1  0
 14 15  1  0
 14 13  1  0
 17 16  1  1
 16 15  1  0
 18 17  1  0
 18  9  1  0
 19 17  1  0
 20 19  2  0
 21 19  1  0
 22 23  1  6
 22 21  1  0
 23 24  1  0
 24 25  2  0
 24 28  1  0
 26 27  1  0
 26 22  1  0
 29 26  2  0
M  END
$$$$
