YMD.pdb
     RDKit          3D

 29 29  0  0  1  0  0  0  0  0999 V2000
   29.4525  -15.6456  -18.5257 O   0  0  0  0  0  0  0  0  0  0  0  0
   28.5517  -16.4498  -17.8367 C   0  0  0  0  0  0  0  0  0  0  0  0
   28.4422  -16.3241  -16.4622 C   0  0  0  0  0  0  0  0  0  0  0  0
   27.5627  -17.1051  -15.7656 C   0  0  0  0  0  0  0  0  0  0  0  0
   26.7866  -18.0165  -16.4329 C   0  0  0  0  0  0  0  0  0  0  0  0
   25.8327  -18.8587  -15.6284 C   0  0  0  0  0  0  0  0  0  0  0  0
   26.7116  -19.8249  -14.8224 C   0  0  2  0  0  0  0  0  0  0  0  0
   27.3434  -20.7526  -15.7277 N   0  0  0  0  0  0  0  0  0  0  0  0
   25.7618  -20.6135  -13.9511 C   0  0  0  0  0  0  0  0  0  0  0  0
   25.0616  -21.4676  -14.5378 O   0  0  0  0  0  0  0  0  0  0  0  0
   26.8992  -18.1374  -17.7980 C   0  0  0  0  0  0  0  0  0  0  0  0
   27.7787  -17.3585  -18.5073 C   0  0  0  0  0  0  0  0  0  0  0  0
   26.1390  -19.7487   -7.7024 C   0  0  0  0  0  0  0  0  0  0  0  0
   27.3477  -20.8795   -8.4682 S   0  0  0  0  0  0  0  0  0  0  0  0
   26.7364  -21.3881  -10.1136 C   0  0  0  0  0  0  0  0  0  0  0  0
   25.2749  -21.0519  -10.2235 C   0  0  0  0  0  0  0  0  0  0  0  0
   24.7791  -20.9673  -11.6483 C   0  0  2  0  0  0  0  0  0  0  0  0
   25.6971  -20.3728  -12.5622 N   0  0  0  0  0  0  0  0  0  0  0  0
   23.3952  -20.5646  -11.8069 C   0  0  0  0  0  0  0  0  0  0  0  0
   22.8647  -19.5247  -11.3897 O   0  0  0  0  0  0  0  0  0  0  0  0
   22.5141  -21.4546  -12.5270 N   0  0  0  0  0  0  0  0  0  0  0  0
   21.1729  -21.1179  -12.8477 C   0  0  1  0  0  0  0  0  0  0  0  0
   20.9609  -19.8290  -13.5414 C   0  0  0  0  0  0  0  0  0  0  0  0
   19.5293  -19.5392  -13.7812 C   0  0  0  0  0  0  0  0  0  0  0  0
   18.6779  -19.4559  -12.8689 O   0  0  0  0  0  0  0  0  0  0  0  0
   20.5484  -22.2097  -13.6759 C   0  0  0  0  0  0  0  0  0  0  0  0
   19.1822  -22.1992  -13.9445 O   0  0  0  0  0  0  0  0  0  0  0  0
   19.1032  -19.3492  -15.0834 O   0  0  0  0  0  0  0  0  0  0  0  0
   21.2794  -23.1312  -14.1212 O   0  0  0  0  0  0  0  0  0  0  0  0
  2  1  1  0
  3  2  2  0
  4  3  1  0
  5 11  1  0
  5  4  2  0
  6  5  1  0
  7  9  1  0
  7  6  1  0
  7  8  1  6
  9 10  2  0
 11 12  2  0
 12  2  1  0
 14 15  1  0
 14 13  1  0
 17 16  1  1
 16 15  1  0
 18 17  1  0
 18  9  1  0
 19 17  1  0
 20 19  2  0
 21 19  1  0
 22 23  1  6
 22 21  1  0
 23 24  1  0
 24 25  2  0
 24 28  1  0
 26 27  1  0
 26 22  1  0
 29 26  2  0
M  END
$$$$
