YMD.pdb
     RDKit          3D

 29 29  0  0  1  0  0  0  0  0999 V2000
   10.9803  -11.1639   -7.9138 O   0  0  0  0  0  0  0  0  0  0  0  0
   11.7111  -10.5439   -8.9210 C   0  0  0  0  0  0  0  0  0  0  0  0
   11.2467  -10.5905  -10.2245 C   0  0  0  0  0  0  0  0  0  0  0  0
   11.9500   -9.9874  -11.2297 C   0  0  0  0  0  0  0  0  0  0  0  0
   13.1202   -9.3339  -10.9436 C   0  0  0  0  0  0  0  0  0  0  0  0
   13.8654   -8.6850  -12.0795 C   0  0  0  0  0  0  0  0  0  0  0  0
   13.6191   -7.1776  -11.9292 C   0  0  2  0  0  0  0  0  0  0  0  0
   12.2259   -6.9014  -12.1780 N   0  0  0  0  0  0  0  0  0  0  0  0
   14.4180   -6.5197  -13.0301 C   0  0  0  0  0  0  0  0  0  0  0  0
   13.7692   -6.1578  -14.0362 O   0  0  0  0  0  0  0  0  0  0  0  0
   13.5770   -9.2905   -9.6474 C   0  0  0  0  0  0  0  0  0  0  0  0
   12.8792   -9.8925   -8.6305 C   0  0  0  0  0  0  0  0  0  0  0  0
   15.0211   -0.5380  -12.7567 C   0  0  0  0  0  0  0  0  0  0  0  0
   15.3969   -1.7599  -14.0574 S   0  0  0  0  0  0  0  0  0  0  0  0
   15.8583   -3.3465  -13.2764 C   0  0  0  0  0  0  0  0  0  0  0  0
   16.1231   -4.3667  -14.3489 C   0  0  0  0  0  0  0  0  0  0  0  0
   16.6662   -5.6736  -13.8196 C   0  0  2  0  0  0  0  0  0  0  0  0
   15.8112   -6.3411  -12.8951 N   0  0  0  0  0  0  0  0  0  0  0  0
   18.0745   -5.6727  -13.4749 C   0  0  0  0  0  0  0  0  0  0  0  0
   18.5748   -5.4298  -12.3669 O   0  0  0  0  0  0  0  0  0  0  0  0
   19.0227   -5.9864  -14.5187 N   0  0  0  0  0  0  0  0  0  0  0  0
   20.1802   -6.7773  -14.2960 C   0  0  1  0  0  0  0  0  0  0  0  0
   20.1430   -8.1649  -14.8065 C   0  0  0  0  0  0  0  0  0  0  0  0
   21.3676   -8.9274  -14.4750 C   0  0  0  0  0  0  0  0  0  0  0  0
   22.2495   -8.5135  -13.6908 O   0  0  0  0  0  0  0  0  0  0  0  0
   21.3932   -6.0939  -14.8700 C   0  0  0  0  0  0  0  0  0  0  0  0
   22.6276   -6.1931  -14.2335 O   0  0  0  0  0  0  0  0  0  0  0  0
   21.5528  -10.1666  -15.0613 O   0  0  0  0  0  0  0  0  0  0  0  0
   21.2745   -5.4321  -15.9328 O   0  0  0  0  0  0  0  0  0  0  0  0
  2  1  1  0
  3  2  2  0
  4  3  1  0
  5 11  1  0
  5  4  2  0
  6  5  1  0
  7  9  1  0
  7  6  1  0
  7  8  1  6
  9 10  2  0
 11 12  2  0
 12  2  1  0
 14 15  1  0
 14 13  1  0
 17 16  1  1
 16 15  1  0
 18 17  1  0
 18  9  1  0
 19 17  1  0
 20 19  2  0
 21 19  1  0
 22 23  1  6
 22 21  1  0
 23 24  1  0
 24 25  2  0
 24 28  1  0
 26 27  1  0
 26 22  1  0
 29 26  2  0
M  END
$$$$
