YMD.pdb
     RDKit          3D

 29 29  0  0  1  0  0  0  0  0999 V2000
   28.9913  -16.7069  -18.6155 O   0  0  0  0  0  0  0  0  0  0  0  0
   28.4662  -17.2979  -17.4718 C   0  0  0  0  0  0  0  0  0  0  0  0
   27.0948  -17.4463  -17.3522 C   0  0  0  0  0  0  0  0  0  0  0  0
   26.5580  -18.0248  -16.2360 C   0  0  0  0  0  0  0  0  0  0  0  0
   27.3830  -18.4594  -15.2317 C   0  0  0  0  0  0  0  0  0  0  0  0
   26.7517  -19.0886  -14.0184 C   0  0  0  0  0  0  0  0  0  0  0  0
   27.3869  -20.4804  -13.8955 C   0  0  2  0  0  0  0  0  0  0  0  0
   26.9620  -21.2915  -15.0093 N   0  0  0  0  0  0  0  0  0  0  0  0
   26.8043  -21.0878  -12.6407 C   0  0  0  0  0  0  0  0  0  0  0  0
   26.0520  -22.0728  -12.8074 O   0  0  0  0  0  0  0  0  0  0  0  0
   28.7443  -18.3096  -15.3554 C   0  0  0  0  0  0  0  0  0  0  0  0
   29.2940  -17.7303  -16.4714 C   0  0  0  0  0  0  0  0  0  0  0  0
   26.3957  -20.3349   -4.6845 C   0  0  0  0  0  0  0  0  0  0  0  0
   27.3353  -20.0321   -6.2178 S   0  0  0  0  0  0  0  0  0  0  0  0
   26.3820  -20.6664   -7.6422 C   0  0  0  0  0  0  0  0  0  0  0  0
   27.1583  -20.4188   -8.9060 C   0  0  0  0  0  0  0  0  0  0  0  0
   26.4045  -20.7910  -10.1616 C   0  0  2  0  0  0  0  0  0  0  0  0
   27.1137  -20.5487  -11.3739 N   0  0  0  0  0  0  0  0  0  0  0  0
   25.0006  -20.4288  -10.1797 C   0  0  0  0  0  0  0  0  0  0  0  0
   24.5025  -19.3424   -9.8502 O   0  0  0  0  0  0  0  0  0  0  0  0
   24.0547  -21.4249  -10.6269 N   0  0  0  0  0  0  0  0  0  0  0  0
   22.6886  -21.1325  -10.8777 C   0  0  1  0  0  0  0  0  0  0  0  0
   22.2928  -19.7090  -10.8125 C   0  0  0  0  0  0  0  0  0  0  0  0
   20.8319  -19.5163  -10.9528 C   0  0  0  0  0  0  0  0  0  0  0  0
   19.9839  -20.3528  -10.5719 O   0  0  0  0  0  0  0  0  0  0  0  0
   22.2803  -21.6765  -12.2214 C   0  0  0  0  0  0  0  0  0  0  0  0
   23.2250  -22.2498  -13.0683 O   0  0  0  0  0  0  0  0  0  0  0  0
   20.3729  -18.3491  -11.5364 O   0  0  0  0  0  0  0  0  0  0  0  0
   21.0732  -21.6050  -12.5670 O   0  0  0  0  0  0  0  0  0  0  0  0
  2  1  1  0
  3  2  2  0
  4  3  1  0
  5 11  1  0
  5  4  2  0
  6  5  1  0
  7  9  1  0
  7  6  1  0
  7  8  1  6
  9 10  2  0
 11 12  2  0
 12  2  1  0
 14 15  1  0
 14 13  1  0
 17 16  1  1
 16 15  1  0
 18 17  1  0
 18  9  1  0
 19 17  1  0
 20 19  2  0
 21 19  1  0
 22 23  1  6
 22 21  1  0
 23 24  1  0
 24 25  2  0
 24 28  1  0
 26 27  1  0
 26 22  1  0
 29 26  2  0
M  END
$$$$
