YMD.pdb
     RDKit          3D

 29 29  0  0  1  0  0  0  0  0999 V2000
   27.8784   -2.7140  -18.0545 O   0  0  0  0  0  0  0  0  0  0  0  0
   26.7377   -3.3925  -17.6407 C   0  0  0  0  0  0  0  0  0  0  0  0
   26.4788   -3.5239  -16.2869 C   0  0  0  0  0  0  0  0  0  0  0  0
   25.3628   -4.1872  -15.8588 C   0  0  0  0  0  0  0  0  0  0  0  0
   24.4972   -4.7241  -16.7758 C   0  0  0  0  0  0  0  0  0  0  0  0
   23.2814   -5.4488  -16.2628 C   0  0  0  0  0  0  0  0  0  0  0  0
   23.7331   -6.8954  -16.0197 C   0  0  2  0  0  0  0  0  0  0  0  0
   24.7084   -7.2577  -17.0181 N   0  0  0  0  0  0  0  0  0  0  0  0
   22.5087   -7.7510  -16.2468 C   0  0  0  0  0  0  0  0  0  0  0  0
   22.6831   -8.7879  -16.9240 O   0  0  0  0  0  0  0  0  0  0  0  0
   24.7589   -4.5908  -18.1191 C   0  0  0  0  0  0  0  0  0  0  0  0
   25.8762   -3.9270  -18.5601 C   0  0  0  0  0  0  0  0  0  0  0  0
   17.8975  -13.1982  -15.8131 C   0  0  0  0  0  0  0  0  0  0  0  0
   19.4075  -12.2139  -15.5361 S   0  0  0  0  0  0  0  0  0  0  0  0
   19.0182  -10.4416  -15.7536 C   0  0  0  0  0  0  0  0  0  0  0  0
   20.2771   -9.6355  -15.5911 C   0  0  0  0  0  0  0  0  0  0  0  0
   20.0644   -8.1463  -15.7339 C   0  0  2  0  0  0  0  0  0  0  0  0
   21.2600   -7.3709  -15.7107 N   0  0  0  0  0  0  0  0  0  0  0  0
   18.9528   -7.5976  -14.9819 C   0  0  0  0  0  0  0  0  0  0  0  0
   17.8120   -8.0714  -14.8773 O   0  0  0  0  0  0  0  0  0  0  0  0
   19.1703   -6.3625  -14.2648 N   0  0  0  0  0  0  0  0  0  0  0  0
   18.3345   -5.2254  -14.4176 C   0  0  1  0  0  0  0  0  0  0  0  0
   18.7666   -4.2132  -15.4054 C   0  0  0  0  0  0  0  0  0  0  0  0
   19.8134   -3.3103  -14.8761 C   0  0  0  0  0  0  0  0  0  0  0  0
   20.9342   -3.7044  -14.4855 O   0  0  0  0  0  0  0  0  0  0  0  0
   16.9328   -5.6551  -14.7621 C   0  0  0  0  0  0  0  0  0  0  0  0
   16.6604   -6.9806  -15.0896 O   0  0  0  0  0  0  0  0  0  0  0  0
   19.5435   -1.9554  -14.8070 O   0  0  0  0  0  0  0  0  0  0  0  0
   16.0120   -4.7985  -14.7496 O   0  0  0  0  0  0  0  0  0  0  0  0
  2  1  1  0
  3  2  2  0
  4  3  1  0
  5 11  1  0
  5  4  2  0
  6  5  1  0
  7  9  1  0
  7  6  1  0
  7  8  1  6
  9 10  2  0
 11 12  2  0
 12  2  1  0
 14 15  1  0
 14 13  1  0
 17 16  1  1
 16 15  1  0
 18 17  1  0
 18  9  1  0
 19 17  1  0
 20 19  2  0
 21 19  1  0
 22 23  1  6
 22 21  1  0
 23 24  1  0
 24 25  2  0
 24 28  1  0
 26 27  1  0
 26 22  1  0
 29 26  2  0
M  END
$$$$
