YMD.pdb
     RDKit          3D

 29 29  0  0  1  0  0  0  0  0999 V2000
   28.1260  -14.0920  -18.5429 O   0  0  0  0  0  0  0  0  0  0  0  0
   27.4673  -15.0826  -17.8233 C   0  0  0  0  0  0  0  0  0  0  0  0
   26.7063  -16.0211  -18.4993 C   0  0  0  0  0  0  0  0  0  0  0  0
   26.0507  -17.0035  -17.8109 C   0  0  0  0  0  0  0  0  0  0  0  0
   26.1484  -17.0578  -16.4450 C   0  0  0  0  0  0  0  0  0  0  0  0
   25.4092  -18.1537  -15.7247 C   0  0  0  0  0  0  0  0  0  0  0  0
   26.4909  -19.1079  -15.2000 C   0  0  2  0  0  0  0  0  0  0  0  0
   27.0530  -19.8374  -16.3095 N   0  0  0  0  0  0  0  0  0  0  0  0
   25.7694  -20.1015  -14.3196 C   0  0  0  0  0  0  0  0  0  0  0  0
   25.2957  -21.1035  -14.8990 O   0  0  0  0  0  0  0  0  0  0  0  0
   26.9056  -16.1233  -15.7785 C   0  0  0  0  0  0  0  0  0  0  0  0
   27.5679  -15.1328  -16.4593 C   0  0  0  0  0  0  0  0  0  0  0  0
   29.7734  -21.1359   -9.3292 C   0  0  0  0  0  0  0  0  0  0  0  0
   27.9576  -21.1117   -9.1618 S   0  0  0  0  0  0  0  0  0  0  0  0
   27.2021  -21.0067  -10.8226 C   0  0  0  0  0  0  0  0  0  0  0  0
   25.7091  -20.8992  -10.6804 C   0  0  0  0  0  0  0  0  0  0  0  0
   24.9875  -20.7203  -11.9960 C   0  0  2  0  0  0  0  0  0  0  0  0
   25.6573  -19.8784  -12.9308 N   0  0  0  0  0  0  0  0  0  0  0  0
   23.5535  -20.5281  -11.9025 C   0  0  0  0  0  0  0  0  0  0  0  0
   22.9461  -19.7896  -11.1135 O   0  0  0  0  0  0  0  0  0  0  0  0
   22.7148  -21.2663  -12.8184 N   0  0  0  0  0  0  0  0  0  0  0  0
   21.3056  -21.1052  -12.8731 C   0  0  1  0  0  0  0  0  0  0  0  0
   20.7192  -20.8494  -14.2065 C   0  0  0  0  0  0  0  0  0  0  0  0
   20.7801  -19.4216  -14.5919 C   0  0  0  0  0  0  0  0  0  0  0  0
   21.2439  -18.5248  -13.8537 O   0  0  0  0  0  0  0  0  0  0  0  0
   20.6229  -22.3088  -12.2786 C   0  0  0  0  0  0  0  0  0  0  0  0
   21.3312  -23.4876  -12.0617 O   0  0  0  0  0  0  0  0  0  0  0  0
   20.2995  -19.0521  -15.8353 O   0  0  0  0  0  0  0  0  0  0  0  0
   19.4034  -22.2329  -11.9809 O   0  0  0  0  0  0  0  0  0  0  0  0
  2  1  1  0
  3  2  2  0
  4  3  1  0
  5 11  1  0
  5  4  2  0
  6  5  1  0
  7  9  1  0
  7  6  1  0
  7  8  1  6
  9 10  2  0
 11 12  2  0
 12  2  1  0
 14 15  1  0
 14 13  1  0
 17 16  1  1
 16 15  1  0
 18 17  1  0
 18  9  1  0
 19 17  1  0
 20 19  2  0
 21 19  1  0
 22 23  1  6
 22 21  1  0
 23 24  1  0
 24 25  2  0
 24 28  1  0
 26 27  1  0
 26 22  1  0
 29 26  2  0
M  END
$$$$
