YMD.pdb
     RDKit          3D

 29 29  0  0  1  0  0  0  0  0999 V2000
   17.2783  -14.7139  -21.7183 O   0  0  0  0  0  0  0  0  0  0  0  0
   17.8596  -13.8597  -20.7881 C   0  0  0  0  0  0  0  0  0  0  0  0
   17.4397  -13.9041  -19.4695 C   0  0  0  0  0  0  0  0  0  0  0  0
   17.9982  -13.0728  -18.5390 C   0  0  0  0  0  0  0  0  0  0  0  0
   18.9784  -12.1919  -18.9153 C   0  0  0  0  0  0  0  0  0  0  0  0
   19.5656  -11.2924  -17.8606 C   0  0  0  0  0  0  0  0  0  0  0  0
   20.8621  -11.9772  -17.4068 C   0  0  2  0  0  0  0  0  0  0  0  0
   20.5302  -13.1667  -16.6624 N   0  0  0  0  0  0  0  0  0  0  0  0
   21.5235  -11.0113  -16.4516 C   0  0  0  0  0  0  0  0  0  0  0  0
   21.0941  -11.0221  -15.2770 O   0  0  0  0  0  0  0  0  0  0  0  0
   19.3918  -12.1518  -20.2262 C   0  0  0  0  0  0  0  0  0  0  0  0
   18.8381  -12.9816  -21.1685 C   0  0  0  0  0  0  0  0  0  0  0  0
   27.3252  -12.8045  -14.9998 C   0  0  0  0  0  0  0  0  0  0  0  0
   26.9205  -11.1160  -15.5576 S   0  0  0  0  0  0  0  0  0  0  0  0
   25.1057  -10.9002  -15.5529 C   0  0  0  0  0  0  0  0  0  0  0  0
   24.7726   -9.5064  -16.0082 C   0  0  0  0  0  0  0  0  0  0  0  0
   23.2884   -9.2363  -16.0931 C   0  0  2  0  0  0  0  0  0  0  0  0
   22.5610  -10.1635  -16.8946 N   0  0  0  0  0  0  0  0  0  0  0  0
   22.9134   -7.8453  -16.2565 C   0  0  0  0  0  0  0  0  0  0  0  0
   22.6167   -7.2681  -17.3128 O   0  0  0  0  0  0  0  0  0  0  0  0
   22.8724   -7.0163  -15.0741 N   0  0  0  0  0  0  0  0  0  0  0  0
   22.3475   -5.6975  -15.0755 C   0  0  1  0  0  0  0  0  0  0  0  0
   20.9531   -5.5397  -15.5424 C   0  0  0  0  0  0  0  0  0  0  0  0
   20.4812   -4.1389  -15.4662 C   0  0  0  0  0  0  0  0  0  0  0  0
   21.2429   -3.1483  -15.5186 O   0  0  0  0  0  0  0  0  0  0  0  0
   22.4573   -5.0945  -13.6998 C   0  0  0  0  0  0  0  0  0  0  0  0
   22.9374   -5.8500  -12.6334 O   0  0  0  0  0  0  0  0  0  0  0  0
   19.1246   -3.9056  -15.3294 O   0  0  0  0  0  0  0  0  0  0  0  0
   22.1087   -3.8983  -13.5288 O   0  0  0  0  0  0  0  0  0  0  0  0
  2  1  1  0
  3  2  2  0
  4  3  1  0
  5 11  1  0
  5  4  2  0
  6  5  1  0
  7  9  1  0
  7  6  1  0
  7  8  1  1
  9 10  2  0
 11 12  2  0
 12  2  1  0
 14 15  1  0
 14 13  1  0
 17 16  1  6
 16 15  1  0
 18 17  1  0
 18  9  1  0
 19 17  1  0
 20 19  2  0
 21 19  1  0
 22 23  1  1
 22 21  1  0
 23 24  1  0
 24 25  2  0
 24 28  1  0
 26 27  1  0
 26 22  1  0
 29 26  2  0
M  END
$$$$
