YMD.pdb
     RDKit          3D

 29 29  0  0  1  0  0  0  0  0999 V2000
   19.8077  -11.7177  -25.3726 O   0  0  0  0  0  0  0  0  0  0  0  0
   19.9403  -11.2366  -24.0750 C   0  0  0  0  0  0  0  0  0  0  0  0
   18.8686  -11.3287  -23.2033 C   0  0  0  0  0  0  0  0  0  0  0  0
   18.9781  -10.8619  -21.9231 C   0  0  0  0  0  0  0  0  0  0  0  0
   20.1553  -10.3004  -21.5024 C   0  0  0  0  0  0  0  0  0  0  0  0
   20.2337   -9.7965  -20.0860 C   0  0  0  0  0  0  0  0  0  0  0  0
   20.9635  -10.8917  -19.2963 C   0  0  2  0  0  0  0  0  0  0  0  0
   20.0677  -12.0038  -19.0964 N   0  0  0  0  0  0  0  0  0  0  0  0
   21.2569  -10.2932  -17.9403 C   0  0  0  0  0  0  0  0  0  0  0  0
   20.2639  -10.0710  -17.2133 O   0  0  0  0  0  0  0  0  0  0  0  0
   21.2168  -10.2114  -22.3721 C   0  0  0  0  0  0  0  0  0  0  0  0
   21.1180  -10.6766  -23.6593 C   0  0  0  0  0  0  0  0  0  0  0  0
   26.6049  -11.0404  -14.3628 C   0  0  0  0  0  0  0  0  0  0  0  0
   27.0252   -9.7533  -15.5845 S   0  0  0  0  0  0  0  0  0  0  0  0
   25.4850   -9.0103  -16.2290 C   0  0  0  0  0  0  0  0  0  0  0  0
   24.3132   -9.8460  -15.7935 C   0  0  0  0  0  0  0  0  0  0  0  0
   22.9910   -9.3696  -16.3485 C   0  0  2  0  0  0  0  0  0  0  0  0
   22.5849  -10.0157  -17.5522 N   0  0  0  0  0  0  0  0  0  0  0  0
   22.7751   -7.9364  -16.3088 C   0  0  0  0  0  0  0  0  0  0  0  0
   23.0879   -7.1071  -17.1755 O   0  0  0  0  0  0  0  0  0  0  0  0
   22.1253   -7.3862  -15.1418 N   0  0  0  0  0  0  0  0  0  0  0  0
   21.7782   -6.0145  -15.0279 C   0  0  1  0  0  0  0  0  0  0  0  0
   20.3674   -5.6633  -15.2988 C   0  0  0  0  0  0  0  0  0  0  0  0
   20.1180   -4.2062  -15.2241 C   0  0  0  0  0  0  0  0  0  0  0  0
   20.4022   -3.5058  -14.2277 O   0  0  0  0  0  0  0  0  0  0  0  0
   22.1399   -5.5002  -13.6595 C   0  0  0  0  0  0  0  0  0  0  0  0
   22.7010   -4.2353  -13.5056 O   0  0  0  0  0  0  0  0  0  0  0  0
   19.5392   -3.5786  -16.3125 O   0  0  0  0  0  0  0  0  0  0  0  0
   21.9277   -6.2306  -12.6579 O   0  0  0  0  0  0  0  0  0  0  0  0
  2  1  1  0
  3  2  2  0
  4  3  1  0
  5 11  1  0
  5  4  2  0
  6  5  1  0
  7  9  1  0
  7  6  1  0
  7  8  1  1
  9 10  2  0
 11 12  2  0
 12  2  1  0
 14 15  1  0
 14 13  1  0
 17 16  1  6
 16 15  1  0
 18 17  1  0
 18  9  1  0
 19 17  1  0
 20 19  2  0
 21 19  1  0
 22 23  1  1
 22 21  1  0
 23 24  1  0
 24 25  2  0
 24 28  1  0
 26 27  1  0
 26 22  1  0
 29 26  2  0
M  END
$$$$
