YMD.pdb
     RDKit          3D

 29 29  0  0  1  0  0  0  0  0999 V2000
   15.7744  -12.2588  -24.1141 O   0  0  0  0  0  0  0  0  0  0  0  0
   16.3906  -11.8342  -22.9424 C   0  0  0  0  0  0  0  0  0  0  0  0
   15.6306  -11.2295  -21.9557 C   0  0  0  0  0  0  0  0  0  0  0  0
   16.2169  -10.8048  -20.7960 C   0  0  0  0  0  0  0  0  0  0  0  0
   17.5636  -10.9794  -20.6113 C   0  0  0  0  0  0  0  0  0  0  0  0
   18.1705  -10.4955  -19.3213 C   0  0  0  0  0  0  0  0  0  0  0  0
   19.2767  -11.5033  -18.9801 C   0  0  2  0  0  0  0  0  0  0  0  0
   18.6740  -12.7045  -18.4575 N   0  0  0  0  0  0  0  0  0  0  0  0
   20.0767  -10.8720  -17.8645 C   0  0  0  0  0  0  0  0  0  0  0  0
   19.6059  -10.9999  -16.7129 O   0  0  0  0  0  0  0  0  0  0  0  0
   18.3138  -11.5806  -21.5944 C   0  0  0  0  0  0  0  0  0  0  0  0
   17.7358  -12.0107  -22.7624 C   0  0  0  0  0  0  0  0  0  0  0  0
   26.9657  -10.2122  -14.5540 C   0  0  0  0  0  0  0  0  0  0  0  0
   25.9650  -10.7311  -15.9876 S   0  0  0  0  0  0  0  0  0  0  0  0
   24.3751   -9.8302  -15.9685 C   0  0  0  0  0  0  0  0  0  0  0  0
   23.5142  -10.3231  -17.0986 C   0  0  0  0  0  0  0  0  0  0  0  0
   22.1726   -9.6329  -17.1824 C   0  0  2  0  0  0  0  0  0  0  0  0
   21.2786  -10.1875  -18.1438 N   0  0  0  0  0  0  0  0  0  0  0  0
   22.2094   -8.1844  -17.1307 C   0  0  0  0  0  0  0  0  0  0  0  0
   22.4534   -7.4070  -18.0650 O   0  0  0  0  0  0  0  0  0  0  0  0
   21.9349   -7.5495  -15.8624 N   0  0  0  0  0  0  0  0  0  0  0  0
   21.8946   -6.1401  -15.6990 C   0  0  1  0  0  0  0  0  0  0  0  0
   20.9389   -5.6158  -14.6995 C   0  0  0  0  0  0  0  0  0  0  0  0
   20.9774   -4.1400  -14.5929 C   0  0  0  0  0  0  0  0  0  0  0  0
   21.5065   -3.5288  -13.6386 O   0  0  0  0  0  0  0  0  0  0  0  0
   23.2664   -5.6180  -15.3618 C   0  0  0  0  0  0  0  0  0  0  0  0
   23.6341   -4.3210  -15.7098 O   0  0  0  0  0  0  0  0  0  0  0  0
   20.3983   -3.3898  -15.6006 O   0  0  0  0  0  0  0  0  0  0  0  0
   24.0748   -6.3713  -14.7612 O   0  0  0  0  0  0  0  0  0  0  0  0
  2  1  1  0
  3  2  2  0
  4  3  1  0
  5 11  1  0
  5  4  2  0
  6  5  1  0
  7  9  1  0
  7  6  1  0
  7  8  1  1
  9 10  2  0
 11 12  2  0
 12  2  1  0
 14 15  1  0
 14 13  1  0
 17 16  1  6
 16 15  1  0
 18 17  1  0
 18  9  1  0
 19 17  1  0
 20 19  2  0
 21 19  1  0
 22 23  1  1
 22 21  1  0
 23 24  1  0
 24 25  2  0
 24 28  1  0
 26 27  1  0
 26 22  1  0
 29 26  2  0
M  END
$$$$
