YMD.pdb
     RDKit          3D

 29 29  0  0  1  0  0  0  0  0999 V2000
   20.0825  -14.2705  -15.8272 O   0  0  0  0  0  0  0  0  0  0  0  0
   19.1136  -13.2739  -15.7962 C   0  0  0  0  0  0  0  0  0  0  0  0
   19.4902  -11.9681  -15.5315 C   0  0  0  0  0  0  0  0  0  0  0  0
   18.5534  -10.9732  -15.4966 C   0  0  0  0  0  0  0  0  0  0  0  0
   17.2355  -11.2719  -15.7249 C   0  0  0  0  0  0  0  0  0  0  0  0
   16.2352  -10.1478  -15.6750 C   0  0  0  0  0  0  0  0  0  0  0  0
   15.7515  -10.0879  -14.2196 C   0  0  2  0  0  0  0  0  0  0  0  0
   14.9689  -11.2651  -13.9351 N   0  0  0  0  0  0  0  0  0  0  0  0
   14.8262   -8.8959  -14.1437 C   0  0  0  0  0  0  0  0  0  0  0  0
   13.6804   -9.0610  -14.6171 O   0  0  0  0  0  0  0  0  0  0  0  0
   16.8667  -12.5704  -15.9874 C   0  0  0  0  0  0  0  0  0  0  0  0
   17.7987  -13.5770  -16.0248 C   0  0  0  0  0  0  0  0  0  0  0  0
   11.5910   -7.7829   -8.8799 C   0  0  0  0  0  0  0  0  0  0  0  0
   11.5182   -7.1512  -10.5891 S   0  0  0  0  0  0  0  0  0  0  0  0
   13.1660   -7.3169  -11.3620 C   0  0  0  0  0  0  0  0  0  0  0  0
   13.1119   -6.7725  -12.7626 C   0  0  0  0  0  0  0  0  0  0  0  0
   14.4738   -6.5162  -13.3649 C   0  0  2  0  0  0  0  0  0  0  0  0
   15.2638   -7.6853  -13.5657 N   0  0  0  0  0  0  0  0  0  0  0  0
   15.1854   -5.3679  -12.8382 C   0  0  0  0  0  0  0  0  0  0  0  0
   16.0471   -5.3644  -11.9470 O   0  0  0  0  0  0  0  0  0  0  0  0
   14.8761   -4.0714  -13.3953 N   0  0  0  0  0  0  0  0  0  0  0  0
   15.5932   -2.8950  -13.0537 C   0  0  1  0  0  0  0  0  0  0  0  0
   16.0070   -2.0224  -14.1738 C   0  0  0  0  0  0  0  0  0  0  0  0
   16.7239   -0.8104  -13.7178 C   0  0  0  0  0  0  0  0  0  0  0  0
   16.9860   -0.5717  -12.5184 O   0  0  0  0  0  0  0  0  0  0  0  0
   14.7980   -2.0681  -12.0781 C   0  0  0  0  0  0  0  0  0  0  0  0
   13.4955   -2.4286  -11.7435 O   0  0  0  0  0  0  0  0  0  0  0  0
   17.1290    0.1128  -14.6649 O   0  0  0  0  0  0  0  0  0  0  0  0
   15.3282   -1.0470  -11.5702 O   0  0  0  0  0  0  0  0  0  0  0  0
  2  1  1  0
  3  2  2  0
  4  3  1  0
  5 11  1  0
  5  4  2  0
  6  5  1  0
  7  9  1  0
  7  6  1  0
  7  8  1  6
  9 10  2  0
 11 12  2  0
 12  2  1  0
 14 15  1  0
 14 13  1  0
 17 16  1  1
 16 15  1  0
 18 17  1  0
 18  9  1  0
 19 17  1  0
 20 19  2  0
 21 19  1  0
 22 23  1  6
 22 21  1  0
 23 24  1  0
 24 25  2  0
 24 28  1  0
 26 27  1  0
 26 22  1  0
 29 26  2  0
M  END
$$$$
