VMN.pdb
     RDKit          3D

 24 23  0  0  1  0  0  0  0  0999 V2000
   28.8302  -20.8984  -16.6979 C   0  0  0  0  0  0  0  0  0  0  0  0
   28.5622  -19.5874  -15.9746 C   0  0  2  0  0  0  0  0  0  0  0  0
   29.1725  -19.7527  -14.5829 C   0  0  0  0  0  0  0  0  0  0  0  0
   27.0932  -19.3655  -15.7820 C   0  0  2  0  0  0  0  0  0  0  0  0
   26.8920  -17.9773  -15.4131 N   0  0  0  0  0  0  0  0  0  0  0  0
   26.5133  -20.2559  -14.7413 C   0  0  0  0  0  0  0  0  0  0  0  0
   26.3957  -21.4833  -14.9795 O   0  0  0  0  0  0  0  0  0  0  0  0
   27.1939  -20.7205   -8.0618 C   0  0  0  0  0  0  0  0  0  0  0  0
   25.4528  -20.3230   -8.4286 S   0  0  0  0  0  0  0  0  0  0  0  0
   24.9842  -20.9959  -10.0639 C   0  0  0  0  0  0  0  0  0  0  0  0
   25.6868  -20.0987  -11.0917 C   0  0  0  0  0  0  0  0  0  0  0  0
   25.3713  -20.5864  -12.5116 C   0  0  2  0  0  0  0  0  0  0  0  0
   26.0844  -19.7766  -13.4844 N   0  0  0  0  0  0  0  0  0  0  0  0
   23.9041  -20.4820  -12.6874 C   0  0  0  0  0  0  0  0  0  0  0  0
   23.3864  -19.3465  -12.8293 O   0  0  0  0  0  0  0  0  0  0  0  0
   19.0885  -22.7520  -15.1097 N   0  0  0  0  0  0  0  0  0  0  0  0
   19.5817  -22.7138  -13.7816 C   0  0  0  0  0  0  0  0  0  0  0  0
   18.7567  -22.5852  -12.8471 O   0  0  0  0  0  0  0  0  0  0  0  0
   21.0154  -22.8193  -13.4740 C   0  0  0  0  0  0  0  0  0  0  0  0
   21.6501  -21.5281  -13.0914 C   0  0  2  0  0  0  0  0  0  0  0  0
   23.0259  -21.6070  -12.7063 N   0  0  0  0  0  0  0  0  0  0  0  0
   20.8620  -20.9439  -11.9558 C   0  0  0  0  0  0  0  0  0  0  0  0
   21.2561  -21.0874  -10.7711 O   0  0  0  0  0  0  0  0  0  0  0  0
   19.6866  -20.2332  -12.1558 O   0  0  0  0  0  0  0  0  0  0  0  0
  2  1  1  6
  2  3  1  0
  4  2  1  0
  4  6  1  0
  4  5  1  1
  6 13  1  0
  6  7  2  0
  9  8  1  0
 10  9  1  0
 11 10  1  0
 12 11  1  1
 13 12  1  0
 14 12  1  0
 14 15  2  0
 16 17  1  0
 17 19  1  0
 18 17  2  0
 20 19  1  1
 20 21  1  0
 21 14  1  0
 22 20  1  0
 23 22  2  0
 24 22  1  0
M  END
$$$$
