VMN.pdb
     RDKit          3D

 24 23  0  0  1  0  0  0  0  0999 V2000
   29.2462  -19.4858  -14.3532 C   0  0  0  0  0  0  0  0  0  0  0  0
   28.3694  -19.6667  -15.5829 C   0  0  2  0  0  0  0  0  0  0  0  0
   28.6769  -18.4731  -16.4870 C   0  0  0  0  0  0  0  0  0  0  0  0
   26.9161  -19.5815  -15.2292 C   0  0  2  0  0  0  0  0  0  0  0  0
   26.6082  -18.1985  -14.9194 N   0  0  0  0  0  0  0  0  0  0  0  0
   26.5574  -20.4512  -14.0772 C   0  0  0  0  0  0  0  0  0  0  0  0
   26.5208  -21.6964  -14.2358 O   0  0  0  0  0  0  0  0  0  0  0  0
   28.0459  -20.6758   -7.6772 C   0  0  0  0  0  0  0  0  0  0  0  0
   26.2517  -20.3524   -7.6926 S   0  0  0  0  0  0  0  0  0  0  0  0
   25.5089  -20.9964   -9.2354 C   0  0  0  0  0  0  0  0  0  0  0  0
   26.2063  -20.2378  -10.3725 C   0  0  0  0  0  0  0  0  0  0  0  0
   25.6698  -20.7196  -11.7266 C   0  0  2  0  0  0  0  0  0  0  0  0
   26.2525  -19.9327  -12.7998 N   0  0  0  0  0  0  0  0  0  0  0  0
   24.1963  -20.5741  -11.6832 C   0  0  0  0  0  0  0  0  0  0  0  0
   23.6972  -19.6123  -11.0480 O   0  0  0  0  0  0  0  0  0  0  0  0
   19.9929  -20.6773  -15.1662 N   0  0  0  0  0  0  0  0  0  0  0  0
   21.3361  -20.2660  -14.9789 C   0  0  0  0  0  0  0  0  0  0  0  0
   22.0760  -20.1828  -15.9869 O   0  0  0  0  0  0  0  0  0  0  0  0
   21.8784  -19.9388  -13.6522 C   0  0  0  0  0  0  0  0  0  0  0  0
   21.9687  -21.1039  -12.7298 C   0  0  2  0  0  0  0  0  0  0  0  0
   23.2917  -21.4710  -12.3271 N   0  0  0  0  0  0  0  0  0  0  0  0
   21.3241  -22.2791  -13.4045 C   0  0  0  0  0  0  0  0  0  0  0  0
   20.0810  -22.3007  -13.5885 O   0  0  0  0  0  0  0  0  0  0  0  0
   22.0540  -23.3734  -13.8476 O   0  0  0  0  0  0  0  0  0  0  0  0
  2  1  1  1
  2  3  1  0
  4  2  1  0
  4  6  1  0
  4  5  1  1
  6 13  1  0
  6  7  2  0
  9  8  1  0
 10  9  1  0
 11 10  1  0
 12 11  1  1
 13 12  1  0
 14 12  1  0
 14 15  2  0
 16 17  1  0
 17 19  1  0
 18 17  2  0
 20 19  1  6
 20 21  1  0
 21 14  1  0
 22 20  1  0
 23 22  2  0
 24 22  1  0
M  END
$$$$
