VMN.pdb
     RDKit          3D

 24 23  0  0  1  0  0  0  0  0999 V2000
   21.4815  -14.0837  -16.3697 C   0  0  0  0  0  0  0  0  0  0  0  0
   20.1926  -13.3989  -16.7980 C   0  0  2  0  0  0  0  0  0  0  0  0
   19.6582  -14.2228  -17.9694 C   0  0  0  0  0  0  0  0  0  0  0  0
   20.4593  -12.0208  -17.3212 C   0  0  2  0  0  0  0  0  0  0  0  0
   21.2826  -12.1416  -18.5092 N   0  0  0  0  0  0  0  0  0  0  0  0
   21.1361  -11.1520  -16.3215 C   0  0  0  0  0  0  0  0  0  0  0  0
   20.5728  -10.9275  -15.2218 O   0  0  0  0  0  0  0  0  0  0  0  0
   27.0764  -11.2521  -17.4993 C   0  0  0  0  0  0  0  0  0  0  0  0
   26.9007  -11.0409  -15.6969 S   0  0  0  0  0  0  0  0  0  0  0  0
   25.1307  -11.0147  -15.2354 C   0  0  0  0  0  0  0  0  0  0  0  0
   24.5730   -9.7136  -15.8279 C   0  0  0  0  0  0  0  0  0  0  0  0
   23.0530   -9.6590  -15.6275 C   0  0  2  0  0  0  0  0  0  0  0  0
   22.3970  -10.5621  -16.5574 N   0  0  0  0  0  0  0  0  0  0  0  0
   22.6388   -8.2542  -15.8495 C   0  0  0  0  0  0  0  0  0  0  0  0
   22.4197   -7.8613  -17.0222 O   0  0  0  0  0  0  0  0  0  0  0  0
   19.0771   -4.2089  -16.6856 N   0  0  0  0  0  0  0  0  0  0  0  0
   20.1442   -4.5027  -15.8005 C   0  0  0  0  0  0  0  0  0  0  0  0
   20.7160   -3.5477  -15.2248 O   0  0  0  0  0  0  0  0  0  0  0  0
   20.5930   -5.8787  -15.5425 C   0  0  0  0  0  0  0  0  0  0  0  0
   21.9796   -5.9743  -15.0093 C   0  0  2  0  0  0  0  0  0  0  0  0
   22.4699   -7.3021  -14.7996 N   0  0  0  0  0  0  0  0  0  0  0  0
   22.0270   -5.2292  -13.7075 C   0  0  0  0  0  0  0  0  0  0  0  0
   21.9413   -5.8504  -12.6184 O   0  0  0  0  0  0  0  0  0  0  0  0
   22.1646   -3.8494  -13.6462 O   0  0  0  0  0  0  0  0  0  0  0  0
  2  1  1  6
  2  3  1  0
  4  2  1  0
  4  6  1  0
  4  5  1  6
  6 13  1  0
  6  7  2  0
  9  8  1  0
 10  9  1  0
 11 10  1  0
 12 11  1  6
 13 12  1  0
 14 12  1  0
 14 15  2  0
 16 17  1  0
 17 19  1  0
 18 17  2  0
 20 19  1  1
 20 21  1  0
 21 14  1  0
 22 20  1  0
 23 22  2  0
 24 22  1  0
M  END
$$$$
