VMN.pdb
     RDKit          3D

 24 23  0  0  1  0  0  0  0  0999 V2000
   26.2265  -20.9162   -8.8996 C   0  0  0  0  0  0  0  0  0  0  0  0
   24.9632  -20.4026   -9.5735 C   0  0  2  0  0  0  0  0  0  0  0  0
   23.8075  -21.1430   -8.9006 C   0  0  0  0  0  0  0  0  0  0  0  0
   24.9332  -20.7758  -11.0240 C   0  0  2  0  0  0  0  0  0  0  0  0
   24.9867  -22.2221  -11.1183 N   0  0  0  0  0  0  0  0  0  0  0  0
   26.0573  -20.1757  -11.7910 C   0  0  0  0  0  0  0  0  0  0  0  0
   26.0915  -18.9315  -11.9582 O   0  0  0  0  0  0  0  0  0  0  0  0
   32.3514  -21.9587   -9.8746 C   0  0  0  0  0  0  0  0  0  0  0  0
   31.4963  -22.1630  -11.4717 S   0  0  0  0  0  0  0  0  0  0  0  0
   30.0401  -21.0586  -11.5523 C   0  0  0  0  0  0  0  0  0  0  0  0
   29.4479  -21.2646  -12.9530 C   0  0  0  0  0  0  0  0  0  0  0  0
   28.1941  -20.3968  -13.1216 C   0  0  2  0  0  0  0  0  0  0  0  0
   27.0985  -20.9517  -12.3455 N   0  0  0  0  0  0  0  0  0  0  0  0
   27.8782  -20.3720  -14.5687 C   0  0  0  0  0  0  0  0  0  0  0  0
   27.2142  -21.3162  -15.0639 O   0  0  0  0  0  0  0  0  0  0  0  0
   25.7545  -17.3438  -18.8902 N   0  0  0  0  0  0  0  0  0  0  0  0
   27.1171  -17.4893  -18.5287 C   0  0  0  0  0  0  0  0  0  0  0  0
   27.9782  -17.4529  -19.4384 O   0  0  0  0  0  0  0  0  0  0  0  0
   27.5426  -17.6793  -17.1343 C   0  0  0  0  0  0  0  0  0  0  0  0
   27.6987  -19.1056  -16.7371 C   0  0  2  0  0  0  0  0  0  0  0  0
   28.2863  -19.3272  -15.4514 N   0  0  0  0  0  0  0  0  0  0  0  0
   28.5390  -19.7862  -17.7776 C   0  0  0  0  0  0  0  0  0  0  0  0
   29.7727  -19.9409  -17.5939 O   0  0  0  0  0  0  0  0  0  0  0  0
   28.0055  -20.2663  -18.9656 O   0  0  0  0  0  0  0  0  0  0  0  0
  2  1  1  1
  2  3  1  0
  4  2  1  0
  4  6  1  0
  4  5  1  1
  6 13  1  0
  6  7  2  0
  9  8  1  0
 10  9  1  0
 11 10  1  0
 12 11  1  6
 13 12  1  0
 14 12  1  0
 14 15  2  0
 16 17  1  0
 17 19  1  0
 18 17  2  0
 20 19  1  6
 20 21  1  0
 21 14  1  0
 22 20  1  0
 23 22  2  0
 24 22  1  0
M  END
$$$$
