VMN.pdb
     RDKit          3D

 24 23  0  0  1  0  0  0  0  0999 V2000
   29.1983  -19.4504  -13.7121 C   0  0  0  0  0  0  0  0  0  0  0  0
   28.5168  -19.9149  -14.9902 C   0  0  2  0  0  0  0  0  0  0  0  0
   28.8325  -18.8466  -16.0369 C   0  0  0  0  0  0  0  0  0  0  0  0
   27.0274  -19.9414  -14.8310 C   0  0  2  0  0  0  0  0  0  0  0  0
   26.5633  -18.5728  -14.7074 N   0  0  0  0  0  0  0  0  0  0  0  0
   26.5939  -20.7325  -13.6485 C   0  0  0  0  0  0  0  0  0  0  0  0
   26.5608  -21.9855  -13.7267 O   0  0  0  0  0  0  0  0  0  0  0  0
   27.7638  -20.2111   -7.5760 C   0  0  0  0  0  0  0  0  0  0  0  0
   25.9719  -20.4429   -7.3325 S   0  0  0  0  0  0  0  0  0  0  0  0
   25.1949  -21.0209   -8.8845 C   0  0  0  0  0  0  0  0  0  0  0  0
   25.8919  -20.2393  -10.0063 C   0  0  0  0  0  0  0  0  0  0  0  0
   25.5070  -20.8287  -11.3693 C   0  0  2  0  0  0  0  0  0  0  0  0
   26.2135  -20.1303  -12.4294 N   0  0  0  0  0  0  0  0  0  0  0  0
   24.0393  -20.6808  -11.5043 C   0  0  0  0  0  0  0  0  0  0  0  0
   23.4140  -20.0029  -10.6516 O   0  0  0  0  0  0  0  0  0  0  0  0
   22.7190  -19.1509  -15.9062 N   0  0  0  0  0  0  0  0  0  0  0  0
   22.0689  -19.3220  -14.6586 C   0  0  0  0  0  0  0  0  0  0  0  0
   21.9308  -18.3189  -13.9203 O   0  0  0  0  0  0  0  0  0  0  0  0
   21.5587  -20.6267  -14.2125 C   0  0  0  0  0  0  0  0  0  0  0  0
   21.9008  -20.9618  -12.8029 C   0  0  2  0  0  0  0  0  0  0  0  0
   23.2768  -21.2686  -12.5580 N   0  0  0  0  0  0  0  0  0  0  0  0
   21.0619  -22.1353  -12.3897 C   0  0  0  0  0  0  0  0  0  0  0  0
   21.4812  -23.3071  -12.5649 O   0  0  0  0  0  0  0  0  0  0  0  0
   19.8108  -21.9856  -11.8074 O   0  0  0  0  0  0  0  0  0  0  0  0
  2  1  1  1
  2  3  1  0
  4  2  1  0
  4  6  1  0
  4  5  1  1
  6 13  1  0
  6  7  2  0
  9  8  1  0
 10  9  1  0
 11 10  1  0
 12 11  1  1
 13 12  1  0
 14 12  1  0
 14 15  2  0
 16 17  1  0
 17 19  1  0
 18 17  2  0
 20 19  1  6
 20 21  1  0
 21 14  1  0
 22 20  1  0
 23 22  2  0
 24 22  1  0
M  END
$$$$
