VMN.pdb
     RDKit          3D

 24 23  0  0  1  0  0  0  0  0999 V2000
   29.0080  -21.0698  -14.5530 C   0  0  0  0  0  0  0  0  0  0  0  0
   28.5046  -19.7990  -15.2205 C   0  0  2  0  0  0  0  0  0  0  0  0
   28.5417  -18.7221  -14.1363 C   0  0  0  0  0  0  0  0  0  0  0  0
   27.0748  -19.9401  -15.6449 C   0  0  2  0  0  0  0  0  0  0  0  0
   26.4989  -18.6120  -15.7357 N   0  0  0  0  0  0  0  0  0  0  0  0
   26.2800  -20.7742  -14.7044 C   0  0  0  0  0  0  0  0  0  0  0  0
   26.3394  -22.0256  -14.7930 O   0  0  0  0  0  0  0  0  0  0  0  0
   24.3750  -20.6921   -8.2925 C   0  0  0  0  0  0  0  0  0  0  0  0
   26.0151  -20.3769   -9.0236 S   0  0  0  0  0  0  0  0  0  0  0  0
   26.0541  -20.9588  -10.7576 C   0  0  0  0  0  0  0  0  0  0  0  0
   24.7376  -20.4753  -11.3807 C   0  0  0  0  0  0  0  0  0  0  0  0
   24.6160  -21.0019  -12.8164 C   0  0  2  0  0  0  0  0  0  0  0  0
   25.4528  -20.2151  -13.7061 N   0  0  0  0  0  0  0  0  0  0  0  0
   23.1857  -20.9086  -13.1904 C   0  0  0  0  0  0  0  0  0  0  0  0
   22.6871  -19.7781  -13.4159 O   0  0  0  0  0  0  0  0  0  0  0  0
   18.2864  -21.8774  -14.6917 N   0  0  0  0  0  0  0  0  0  0  0  0
   18.9759  -23.1156  -14.6871 C   0  0  0  0  0  0  0  0  0  0  0  0
   18.3793  -24.1272  -15.1244 O   0  0  0  0  0  0  0  0  0  0  0  0
   20.3534  -23.2444  -14.1898 C   0  0  0  0  0  0  0  0  0  0  0  0
   20.9724  -21.9546  -13.7778 C   0  0  2  0  0  0  0  0  0  0  0  0
   22.3230  -22.0391  -13.3130 N   0  0  0  0  0  0  0  0  0  0  0  0
   20.1231  -21.3595  -12.6932 C   0  0  0  0  0  0  0  0  0  0  0  0
   18.9636  -20.9483  -12.9500 O   0  0  0  0  0  0  0  0  0  0  0  0
   20.5680  -21.2378  -11.3840 O   0  0  0  0  0  0  0  0  0  0  0  0
  2  1  1  1
  2  3  1  0
  4  2  1  0
  4  6  1  0
  4  5  1  1
  6 13  1  0
  6  7  2  0
  9  8  1  0
 10  9  1  0
 11 10  1  0
 12 11  1  1
 13 12  1  0
 14 12  1  0
 14 15  2  0
 16 17  1  0
 17 19  1  0
 18 17  2  0
 20 19  1  1
 20 21  1  0
 21 14  1  0
 22 20  1  0
 23 22  2  0
 24 22  1  0
M  END
$$$$
