VMN.pdb
     RDKit          3D

 24 23  0  0  1  0  0  0  0  0999 V2000
   15.5188  -18.8501    2.4276 C   0  0  0  0  0  0  0  0  0  0  0  0
   16.9317  -19.0692    2.9467 C   0  0  2  0  0  0  0  0  0  0  0  0
   17.2922  -20.5051    2.5662 C   0  0  0  0  0  0  0  0  0  0  0  0
   16.9776  -18.9907    4.4421 C   0  0  2  0  0  0  0  0  0  0  0  0
   16.6070  -17.6444    4.8340 N   0  0  0  0  0  0  0  0  0  0  0  0
   18.3185  -19.3275    4.9903 C   0  0  0  0  0  0  0  0  0  0  0  0
   18.8808  -20.3903    4.6278 O   0  0  0  0  0  0  0  0  0  0  0  0
   21.7853  -15.6520    9.5360 C   0  0  0  0  0  0  0  0  0  0  0  0
   22.9736  -16.4458    8.4038 S   0  0  0  0  0  0  0  0  0  0  0  0
   22.2748  -18.0045    7.7489 C   0  0  0  0  0  0  0  0  0  0  0  0
   20.9184  -17.6212    7.1422 C   0  0  0  0  0  0  0  0  0  0  0  0
   20.2246  -18.8710    6.5852 C   0  0  2  0  0  0  0  0  0  0  0  0
   18.9939  -18.4962    5.9102 N   0  0  0  0  0  0  0  0  0  0  0  0
   19.9634  -19.7679    7.7348 C   0  0  0  0  0  0  0  0  0  0  0  0
   18.9865  -19.5266    8.4865 O   0  0  0  0  0  0  0  0  0  0  0  0
   19.3253  -25.3482    9.7189 N   0  0  0  0  0  0  0  0  0  0  0  0
   19.1761  -23.9654    9.4472 C   0  0  0  0  0  0  0  0  0  0  0  0
   18.2064  -23.3618    9.9629 O   0  0  0  0  0  0  0  0  0  0  0  0
   20.1150  -23.2290    8.5883 C   0  0  0  0  0  0  0  0  0  0  0  0
   20.4239  -21.8537    9.0672 C   0  0  2  0  0  0  0  0  0  0  0  0
   20.7633  -20.9074    8.0490 N   0  0  0  0  0  0  0  0  0  0  0  0
   21.5624  -21.9475   10.0403 C   0  0  0  0  0  0  0  0  0  0  0  0
   22.7464  -22.0205    9.6251 O   0  0  0  0  0  0  0  0  0  0  0  0
   21.3661  -21.9581   11.4143 O   0  0  0  0  0  0  0  0  0  0  0  0
  2  1  1  1
  2  3  1  0
  4  2  1  0
  4  6  1  0
  4  5  1  6
  6 13  1  0
  6  7  2  0
  9  8  1  0
 10  9  1  0
 11 10  1  0
 12 11  1  1
 13 12  1  0
 14 12  1  0
 14 15  2  0
 16 17  1  0
 17 19  1  0
 18 17  2  0
 20 19  1  6
 20 21  1  0
 21 14  1  0
 22 20  1  0
 23 22  2  0
 24 22  1  0
M  END
$$$$
