VMN.pdb
     RDKit          3D

 24 23  0  0  1  0  0  0  0  0999 V2000
   18.7643  -25.7044   -9.8208 C   0  0  0  0  0  0  0  0  0  0  0  0
   17.4406  -25.3097   -9.1839 C   0  0  2  0  0  0  0  0  0  0  0  0
   16.7476  -24.4041  -10.2018 C   0  0  0  0  0  0  0  0  0  0  0  0
   17.6570  -24.4901   -7.9487 C   0  0  2  0  0  0  0  0  0  0  0  0
   19.0836  -24.2811   -7.7910 N   0  0  0  0  0  0  0  0  0  0  0  0
   17.1015  -25.1371   -6.7300 C   0  0  0  0  0  0  0  0  0  0  0  0
   15.8643  -25.3373   -6.6508 O   0  0  0  0  0  0  0  0  0  0  0  0
   20.5969  -28.6326   -2.5018 C   0  0  0  0  0  0  0  0  0  0  0  0
   19.4636  -27.8017   -1.3403 S   0  0  0  0  0  0  0  0  0  0  0  0
   17.9936  -27.1775   -2.2326 C   0  0  0  0  0  0  0  0  0  0  0  0
   18.5436  -26.4401   -3.4609 C   0  0  0  0  0  0  0  0  0  0  0  0
   17.3886  -26.0320   -4.3844 C   0  0  2  0  0  0  0  0  0  0  0  0
   17.9127  -25.5399   -5.6469 N   0  0  0  0  0  0  0  0  0  0  0  0
   16.6152  -24.9883   -3.6724 C   0  0  0  0  0  0  0  0  0  0  0  0
   16.7782  -23.7845   -3.9916 O   0  0  0  0  0  0  0  0  0  0  0  0
   13.1822  -21.2476   -2.2399 N   0  0  0  0  0  0  0  0  0  0  0  0
   12.9905  -22.6518   -2.2361 C   0  0  0  0  0  0  0  0  0  0  0  0
   11.9999  -23.1125   -1.6222 O   0  0  0  0  0  0  0  0  0  0  0  0
   13.9096  -23.5707   -2.9233 C   0  0  0  0  0  0  0  0  0  0  0  0
   14.8624  -24.2666   -2.0156 C   0  0  2  0  0  0  0  0  0  0  0  0
   15.6811  -25.2666   -2.6296 N   0  0  0  0  0  0  0  0  0  0  0  0
   14.0692  -24.9012   -0.9110 C   0  0  0  0  0  0  0  0  0  0  0  0
   13.5650  -26.0417   -1.0674 O   0  0  0  0  0  0  0  0  0  0  0  0
   13.8595  -24.2725    0.3086 O   0  0  0  0  0  0  0  0  0  0  0  0
  2  1  1  6
  2  3  1  0
  4  2  1  0
  4  6  1  0
  4  5  1  1
  6 13  1  0
  6  7  2  0
  9  8  1  0
 10  9  1  0
 11 10  1  0
 12 11  1  1
 13 12  1  0
 14 12  1  0
 14 15  2  0
 16 17  1  0
 17 19  1  0
 18 17  2  0
 20 19  1  6
 20 21  1  0
 21 14  1  0
 22 20  1  0
 23 22  2  0
 24 22  1  0
M  END
$$$$
