VMN.pdb
     RDKit          3D

 24 23  0  0  1  0  0  0  0  0999 V2000
   28.8710  -18.8602  -14.3437 C   0  0  0  0  0  0  0  0  0  0  0  0
   27.9860  -18.9157  -15.5797 C   0  0  2  0  0  0  0  0  0  0  0  0
   28.2478  -17.6112  -16.3324 C   0  0  0  0  0  0  0  0  0  0  0  0
   26.5350  -18.9194  -15.2071 C   0  0  2  0  0  0  0  0  0  0  0  0
   26.1953  -17.6016  -14.7057 N   0  0  0  0  0  0  0  0  0  0  0  0
   26.2111  -19.9500  -14.1848 C   0  0  0  0  0  0  0  0  0  0  0  0
   26.3002  -21.1654  -14.4884 O   0  0  0  0  0  0  0  0  0  0  0  0
   26.7285  -19.1700   -7.9304 C   0  0  0  0  0  0  0  0  0  0  0  0
   26.2952  -20.9408   -7.9477 S   0  0  0  0  0  0  0  0  0  0  0  0
   25.4778  -21.3738   -9.5260 C   0  0  0  0  0  0  0  0  0  0  0  0
   25.9587  -20.3241  -10.5368 C   0  0  0  0  0  0  0  0  0  0  0  0
   25.3232  -20.5906  -11.9074 C   0  0  2  0  0  0  0  0  0  0  0  0
   25.8031  -19.6184  -12.8744 N   0  0  0  0  0  0  0  0  0  0  0  0
   23.8557  -20.5004  -11.7274 C   0  0  0  0  0  0  0  0  0  0  0  0
   23.3481  -19.3988  -11.4014 O   0  0  0  0  0  0  0  0  0  0  0  0
   19.1300  -21.1669  -13.7213 N   0  0  0  0  0  0  0  0  0  0  0  0
   20.0567  -20.0961  -13.7780 C   0  0  0  0  0  0  0  0  0  0  0  0
   19.7069  -19.0402  -14.3551 O   0  0  0  0  0  0  0  0  0  0  0  0
   21.3993  -20.1887  -13.1863 C   0  0  0  0  0  0  0  0  0  0  0  0
   21.6774  -21.4875  -12.5139 C   0  0  2  0  0  0  0  0  0  0  0  0
   22.9662  -21.6028  -11.9031 N   0  0  0  0  0  0  0  0  0  0  0  0
   21.5252  -22.5781  -13.5334 C   0  0  0  0  0  0  0  0  0  0  0  0
   22.5172  -23.2711  -13.8729 O   0  0  0  0  0  0  0  0  0  0  0  0
   20.3087  -22.8667  -14.1364 O   0  0  0  0  0  0  0  0  0  0  0  0
  2  1  1  1
  2  3  1  0
  4  2  1  0
  4  6  1  0
  4  5  1  1
  6 13  1  0
  6  7  2  0
  9  8  1  0
 10  9  1  0
 11 10  1  0
 12 11  1  1
 13 12  1  0
 14 12  1  0
 14 15  2  0
 16 17  1  0
 17 19  1  0
 18 17  2  0
 20 19  1  6
 20 21  1  0
 21 14  1  0
 22 20  1  0
 23 22  2  0
 24 22  1  0
M  END
$$$$
