VMN.pdb
     RDKit          3D

 24 23  0  0  1  0  0  0  0  0999 V2000
   29.1154  -18.7383  -14.2040 C   0  0  0  0  0  0  0  0  0  0  0  0
   28.9763  -19.5923  -15.4550 C   0  0  2  0  0  0  0  0  0  0  0  0
   29.2171  -18.6442  -16.6296 C   0  0  0  0  0  0  0  0  0  0  0  0
   27.5810  -20.1182  -15.5993 C   0  0  2  0  0  0  0  0  0  0  0  0
   26.7134  -19.0064  -15.9383 N   0  0  0  0  0  0  0  0  0  0  0  0
   27.0917  -20.7846  -14.3629 C   0  0  0  0  0  0  0  0  0  0  0  0
   27.4033  -21.9817  -14.1461 O   0  0  0  0  0  0  0  0  0  0  0  0
   27.9365  -20.2875   -8.2992 C   0  0  0  0  0  0  0  0  0  0  0  0
   26.1231  -20.0994   -8.2923 S   0  0  0  0  0  0  0  0  0  0  0  0
   25.4055  -20.8579   -9.7944 C   0  0  0  0  0  0  0  0  0  0  0  0
   26.0803  -20.1455  -10.9743 C   0  0  0  0  0  0  0  0  0  0  0  0
   25.6406  -20.7920  -12.2942 C   0  0  2  0  0  0  0  0  0  0  0  0
   26.2834  -20.1235  -13.4126 N   0  0  0  0  0  0  0  0  0  0  0  0
   24.1658  -20.6718  -12.3631 C   0  0  0  0  0  0  0  0  0  0  0  0
   23.6461  -19.5284  -12.3517 O   0  0  0  0  0  0  0  0  0  0  0  0
   19.2527  -21.6079  -13.8410 N   0  0  0  0  0  0  0  0  0  0  0  0
   19.9451  -22.8443  -13.8579 C   0  0  0  0  0  0  0  0  0  0  0  0
   19.3557  -23.8467  -14.3250 O   0  0  0  0  0  0  0  0  0  0  0  0
   21.3177  -22.9816  -13.3493 C   0  0  0  0  0  0  0  0  0  0  0  0
   21.9338  -21.6986  -12.9128 C   0  0  2  0  0  0  0  0  0  0  0  0
   23.2822  -21.7900  -12.4429 N   0  0  0  0  0  0  0  0  0  0  0  0
   21.0788  -21.1222  -11.8225 C   0  0  0  0  0  0  0  0  0  0  0  0
   19.9115  -20.7299  -12.0732 O   0  0  0  0  0  0  0  0  0  0  0  0
   21.5269  -20.9979  -10.5147 O   0  0  0  0  0  0  0  0  0  0  0  0
  2  1  1  1
  2  3  1  0
  4  2  1  0
  4  6  1  0
  4  5  1  1
  6 13  1  0
  6  7  2  0
  9  8  1  0
 10  9  1  0
 11 10  1  0
 12 11  1  1
 13 12  1  0
 14 12  1  0
 14 15  2  0
 16 17  1  0
 17 19  1  0
 18 17  2  0
 20 19  1  1
 20 21  1  0
 21 14  1  0
 22 20  1  0
 23 22  2  0
 24 22  1  0
M  END
$$$$
