VMN.pdb
     RDKit          3D

 24 23  0  0  1  0  0  0  0  0999 V2000
   28.8940  -19.0793  -13.2246 C   0  0  0  0  0  0  0  0  0  0  0  0
   28.2962  -19.7074  -14.4744 C   0  0  2  0  0  0  0  0  0  0  0  0
   28.6292  -18.7480  -15.6170 C   0  0  0  0  0  0  0  0  0  0  0  0
   26.8024  -19.7755  -14.3848 C   0  0  2  0  0  0  0  0  0  0  0  0
   26.2938  -18.4196  -14.3024 N   0  0  0  0  0  0  0  0  0  0  0  0
   26.3364  -20.5640  -13.2130 C   0  0  0  0  0  0  0  0  0  0  0  0
   26.5361  -21.8036  -13.1884 O   0  0  0  0  0  0  0  0  0  0  0  0
   27.2941  -18.7486   -7.2356 C   0  0  0  0  0  0  0  0  0  0  0  0
   26.2828  -20.2634   -7.1543 S   0  0  0  0  0  0  0  0  0  0  0  0
   26.1967  -21.0524   -8.8026 C   0  0  0  0  0  0  0  0  0  0  0  0
   25.4126  -20.0717   -9.6848 C   0  0  0  0  0  0  0  0  0  0  0  0
   25.0778  -20.7321  -11.0283 C   0  0  2  0  0  0  0  0  0  0  0  0
   25.6720  -19.9739  -12.1158 N   0  0  0  0  0  0  0  0  0  0  0  0
   23.6007  -20.7695  -11.1344 C   0  0  0  0  0  0  0  0  0  0  0  0
   22.9935  -19.7519  -11.5508 O   0  0  0  0  0  0  0  0  0  0  0  0
   18.4266  -22.4201   -9.9542 N   0  0  0  0  0  0  0  0  0  0  0  0
   19.1468  -21.2212  -10.1832 C   0  0  0  0  0  0  0  0  0  0  0  0
   18.5091  -20.2100  -10.5590 O   0  0  0  0  0  0  0  0  0  0  0  0
   20.6021  -21.1323   -9.9947 C   0  0  0  0  0  0  0  0  0  0  0  0
   21.3890  -21.9582  -10.9514 C   0  0  2  0  0  0  0  0  0  0  0  0
   22.8096  -21.9060  -10.7882 N   0  0  0  0  0  0  0  0  0  0  0  0
   21.0443  -21.5101  -12.3415 C   0  0  0  0  0  0  0  0  0  0  0  0
   21.9304  -21.0246  -13.0888 O   0  0  0  0  0  0  0  0  0  0  0  0
   19.7590  -21.6086  -12.8562 O   0  0  0  0  0  0  0  0  0  0  0  0
  2  1  1  1
  2  3  1  0
  4  2  1  0
  4  6  1  0
  4  5  1  1
  6 13  1  0
  6  7  2  0
  9  8  1  0
 10  9  1  0
 11 10  1  0
 12 11  1  1
 13 12  1  0
 14 12  1  0
 14 15  2  0
 16 17  1  0
 17 19  1  0
 18 17  2  0
 20 19  1  1
 20 21  1  0
 21 14  1  0
 22 20  1  0
 23 22  2  0
 24 22  1  0
M  END
$$$$
