VMN.pdb
     RDKit          3D

 24 23  0  0  1  0  0  0  0  0999 V2000
   16.6104  -12.1250    5.2639 C   0  0  0  0  0  0  0  0  0  0  0  0
   15.9985  -12.8726    4.0890 C   0  0  2  0  0  0  0  0  0  0  0  0
   14.5081  -12.5340    4.1168 C   0  0  0  0  0  0  0  0  0  0  0  0
   16.1114  -14.3551    4.2722 C   0  0  2  0  0  0  0  0  0  0  0  0
   14.9934  -14.7949    5.0849 N   0  0  0  0  0  0  0  0  0  0  0  0
   17.3925  -14.7549    4.9133 C   0  0  0  0  0  0  0  0  0  0  0  0
   18.4192  -14.8890    4.2025 O   0  0  0  0  0  0  0  0  0  0  0  0
   21.7363  -10.8699    7.3941 C   0  0  0  0  0  0  0  0  0  0  0  0
   20.7746  -12.1600    8.2512 S   0  0  0  0  0  0  0  0  0  0  0  0
   20.1441  -13.3818    7.0444 C   0  0  0  0  0  0  0  0  0  0  0  0
   19.2798  -14.3530    7.8596 C   0  0  0  0  0  0  0  0  0  0  0  0
   18.7252  -15.4518    6.9439 C   0  0  2  0  0  0  0  0  0  0  0  0
   17.5062  -14.9931    6.3003 N   0  0  0  0  0  0  0  0  0  0  0  0
   18.4777  -16.6386    7.7952 C   0  0  0  0  0  0  0  0  0  0  0  0
   17.4107  -16.7040    8.4545 O   0  0  0  0  0  0  0  0  0  0  0  0
   17.3257  -21.6545    6.7446 N   0  0  0  0  0  0  0  0  0  0  0  0
   17.6257  -20.5281    7.5507 C   0  0  0  0  0  0  0  0  0  0  0  0
   16.6745  -19.8212    7.9579 O   0  0  0  0  0  0  0  0  0  0  0  0
   19.0038  -20.1707    7.9173 C   0  0  0  0  0  0  0  0  0  0  0  0
   19.1163  -18.9033    8.6903 C   0  0  2  0  0  0  0  0  0  0  0  0
   19.3886  -17.7308    7.9168 N   0  0  0  0  0  0  0  0  0  0  0  0
   20.2064  -19.0769    9.7070 C   0  0  0  0  0  0  0  0  0  0  0  0
   21.4048  -18.8650    9.3934 O   0  0  0  0  0  0  0  0  0  0  0  0
   19.9483  -19.4709   11.0126 O   0  0  0  0  0  0  0  0  0  0  0  0
  2  1  1  1
  2  3  1  0
  4  2  1  0
  4  6  1  0
  4  5  1  1
  6 13  1  0
  6  7  2  0
  9  8  1  0
 10  9  1  0
 11 10  1  0
 12 11  1  1
 13 12  1  0
 14 12  1  0
 14 15  2  0
 16 17  1  0
 17 19  1  0
 18 17  2  0
 20 19  1  6
 20 21  1  0
 21 14  1  0
 22 20  1  0
 23 22  2  0
 24 22  1  0
M  END
$$$$
