VMN.pdb
     RDKit          3D

 24 23  0  0  1  0  0  0  0  0999 V2000
   25.9749  -18.9704  -15.5874 C   0  0  0  0  0  0  0  0  0  0  0  0
   27.3295  -18.9972  -14.8962 C   0  0  2  0  0  0  0  0  0  0  0  0
   28.3361  -18.5233  -15.9444 C   0  0  0  0  0  0  0  0  0  0  0  0
   27.7181  -20.3943  -14.5202 C   0  0  2  0  0  0  0  0  0  0  0  0
   27.6107  -21.2257  -15.7038 N   0  0  0  0  0  0  0  0  0  0  0  0
   26.8697  -20.9493  -13.4320 C   0  0  0  0  0  0  0  0  0  0  0  0
   25.8974  -21.6873  -13.7272 O   0  0  0  0  0  0  0  0  0  0  0  0
   26.8195  -19.0989   -6.3074 C   0  0  0  0  0  0  0  0  0  0  0  0
   26.8534  -20.7499   -7.0801 S   0  0  0  0  0  0  0  0  0  0  0  0
   25.7466  -20.7867   -8.5362 C   0  0  0  0  0  0  0  0  0  0  0  0
   26.5970  -20.2802   -9.7089 C   0  0  0  0  0  0  0  0  0  0  0  0
   26.1675  -20.9800  -11.0048 C   0  0  2  0  0  0  0  0  0  0  0  0
   27.1117  -20.6797  -12.0674 N   0  0  0  0  0  0  0  0  0  0  0  0
   24.8082  -20.4892  -11.3300 C   0  0  0  0  0  0  0  0  0  0  0  0
   24.6851  -19.4345  -12.0007 O   0  0  0  0  0  0  0  0  0  0  0  0
   19.6628  -19.7642  -11.1487 N   0  0  0  0  0  0  0  0  0  0  0  0
   20.7054  -18.8795  -11.5214 C   0  0  0  0  0  0  0  0  0  0  0  0
   20.4089  -17.6889  -11.7762 O   0  0  0  0  0  0  0  0  0  0  0  0
   22.1066  -19.3142  -11.6161 C   0  0  0  0  0  0  0  0  0  0  0  0
   22.3069  -20.7705  -11.3805 C   0  0  2  0  0  0  0  0  0  0  0  0
   23.6091  -21.1483  -10.9235 N   0  0  0  0  0  0  0  0  0  0  0  0
   22.0161  -21.4910  -12.6643 C   0  0  0  0  0  0  0  0  0  0  0  0
   21.0716  -22.3178  -12.7270 O   0  0  0  0  0  0  0  0  0  0  0  0
   22.7599  -21.2832  -13.8176 O   0  0  0  0  0  0  0  0  0  0  0  0
  2  1  1  6
  2  3  1  0
  4  2  1  0
  4  6  1  0
  4  5  1  6
  6 13  1  0
  6  7  2  0
  9  8  1  0
 10  9  1  0
 11 10  1  0
 12 11  1  1
 13 12  1  0
 14 12  1  0
 14 15  2  0
 16 17  1  0
 17 19  1  0
 18 17  2  0
 20 19  1  6
 20 21  1  0
 21 14  1  0
 22 20  1  0
 23 22  2  0
 24 22  1  0
M  END
$$$$
