IGA.pdb
     RDKit          3D

 18 17  0  0  1  0  0  0  0  0999 V2000
   21.9932  -12.6405  -17.4472 C   0  0  0  0  0  0  0  0  0  0  0  0
   21.2910  -11.8712  -16.3767 C   0  0  0  0  0  0  0  0  0  0  0  0
   22.0774  -10.7299  -15.8271 C   0  0  2  0  0  0  0  0  0  0  0  0
   23.3862  -11.1662  -15.2561 C   0  0  0  0  0  0  0  0  0  0  0  0
   21.2387   -9.9407  -14.8185 C   0  0  2  0  0  0  0  0  0  0  0  0
   20.0084   -9.6071  -15.4644 N   0  0  0  0  0  0  0  0  0  0  0  0
   21.9869   -8.7504  -14.3389 C   0  0  0  0  0  0  0  0  0  0  0  0
   22.9719   -8.9098  -13.5735 O   0  0  0  0  0  0  0  0  0  0  0  0
   21.5917   -7.4507  -14.7417 N   0  0  0  0  0  0  0  0  0  0  0  0
   22.2476   -6.2453  -14.2470 C   0  0  0  0  0  0  0  0  0  0  0  0
   21.2704   -5.1340  -14.3299 C   0  0  0  0  0  0  0  0  0  0  0  0
   20.0875   -5.3187  -14.7149 O   0  0  0  0  0  0  0  0  0  0  0  0
   21.3384   -1.4911  -13.3405 C   0  0  0  0  0  0  0  0  0  0  0  0
   20.7498   -2.6858  -14.0573 C   0  0  2  0  0  0  0  0  0  0  0  0
   21.6656   -3.7959  -13.9639 N   0  0  0  0  0  0  0  0  0  0  0  0
   20.4775   -2.3999  -15.4816 C   0  0  0  0  0  0  0  0  0  0  0  0
   19.3581   -1.6987  -15.8792 O   0  0  0  0  0  0  0  0  0  0  0  0
   21.2884   -2.8079  -16.3441 O   0  0  0  0  0  0  0  0  0  0  0  0
  1  2  1  0
  2  3  1  0
  3  5  1  0
  3  4  1  1
  5  7  1  0
  5  6  1  6
  7  8  2  0
  9 10  1  0
  9  7  1  0
 11 12  2  0
 11 10  1  0
 14 13  1  6
 14 16  1  0
 14 15  1  0
 15 11  1  0
 16 17  1  0
 18 16  2  0
M  END
$$$$
