IGA.pdb
     RDKit          3D

 18 17  0  0  1  0  0  0  0  0999 V2000
   29.4307  -20.6959  -11.2315 C   0  0  0  0  0  0  0  0  0  0  0  0
   28.2042  -21.5035  -11.5035 C   0  0  0  0  0  0  0  0  0  0  0  0
   26.9591  -20.6961  -11.6479 C   0  0  2  0  0  0  0  0  0  0  0  0
   26.6388  -19.9225  -10.4116 C   0  0  0  0  0  0  0  0  0  0  0  0
   25.7953  -21.5850  -12.0937 C   0  0  2  0  0  0  0  0  0  0  0  0
   26.2570  -22.3563  -13.2047 N   0  0  0  0  0  0  0  0  0  0  0  0
   24.6027  -20.7588  -12.4128 C   0  0  0  0  0  0  0  0  0  0  0  0
   23.7811  -20.4860  -11.5008 O   0  0  0  0  0  0  0  0  0  0  0  0
   24.3967  -20.2851  -13.7322 N   0  0  0  0  0  0  0  0  0  0  0  0
   23.3461  -19.3293  -14.0648 C   0  0  0  0  0  0  0  0  0  0  0  0
   22.0597  -20.0650  -14.0924 C   0  0  0  0  0  0  0  0  0  0  0  0
   21.0442  -19.6477  -13.4791 O   0  0  0  0  0  0  0  0  0  0  0  0
   20.3477  -22.5325  -13.5257 C   0  0  0  0  0  0  0  0  0  0  0  0
   20.7054  -22.0257  -14.9050 C   0  0  2  0  0  0  0  0  0  0  0  0
   21.9470  -21.2954  -14.8368 N   0  0  0  0  0  0  0  0  0  0  0  0
   19.6559  -21.1474  -15.4632 C   0  0  0  0  0  0  0  0  0  0  0  0
   19.2096  -21.2854  -16.7612 O   0  0  0  0  0  0  0  0  0  0  0  0
   19.1636  -20.2572  -14.7330 O   0  0  0  0  0  0  0  0  0  0  0  0
  1  2  1  0
  2  3  1  0
  3  5  1  0
  3  4  1  1
  5  7  1  0
  5  6  1  6
  7  8  2  0
  9 10  1  0
  9  7  1  0
 11 12  2  0
 11 10  1  0
 14 13  1  1
 14 16  1  0
 14 15  1  0
 15 11  1  0
 16 17  1  0
 18 16  2  0
M  END
$$$$
