IGA.pdb
     RDKit          3D

 18 17  0  0  1  0  0  0  0  0999 V2000
   24.2940  -19.9757   -9.2581 C   0  0  0  0  0  0  0  0  0  0  0  0
   25.2949  -20.8935   -9.8798 C   0  0  0  0  0  0  0  0  0  0  0  0
   25.3657  -20.8054  -11.3665 C   0  0  2  0  0  0  0  0  0  0  0  0
   24.0260  -20.9580  -12.0078 C   0  0  0  0  0  0  0  0  0  0  0  0
   26.3874  -21.8062  -11.9123 C   0  0  2  0  0  0  0  0  0  0  0  0
   27.6388  -21.5125  -11.2877 N   0  0  0  0  0  0  0  0  0  0  0  0
   26.4447  -21.7343  -13.3950 C   0  0  0  0  0  0  0  0  0  0  0  0
   25.7549  -22.5345  -14.0770 O   0  0  0  0  0  0  0  0  0  0  0  0
   27.2691  -20.7728  -14.0301 N   0  0  0  0  0  0  0  0  0  0  0  0
   27.3914  -20.6837  -15.4810 C   0  0  0  0  0  0  0  0  0  0  0  0
   26.3341  -19.7656  -15.9670 C   0  0  0  0  0  0  0  0  0  0  0  0
   25.5075  -19.2325  -15.1834 O   0  0  0  0  0  0  0  0  0  0  0  0
   25.8166  -17.9076  -19.1678 C   0  0  0  0  0  0  0  0  0  0  0  0
   25.2976  -18.4808  -17.8680 C   0  0  2  0  0  0  0  0  0  0  0  0
   26.2321  -19.4615  -17.3734 N   0  0  0  0  0  0  0  0  0  0  0  0
   23.9714  -19.1128  -18.0303 C   0  0  0  0  0  0  0  0  0  0  0  0
   22.8126  -18.3657  -18.0733 O   0  0  0  0  0  0  0  0  0  0  0  0
   23.9059  -20.3592  -18.1307 O   0  0  0  0  0  0  0  0  0  0  0  0
  1  2  1  0
  2  3  1  0
  3  5  1  0
  3  4  1  6
  5  7  1  0
  5  6  1  1
  7  8  2  0
  9 10  1  0
  9  7  1  0
 11 12  2  0
 11 10  1  0
 14 13  1  6
 14 16  1  0
 14 15  1  0
 15 11  1  0
 16 17  1  0
 18 16  2  0
M  END
$$$$
