IGA.pdb
     RDKit          3D

 18 17  0  0  1  0  0  0  0  0999 V2000
   15.2875  -14.3159  -16.5680 C   0  0  0  0  0  0  0  0  0  0  0  0
   15.7539  -13.3692  -15.5110 C   0  0  0  0  0  0  0  0  0  0  0  0
   16.7232  -12.3436  -15.9924 C   0  0  2  0  0  0  0  0  0  0  0  0
   17.9094  -12.9552  -16.6620 C   0  0  0  0  0  0  0  0  0  0  0  0
   17.1214  -11.4074  -14.8486 C   0  0  2  0  0  0  0  0  0  0  0  0
   15.9244  -10.7830  -14.3802 N   0  0  0  0  0  0  0  0  0  0  0  0
   18.1462  -10.4342  -15.3062 C   0  0  0  0  0  0  0  0  0  0  0  0
   19.2916  -10.8480  -15.6193 O   0  0  0  0  0  0  0  0  0  0  0  0
   17.8323   -9.0549  -15.3877 N   0  0  0  0  0  0  0  0  0  0  0  0
   18.7652   -8.0711  -15.9260 C   0  0  0  0  0  0  0  0  0  0  0  0
   19.6048   -7.5856  -14.8052 C   0  0  0  0  0  0  0  0  0  0  0  0
   19.3013   -7.8075  -13.6051 O   0  0  0  0  0  0  0  0  0  0  0  0
   23.0740   -6.9589  -14.2666 C   0  0  0  0  0  0  0  0  0  0  0  0
   21.6869   -6.4114  -14.0145 C   0  0  2  0  0  0  0  0  0  0  0  0
   20.8073   -6.8361  -15.0755 N   0  0  0  0  0  0  0  0  0  0  0  0
   21.6780   -4.9354  -13.9385 C   0  0  0  0  0  0  0  0  0  0  0  0
   22.1502   -4.2636  -12.8300 O   0  0  0  0  0  0  0  0  0  0  0  0
   21.2287   -4.2844  -14.9092 O   0  0  0  0  0  0  0  0  0  0  0  0
  1  2  1  0
  2  3  1  0
  3  5  1  0
  3  4  1  1
  5  7  1  0
  5  6  1  6
  7  8  2  0
  9 10  1  0
  9  7  1  0
 11 12  2  0
 11 10  1  0
 14 13  1  6
 14 16  1  0
 14 15  1  0
 15 11  1  0
 16 17  1  0
 18 16  2  0
M  END
$$$$
