IGA.pdb
     RDKit          3D

 18 17  0  0  1  0  0  0  0  0999 V2000
   23.9263  -13.1879  -16.1333 C   0  0  0  0  0  0  0  0  0  0  0  0
   24.2091  -11.7691  -16.5047 C   0  0  0  0  0  0  0  0  0  0  0  0
   23.2157  -10.7892  -15.9793 C   0  0  2  0  0  0  0  0  0  0  0  0
   21.8214  -11.1119  -16.4052 C   0  0  0  0  0  0  0  0  0  0  0  0
   23.6222   -9.3626  -16.3572 C   0  0  2  0  0  0  0  0  0  0  0  0
   24.9787   -9.1881  -15.9428 N   0  0  0  0  0  0  0  0  0  0  0  0
   22.6940   -8.3779  -15.7443 C   0  0  0  0  0  0  0  0  0  0  0  0
   21.5156   -8.2923  -16.1749 O   0  0  0  0  0  0  0  0  0  0  0  0
   23.1356   -7.5457  -14.6860 N   0  0  0  0  0  0  0  0  0  0  0  0
   22.2214   -6.7131  -13.9123 C   0  0  0  0  0  0  0  0  0  0  0  0
   21.9394   -5.4942  -14.7071 C   0  0  0  0  0  0  0  0  0  0  0  0
   22.7357   -5.0777  -15.5869 O   0  0  0  0  0  0  0  0  0  0  0  0
   18.8547   -3.4455  -15.2628 C   0  0  0  0  0  0  0  0  0  0  0  0
   20.3537   -3.6376  -15.3214 C   0  0  2  0  0  0  0  0  0  0  0  0
   20.7244   -4.7501  -14.4820 N   0  0  0  0  0  0  0  0  0  0  0  0
   21.0856   -2.4318  -14.8801 C   0  0  0  0  0  0  0  0  0  0  0  0
   21.2984   -1.3628  -15.7256 O   0  0  0  0  0  0  0  0  0  0  0  0
   21.5209   -2.3865  -13.7069 O   0  0  0  0  0  0  0  0  0  0  0  0
  1  2  1  0
  2  3  1  0
  3  5  1  0
  3  4  1  6
  5  7  1  0
  5  6  1  1
  7  8  2  0
  9 10  1  0
  9  7  1  0
 11 12  2  0
 11 10  1  0
 14 13  1  1
 14 16  1  0
 14 15  1  0
 15 11  1  0
 16 17  1  0
 18 16  2  0
M  END
$$$$
