IGA.pdb
     RDKit          3D

 18 17  0  0  1  0  0  0  0  0999 V2000
   24.8581  -14.6353  -19.1468 C   0  0  0  0  0  0  0  0  0  0  0  0
   25.1609  -13.3585  -18.4334 C   0  0  0  0  0  0  0  0  0  0  0  0
   23.9542  -12.6114  -17.9766 C   0  0  2  0  0  0  0  0  0  0  0  0
   22.9621  -12.4114  -19.0745 C   0  0  0  0  0  0  0  0  0  0  0  0
   24.3618  -11.2922  -17.3156 C   0  0  2  0  0  0  0  0  0  0  0  0
   25.2484  -11.6159  -16.2426 N   0  0  0  0  0  0  0  0  0  0  0  0
   23.1600  -10.5399  -16.8722 C   0  0  0  0  0  0  0  0  0  0  0  0
   22.3535  -10.1052  -17.7336 O   0  0  0  0  0  0  0  0  0  0  0  0
   22.9285  -10.3166  -15.4923 N   0  0  0  0  0  0  0  0  0  0  0  0
   21.7343   -9.6392  -14.9993 C   0  0  0  0  0  0  0  0  0  0  0  0
   21.8149   -8.2202  -15.4198 C   0  0  0  0  0  0  0  0  0  0  0  0
   21.9470   -7.8931  -16.6269 O   0  0  0  0  0  0  0  0  0  0  0  0
   20.0803   -5.4600  -14.7859 C   0  0  0  0  0  0  0  0  0  0  0  0
   21.5559   -5.7905  -14.8128 C   0  0  2  0  0  0  0  0  0  0  0  0
   21.7420   -7.1695  -14.4342 N   0  0  0  0  0  0  0  0  0  0  0  0
   22.3349   -4.9274  -13.9003 C   0  0  0  0  0  0  0  0  0  0  0  0
   22.8032   -3.6913  -14.2949 O   0  0  0  0  0  0  0  0  0  0  0  0
   22.5720   -5.3353  -12.7405 O   0  0  0  0  0  0  0  0  0  0  0  0
  1  2  1  0
  2  3  1  0
  3  5  1  0
  3  4  1  6
  5  7  1  0
  5  6  1  1
  7  8  2  0
  9 10  1  0
  9  7  1  0
 11 12  2  0
 11 10  1  0
 14 13  1  1
 14 16  1  0
 14 15  1  0
 15 11  1  0
 16 17  1  0
 18 16  2  0
M  END
$$$$
