IGA.pdb
     RDKit          3D

 18 17  0  0  1  0  0  0  0  0999 V2000
   23.2976  -34.6536   -9.3157 C   0  0  0  0  0  0  0  0  0  0  0  0
   24.2944  -33.5414   -9.2967 C   0  0  0  0  0  0  0  0  0  0  0  0
   25.2843  -33.6256   -8.1850 C   0  0  2  0  0  0  0  0  0  0  0  0
   24.6279  -33.7554   -6.8502 C   0  0  0  0  0  0  0  0  0  0  0  0
   26.2530  -32.4416   -8.2424 C   0  0  2  0  0  0  0  0  0  0  0  0
   26.9942  -32.5632   -9.4581 N   0  0  0  0  0  0  0  0  0  0  0  0
   27.1159  -32.4170   -7.0334 C   0  0  0  0  0  0  0  0  0  0  0  0
   26.6014  -32.1602   -5.9151 O   0  0  0  0  0  0  0  0  0  0  0  0
   28.5038  -32.6806   -7.1434 N   0  0  0  0  0  0  0  0  0  0  0  0
   29.3842  -32.7336   -5.9816 C   0  0  0  0  0  0  0  0  0  0  0  0
   30.1680  -33.9886   -6.0668 C   0  0  0  0  0  0  0  0  0  0  0  0
   29.8489  -34.9174   -6.8523 O   0  0  0  0  0  0  0  0  0  0  0  0
   33.6589  -34.7960   -5.2976 C   0  0  0  0  0  0  0  0  0  0  0  0
   32.2323  -35.2810   -5.4285 C   0  0  2  0  0  0  0  0  0  0  0  0
   31.3323  -34.1710   -5.2350 N   0  0  0  0  0  0  0  0  0  0  0  0
   31.9140  -36.3404   -4.4483 C   0  0  0  0  0  0  0  0  0  0  0  0
   31.1591  -36.0836   -3.3226 O   0  0  0  0  0  0  0  0  0  0  0  0
   32.3441  -37.4987   -4.6515 O   0  0  0  0  0  0  0  0  0  0  0  0
  1  2  1  0
  2  3  1  0
  3  5  1  0
  3  4  1  1
  5  7  1  0
  5  6  1  6
  7  8  2  0
  9 10  1  0
  9  7  1  0
 11 12  2  0
 11 10  1  0
 14 13  1  1
 14 16  1  0
 14 15  1  0
 15 11  1  0
 16 17  1  0
 18 16  2  0
M  END
$$$$
