IGA.pdb
     RDKit          3D

 18 17  0  0  1  0  0  0  0  0999 V2000
   17.4004  -15.2177  -15.5728 C   0  0  0  0  0  0  0  0  0  0  0  0
   16.9817  -13.8353  -15.9526 C   0  0  0  0  0  0  0  0  0  0  0  0
   18.1112  -12.8745  -16.1076 C   0  0  2  0  0  0  0  0  0  0  0  0
   18.9678  -12.8051  -14.8865 C   0  0  0  0  0  0  0  0  0  0  0  0
   17.5877  -11.4987  -16.5278 C   0  0  2  0  0  0  0  0  0  0  0  0
   16.7574  -11.6969  -17.6739 N   0  0  0  0  0  0  0  0  0  0  0  0
   18.7173  -10.5675  -16.7801 C   0  0  0  0  0  0  0  0  0  0  0  0
   19.4398  -10.7372  -17.7952 O   0  0  0  0  0  0  0  0  0  0  0  0
   18.9746   -9.5005  -15.8840 N   0  0  0  0  0  0  0  0  0  0  0  0
   20.1547   -8.6507  -15.9982 C   0  0  0  0  0  0  0  0  0  0  0  0
   20.0342   -7.5737  -14.9870 C   0  0  0  0  0  0  0  0  0  0  0  0
   19.0115   -7.4537  -14.2651 O   0  0  0  0  0  0  0  0  0  0  0  0
   22.4499   -5.0827  -13.5357 C   0  0  0  0  0  0  0  0  0  0  0  0
   21.0545   -5.6078  -13.7899 C   0  0  2  0  0  0  0  0  0  0  0  0
   21.1074   -6.6264  -14.8093 N   0  0  0  0  0  0  0  0  0  0  0  0
   20.1288   -4.5388  -14.2197 C   0  0  0  0  0  0  0  0  0  0  0  0
   19.4580   -3.7506  -13.3078 O   0  0  0  0  0  0  0  0  0  0  0  0
   19.9540   -4.3494  -15.4451 O   0  0  0  0  0  0  0  0  0  0  0  0
  1  2  1  0
  2  3  1  0
  3  5  1  0
  3  4  1  1
  5  7  1  0
  5  6  1  6
  7  8  2  0
  9 10  1  0
  9  7  1  0
 11 12  2  0
 11 10  1  0
 14 13  1  6
 14 16  1  0
 14 15  1  0
 15 11  1  0
 16 17  1  0
 18 16  2  0
M  END
$$$$
