IGA.pdb
     RDKit          3D

 18 17  0  0  1  0  0  0  0  0999 V2000
   25.7878  -12.2666  -17.8540 C   0  0  0  0  0  0  0  0  0  0  0  0
   24.3195  -12.1677  -17.5987 C   0  0  0  0  0  0  0  0  0  0  0  0
   23.9629  -11.4235  -16.3569 C   0  0  2  0  0  0  0  0  0  0  0  0
   24.6120  -12.0022  -15.1432 C   0  0  0  0  0  0  0  0  0  0  0  0
   22.4421  -11.3267  -16.2110 C   0  0  2  0  0  0  0  0  0  0  0  0
   21.9287  -10.8593  -17.4601 N   0  0  0  0  0  0  0  0  0  0  0  0
   22.0845  -10.4478  -15.0680 C   0  0  0  0  0  0  0  0  0  0  0  0
   22.2577  -10.8638  -13.8940 O   0  0  0  0  0  0  0  0  0  0  0  0
   21.5540   -9.1550  -15.3024 N   0  0  0  0  0  0  0  0  0  0  0  0
   21.3244   -8.1971  -14.2265 C   0  0  0  0  0  0  0  0  0  0  0  0
   21.5396   -6.8386  -14.7789 C   0  0  0  0  0  0  0  0  0  0  0  0
   22.3644   -6.6218  -15.7031 O   0  0  0  0  0  0  0  0  0  0  0  0
   19.7255   -3.5624  -14.3666 C   0  0  0  0  0  0  0  0  0  0  0  0
   20.8794   -4.4102  -14.8537 C   0  0  2  0  0  0  0  0  0  0  0  0
   20.7932   -5.7201  -14.2569 N   0  0  0  0  0  0  0  0  0  0  0  0
   22.1885   -3.8103  -14.5204 C   0  0  0  0  0  0  0  0  0  0  0  0
   22.7784   -2.8615  -15.3295 O   0  0  0  0  0  0  0  0  0  0  0  0
   22.7713   -4.1778  -13.4748 O   0  0  0  0  0  0  0  0  0  0  0  0
  1  2  1  0
  2  3  1  0
  3  5  1  0
  3  4  1  1
  5  7  1  0
  5  6  1  6
  7  8  2  0
  9 10  1  0
  9  7  1  0
 11 12  2  0
 11 10  1  0
 14 13  1  1
 14 16  1  0
 14 15  1  0
 15 11  1  0
 16 17  1  0
 18 16  2  0
M  END
$$$$
