IGA.pdb
     RDKit          3D

 18 17  0  0  1  0  0  0  0  0999 V2000
   18.4962  -13.1309  -19.1405 C   0  0  0  0  0  0  0  0  0  0  0  0
   19.2910  -12.1576  -18.3332 C   0  0  0  0  0  0  0  0  0  0  0  0
   18.5566  -10.9080  -17.9841 C   0  0  2  0  0  0  0  0  0  0  0  0
   17.9417  -10.2591  -19.1801 C   0  0  0  0  0  0  0  0  0  0  0  0
   19.4677   -9.9522  -17.2097 C   0  0  2  0  0  0  0  0  0  0  0  0
   19.9135  -10.6482  -16.0439 N   0  0  0  0  0  0  0  0  0  0  0  0
   18.7503   -8.6896  -16.8964 C   0  0  0  0  0  0  0  0  0  0  0  0
   18.4771   -7.8897  -17.8274 O   0  0  0  0  0  0  0  0  0  0  0  0
   18.3795   -8.3936  -15.5613 N   0  0  0  0  0  0  0  0  0  0  0  0
   17.7402   -7.1368  -15.1876 C   0  0  0  0  0  0  0  0  0  0  0  0
   18.6968   -6.3763  -14.3488 C   0  0  0  0  0  0  0  0  0  0  0  0
   18.3635   -5.3180  -13.7569 O   0  0  0  0  0  0  0  0  0  0  0  0
   21.9311   -7.2244  -12.7328 C   0  0  0  0  0  0  0  0  0  0  0  0
   20.9776   -6.1954  -13.2981 C   0  0  2  0  0  0  0  0  0  0  0  0
   20.0521   -6.8449  -14.1933 N   0  0  0  0  0  0  0  0  0  0  0  0
   21.6867   -5.1231  -14.0274 C   0  0  0  0  0  0  0  0  0  0  0  0
   22.4034   -4.1477  -13.3658 O   0  0  0  0  0  0  0  0  0  0  0  0
   21.6309   -5.1061  -15.2782 O   0  0  0  0  0  0  0  0  0  0  0  0
  1  2  1  0
  2  3  1  0
  3  5  1  0
  3  4  1  6
  5  7  1  0
  5  6  1  1
  7  8  2  0
  9 10  1  0
  9  7  1  0
 11 12  2  0
 11 10  1  0
 14 13  1  6
 14 16  1  0
 14 15  1  0
 15 11  1  0
 16 17  1  0
 18 16  2  0
M  END
$$$$
