IGA.pdb
     RDKit          3D

 18 17  0  0  1  0  0  0  0  0999 V2000
   25.3518  -33.5475  -17.9822 C   0  0  0  0  0  0  0  0  0  0  0  0
   26.3396  -33.1622  -16.9302 C   0  0  0  0  0  0  0  0  0  0  0  0
   25.8521  -33.3516  -15.5340 C   0  0  2  0  0  0  0  0  0  0  0  0
   24.5920  -32.5966  -15.2663 C   0  0  0  0  0  0  0  0  0  0  0  0
   26.9574  -33.0092  -14.5318 C   0  0  2  0  0  0  0  0  0  0  0  0
   27.1669  -31.5974  -14.6028 N   0  0  0  0  0  0  0  0  0  0  0  0
   28.1837  -33.7960  -14.8216 C   0  0  0  0  0  0  0  0  0  0  0  0
   28.1396  -35.0510  -14.7563 O   0  0  0  0  0  0  0  0  0  0  0  0
   29.3886  -33.1354  -15.1675 N   0  0  0  0  0  0  0  0  0  0  0  0
   30.6159  -33.8597  -15.4788 C   0  0  0  0  0  0  0  0  0  0  0  0
   31.2378  -33.2081  -16.6559 C   0  0  0  0  0  0  0  0  0  0  0  0
   30.6554  -32.2922  -17.2912 O   0  0  0  0  0  0  0  0  0  0  0  0
   34.6285  -33.4792  -18.3070 C   0  0  0  0  0  0  0  0  0  0  0  0
   33.2109  -32.9628  -18.2002 C   0  0  2  0  0  0  0  0  0  0  0  0
   32.5461  -33.6200  -17.1023 N   0  0  0  0  0  0  0  0  0  0  0  0
   32.4415  -33.1926  -19.4411 C   0  0  0  0  0  0  0  0  0  0  0  0
   32.4538  -32.2856  -20.4804 O   0  0  0  0  0  0  0  0  0  0  0  0
   31.7631  -34.2400  -19.5444 O   0  0  0  0  0  0  0  0  0  0  0  0
  1  2  1  0
  2  3  1  0
  3  5  1  0
  3  4  1  1
  5  7  1  0
  5  6  1  6
  7  8  2  0
  9 10  1  0
  9  7  1  0
 11 12  2  0
 11 10  1  0
 14 13  1  6
 14 16  1  0
 14 15  1  0
 15 11  1  0
 16 17  1  0
 18 16  2  0
M  END
$$$$
