IGA.pdb
     RDKit          3D

 18 17  0  0  1  0  0  0  0  0999 V2000
   28.8258  -19.5819   -4.2494 C   0  0  0  0  0  0  0  0  0  0  0  0
   27.4937  -19.5036   -4.9204 C   0  0  0  0  0  0  0  0  0  0  0  0
   27.4785  -20.0326   -6.3143 C   0  0  2  0  0  0  0  0  0  0  0  0
   28.4759  -19.3495   -7.1907 C   0  0  0  0  0  0  0  0  0  0  0  0
   26.0621  -19.9737   -6.8920 C   0  0  2  0  0  0  0  0  0  0  0  0
   25.2005  -20.6315   -5.9608 N   0  0  0  0  0  0  0  0  0  0  0  0
   26.0278  -20.5807   -8.2474 C   0  0  0  0  0  0  0  0  0  0  0  0
   26.1688  -21.8244   -8.3685 O   0  0  0  0  0  0  0  0  0  0  0  0
   25.8380  -19.7635   -9.3892 N   0  0  0  0  0  0  0  0  0  0  0  0
   25.8655  -20.2976  -10.7464 C   0  0  0  0  0  0  0  0  0  0  0  0
   24.5726  -19.9625  -11.3890 C   0  0  0  0  0  0  0  0  0  0  0  0
   23.6200  -19.4605  -10.7394 O   0  0  0  0  0  0  0  0  0  0  0  0
   23.3710  -19.8739  -14.9593 C   0  0  0  0  0  0  0  0  0  0  0  0
   23.1490  -19.8640  -13.4632 C   0  0  2  0  0  0  0  0  0  0  0  0
   24.3800  -20.2106  -12.7969 N   0  0  0  0  0  0  0  0  0  0  0  0
   22.0916  -20.8115  -13.0527 C   0  0  0  0  0  0  0  0  0  0  0  0
   20.7666  -20.4339  -12.9837 O   0  0  0  0  0  0  0  0  0  0  0  0
   22.4142  -21.9858  -12.7615 O   0  0  0  0  0  0  0  0  0  0  0  0
  1  2  1  0
  2  3  1  0
  3  5  1  0
  3  4  1  6
  5  7  1  0
  5  6  1  1
  7  8  2  0
  9 10  1  0
  9  7  1  0
 11 12  2  0
 11 10  1  0
 14 13  1  6
 14 16  1  0
 14 15  1  0
 15 11  1  0
 16 17  1  0
 18 16  2  0
M  END
$$$$
