IGA.pdb
     RDKit          3D

 18 17  0  0  1  0  0  0  0  0999 V2000
   25.3448  -15.1970  -15.3631 C   0  0  0  0  0  0  0  0  0  0  0  0
   23.9491  -14.6653  -15.3658 C   0  0  0  0  0  0  0  0  0  0  0  0
   23.8363  -13.2441  -15.8020 C   0  0  2  0  0  0  0  0  0  0  0  0
   24.5495  -12.3102  -14.8808 C   0  0  0  0  0  0  0  0  0  0  0  0
   22.3669  -12.8599  -15.9940 C   0  0  2  0  0  0  0  0  0  0  0  0
   21.7614  -13.8914  -16.7761 N   0  0  0  0  0  0  0  0  0  0  0  0
   22.2582  -11.5158  -16.6171 C   0  0  0  0  0  0  0  0  0  0  0  0
   22.6739  -11.3466  -17.7919 O   0  0  0  0  0  0  0  0  0  0  0  0
   21.6916  -10.4383  -15.8922 N   0  0  0  0  0  0  0  0  0  0  0  0
   21.6228   -9.0841  -16.4301 C   0  0  0  0  0  0  0  0  0  0  0  0
   22.1382   -8.1600  -15.3922 C   0  0  0  0  0  0  0  0  0  0  0  0
   22.5312   -8.5744  -14.2718 O   0  0  0  0  0  0  0  0  0  0  0  0
   22.8450   -4.4479  -15.3001 C   0  0  0  0  0  0  0  0  0  0  0  0
   22.6990   -5.8146  -14.6689 C   0  0  2  0  0  0  0  0  0  0  0  0
   22.1993   -6.7426  -15.6531 N   0  0  0  0  0  0  0  0  0  0  0  0
   21.7819   -5.7957  -13.5100 C   0  0  0  0  0  0  0  0  0  0  0  0
   22.2108   -5.4270  -12.2519 O   0  0  0  0  0  0  0  0  0  0  0  0
   20.5859   -6.1241  -13.6823 O   0  0  0  0  0  0  0  0  0  0  0  0
  1  2  1  0
  2  3  1  0
  3  5  1  0
  3  4  1  1
  5  7  1  0
  5  6  1  6
  7  8  2  0
  9 10  1  0
  9  7  1  0
 11 12  2  0
 11 10  1  0
 14 13  1  6
 14 16  1  0
 14 15  1  0
 15 11  1  0
 16 17  1  0
 18 16  2  0
M  END
$$$$
