DFA.pdb
     RDKit          3D

 25 25  0  0  1  0  0  0  0  0999 V2000
   11.0361  -16.6514   19.7060 N   0  0  0  0  0  0  0  0  0  0  0  0
    9.8935  -17.0619   20.5509 C   0  0  1  0  0  0  0  0  0  0  0  0
   10.0553  -18.5245   20.8608 C   0  0  0  0  0  0  0  0  0  0  0  0
    9.8396  -19.3755   19.6951 C   0  0  0  0  0  0  0  0  0  0  0  0
    9.7158  -18.8410   18.5661 O   0  0  0  0  0  0  0  0  0  0  0  0
    9.8498  -16.2691   21.7664 C   0  0  0  0  0  0  0  0  0  0  0  0
   10.9337  -15.9733   22.3614 O   0  0  0  0  0  0  0  0  0  0  0  0
    9.7688  -20.7617   19.8148 O   0  0  0  0  0  0  0  0  0  0  0  0
    8.6819  -15.7684   22.3745 N   0  0  0  0  0  0  0  0  0  0  0  0
    8.7448  -15.0009   23.6289 C   0  0  1  0  0  0  0  0  0  0  0  0
    7.4584  -14.2207   23.7236 C   0  0  0  0  0  0  0  0  0  0  0  0
    7.3187  -13.4182   24.9340 C   0  0  0  0  0  0  0  0  0  0  0  0
    6.2836  -13.7551   25.8096 C   0  0  0  0  0  0  0  0  0  0  0  0
    6.0667  -13.0576   26.9820 C   0  0  0  0  0  0  0  0  0  0  0  0
    6.8744  -11.9964   27.3265 C   0  0  0  0  0  0  0  0  0  0  0  0
    7.8952  -11.6588   26.4696 C   0  0  0  0  0  0  0  0  0  0  0  0
    8.0959  -12.3664   25.3048 C   0  0  0  0  0  0  0  0  0  0  0  0
    8.7293  -15.9727   24.7290 C   0  0  0  0  0  0  0  0  0  0  0  0
    7.8877  -16.8706   24.9113 O   0  0  0  0  0  0  0  0  0  0  0  0
   11.2649  -17.5267   26.4807 C   0  0  0  0  0  0  0  0  0  0  0  0
    9.9261  -16.8304   26.7088 C   0  0  2  0  0  0  0  0  0  0  0  0
    9.8096  -15.8465   25.6728 N   0  0  0  0  0  0  0  0  0  0  0  0
    9.9556  -16.2522   28.0559 C   0  0  0  0  0  0  0  0  0  0  0  0
   10.0639  -17.0238   29.1979 O   0  0  0  0  0  0  0  0  0  0  0  0
    9.8807  -15.0097   28.1928 O   0  0  0  0  0  0  0  0  0  0  0  0
  2  3  1  0
  2  1  1  6
  3  4  1  0
  4  8  1  0
  4  5  2  0
  6  2  1  0
  7  6  2  0
  9  6  1  0
 10  9  1  0
 10 11  1  1
 11 12  1  0
 12 13  2  0
 13 14  1  0
 15 14  2  0
 16 15  1  0
 17 12  1  0
 17 16  2  0
 18 22  1  0
 18 10  1  0
 19 18  2  0
 21 20  1  6
 21 23  1  0
 21 22  1  0
 23 24  1  0
 25 23  2  0
M  END
$$$$
