DFA.pdb
     RDKit          3D

 25 25  0  0  1  0  0  0  0  0999 V2000
    8.2470  -17.3474   19.7448 N   0  0  0  0  0  0  0  0  0  0  0  0
    9.6235  -17.1820   20.2608 C   0  0  1  0  0  0  0  0  0  0  0  0
   10.4479  -16.5524   19.1721 C   0  0  0  0  0  0  0  0  0  0  0  0
   10.7271  -17.4708   18.0730 C   0  0  0  0  0  0  0  0  0  0  0  0
   11.5646  -17.1376   17.1994 O   0  0  0  0  0  0  0  0  0  0  0  0
    9.6216  -16.3623   21.4591 C   0  0  0  0  0  0  0  0  0  0  0  0
   10.7268  -16.0126   21.9813 O   0  0  0  0  0  0  0  0  0  0  0  0
   10.0830  -18.7025   17.9784 O   0  0  0  0  0  0  0  0  0  0  0  0
    8.4735  -15.8905   22.1252 N   0  0  0  0  0  0  0  0  0  0  0  0
    8.5785  -15.1459   23.3906 C   0  0  1  0  0  0  0  0  0  0  0  0
    7.2667  -14.4279   23.5802 C   0  0  0  0  0  0  0  0  0  0  0  0
    7.1254  -13.7421   24.8600 C   0  0  0  0  0  0  0  0  0  0  0  0
    7.9092  -12.6044   25.0668 C   0  0  0  0  0  0  0  0  0  0  0  0
    7.8498  -11.8842   26.2440 C   0  0  0  0  0  0  0  0  0  0  0  0
    7.0055  -12.2713   27.2612 C   0  0  0  0  0  0  0  0  0  0  0  0
    6.2309  -13.3902   27.0651 C   0  0  0  0  0  0  0  0  0  0  0  0
    6.3041  -14.0955   25.8841 C   0  0  0  0  0  0  0  0  0  0  0  0
    8.6739  -16.1391   24.4674 C   0  0  0  0  0  0  0  0  0  0  0  0
    7.8246  -17.0010   24.7564 O   0  0  0  0  0  0  0  0  0  0  0  0
   11.5592  -17.6193   25.8985 C   0  0  0  0  0  0  0  0  0  0  0  0
   10.1390  -17.1380   26.1829 C   0  0  2  0  0  0  0  0  0  0  0  0
    9.8834  -16.0828   25.2470 N   0  0  0  0  0  0  0  0  0  0  0  0
   10.0968  -16.6957   27.5802 C   0  0  0  0  0  0  0  0  0  0  0  0
    9.8783  -15.3792   27.9409 O   0  0  0  0  0  0  0  0  0  0  0  0
   10.2637  -17.5343   28.4952 O   0  0  0  0  0  0  0  0  0  0  0  0
  2  3  1  0
  2  1  1  6
  3  4  1  0
  4  8  1  0
  4  5  2  0
  6  2  1  0
  7  6  2  0
  9  6  1  0
 10  9  1  0
 10 11  1  1
 11 12  1  0
 12 13  2  0
 13 14  1  0
 15 14  2  0
 16 15  1  0
 17 12  1  0
 17 16  2  0
 18 22  1  0
 18 10  1  0
 19 18  2  0
 21 20  1  6
 21 23  1  0
 21 22  1  0
 23 24  1  0
 25 23  2  0
M  END
$$$$
