DFA.pdb
     RDKit          3D

 25 25  0  0  1  0  0  0  0  0999 V2000
    9.9624  -16.8952   19.7282 N   0  0  0  0  0  0  0  0  0  0  0  0
    9.4322  -17.3882   21.0182 C   0  0  1  0  0  0  0  0  0  0  0  0
   10.2796  -18.5545   21.4458 C   0  0  0  0  0  0  0  0  0  0  0  0
   10.2016  -19.6786   20.5186 C   0  0  0  0  0  0  0  0  0  0  0  0
    9.0900  -20.2264   20.3186 O   0  0  0  0  0  0  0  0  0  0  0  0
    9.4529  -16.3311   22.0132 C   0  0  0  0  0  0  0  0  0  0  0  0
   10.4278  -15.5156   22.0415 O   0  0  0  0  0  0  0  0  0  0  0  0
   11.3333  -20.1504   19.8570 O   0  0  0  0  0  0  0  0  0  0  0  0
    8.4591  -16.1038   22.9854 N   0  0  0  0  0  0  0  0  0  0  0  0
    8.5375  -14.9540   23.9011 C   0  0  1  0  0  0  0  0  0  0  0  0
    7.1363  -14.4159   24.0409 C   0  0  0  0  0  0  0  0  0  0  0  0
    6.9936  -13.3262   25.0002 C   0  0  0  0  0  0  0  0  0  0  0  0
    6.0697  -13.4997   26.0336 C   0  0  0  0  0  0  0  0  0  0  0  0
    5.8597  -12.5278   26.9925 C   0  0  0  0  0  0  0  0  0  0  0  0
    6.5637  -11.3444   26.9575 C   0  0  0  0  0  0  0  0  0  0  0  0
    7.4748  -11.1662   25.9434 C   0  0  0  0  0  0  0  0  0  0  0  0
    7.6704  -12.1472   24.9962 C   0  0  0  0  0  0  0  0  0  0  0  0
    8.9202  -15.4782   25.2178 C   0  0  0  0  0  0  0  0  0  0  0  0
    9.0194  -14.8270   26.2732 O   0  0  0  0  0  0  0  0  0  0  0  0
    9.5117  -18.9784   26.3224 C   0  0  0  0  0  0  0  0  0  0  0  0
    9.6181  -17.4664   26.5013 C   0  0  2  0  0  0  0  0  0  0  0  0
    9.2016  -16.8899   25.2567 N   0  0  0  0  0  0  0  0  0  0  0  0
   11.0109  -17.1616   26.8434 C   0  0  0  0  0  0  0  0  0  0  0  0
   11.8204  -16.3730   26.0473 O   0  0  0  0  0  0  0  0  0  0  0  0
   11.5007  -17.6280   27.8974 O   0  0  0  0  0  0  0  0  0  0  0  0
  2  3  1  0
  2  1  1  6
  3  4  1  0
  4  8  1  0
  4  5  2  0
  6  2  1  0
  7  6  2  0
  9  6  1  0
 10  9  1  0
 10 11  1  1
 11 12  1  0
 12 13  2  0
 13 14  1  0
 15 14  2  0
 16 15  1  0
 17 12  1  0
 17 16  2  0
 18 22  1  0
 18 10  1  0
 19 18  2  0
 21 20  1  6
 21 23  1  0
 21 22  1  0
 23 24  1  0
 25 23  2  0
M  END
$$$$
