DFA.pdb
     RDKit          3D

 25 25  0  0  1  0  0  0  0  0999 V2000
   10.0197  -17.9444   21.0238 N   0  0  0  0  0  0  0  0  0  0  0  0
   11.2189  -17.3032   21.6061 C   0  0  1  0  0  0  0  0  0  0  0  0
   11.9826  -16.6562   20.4839 C   0  0  0  0  0  0  0  0  0  0  0  0
   12.5015  -17.6240   19.5229 C   0  0  0  0  0  0  0  0  0  0  0  0
   12.8193  -18.7700   19.9246 O   0  0  0  0  0  0  0  0  0  0  0  0
   10.8360  -16.3284   22.6115 C   0  0  0  0  0  0  0  0  0  0  0  0
   11.6950  -15.4907   23.0320 O   0  0  0  0  0  0  0  0  0  0  0  0
   12.6492  -17.2983   18.1764 O   0  0  0  0  0  0  0  0  0  0  0  0
    9.5559  -16.2070   23.1870 N   0  0  0  0  0  0  0  0  0  0  0  0
    9.2671  -15.1706   24.1916 C   0  0  1  0  0  0  0  0  0  0  0  0
    7.7696  -14.9997   24.2186 C   0  0  0  0  0  0  0  0  0  0  0  0
    7.2965  -13.8875   25.0356 C   0  0  0  0  0  0  0  0  0  0  0  0
    6.4659  -14.1946   26.1160 C   0  0  0  0  0  0  0  0  0  0  0  0
    5.9649  -13.2141   26.9501 C   0  0  0  0  0  0  0  0  0  0  0  0
    6.2733  -11.8884   26.7385 C   0  0  0  0  0  0  0  0  0  0  0  0
    7.0901  -11.5783   25.6769 C   0  0  0  0  0  0  0  0  0  0  0  0
    7.5802  -12.5702   24.8561 C   0  0  0  0  0  0  0  0  0  0  0  0
    9.6515  -15.7189   25.4980 C   0  0  0  0  0  0  0  0  0  0  0  0
    9.7428  -16.9229   25.7972 O   0  0  0  0  0  0  0  0  0  0  0  0
   10.7414  -13.9348   28.5881 C   0  0  0  0  0  0  0  0  0  0  0  0
   10.6145  -15.1714   27.7026 C   0  0  2  0  0  0  0  0  0  0  0  0
    9.9456  -14.7385   26.5110 N   0  0  0  0  0  0  0  0  0  0  0  0
    9.8600  -16.1767   28.4576 C   0  0  0  0  0  0  0  0  0  0  0  0
   10.3887  -16.8462   29.5454 O   0  0  0  0  0  0  0  0  0  0  0  0
    8.6871  -16.4500   28.1144 O   0  0  0  0  0  0  0  0  0  0  0  0
  2  3  1  0
  2  1  1  6
  3  4  1  0
  4  8  1  0
  4  5  2  0
  6  2  1  0
  7  6  2  0
  9  6  1  0
 10  9  1  0
 10 11  1  1
 11 12  1  0
 12 13  2  0
 13 14  1  0
 15 14  2  0
 16 15  1  0
 17 12  1  0
 17 16  2  0
 18 22  1  0
 18 10  1  0
 19 18  2  0
 21 20  1  1
 21 23  1  0
 21 22  1  0
 23 24  1  0
 25 23  2  0
M  END
$$$$
