DFA.pdb
     RDKit          3D

 25 25  0  0  1  0  0  0  0  0999 V2000
   10.9672  -16.4626   19.8583 N   0  0  0  0  0  0  0  0  0  0  0  0
    9.9214  -17.0297   20.7376 C   0  0  1  0  0  0  0  0  0  0  0  0
   10.2802  -18.4645   21.0092 C   0  0  0  0  0  0  0  0  0  0  0  0
   10.5665  -19.2149   19.7910 C   0  0  0  0  0  0  0  0  0  0  0  0
   11.4130  -20.1410   19.8314 O   0  0  0  0  0  0  0  0  0  0  0  0
    9.8273  -16.2691   21.9706 C   0  0  0  0  0  0  0  0  0  0  0  0
   10.8860  -15.9856   22.6149 O   0  0  0  0  0  0  0  0  0  0  0  0
    9.9202  -18.9216   18.5921 O   0  0  0  0  0  0  0  0  0  0  0  0
    8.6345  -15.7883   22.5456 N   0  0  0  0  0  0  0  0  0  0  0  0
    8.6423  -15.0780   23.8349 C   0  0  1  0  0  0  0  0  0  0  0  0
    7.3617  -14.2853   23.8998 C   0  0  0  0  0  0  0  0  0  0  0  0
    7.1351  -13.5936   25.1641 C   0  0  0  0  0  0  0  0  0  0  0  0
    8.0017  -12.5459   25.4850 C   0  0  0  0  0  0  0  0  0  0  0  0
    7.8723  -11.8282   26.6581 C   0  0  0  0  0  0  0  0  0  0  0  0
    6.8727  -12.1280   27.5571 C   0  0  0  0  0  0  0  0  0  0  0  0
    6.0159  -13.1580   27.2483 C   0  0  0  0  0  0  0  0  0  0  0  0
    6.1609  -13.8623   26.0733 C   0  0  0  0  0  0  0  0  0  0  0  0
    8.5598  -16.0974   24.8880 C   0  0  0  0  0  0  0  0  0  0  0  0
    7.6242  -16.8962   25.0729 O   0  0  0  0  0  0  0  0  0  0  0  0
   10.7683  -18.1593   26.4110 C   0  0  0  0  0  0  0  0  0  0  0  0
    9.6978  -17.1469   26.8092 C   0  0  2  0  0  0  0  0  0  0  0  0
    9.6908  -16.1514   25.7779 N   0  0  0  0  0  0  0  0  0  0  0  0
   10.0646  -16.6148   28.1253 C   0  0  0  0  0  0  0  0  0  0  0  0
   10.1215  -17.4021   29.2601 O   0  0  0  0  0  0  0  0  0  0  0  0
   10.3403  -15.3987   28.2411 O   0  0  0  0  0  0  0  0  0  0  0  0
  2  3  1  0
  2  1  1  6
  3  4  1  0
  4  8  1  0
  4  5  2  0
  6  2  1  0
  7  6  2  0
  9  6  1  0
 10  9  1  0
 10 11  1  6
 11 12  1  0
 12 13  2  0
 13 14  1  0
 15 14  2  0
 16 15  1  0
 17 12  1  0
 17 16  2  0
 18 22  1  0
 18 10  1  0
 19 18  2  0
 21 20  1  6
 21 23  1  0
 21 22  1  0
 23 24  1  0
 25 23  2  0
M  END
$$$$
