DFA.pdb
     RDKit          3D

 25 25  0  0  1  0  0  0  0  0999 V2000
   10.4814  -16.7173   18.7639 N   0  0  0  0  0  0  0  0  0  0  0  0
   10.4983  -17.5518   19.9851 C   0  0  1  0  0  0  0  0  0  0  0  0
   11.7549  -18.3773   19.9583 C   0  0  0  0  0  0  0  0  0  0  0  0
   11.8380  -19.2406   18.7848 C   0  0  0  0  0  0  0  0  0  0  0  0
   10.7765  -19.6336   18.2420 O   0  0  0  0  0  0  0  0  0  0  0  0
   10.4433  -16.7170   21.1716 C   0  0  0  0  0  0  0  0  0  0  0  0
   11.3009  -15.7914   21.3274 O   0  0  0  0  0  0  0  0  0  0  0  0
   13.0680  -19.6333   18.2613 O   0  0  0  0  0  0  0  0  0  0  0  0
    9.4940  -16.8284   22.2064 N   0  0  0  0  0  0  0  0  0  0  0  0
    9.4556  -15.8586   23.3132 C   0  0  1  0  0  0  0  0  0  0  0  0
    8.0693  -15.2666   23.3218 C   0  0  0  0  0  0  0  0  0  0  0  0
    7.7445  -14.4553   22.1536 C   0  0  0  0  0  0  0  0  0  0  0  0
    8.2942  -13.1725   22.0921 C   0  0  0  0  0  0  0  0  0  0  0  0
    8.0479  -12.3257   21.0289 C   0  0  0  0  0  0  0  0  0  0  0  0
    7.2431  -12.7262   19.9852 C   0  0  0  0  0  0  0  0  0  0  0  0
    6.6984  -13.9874   20.0387 C   0  0  0  0  0  0  0  0  0  0  0  0
    6.9557  -14.8176   21.1075 C   0  0  0  0  0  0  0  0  0  0  0  0
    9.5947  -16.6222   24.5591 C   0  0  0  0  0  0  0  0  0  0  0  0
    9.3117  -16.2274   25.7044 O   0  0  0  0  0  0  0  0  0  0  0  0
   10.4591  -20.1825   25.1262 C   0  0  0  0  0  0  0  0  0  0  0  0
   10.3632  -18.7302   25.5854 C   0  0  2  0  0  0  0  0  0  0  0  0
   10.1126  -17.9570   24.4047 N   0  0  0  0  0  0  0  0  0  0  0  0
   11.6305  -18.3922   26.2409 C   0  0  0  0  0  0  0  0  0  0  0  0
   12.5129  -17.4610   25.7260 O   0  0  0  0  0  0  0  0  0  0  0  0
   11.9393  -18.9628   27.3121 O   0  0  0  0  0  0  0  0  0  0  0  0
  2  3  1  0
  2  1  1  6
  3  4  1  0
  4  8  1  0
  4  5  2  0
  6  2  1  0
  7  6  2  0
  9  6  1  0
 10  9  1  0
 10 11  1  1
 11 12  1  0
 12 13  2  0
 13 14  1  0
 15 14  2  0
 16 15  1  0
 17 12  1  0
 17 16  2  0
 18 22  1  0
 18 10  1  0
 19 18  2  0
 21 20  1  6
 21 23  1  0
 21 22  1  0
 23 24  1  0
 25 23  2  0
M  END
$$$$
