DFA.pdb
     RDKit          3D

 25 25  0  0  1  0  0  0  0  0999 V2000
    8.5773  -17.5258   20.0882 N   0  0  0  0  0  0  0  0  0  0  0  0
    9.9308  -17.1269   20.5323 C   0  0  1  0  0  0  0  0  0  0  0  0
   10.5935  -16.4066   19.3908 C   0  0  0  0  0  0  0  0  0  0  0  0
   10.8453  -17.2752   18.2456 C   0  0  0  0  0  0  0  0  0  0  0  0
   10.0715  -18.2402   18.0319 O   0  0  0  0  0  0  0  0  0  0  0  0
    9.8504  -16.2826   21.7106 C   0  0  0  0  0  0  0  0  0  0  0  0
   10.9112  -15.7690   22.1875 O   0  0  0  0  0  0  0  0  0  0  0  0
   11.9236  -17.0522   17.3919 O   0  0  0  0  0  0  0  0  0  0  0  0
    8.6681  -15.9558   22.4033 N   0  0  0  0  0  0  0  0  0  0  0  0
    8.7080  -15.1936   23.6619 C   0  0  1  0  0  0  0  0  0  0  0  0
    7.3922  -14.4657   23.7687 C   0  0  0  0  0  0  0  0  0  0  0  0
    7.2040  -13.7237   25.0106 C   0  0  0  0  0  0  0  0  0  0  0  0
    8.0422  -12.6291   25.2358 C   0  0  0  0  0  0  0  0  0  0  0  0
    7.9450  -11.8616   26.3802 C   0  0  0  0  0  0  0  0  0  0  0  0
    7.0072  -12.1568   27.3450 C   0  0  0  0  0  0  0  0  0  0  0  0
    6.1787  -13.2328   27.1305 C   0  0  0  0  0  0  0  0  0  0  0  0
    6.2907  -13.9863   25.9827 C   0  0  0  0  0  0  0  0  0  0  0  0
    8.7378  -16.1715   24.7562 C   0  0  0  0  0  0  0  0  0  0  0  0
    7.8324  -16.9682   25.0615 O   0  0  0  0  0  0  0  0  0  0  0  0
   11.5162  -17.8321   26.1843 C   0  0  0  0  0  0  0  0  0  0  0  0
   10.1399  -17.2429   26.4807 C   0  0  2  0  0  0  0  0  0  0  0  0
    9.9500  -16.1838   25.5336 N   0  0  0  0  0  0  0  0  0  0  0  0
   10.1504  -16.7807   27.8721 C   0  0  0  0  0  0  0  0  0  0  0  0
   10.0139  -15.4493   28.2182 O   0  0  0  0  0  0  0  0  0  0  0  0
   10.2877  -17.6153   28.7956 O   0  0  0  0  0  0  0  0  0  0  0  0
  2  3  1  0
  2  1  1  6
  3  4  1  0
  4  8  1  0
  4  5  2  0
  6  2  1  0
  7  6  2  0
  9  6  1  0
 10  9  1  0
 10 11  1  1
 11 12  1  0
 12 13  2  0
 13 14  1  0
 15 14  2  0
 16 15  1  0
 17 12  1  0
 17 16  2  0
 18 22  1  0
 18 10  1  0
 19 18  2  0
 21 20  1  6
 21 23  1  0
 21 22  1  0
 23 24  1  0
 25 23  2  0
M  END
$$$$
