DFA.pdb
     RDKit          3D

 25 25  0  0  1  0  0  0  0  0999 V2000
   10.7240  -16.8243   19.6030 N   0  0  0  0  0  0  0  0  0  0  0  0
    9.8346  -17.3732   20.6498 C   0  0  1  0  0  0  0  0  0  0  0  0
   10.3349  -18.7470   21.0016 C   0  0  0  0  0  0  0  0  0  0  0  0
   10.1792  -19.7012   19.9086 C   0  0  0  0  0  0  0  0  0  0  0  0
   11.2036  -20.2295   19.4114 O   0  0  0  0  0  0  0  0  0  0  0  0
    9.8229  -16.5046   21.8131 C   0  0  0  0  0  0  0  0  0  0  0  0
   10.9192  -16.0434   22.2624 O   0  0  0  0  0  0  0  0  0  0  0  0
    8.9206  -20.0323   19.4114 O   0  0  0  0  0  0  0  0  0  0  0  0
    8.6733  -16.0989   22.5190 N   0  0  0  0  0  0  0  0  0  0  0  0
    8.7715  -15.2145   23.6916 C   0  0  1  0  0  0  0  0  0  0  0  0
    7.4585  -14.4807   23.7911 C   0  0  0  0  0  0  0  0  0  0  0  0
    7.3395  -13.5957   24.9447 C   0  0  0  0  0  0  0  0  0  0  0  0
    8.0997  -12.4237   24.9337 C   0  0  0  0  0  0  0  0  0  0  0  0
    8.0585  -11.5200   25.9776 C   0  0  0  0  0  0  0  0  0  0  0  0
    7.2568  -11.7506   27.0737 C   0  0  0  0  0  0  0  0  0  0  0  0
    6.5057  -12.9022   27.0919 C   0  0  0  0  0  0  0  0  0  0  0  0
    6.5602  -13.7915   26.0412 C   0  0  0  0  0  0  0  0  0  0  0  0
    8.8615  -16.0781   24.8753 C   0  0  0  0  0  0  0  0  0  0  0  0
    8.0801  -16.9959   25.1827 O   0  0  0  0  0  0  0  0  0  0  0  0
   11.5583  -17.2670   26.7296 C   0  0  0  0  0  0  0  0  0  0  0  0
   10.1685  -16.6562   26.8865 C   0  0  2  0  0  0  0  0  0  0  0  0
    9.9768  -15.8095   25.7458 N   0  0  0  0  0  0  0  0  0  0  0  0
   10.1503  -15.9271   28.1585 C   0  0  0  0  0  0  0  0  0  0  0  0
   10.2852  -16.5560   29.3822 O   0  0  0  0  0  0  0  0  0  0  0  0
   10.0075  -14.6830   28.1514 O   0  0  0  0  0  0  0  0  0  0  0  0
  2  3  1  0
  2  1  1  6
  3  4  1  0
  4  8  1  0
  4  5  2  0
  6  2  1  0
  7  6  2  0
  9  6  1  0
 10  9  1  0
 10 11  1  1
 11 12  1  0
 12 13  2  0
 13 14  1  0
 15 14  2  0
 16 15  1  0
 17 12  1  0
 17 16  2  0
 18 22  1  0
 18 10  1  0
 19 18  2  0
 21 20  1  6
 21 23  1  0
 21 22  1  0
 23 24  1  0
 25 23  2  0
M  END
$$$$
