DFA.pdb
     RDKit          3D

 25 25  0  0  1  0  0  0  0  0999 V2000
    8.8132  -17.7381   20.8364 N   0  0  0  0  0  0  0  0  0  0  0  0
   10.1352  -17.2389   21.2737 C   0  0  1  0  0  0  0  0  0  0  0  0
   10.8273  -16.6610   20.0702 C   0  0  0  0  0  0  0  0  0  0  0  0
   10.9112  -17.6045   18.9603 C   0  0  0  0  0  0  0  0  0  0  0  0
    9.9621  -18.4031   18.7674 O   0  0  0  0  0  0  0  0  0  0  0  0
    9.9819  -16.2440   22.3198 C   0  0  0  0  0  0  0  0  0  0  0  0
   10.9896  -15.5631   22.6903 O   0  0  0  0  0  0  0  0  0  0  0  0
   12.0203  -17.6332   18.1176 O   0  0  0  0  0  0  0  0  0  0  0  0
    8.7800  -15.9392   22.9885 N   0  0  0  0  0  0  0  0  0  0  0  0
    8.7289  -14.8984   24.0281 C   0  0  1  0  0  0  0  0  0  0  0  0
    7.3388  -14.3166   23.9899 C   0  0  0  0  0  0  0  0  0  0  0  0
    7.0781  -13.2915   24.9946 C   0  0  0  0  0  0  0  0  0  0  0  0
    6.0017  -13.5021   25.8598 C   0  0  0  0  0  0  0  0  0  0  0  0
    5.6715  -12.5920   26.8452 C   0  0  0  0  0  0  0  0  0  0  0  0
    6.4028  -11.4359   27.0056 C   0  0  0  0  0  0  0  0  0  0  0  0
    7.4637  -11.2215   26.1576 C   0  0  0  0  0  0  0  0  0  0  0  0
    7.7776  -12.1409   25.1810 C   0  0  0  0  0  0  0  0  0  0  0  0
    8.8657  -15.5766   25.3228 C   0  0  0  0  0  0  0  0  0  0  0  0
    9.0034  -15.0317   26.4326 O   0  0  0  0  0  0  0  0  0  0  0  0
    8.4828  -19.1677   26.1822 C   0  0  0  0  0  0  0  0  0  0  0  0
    8.9418  -17.7462   26.4952 C   0  0  2  0  0  0  0  0  0  0  0  0
    8.8328  -17.0152   25.2669 N   0  0  0  0  0  0  0  0  0  0  0  0
   10.3161  -17.8295   26.9996 C   0  0  0  0  0  0  0  0  0  0  0  0
   10.6356  -18.4339   28.2010 O   0  0  0  0  0  0  0  0  0  0  0  0
   11.2490  -17.3372   26.3246 O   0  0  0  0  0  0  0  0  0  0  0  0
  2  3  1  0
  2  1  1  6
  3  4  1  0
  4  8  1  0
  4  5  2  0
  6  2  1  0
  7  6  2  0
  9  6  1  0
 10  9  1  0
 10 11  1  1
 11 12  1  0
 12 13  2  0
 13 14  1  0
 15 14  2  0
 16 15  1  0
 17 12  1  0
 17 16  2  0
 18 22  1  0
 18 10  1  0
 19 18  2  0
 21 20  1  6
 21 23  1  0
 21 22  1  0
 23 24  1  0
 25 23  2  0
M  END
$$$$
