DFA.pdb
     RDKit          3D

 25 25  0  0  1  0  0  0  0  0999 V2000
    9.1982  -17.0421   16.9918 N   0  0  0  0  0  0  0  0  0  0  0  0
    9.2462  -17.9857   18.1300 C   0  0  1  0  0  0  0  0  0  0  0  0
   10.1127  -19.1465   17.7262 C   0  0  0  0  0  0  0  0  0  0  0  0
    9.5553  -19.9057   16.6116 C   0  0  0  0  0  0  0  0  0  0  0  0
    8.3709  -19.6870   16.2582 O   0  0  0  0  0  0  0  0  0  0  0  0
    9.7682  -17.3273   19.3139 C   0  0  0  0  0  0  0  0  0  0  0  0
   10.8322  -16.6365   19.2296 O   0  0  0  0  0  0  0  0  0  0  0  0
   10.3114  -20.8632   15.9388 O   0  0  0  0  0  0  0  0  0  0  0  0
    9.1886  -17.3723   20.5971 N   0  0  0  0  0  0  0  0  0  0  0  0
    9.7668  -16.6185   21.7215 C   0  0  1  0  0  0  0  0  0  0  0  0
    8.6499  -15.7945   22.3097 C   0  0  0  0  0  0  0  0  0  0  0  0
    8.2670  -14.6309   21.5174 C   0  0  0  0  0  0  0  0  0  0  0  0
    7.0105  -14.6569   20.9075 C   0  0  0  0  0  0  0  0  0  0  0  0
    6.5541  -13.6055   20.1366 C   0  0  0  0  0  0  0  0  0  0  0  0
    7.3341  -12.4866   19.9442 C   0  0  0  0  0  0  0  0  0  0  0  0
    8.5722  -12.4537   20.5412 C   0  0  0  0  0  0  0  0  0  0  0  0
    9.0099  -13.5122   21.3066 C   0  0  0  0  0  0  0  0  0  0  0  0
   10.1502  -17.5988   22.7447 C   0  0  0  0  0  0  0  0  0  0  0  0
    9.4467  -18.5280   23.1796 O   0  0  0  0  0  0  0  0  0  0  0  0
   13.4666  -18.3423   24.1879 C   0  0  0  0  0  0  0  0  0  0  0  0
   11.9422  -18.3923   24.2435 C   0  0  2  0  0  0  0  0  0  0  0  0
   11.4791  -17.4408   23.2766 N   0  0  0  0  0  0  0  0  0  0  0  0
   11.5418  -18.0654   25.6156 C   0  0  0  0  0  0  0  0  0  0  0  0
   11.7809  -18.9086   26.6847 O   0  0  0  0  0  0  0  0  0  0  0  0
   10.9586  -16.9808   25.8433 O   0  0  0  0  0  0  0  0  0  0  0  0
  2  3  1  0
  2  1  1  6
  3  4  1  0
  4  8  1  0
  4  5  2  0
  6  2  1  0
  7  6  2  0
  9  6  1  0
 10  9  1  0
 10 11  1  1
 11 12  1  0
 12 13  2  0
 13 14  1  0
 15 14  2  0
 16 15  1  0
 17 12  1  0
 17 16  2  0
 18 22  1  0
 18 10  1  0
 19 18  2  0
 21 20  1  1
 21 23  1  0
 21 22  1  0
 23 24  1  0
 25 23  2  0
M  END
$$$$
