DFA.pdb
     RDKit          3D

 25 25  0  0  1  0  0  0  0  0999 V2000
   10.6981  -17.1675   17.6196 N   0  0  0  0  0  0  0  0  0  0  0  0
   10.2617  -17.7534   18.9058 C   0  0  1  0  0  0  0  0  0  0  0  0
   10.9913  -19.0558   19.0866 C   0  0  0  0  0  0  0  0  0  0  0  0
   10.8038  -19.9683   17.9635 C   0  0  0  0  0  0  0  0  0  0  0  0
    9.6498  -20.1298   17.4967 O   0  0  0  0  0  0  0  0  0  0  0  0
   10.5381  -16.8400   19.9999 C   0  0  0  0  0  0  0  0  0  0  0  0
   11.5570  -16.0819   19.9417 O   0  0  0  0  0  0  0  0  0  0  0  0
   11.8776  -20.6586   17.4054 O   0  0  0  0  0  0  0  0  0  0  0  0
    9.7568  -16.6978   21.1635 N   0  0  0  0  0  0  0  0  0  0  0  0
   10.0512  -15.6515   22.1560 C   0  0  1  0  0  0  0  0  0  0  0  0
    8.7562  -14.9250   22.4160 C   0  0  0  0  0  0  0  0  0  0  0  0
    8.2005  -14.2341   21.2575 C   0  0  0  0  0  0  0  0  0  0  0  0
    8.9001  -13.1242   20.7776 C   0  0  0  0  0  0  0  0  0  0  0  0
    8.4578  -12.4014   19.6867 C   0  0  0  0  0  0  0  0  0  0  0  0
    7.2997  -12.7581   19.0319 C   0  0  0  0  0  0  0  0  0  0  0  0
    6.6055  -13.8493   19.4985 C   0  0  0  0  0  0  0  0  0  0  0  0
    7.0625  -14.5577   20.5880 C   0  0  0  0  0  0  0  0  0  0  0  0
   10.4095  -16.3330   23.4059 C   0  0  0  0  0  0  0  0  0  0  0  0
   10.5635  -15.8019   24.5203 O   0  0  0  0  0  0  0  0  0  0  0  0
   10.8211  -19.9649   24.1125 C   0  0  0  0  0  0  0  0  0  0  0  0
   10.9594  -18.4884   24.4732 C   0  0  2  0  0  0  0  0  0  0  0  0
   10.5934  -17.7570   23.2960 N   0  0  0  0  0  0  0  0  0  0  0  0
   12.3488  -18.2652   24.8851 C   0  0  0  0  0  0  0  0  0  0  0  0
   13.2447  -17.5348   24.1268 O   0  0  0  0  0  0  0  0  0  0  0  0
   12.7544  -18.7502   25.9661 O   0  0  0  0  0  0  0  0  0  0  0  0
  2  3  1  0
  2  1  1  6
  3  4  1  0
  4  8  1  0
  4  5  2  0
  6  2  1  0
  7  6  2  0
  9  6  1  0
 10  9  1  0
 10 11  1  1
 11 12  1  0
 12 13  2  0
 13 14  1  0
 15 14  2  0
 16 15  1  0
 17 12  1  0
 17 16  2  0
 18 22  1  0
 18 10  1  0
 19 18  2  0
 21 20  1  6
 21 23  1  0
 21 22  1  0
 23 24  1  0
 25 23  2  0
M  END
$$$$
