DFA.pdb
     RDKit          3D

 25 25  0  0  1  0  0  0  0  0999 V2000
   11.1984  -16.5952   20.0600 N   0  0  0  0  0  0  0  0  0  0  0  0
   10.8093  -17.2530   21.3265 C   0  0  1  0  0  0  0  0  0  0  0  0
   11.9467  -18.1411   21.7494 C   0  0  0  0  0  0  0  0  0  0  0  0
   12.1212  -19.2921   20.8696 C   0  0  0  0  0  0  0  0  0  0  0  0
   11.1040  -19.8709   20.4158 O   0  0  0  0  0  0  0  0  0  0  0  0
   10.5112  -16.2608   22.3435 C   0  0  0  0  0  0  0  0  0  0  0  0
   11.3289  -15.3095   22.5504 O   0  0  0  0  0  0  0  0  0  0  0  0
   13.3898  -19.7558   20.5283 O   0  0  0  0  0  0  0  0  0  0  0  0
    9.3582  -16.2404   23.1527 N   0  0  0  0  0  0  0  0  0  0  0  0
    9.1335  -15.1648   24.1322 C   0  0  1  0  0  0  0  0  0  0  0  0
    7.6452  -14.9307   24.1838 C   0  0  0  0  0  0  0  0  0  0  0  0
    7.2216  -13.8987   25.1239 C   0  0  0  0  0  0  0  0  0  0  0  0
    7.6415  -12.5906   24.8706 C   0  0  0  0  0  0  0  0  0  0  0  0
    7.2947  -11.5418   25.7000 C   0  0  0  0  0  0  0  0  0  0  0  0
    6.5151  -11.7575   26.8149 C   0  0  0  0  0  0  0  0  0  0  0  0
    6.0981  -13.0424   27.0709 C   0  0  0  0  0  0  0  0  0  0  0  0
    6.4542  -14.0754   26.2319 C   0  0  0  0  0  0  0  0  0  0  0  0
    9.5223  -15.6915   25.4461 C   0  0  0  0  0  0  0  0  0  0  0  0
    9.4833  -16.8812   25.8074 O   0  0  0  0  0  0  0  0  0  0  0  0
   10.9201  -13.9129   28.4113 C   0  0  0  0  0  0  0  0  0  0  0  0
   10.6509  -15.1609   27.5749 C   0  0  2  0  0  0  0  0  0  0  0  0
    9.9910  -14.7065   26.3863 N   0  0  0  0  0  0  0  0  0  0  0  0
    9.8275  -16.0635   28.3856 C   0  0  0  0  0  0  0  0  0  0  0  0
    8.5187  -16.3716   28.0645 O   0  0  0  0  0  0  0  0  0  0  0  0
   10.3170  -16.5843   29.4139 O   0  0  0  0  0  0  0  0  0  0  0  0
  2  3  1  0
  2  1  1  6
  3  4  1  0
  4  8  1  0
  4  5  2  0
  6  2  1  0
  7  6  2  0
  9  6  1  0
 10  9  1  0
 10 11  1  1
 11 12  1  0
 12 13  2  0
 13 14  1  0
 15 14  2  0
 16 15  1  0
 17 12  1  0
 17 16  2  0
 18 22  1  0
 18 10  1  0
 19 18  2  0
 21 20  1  1
 21 23  1  0
 21 22  1  0
 23 24  1  0
 25 23  2  0
M  END
$$$$
