DFA.pdb
     RDKit          3D

 25 25  0  0  1  0  0  0  0  0999 V2000
    9.8970  -16.9838   20.1404 N   0  0  0  0  0  0  0  0  0  0  0  0
   10.7721  -17.1602   21.3199 C   0  0  1  0  0  0  0  0  0  0  0  0
   12.1967  -17.0274   20.8570 C   0  0  0  0  0  0  0  0  0  0  0  0
   12.6072  -18.1151   19.9751 C   0  0  0  0  0  0  0  0  0  0  0  0
   12.1013  -19.2526   20.1356 O   0  0  0  0  0  0  0  0  0  0  0  0
   10.4567  -16.1749   22.3384 C   0  0  0  0  0  0  0  0  0  0  0  0
   11.2282  -15.1788   22.5076 O   0  0  0  0  0  0  0  0  0  0  0  0
   13.5454  -17.9125   18.9652 O   0  0  0  0  0  0  0  0  0  0  0  0
    9.3336  -16.2083   23.1882 N   0  0  0  0  0  0  0  0  0  0  0  0
    9.0991  -15.1493   24.1834 C   0  0  1  0  0  0  0  0  0  0  0  0
    7.6076  -14.9412   24.2505 C   0  0  0  0  0  0  0  0  0  0  0  0
    7.1754  -13.9226   25.2012 C   0  0  0  0  0  0  0  0  0  0  0  0
    7.5420  -12.6012   24.9346 C   0  0  0  0  0  0  0  0  0  0  0  0
    7.1827  -11.5634   25.7725 C   0  0  0  0  0  0  0  0  0  0  0  0
    6.4433  -11.8038   26.9095 C   0  0  0  0  0  0  0  0  0  0  0  0
    6.0788  -13.1019   27.1787 C   0  0  0  0  0  0  0  0  0  0  0  0
    6.4465  -14.1236   26.3310 C   0  0  0  0  0  0  0  0  0  0  0  0
    9.5081  -15.6861   25.4871 C   0  0  0  0  0  0  0  0  0  0  0  0
    9.5085  -16.8827   25.8274 O   0  0  0  0  0  0  0  0  0  0  0  0
   10.7344  -13.9313   28.5359 C   0  0  0  0  0  0  0  0  0  0  0  0
   10.5898  -15.1591   27.6410 C   0  0  2  0  0  0  0  0  0  0  0  0
    9.9471  -14.7032   26.4436 N   0  0  0  0  0  0  0  0  0  0  0  0
    9.8016  -16.1506   28.3798 C   0  0  0  0  0  0  0  0  0  0  0  0
    8.5265  -16.5254   27.9995 O   0  0  0  0  0  0  0  0  0  0  0  0
   10.2912  -16.6883   29.3993 O   0  0  0  0  0  0  0  0  0  0  0  0
  2  3  1  0
  2  1  1  6
  3  4  1  0
  4  8  1  0
  4  5  2  0
  6  2  1  0
  7  6  2  0
  9  6  1  0
 10  9  1  0
 10 11  1  1
 11 12  1  0
 12 13  2  0
 13 14  1  0
 15 14  2  0
 16 15  1  0
 17 12  1  0
 17 16  2  0
 18 22  1  0
 18 10  1  0
 19 18  2  0
 21 20  1  1
 21 23  1  0
 21 22  1  0
 23 24  1  0
 25 23  2  0
M  END
$$$$
