DFA.pdb
     RDKit          3D

 25 25  0  0  1  0  0  0  0  0999 V2000
    8.5628  -17.5119   20.2354 N   0  0  0  0  0  0  0  0  0  0  0  0
    9.9147  -17.3422   20.8114 C   0  0  1  0  0  0  0  0  0  0  0  0
   10.8028  -16.7784   19.7368 C   0  0  0  0  0  0  0  0  0  0  0  0
   11.0284  -17.7161   18.6417 C   0  0  0  0  0  0  0  0  0  0  0  0
   10.4236  -18.8160   18.6480 O   0  0  0  0  0  0  0  0  0  0  0  0
    9.8678  -16.4657   21.9678 C   0  0  0  0  0  0  0  0  0  0  0  0
   10.9529  -16.0772   22.5046 O   0  0  0  0  0  0  0  0  0  0  0  0
   11.8988  -17.4122   17.5971 O   0  0  0  0  0  0  0  0  0  0  0  0
    8.6951  -15.9766   22.5760 N   0  0  0  0  0  0  0  0  0  0  0  0
    8.7530  -15.1806   23.8128 C   0  0  1  0  0  0  0  0  0  0  0  0
    7.4553  -14.4182   23.8978 C   0  0  0  0  0  0  0  0  0  0  0  0
    7.3100  -13.5912   25.0907 C   0  0  0  0  0  0  0  0  0  0  0  0
    6.2593  -13.8983   25.9587 C   0  0  0  0  0  0  0  0  0  0  0  0
    6.0359  -13.1760   27.1147 C   0  0  0  0  0  0  0  0  0  0  0  0
    6.8525  -12.1186   27.4499 C   0  0  0  0  0  0  0  0  0  0  0  0
    7.8888  -11.8101   26.6005 C   0  0  0  0  0  0  0  0  0  0  0  0
    8.0957  -12.5423   25.4521 C   0  0  0  0  0  0  0  0  0  0  0  0
    8.7584  -16.1281   24.9341 C   0  0  0  0  0  0  0  0  0  0  0  0
    7.8671  -16.9502   25.2124 O   0  0  0  0  0  0  0  0  0  0  0  0
   11.3556  -17.8560   26.3879 C   0  0  0  0  0  0  0  0  0  0  0  0
   10.0927  -17.0904   26.7728 C   0  0  2  0  0  0  0  0  0  0  0  0
    9.9258  -16.0744   25.7756 N   0  0  0  0  0  0  0  0  0  0  0  0
   10.2998  -16.5508   28.1204 C   0  0  0  0  0  0  0  0  0  0  0  0
   10.3649  -15.1946   28.3803 O   0  0  0  0  0  0  0  0  0  0  0  0
   10.4244  -17.3393   29.0853 O   0  0  0  0  0  0  0  0  0  0  0  0
  2  3  1  0
  2  1  1  6
  3  4  1  0
  4  8  1  0
  4  5  2  0
  6  2  1  0
  7  6  2  0
  9  6  1  0
 10  9  1  0
 10 11  1  1
 11 12  1  0
 12 13  2  0
 13 14  1  0
 15 14  2  0
 16 15  1  0
 17 12  1  0
 17 16  2  0
 18 22  1  0
 18 10  1  0
 19 18  2  0
 21 20  1  6
 21 23  1  0
 21 22  1  0
 23 24  1  0
 25 23  2  0
M  END
$$$$
