WLL.pdb
     RDKit          3D

 31 32  0  0  1  0  0  0  0  0999 V2000
    6.1335  -18.5837   24.1817 N   0  0  0  0  0  0  0  0  0  0  0  0
    6.5920  -17.2074   24.1527 C   0  0  1  0  0  0  0  0  0  0  0  0
    6.7876  -16.7813   25.5918 C   0  0  0  0  0  0  0  0  0  0  0  0
    6.1208  -15.5108   25.9136 C   0  0  0  0  0  0  0  0  0  0  0  0
    4.8058  -15.3346   26.2889 C   0  0  0  0  0  0  0  0  0  0  0  0
    4.6044  -14.0247   26.4887 N   0  0  0  0  0  0  0  0  0  0  0  0
    5.7211  -13.3132   26.2655 C   0  0  0  0  0  0  0  0  0  0  0  0
    6.0045  -11.9659   26.3385 C   0  0  0  0  0  0  0  0  0  0  0  0
    7.2623  -11.5273   26.0470 C   0  0  0  0  0  0  0  0  0  0  0  0
    8.2243  -12.4324   25.6864 C   0  0  0  0  0  0  0  0  0  0  0  0
    7.9418  -13.7607   25.6153 C   0  0  0  0  0  0  0  0  0  0  0  0
    6.6846  -14.2547   25.9004 C   0  0  0  0  0  0  0  0  0  0  0  0
    7.9135  -17.0975   23.4875 C   0  0  0  0  0  0  0  0  0  0  0  0
    8.7479  -18.0283   23.4772 O   0  0  0  0  0  0  0  0  0  0  0  0
    8.4200  -12.4814   20.3115 C   0  0  0  0  0  0  0  0  0  0  0  0
    8.1125  -13.8910   20.8825 C   0  0  1  0  0  0  0  0  0  0  0  0
    7.5182  -14.6568   19.7514 C   0  0  0  0  0  0  0  0  0  0  0  0
    9.4081  -14.3580   21.4127 C   0  0  0  0  0  0  0  0  0  0  0  0
    9.4891  -15.5854   22.2185 C   0  0  2  0  0  0  0  0  0  0  0  0
    8.2365  -15.8848   22.8390 N   0  0  0  0  0  0  0  0  0  0  0  0
   10.6460  -15.6873   23.1201 C   0  0  0  0  0  0  0  0  0  0  0  0
   11.8423  -15.4981   22.7517 O   0  0  0  0  0  0  0  0  0  0  0  0
   10.2309  -14.8336   28.7620 C   0  0  0  0  0  0  0  0  0  0  0  0
   10.6933  -14.8644   27.3479 C   0  0  1  0  0  0  0  0  0  0  0  0
   11.6782  -13.7065   27.0961 C   0  0  0  0  0  0  0  0  0  0  0  0
   11.2016  -16.1183   26.7825 C   0  0  0  0  0  0  0  0  0  0  0  0
   11.6511  -16.2242   25.3839 C   0  0  2  0  0  0  0  0  0  0  0  0
   10.4729  -16.0117   24.4844 N   0  0  0  0  0  0  0  0  0  0  0  0
   12.2639  -17.4771   24.9659 C   0  0  0  0  0  0  0  0  0  0  0  0
   11.8136  -18.3265   24.1657 O   0  0  0  0  0  0  0  0  0  0  0  0
   13.5340  -17.8390   25.4972 O   0  0  0  0  0  0  0  0  0  0  0  0
  2  1  1  1
  2 13  1  0
  2  3  1  0
  3  4  1  0
  4  5  2  0
  6  5  1  0
  7  6  1  0
  8  7  2  0
  9  8  1  0
 10  9  2  0
 10 11  1  0
 11 12  2  0
 12  7  1  0
 12  4  1  0
 13 14  2  0
 16 15  1  6
 17 16  1  0
 18 16  1  0
 19 18  1  1
 20 19  1  0
 20 13  1  0
 21 19  1  0
 22 21  2  0
 24 23  1  1
 24 26  1  0
 24 25  1  0
 27 26  1  1
 27 29  1  0
 27 28  1  0
 28 21  1  0
 29 31  1  0
 30 29  2  0
M  END
$$$$
