WLL.pdb
     RDKit          3D

 31 32  0  0  1  0  0  0  0  0999 V2000
    5.9124  -18.9358   24.5438 N   0  0  0  0  0  0  0  0  0  0  0  0
    6.3272  -17.5851   24.2141 C   0  0  1  0  0  0  0  0  0  0  0  0
    6.7453  -16.9271   25.5114 C   0  0  0  0  0  0  0  0  0  0  0  0
    5.9590  -15.7259   25.8293 C   0  0  0  0  0  0  0  0  0  0  0  0
    4.5968  -15.6540   26.0309 C   0  0  0  0  0  0  0  0  0  0  0  0
    4.2844  -14.3779   26.2956 N   0  0  0  0  0  0  0  0  0  0  0  0
    5.3714  -13.5896   26.2813 C   0  0  0  0  0  0  0  0  0  0  0  0
    5.5529  -12.2390   26.4904 C   0  0  0  0  0  0  0  0  0  0  0  0
    6.8066  -11.7090   26.4084 C   0  0  0  0  0  0  0  0  0  0  0  0
    7.8658  -12.5271   26.1195 C   0  0  0  0  0  0  0  0  0  0  0  0
    7.6838  -13.8589   25.9138 C   0  0  0  0  0  0  0  0  0  0  0  0
    6.4351  -14.4435   25.9856 C   0  0  0  0  0  0  0  0  0  0  0  0
    7.5192  -17.5919   23.3309 C   0  0  0  0  0  0  0  0  0  0  0  0
    8.3453  -18.5299   23.3125 O   0  0  0  0  0  0  0  0  0  0  0  0
    9.3944  -12.8812   21.1191 C   0  0  0  0  0  0  0  0  0  0  0  0
    8.1708  -13.8353   21.1085 C   0  0  1  0  0  0  0  0  0  0  0  0
    7.2064  -13.2340   20.1455 C   0  0  0  0  0  0  0  0  0  0  0  0
    8.7411  -15.1525   20.7658 C   0  0  0  0  0  0  0  0  0  0  0  0
    8.9461  -16.1732   21.8043 C   0  0  2  0  0  0  0  0  0  0  0  0
    7.7233  -16.4865   22.4753 N   0  0  0  0  0  0  0  0  0  0  0  0
   10.0869  -15.9534   22.7054 C   0  0  0  0  0  0  0  0  0  0  0  0
   11.2594  -15.6949   22.3039 O   0  0  0  0  0  0  0  0  0  0  0  0
   12.4504  -14.0518   27.3958 C   0  0  0  0  0  0  0  0  0  0  0  0
   11.4081  -15.1088   27.4997 C   0  0  1  0  0  0  0  0  0  0  0  0
   10.5798  -14.8998   28.7821 C   0  0  0  0  0  0  0  0  0  0  0  0
   10.5377  -15.3788   26.3509 C   0  0  0  0  0  0  0  0  0  0  0  0
   11.0724  -15.7590   25.0322 C   0  0  2  0  0  0  0  0  0  0  0  0
    9.9245  -16.0223   24.1073 N   0  0  0  0  0  0  0  0  0  0  0  0
   11.9290  -16.9345   24.9657 C   0  0  0  0  0  0  0  0  0  0  0  0
   11.5863  -18.1344   24.8786 O   0  0  0  0  0  0  0  0  0  0  0  0
   13.3421  -16.7657   24.9991 O   0  0  0  0  0  0  0  0  0  0  0  0
  2  1  1  1
  2 13  1  0
  2  3  1  0
  3  4  1  0
  4  5  2  0
  6  5  1  0
  7  6  1  0
  8  7  2  0
  9  8  1  0
 10  9  2  0
 10 11  1  0
 11 12  2  0
 12  7  1  0
 12  4  1  0
 13 14  2  0
 16 15  1  6
 17 16  1  0
 18 16  1  0
 19 18  1  1
 20 19  1  0
 20 13  1  0
 21 19  1  0
 22 21  2  0
 24 23  1  6
 24 26  1  0
 24 25  1  0
 27 26  1  1
 27 29  1  0
 27 28  1  0
 28 21  1  0
 29 31  1  0
 30 29  2  0
M  END
$$$$
