WLL.pdb
     RDKit          3D

 31 32  0  0  1  0  0  0  0  0999 V2000
    5.6082  -18.2887   23.6918 N   0  0  0  0  0  0  0  0  0  0  0  0
    6.3264  -17.0318   23.7892 C   0  0  1  0  0  0  0  0  0  0  0  0
    6.6959  -16.8512   25.2458 C   0  0  0  0  0  0  0  0  0  0  0  0
    6.2755  -15.5520   25.7914 C   0  0  0  0  0  0  0  0  0  0  0  0
    5.0129  -15.2000   26.2192 C   0  0  0  0  0  0  0  0  0  0  0  0
    5.0583  -13.9288   26.6413 N   0  0  0  0  0  0  0  0  0  0  0  0
    6.2909  -13.4105   26.5173 C   0  0  0  0  0  0  0  0  0  0  0  0
    6.8209  -12.1719   26.8102 C   0  0  0  0  0  0  0  0  0  0  0  0
    8.1416  -11.9325   26.5699 C   0  0  0  0  0  0  0  0  0  0  0  0
    8.9208  -12.9266   26.0413 C   0  0  0  0  0  0  0  0  0  0  0  0
    8.3952  -14.1473   25.7534 C   0  0  0  0  0  0  0  0  0  0  0  0
    7.0647  -14.4393   25.9781 C   0  0  0  0  0  0  0  0  0  0  0  0
    7.5973  -17.0812   23.0254 C   0  0  0  0  0  0  0  0  0  0  0  0
    8.3037  -18.1096   22.9482 O   0  0  0  0  0  0  0  0  0  0  0  0
    8.6641  -12.4441   20.0301 C   0  0  0  0  0  0  0  0  0  0  0  0
    8.1502  -13.7761   20.6377 C   0  0  1  0  0  0  0  0  0  0  0  0
    7.2300  -14.3499   19.6163 C   0  0  0  0  0  0  0  0  0  0  0  0
    9.3795  -14.5323   20.9457 C   0  0  0  0  0  0  0  0  0  0  0  0
    9.3489  -15.6593   21.8898 C   0  0  2  0  0  0  0  0  0  0  0  0
    8.0218  -15.9106   22.3582 N   0  0  0  0  0  0  0  0  0  0  0  0
   10.3666  -15.6370   22.9508 C   0  0  0  0  0  0  0  0  0  0  0  0
   11.5991  -15.4417   22.7377 O   0  0  0  0  0  0  0  0  0  0  0  0
   11.6441  -13.5802   27.9826 C   0  0  0  0  0  0  0  0  0  0  0  0
   10.8215  -14.8164   27.8850 C   0  0  1  0  0  0  0  0  0  0  0  0
    9.8046  -14.8587   29.0419 C   0  0  0  0  0  0  0  0  0  0  0  0
   10.1813  -15.1580   26.6106 C   0  0  0  0  0  0  0  0  0  0  0  0
   10.9586  -15.5164   25.4121 C   0  0  2  0  0  0  0  0  0  0  0  0
   10.0066  -15.8389   24.3021 N   0  0  0  0  0  0  0  0  0  0  0  0
   11.8682  -16.6489   25.5124 C   0  0  0  0  0  0  0  0  0  0  0  0
   13.1091  -16.6298   25.6684 O   0  0  0  0  0  0  0  0  0  0  0  0
   11.3430  -17.9695   25.4309 O   0  0  0  0  0  0  0  0  0  0  0  0
  2  1  1  1
  2 13  1  0
  2  3  1  0
  3  4  1  0
  4  5  2  0
  6  5  1  0
  7  6  1  0
  8  7  2  0
  9  8  1  0
 10  9  2  0
 10 11  1  0
 11 12  2  0
 12  7  1  0
 12  4  1  0
 13 14  2  0
 16 15  1  6
 17 16  1  0
 18 16  1  0
 19 18  1  1
 20 19  1  0
 20 13  1  0
 21 19  1  0
 22 21  2  0
 24 23  1  6
 24 26  1  0
 24 25  1  0
 27 26  1  1
 27 29  1  0
 27 28  1  0
 28 21  1  0
 29 31  1  0
 30 29  2  0
M  END
$$$$
