WLL.pdb
     RDKit          3D

 31 32  0  0  1  0  0  0  0  0999 V2000
    6.2066  -18.2690   24.5319 N   0  0  0  0  0  0  0  0  0  0  0  0
    6.6067  -16.8841   24.3667 C   0  0  1  0  0  0  0  0  0  0  0  0
    6.8247  -16.3233   25.7555 C   0  0  0  0  0  0  0  0  0  0  0  0
    5.9726  -15.1614   26.0493 C   0  0  0  0  0  0  0  0  0  0  0  0
    4.6451  -15.1778   26.4217 C   0  0  0  0  0  0  0  0  0  0  0  0
    4.2474  -13.9093   26.5923 N   0  0  0  0  0  0  0  0  0  0  0  0
    5.2443  -13.0423   26.3524 C   0  0  0  0  0  0  0  0  0  0  0  0
    5.3206  -11.6663   26.3949 C   0  0  0  0  0  0  0  0  0  0  0  0
    6.4984  -11.0492   26.0927 C   0  0  0  0  0  0  0  0  0  0  0  0
    7.5871  -11.8062   25.7516 C   0  0  0  0  0  0  0  0  0  0  0  0
    7.5089  -13.1632   25.7105 C   0  0  0  0  0  0  0  0  0  0  0  0
    6.3400  -13.8351   26.0076 C   0  0  0  0  0  0  0  0  0  0  0  0
    7.9034  -16.7833   23.6530 C   0  0  0  0  0  0  0  0  0  0  0  0
    8.6998  -17.7416   23.5531 O   0  0  0  0  0  0  0  0  0  0  0  0
    8.3803  -12.1463   20.4403 C   0  0  0  0  0  0  0  0  0  0  0  0
    8.1159  -13.6115   20.8773 C   0  0  1  0  0  0  0  0  0  0  0  0
    7.7913  -14.3476   19.6236 C   0  0  0  0  0  0  0  0  0  0  0  0
    9.3440  -14.0027   21.5961 C   0  0  0  0  0  0  0  0  0  0  0  0
    9.4248  -15.2954   22.2925 C   0  0  2  0  0  0  0  0  0  0  0  0
    8.2468  -15.5467   23.0626 N   0  0  0  0  0  0  0  0  0  0  0  0
   10.6801  -15.5616   23.0102 C   0  0  0  0  0  0  0  0  0  0  0  0
   11.8209  -15.5399   22.4617 O   0  0  0  0  0  0  0  0  0  0  0  0
   10.8159  -14.6678   28.4848 C   0  0  0  0  0  0  0  0  0  0  0  0
   11.2520  -14.7538   27.0646 C   0  0  1  0  0  0  0  0  0  0  0  0
   12.2259  -13.6026   26.7477 C   0  0  0  0  0  0  0  0  0  0  0  0
   11.7564  -16.0273   26.5408 C   0  0  0  0  0  0  0  0  0  0  0  0
   11.9289  -16.2704   25.0985 C   0  0  2  0  0  0  0  0  0  0  0  0
   10.6736  -15.8640   24.3903 N   0  0  0  0  0  0  0  0  0  0  0  0
   12.2146  -17.6336   24.6742 C   0  0  0  0  0  0  0  0  0  0  0  0
   11.4863  -18.4029   24.0091 O   0  0  0  0  0  0  0  0  0  0  0  0
   13.4613  -18.2231   25.0277 O   0  0  0  0  0  0  0  0  0  0  0  0
  2  1  1  1
  2 13  1  0
  2  3  1  0
  3  4  1  0
  4  5  2  0
  6  5  1  0
  7  6  1  0
  8  7  2  0
  9  8  1  0
 10  9  2  0
 10 11  1  0
 11 12  2  0
 12  7  1  0
 12  4  1  0
 13 14  2  0
 16 15  1  6
 17 16  1  0
 18 16  1  0
 19 18  1  1
 20 19  1  0
 20 13  1  0
 21 19  1  0
 22 21  2  0
 24 23  1  1
 24 26  1  0
 24 25  1  0
 27 26  1  1
 27 29  1  0
 27 28  1  0
 28 21  1  0
 29 31  1  0
 30 29  2  0
M  END
$$$$
