WLL.pdb
     RDKit          3D

 31 32  0  0  1  0  0  0  0  0999 V2000
    6.0460  -18.4518   24.2149 N   0  0  0  0  0  0  0  0  0  0  0  0
    6.4666  -17.0703   24.0749 C   0  0  1  0  0  0  0  0  0  0  0  0
    6.7466  -16.5550   25.4702 C   0  0  0  0  0  0  0  0  0  0  0  0
    5.9579  -15.3626   25.8145 C   0  0  0  0  0  0  0  0  0  0  0  0
    4.6293  -15.3229   26.1812 C   0  0  0  0  0  0  0  0  0  0  0  0
    4.3009  -14.0436   26.4089 N   0  0  0  0  0  0  0  0  0  0  0  0
    5.3453  -13.2227   26.2127 C   0  0  0  0  0  0  0  0  0  0  0  0
    5.4968  -11.8565   26.3190 C   0  0  0  0  0  0  0  0  0  0  0  0
    6.7084  -11.2919   26.0497 C   0  0  0  0  0  0  0  0  0  0  0  0
    7.7560  -12.0914   25.6777 C   0  0  0  0  0  0  0  0  0  0  0  0
    7.6036  -13.4387   25.5736 C   0  0  0  0  0  0  0  0  0  0  0  0
    6.3978  -14.0581   25.8354 C   0  0  0  0  0  0  0  0  0  0  0  0
    7.7379  -16.9723   23.3164 C   0  0  0  0  0  0  0  0  0  0  0  0
    8.5832  -17.8926   23.2861 O   0  0  0  0  0  0  0  0  0  0  0  0
    8.1914  -12.2119   20.3039 C   0  0  0  0  0  0  0  0  0  0  0  0
    7.9531  -13.7029   20.6613 C   0  0  1  0  0  0  0  0  0  0  0  0
    7.6479  -14.3775   19.3687 C   0  0  0  0  0  0  0  0  0  0  0  0
    9.1853  -14.1085   21.3649 C   0  0  0  0  0  0  0  0  0  0  0  0
    9.2634  -15.4070   22.0508 C   0  0  2  0  0  0  0  0  0  0  0  0
    7.9979  -15.7835   22.5988 N   0  0  0  0  0  0  0  0  0  0  0  0
   10.3938  -15.5787   22.9752 C   0  0  0  0  0  0  0  0  0  0  0  0
   11.5926  -15.3008   22.6780 O   0  0  0  0  0  0  0  0  0  0  0  0
   10.5691  -14.4056   28.9255 C   0  0  0  0  0  0  0  0  0  0  0  0
   11.2744  -15.0685   27.7952 C   0  0  1  0  0  0  0  0  0  0  0  0
   11.9745  -16.3467   28.2953 C   0  0  0  0  0  0  0  0  0  0  0  0
   10.5531  -15.3205   26.5434 C   0  0  0  0  0  0  0  0  0  0  0  0
   11.2166  -15.8797   25.3533 C   0  0  2  0  0  0  0  0  0  0  0  0
   10.1901  -16.0781   24.2812 N   0  0  0  0  0  0  0  0  0  0  0  0
   11.9045  -17.1544   25.5016 C   0  0  0  0  0  0  0  0  0  0  0  0
   13.0438  -17.3655   25.9727 O   0  0  0  0  0  0  0  0  0  0  0  0
   11.2536  -18.3471   25.0770 O   0  0  0  0  0  0  0  0  0  0  0  0
  2  1  1  1
  2 13  1  0
  2  3  1  0
  3  4  1  0
  4  5  2  0
  6  5  1  0
  7  6  1  0
  8  7  2  0
  9  8  1  0
 10  9  2  0
 10 11  1  0
 11 12  2  0
 12  7  1  0
 12  4  1  0
 13 14  2  0
 16 15  1  6
 17 16  1  0
 18 16  1  0
 19 18  1  1
 20 19  1  0
 20 13  1  0
 21 19  1  0
 22 21  2  0
 24 23  1  1
 24 26  1  0
 24 25  1  0
 27 26  1  1
 27 29  1  0
 27 28  1  0
 28 21  1  0
 29 31  1  0
 30 29  2  0
M  END
$$$$
