WLL.pdb
     RDKit          3D

 31 32  0  0  1  0  0  0  0  0999 V2000
    6.0400  -18.5513   23.9713 N   0  0  0  0  0  0  0  0  0  0  0  0
    6.4940  -17.1733   23.9863 C   0  0  1  0  0  0  0  0  0  0  0  0
    6.6799  -16.7900   25.4386 C   0  0  0  0  0  0  0  0  0  0  0  0
    5.9394  -15.5765   25.8149 C   0  0  0  0  0  0  0  0  0  0  0  0
    4.6616  -15.5089   26.3286 C   0  0  0  0  0  0  0  0  0  0  0  0
    4.3654  -14.2178   26.5326 N   0  0  0  0  0  0  0  0  0  0  0  0
    5.3830  -13.4156   26.1805 C   0  0  0  0  0  0  0  0  0  0  0  0
    5.5498  -12.0472   26.2051 C   0  0  0  0  0  0  0  0  0  0  0  0
    6.7244  -11.5058   25.7733 C   0  0  0  0  0  0  0  0  0  0  0  0
    7.7200  -12.3302   25.3217 C   0  0  0  0  0  0  0  0  0  0  0  0
    7.5526  -13.6795   25.2985 C   0  0  0  0  0  0  0  0  0  0  0  0
    6.3828  -14.2762   25.7248 C   0  0  0  0  0  0  0  0  0  0  0  0
    7.8190  -17.0394   23.3325 C   0  0  0  0  0  0  0  0  0  0  0  0
    8.6558  -17.9674   23.2974 O   0  0  0  0  0  0  0  0  0  0  0  0
    8.3663  -12.2924   20.3374 C   0  0  0  0  0  0  0  0  0  0  0  0
    8.0997  -13.7728   20.7182 C   0  0  1  0  0  0  0  0  0  0  0  0
    7.7589  -14.4568   19.4396 C   0  0  0  0  0  0  0  0  0  0  0  0
    9.3332  -14.1975   21.4080 C   0  0  0  0  0  0  0  0  0  0  0  0
    9.3931  -15.4892   22.1083 C   0  0  2  0  0  0  0  0  0  0  0  0
    8.1427  -15.8060   22.7247 N   0  0  0  0  0  0  0  0  0  0  0  0
   10.5609  -15.6958   22.9773 C   0  0  0  0  0  0  0  0  0  0  0  0
   11.7572  -15.5318   22.5970 O   0  0  0  0  0  0  0  0  0  0  0  0
   10.0873  -15.2026   28.6411 C   0  0  0  0  0  0  0  0  0  0  0  0
   10.5879  -15.1275   27.2417 C   0  0  1  0  0  0  0  0  0  0  0  0
   11.5536  -13.9356   27.0967 C   0  0  0  0  0  0  0  0  0  0  0  0
   11.1385  -16.3295   26.6072 C   0  0  0  0  0  0  0  0  0  0  0  0
   11.5847  -16.3426   25.2036 C   0  0  2  0  0  0  0  0  0  0  0  0
   10.3992  -16.1003   24.3215 N   0  0  0  0  0  0  0  0  0  0  0  0
   12.2205  -17.5559   24.7099 C   0  0  0  0  0  0  0  0  0  0  0  0
   11.7915  -18.3559   23.8494 O   0  0  0  0  0  0  0  0  0  0  0  0
   13.4901  -17.9347   25.2306 O   0  0  0  0  0  0  0  0  0  0  0  0
  2  1  1  1
  2 13  1  0
  2  3  1  0
  3  4  1  0
  4  5  2  0
  6  5  1  0
  7  6  1  0
  8  7  2  0
  9  8  1  0
 10  9  2  0
 10 11  1  0
 11 12  2  0
 12  7  1  0
 12  4  1  0
 13 14  2  0
 16 15  1  6
 17 16  1  0
 18 16  1  0
 19 18  1  1
 20 19  1  0
 20 13  1  0
 21 19  1  0
 22 21  2  0
 24 23  1  1
 24 26  1  0
 24 25  1  0
 27 26  1  1
 27 29  1  0
 27 28  1  0
 28 21  1  0
 29 31  1  0
 30 29  2  0
M  END
$$$$
