WLL.pdb
     RDKit          3D

 31 32  0  0  1  0  0  0  0  0999 V2000
    5.4840  -18.5260   24.0878 N   0  0  0  0  0  0  0  0  0  0  0  0
    6.3684  -17.3763   24.0503 C   0  0  1  0  0  0  0  0  0  0  0  0
    7.1588  -17.3905   25.3410 C   0  0  0  0  0  0  0  0  0  0  0  0
    6.7379  -16.3467   26.2874 C   0  0  0  0  0  0  0  0  0  0  0  0
    6.1099  -16.5302   27.5011 C   0  0  0  0  0  0  0  0  0  0  0  0
    5.9020  -15.3235   28.0461 N   0  0  0  0  0  0  0  0  0  0  0  0
    6.3604  -14.3389   27.2565 C   0  0  0  0  0  0  0  0  0  0  0  0
    6.3753  -12.9660   27.3828 C   0  0  0  0  0  0  0  0  0  0  0  0
    6.9233  -12.2062   26.3920 C   0  0  0  0  0  0  0  0  0  0  0  0
    7.4504  -12.8191   25.2868 C   0  0  0  0  0  0  0  0  0  0  0  0
    7.4342  -14.1734   25.1650 C   0  0  0  0  0  0  0  0  0  0  0  0
    6.8913  -14.9864   26.1399 C   0  0  0  0  0  0  0  0  0  0  0  0
    7.3493  -17.4917   22.9432 C   0  0  0  0  0  0  0  0  0  0  0  0
    7.8840  -18.5744   22.6199 O   0  0  0  0  0  0  0  0  0  0  0  0
    8.5596  -13.0552   21.6562 C   0  0  0  0  0  0  0  0  0  0  0  0
    7.8806  -13.9677   20.6007 C   0  0  1  0  0  0  0  0  0  0  0  0
    7.6894  -13.1099   19.3980 C   0  0  0  0  0  0  0  0  0  0  0  0
    8.7948  -15.1194   20.4754 C   0  0  0  0  0  0  0  0  0  0  0  0
    8.9393  -16.0843   21.5756 C   0  0  2  0  0  0  0  0  0  0  0  0
    7.6893  -16.3225   22.2271 N   0  0  0  0  0  0  0  0  0  0  0  0
   10.0610  -15.8465   22.4960 C   0  0  0  0  0  0  0  0  0  0  0  0
   11.2510  -15.6434   22.1150 O   0  0  0  0  0  0  0  0  0  0  0  0
   12.0578  -13.6840   27.3718 C   0  0  0  0  0  0  0  0  0  0  0  0
   11.2687  -14.9448   27.3243 C   0  0  1  0  0  0  0  0  0  0  0  0
   10.4768  -15.1138   28.6353 C   0  0  0  0  0  0  0  0  0  0  0  0
   10.4215  -15.2220   26.1599 C   0  0  0  0  0  0  0  0  0  0  0  0
   10.9845  -15.5361   24.8356 C   0  0  2  0  0  0  0  0  0  0  0  0
    9.8584  -15.8331   23.8942 N   0  0  0  0  0  0  0  0  0  0  0  0
   11.9023  -16.6626   24.7434 C   0  0  0  0  0  0  0  0  0  0  0  0
   11.6252  -17.8816   24.7011 O   0  0  0  0  0  0  0  0  0  0  0  0
   13.3029  -16.4133   24.6907 O   0  0  0  0  0  0  0  0  0  0  0  0
  2  1  1  1
  2 13  1  0
  2  3  1  0
  3  4  1  0
  4  5  2  0
  6  5  1  0
  7  6  1  0
  8  7  2  0
  9  8  1  0
 10  9  2  0
 10 11  1  0
 11 12  2  0
 12  7  1  0
 12  4  1  0
 13 14  2  0
 16 15  1  1
 17 16  1  0
 18 16  1  0
 19 18  1  6
 20 19  1  0
 20 13  1  0
 21 19  1  0
 22 21  2  0
 24 23  1  6
 24 26  1  0
 24 25  1  0
 27 26  1  1
 27 29  1  0
 27 28  1  0
 28 21  1  0
 29 31  1  0
 30 29  2  0
M  END
$$$$
