WLL.pdb
     RDKit          3D

 31 32  0  0  1  0  0  0  0  0999 V2000
    6.3259  -18.2904   24.5107 N   0  0  0  0  0  0  0  0  0  0  0  0
    6.7759  -16.9293   24.2866 C   0  0  1  0  0  0  0  0  0  0  0  0
    7.1218  -16.3542   25.6432 C   0  0  0  0  0  0  0  0  0  0  0  0
    6.2275  -15.2609   26.0520 C   0  0  0  0  0  0  0  0  0  0  0  0
    4.9981  -15.3787   26.6652 C   0  0  0  0  0  0  0  0  0  0  0  0
    4.5154  -14.1444   26.8650 N   0  0  0  0  0  0  0  0  0  0  0  0
    5.3618  -13.2039   26.4153 C   0  0  0  0  0  0  0  0  0  0  0  0
    5.3088  -11.8263   26.3977 C   0  0  0  0  0  0  0  0  0  0  0  0
    6.3454  -11.1210   25.8615 C   0  0  0  0  0  0  0  0  0  0  0  0
    7.4229  -11.7926   25.3489 C   0  0  0  0  0  0  0  0  0  0  0  0
    7.4723  -13.1515   25.3677 C   0  0  0  0  0  0  0  0  0  0  0  0
    6.4489  -13.9106   25.8991 C   0  0  0  0  0  0  0  0  0  0  0  0
    8.0194  -16.9032   23.4779 C   0  0  0  0  0  0  0  0  0  0  0  0
    8.7977  -17.8780   23.3975 O   0  0  0  0  0  0  0  0  0  0  0  0
    8.5738  -12.1364   20.5734 C   0  0  0  0  0  0  0  0  0  0  0  0
    8.2188  -13.5937   20.9706 C   0  0  1  0  0  0  0  0  0  0  0  0
    7.5244  -14.1705   19.7856 C   0  0  0  0  0  0  0  0  0  0  0  0
    9.5125  -14.1897   21.3565 C   0  0  0  0  0  0  0  0  0  0  0  0
    9.5615  -15.4643   22.0882 C   0  0  2  0  0  0  0  0  0  0  0  0
    8.3315  -15.7212   22.7699 N   0  0  0  0  0  0  0  0  0  0  0  0
   10.7612  -15.6893   22.9079 C   0  0  0  0  0  0  0  0  0  0  0  0
   11.9430  -15.5937   22.4641 O   0  0  0  0  0  0  0  0  0  0  0  0
   10.0515  -15.2143   28.2696 C   0  0  0  0  0  0  0  0  0  0  0  0
   11.0236  -15.1219   27.1467 C   0  0  1  0  0  0  0  0  0  0  0  0
   12.1995  -14.2110   27.5488 C   0  0  0  0  0  0  0  0  0  0  0  0
   11.5059  -16.3503   26.5074 C   0  0  0  0  0  0  0  0  0  0  0  0
   11.8564  -16.4067   25.0779 C   0  0  2  0  0  0  0  0  0  0  0  0
   10.6495  -16.0342   24.2735 N   0  0  0  0  0  0  0  0  0  0  0  0
   12.3237  -17.6799   24.5482 C   0  0  0  0  0  0  0  0  0  0  0  0
   13.4428  -18.2162   24.7050 O   0  0  0  0  0  0  0  0  0  0  0  0
   11.4459  -18.4607   23.7442 O   0  0  0  0  0  0  0  0  0  0  0  0
  2  1  1  1
  2 13  1  0
  2  3  1  0
  3  4  1  0
  4  5  2  0
  6  5  1  0
  7  6  1  0
  8  7  2  0
  9  8  1  0
 10  9  2  0
 10 11  1  0
 11 12  2  0
 12  7  1  0
 12  4  1  0
 13 14  2  0
 16 15  1  6
 17 16  1  0
 18 16  1  0
 19 18  1  1
 20 19  1  0
 20 13  1  0
 21 19  1  0
 22 21  2  0
 24 23  1  1
 24 26  1  0
 24 25  1  0
 27 26  1  1
 27 29  1  0
 27 28  1  0
 28 21  1  0
 29 31  1  0
 30 29  2  0
M  END
$$$$
