WLL.pdb
     RDKit          3D

 31 32  0  0  1  0  0  0  0  0999 V2000
    5.5587  -18.3328   23.5407 N   0  0  0  0  0  0  0  0  0  0  0  0
    6.3112  -17.1030   23.7040 C   0  0  1  0  0  0  0  0  0  0  0  0
    6.6721  -17.0027   25.1704 C   0  0  0  0  0  0  0  0  0  0  0  0
    6.1760  -15.7721   25.8044 C   0  0  0  0  0  0  0  0  0  0  0  0
    4.9815  -15.6053   26.4726 C   0  0  0  0  0  0  0  0  0  0  0  0
    4.9175  -14.3350   26.8950 N   0  0  0  0  0  0  0  0  0  0  0  0
    6.0118  -13.6411   26.5424 C   0  0  0  0  0  0  0  0  0  0  0  0
    6.3978  -12.3330   26.7442 C   0  0  0  0  0  0  0  0  0  0  0  0
    7.5967  -11.9035   26.2568 C   0  0  0  0  0  0  0  0  0  0  0  0
    8.3985  -12.7788   25.5743 C   0  0  0  0  0  0  0  0  0  0  0  0
    8.0152  -14.0685   25.3769 C   0  0  0  0  0  0  0  0  0  0  0  0
    6.8116  -14.5516   25.8502 C   0  0  0  0  0  0  0  0  0  0  0  0
    7.5872  -17.1522   22.9487 C   0  0  0  0  0  0  0  0  0  0  0  0
    8.1944  -18.2185   22.7104 O   0  0  0  0  0  0  0  0  0  0  0  0
    8.9728  -12.4632   20.2328 C   0  0  0  0  0  0  0  0  0  0  0  0
    8.3115  -13.7486   20.7969 C   0  0  1  0  0  0  0  0  0  0  0  0
    7.1784  -14.0488   19.8777 C   0  0  0  0  0  0  0  0  0  0  0  0
    9.4146  -14.7271   20.8576 C   0  0  0  0  0  0  0  0  0  0  0  0
    9.4218  -15.7854   21.8786 C   0  0  2  0  0  0  0  0  0  0  0  0
    8.1342  -15.9366   22.4811 N   0  0  0  0  0  0  0  0  0  0  0  0
   10.5339  -15.7439   22.8395 C   0  0  0  0  0  0  0  0  0  0  0  0
   11.7493  -15.6342   22.5028 O   0  0  0  0  0  0  0  0  0  0  0  0
   10.7968  -13.0790   26.2881 C   0  0  0  0  0  0  0  0  0  0  0  0
   10.7205  -14.2833   27.1589 C   0  0  1  0  0  0  0  0  0  0  0  0
    9.4586  -14.2104   28.0401 C   0  0  0  0  0  0  0  0  0  0  0  0
   10.8684  -15.6149   26.5628 C   0  0  0  0  0  0  0  0  0  0  0  0
   11.4214  -15.8143   25.2124 C   0  0  2  0  0  0  0  0  0  0  0  0
   10.2920  -15.8274   24.2291 N   0  0  0  0  0  0  0  0  0  0  0  0
   12.1881  -17.0282   24.9705 C   0  0  0  0  0  0  0  0  0  0  0  0
   11.8093  -18.0810   24.4115 O   0  0  0  0  0  0  0  0  0  0  0  0
   13.5444  -17.0886   25.3989 O   0  0  0  0  0  0  0  0  0  0  0  0
  2  1  1  1
  2 13  1  0
  2  3  1  0
  3  4  1  0
  4  5  2  0
  6  5  1  0
  7  6  1  0
  8  7  2  0
  9  8  1  0
 10  9  2  0
 10 11  1  0
 11 12  2  0
 12  7  1  0
 12  4  1  0
 13 14  2  0
 16 15  1  6
 17 16  1  0
 18 16  1  0
 19 18  1  1
 20 19  1  0
 20 13  1  0
 21 19  1  0
 22 21  2  0
 24 23  1  6
 24 26  1  0
 24 25  1  0
 27 26  1  1
 27 29  1  0
 27 28  1  0
 28 21  1  0
 29 31  1  0
 30 29  2  0
M  END
$$$$
