WLL.pdb
     RDKit          3D

 31 32  0  0  1  0  0  0  0  0999 V2000
    6.3097  -18.8723   23.7903 N   0  0  0  0  0  0  0  0  0  0  0  0
    6.6601  -17.4685   23.6821 C   0  0  1  0  0  0  0  0  0  0  0  0
    6.8702  -16.9604   25.0923 C   0  0  0  0  0  0  0  0  0  0  0  0
    5.9051  -15.9214   25.4814 C   0  0  0  0  0  0  0  0  0  0  0  0
    4.6598  -16.1124   26.0417 C   0  0  0  0  0  0  0  0  0  0  0  0
    4.1066  -14.9080   26.2412 N   0  0  0  0  0  0  0  0  0  0  0  0
    4.9209  -13.9178   25.8417 C   0  0  0  0  0  0  0  0  0  0  0  0
    4.7979  -12.5445   25.8437 C   0  0  0  0  0  0  0  0  0  0  0  0
    5.8176  -11.7781   25.3618 C   0  0  0  0  0  0  0  0  0  0  0  0
    6.9479  -12.3848   24.8832 C   0  0  0  0  0  0  0  0  0  0  0  0
    7.0663  -13.7395   24.8824 C   0  0  0  0  0  0  0  0  0  0  0  0
    6.0627  -14.5591   25.3592 C   0  0  0  0  0  0  0  0  0  0  0  0
    7.9466  -17.2919   22.9646 C   0  0  0  0  0  0  0  0  0  0  0  0
    8.8018  -18.1988   22.8706 O   0  0  0  0  0  0  0  0  0  0  0  0
    8.4689  -12.1771   20.7183 C   0  0  0  0  0  0  0  0  0  0  0  0
    8.0797  -13.6484   21.0209 C   0  0  1  0  0  0  0  0  0  0  0  0
    7.1672  -14.0534   19.9153 C   0  0  0  0  0  0  0  0  0  0  0  0
    9.3730  -14.3512   21.1262 C   0  0  0  0  0  0  0  0  0  0  0  0
    9.4866  -15.5998   21.8946 C   0  0  2  0  0  0  0  0  0  0  0  0
    8.2101  -16.0411   22.3632 N   0  0  0  0  0  0  0  0  0  0  0  0
   10.5454  -15.6331   22.9142 C   0  0  0  0  0  0  0  0  0  0  0  0
   11.7578  -15.3567   22.6770 O   0  0  0  0  0  0  0  0  0  0  0  0
   12.5312  -14.5441   27.9705 C   0  0  0  0  0  0  0  0  0  0  0  0
   11.4569  -15.5660   27.8445 C   0  0  1  0  0  0  0  0  0  0  0  0
   10.5238  -15.4951   29.0688 C   0  0  0  0  0  0  0  0  0  0  0  0
   10.6850  -15.6516   26.6006 C   0  0  0  0  0  0  0  0  0  0  0  0
   11.3131  -15.9673   25.3063 C   0  0  2  0  0  0  0  0  0  0  0  0
   10.2515  -15.9864   24.2504 N   0  0  0  0  0  0  0  0  0  0  0  0
   12.0250  -17.2323   25.1934 C   0  0  0  0  0  0  0  0  0  0  0  0
   11.5528  -18.3632   24.9428 O   0  0  0  0  0  0  0  0  0  0  0  0
   13.4361  -17.2531   25.3799 O   0  0  0  0  0  0  0  0  0  0  0  0
  2  1  1  1
  2 13  1  0
  2  3  1  0
  3  4  1  0
  4  5  2  0
  6  5  1  0
  7  6  1  0
  8  7  2  0
  9  8  1  0
 10  9  2  0
 10 11  1  0
 11 12  2  0
 12  7  1  0
 12  4  1  0
 13 14  2  0
 16 15  1  6
 17 16  1  0
 18 16  1  0
 19 18  1  1
 20 19  1  0
 20 13  1  0
 21 19  1  0
 22 21  2  0
 24 23  1  6
 24 26  1  0
 24 25  1  0
 27 26  1  1
 27 29  1  0
 27 28  1  0
 28 21  1  0
 29 31  1  0
 30 29  2  0
M  END
$$$$
