WLL.pdb
     RDKit          3D

 31 32  0  0  1  0  0  0  0  0999 V2000
    6.2059  -19.4833   24.0450 N   0  0  0  0  0  0  0  0  0  0  0  0
    6.2171  -18.0330   24.0857 C   0  0  1  0  0  0  0  0  0  0  0  0
    6.2666  -17.6369   25.5457 C   0  0  0  0  0  0  0  0  0  0  0  0
    6.0172  -16.2043   25.7642 C   0  0  0  0  0  0  0  0  0  0  0  0
    4.8452  -15.5189   25.5233 C   0  0  0  0  0  0  0  0  0  0  0  0
    5.0406  -14.2354   25.8559 N   0  0  0  0  0  0  0  0  0  0  0  0
    6.2874  -14.0263   26.3086 C   0  0  0  0  0  0  0  0  0  0  0  0
    6.9447  -12.9014   26.7596 C   0  0  0  0  0  0  0  0  0  0  0  0
    8.2429  -12.9992   27.1651 C   0  0  0  0  0  0  0  0  0  0  0  0
    8.8734  -14.2137   27.1177 C   0  0  0  0  0  0  0  0  0  0  0  0
    8.2226  -15.3215   26.6723 C   0  0  0  0  0  0  0  0  0  0  0  0
    6.9087  -15.2748   26.2510 C   0  0  0  0  0  0  0  0  0  0  0  0
    7.4425  -17.4893   23.4502 C   0  0  0  0  0  0  0  0  0  0  0  0
    8.5557  -18.0526   23.5296 O   0  0  0  0  0  0  0  0  0  0  0  0
    8.6799  -14.2859   19.1603 C   0  0  0  0  0  0  0  0  0  0  0  0
    8.8722  -13.6080   20.5427 C   0  0  1  0  0  0  0  0  0  0  0  0
    8.5693  -12.1660   20.3238 C   0  0  0  0  0  0  0  0  0  0  0  0
    7.9777  -14.3610   21.4432 C   0  0  0  0  0  0  0  0  0  0  0  0
    8.4144  -15.6307   22.0430 C   0  0  2  0  0  0  0  0  0  0  0  0
    7.3396  -16.2815   22.7249 N   0  0  0  0  0  0  0  0  0  0  0  0
    9.6695  -15.5825   22.8073 C   0  0  0  0  0  0  0  0  0  0  0  0
   10.7965  -15.3249   22.2914 O   0  0  0  0  0  0  0  0  0  0  0  0
   12.2386  -13.6335   27.3429 C   0  0  0  0  0  0  0  0  0  0  0  0
   11.2821  -14.7641   27.4889 C   0  0  1  0  0  0  0  0  0  0  0  0
   10.5165  -14.6307   28.8194 C   0  0  0  0  0  0  0  0  0  0  0  0
   10.3684  -15.0828   26.3871 C   0  0  0  0  0  0  0  0  0  0  0  0
   10.8529  -15.4444   25.0441 C   0  0  2  0  0  0  0  0  0  0  0  0
    9.6786  -15.8294   24.1985 N   0  0  0  0  0  0  0  0  0  0  0  0
   11.8058  -16.5407   24.9440 C   0  0  0  0  0  0  0  0  0  0  0  0
   13.0525  -16.4894   25.0326 O   0  0  0  0  0  0  0  0  0  0  0  0
   11.3230  -17.8607   24.7179 O   0  0  0  0  0  0  0  0  0  0  0  0
  2  1  1  1
  2 13  1  0
  2  3  1  0
  3  4  1  0
  4  5  2  0
  6  5  1  0
  7  6  1  0
  8  7  2  0
  9  8  1  0
 10  9  2  0
 10 11  1  0
 11 12  2  0
 12  7  1  0
 12  4  1  0
 13 14  2  0
 16 15  1  6
 17 16  1  0
 18 16  1  0
 19 18  1  1
 20 19  1  0
 20 13  1  0
 21 19  1  0
 22 21  2  0
 24 23  1  6
 24 26  1  0
 24 25  1  0
 27 26  1  1
 27 29  1  0
 27 28  1  0
 28 21  1  0
 29 31  1  0
 30 29  2  0
M  END
$$$$
