FND.pdb
     RDKit          3D

 28 28  0  0  1  0  0  0  0  0999 V2000
    5.7971  -17.0251   25.0814 N   0  0  0  0  0  0  0  0  0  0  0  0
    6.7635  -16.0295   24.7199 C   0  0  1  0  0  0  0  0  0  0  0  0
    7.4875  -15.5997   25.9837 C   0  0  0  0  0  0  0  0  0  0  0  0
    7.2624  -14.1582   26.2689 C   0  0  0  0  0  0  0  0  0  0  0  0
    5.9834  -13.7614   26.5483 C   0  0  0  0  0  0  0  0  0  0  0  0
    5.7519  -12.4310   26.8152 C   0  0  0  0  0  0  0  0  0  0  0  0
    6.8136  -11.5362   26.7937 C   0  0  0  0  0  0  0  0  0  0  0  0
    8.0866  -11.9546   26.5116 C   0  0  0  0  0  0  0  0  0  0  0  0
    8.3053  -13.2822   26.2473 C   0  0  0  0  0  0  0  0  0  0  0  0
    7.8187  -16.5778   23.8089 C   0  0  0  0  0  0  0  0  0  0  0  0
    8.1007  -17.8011   23.8641 O   0  0  0  0  0  0  0  0  0  0  0  0
    6.8241  -15.3147   21.0501 N   0  0  0  0  0  0  0  0  0  0  0  0
    7.9639  -14.7051   20.4025 C   0  0  0  0  0  0  0  0  0  0  0  0
    7.6909  -13.8202   19.5959 O   0  0  0  0  0  0  0  0  0  0  0  0
    9.2566  -15.2062   20.7804 C   0  0  0  0  0  0  0  0  0  0  0  0
    9.3827  -16.2687   21.8304 C   0  0  2  0  0  0  0  0  0  0  0  0
    8.4807  -15.7255   22.9058 N   0  0  0  0  0  0  0  0  0  0  0  0
   10.7023  -16.4397   22.4350 C   0  0  0  0  0  0  0  0  0  0  0  0
   11.6209  -16.9868   21.7161 O   0  0  0  0  0  0  0  0  0  0  0  0
   11.0922  -16.0637   23.7331 N   0  0  0  0  0  0  0  0  0  0  0  0
   12.1627  -16.7953   24.3988 C   0  0  1  0  0  0  0  0  0  0  0  0
   13.4196  -15.9463   24.4632 C   0  0  0  0  0  0  0  0  0  0  0  0
   14.1518  -16.1120   23.1925 C   0  0  0  0  0  0  0  0  0  0  0  0
   14.3310  -17.2681   22.7447 O   0  0  0  0  0  0  0  0  0  0  0  0
   11.6981  -17.2377   25.7167 C   0  0  0  0  0  0  0  0  0  0  0  0
   10.6733  -16.8219   26.2879 O   0  0  0  0  0  0  0  0  0  0  0  0
   14.6560  -15.0475   22.4628 O   0  0  0  0  0  0  0  0  0  0  0  0
   12.4548  -18.2039   26.4009 O   0  0  0  0  0  0  0  0  0  0  0  0
  2  1  1  1
  2  3  1  0
  3  4  1  0
  4  5  2  0
  5  6  1  0
  7  6  2  0
  8  7  1  0
  9  4  1  0
  9  8  2  0
 10 11  2  0
 10  2  1  0
 12 13  1  0
 13 14  2  0
 16 15  1  6
 15 13  1  0
 16 18  1  0
 16 17  1  0
 17 10  1  0
 18 20  1  0
 19 18  2  0
 20 21  1  0
 21 22  1  1
 22 23  1  0
 23 27  1  0
 24 23  2  0
 25 28  1  0
 25 21  1  0
 26 25  2  0
M  END
$$$$
