FND.pdb
     RDKit          3D

 28 28  0  0  1  0  0  0  0  0999 V2000
    6.8188  -14.8535   21.0965 N   0  0  0  0  0  0  0  0  0  0  0  0
    7.3888  -14.5185   22.3688 C   0  0  1  0  0  0  0  0  0  0  0  0
    6.2490  -14.2747   23.3423 C   0  0  0  0  0  0  0  0  0  0  0  0
    6.7607  -13.9010   24.6871 C   0  0  0  0  0  0  0  0  0  0  0  0
    7.4472  -12.7229   24.7972 C   0  0  0  0  0  0  0  0  0  0  0  0
    7.9303  -12.3572   26.0331 C   0  0  0  0  0  0  0  0  0  0  0  0
    7.7095  -13.1869   27.1246 C   0  0  0  0  0  0  0  0  0  0  0  0
    7.0195  -14.3622   26.9924 C   0  0  0  0  0  0  0  0  0  0  0  0
    6.5430  -14.7162   25.7564 C   0  0  0  0  0  0  0  0  0  0  0  0
    8.1830  -15.6515   22.9427 C   0  0  0  0  0  0  0  0  0  0  0  0
    7.7335  -16.8216   22.8542 O   0  0  0  0  0  0  0  0  0  0  0  0
   12.7904  -17.5678   21.6423 N   0  0  0  0  0  0  0  0  0  0  0  0
   12.8215  -16.5039   22.6208 C   0  0  0  0  0  0  0  0  0  0  0  0
   13.9144  -16.3153   23.1482 O   0  0  0  0  0  0  0  0  0  0  0  0
   11.5840  -15.8102   22.8493 C   0  0  0  0  0  0  0  0  0  0  0  0
   10.4893  -16.4514   23.6479 C   0  0  2  0  0  0  0  0  0  0  0  0
    9.4164  -15.3987   23.5713 N   0  0  0  0  0  0  0  0  0  0  0  0
   10.7580  -16.6757   25.0669 C   0  0  0  0  0  0  0  0  0  0  0  0
   11.1012  -15.6567   25.7768 O   0  0  0  0  0  0  0  0  0  0  0  0
   10.6780  -17.8973   25.7593 N   0  0  0  0  0  0  0  0  0  0  0  0
   11.2090  -17.9883   27.1137 C   0  0  1  0  0  0  0  0  0  0  0  0
   10.5691  -19.1495   27.8531 C   0  0  0  0  0  0  0  0  0  0  0  0
    9.1052  -19.0409   27.7004 C   0  0  0  0  0  0  0  0  0  0  0  0
    8.6288  -18.0200   27.1527 O   0  0  0  0  0  0  0  0  0  0  0  0
   12.6708  -18.0786   27.0540 C   0  0  0  0  0  0  0  0  0  0  0  0
   13.3261  -18.3705   26.0369 O   0  0  0  0  0  0  0  0  0  0  0  0
    8.2224  -20.0167   28.1346 O   0  0  0  0  0  0  0  0  0  0  0  0
   13.4033  -17.8190   28.2245 O   0  0  0  0  0  0  0  0  0  0  0  0
  2  1  1  6
  2  3  1  0
  3  4  1  0
  4  5  2  0
  5  6  1  0
  7  6  2  0
  8  7  1  0
  9  4  1  0
  9  8  2  0
 10 11  2  0
 10  2  1  0
 12 13  1  0
 13 14  2  0
 16 15  1  6
 15 13  1  0
 16 18  1  0
 16 17  1  0
 17 10  1  0
 18 20  1  0
 19 18  2  0
 20 21  1  0
 21 22  1  6
 22 23  1  0
 23 27  1  0
 24 23  2  0
 25 28  1  0
 25 21  1  0
 26 25  2  0
M  END
$$$$
