FND.pdb
     RDKit          3D

 28 28  0  0  1  0  0  0  0  0999 V2000
    8.1965  -15.5051   25.5887 N   0  0  0  0  0  0  0  0  0  0  0  0
    7.0210  -15.7322   24.7997 C   0  0  1  0  0  0  0  0  0  0  0  0
    6.4007  -14.3822   24.4854 C   0  0  0  0  0  0  0  0  0  0  0  0
    6.6069  -13.4223   25.6017 C   0  0  0  0  0  0  0  0  0  0  0  0
    5.6497  -13.3731   26.5778 C   0  0  0  0  0  0  0  0  0  0  0  0
    5.8201  -12.4913   27.6210 C   0  0  0  0  0  0  0  0  0  0  0  0
    6.9489  -11.6831   27.6534 C   0  0  0  0  0  0  0  0  0  0  0  0
    7.8951  -11.7483   26.6658 C   0  0  0  0  0  0  0  0  0  0  0  0
    7.7148  -12.6304   25.6316 C   0  0  0  0  0  0  0  0  0  0  0  0
    7.3464  -16.3524   23.4755 C   0  0  0  0  0  0  0  0  0  0  0  0
    6.6528  -17.3156   23.0630 O   0  0  0  0  0  0  0  0  0  0  0  0
    6.7871  -14.7059   20.6980 N   0  0  0  0  0  0  0  0  0  0  0  0
    8.1396  -14.3531   20.3286 C   0  0  0  0  0  0  0  0  0  0  0  0
    8.2711  -13.2295   19.8506 O   0  0  0  0  0  0  0  0  0  0  0  0
    9.1468  -15.3505   20.5648 C   0  0  0  0  0  0  0  0  0  0  0  0
    8.8555  -16.5327   21.4393 C   0  0  2  0  0  0  0  0  0  0  0  0
    8.4175  -15.8554   22.7100 N   0  0  0  0  0  0  0  0  0  0  0  0
    9.9898  -17.3863   21.7872 C   0  0  0  0  0  0  0  0  0  0  0  0
   10.5936  -17.9960   20.8261 O   0  0  0  0  0  0  0  0  0  0  0  0
   10.5099  -17.6180   23.0733 N   0  0  0  0  0  0  0  0  0  0  0  0
   11.9434  -17.4845   23.3002 C   0  0  1  0  0  0  0  0  0  0  0  0
   12.4470  -16.1715   22.7280 C   0  0  0  0  0  0  0  0  0  0  0  0
   13.9019  -16.0954   22.9636 C   0  0  0  0  0  0  0  0  0  0  0  0
   14.6402  -16.9819   22.4756 O   0  0  0  0  0  0  0  0  0  0  0  0
   12.2216  -17.6336   24.7316 C   0  0  0  0  0  0  0  0  0  0  0  0
   11.4143  -17.3814   25.6448 O   0  0  0  0  0  0  0  0  0  0  0  0
   14.4993  -15.0869   23.7024 O   0  0  0  0  0  0  0  0  0  0  0  0
   13.4906  -18.0952   25.1198 O   0  0  0  0  0  0  0  0  0  0  0  0
  2  1  1  1
  2  3  1  0
  3  4  1  0
  4  5  2  0
  5  6  1  0
  7  6  2  0
  8  7  1  0
  9  4  1  0
  9  8  2  0
 10 11  2  0
 10  2  1  0
 12 13  1  0
 13 14  2  0
 16 15  1  6
 15 13  1  0
 16 18  1  0
 16 17  1  0
 17 10  1  0
 18 20  1  0
 19 18  2  0
 20 21  1  0
 21 22  1  1
 22 23  1  0
 23 27  1  0
 24 23  2  0
 25 28  1  0
 25 21  1  0
 26 25  2  0
M  END
$$$$
