FND.pdb
     RDKit          3D

 28 28  0  0  1  0  0  0  0  0999 V2000
    5.6587  -17.2819   24.6970 N   0  0  0  0  0  0  0  0  0  0  0  0
    6.6700  -16.2697   24.6050 C   0  0  1  0  0  0  0  0  0  0  0  0
    6.9004  -15.7107   25.9981 C   0  0  0  0  0  0  0  0  0  0  0  0
    6.7920  -14.2282   26.0076 C   0  0  0  0  0  0  0  0  0  0  0  0
    5.5371  -13.6866   26.0651 C   0  0  0  0  0  0  0  0  0  0  0  0
    5.4131  -12.3157   26.0747 C   0  0  0  0  0  0  0  0  0  0  0  0
    6.5552  -11.5272   26.0262 C   0  0  0  0  0  0  0  0  0  0  0  0
    7.8022  -12.0899   25.9690 C   0  0  0  0  0  0  0  0  0  0  0  0
    7.9135  -13.4566   25.9599 C   0  0  0  0  0  0  0  0  0  0  0  0
    7.9871  -16.8320   24.1656 C   0  0  0  0  0  0  0  0  0  0  0  0
    8.3421  -17.9616   24.5864 O   0  0  0  0  0  0  0  0  0  0  0  0
   12.1012  -17.2988   20.6595 N   0  0  0  0  0  0  0  0  0  0  0  0
   11.6323  -15.9522   20.8985 C   0  0  0  0  0  0  0  0  0  0  0  0
   12.3545  -15.0642   20.4536 O   0  0  0  0  0  0  0  0  0  0  0  0
   10.3950  -15.8253   21.6182 C   0  0  0  0  0  0  0  0  0  0  0  0
   10.1668  -16.6011   22.8805 C   0  0  2  0  0  0  0  0  0  0  0  0
    8.8098  -16.0969   23.2922 N   0  0  0  0  0  0  0  0  0  0  0  0
   11.0735  -16.3248   23.9929 C   0  0  0  0  0  0  0  0  0  0  0  0
   10.6395  -15.5690   24.9419 O   0  0  0  0  0  0  0  0  0  0  0  0
   12.3869  -16.8024   24.1512 N   0  0  0  0  0  0  0  0  0  0  0  0
   12.7155  -17.6219   25.3108 C   0  0  1  0  0  0  0  0  0  0  0  0
   11.4470  -18.0896   26.0014 C   0  0  0  0  0  0  0  0  0  0  0  0
   11.8328  -18.8445   27.2094 C   0  0  0  0  0  0  0  0  0  0  0  0
   13.0486  -19.0468   27.4328 O   0  0  0  0  0  0  0  0  0  0  0  0
   13.5837  -18.7259   24.8914 C   0  0  0  0  0  0  0  0  0  0  0  0
   14.6401  -19.0578   25.4599 O   0  0  0  0  0  0  0  0  0  0  0  0
   10.9135  -19.3457   28.1170 O   0  0  0  0  0  0  0  0  0  0  0  0
   13.2102  -19.4769   23.7641 O   0  0  0  0  0  0  0  0  0  0  0  0
  2  1  1  1
  2  3  1  0
  3  4  1  0
  4  5  2  0
  5  6  1  0
  7  6  2  0
  8  7  1  0
  9  4  1  0
  9  8  2  0
 10 11  2  0
 10  2  1  0
 12 13  1  0
 13 14  2  0
 16 15  1  6
 15 13  1  0
 16 18  1  0
 16 17  1  0
 17 10  1  0
 18 20  1  0
 19 18  2  0
 20 21  1  0
 21 22  1  6
 22 23  1  0
 23 27  1  0
 24 23  2  0
 25 28  1  0
 25 21  1  0
 26 25  2  0
M  END
$$$$
