FND.pdb
     RDKit          3D

 28 28  0  0  1  0  0  0  0  0999 V2000
    9.6242  -16.5482   20.3465 N   0  0  0  0  0  0  0  0  0  0  0  0
   10.1022  -15.8593   21.5097 C   0  0  1  0  0  0  0  0  0  0  0  0
    8.9184  -15.1684   22.1635 C   0  0  0  0  0  0  0  0  0  0  0  0
    8.2711  -14.2105   21.2290 C   0  0  0  0  0  0  0  0  0  0  0  0
    6.9728  -14.4541   20.8733 C   0  0  0  0  0  0  0  0  0  0  0  0
    6.3536  -13.5800   20.0087 C   0  0  0  0  0  0  0  0  0  0  0  0
    7.0577  -12.4849   19.5255 C   0  0  0  0  0  0  0  0  0  0  0  0
    8.3570  -12.2597   19.8944 C   0  0  0  0  0  0  0  0  0  0  0  0
    8.9635  -13.1370   20.7562 C   0  0  0  0  0  0  0  0  0  0  0  0
   10.6442  -16.8048   22.5374 C   0  0  0  0  0  0  0  0  0  0  0  0
   10.8295  -16.3942   23.7105 O   0  0  0  0  0  0  0  0  0  0  0  0
    9.3100  -20.7003   21.0196 N   0  0  0  0  0  0  0  0  0  0  0  0
    9.6853  -20.5733   22.4100 C   0  0  0  0  0  0  0  0  0  0  0  0
    8.7528  -20.6310   23.2069 O   0  0  0  0  0  0  0  0  0  0  0  0
   11.0858  -20.3976   22.6797 C   0  0  0  0  0  0  0  0  0  0  0  0
   11.6091  -19.0740   23.1503 C   0  0  2  0  0  0  0  0  0  0  0  0
   10.9393  -18.1345   22.1839 N   0  0  0  0  0  0  0  0  0  0  0  0
   13.0483  -18.8544   23.0214 C   0  0  0  0  0  0  0  0  0  0  0  0
   13.6356  -19.3457   21.9852 O   0  0  0  0  0  0  0  0  0  0  0  0
   13.8790  -18.1511   23.9122 N   0  0  0  0  0  0  0  0  0  0  0  0
   15.2753  -18.5454   24.0512 C   0  0  1  0  0  0  0  0  0  0  0  0
   16.1484  -17.3227   24.2686 C   0  0  0  0  0  0  0  0  0  0  0  0
   15.9646  -16.4163   23.1185 C   0  0  0  0  0  0  0  0  0  0  0  0
   15.6035  -15.2359   23.3311 O   0  0  0  0  0  0  0  0  0  0  0  0
   15.3926  -19.5356   25.1257 C   0  0  0  0  0  0  0  0  0  0  0  0
   16.4257  -20.1749   25.3964 O   0  0  0  0  0  0  0  0  0  0  0  0
   16.1716  -16.8055   21.8048 O   0  0  0  0  0  0  0  0  0  0  0  0
   14.2629  -19.7949   25.9199 O   0  0  0  0  0  0  0  0  0  0  0  0
  2  1  1  6
  2  3  1  0
  3  4  1  0
  4  5  2  0
  5  6  1  0
  7  6  2  0
  8  7  1  0
  9  4  1  0
  9  8  2  0
 10 11  2  0
 10  2  1  0
 12 13  1  0
 13 14  2  0
 16 15  1  6
 15 13  1  0
 16 18  1  0
 16 17  1  0
 17 10  1  0
 18 20  1  0
 19 18  2  0
 20 21  1  0
 21 22  1  1
 22 23  1  0
 23 27  1  0
 24 23  2  0
 25 28  1  0
 25 21  1  0
 26 25  2  0
M  END
$$$$
