FND.pdb
     RDKit          3D

 28 28  0  0  1  0  0  0  0  0999 V2000
    7.4364  -15.5754   25.2086 N   0  0  0  0  0  0  0  0  0  0  0  0
    6.5163  -15.2746   24.1508 C   0  0  1  0  0  0  0  0  0  0  0  0
    6.3050  -13.7710   24.1282 C   0  0  0  0  0  0  0  0  0  0  0  0
    6.6567  -13.1585   25.4363 C   0  0  0  0  0  0  0  0  0  0  0  0
    7.9761  -12.8838   25.6712 C   0  0  0  0  0  0  0  0  0  0  0  0
    8.3245  -12.3167   26.8761 C   0  0  0  0  0  0  0  0  0  0  0  0
    7.3360  -12.0416   27.8117 C   0  0  0  0  0  0  0  0  0  0  0  0
    6.0208  -12.3246   27.5563 C   0  0  0  0  0  0  0  0  0  0  0  0
    5.6855  -12.8894   26.3527 C   0  0  0  0  0  0  0  0  0  0  0  0
    7.0725  -15.6310   22.8064 C   0  0  0  0  0  0  0  0  0  0  0  0
    6.3825  -15.4104   21.7796 O   0  0  0  0  0  0  0  0  0  0  0  0
    7.4999  -13.3930   19.7097 N   0  0  0  0  0  0  0  0  0  0  0  0
    8.5463  -14.3906   19.7200 C   0  0  0  0  0  0  0  0  0  0  0  0
    8.8891  -14.7950   18.6122 O   0  0  0  0  0  0  0  0  0  0  0  0
    9.0465  -14.7780   21.0102 C   0  0  0  0  0  0  0  0  0  0  0  0
    9.1040  -16.2243   21.4003 C   0  0  2  0  0  0  0  0  0  0  0  0
    8.3532  -16.2053   22.7045 N   0  0  0  0  0  0  0  0  0  0  0  0
   10.4278  -16.7744   21.6851 C   0  0  0  0  0  0  0  0  0  0  0  0
   10.5014  -18.0252   21.9854 O   0  0  0  0  0  0  0  0  0  0  0  0
   11.6527  -16.0835   21.6630 N   0  0  0  0  0  0  0  0  0  0  0  0
   12.8895  -16.8112   21.9182 C   0  0  1  0  0  0  0  0  0  0  0  0
   14.0597  -16.1107   21.2515 C   0  0  0  0  0  0  0  0  0  0  0  0
   15.2766  -16.9063   21.5050 C   0  0  0  0  0  0  0  0  0  0  0  0
   15.3064  -18.1011   21.1303 O   0  0  0  0  0  0  0  0  0  0  0  0
   13.0638  -16.9746   23.3645 C   0  0  0  0  0  0  0  0  0  0  0  0
   12.3983  -16.3829   24.2341 O   0  0  0  0  0  0  0  0  0  0  0  0
   16.3973  -16.3971   22.1413 O   0  0  0  0  0  0  0  0  0  0  0  0
   14.0524  -17.8626   23.8209 O   0  0  0  0  0  0  0  0  0  0  0  0
  2  1  1  1
  2  3  1  0
  3  4  1  0
  4  5  2  0
  5  6  1  0
  7  6  2  0
  8  7  1  0
  9  4  1  0
  9  8  2  0
 10 11  2  0
 10  2  1  0
 12 13  1  0
 13 14  2  0
 16 15  1  1
 15 13  1  0
 16 18  1  0
 16 17  1  0
 17 10  1  0
 18 20  1  0
 19 18  2  0
 20 21  1  0
 21 22  1  1
 22 23  1  0
 23 27  1  0
 24 23  2  0
 25 28  1  0
 25 21  1  0
 26 25  2  0
M  END
$$$$
