FND.pdb
     RDKit          3D

 28 28  0  0  1  0  0  0  0  0999 V2000
    5.9027  -17.5102   25.6952 N   0  0  0  0  0  0  0  0  0  0  0  0
    6.4178  -16.2433   25.2643 C   0  0  1  0  0  0  0  0  0  0  0  0
    7.3896  -15.7494   26.3216 C   0  0  0  0  0  0  0  0  0  0  0  0
    7.1966  -14.3010   26.5951 C   0  0  0  0  0  0  0  0  0  0  0  0
    8.2373  -13.6216   27.1668 C   0  0  0  0  0  0  0  0  0  0  0  0
    8.0804  -12.2795   27.4291 C   0  0  0  0  0  0  0  0  0  0  0  0
    6.8807  -11.6576   27.1092 C   0  0  0  0  0  0  0  0  0  0  0  0
    5.8514  -12.3565   26.5374 C   0  0  0  0  0  0  0  0  0  0  0  0
    6.0190  -13.6929   26.2806 C   0  0  0  0  0  0  0  0  0  0  0  0
    7.2126  -16.3624   24.0002 C   0  0  0  0  0  0  0  0  0  0  0  0
    7.9225  -17.3828   23.8165 O   0  0  0  0  0  0  0  0  0  0  0  0
    8.0327  -12.4708   19.3946 N   0  0  0  0  0  0  0  0  0  0  0  0
    7.9724  -13.8754   19.7319 C   0  0  0  0  0  0  0  0  0  0  0  0
    8.3630  -14.6379   18.8520 O   0  0  0  0  0  0  0  0  0  0  0  0
    7.4690  -14.1971   21.0388 C   0  0  0  0  0  0  0  0  0  0  0  0
    7.9539  -15.4181   21.7608 C   0  0  2  0  0  0  0  0  0  0  0  0
    7.1584  -15.3388   23.0360 N   0  0  0  0  0  0  0  0  0  0  0  0
    9.3639  -15.4359   22.1451 C   0  0  0  0  0  0  0  0  0  0  0  0
    9.7496  -14.5888   23.0360 O   0  0  0  0  0  0  0  0  0  0  0  0
   10.3644  -16.2908   21.6485 N   0  0  0  0  0  0  0  0  0  0  0  0
   11.7363  -16.1333   22.1147 C   0  0  1  0  0  0  0  0  0  0  0  0
   12.0379  -17.1374   23.2126 C   0  0  0  0  0  0  0  0  0  0  0  0
   13.4922  -17.1216   23.4631 C   0  0  0  0  0  0  0  0  0  0  0  0
   13.9845  -16.1650   24.1047 O   0  0  0  0  0  0  0  0  0  0  0  0
   12.6491  -16.2370   20.9725 C   0  0  0  0  0  0  0  0  0  0  0  0
   13.8451  -15.8921   20.9819 O   0  0  0  0  0  0  0  0  0  0  0  0
   14.3491  -18.1172   23.0221 O   0  0  0  0  0  0  0  0  0  0  0  0
   12.1530  -16.7634   19.7679 O   0  0  0  0  0  0  0  0  0  0  0  0
  2  1  1  1
  2  3  1  0
  3  4  1  0
  4  5  2  0
  5  6  1  0
  7  6  2  0
  8  7  1  0
  9  4  1  0
  9  8  2  0
 10 11  2  0
 10  2  1  0
 12 13  1  0
 13 14  2  0
 16 15  1  6
 15 13  1  0
 16 18  1  0
 16 17  1  0
 17 10  1  0
 18 20  1  0
 19 18  2  0
 20 21  1  0
 21 22  1  1
 22 23  1  0
 23 27  1  0
 24 23  2  0
 25 28  1  0
 25 21  1  0
 26 25  2  0
M  END
$$$$
