FND.pdb
     RDKit          3D

 28 28  0  0  1  0  0  0  0  0999 V2000
    6.6515  -15.8256   25.6592 N   0  0  0  0  0  0  0  0  0  0  0  0
    7.3596  -15.3256   24.5170 C   0  0  1  0  0  0  0  0  0  0  0  0
    8.1890  -14.1351   24.9653 C   0  0  0  0  0  0  0  0  0  0  0  0
    7.4385  -13.2894   25.9305 C   0  0  0  0  0  0  0  0  0  0  0  0
    6.2357  -12.7808   25.5231 C   0  0  0  0  0  0  0  0  0  0  0  0
    5.5238  -11.9948   26.4007 C   0  0  0  0  0  0  0  0  0  0  0  0
    6.0416  -11.7419   27.6642 C   0  0  0  0  0  0  0  0  0  0  0  0
    7.2479  -12.2611   28.0518 C   0  0  0  0  0  0  0  0  0  0  0  0
    7.9482  -13.0427   27.1693 C   0  0  0  0  0  0  0  0  0  0  0  0
    8.3360  -16.3271   23.9808 C   0  0  0  0  0  0  0  0  0  0  0  0
    8.2603  -17.5219   24.3625 O   0  0  0  0  0  0  0  0  0  0  0  0
    7.8804  -16.7664   19.8705 N   0  0  0  0  0  0  0  0  0  0  0  0
    8.8135  -15.7199   20.2230 C   0  0  0  0  0  0  0  0  0  0  0  0
    8.4522  -14.5826   19.9327 O   0  0  0  0  0  0  0  0  0  0  0  0
   10.0312  -16.1385   20.8609 C   0  0  0  0  0  0  0  0  0  0  0  0
    9.9899  -16.9138   22.1432 C   0  0  2  0  0  0  0  0  0  0  0  0
    9.3225  -15.9253   23.0611 N   0  0  0  0  0  0  0  0  0  0  0  0
   11.2772  -17.2478   22.7493 C   0  0  0  0  0  0  0  0  0  0  0  0
   11.8450  -18.3430   22.3772 O   0  0  0  0  0  0  0  0  0  0  0  0
   11.9821  -16.4943   23.7052 N   0  0  0  0  0  0  0  0  0  0  0  0
   13.0562  -17.1243   24.4627 C   0  0  1  0  0  0  0  0  0  0  0  0
   14.2583  -16.2003   24.5396 C   0  0  0  0  0  0  0  0  0  0  0  0
   14.7556  -15.9781   23.1680 C   0  0  0  0  0  0  0  0  0  0  0  0
   14.5518  -14.8684   22.6237 O   0  0  0  0  0  0  0  0  0  0  0  0
   12.5495  -17.5215   25.7796 C   0  0  0  0  0  0  0  0  0  0  0  0
   11.3801  -17.3572   26.1727 O   0  0  0  0  0  0  0  0  0  0  0  0
   15.4416  -16.9402   22.4442 O   0  0  0  0  0  0  0  0  0  0  0  0
   13.4379  -18.1355   26.6785 O   0  0  0  0  0  0  0  0  0  0  0  0
  2  1  1  1
  2  3  1  0
  3  4  1  0
  4  5  2  0
  5  6  1  0
  7  6  2  0
  8  7  1  0
  9  4  1  0
  9  8  2  0
 10 11  2  0
 10  2  1  0
 12 13  1  0
 13 14  2  0
 16 15  1  6
 15 13  1  0
 16 18  1  0
 16 17  1  0
 17 10  1  0
 18 20  1  0
 19 18  2  0
 20 21  1  0
 21 22  1  1
 22 23  1  0
 23 27  1  0
 24 23  2  0
 25 28  1  0
 25 21  1  0
 26 25  2  0
M  END
$$$$
