FND.pdb
     RDKit          3D

 28 28  0  0  1  0  0  0  0  0999 V2000
    8.1999  -15.0800   15.9043 N   0  0  0  0  0  0  0  0  0  0  0  0
    8.6189  -14.3704   17.0776 C   0  0  1  0  0  0  0  0  0  0  0  0
    7.4086  -14.2013   17.9791 C   0  0  0  0  0  0  0  0  0  0  0  0
    7.7867  -13.5835   19.2773 C   0  0  0  0  0  0  0  0  0  0  0  0
    7.8342  -14.3984   20.3751 C   0  0  0  0  0  0  0  0  0  0  0  0
    8.1819  -13.8474   21.5876 C   0  0  0  0  0  0  0  0  0  0  0  0
    8.4722  -12.4914   21.6625 C   0  0  0  0  0  0  0  0  0  0  0  0
    8.4186  -11.6935   20.5511 C   0  0  0  0  0  0  0  0  0  0  0  0
    8.0711  -12.2533   19.3486 C   0  0  0  0  0  0  0  0  0  0  0  0
    9.6193  -15.1489   17.8758 C   0  0  0  0  0  0  0  0  0  0  0  0
    9.4745  -16.3913   17.9956 O   0  0  0  0  0  0  0  0  0  0  0  0
   14.7441  -15.9250   17.2224 N   0  0  0  0  0  0  0  0  0  0  0  0
   14.3553  -14.7048   17.8933 C   0  0  0  0  0  0  0  0  0  0  0  0
   15.2812  -14.0641   18.3836 O   0  0  0  0  0  0  0  0  0  0  0  0
   12.9510  -14.4001   17.9013 C   0  0  0  0  0  0  0  0  0  0  0  0
   12.0051  -15.1967   18.7485 C   0  0  2  0  0  0  0  0  0  0  0  0
   10.7048  -14.4880   18.4803 N   0  0  0  0  0  0  0  0  0  0  0  0
   12.2199  -15.1489   20.1934 C   0  0  0  0  0  0  0  0  0  0  0  0
   12.1861  -13.9937   20.7631 O   0  0  0  0  0  0  0  0  0  0  0  0
   12.4582  -16.2396   21.0489 N   0  0  0  0  0  0  0  0  0  0  0  0
   12.8416  -15.9928   22.4333 C   0  0  1  0  0  0  0  0  0  0  0  0
   12.6434  -17.2466   23.2660 C   0  0  0  0  0  0  0  0  0  0  0  0
   11.1950  -17.5160   23.3536 C   0  0  0  0  0  0  0  0  0  0  0  0
   10.8127  -18.6490   23.7266 O   0  0  0  0  0  0  0  0  0  0  0  0
   14.2172  -15.4878   22.4705 C   0  0  0  0  0  0  0  0  0  0  0  0
   15.0217  -15.5400   21.5222 O   0  0  0  0  0  0  0  0  0  0  0  0
   10.2277  -16.5741   23.0421 O   0  0  0  0  0  0  0  0  0  0  0  0
   14.6788  -14.8970   23.6588 O   0  0  0  0  0  0  0  0  0  0  0  0
  2  1  1  6
  2  3  1  0
  3  4  1  0
  4  5  2  0
  5  6  1  0
  7  6  2  0
  8  7  1  0
  9  4  1  0
  9  8  2  0
 10 11  2  0
 10  2  1  0
 12 13  1  0
 13 14  2  0
 16 15  1  6
 15 13  1  0
 16 18  1  0
 16 17  1  0
 17 10  1  0
 18 20  1  0
 19 18  2  0
 20 21  1  0
 21 22  1  1
 22 23  1  0
 23 27  1  0
 24 23  2  0
 25 28  1  0
 25 21  1  0
 26 25  2  0
M  END
$$$$
