FND.pdb
     RDKit          3D

 28 28  0  0  1  0  0  0  0  0999 V2000
    5.7891  -17.2616   24.3638 N   0  0  0  0  0  0  0  0  0  0  0  0
    6.9355  -16.4263   24.5740 C   0  0  1  0  0  0  0  0  0  0  0  0
    6.9613  -16.0275   26.0391 C   0  0  0  0  0  0  0  0  0  0  0  0
    7.0024  -14.5496   26.1937 C   0  0  0  0  0  0  0  0  0  0  0  0
    5.8080  -13.8928   26.3098 C   0  0  0  0  0  0  0  0  0  0  0  0
    5.8225  -12.5239   26.4537 C   0  0  0  0  0  0  0  0  0  0  0  0
    7.0383  -11.8532   26.4767 C   0  0  0  0  0  0  0  0  0  0  0  0
    8.2227  -12.5302   26.3589 C   0  0  0  0  0  0  0  0  0  0  0  0
    8.1960  -13.8937   26.2161 C   0  0  0  0  0  0  0  0  0  0  0  0
    8.2170  -17.1613   24.3263 C   0  0  0  0  0  0  0  0  0  0  0  0
    8.2965  -18.3764   24.6367 O   0  0  0  0  0  0  0  0  0  0  0  0
   12.0564  -18.2145   21.2250 N   0  0  0  0  0  0  0  0  0  0  0  0
   11.9369  -16.7768   21.3195 C   0  0  0  0  0  0  0  0  0  0  0  0
   12.4592  -16.1509   20.4009 O   0  0  0  0  0  0  0  0  0  0  0  0
   11.2305  -16.2686   22.4630 C   0  0  0  0  0  0  0  0  0  0  0  0
   10.6002  -17.2081   23.4465 C   0  0  2  0  0  0  0  0  0  0  0  0
    9.3131  -16.4907   23.7525 N   0  0  0  0  0  0  0  0  0  0  0  0
   11.2949  -17.3874   24.7198 C   0  0  0  0  0  0  0  0  0  0  0  0
   11.9378  -16.3771   25.1955 O   0  0  0  0  0  0  0  0  0  0  0  0
   11.3379  -18.5557   25.5018 N   0  0  0  0  0  0  0  0  0  0  0  0
   12.2609  -18.6298   26.6274 C   0  0  1  0  0  0  0  0  0  0  0  0
   11.7798  -19.6574   27.6360 C   0  0  0  0  0  0  0  0  0  0  0  0
   10.4976  -19.1871   28.1954 C   0  0  0  0  0  0  0  0  0  0  0  0
   10.4582  -18.0696   28.7599 O   0  0  0  0  0  0  0  0  0  0  0  0
   13.6115  -18.9019   26.1272 C   0  0  0  0  0  0  0  0  0  0  0  0
   14.6634  -18.5090   26.6643 O   0  0  0  0  0  0  0  0  0  0  0  0
    9.3252  -19.9227   28.1289 O   0  0  0  0  0  0  0  0  0  0  0  0
   13.7474  -19.6624   24.9535 O   0  0  0  0  0  0  0  0  0  0  0  0
  2  1  1  1
  2  3  1  0
  3  4  1  0
  4  5  2  0
  5  6  1  0
  7  6  2  0
  8  7  1  0
  9  4  1  0
  9  8  2  0
 10 11  2  0
 10  2  1  0
 12 13  1  0
 13 14  2  0
 16 15  1  6
 15 13  1  0
 16 18  1  0
 16 17  1  0
 17 10  1  0
 18 20  1  0
 19 18  2  0
 20 21  1  0
 21 22  1  1
 22 23  1  0
 23 27  1  0
 24 23  2  0
 25 28  1  0
 25 21  1  0
 26 25  2  0
M  END
$$$$
