FND.pdb
     RDKit          3D

 28 28  0  0  1  0  0  0  0  0999 V2000
    6.2752  -16.6102   25.4745 N   0  0  0  0  0  0  0  0  0  0  0  0
    6.6612  -16.3208   24.1243 C   0  0  1  0  0  0  0  0  0  0  0  0
    6.4478  -14.8365   23.8847 C   0  0  0  0  0  0  0  0  0  0  0  0
    6.8793  -14.0344   25.0596 C   0  0  0  0  0  0  0  0  0  0  0  0
    8.1596  -14.2096   25.5087 C   0  0  0  0  0  0  0  0  0  0  0  0
    8.5804  -13.4772   26.5955 C   0  0  0  0  0  0  0  0  0  0  0  0
    7.7016  -12.5886   27.2009 C   0  0  0  0  0  0  0  0  0  0  0  0
    6.4239  -12.4286   26.7353 C   0  0  0  0  0  0  0  0  0  0  0  0
    6.0157  -13.1634   25.6519 C   0  0  0  0  0  0  0  0  0  0  0  0
    8.1206  -16.5678   23.8938 C   0  0  0  0  0  0  0  0  0  0  0  0
    8.7706  -17.2328   24.7390 O   0  0  0  0  0  0  0  0  0  0  0  0
   12.4143  -16.9573   20.6926 N   0  0  0  0  0  0  0  0  0  0  0  0
   11.3685  -16.1312   20.1322 C   0  0  0  0  0  0  0  0  0  0  0  0
   11.5511  -15.7799   18.9697 O   0  0  0  0  0  0  0  0  0  0  0  0
   10.2610  -15.8295   20.9967 C   0  0  0  0  0  0  0  0  0  0  0  0
   10.1070  -16.5364   22.3096 C   0  0  2  0  0  0  0  0  0  0  0  0
    8.7472  -16.0574   22.7417 N   0  0  0  0  0  0  0  0  0  0  0  0
   11.0412  -16.1621   23.3694 C   0  0  0  0  0  0  0  0  0  0  0  0
   10.6964  -15.2016   24.1560 O   0  0  0  0  0  0  0  0  0  0  0  0
   12.2933  -16.7444   23.6367 N   0  0  0  0  0  0  0  0  0  0  0  0
   12.6310  -17.1189   25.0043 C   0  0  1  0  0  0  0  0  0  0  0  0
   11.4253  -17.7293   25.6960 C   0  0  0  0  0  0  0  0  0  0  0  0
   11.8275  -18.1197   27.0612 C   0  0  0  0  0  0  0  0  0  0  0  0
   12.5954  -17.3668   27.7036 O   0  0  0  0  0  0  0  0  0  0  0  0
   13.7967  -18.0073   24.9876 C   0  0  0  0  0  0  0  0  0  0  0  0
   14.8753  -17.7792   25.5654 O   0  0  0  0  0  0  0  0  0  0  0  0
   11.3973  -19.2851   27.6750 O   0  0  0  0  0  0  0  0  0  0  0  0
   13.7070  -19.2119   24.2698 O   0  0  0  0  0  0  0  0  0  0  0  0
  2  1  1  1
  2  3  1  0
  3  4  1  0
  4  5  2  0
  5  6  1  0
  7  6  2  0
  8  7  1  0
  9  4  1  0
  9  8  2  0
 10 11  2  0
 10  2  1  0
 12 13  1  0
 13 14  2  0
 16 15  1  6
 15 13  1  0
 16 18  1  0
 16 17  1  0
 17 10  1  0
 18 20  1  0
 19 18  2  0
 20 21  1  0
 21 22  1  6
 22 23  1  0
 23 27  1  0
 24 23  2  0
 25 28  1  0
 25 21  1  0
 26 25  2  0
M  END
$$$$
