FND.pdb
     RDKit          3D

 28 28  0  0  1  0  0  0  0  0999 V2000
    6.2055  -17.6087   20.8247 N   0  0  0  0  0  0  0  0  0  0  0  0
    7.4983  -17.3201   20.2757 C   0  0  1  0  0  0  0  0  0  0  0  0
    8.2046  -16.3635   21.2202 C   0  0  0  0  0  0  0  0  0  0  0  0
    7.9878  -14.9497   20.8156 C   0  0  0  0  0  0  0  0  0  0  0  0
    7.8780  -14.0172   21.8105 C   0  0  0  0  0  0  0  0  0  0  0  0
    7.6766  -12.7018   21.4586 C   0  0  0  0  0  0  0  0  0  0  0  0
    7.5911  -12.3604   20.1153 C   0  0  0  0  0  0  0  0  0  0  0  0
    7.7037  -13.3098   19.1350 C   0  0  0  0  0  0  0  0  0  0  0  0
    7.9042  -14.6170   19.4974 C   0  0  0  0  0  0  0  0  0  0  0  0
    8.3629  -18.5414   20.2064 C   0  0  0  0  0  0  0  0  0  0  0  0
    7.9451  -19.5539   19.5905 O   0  0  0  0  0  0  0  0  0  0  0  0
   11.5241  -17.3423   16.9177 N   0  0  0  0  0  0  0  0  0  0  0  0
   10.3280  -17.7096   17.6420 C   0  0  0  0  0  0  0  0  0  0  0  0
    9.5200  -18.3796   17.0044 O   0  0  0  0  0  0  0  0  0  0  0  0
   10.2374  -17.2494   19.0003 C   0  0  0  0  0  0  0  0  0  0  0  0
   10.8525  -18.0420   20.1141 C   0  0  2  0  0  0  0  0  0  0  0  0
    9.6261  -18.5453   20.8266 N   0  0  0  0  0  0  0  0  0  0  0  0
   11.6332  -17.2941   21.0976 C   0  0  0  0  0  0  0  0  0  0  0  0
   12.7127  -16.7207   20.6903 O   0  0  0  0  0  0  0  0  0  0  0  0
   11.3325  -17.1214   22.4607 N   0  0  0  0  0  0  0  0  0  0  0  0
   12.2535  -16.3737   23.3075 C   0  0  1  0  0  0  0  0  0  0  0  0
   11.6733  -16.2109   24.7009 C   0  0  0  0  0  0  0  0  0  0  0  0
   10.2934  -15.7048   24.5679 C   0  0  0  0  0  0  0  0  0  0  0  0
    9.8672  -15.4039   23.4291 O   0  0  0  0  0  0  0  0  0  0  0  0
   13.5609  -17.0364   23.3015 C   0  0  0  0  0  0  0  0  0  0  0  0
   14.6578  -16.4496   23.3442 O   0  0  0  0  0  0  0  0  0  0  0  0
    9.4372  -15.5431   25.6454 O   0  0  0  0  0  0  0  0  0  0  0  0
   13.5971  -18.4398   23.2435 O   0  0  0  0  0  0  0  0  0  0  0  0
  2  1  1  1
  2  3  1  0
  3  4  1  0
  4  5  2  0
  5  6  1  0
  7  6  2  0
  8  7  1  0
  9  4  1  0
  9  8  2  0
 10 11  2  0
 10  2  1  0
 12 13  1  0
 13 14  2  0
 16 15  1  6
 15 13  1  0
 16 18  1  0
 16 17  1  0
 17 10  1  0
 18 20  1  0
 19 18  2  0
 20 21  1  0
 21 22  1  1
 22 23  1  0
 23 27  1  0
 24 23  2  0
 25 28  1  0
 25 21  1  0
 26 25  2  0
M  END
$$$$
