FND.pdb
     RDKit          3D

 28 28  0  0  1  0  0  0  0  0999 V2000
    6.7427  -15.7416   24.2364 N   0  0  0  0  0  0  0  0  0  0  0  0
    7.5166  -15.5285   25.4245 C   0  0  1  0  0  0  0  0  0  0  0  0
    6.6772  -14.7086   26.3885 C   0  0  0  0  0  0  0  0  0  0  0  0
    6.5738  -13.2941   25.9430 C   0  0  0  0  0  0  0  0  0  0  0  0
    5.9717  -12.4064   26.7920 C   0  0  0  0  0  0  0  0  0  0  0  0
    5.8648  -11.0914   26.3996 C   0  0  0  0  0  0  0  0  0  0  0  0
    6.3667  -10.7054   25.1637 C   0  0  0  0  0  0  0  0  0  0  0  0
    6.9659  -11.6104   24.3289 C   0  0  0  0  0  0  0  0  0  0  0  0
    7.0667  -12.9176   24.7303 C   0  0  0  0  0  0  0  0  0  0  0  0
    7.8190  -16.8127   26.1339 C   0  0  0  0  0  0  0  0  0  0  0  0
    8.5253  -16.7872   27.1730 O   0  0  0  0  0  0  0  0  0  0  0  0
    7.6544  -22.1156   26.8923 N   0  0  0  0  0  0  0  0  0  0  0  0
    6.6332  -21.6524   25.9796 C   0  0  0  0  0  0  0  0  0  0  0  0
    5.8426  -22.5140   25.6044 O   0  0  0  0  0  0  0  0  0  0  0  0
    6.6727  -20.2588   25.6314 C   0  0  0  0  0  0  0  0  0  0  0  0
    7.6838  -19.3469   26.2584 C   0  0  2  0  0  0  0  0  0  0  0  0
    7.3140  -18.0278   25.6352 N   0  0  0  0  0  0  0  0  0  0  0  0
    9.0851  -19.5923   25.9232 C   0  0  0  0  0  0  0  0  0  0  0  0
    9.3781  -19.7731   24.6816 O   0  0  0  0  0  0  0  0  0  0  0  0
   10.1701  -19.6493   26.8163 N   0  0  0  0  0  0  0  0  0  0  0  0
   11.5003  -19.9592   26.3074 C   0  0  1  0  0  0  0  0  0  0  0  0
   12.0604  -18.7740   25.5417 C   0  0  0  0  0  0  0  0  0  0  0  0
   13.4484  -19.0918   25.1537 C   0  0  0  0  0  0  0  0  0  0  0  0
   14.3438  -19.0553   26.0289 O   0  0  0  0  0  0  0  0  0  0  0  0
   12.3560  -20.3831   27.4195 C   0  0  0  0  0  0  0  0  0  0  0  0
   12.0935  -20.2164   28.6247 O   0  0  0  0  0  0  0  0  0  0  0  0
   13.8165  -19.4309   23.8616 O   0  0  0  0  0  0  0  0  0  0  0  0
   13.5679  -21.0280   27.1202 O   0  0  0  0  0  0  0  0  0  0  0  0
  2  1  1  6
  2  3  1  0
  3  4  1  0
  4  5  2  0
  5  6  1  0
  7  6  2  0
  8  7  1  0
  9  4  1  0
  9  8  2  0
 10 11  2  0
 10  2  1  0
 12 13  1  0
 13 14  2  0
 16 15  1  6
 15 13  1  0
 16 18  1  0
 16 17  1  0
 17 10  1  0
 18 20  1  0
 19 18  2  0
 20 21  1  0
 21 22  1  1
 22 23  1  0
 23 27  1  0
 24 23  2  0
 25 28  1  0
 25 21  1  0
 26 25  2  0
M  END
$$$$
