SQT.pdb
     RDKit          3D

 23 22  0  0  1  0  0  0  0  0999 V2000
   25.4274  -12.8897  -15.4680 O   0  0  0  0  0  0  0  0  0  0  0  0
   24.8365  -11.6758  -15.8100 C   0  0  0  0  0  0  0  0  0  0  0  0
   23.5682  -11.9678  -16.5800 C   0  0  2  0  0  0  0  0  0  0  0  0
   23.8201  -12.4978  -17.8849 N   0  0  0  0  0  0  0  0  0  0  0  0
   22.7462  -10.7392  -16.6976 C   0  0  0  0  0  0  0  0  0  0  0  0
   22.8960   -9.9911  -17.6882 O   0  0  0  0  0  0  0  0  0  0  0  0
   16.9335   -9.7925  -15.7062 N   0  0  0  0  0  0  0  0  0  0  0  0
   17.3214   -8.4447  -15.8641 C   0  0  0  0  0  0  0  0  0  0  0  0
   16.4649   -7.5516  -15.9718 O   0  0  0  0  0  0  0  0  0  0  0  0
   18.7529   -8.1062  -15.9001 C   0  0  0  0  0  0  0  0  0  0  0  0
   19.5431   -9.3526  -15.7320 C   0  0  0  0  0  0  0  0  0  0  0  0
   21.0334   -9.1622  -15.8485 C   0  0  2  0  0  0  0  0  0  0  0  0
   21.7764  -10.3715  -15.7102 N   0  0  0  0  0  0  0  0  0  0  0  0
   21.4717   -8.1061  -14.8876 C   0  0  0  0  0  0  0  0  0  0  0  0
   21.7087   -8.3255  -13.6815 O   0  0  0  0  0  0  0  0  0  0  0  0
   22.4937   -4.3748  -16.6022 C   0  0  0  0  0  0  0  0  0  0  0  0
   23.0673   -4.8809  -15.3142 C   0  0  1  0  0  0  0  0  0  0  0  0
   23.5185   -3.7980  -14.5345 O   0  0  0  0  0  0  0  0  0  0  0  0
   22.0236   -5.6747  -14.5245 C   0  0  2  0  0  0  0  0  0  0  0  0
   21.6282   -6.7782  -15.3704 N   0  0  0  0  0  0  0  0  0  0  0  0
   20.8409   -4.7933  -14.3520 C   0  0  0  0  0  0  0  0  0  0  0  0
   19.7619   -5.0044  -14.9623 O   0  0  0  0  0  0  0  0  0  0  0  0
   20.8557   -3.6801  -13.5041 O   0  0  0  0  0  0  0  0  0  0  0  0
  1  2  1  0
  2  3  1  0
  3  5  1  0
  3  4  1  6
  5  6  2  0
  7  8  1  0
  8  9  2  0
  8 10  1  0
 10 11  1  0
 12 11  1  1
 12 14  1  0
 13  5  1  0
 13 12  1  0
 14 20  1  0
 15 14  2  0
 17 18  1  0
 17 16  1  6
 19 17  1  0
 19 20  1  6
 21 23  1  0
 21 19  1  0
 22 21  2  0
M  END
$$$$
