SQT.pdb
     RDKit          3D

 23 22  0  0  1  0  0  0  0  0999 V2000
   25.5923  -11.8045  -15.9364 O   0  0  0  0  0  0  0  0  0  0  0  0
   24.8664  -10.6423  -16.1853 C   0  0  0  0  0  0  0  0  0  0  0  0
   23.4794  -11.0392  -16.6386 C   0  0  2  0  0  0  0  0  0  0  0  0
   23.4457  -11.4857  -17.9975 N   0  0  0  0  0  0  0  0  0  0  0  0
   22.5410   -9.9034  -16.4700 C   0  0  0  0  0  0  0  0  0  0  0  0
   22.6776   -8.8821  -17.1781 O   0  0  0  0  0  0  0  0  0  0  0  0
   16.9474  -10.0284  -13.7712 N   0  0  0  0  0  0  0  0  0  0  0  0
   17.2179  -10.5632  -15.0490 C   0  0  0  0  0  0  0  0  0  0  0  0
   16.4164  -11.3449  -15.5869 O   0  0  0  0  0  0  0  0  0  0  0  0
   18.4609  -10.1855  -15.7400 C   0  0  0  0  0  0  0  0  0  0  0  0
   19.2069   -9.2230  -14.8896 C   0  0  0  0  0  0  0  0  0  0  0  0
   20.5600   -8.8379  -15.4297 C   0  0  2  0  0  0  0  0  0  0  0  0
   21.4723   -9.9306  -15.5173 N   0  0  0  0  0  0  0  0  0  0  0  0
   21.1035   -7.6990  -14.6309 C   0  0  0  0  0  0  0  0  0  0  0  0
   21.6441   -7.8352  -13.5138 O   0  0  0  0  0  0  0  0  0  0  0  0
   23.8287   -5.5784  -15.5353 C   0  0  0  0  0  0  0  0  0  0  0  0
   22.6305   -4.6804  -15.4911 C   0  0  1  0  0  0  0  0  0  0  0  0
   22.0733   -4.5643  -16.7796 O   0  0  0  0  0  0  0  0  0  0  0  0
   21.5729   -5.2257  -14.5282 C   0  0  2  0  0  0  0  0  0  0  0  0
   21.0007   -6.3877  -15.1701 N   0  0  0  0  0  0  0  0  0  0  0  0
   20.5056   -4.1986  -14.4219 C   0  0  0  0  0  0  0  0  0  0  0  0
   20.6894   -3.1113  -13.8175 O   0  0  0  0  0  0  0  0  0  0  0  0
   19.2371   -4.3778  -14.9851 O   0  0  0  0  0  0  0  0  0  0  0  0
  1  2  1  0
  2  3  1  0
  3  5  1  0
  3  4  1  6
  5  6  2  0
  7  8  1  0
  8  9  2  0
  8 10  1  0
 10 11  1  0
 12 11  1  1
 12 14  1  0
 13  5  1  0
 13 12  1  0
 14 20  1  0
 15 14  2  0
 17 18  1  0
 17 16  1  6
 19 17  1  0
 19 20  1  6
 21 23  1  0
 21 19  1  0
 22 21  2  0
M  END
$$$$
