SQT.pdb
     RDKit          3D

 23 22  0  0  1  0  0  0  0  0999 V2000
   27.4563  -19.6969  -17.6335 O   0  0  0  0  0  0  0  0  0  0  0  0
   27.7409  -19.7045  -16.2702 C   0  0  0  0  0  0  0  0  0  0  0  0
   27.8135  -21.1433  -15.8104 C   0  0  2  0  0  0  0  0  0  0  0  0
   27.8048  -22.0745  -16.8967 N   0  0  0  0  0  0  0  0  0  0  0  0
   26.6878  -21.4454  -14.8936 C   0  0  0  0  0  0  0  0  0  0  0  0
   25.7663  -22.1980  -15.2779 O   0  0  0  0  0  0  0  0  0  0  0  0
   26.0561  -20.2335   -8.7647 N   0  0  0  0  0  0  0  0  0  0  0  0
   24.8054  -20.8157   -9.0631 C   0  0  0  0  0  0  0  0  0  0  0  0
   23.9867  -21.0470   -8.1582 O   0  0  0  0  0  0  0  0  0  0  0  0
   24.4794  -21.1470  -10.4593 C   0  0  0  0  0  0  0  0  0  0  0  0
   25.6539  -20.8314  -11.3121 C   0  0  0  0  0  0  0  0  0  0  0  0
   25.4413  -21.0925  -12.7809 C   0  0  2  0  0  0  0  0  0  0  0  0
   26.6137  -20.9030  -13.5704 N   0  0  0  0  0  0  0  0  0  0  0  0
   24.2863  -20.2782  -13.2640 C   0  0  0  0  0  0  0  0  0  0  0  0
   24.3087  -19.0330  -13.3531 O   0  0  0  0  0  0  0  0  0  0  0  0
   22.6757  -20.2306  -16.4662 C   0  0  0  0  0  0  0  0  0  0  0  0
   21.6404  -20.7543  -15.5186 C   0  0  1  0  0  0  0  0  0  0  0  0
   21.6439  -22.1627  -15.5387 O   0  0  0  0  0  0  0  0  0  0  0  0
   21.9068  -20.2664  -14.0923 C   0  0  2  0  0  0  0  0  0  0  0  0
   23.0955  -20.9556  -13.6435 N   0  0  0  0  0  0  0  0  0  0  0  0
   20.7734  -20.7293  -13.2518 C   0  0  0  0  0  0  0  0  0  0  0  0
   20.9145  -21.6303  -12.3860 O   0  0  0  0  0  0  0  0  0  0  0  0
   19.4862  -20.1935  -13.3718 O   0  0  0  0  0  0  0  0  0  0  0  0
  1  2  1  0
  2  3  1  0
  3  5  1  0
  3  4  1  6
  5  6  2  0
  7  8  1  0
  8  9  2  0
  8 10  1  0
 10 11  1  0
 12 11  1  1
 12 14  1  0
 13  5  1  0
 13 12  1  0
 14 20  1  0
 15 14  2  0
 17 18  1  0
 17 16  1  6
 19 17  1  0
 19 20  1  1
 21 23  1  0
 21 19  1  0
 22 21  2  0
M  END
$$$$
