SQT.pdb
     RDKit          3D

 23 22  0  0  1  0  0  0  0  0999 V2000
   24.1326  -12.4456  -19.5064 O   0  0  0  0  0  0  0  0  0  0  0  0
   23.3174  -11.3169  -19.4762 C   0  0  0  0  0  0  0  0  0  0  0  0
   22.0600  -11.6622  -18.7103 C   0  0  2  0  0  0  0  0  0  0  0  0
   21.1360  -12.4372  -19.4803 N   0  0  0  0  0  0  0  0  0  0  0  0
   21.3919  -10.4254  -18.2382 C   0  0  0  0  0  0  0  0  0  0  0  0
   20.7670   -9.7136  -19.0544 O   0  0  0  0  0  0  0  0  0  0  0  0
   17.4161   -9.6190  -14.1262 N   0  0  0  0  0  0  0  0  0  0  0  0
   17.6064   -8.2573  -14.4452 C   0  0  0  0  0  0  0  0  0  0  0  0
   16.8144   -7.3963  -14.0280 O   0  0  0  0  0  0  0  0  0  0  0  0
   18.7544   -7.8659  -15.2784 C   0  0  0  0  0  0  0  0  0  0  0  0
   19.4998   -9.0895  -15.6701 C   0  0  0  0  0  0  0  0  0  0  0  0
   20.7576   -8.8239  -16.4565 C   0  0  2  0  0  0  0  0  0  0  0  0
   21.4347  -10.0093  -16.8686 N   0  0  0  0  0  0  0  0  0  0  0  0
   21.6380   -7.9002  -15.6804 C   0  0  0  0  0  0  0  0  0  0  0  0
   22.4519   -8.2862  -14.8157 O   0  0  0  0  0  0  0  0  0  0  0  0
   22.8848   -3.0882  -15.3082 C   0  0  0  0  0  0  0  0  0  0  0  0
   22.1802   -4.2103  -16.0071 C   0  0  1  0  0  0  0  0  0  0  0  0
   22.7088   -4.3724  -17.3027 O   0  0  0  0  0  0  0  0  0  0  0  0
   22.3314   -5.5203  -15.2298 C   0  0  2  0  0  0  0  0  0  0  0  0
   21.5462   -6.5054  -15.9387 N   0  0  0  0  0  0  0  0  0  0  0  0
   21.7031   -5.3158  -13.8998 C   0  0  0  0  0  0  0  0  0  0  0  0
   20.4549   -5.3255  -13.7475 O   0  0  0  0  0  0  0  0  0  0  0  0
   22.4584   -5.1011  -12.7414 O   0  0  0  0  0  0  0  0  0  0  0  0
  1  2  1  0
  2  3  1  0
  3  5  1  0
  3  4  1  6
  5  6  2  0
  7  8  1  0
  8  9  2  0
  8 10  1  0
 10 11  1  0
 12 11  1  1
 12 14  1  0
 13  5  1  0
 13 12  1  0
 14 20  1  0
 15 14  2  0
 17 18  1  0
 17 16  1  1
 19 17  1  0
 19 20  1  6
 21 23  1  0
 21 19  1  0
 22 21  2  0
M  END
$$$$
