SQT.pdb
     RDKit          3D

 23 22  0  0  1  0  0  0  0  0999 V2000
   27.2033  -17.3683  -17.8003 O   0  0  0  0  0  0  0  0  0  0  0  0
   26.7124  -18.6697  -17.7312 C   0  0  0  0  0  0  0  0  0  0  0  0
   27.5880  -19.4555  -16.7811 C   0  0  2  0  0  0  0  0  0  0  0  0
   28.2954  -20.5178  -17.4278 N   0  0  0  0  0  0  0  0  0  0  0  0
   26.7730  -20.0094  -15.6730 C   0  0  0  0  0  0  0  0  0  0  0  0
   26.1057  -21.0500  -15.8606 O   0  0  0  0  0  0  0  0  0  0  0  0
   26.8274  -21.8282  -10.9664 N   0  0  0  0  0  0  0  0  0  0  0  0
   25.6211  -21.2797  -10.4806 C   0  0  0  0  0  0  0  0  0  0  0  0
   24.9426  -21.8950   -9.6417 O   0  0  0  0  0  0  0  0  0  0  0  0
   25.1733  -19.9693  -10.9781 C   0  0  0  0  0  0  0  0  0  0  0  0
   26.1405  -19.4894  -11.9982 C   0  0  0  0  0  0  0  0  0  0  0  0
   25.7626  -19.8263  -13.4175 C   0  0  2  0  0  0  0  0  0  0  0  0
   26.7196  -19.3926  -14.3818 N   0  0  0  0  0  0  0  0  0  0  0  0
   24.3900  -19.3087  -13.6980 C   0  0  0  0  0  0  0  0  0  0  0  0
   24.0888  -18.0975  -13.6648 O   0  0  0  0  0  0  0  0  0  0  0  0
   22.2344  -19.5075  -16.6685 C   0  0  0  0  0  0  0  0  0  0  0  0
   21.5980  -20.3542  -15.6092 C   0  0  1  0  0  0  0  0  0  0  0  0
   22.0001  -21.6952  -15.7647 O   0  0  0  0  0  0  0  0  0  0  0  0
   21.9873  -19.8666  -14.2113 C   0  0  2  0  0  0  0  0  0  0  0  0
   23.3695  -20.2443  -14.0205 N   0  0  0  0  0  0  0  0  0  0  0  0
   21.1718  -20.6347  -13.2363 C   0  0  0  0  0  0  0  0  0  0  0  0
   21.6721  -21.5394  -12.5205 O   0  0  0  0  0  0  0  0  0  0  0  0
   19.8042  -20.3991  -13.0561 O   0  0  0  0  0  0  0  0  0  0  0  0
  1  2  1  0
  2  3  1  0
  3  5  1  0
  3  4  1  6
  5  6  2  0
  7  8  1  0
  8  9  2  0
  8 10  1  0
 10 11  1  0
 12 11  1  1
 12 14  1  0
 13  5  1  0
 13 12  1  0
 14 20  1  0
 15 14  2  0
 17 18  1  0
 17 16  1  6
 19 17  1  0
 19 20  1  1
 21 23  1  0
 21 19  1  0
 22 21  2  0
M  END
$$$$
