SQT.pdb
     RDKit          3D

 23 22  0  0  1  0  0  0  0  0999 V2000
   25.2854  -13.1181  -15.7276 O   0  0  0  0  0  0  0  0  0  0  0  0
   24.7659  -11.9030  -16.1671 C   0  0  0  0  0  0  0  0  0  0  0  0
   23.3335  -12.1288  -16.5963 C   0  0  2  0  0  0  0  0  0  0  0  0
   23.2304  -12.7737  -17.8694 N   0  0  0  0  0  0  0  0  0  0  0  0
   22.6017  -10.8398  -16.6365 C   0  0  0  0  0  0  0  0  0  0  0  0
   22.6241  -10.1517  -17.6802 O   0  0  0  0  0  0  0  0  0  0  0  0
   17.1952   -9.5779  -14.2841 N   0  0  0  0  0  0  0  0  0  0  0  0
   17.4502   -8.3864  -14.9963 C   0  0  0  0  0  0  0  0  0  0  0  0
   16.5395   -7.5660  -15.1976 O   0  0  0  0  0  0  0  0  0  0  0  0
   18.8079   -8.1240  -15.4994 C   0  0  0  0  0  0  0  0  0  0  0  0
   19.6671   -9.2953  -15.1894 C   0  0  0  0  0  0  0  0  0  0  0  0
   21.1012   -9.1451  -15.6272 C   0  0  2  0  0  0  0  0  0  0  0  0
   21.8617  -10.3462  -15.5142 N   0  0  0  0  0  0  0  0  0  0  0  0
   21.7226   -8.0012  -14.8952 C   0  0  0  0  0  0  0  0  0  0  0  0
   22.2391   -8.1048  -13.7632 O   0  0  0  0  0  0  0  0  0  0  0  0
   24.0866   -5.3687  -16.6887 C   0  0  0  0  0  0  0  0  0  0  0  0
   22.8841   -4.7177  -16.0768 C   0  0  1  0  0  0  0  0  0  0  0  0
   21.8812   -4.5551  -17.0524 O   0  0  0  0  0  0  0  0  0  0  0  0
   22.3358   -5.5576  -14.9204 C   0  0  2  0  0  0  0  0  0  0  0  0
   21.7274   -6.7241  -15.5194 N   0  0  0  0  0  0  0  0  0  0  0  0
   21.2559   -4.7663  -14.2776 C   0  0  0  0  0  0  0  0  0  0  0  0
   20.0478   -5.1062  -14.3567 O   0  0  0  0  0  0  0  0  0  0  0  0
   21.5162   -3.6005  -13.5485 O   0  0  0  0  0  0  0  0  0  0  0  0
  1  2  1  0
  2  3  1  0
  3  5  1  0
  3  4  1  6
  5  6  2  0
  7  8  1  0
  8  9  2  0
  8 10  1  0
 10 11  1  0
 12 11  1  1
 12 14  1  0
 13  5  1  0
 13 12  1  0
 14 20  1  0
 15 14  2  0
 17 18  1  0
 17 16  1  6
 19 17  1  0
 19 20  1  6
 21 23  1  0
 21 19  1  0
 22 21  2  0
M  END
$$$$
