SQT.pdb
     RDKit          3D

 23 22  0  0  1  0  0  0  0  0999 V2000
   15.1033  -11.0092  -14.4314 O   0  0  0  0  0  0  0  0  0  0  0  0
   16.3203  -10.3325  -14.4547 C   0  0  0  0  0  0  0  0  0  0  0  0
   17.1643  -10.9156  -15.5658 C   0  0  2  0  0  0  0  0  0  0  0  0
   17.5403  -12.2746  -15.3229 N   0  0  0  0  0  0  0  0  0  0  0  0
   18.3834  -10.0957  -15.7671 C   0  0  0  0  0  0  0  0  0  0  0  0
   19.2935  -10.1257  -14.9103 O   0  0  0  0  0  0  0  0  0  0  0  0
   22.1432   -9.6579  -18.8333 N   0  0  0  0  0  0  0  0  0  0  0  0
   22.4398   -8.2783  -18.8056 C   0  0  0  0  0  0  0  0  0  0  0  0
   23.6005   -7.8799  -18.9981 O   0  0  0  0  0  0  0  0  0  0  0  0
   21.3593   -7.3138  -18.5460 C   0  0  0  0  0  0  0  0  0  0  0  0
   20.0772   -8.0539  -18.4242 C   0  0  0  0  0  0  0  0  0  0  0  0
   19.6904   -8.3948  -17.0083 C   0  0  2  0  0  0  0  0  0  0  0  0
   18.5615   -9.2615  -16.9173 N   0  0  0  0  0  0  0  0  0  0  0  0
   19.5098   -7.1333  -16.2295 C   0  0  0  0  0  0  0  0  0  0  0  0
   18.4449   -6.4817  -16.2080 O   0  0  0  0  0  0  0  0  0  0  0  0
   20.7860   -6.5463  -12.4799 C   0  0  0  0  0  0  0  0  0  0  0  0
   21.4503   -5.6483  -13.4781 C   0  0  1  0  0  0  0  0  0  0  0  0
   22.6700   -6.2169  -13.8941 O   0  0  0  0  0  0  0  0  0  0  0  0
   20.5520   -5.4260  -14.6975 C   0  0  2  0  0  0  0  0  0  0  0  0
   20.6087   -6.6461  -15.4707 N   0  0  0  0  0  0  0  0  0  0  0  0
   21.1736   -4.3490  -15.5094 C   0  0  0  0  0  0  0  0  0  0  0  0
   21.2237   -3.1592  -15.1056 O   0  0  0  0  0  0  0  0  0  0  0  0
   21.7383   -4.5920  -16.7666 O   0  0  0  0  0  0  0  0  0  0  0  0
  1  2  1  0
  2  3  1  0
  3  5  1  0
  3  4  1  1
  5  6  2  0
  7  8  1  0
  8  9  2  0
  8 10  1  0
 10 11  1  0
 12 11  1  6
 12 14  1  0
 13  5  1  0
 13 12  1  0
 14 20  1  0
 15 14  2  0
 17 18  1  0
 17 16  1  1
 19 17  1  0
 19 20  1  6
 21 23  1  0
 21 19  1  0
 22 21  2  0
M  END
$$$$
