SQT.pdb
     RDKit          3D

 23 22  0  0  1  0  0  0  0  0999 V2000
   19.1221  -11.5158  -18.2916 O   0  0  0  0  0  0  0  0  0  0  0  0
   19.8935  -10.7708  -17.4031 C   0  0  0  0  0  0  0  0  0  0  0  0
   21.2379  -11.4484  -17.2610 C   0  0  2  0  0  0  0  0  0  0  0  0
   21.1355  -12.7872  -16.7666 N   0  0  0  0  0  0  0  0  0  0  0  0
   22.1175  -10.6587  -16.3657 C   0  0  0  0  0  0  0  0  0  0  0  0
   21.7797  -10.4761  -15.1758 O   0  0  0  0  0  0  0  0  0  0  0  0
   28.1680  -10.6050  -16.3178 N   0  0  0  0  0  0  0  0  0  0  0  0
   27.2627  -11.6505  -16.0361 C   0  0  0  0  0  0  0  0  0  0  0  0
   27.6645  -12.8215  -15.9364 O   0  0  0  0  0  0  0  0  0  0  0  0
   25.8350  -11.3400  -15.8612 C   0  0  0  0  0  0  0  0  0  0  0  0
   25.6482   -9.8707  -15.9737 C   0  0  0  0  0  0  0  0  0  0  0  0
   24.2122   -9.4207  -15.8953 C   0  0  2  0  0  0  0  0  0  0  0  0
   23.3526  -10.0904  -16.8153 N   0  0  0  0  0  0  0  0  0  0  0  0
   24.1535   -7.9346  -16.0324 C   0  0  0  0  0  0  0  0  0  0  0  0
   25.0016   -7.2649  -16.6579 O   0  0  0  0  0  0  0  0  0  0  0  0
   21.9768   -5.9317  -17.8117 C   0  0  0  0  0  0  0  0  0  0  0  0
   21.6861   -5.5674  -16.3880 C   0  0  1  0  0  0  0  0  0  0  0  0
   20.6044   -6.3331  -15.9109 O   0  0  0  0  0  0  0  0  0  0  0  0
   22.9095   -5.8092  -15.5003 C   0  0  2  0  0  0  0  0  0  0  0  0
   23.0740   -7.2430  -15.4182 N   0  0  0  0  0  0  0  0  0  0  0  0
   22.5693   -5.3164  -14.1413 C   0  0  0  0  0  0  0  0  0  0  0  0
   22.4074   -6.1015  -13.1725 O   0  0  0  0  0  0  0  0  0  0  0  0
   22.4091   -3.9553  -13.8582 O   0  0  0  0  0  0  0  0  0  0  0  0
  1  2  1  0
  2  3  1  0
  3  5  1  0
  3  4  1  1
  5  6  2  0
  7  8  1  0
  8  9  2  0
  8 10  1  0
 10 11  1  0
 12 11  1  6
 12 14  1  0
 13  5  1  0
 13 12  1  0
 14 20  1  0
 15 14  2  0
 17 18  1  0
 17 16  1  6
 19 17  1  0
 19 20  1  1
 21 23  1  0
 21 19  1  0
 22 21  2  0
M  END
$$$$
