SQT.pdb
     RDKit          3D

 23 22  0  0  1  0  0  0  0  0999 V2000
   14.6250   -5.4970   -7.3867 O   0  0  0  0  0  0  0  0  0  0  0  0
   15.6292   -6.1830   -8.0652 C   0  0  0  0  0  0  0  0  0  0  0  0
   14.9764   -7.2044   -8.9693 C   0  0  2  0  0  0  0  0  0  0  0  0
   14.4074   -8.3013   -8.2480 N   0  0  0  0  0  0  0  0  0  0  0  0
   15.9586   -7.7189   -9.9539 C   0  0  0  0  0  0  0  0  0  0  0  0
   16.8370   -8.5272   -9.5820 O   0  0  0  0  0  0  0  0  0  0  0  0
   15.0268   -9.9369  -15.3545 N   0  0  0  0  0  0  0  0  0  0  0  0
   16.1627  -10.5751  -14.8119 C   0  0  0  0  0  0  0  0  0  0  0  0
   16.5325  -11.6785  -15.2462 O   0  0  0  0  0  0  0  0  0  0  0  0
   16.9068   -9.9201  -13.7245 C   0  0  0  0  0  0  0  0  0  0  0  0
   16.2230   -8.6484  -13.3759 C   0  0  0  0  0  0  0  0  0  0  0  0
   16.8724   -7.8835  -12.2517 C   0  0  2  0  0  0  0  0  0  0  0  0
   15.9405   -7.3220  -11.3297 N   0  0  0  0  0  0  0  0  0  0  0  0
   17.8012   -6.8626  -12.8224 C   0  0  0  0  0  0  0  0  0  0  0  0
   17.5091   -5.6547  -12.9439 O   0  0  0  0  0  0  0  0  0  0  0  0
   21.6262   -6.4143  -11.8966 C   0  0  0  0  0  0  0  0  0  0  0  0
   21.4268   -6.8383  -13.3194 C   0  0  1  0  0  0  0  0  0  0  0  0
   21.5270   -8.2398  -13.4182 O   0  0  0  0  0  0  0  0  0  0  0  0
   20.0581   -6.3896  -13.8376 C   0  0  2  0  0  0  0  0  0  0  0  0
   19.0884   -7.2870  -13.2512 N   0  0  0  0  0  0  0  0  0  0  0  0
   20.0499   -6.6146  -15.3056 C   0  0  0  0  0  0  0  0  0  0  0  0
   19.3848   -7.5439  -15.8303 O   0  0  0  0  0  0  0  0  0  0  0  0
   20.7781   -5.8100  -16.1891 O   0  0  0  0  0  0  0  0  0  0  0  0
  1  2  1  0
  2  3  1  0
  3  5  1  0
  3  4  1  1
  5  6  2  0
  7  8  1  0
  8  9  2  0
  8 10  1  0
 10 11  1  0
 12 11  1  6
 12 14  1  0
 13  5  1  0
 13 12  1  0
 14 20  1  0
 15 14  2  0
 17 18  1  0
 17 16  1  1
 19 17  1  0
 19 20  1  1
 21 23  1  0
 21 19  1  0
 22 21  2  0
M  END
$$$$
