SQT.pdb
     RDKit          3D

 23 22  0  0  1  0  0  0  0  0999 V2000
   14.2668   -8.6996  -15.1819 O   0  0  0  0  0  0  0  0  0  0  0  0
   15.5573   -8.1943  -15.0438 C   0  0  0  0  0  0  0  0  0  0  0  0
   16.4586   -9.3186  -14.5853 C   0  0  2  0  0  0  0  0  0  0  0  0
   16.1132   -9.8134  -13.2879 N   0  0  0  0  0  0  0  0  0  0  0  0
   17.8728   -8.8724  -14.5818 C   0  0  0  0  0  0  0  0  0  0  0  0
   18.4296   -8.6008  -13.4958 O   0  0  0  0  0  0  0  0  0  0  0  0
   22.2344  -10.0880  -18.7918 N   0  0  0  0  0  0  0  0  0  0  0  0
   22.9783   -9.3005  -17.8871 C   0  0  0  0  0  0  0  0  0  0  0  0
   24.2001   -9.1435  -18.0462 O   0  0  0  0  0  0  0  0  0  0  0  0
   22.2918   -8.6657  -16.7509 C   0  0  0  0  0  0  0  0  0  0  0  0
   20.8519   -9.0271  -16.8001 C   0  0  0  0  0  0  0  0  0  0  0  0
   20.0131   -8.3785  -15.7292 C   0  0  2  0  0  0  0  0  0  0  0  0
   18.6345   -8.7386  -15.7870 N   0  0  0  0  0  0  0  0  0  0  0  0
   20.2223   -6.9002  -15.7675 C   0  0  0  0  0  0  0  0  0  0  0  0
   20.0217   -6.2005  -16.7820 O   0  0  0  0  0  0  0  0  0  0  0  0
   18.4799   -4.3513  -14.3478 C   0  0  0  0  0  0  0  0  0  0  0  0
   19.8026   -4.2412  -13.6534 C   0  0  1  0  0  0  0  0  0  0  0  0
   19.7528   -4.9219  -12.4212 O   0  0  0  0  0  0  0  0  0  0  0  0
   20.9234   -4.8303  -14.5137 C   0  0  2  0  0  0  0  0  0  0  0  0
   20.6744   -6.2524  -14.5856 N   0  0  0  0  0  0  0  0  0  0  0  0
   22.1950   -4.6326  -13.7724 C   0  0  0  0  0  0  0  0  0  0  0  0
   22.8191   -5.5954  -13.2579 O   0  0  0  0  0  0  0  0  0  0  0  0
   22.7726   -3.3693  -13.6026 O   0  0  0  0  0  0  0  0  0  0  0  0
  1  2  1  0
  2  3  1  0
  3  5  1  0
  3  4  1  1
  5  6  2  0
  7  8  1  0
  8  9  2  0
  8 10  1  0
 10 11  1  0
 12 11  1  6
 12 14  1  0
 13  5  1  0
 13 12  1  0
 14 20  1  0
 15 14  2  0
 17 18  1  0
 17 16  1  6
 19 17  1  0
 19 20  1  1
 21 23  1  0
 21 19  1  0
 22 21  2  0
M  END
$$$$
