SQT.pdb
     RDKit          3D

 23 22  0  0  1  0  0  0  0  0999 V2000
   13.0838  -13.1366  -15.8293 O   0  0  0  0  0  0  0  0  0  0  0  0
   14.1308  -12.4961  -15.1712 C   0  0  0  0  0  0  0  0  0  0  0  0
   15.4334  -13.0412  -15.7125 C   0  0  2  0  0  0  0  0  0  0  0  0
   15.7334  -14.3515  -15.2223 N   0  0  0  0  0  0  0  0  0  0  0  0
   16.5499  -12.1235  -15.3806 C   0  0  0  0  0  0  0  0  0  0  0  0
   16.7402  -11.7913  -14.1903 O   0  0  0  0  0  0  0  0  0  0  0  0
   22.1514  -11.8347  -17.8004 N   0  0  0  0  0  0  0  0  0  0  0  0
   21.6318  -12.8017  -16.9133 C   0  0  0  0  0  0  0  0  0  0  0  0
   22.2417  -13.8652  -16.7138 O   0  0  0  0  0  0  0  0  0  0  0  0
   20.3581  -12.5382  -16.2253 C   0  0  0  0  0  0  0  0  0  0  0  0
   19.8372  -11.2209  -16.6722 C   0  0  0  0  0  0  0  0  0  0  0  0
   18.5524  -10.8035  -16.0043 C   0  0  2  0  0  0  0  0  0  0  0  0
   17.4288  -11.5968  -16.3809 N   0  0  0  0  0  0  0  0  0  0  0  0
   18.3285   -9.3449  -16.2351 C   0  0  0  0  0  0  0  0  0  0  0  0
   17.8496   -8.8783  -17.2896 O   0  0  0  0  0  0  0  0  0  0  0  0
   16.0797   -7.0430  -15.0073 C   0  0  0  0  0  0  0  0  0  0  0  0
   17.3867   -6.5878  -14.4339 C   0  0  1  0  0  0  0  0  0  0  0  0
   17.5648   -7.1434  -13.1519 O   0  0  0  0  0  0  0  0  0  0  0  0
   18.5535   -7.0030  -15.3336 C   0  0  2  0  0  0  0  0  0  0  0  0
   18.6789   -8.4368  -15.1991 N   0  0  0  0  0  0  0  0  0  0  0  0
   19.7822   -6.3886  -14.7694 C   0  0  0  0  0  0  0  0  0  0  0  0
   20.0120   -5.1561  -14.8666 O   0  0  0  0  0  0  0  0  0  0  0  0
   20.7537   -7.1403  -14.0989 O   0  0  0  0  0  0  0  0  0  0  0  0
  1  2  1  0
  2  3  1  0
  3  5  1  0
  3  4  1  1
  5  6  2  0
  7  8  1  0
  8  9  2  0
  8 10  1  0
 10 11  1  0
 12 11  1  6
 12 14  1  0
 13  5  1  0
 13 12  1  0
 14 20  1  0
 15 14  2  0
 17 18  1  0
 17 16  1  6
 19 17  1  0
 19 20  1  1
 21 23  1  0
 21 19  1  0
 22 21  2  0
M  END
$$$$
