HIT.pdb
     RDKit          3D

 26 26  0  0  1  0  0  0  0  0999 V2000
   23.4706  -15.5500  -19.4128 N   0  0  0  0  0  0  0  0  0  0  0  0
   23.2117  -14.1621  -19.6514 C   0  0  1  0  0  0  0  0  0  0  0  0
   21.9516  -14.0474  -20.4843 C   0  0  0  0  0  0  0  0  0  0  0  0
   22.2162  -14.6676  -21.8086 C   0  0  0  0  0  0  0  0  0  0  0  0
   22.7752  -14.1173  -22.9384 C   0  0  0  0  0  0  0  0  0  0  0  0
   22.8308  -15.0298  -23.9178 N   0  0  0  0  0  0  0  0  0  0  0  0
   22.3105  -16.1714  -23.4307 C   0  0  0  0  0  0  0  0  0  0  0  0
   21.9348  -15.9553  -22.1462 N   0  0  0  0  0  0  0  0  0  0  0  0
   23.1177  -13.3881  -18.3961 C   0  0  0  0  0  0  0  0  0  0  0  0
   22.6040  -13.9909  -17.3958 O   0  0  0  0  0  0  0  0  0  0  0  0
   26.5931  -10.4192  -14.7029 C   0  0  0  0  0  0  0  0  0  0  0  0
   25.2236  -10.5708  -15.2194 C   0  0  0  0  0  0  0  0  0  0  0  0
   25.0434  -11.2694  -16.5340 C   0  0  2  0  0  0  0  0  0  0  0  0
   25.7479  -10.3697  -17.5395 C   0  0  0  0  0  0  0  0  0  0  0  0
   23.6142  -11.4313  -16.9811 C   0  0  2  0  0  0  0  0  0  0  0  0
   23.5645  -12.0664  -18.2992 N   0  0  0  0  0  0  0  0  0  0  0  0
   23.0651  -10.0592  -17.2319 C   0  0  0  0  0  0  0  0  0  0  0  0
   23.4275   -9.4243  -18.2926 O   0  0  0  0  0  0  0  0  0  0  0  0
   19.4850   -6.8321  -17.2965 C   0  0  0  0  0  0  0  0  0  0  0  0
   20.0642   -8.1808  -16.9450 C   0  0  1  0  0  0  0  0  0  0  0  0
   19.7097   -9.0838  -17.9259 O   0  0  0  0  0  0  0  0  0  0  0  0
   21.5332   -8.1220  -16.6892 C   0  0  2  0  0  0  0  0  0  0  0  0
   22.1541   -9.3825  -16.3845 N   0  0  0  0  0  0  0  0  0  0  0  0
   21.9181   -7.0215  -15.7482 C   0  0  0  0  0  0  0  0  0  0  0  0
   22.3868   -5.8212  -16.2134 O   0  0  0  0  0  0  0  0  0  0  0  0
   21.8191   -7.1684  -14.5043 O   0  0  0  0  0  0  0  0  0  0  0  0
  2  1  1  1
  3  2  1  0
  4  3  1  0
  5  4  2  0
  6  5  1  0
  7  6  1  0
  7  8  2  0
  8  4  1  0
  9  2  1  0
  9 16  1  0
 10  9  2  0
 12 11  1  0
 13 14  1  6
 13 12  1  0
 15 13  1  0
 15 16  1  6
 17 15  1  0
 18 17  2  0
 20 19  1  6
 20 21  1  0
 20 22  1  0
 22 23  1  1
 23 17  1  0
 24 22  1  0
 24 25  1  0
 26 24  2  0
M  END
$$$$
