HIT.pdb
     RDKit          3D

 26 26  0  0  1  0  0  0  0  0999 V2000
   21.0496  -20.8437  -12.8513 N   0  0  0  0  0  0  0  0  0  0  0  0
   22.0983  -21.4953  -13.5765 C   0  0  1  0  0  0  0  0  0  0  0  0
   21.6700  -21.6239  -15.0238 C   0  0  0  0  0  0  0  0  0  0  0  0
   20.5916  -22.6437  -15.0967 C   0  0  0  0  0  0  0  0  0  0  0  0
   19.2594  -22.5358  -14.7718 C   0  0  0  0  0  0  0  0  0  0  0  0
   18.6352  -23.7014  -14.9884 N   0  0  0  0  0  0  0  0  0  0  0  0
   19.5548  -24.5673  -15.4527 C   0  0  0  0  0  0  0  0  0  0  0  0
   20.7480  -23.9273  -15.5203 N   0  0  0  0  0  0  0  0  0  0  0  0
   23.3906  -20.7911  -13.4423 C   0  0  0  0  0  0  0  0  0  0  0  0
   23.3409  -19.5166  -13.4113 O   0  0  0  0  0  0  0  0  0  0  0  0
   26.1931  -21.1300   -9.2486 C   0  0  0  0  0  0  0  0  0  0  0  0
   25.6671  -20.7263  -10.5622 C   0  0  0  0  0  0  0  0  0  0  0  0
   26.4383  -21.1345  -11.7818 C   0  0  2  0  0  0  0  0  0  0  0  0
   27.7764  -20.4235  -11.6379 C   0  0  0  0  0  0  0  0  0  0  0  0
   25.8299  -20.7128  -13.0935 C   0  0  2  0  0  0  0  0  0  0  0  0
   24.6072  -21.4750  -13.3532 N   0  0  0  0  0  0  0  0  0  0  0  0
   26.7590  -21.1584  -14.1822 C   0  0  0  0  0  0  0  0  0  0  0  0
   27.3253  -22.3117  -14.0886 O   0  0  0  0  0  0  0  0  0  0  0  0
   26.4625  -22.3446  -18.5259 C   0  0  0  0  0  0  0  0  0  0  0  0
   26.4308  -22.0836  -17.0397 C   0  0  1  0  0  0  0  0  0  0  0  0
   26.6871  -23.2664  -16.3771 O   0  0  0  0  0  0  0  0  0  0  0  0
   27.3332  -20.9653  -16.6372 C   0  0  2  0  0  0  0  0  0  0  0  0
   27.0742  -20.4044  -15.3389 N   0  0  0  0  0  0  0  0  0  0  0  0
   27.5012  -19.9353  -17.7121 C   0  0  0  0  0  0  0  0  0  0  0  0
   27.1973  -18.6185  -17.4874 O   0  0  0  0  0  0  0  0  0  0  0  0
   27.9289  -20.2509  -18.8506 O   0  0  0  0  0  0  0  0  0  0  0  0
  2  1  1  1
  3  2  1  0
  4  3  1  0
  5  4  2  0
  6  5  1  0
  7  6  1  0
  7  8  2  0
  8  4  1  0
  9  2  1  0
  9 16  1  0
 10  9  2  0
 12 11  1  0
 13 14  1  1
 13 12  1  0
 15 13  1  0
 15 16  1  6
 17 15  1  0
 18 17  2  0
 20 19  1  6
 20 21  1  0
 20 22  1  0
 22 23  1  1
 23 17  1  0
 24 22  1  0
 24 25  1  0
 26 24  2  0
M  END
$$$$
