HIT.pdb
     RDKit          3D

 26 26  0  0  1  0  0  0  0  0999 V2000
   20.3612  -12.3788  -19.2192 N   0  0  0  0  0  0  0  0  0  0  0  0
   20.8112  -11.0194  -19.2274 C   0  0  1  0  0  0  0  0  0  0  0  0
   19.7327  -10.1630  -19.8585 C   0  0  0  0  0  0  0  0  0  0  0  0
   19.6954  -10.4661  -21.3127 C   0  0  0  0  0  0  0  0  0  0  0  0
   20.3278   -9.8323  -22.3569 C   0  0  0  0  0  0  0  0  0  0  0  0
   20.0208  -10.4316  -23.5152 N   0  0  0  0  0  0  0  0  0  0  0  0
   19.1916  -11.4524  -23.2298 C   0  0  0  0  0  0  0  0  0  0  0  0
   18.9906  -11.4771  -21.8893 N   0  0  0  0  0  0  0  0  0  0  0  0
   21.1757  -10.5440  -17.8766 C   0  0  0  0  0  0  0  0  0  0  0  0
   20.4421  -10.9513  -16.9154 O   0  0  0  0  0  0  0  0  0  0  0  0
   26.0835  -10.0835  -14.4831 C   0  0  0  0  0  0  0  0  0  0  0  0
   24.6940   -9.6656  -14.7273 C   0  0  0  0  0  0  0  0  0  0  0  0
   24.1014   -9.9542  -16.0742 C   0  0  2  0  0  0  0  0  0  0  0  0
   25.0083   -9.2194  -17.0511 C   0  0  0  0  0  0  0  0  0  0  0  0
   22.6975   -9.4475  -16.2767 C   0  0  2  0  0  0  0  0  0  0  0  0
   22.2635   -9.6939  -17.6530 N   0  0  0  0  0  0  0  0  0  0  0  0
   22.7436   -7.9519  -16.1860 C   0  0  0  0  0  0  0  0  0  0  0  0
   23.4700   -7.2961  -17.0238 O   0  0  0  0  0  0  0  0  0  0  0  0
   20.5614   -5.4778  -17.2093 C   0  0  0  0  0  0  0  0  0  0  0  0
   20.7975   -5.0980  -15.7677 C   0  0  1  0  0  0  0  0  0  0  0  0
   19.6518   -5.3642  -15.0467 O   0  0  0  0  0  0  0  0  0  0  0  0
   22.0217   -5.7371  -15.2023 C   0  0  2  0  0  0  0  0  0  0  0  0
   22.0357   -7.1744  -15.2371 N   0  0  0  0  0  0  0  0  0  0  0  0
   22.4181   -5.1662  -13.8751 C   0  0  0  0  0  0  0  0  0  0  0  0
   22.8392   -3.8677  -13.7580 O   0  0  0  0  0  0  0  0  0  0  0  0
   22.3727   -5.8628  -12.8304 O   0  0  0  0  0  0  0  0  0  0  0  0
  2  1  1  1
  3  2  1  0
  4  3  1  0
  5  4  2  0
  6  5  1  0
  7  6  1  0
  7  8  2  0
  8  4  1  0
  9  2  1  0
  9 16  1  0
 10  9  2  0
 12 11  1  0
 13 14  1  6
 13 12  1  0
 15 13  1  0
 15 16  1  6
 17 15  1  0
 18 17  2  0
 20 19  1  6
 20 21  1  0
 20 22  1  0
 22 23  1  1
 23 17  1  0
 24 22  1  0
 24 25  1  0
 26 24  2  0
M  END
$$$$
