HIT.pdb
     RDKit          3D

 26 26  0  0  1  0  0  0  0  0999 V2000
   17.9143  -11.5772  -17.8976 N   0  0  0  0  0  0  0  0  0  0  0  0
   18.9067  -10.5680  -18.1147 C   0  0  1  0  0  0  0  0  0  0  0  0
   18.2449   -9.3846  -18.7903 C   0  0  0  0  0  0  0  0  0  0  0  0
   17.8481   -9.7988  -20.1611 C   0  0  0  0  0  0  0  0  0  0  0  0
   16.6075  -10.1348  -20.6509 C   0  0  0  0  0  0  0  0  0  0  0  0
   16.6933  -10.4485  -21.9506 N   0  0  0  0  0  0  0  0  0  0  0  0
   17.9839  -10.3182  -22.3090 C   0  0  0  0  0  0  0  0  0  0  0  0
   18.6909   -9.9226  -21.2221 N   0  0  0  0  0  0  0  0  0  0  0  0
   19.5908  -10.1798  -16.8637 C   0  0  0  0  0  0  0  0  0  0  0  0
   18.9215  -10.3159  -15.7861 O   0  0  0  0  0  0  0  0  0  0  0  0
   23.8339  -12.5668  -15.4201 C   0  0  0  0  0  0  0  0  0  0  0  0
   22.6295  -11.7214  -15.4147 C   0  0  0  0  0  0  0  0  0  0  0  0
   22.8169  -10.2339  -15.4480 C   0  0  2  0  0  0  0  0  0  0  0  0
   23.4576   -9.9040  -14.1073 C   0  0  0  0  0  0  0  0  0  0  0  0
   21.5469   -9.4322  -15.5627 C   0  0  2  0  0  0  0  0  0  0  0  0
   20.9003   -9.6889  -16.8508 N   0  0  0  0  0  0  0  0  0  0  0  0
   21.9356   -7.9869  -15.6471 C   0  0  0  0  0  0  0  0  0  0  0  0
   22.7999   -7.6217  -16.5298 O   0  0  0  0  0  0  0  0  0  0  0  0
   20.2670   -5.0359  -16.7633 C   0  0  0  0  0  0  0  0  0  0  0  0
   20.7813   -4.6377  -15.4014 C   0  0  1  0  0  0  0  0  0  0  0  0
   19.7063   -4.4797  -14.5513 O   0  0  0  0  0  0  0  0  0  0  0  0
   21.8183   -5.5786  -14.8854 C   0  0  2  0  0  0  0  0  0  0  0  0
   21.4185   -6.9582  -14.8223 N   0  0  0  0  0  0  0  0  0  0  0  0
   22.4797   -5.0886  -13.6336 C   0  0  0  0  0  0  0  0  0  0  0  0
   23.2050   -3.9264  -13.6220 O   0  0  0  0  0  0  0  0  0  0  0  0
   22.3851   -5.7298  -12.5572 O   0  0  0  0  0  0  0  0  0  0  0  0
  2  1  1  1
  3  2  1  0
  4  3  1  0
  5  4  2  0
  6  5  1  0
  7  6  1  0
  7  8  2  0
  8  4  1  0
  9  2  1  0
  9 16  1  0
 10  9  2  0
 12 11  1  0
 13 14  1  1
 13 12  1  0
 15 13  1  0
 15 16  1  6
 17 15  1  0
 18 17  2  0
 20 19  1  6
 20 21  1  0
 20 22  1  0
 22 23  1  1
 23 17  1  0
 24 22  1  0
 24 25  1  0
 26 24  2  0
M  END
$$$$
