HIT.pdb
     RDKit          3D

 26 26  0  0  1  0  0  0  0  0999 V2000
   21.7131  -13.7174  -18.4968 N   0  0  0  0  0  0  0  0  0  0  0  0
   22.0532  -12.3417  -18.7021 C   0  0  1  0  0  0  0  0  0  0  0  0
   20.8464  -11.6325  -19.2813 C   0  0  0  0  0  0  0  0  0  0  0  0
   20.6148  -12.1603  -20.6510 C   0  0  0  0  0  0  0  0  0  0  0  0
   21.2309  -11.8270  -21.8347 C   0  0  0  0  0  0  0  0  0  0  0  0
   20.7175  -12.5467  -22.8414 N   0  0  0  0  0  0  0  0  0  0  0  0
   19.7702  -13.3469  -22.3184 C   0  0  0  0  0  0  0  0  0  0  0  0
   19.7043  -13.1148  -20.9844 N   0  0  0  0  0  0  0  0  0  0  0  0
   22.5336  -11.6948  -17.4634 C   0  0  0  0  0  0  0  0  0  0  0  0
   21.8908  -11.9676  -16.3956 O   0  0  0  0  0  0  0  0  0  0  0  0
   27.5431  -12.0070  -15.9104 C   0  0  0  0  0  0  0  0  0  0  0  0
   26.0858  -11.8054  -15.9394 C   0  0  0  0  0  0  0  0  0  0  0  0
   25.5744  -10.3997  -16.0440 C   0  0  2  0  0  0  0  0  0  0  0  0
   25.9864   -9.7493  -14.7310 C   0  0  0  0  0  0  0  0  0  0  0  0
   24.0793  -10.2715  -16.1739 C   0  0  2  0  0  0  0  0  0  0  0  0
   23.6320  -10.8291  -17.4514 N   0  0  0  0  0  0  0  0  0  0  0  0
   23.7640   -8.8113  -16.2988 C   0  0  0  0  0  0  0  0  0  0  0  0
   23.8642   -8.2458  -17.4520 O   0  0  0  0  0  0  0  0  0  0  0  0
   20.5495   -7.4805  -16.0811 C   0  0  0  0  0  0  0  0  0  0  0  0
   21.6925   -6.5419  -16.3819 C   0  0  1  0  0  0  0  0  0  0  0  0
   21.1928   -5.2619  -16.5065 O   0  0  0  0  0  0  0  0  0  0  0  0
   22.8015   -6.6568  -15.3902 C   0  0  2  0  0  0  0  0  0  0  0  0
   23.3496   -7.9766  -15.2323 N   0  0  0  0  0  0  0  0  0  0  0  0
   22.4957   -5.9758  -14.0912 C   0  0  0  0  0  0  0  0  0  0  0  0
   22.2418   -4.6306  -14.0373 O   0  0  0  0  0  0  0  0  0  0  0  0
   22.4608   -6.6213  -13.0138 O   0  0  0  0  0  0  0  0  0  0  0  0
  2  1  1  1
  3  2  1  0
  4  3  1  0
  5  4  2  0
  6  5  1  0
  7  6  1  0
  7  8  2  0
  8  4  1  0
  9  2  1  0
  9 16  1  0
 10  9  2  0
 12 11  1  0
 13 14  1  1
 13 12  1  0
 15 13  1  0
 15 16  1  6
 17 15  1  0
 18 17  2  0
 20 19  1  1
 20 21  1  0
 20 22  1  0
 22 23  1  1
 23 17  1  0
 24 22  1  0
 24 25  1  0
 26 24  2  0
M  END
$$$$
