HIT.pdb
     RDKit          3D

 26 26  0  0  1  0  0  0  0  0999 V2000
   23.3909  -20.6529  -14.3914 N   0  0  0  0  0  0  0  0  0  0  0  0
   23.3942  -19.9114  -13.1665 C   0  0  1  0  0  0  0  0  0  0  0  0
   22.3551  -18.8140  -13.2694 C   0  0  0  0  0  0  0  0  0  0  0  0
   21.2977  -19.2670  -14.2101 C   0  0  0  0  0  0  0  0  0  0  0  0
   20.0368  -19.7489  -13.9458 C   0  0  0  0  0  0  0  0  0  0  0  0
   19.4056  -20.0439  -15.0902 N   0  0  0  0  0  0  0  0  0  0  0  0
   20.2498  -19.7562  -16.0981 C   0  0  0  0  0  0  0  0  0  0  0  0
   21.4035  -19.2828  -15.5666 N   0  0  0  0  0  0  0  0  0  0  0  0
   23.1706  -20.7768  -11.9897 C   0  0  0  0  0  0  0  0  0  0  0  0
   23.0181  -22.0220  -12.2228 O   0  0  0  0  0  0  0  0  0  0  0  0
   26.2711  -19.7579   -7.8673 C   0  0  0  0  0  0  0  0  0  0  0  0
   25.4398  -20.6550   -8.6855 C   0  0  0  0  0  0  0  0  0  0  0  0
   23.9617  -20.6658   -8.4328 C   0  0  2  0  0  0  0  0  0  0  0  0
   23.7895  -21.5942   -7.2391 C   0  0  0  0  0  0  0  0  0  0  0  0
   23.1241  -21.2055   -9.5624 C   0  0  2  0  0  0  0  0  0  0  0  0
   23.1266  -20.2688  -10.6874 N   0  0  0  0  0  0  0  0  0  0  0  0
   21.6968  -21.1998   -9.1042 C   0  0  0  0  0  0  0  0  0  0  0  0
   21.0868  -20.0730   -8.9712 O   0  0  0  0  0  0  0  0  0  0  0  0
   18.6445  -21.9978  -10.6382 C   0  0  0  0  0  0  0  0  0  0  0  0
   18.5639  -22.7872   -9.3543 C   0  0  1  0  0  0  0  0  0  0  0  0
   18.6370  -24.1315   -9.6561 O   0  0  0  0  0  0  0  0  0  0  0  0
   19.5729  -22.3447   -8.3480 C   0  0  2  0  0  0  0  0  0  0  0  0
   20.9375  -22.3561   -8.8008 N   0  0  0  0  0  0  0  0  0  0  0  0
   19.3810  -22.9867   -7.0080 C   0  0  0  0  0  0  0  0  0  0  0  0
   18.2072  -22.8472   -6.3154 O   0  0  0  0  0  0  0  0  0  0  0  0
   20.2920  -23.6743   -6.4826 O   0  0  0  0  0  0  0  0  0  0  0  0
  2  1  1  6
  3  2  1  0
  4  3  1  0
  5  4  2  0
  6  5  1  0
  7  6  1  0
  7  8  2  0
  8  4  1  0
  9  2  1  0
  9 16  1  0
 10  9  2  0
 12 11  1  0
 13 14  1  1
 13 12  1  0
 15 13  1  0
 15 16  1  6
 17 15  1  0
 18 17  2  0
 20 19  1  6
 20 21  1  0
 20 22  1  0
 22 23  1  6
 23 17  1  0
 24 22  1  0
 24 25  1  0
 26 24  2  0
M  END
$$$$
