HIT.pdb
     RDKit          3D

 26 26  0  0  1  0  0  0  0  0999 V2000
   17.1861  -16.6597  -19.3208 N   0  0  0  0  0  0  0  0  0  0  0  0
   18.2034  -15.6878  -19.0552 C   0  0  1  0  0  0  0  0  0  0  0  0
   19.5138  -16.2026  -19.6145 C   0  0  0  0  0  0  0  0  0  0  0  0
   19.9045  -17.4080  -18.8383 C   0  0  0  0  0  0  0  0  0  0  0  0
   19.7908  -18.7384  -19.1686 C   0  0  0  0  0  0  0  0  0  0  0  0
   20.2678  -19.5030  -18.1772 N   0  0  0  0  0  0  0  0  0  0  0  0
   20.6915  -18.6765  -17.2033 C   0  0  0  0  0  0  0  0  0  0  0  0
   20.4721  -17.3994  -17.6018 N   0  0  0  0  0  0  0  0  0  0  0  0
   17.8570  -14.3559  -19.5937 C   0  0  0  0  0  0  0  0  0  0  0  0
   17.3463  -14.3327  -20.7627 O   0  0  0  0  0  0  0  0  0  0  0  0
   14.4320  -11.9953  -17.6274 C   0  0  0  0  0  0  0  0  0  0  0  0
   15.2534  -11.8129  -18.8346 C   0  0  0  0  0  0  0  0  0  0  0  0
   16.6248  -11.2297  -18.6678 C   0  0  2  0  0  0  0  0  0  0  0  0
   16.4890   -9.7973  -19.1644 C   0  0  0  0  0  0  0  0  0  0  0  0
   17.7061  -11.8980  -19.4759 C   0  0  2  0  0  0  0  0  0  0  0  0
   18.0731  -13.1791  -18.8697 N   0  0  0  0  0  0  0  0  0  0  0  0
   18.9489  -11.0724  -19.3309 C   0  0  0  0  0  0  0  0  0  0  0  0
   19.6394  -11.1658  -18.2473 O   0  0  0  0  0  0  0  0  0  0  0  0
   22.7487   -8.4957  -21.1632 C   0  0  0  0  0  0  0  0  0  0  0  0
   21.4821   -9.2824  -21.3971 C   0  0  1  0  0  0  0  0  0  0  0  0
   21.8143  -10.5017  -21.9506 O   0  0  0  0  0  0  0  0  0  0  0  0
   20.6434   -9.3926  -20.1678 C   0  0  2  0  0  0  0  0  0  0  0  0
   19.4472  -10.1776  -20.3090 N   0  0  0  0  0  0  0  0  0  0  0  0
   20.4180   -8.0730  -19.4949 C   0  0  0  0  0  0  0  0  0  0  0  0
   21.2328   -7.6453  -18.4801 O   0  0  0  0  0  0  0  0  0  0  0  0
   19.4754   -7.3198  -19.8453 O   0  0  0  0  0  0  0  0  0  0  0  0
  2  1  1  6
  3  2  1  0
  4  3  1  0
  5  4  2  0
  6  5  1  0
  7  6  1  0
  7  8  2  0
  8  4  1  0
  9  2  1  0
  9 16  1  0
 10  9  2  0
 12 11  1  0
 13 14  1  6
 13 12  1  0
 15 13  1  0
 15 16  1  1
 17 15  1  0
 18 17  2  0
 20 19  1  1
 20 21  1  0
 20 22  1  0
 22 23  1  6
 23 17  1  0
 24 22  1  0
 24 25  1  0
 26 24  2  0
M  END
$$$$
