HIT.pdb
     RDKit          3D

 26 26  0  0  1  0  0  0  0  0999 V2000
   22.2199  -19.6103  -15.1662 N   0  0  0  0  0  0  0  0  0  0  0  0
   22.1045  -18.3987  -15.9205 C   0  0  1  0  0  0  0  0  0  0  0  0
   20.6615  -17.9403  -15.8705 C   0  0  0  0  0  0  0  0  0  0  0  0
   19.8305  -18.9566  -16.5668 C   0  0  0  0  0  0  0  0  0  0  0  0
   18.9042  -19.8337  -16.0523 C   0  0  0  0  0  0  0  0  0  0  0  0
   18.3809  -20.5811  -17.0334 N   0  0  0  0  0  0  0  0  0  0  0  0
   18.9622  -20.1945  -18.1840 C   0  0  0  0  0  0  0  0  0  0  0  0
   19.8458  -19.2052  -17.9045 N   0  0  0  0  0  0  0  0  0  0  0  0
   23.0340  -17.3536  -15.4435 C   0  0  0  0  0  0  0  0  0  0  0  0
   23.1059  -17.1931  -14.1798 O   0  0  0  0  0  0  0  0  0  0  0  0
   27.9330  -17.4664  -17.0249 C   0  0  0  0  0  0  0  0  0  0  0  0
   26.7354  -17.1477  -16.2314 C   0  0  0  0  0  0  0  0  0  0  0  0
   26.1053  -15.8005  -16.4234 C   0  0  2  0  0  0  0  0  0  0  0  0
   27.0770  -14.8318  -15.7646 C   0  0  0  0  0  0  0  0  0  0  0  0
   24.7612  -15.6244  -15.7669 C   0  0  2  0  0  0  0  0  0  0  0  0
   23.7979  -16.5774  -16.3210 N   0  0  0  0  0  0  0  0  0  0  0  0
   24.2238  -14.2925  -16.1966 C   0  0  0  0  0  0  0  0  0  0  0  0
   24.6599  -13.2262  -15.6202 O   0  0  0  0  0  0  0  0  0  0  0  0
   24.2537  -12.7229  -19.6869 C   0  0  0  0  0  0  0  0  0  0  0  0
   22.8514  -12.6019  -19.1421 C   0  0  1  0  0  0  0  0  0  0  0  0
   22.0251  -13.4455  -19.8556 O   0  0  0  0  0  0  0  0  0  0  0  0
   22.7921  -12.8145  -17.6663 C   0  0  2  0  0  0  0  0  0  0  0  0
   23.2557  -14.0975  -17.2118 N   0  0  0  0  0  0  0  0  0  0  0  0
   21.4798  -12.4061  -17.0700 C   0  0  0  0  0  0  0  0  0  0  0  0
   20.9930  -11.1353  -17.2281 O   0  0  0  0  0  0  0  0  0  0  0  0
   20.7869  -13.2199  -16.4095 O   0  0  0  0  0  0  0  0  0  0  0  0
  2  1  1  1
  3  2  1  0
  4  3  1  0
  5  4  2  0
  6  5  1  0
  7  6  1  0
  7  8  2  0
  8  4  1  0
  9  2  1  0
  9 16  1  0
 10  9  2  0
 12 11  1  0
 13 14  1  1
 13 12  1  0
 15 13  1  0
 15 16  1  6
 17 15  1  0
 18 17  2  0
 20 19  1  6
 20 21  1  0
 20 22  1  0
 22 23  1  6
 23 17  1  0
 24 22  1  0
 24 25  1  0
 26 24  2  0
M  END
$$$$
