HIT.pdb
     RDKit          3D

 26 26  0  0  1  0  0  0  0  0999 V2000
   19.9006  -12.6023  -18.3887 N   0  0  0  0  0  0  0  0  0  0  0  0
   20.1295  -11.2091  -18.6275 C   0  0  1  0  0  0  0  0  0  0  0  0
   19.2056  -10.7568  -19.7396 C   0  0  0  0  0  0  0  0  0  0  0  0
   19.6292  -11.4315  -20.9940 C   0  0  0  0  0  0  0  0  0  0  0  0
   20.8539  -11.4294  -21.6202 C   0  0  0  0  0  0  0  0  0  0  0  0
   20.8043  -12.1713  -22.7347 N   0  0  0  0  0  0  0  0  0  0  0  0
   19.5530  -12.6564  -22.8367 C   0  0  0  0  0  0  0  0  0  0  0  0
   18.8339  -12.2083  -21.7785 N   0  0  0  0  0  0  0  0  0  0  0  0
   19.9609  -10.3981  -17.4037 C   0  0  0  0  0  0  0  0  0  0  0  0
   19.0346  -10.7624  -16.6056 O   0  0  0  0  0  0  0  0  0  0  0  0
   23.3301  -10.2633  -13.6957 C   0  0  0  0  0  0  0  0  0  0  0  0
   22.0983  -10.0664  -14.4760 C   0  0  0  0  0  0  0  0  0  0  0  0
   21.8185   -8.6933  -15.0100 C   0  0  2  0  0  0  0  0  0  0  0  0
   21.6118   -7.8397  -13.7669 C   0  0  0  0  0  0  0  0  0  0  0  0
   20.5807   -8.5782  -15.8604 C   0  0  2  0  0  0  0  0  0  0  0  0
   20.7675   -9.2899  -17.1261 N   0  0  0  0  0  0  0  0  0  0  0  0
   20.4566   -7.1443  -16.2792 C   0  0  0  0  0  0  0  0  0  0  0  0
   21.4620   -6.5670  -16.8408 O   0  0  0  0  0  0  0  0  0  0  0  0
   17.8152   -3.2495  -17.7421 C   0  0  0  0  0  0  0  0  0  0  0  0
   17.8561   -4.6604  -17.2077 C   0  0  1  0  0  0  0  0  0  0  0  0
   17.5015   -5.5276  -18.2204 O   0  0  0  0  0  0  0  0  0  0  0  0
   19.1632   -4.9907  -16.5681 C   0  0  2  0  0  0  0  0  0  0  0  0
   19.2977   -6.3475  -16.1116 N   0  0  0  0  0  0  0  0  0  0  0  0
   19.5913   -3.9728  -15.5556 C   0  0  0  0  0  0  0  0  0  0  0  0
   20.5818   -3.0681  -15.8334 O   0  0  0  0  0  0  0  0  0  0  0  0
   19.0508   -3.9188  -14.4226 O   0  0  0  0  0  0  0  0  0  0  0  0
  2  1  1  1
  3  2  1  0
  4  3  1  0
  5  4  2  0
  6  5  1  0
  7  6  1  0
  7  8  2  0
  8  4  1  0
  9  2  1  0
  9 16  1  0
 10  9  2  0
 12 11  1  0
 13 14  1  1
 13 12  1  0
 15 13  1  0
 15 16  1  6
 17 15  1  0
 18 17  2  0
 20 19  1  6
 20 21  1  0
 20 22  1  0
 22 23  1  1
 23 17  1  0
 24 22  1  0
 24 25  1  0
 26 24  2  0
M  END
$$$$
