HIT.pdb
     RDKit          3D

 26 26  0  0  1  0  0  0  0  0999 V2000
   28.2048  -18.9760  -16.6656 N   0  0  0  0  0  0  0  0  0  0  0  0
   27.3082  -18.4815  -15.6646 C   0  0  1  0  0  0  0  0  0  0  0  0
   26.3555  -17.5019  -16.3184 C   0  0  0  0  0  0  0  0  0  0  0  0
   27.1010  -16.2457  -16.5910 C   0  0  0  0  0  0  0  0  0  0  0  0
   27.2304  -15.1171  -15.8154 C   0  0  0  0  0  0  0  0  0  0  0  0
   27.9949  -14.2118  -16.4408 N   0  0  0  0  0  0  0  0  0  0  0  0
   28.3636  -14.7460  -17.6198 C   0  0  0  0  0  0  0  0  0  0  0  0
   27.8214  -15.9848  -17.7154 N   0  0  0  0  0  0  0  0  0  0  0  0
   26.5913  -19.5712  -14.9702 C   0  0  0  0  0  0  0  0  0  0  0  0
   26.2778  -20.5849  -15.6787 O   0  0  0  0  0  0  0  0  0  0  0  0
   25.5286  -21.7476   -9.2303 C   0  0  0  0  0  0  0  0  0  0  0  0
   25.2993  -21.7260  -10.6836 C   0  0  0  0  0  0  0  0  0  0  0  0
   25.9959  -20.6691  -11.4876 C   0  0  2  0  0  0  0  0  0  0  0  0
   25.4773  -19.3570  -10.9164 C   0  0  0  0  0  0  0  0  0  0  0  0
   25.6909  -20.6833  -12.9625 C   0  0  2  0  0  0  0  0  0  0  0  0
   26.2691  -19.5049  -13.6109 N   0  0  0  0  0  0  0  0  0  0  0  0
   24.2139  -20.4791  -13.1166 C   0  0  0  0  0  0  0  0  0  0  0  0
   23.7379  -19.2835  -13.0582 O   0  0  0  0  0  0  0  0  0  0  0  0
   19.8796  -21.7939  -15.0307 C   0  0  0  0  0  0  0  0  0  0  0  0
   21.3384  -22.0809  -14.7711 C   0  0  1  0  0  0  0  0  0  0  0  0
   22.0423  -21.8892  -15.9422 O   0  0  0  0  0  0  0  0  0  0  0  0
   21.8763  -21.3038  -13.6164 C   0  0  2  0  0  0  0  0  0  0  0  0
   23.2700  -21.5130  -13.3314 N   0  0  0  0  0  0  0  0  0  0  0  0
   20.9993  -21.3778  -12.4039 C   0  0  0  0  0  0  0  0  0  0  0  0
   20.0788  -20.4001  -12.1328 O   0  0  0  0  0  0  0  0  0  0  0  0
   21.0821  -22.3418  -11.6023 O   0  0  0  0  0  0  0  0  0  0  0  0
  2  1  1  6
  3  2  1  0
  4  3  1  0
  5  4  2  0
  6  5  1  0
  7  6  1  0
  7  8  2  0
  8  4  1  0
  9  2  1  0
  9 16  1  0
 10  9  2  0
 12 11  1  0
 13 14  1  1
 13 12  1  0
 15 13  1  0
 15 16  1  6
 17 15  1  0
 18 17  2  0
 20 19  1  6
 20 21  1  0
 20 22  1  0
 22 23  1  1
 23 17  1  0
 24 22  1  0
 24 25  1  0
 26 24  2  0
M  END
$$$$
