HIT.pdb
     RDKit          3D

 26 26  0  0  1  0  0  0  0  0999 V2000
   20.1952  -14.3113  -17.2776 N   0  0  0  0  0  0  0  0  0  0  0  0
   20.1958  -12.9174  -17.6051 C   0  0  1  0  0  0  0  0  0  0  0  0
   18.7596  -12.4653  -17.7724 C   0  0  0  0  0  0  0  0  0  0  0  0
   18.2124  -13.1107  -18.9940 C   0  0  0  0  0  0  0  0  0  0  0  0
   18.4240  -12.8031  -20.3178 C   0  0  0  0  0  0  0  0  0  0  0  0
   17.7340  -13.6413  -21.1030 N   0  0  0  0  0  0  0  0  0  0  0  0
   17.0743  -14.4929  -20.2963 C   0  0  0  0  0  0  0  0  0  0  0  0
   17.3628  -14.1734  -19.0108 N   0  0  0  0  0  0  0  0  0  0  0  0
   20.9172  -12.1084  -16.6007 C   0  0  0  0  0  0  0  0  0  0  0  0
   20.6279  -12.3329  -15.3785 O   0  0  0  0  0  0  0  0  0  0  0  0
   26.0403  -12.2264  -16.1355 C   0  0  0  0  0  0  0  0  0  0  0  0
   24.5983  -12.0012  -15.9473 C   0  0  0  0  0  0  0  0  0  0  0  0
   24.0814  -10.6020  -16.1005 C   0  0  2  0  0  0  0  0  0  0  0  0
   24.7847   -9.8172  -15.0022 C   0  0  0  0  0  0  0  0  0  0  0  0
   22.5966  -10.4440  -15.9028 C   0  0  2  0  0  0  0  0  0  0  0  0
   21.8670  -11.1467  -16.9597 N   0  0  0  0  0  0  0  0  0  0  0  0
   22.2632   -9.0027  -16.1450 C   0  0  0  0  0  0  0  0  0  0  0  0
   22.0725   -8.5990  -17.3534 O   0  0  0  0  0  0  0  0  0  0  0  0
   19.1612   -7.7474  -15.2632 C   0  0  0  0  0  0  0  0  0  0  0  0
   20.1281   -6.8362  -15.9793 C   0  0  1  0  0  0  0  0  0  0  0  0
   19.5283   -5.6065  -16.1570 O   0  0  0  0  0  0  0  0  0  0  0  0
   21.4536   -6.7619  -15.2979 C   0  0  2  0  0  0  0  0  0  0  0  0
   22.1311   -8.0195  -15.1342 N   0  0  0  0  0  0  0  0  0  0  0  0
   21.4234   -5.9310  -14.0516 C   0  0  0  0  0  0  0  0  0  0  0  0
   21.1053   -4.5991  -14.0938 O   0  0  0  0  0  0  0  0  0  0  0  0
   21.6869   -6.4343  -12.9309 O   0  0  0  0  0  0  0  0  0  0  0  0
  2  1  1  1
  3  2  1  0
  4  3  1  0
  5  4  2  0
  6  5  1  0
  7  6  1  0
  7  8  2  0
  8  4  1  0
  9  2  1  0
  9 16  1  0
 10  9  2  0
 12 11  1  0
 13 14  1  1
 13 12  1  0
 15 13  1  0
 15 16  1  6
 17 15  1  0
 18 17  2  0
 20 19  1  1
 20 21  1  0
 20 22  1  0
 22 23  1  1
 23 17  1  0
 24 22  1  0
 24 25  1  0
 26 24  2  0
M  END
$$$$
