HIT.pdb
     RDKit          3D

 26 26  0  0  1  0  0  0  0  0999 V2000
   24.6212  -20.6480  -19.6971 N   0  0  0  0  0  0  0  0  0  0  0  0
   23.6370  -21.2633  -18.8586 C   0  0  1  0  0  0  0  0  0  0  0  0
   24.0555  -22.6967  -18.6034 C   0  0  0  0  0  0  0  0  0  0  0  0
   23.9857  -23.4338  -19.8917 C   0  0  0  0  0  0  0  0  0  0  0  0
   24.9887  -24.0443  -20.6080 C   0  0  0  0  0  0  0  0  0  0  0  0
   24.4903  -24.5973  -21.7220 N   0  0  0  0  0  0  0  0  0  0  0  0
   23.1676  -24.3495  -21.7340 C   0  0  0  0  0  0  0  0  0  0  0  0
   22.8558  -23.6411  -20.6210 N   0  0  0  0  0  0  0  0  0  0  0  0
   23.4285  -20.5154  -17.6013 C   0  0  0  0  0  0  0  0  0  0  0  0
   24.4138  -19.8191  -17.1862 O   0  0  0  0  0  0  0  0  0  0  0  0
   21.2578  -16.9110  -16.6610 C   0  0  0  0  0  0  0  0  0  0  0  0
   20.3555  -18.0729  -16.6304 C   0  0  0  0  0  0  0  0  0  0  0  0
   20.6565  -19.1687  -15.6519 C   0  0  2  0  0  0  0  0  0  0  0  0
   20.4685  -18.5193  -14.2882 C   0  0  0  0  0  0  0  0  0  0  0  0
   22.0591  -19.7139  -15.7144 C   0  0  2  0  0  0  0  0  0  0  0  0
   22.2211  -20.5613  -16.8972 N   0  0  0  0  0  0  0  0  0  0  0  0
   22.2190  -20.6714  -14.5722 C   0  0  0  0  0  0  0  0  0  0  0  0
   21.4285  -21.6853  -14.4902 O   0  0  0  0  0  0  0  0  0  0  0  0
   25.0362  -22.7918  -13.7595 C   0  0  0  0  0  0  0  0  0  0  0  0
   24.6576  -22.2046  -12.4217 C   0  0  1  0  0  0  0  0  0  0  0  0
   25.7018  -21.4245  -11.9694 O   0  0  0  0  0  0  0  0  0  0  0  0
   23.3497  -21.4873  -12.4628 C   0  0  2  0  0  0  0  0  0  0  0  0
   23.1924  -20.5592  -13.5496 N   0  0  0  0  0  0  0  0  0  0  0  0
   22.9503  -20.9254  -11.1326 C   0  0  0  0  0  0  0  0  0  0  0  0
   22.6824  -21.7443  -10.0675 O   0  0  0  0  0  0  0  0  0  0  0  0
   22.8522  -19.6853  -10.9562 O   0  0  0  0  0  0  0  0  0  0  0  0
  2  1  1  6
  3  2  1  0
  4  3  1  0
  5  4  2  0
  6  5  1  0
  7  6  1  0
  7  8  2  0
  8  4  1  0
  9  2  1  0
  9 16  1  0
 10  9  2  0
 12 11  1  0
 13 14  1  1
 13 12  1  0
 15 13  1  0
 15 16  1  6
 17 15  1  0
 18 17  2  0
 20 19  1  6
 20 21  1  0
 20 22  1  0
 22 23  1  6
 23 17  1  0
 24 22  1  0
 24 25  1  0
 26 24  2  0
M  END
$$$$
