HIT.pdb
     RDKit          3D

 26 26  0  0  1  0  0  0  0  0999 V2000
   28.2583  -19.9308  -15.5513 N   0  0  0  0  0  0  0  0  0  0  0  0
   27.2544  -19.2692  -14.7737 C   0  0  1  0  0  0  0  0  0  0  0  0
   26.4514  -18.3725  -15.6935 C   0  0  0  0  0  0  0  0  0  0  0  0
   27.3189  -17.2381  -16.1043 C   0  0  0  0  0  0  0  0  0  0  0  0
   27.6324  -16.0836  -15.4255 C   0  0  0  0  0  0  0  0  0  0  0  0
   28.4534  -15.3230  -16.1620 N   0  0  0  0  0  0  0  0  0  0  0  0
   28.6758  -15.9772  -17.3170 C   0  0  0  0  0  0  0  0  0  0  0  0
   27.9867  -17.1442  -17.2861 N   0  0  0  0  0  0  0  0  0  0  0  0
   26.3952  -20.2240  -14.0430 C   0  0  0  0  0  0  0  0  0  0  0  0
   26.2090  -21.3579  -14.5976 O   0  0  0  0  0  0  0  0  0  0  0  0
   26.4640  -20.6806   -8.5536 C   0  0  0  0  0  0  0  0  0  0  0  0
   26.2947  -21.0773   -9.9604 C   0  0  0  0  0  0  0  0  0  0  0  0
   25.0159  -20.6993  -10.6464 C   0  0  2  0  0  0  0  0  0  0  0  0
   23.9695  -21.6130  -10.0245 C   0  0  0  0  0  0  0  0  0  0  0  0
   24.9989  -20.9242  -12.1357 C   0  0  2  0  0  0  0  0  0  0  0  0
   25.8132  -19.9118  -12.8103 N   0  0  0  0  0  0  0  0  0  0  0  0
   23.6091  -20.6343  -12.6167 C   0  0  0  0  0  0  0  0  0  0  0  0
   23.1601  -19.4291  -12.5433 O   0  0  0  0  0  0  0  0  0  0  0  0
   19.6425  -21.6784  -15.3920 C   0  0  0  0  0  0  0  0  0  0  0  0
   21.0422  -22.0075  -14.9333 C   0  0  1  0  0  0  0  0  0  0  0  0
   21.9162  -21.7696  -15.9739 O   0  0  0  0  0  0  0  0  0  0  0  0
   21.4098  -21.3020  -13.6708 C   0  0  2  0  0  0  0  0  0  0  0  0
   22.7233  -21.5942  -13.1643 N   0  0  0  0  0  0  0  0  0  0  0  0
   20.3361  -21.3738  -12.6283 C   0  0  0  0  0  0  0  0  0  0  0  0
   19.4408  -20.3507  -12.4595 O   0  0  0  0  0  0  0  0  0  0  0  0
   20.2254  -22.3774  -11.8804 O   0  0  0  0  0  0  0  0  0  0  0  0
  2  1  1  6
  3  2  1  0
  4  3  1  0
  5  4  2  0
  6  5  1  0
  7  6  1  0
  7  8  2  0
  8  4  1  0
  9  2  1  0
  9 16  1  0
 10  9  2  0
 12 11  1  0
 13 14  1  1
 13 12  1  0
 15 13  1  0
 15 16  1  6
 17 15  1  0
 18 17  2  0
 20 19  1  6
 20 21  1  0
 20 22  1  0
 22 23  1  1
 23 17  1  0
 24 22  1  0
 24 25  1  0
 26 24  2  0
M  END
$$$$
