HIT.pdb
     RDKit          3D

 26 26  0  0  1  0  0  0  0  0999 V2000
   17.9415  -13.2047  -17.2457 N   0  0  0  0  0  0  0  0  0  0  0  0
   18.6653  -12.0623  -17.7162 C   0  0  1  0  0  0  0  0  0  0  0  0
   17.6994  -11.1523  -18.4468 C   0  0  0  0  0  0  0  0  0  0  0  0
   17.2408  -11.8558  -19.6728 C   0  0  0  0  0  0  0  0  0  0  0  0
   17.9546  -12.2315  -20.7869 C   0  0  0  0  0  0  0  0  0  0  0  0
   17.1508  -12.8463  -21.6650 N   0  0  0  0  0  0  0  0  0  0  0  0
   15.9172  -12.8725  -21.1275 C   0  0  0  0  0  0  0  0  0  0  0  0
   15.9675  -12.2703  -19.9140 N   0  0  0  0  0  0  0  0  0  0  0  0
   19.3695  -11.3590  -16.6238 C   0  0  0  0  0  0  0  0  0  0  0  0
   18.7563  -11.2890  -15.5071 O   0  0  0  0  0  0  0  0  0  0  0  0
   24.2681  -12.6725  -15.3293 C   0  0  0  0  0  0  0  0  0  0  0  0
   22.9107  -12.1109  -15.2446 C   0  0  0  0  0  0  0  0  0  0  0  0
   22.7336  -10.6550  -15.5572 C   0  0  2  0  0  0  0  0  0  0  0  0
   23.3918   -9.9351  -14.3888 C   0  0  0  0  0  0  0  0  0  0  0  0
   21.3038  -10.1886  -15.6408 C   0  0  2  0  0  0  0  0  0  0  0  0
   20.6389  -10.7974  -16.7943 N   0  0  0  0  0  0  0  0  0  0  0  0
   21.3279   -8.7287  -15.9799 C   0  0  0  0  0  0  0  0  0  0  0  0
   21.8415   -8.3549  -17.1007 O   0  0  0  0  0  0  0  0  0  0  0  0
   19.7888   -4.1748  -16.1582 C   0  0  0  0  0  0  0  0  0  0  0  0
   19.6167   -5.6350  -15.8176 C   0  0  1  0  0  0  0  0  0  0  0  0
   18.9543   -6.2565  -16.8561 O   0  0  0  0  0  0  0  0  0  0  0  0
   20.9060   -6.2918  -15.4529 C   0  0  2  0  0  0  0  0  0  0  0  0
   20.8174   -7.6959  -15.1562 N   0  0  0  0  0  0  0  0  0  0  0  0
   21.6915   -5.5141  -14.4415 C   0  0  0  0  0  0  0  0  0  0  0  0
   22.7121   -4.6830  -14.8215 O   0  0  0  0  0  0  0  0  0  0  0  0
   21.4336   -5.6009  -13.2148 O   0  0  0  0  0  0  0  0  0  0  0  0
  2  1  1  1
  3  2  1  0
  4  3  1  0
  5  4  2  0
  6  5  1  0
  7  6  1  0
  7  8  2  0
  8  4  1  0
  9  2  1  0
  9 16  1  0
 10  9  2  0
 12 11  1  0
 13 14  1  1
 13 12  1  0
 15 13  1  0
 15 16  1  6
 17 15  1  0
 18 17  2  0
 20 19  1  6
 20 21  1  0
 20 22  1  0
 22 23  1  1
 23 17  1  0
 24 22  1  0
 24 25  1  0
 26 24  2  0
M  END
$$$$
