ESP.pdb
     RDKit          3D

 23 23  0  0  1  0  0  0  0  0999 V2000
    9.5622  -17.0860   19.6609 N   0  0  0  0  0  0  0  0  0  0  0  0
    9.7027  -17.5742   21.0104 C   0  0  1  0  0  0  0  0  0  0  0  0
   11.1120  -18.0599   21.2605 C   0  0  0  0  0  0  0  0  0  0  0  0
   11.7895  -18.1606   19.9099 C   0  0  0  0  0  0  0  0  0  0  0  0
   13.2524  -18.3580   20.0428 C   0  0  0  0  0  0  0  0  0  0  0  0
   13.9735  -17.3270   19.9640 O   0  0  0  0  0  0  0  0  0  0  0  0
    9.2556  -16.5669   21.9949 C   0  0  0  0  0  0  0  0  0  0  0  0
    9.4763  -15.3390   21.8811 O   0  0  0  0  0  0  0  0  0  0  0  0
   13.8578  -19.5778   20.2430 O   0  0  0  0  0  0  0  0  0  0  0  0
    7.2311  -18.0373   25.3207 O   0  0  0  0  0  0  0  0  0  0  0  0
    6.9239  -16.7524   24.9206 C   0  0  0  0  0  0  0  0  0  0  0  0
    8.0713  -16.0892   24.1686 C   0  0  2  0  0  0  0  0  0  0  0  0
    8.5427  -16.9941   23.1261 N   0  0  0  0  0  0  0  0  0  0  0  0
    9.1776  -15.9181   25.1404 C   0  0  0  0  0  0  0  0  0  0  0  0
   10.2637  -16.5389   24.8965 O   0  0  0  0  0  0  0  0  0  0  0  0
    9.1402  -15.1326   26.3060 N   0  0  0  0  0  0  0  0  0  0  0  0
    7.9193  -14.4851   26.8095 C   0  0  0  0  0  0  0  0  0  0  0  0
    8.4356  -13.1666   27.3711 C   0  0  0  0  0  0  0  0  0  0  0  0
    9.9323  -13.2925   27.4591 C   0  0  0  0  0  0  0  0  0  0  0  0
   10.1367  -14.7763   27.2874 C   0  0  1  0  0  0  0  0  0  0  0  0
    9.9015  -15.4233   28.6083 C   0  0  0  0  0  0  0  0  0  0  0  0
    8.7511  -16.1491   28.7947 O   0  0  0  0  0  0  0  0  0  0  0  0
   10.7220  -15.3215   29.5441 O   0  0  0  0  0  0  0  0  0  0  0  0
  2  1  1  6
  2  7  1  0
  3  2  1  0
  4  5  1  0
  4  3  1  0
  5  6  2  0
  7 13  1  0
  7  8  2  0
  9  5  1  0
 10 11  1  0
 12 11  1  1
 13 12  1  0
 14 16  1  0
 14 12  1  0
 15 14  2  0
 16 17  1  0
 17 18  1  0
 19 18  1  0
 20 21  1  1
 20 16  1  0
 20 19  1  0
 21 22  1  0
 23 21  2  0
M  END
$$$$
