ESP.pdb
     RDKit          3D

 23 23  0  0  1  0  0  0  0  0999 V2000
   10.4543  -16.6092   20.0177 N   0  0  0  0  0  0  0  0  0  0  0  0
   10.1209  -17.2697   21.2555 C   0  0  1  0  0  0  0  0  0  0  0  0
   11.1931  -18.2638   21.6381 C   0  0  0  0  0  0  0  0  0  0  0  0
   12.5266  -17.6060   21.3507 C   0  0  0  0  0  0  0  0  0  0  0  0
   13.6623  -18.4961   21.6891 C   0  0  0  0  0  0  0  0  0  0  0  0
   14.8203  -18.0349   21.5008 O   0  0  0  0  0  0  0  0  0  0  0  0
    9.8319  -16.2915   22.3248 C   0  0  0  0  0  0  0  0  0  0  0  0
   10.2496  -15.1105   22.3170 O   0  0  0  0  0  0  0  0  0  0  0  0
   13.5290  -19.7723   22.1871 O   0  0  0  0  0  0  0  0  0  0  0  0
    7.3027  -17.5881   25.3579 O   0  0  0  0  0  0  0  0  0  0  0  0
    7.3936  -16.2290   25.1347 C   0  0  0  0  0  0  0  0  0  0  0  0
    8.7418  -15.8261   24.5499 C   0  0  2  0  0  0  0  0  0  0  0  0
    9.0469  -16.6930   23.4171 N   0  0  0  0  0  0  0  0  0  0  0  0
    9.7581  -16.0899   25.5963 C   0  0  0  0  0  0  0  0  0  0  0  0
   10.6633  -16.9442   25.3217 O   0  0  0  0  0  0  0  0  0  0  0  0
    9.8171  -15.4835   26.8634 N   0  0  0  0  0  0  0  0  0  0  0  0
    8.7718  -14.5896   27.3848 C   0  0  0  0  0  0  0  0  0  0  0  0
    9.5652  -13.5538   28.1707 C   0  0  0  0  0  0  0  0  0  0  0  0
   10.9559  -14.1058   28.3291 C   0  0  0  0  0  0  0  0  0  0  0  0
   10.7690  -15.5520   27.9461 C   0  0  1  0  0  0  0  0  0  0  0  0
   10.2367  -16.2721   29.1364 C   0  0  0  0  0  0  0  0  0  0  0  0
   11.1064  -16.6332   30.1357 O   0  0  0  0  0  0  0  0  0  0  0  0
    9.0249  -16.5528   29.2458 O   0  0  0  0  0  0  0  0  0  0  0  0
  2  1  1  6
  2  7  1  0
  3  2  1  0
  4  5  1  0
  4  3  1  0
  5  6  2  0
  7 13  1  0
  7  8  2  0
  9  5  1  0
 10 11  1  0
 12 11  1  1
 13 12  1  0
 14 16  1  0
 14 12  1  0
 15 14  2  0
 16 17  1  0
 17 18  1  0
 19 18  1  0
 20 21  1  1
 20 16  1  0
 20 19  1  0
 21 22  1  0
 23 21  2  0
M  END
$$$$
