ESP.pdb
     RDKit          3D

 23 23  0  0  1  0  0  0  0  0999 V2000
    9.2618  -17.2912   19.8942 N   0  0  0  0  0  0  0  0  0  0  0  0
    9.2598  -17.7301   21.2678 C   0  0  1  0  0  0  0  0  0  0  0  0
   10.6701  -17.9678   21.7565 C   0  0  0  0  0  0  0  0  0  0  0  0
   11.5969  -17.2664   20.7856 C   0  0  0  0  0  0  0  0  0  0  0  0
   13.0195  -17.4329   21.1667 C   0  0  0  0  0  0  0  0  0  0  0  0
   13.7340  -18.1333   20.3997 O   0  0  0  0  0  0  0  0  0  0  0  0
    8.4998  -16.7990   22.1276 C   0  0  0  0  0  0  0  0  0  0  0  0
    8.3464  -15.5830   21.8687 O   0  0  0  0  0  0  0  0  0  0  0  0
   13.5947  -16.8785   22.2874 O   0  0  0  0  0  0  0  0  0  0  0  0
    5.8764  -18.4188   24.7389 O   0  0  0  0  0  0  0  0  0  0  0  0
    6.5270  -17.3379   25.2991 C   0  0  0  0  0  0  0  0  0  0  0  0
    7.1849  -16.4498   24.2502 C   0  0  2  0  0  0  0  0  0  0  0  0
    7.9109  -17.2895   23.3037 N   0  0  0  0  0  0  0  0  0  0  0  0
    8.1842  -15.6168   24.9607 C   0  0  0  0  0  0  0  0  0  0  0  0
    9.4110  -15.8196   24.6808 O   0  0  0  0  0  0  0  0  0  0  0  0
    7.9039  -14.6221   25.9140 N   0  0  0  0  0  0  0  0  0  0  0  0
    6.5455  -14.3050   26.3807 C   0  0  0  0  0  0  0  0  0  0  0  0
    6.5906  -12.7942   26.5702 C   0  0  0  0  0  0  0  0  0  0  0  0
    8.0415  -12.3980   26.5289 C   0  0  0  0  0  0  0  0  0  0  0  0
    8.7378  -13.7267   26.6795 C   0  0  1  0  0  0  0  0  0  0  0  0
    8.7649  -14.0636   28.1302 C   0  0  0  0  0  0  0  0  0  0  0  0
    9.7003  -13.4592   28.9332 O   0  0  0  0  0  0  0  0  0  0  0  0
    7.9609  -14.8781   28.6298 O   0  0  0  0  0  0  0  0  0  0  0  0
  2  1  1  6
  2  7  1  0
  3  2  1  0
  4  5  1  0
  4  3  1  0
  5  6  2  0
  7 13  1  0
  7  8  2  0
  9  5  1  0
 10 11  1  0
 12 11  1  1
 13 12  1  0
 14 16  1  0
 14 12  1  0
 15 14  2  0
 16 17  1  0
 17 18  1  0
 19 18  1  0
 20 21  1  1
 20 16  1  0
 20 19  1  0
 21 22  1  0
 23 21  2  0
M  END
$$$$
