ESP.pdb
     RDKit          3D

 23 23  0  0  1  0  0  0  0  0999 V2000
   10.0658  -15.5546   19.3710 N   0  0  0  0  0  0  0  0  0  0  0  0
   10.5136  -16.0445   20.6511 C   0  0  1  0  0  0  0  0  0  0  0  0
   12.0181  -15.9530   20.7634 C   0  0  0  0  0  0  0  0  0  0  0  0
   12.4561  -14.7998   19.8850 C   0  0  0  0  0  0  0  0  0  0  0  0
   13.9201  -14.5801   19.9567 C   0  0  0  0  0  0  0  0  0  0  0  0
   14.5022  -14.9729   21.0036 O   0  0  0  0  0  0  0  0  0  0  0  0
    9.8094  -15.3688   21.7607 C   0  0  0  0  0  0  0  0  0  0  0  0
    9.4860  -14.1587   21.7434 O   0  0  0  0  0  0  0  0  0  0  0  0
   14.6667  -13.9835   18.9662 O   0  0  0  0  0  0  0  0  0  0  0  0
    7.8729  -17.6371   24.6016 O   0  0  0  0  0  0  0  0  0  0  0  0
    7.6582  -16.2769   24.5057 C   0  0  0  0  0  0  0  0  0  0  0  0
    8.9197  -15.5168   24.1150 C   0  0  2  0  0  0  0  0  0  0  0  0
    9.4774  -16.1109   22.9051 N   0  0  0  0  0  0  0  0  0  0  0  0
    9.9014  -15.7279   25.2055 C   0  0  0  0  0  0  0  0  0  0  0  0
   10.9237  -16.4391   24.9344 O   0  0  0  0  0  0  0  0  0  0  0  0
    9.8100  -15.2145   26.5112 N   0  0  0  0  0  0  0  0  0  0  0  0
    8.6288  -14.5025   27.0225 C   0  0  0  0  0  0  0  0  0  0  0  0
    9.2343  -13.4350   27.9247 C   0  0  0  0  0  0  0  0  0  0  0  0
   10.6748  -13.8151   28.1351 C   0  0  0  0  0  0  0  0  0  0  0  0
   10.7016  -15.2409   27.6459 C   0  0  1  0  0  0  0  0  0  0  0  0
   10.2042  -16.1093   28.7492 C   0  0  0  0  0  0  0  0  0  0  0  0
    8.9509  -16.6603   28.6446 O   0  0  0  0  0  0  0  0  0  0  0  0
   10.8969  -16.3464   29.7607 O   0  0  0  0  0  0  0  0  0  0  0  0
  2  1  1  6
  2  7  1  0
  3  2  1  0
  4  5  1  0
  4  3  1  0
  5  6  2  0
  7 13  1  0
  7  8  2  0
  9  5  1  0
 10 11  1  0
 12 11  1  1
 13 12  1  0
 14 16  1  0
 14 12  1  0
 15 14  2  0
 16 17  1  0
 17 18  1  0
 19 18  1  0
 20 21  1  1
 20 16  1  0
 20 19  1  0
 21 22  1  0
 23 21  2  0
M  END
$$$$
