ESP.pdb
     RDKit          3D

 23 23  0  0  1  0  0  0  0  0999 V2000
    9.8204  -16.4342   20.0243 N   0  0  0  0  0  0  0  0  0  0  0  0
    9.7991  -17.1974   21.2476 C   0  0  1  0  0  0  0  0  0  0  0  0
   11.0470  -18.0406   21.3749 C   0  0  0  0  0  0  0  0  0  0  0  0
   12.0426  -17.5094   20.3649 C   0  0  0  0  0  0  0  0  0  0  0  0
   13.3130  -18.2722   20.3925 C   0  0  0  0  0  0  0  0  0  0  0  0
   13.8133  -18.5001   21.5270 O   0  0  0  0  0  0  0  0  0  0  0  0
    9.5682  -16.3269   22.4193 C   0  0  0  0  0  0  0  0  0  0  0  0
   10.1043  -15.2044   22.5669 O   0  0  0  0  0  0  0  0  0  0  0  0
   13.9658  -18.7371   19.2736 O   0  0  0  0  0  0  0  0  0  0  0  0
    7.1724  -17.8965   25.4332 O   0  0  0  0  0  0  0  0  0  0  0  0
    7.0809  -16.5350   25.2252 C   0  0  0  0  0  0  0  0  0  0  0  0
    8.3409  -15.9593   24.5906 C   0  0  2  0  0  0  0  0  0  0  0  0
    8.7023  -16.7686   23.4320 N   0  0  0  0  0  0  0  0  0  0  0  0
    9.4272  -16.1042   25.5887 C   0  0  0  0  0  0  0  0  0  0  0  0
   10.4328  -16.8110   25.2513 O   0  0  0  0  0  0  0  0  0  0  0  0
    9.4519  -15.5325   26.8730 N   0  0  0  0  0  0  0  0  0  0  0  0
    8.2727  -14.9355   27.5184 C   0  0  0  0  0  0  0  0  0  0  0  0
    8.8591  -13.7557   28.2829 C   0  0  0  0  0  0  0  0  0  0  0  0
   10.3506  -13.9530   28.3015 C   0  0  0  0  0  0  0  0  0  0  0  0
   10.4860  -15.3911   27.8698 C   0  0  1  0  0  0  0  0  0  0  0  0
   10.2544  -16.2483   29.0658 C   0  0  0  0  0  0  0  0  0  0  0  0
   11.2560  -16.3709   29.9968 O   0  0  0  0  0  0  0  0  0  0  0  0
    9.1764  -16.8540   29.2401 O   0  0  0  0  0  0  0  0  0  0  0  0
  2  1  1  6
  2  7  1  0
  3  2  1  0
  4  5  1  0
  4  3  1  0
  5  6  2  0
  7 13  1  0
  7  8  2  0
  9  5  1  0
 10 11  1  0
 12 11  1  1
 13 12  1  0
 14 16  1  0
 14 12  1  0
 15 14  2  0
 16 17  1  0
 17 18  1  0
 19 18  1  0
 20 21  1  1
 20 16  1  0
 20 19  1  0
 21 22  1  0
 23 21  2  0
M  END
$$$$
