ESP.pdb
     RDKit          3D

 23 23  0  0  1  0  0  0  0  0999 V2000
    9.1192  -13.6769   18.3198 N   0  0  0  0  0  0  0  0  0  0  0  0
    9.5825  -14.2759   19.5469 C   0  0  1  0  0  0  0  0  0  0  0  0
   11.0076  -13.8657   19.8388 C   0  0  0  0  0  0  0  0  0  0  0  0
   11.9043  -14.9190   19.2225 C   0  0  0  0  0  0  0  0  0  0  0  0
   13.3323  -14.6766   19.5364 C   0  0  0  0  0  0  0  0  0  0  0  0
   13.6596  -14.7116   20.7533 O   0  0  0  0  0  0  0  0  0  0  0  0
    8.6591  -13.9917   20.6650 C   0  0  0  0  0  0  0  0  0  0  0  0
    8.0676  -12.8978   20.8162 O   0  0  0  0  0  0  0  0  0  0  0  0
   14.3032  -14.4203   18.5951 O   0  0  0  0  0  0  0  0  0  0  0  0
    7.3611  -17.1926   23.0200 O   0  0  0  0  0  0  0  0  0  0  0  0
    6.6629  -16.0036   22.9562 C   0  0  0  0  0  0  0  0  0  0  0  0
    7.5824  -14.7990   22.7969 C   0  0  2  0  0  0  0  0  0  0  0  0
    8.4211  -14.9933   21.6193 N   0  0  0  0  0  0  0  0  0  0  0  0
    8.4758  -14.7834   23.9797 C   0  0  0  0  0  0  0  0  0  0  0  0
    9.6882  -15.1301   23.7940 O   0  0  0  0  0  0  0  0  0  0  0  0
    8.1101  -14.4197   25.2877 N   0  0  0  0  0  0  0  0  0  0  0  0
    6.7178  -14.2064   25.7114 C   0  0  0  0  0  0  0  0  0  0  0  0
    6.8317  -13.0532   26.7000 C   0  0  0  0  0  0  0  0  0  0  0  0
    8.2929  -12.9108   27.0292 C   0  0  0  0  0  0  0  0  0  0  0  0
    8.8652  -14.2005   26.4979 C   0  0  1  0  0  0  0  0  0  0  0  0
    8.6318  -15.2569   27.5217 C   0  0  0  0  0  0  0  0  0  0  0  0
    9.4869  -15.3417   28.5927 O   0  0  0  0  0  0  0  0  0  0  0  0
    7.6819  -16.0622   27.4290 O   0  0  0  0  0  0  0  0  0  0  0  0
  2  1  1  6
  2  7  1  0
  3  2  1  0
  4  5  1  0
  4  3  1  0
  5  6  2  0
  7 13  1  0
  7  8  2  0
  9  5  1  0
 10 11  1  0
 12 11  1  1
 13 12  1  0
 14 16  1  0
 14 12  1  0
 15 14  2  0
 16 17  1  0
 17 18  1  0
 19 18  1  0
 20 21  1  1
 20 16  1  0
 20 19  1  0
 21 22  1  0
 23 21  2  0
M  END
$$$$
