ESP.pdb
     RDKit          3D

 23 23  0  0  1  0  0  0  0  0999 V2000
    8.7658  -12.9870   18.6088 N   0  0  0  0  0  0  0  0  0  0  0  0
    8.8171  -14.1737   19.4265 C   0  0  1  0  0  0  0  0  0  0  0  0
   10.2292  -14.7059   19.5107 C   0  0  0  0  0  0  0  0  0  0  0  0
   11.0897  -13.5871   20.0598 C   0  0  0  0  0  0  0  0  0  0  0  0
   12.4700  -14.0454   20.3450 C   0  0  0  0  0  0  0  0  0  0  0  0
   12.7499  -14.2875   21.5500 O   0  0  0  0  0  0  0  0  0  0  0  0
    8.2085  -13.9386   20.7525 C   0  0  0  0  0  0  0  0  0  0  0  0
    8.1732  -12.8180   21.3115 O   0  0  0  0  0  0  0  0  0  0  0  0
   13.4453  -14.2184   19.3893 O   0  0  0  0  0  0  0  0  0  0  0  0
    5.2127  -16.4648   22.3248 O   0  0  0  0  0  0  0  0  0  0  0  0
    6.3312  -16.2234   23.0969 C   0  0  0  0  0  0  0  0  0  0  0  0
    7.0036  -14.9017   22.7466 C   0  0  2  0  0  0  0  0  0  0  0  0
    7.6337  -15.0213   21.4364 N   0  0  0  0  0  0  0  0  0  0  0  0
    8.0835  -14.6943   23.7406 C   0  0  0  0  0  0  0  0  0  0  0  0
    9.2696  -14.9854   23.3759 O   0  0  0  0  0  0  0  0  0  0  0  0
    7.9208  -14.2044   25.0484 N   0  0  0  0  0  0  0  0  0  0  0  0
    6.6171  -13.8339   25.6199 C   0  0  0  0  0  0  0  0  0  0  0  0
    6.9518  -12.6271   26.4870 C   0  0  0  0  0  0  0  0  0  0  0  0
    8.4501  -12.5959   26.6219 C   0  0  0  0  0  0  0  0  0  0  0  0
    8.8414  -13.9679   26.1345 C   0  0  1  0  0  0  0  0  0  0  0  0
    8.6566  -14.9211   27.2641 C   0  0  0  0  0  0  0  0  0  0  0  0
    9.6304  -15.0020   28.2286 O   0  0  0  0  0  0  0  0  0  0  0  0
    7.6421  -15.6438   27.3536 O   0  0  0  0  0  0  0  0  0  0  0  0
  2  1  1  6
  2  7  1  0
  3  2  1  0
  4  5  1  0
  4  3  1  0
  5  6  2  0
  7 13  1  0
  7  8  2  0
  9  5  1  0
 10 11  1  0
 12 11  1  1
 13 12  1  0
 14 16  1  0
 14 12  1  0
 15 14  2  0
 16 17  1  0
 17 18  1  0
 19 18  1  0
 20 21  1  1
 20 16  1  0
 20 19  1  0
 21 22  1  0
 23 21  2  0
M  END
$$$$
