ESP.pdb
     RDKit          3D

 23 23  0  0  1  0  0  0  0  0999 V2000
    9.1111  -13.1570   18.4492 N   0  0  0  0  0  0  0  0  0  0  0  0
    9.0791  -14.3151   19.3079 C   0  0  1  0  0  0  0  0  0  0  0  0
   10.4291  -14.9939   19.3425 C   0  0  0  0  0  0  0  0  0  0  0  0
   11.4482  -13.9302   19.6937 C   0  0  0  0  0  0  0  0  0  0  0  0
   12.8021  -14.5054   19.8748 C   0  0  0  0  0  0  0  0  0  0  0  0
   12.9256  -15.7425   19.6662 O   0  0  0  0  0  0  0  0  0  0  0  0
    8.5702  -13.9724   20.6523 C   0  0  0  0  0  0  0  0  0  0  0  0
    8.7658  -12.8668   21.2079 O   0  0  0  0  0  0  0  0  0  0  0  0
   13.9110  -13.7816   20.2505 O   0  0  0  0  0  0  0  0  0  0  0  0
    6.6865  -17.0301   22.8068 O   0  0  0  0  0  0  0  0  0  0  0  0
    6.1953  -15.7496   22.9626 C   0  0  0  0  0  0  0  0  0  0  0  0
    7.2481  -14.6858   22.6769 C   0  0  2  0  0  0  0  0  0  0  0  0
    7.8244  -14.9288   21.3591 N   0  0  0  0  0  0  0  0  0  0  0  0
    8.3282  -14.8739   23.6746 C   0  0  0  0  0  0  0  0  0  0  0  0
    9.4531  -15.2857   23.2391 O   0  0  0  0  0  0  0  0  0  0  0  0
    8.2273  -14.6385   25.0570 N   0  0  0  0  0  0  0  0  0  0  0  0
    6.9593  -14.3355   25.7382 C   0  0  0  0  0  0  0  0  0  0  0  0
    7.3736  -13.3314   26.8060 C   0  0  0  0  0  0  0  0  0  0  0  0
    8.8751  -13.3835   26.8869 C   0  0  0  0  0  0  0  0  0  0  0  0
    9.1900  -14.6501   26.1323 C   0  0  1  0  0  0  0  0  0  0  0  0
    8.9972  -15.7949   27.0656 C   0  0  0  0  0  0  0  0  0  0  0  0
    9.9796  -16.0737   27.9835 O   0  0  0  0  0  0  0  0  0  0  0  0
    7.9688  -16.5023   27.0328 O   0  0  0  0  0  0  0  0  0  0  0  0
  2  1  1  6
  2  7  1  0
  3  2  1  0
  4  5  1  0
  4  3  1  0
  5  6  2  0
  7 13  1  0
  7  8  2  0
  9  5  1  0
 10 11  1  0
 12 11  1  1
 13 12  1  0
 14 16  1  0
 14 12  1  0
 15 14  2  0
 16 17  1  0
 17 18  1  0
 19 18  1  0
 20 21  1  1
 20 16  1  0
 20 19  1  0
 21 22  1  0
 23 21  2  0
M  END
$$$$
