ESP.pdb
     RDKit          3D

 23 23  0  0  1  0  0  0  0  0999 V2000
   10.4574  -16.1831   18.9165 N   0  0  0  0  0  0  0  0  0  0  0  0
   10.7300  -16.2484   20.3311 C   0  0  1  0  0  0  0  0  0  0  0  0
   12.2009  -16.0329   20.6038 C   0  0  0  0  0  0  0  0  0  0  0  0
   12.7453  -15.2073   19.4568 C   0  0  0  0  0  0  0  0  0  0  0  0
   14.2020  -14.9703   19.5936 C   0  0  0  0  0  0  0  0  0  0  0  0
   14.5593  -13.8055   19.9171 O   0  0  0  0  0  0  0  0  0  0  0  0
    9.8606  -15.3242   21.0885 C   0  0  0  0  0  0  0  0  0  0  0  0
    9.8543  -14.0827   20.9212 O   0  0  0  0  0  0  0  0  0  0  0  0
   15.1685  -15.9292   19.3919 O   0  0  0  0  0  0  0  0  0  0  0  0
    6.9995  -17.0934   23.5117 O   0  0  0  0  0  0  0  0  0  0  0  0
    6.7719  -15.8137   23.0471 C   0  0  0  0  0  0  0  0  0  0  0  0
    8.0645  -15.0356   22.8339 C   0  0  2  0  0  0  0  0  0  0  0  0
    8.9875  -15.8516   22.0528 N   0  0  0  0  0  0  0  0  0  0  0  0
    8.6708  -14.8385   24.1722 C   0  0  0  0  0  0  0  0  0  0  0  0
    9.8710  -15.2382   24.3285 O   0  0  0  0  0  0  0  0  0  0  0  0
    8.0450  -14.2495   25.2850 N   0  0  0  0  0  0  0  0  0  0  0  0
    6.6125  -13.9189   25.3298 C   0  0  0  0  0  0  0  0  0  0  0  0
    6.5833  -12.6222   26.1286 C   0  0  0  0  0  0  0  0  0  0  0  0
    7.9377  -12.4797   26.7681 C   0  0  0  0  0  0  0  0  0  0  0  0
    8.5191  -13.8594   26.5912 C   0  0  1  0  0  0  0  0  0  0  0  0
    7.9818  -14.7219   27.6802 C   0  0  0  0  0  0  0  0  0  0  0  0
    8.6132  -14.7196   28.8995 O   0  0  0  0  0  0  0  0  0  0  0  0
    6.9761  -15.4425   27.5109 O   0  0  0  0  0  0  0  0  0  0  0  0
  2  1  1  6
  2  7  1  0
  3  2  1  0
  4  5  1  0
  4  3  1  0
  5  6  2  0
  7 13  1  0
  7  8  2  0
  9  5  1  0
 10 11  1  0
 12 11  1  1
 13 12  1  0
 14 16  1  0
 14 12  1  0
 15 14  2  0
 16 17  1  0
 17 18  1  0
 19 18  1  0
 20 21  1  1
 20 16  1  0
 20 19  1  0
 21 22  1  0
 23 21  2  0
M  END
$$$$
