ESP.pdb
     RDKit          3D

 23 23  0  0  1  0  0  0  0  0999 V2000
    6.1703  -20.1601   17.0033 N   0  0  0  0  0  0  0  0  0  0  0  0
    7.1521  -19.1871   17.4142 C   0  0  1  0  0  0  0  0  0  0  0  0
    7.5171  -18.2760   16.2648 C   0  0  0  0  0  0  0  0  0  0  0  0
    8.3510  -19.0946   15.3014 C   0  0  0  0  0  0  0  0  0  0  0  0
    9.7856  -18.7287   15.3691 C   0  0  0  0  0  0  0  0  0  0  0  0
   10.3993  -19.0326   16.4275 O   0  0  0  0  0  0  0  0  0  0  0  0
    6.7079  -18.4510   18.6161 C   0  0  0  0  0  0  0  0  0  0  0  0
    5.6510  -17.7806   18.6688 O   0  0  0  0  0  0  0  0  0  0  0  0
   10.4736  -18.0888   14.3633 O   0  0  0  0  0  0  0  0  0  0  0  0
    7.6323  -19.7960   22.2722 O   0  0  0  0  0  0  0  0  0  0  0  0
    6.6983  -18.8062   22.0416 C   0  0  0  0  0  0  0  0  0  0  0  0
    7.1703  -17.7934   21.0056 C   0  0  2  0  0  0  0  0  0  0  0  0
    7.5040  -18.4957   19.7714 N   0  0  0  0  0  0  0  0  0  0  0  0
    8.4228  -17.1979   21.5292 C   0  0  0  0  0  0  0  0  0  0  0  0
    9.5187  -17.6526   21.0636 O   0  0  0  0  0  0  0  0  0  0  0  0
    8.5138  -16.1764   22.4910 N   0  0  0  0  0  0  0  0  0  0  0  0
    7.3629  -15.6838   23.2631 C   0  0  0  0  0  0  0  0  0  0  0  0
    7.6461  -14.1924   23.3895 C   0  0  0  0  0  0  0  0  0  0  0  0
    9.0813  -13.9908   22.9854 C   0  0  0  0  0  0  0  0  0  0  0  0
    9.6172  -15.3998   23.0034 C   0  0  1  0  0  0  0  0  0  0  0  0
    9.9547  -15.7395   24.4139 C   0  0  0  0  0  0  0  0  0  0  0  0
   11.1746  -15.3561   24.9138 O   0  0  0  0  0  0  0  0  0  0  0  0
    9.1581  -16.3610   25.1478 O   0  0  0  0  0  0  0  0  0  0  0  0
  2  1  1  6
  2  7  1  0
  3  2  1  0
  4  5  1  0
  4  3  1  0
  5  6  2  0
  7 13  1  0
  7  8  2  0
  9  5  1  0
 10 11  1  0
 12 11  1  1
 13 12  1  0
 14 16  1  0
 14 12  1  0
 15 14  2  0
 16 17  1  0
 17 18  1  0
 19 18  1  0
 20 21  1  1
 20 16  1  0
 20 19  1  0
 21 22  1  0
 23 21  2  0
M  END
$$$$
