ESP.pdb
     RDKit          3D

 23 23  0  0  1  0  0  0  0  0999 V2000
    9.2033  -19.2061   15.0710 N   0  0  0  0  0  0  0  0  0  0  0  0
   10.0150  -18.2673   15.8054 C   0  0  1  0  0  0  0  0  0  0  0  0
   11.0674  -17.6541   14.9105 C   0  0  0  0  0  0  0  0  0  0  0  0
   10.5572  -17.7671   13.4890 C   0  0  0  0  0  0  0  0  0  0  0  0
   11.5278  -17.2191   12.5121 C   0  0  0  0  0  0  0  0  0  0  0  0
   11.1060  -17.0279   11.3396 O   0  0  0  0  0  0  0  0  0  0  0  0
    9.1811  -17.2586   16.4915 C   0  0  0  0  0  0  0  0  0  0  0  0
    8.9563  -16.1149   16.0324 O   0  0  0  0  0  0  0  0  0  0  0  0
   12.8374  -16.9129   12.8045 O   0  0  0  0  0  0  0  0  0  0  0  0
    7.2681  -18.5415   19.9396 O   0  0  0  0  0  0  0  0  0  0  0  0
    6.6955  -17.5047   19.2308 C   0  0  0  0  0  0  0  0  0  0  0  0
    7.7284  -16.6825   18.4698 C   0  0  2  0  0  0  0  0  0  0  0  0
    8.6016  -17.5850   17.7276 N   0  0  0  0  0  0  0  0  0  0  0  0
    8.5613  -15.9956   19.4856 C   0  0  0  0  0  0  0  0  0  0  0  0
    9.7402  -16.4447   19.6675 O   0  0  0  0  0  0  0  0  0  0  0  0
    8.1717  -14.8930   20.2662 N   0  0  0  0  0  0  0  0  0  0  0  0
    6.7948  -14.3777   20.3130 C   0  0  0  0  0  0  0  0  0  0  0  0
    6.9945  -12.8719   20.4261 C   0  0  0  0  0  0  0  0  0  0  0  0
    8.4420  -12.6542   20.7743 C   0  0  0  0  0  0  0  0  0  0  0  0
    8.8807  -14.0365   21.1865 C   0  0  1  0  0  0  0  0  0  0  0  0
    8.4645  -14.2421   22.6018 C   0  0  0  0  0  0  0  0  0  0  0  0
    7.3379  -14.9834   22.8599 O   0  0  0  0  0  0  0  0  0  0  0  0
    9.1130  -13.7590   23.5533 O   0  0  0  0  0  0  0  0  0  0  0  0
  2  1  1  6
  2  7  1  0
  3  2  1  0
  4  5  1  0
  4  3  1  0
  5  6  2  0
  7 13  1  0
  7  8  2  0
  9  5  1  0
 10 11  1  0
 12 11  1  1
 13 12  1  0
 14 16  1  0
 14 12  1  0
 15 14  2  0
 16 17  1  0
 17 18  1  0
 19 18  1  0
 20 21  1  1
 20 16  1  0
 20 19  1  0
 21 22  1  0
 23 21  2  0
M  END
$$$$
