NAF.pdb
     RDKit          3D

 25 25  0  0  1  0  0  0  0  0999 V2000
    7.3407  -13.0418   16.3112 N   0  0  0  0  0  0  0  0  0  0  0  0
    8.2382  -13.3463   17.3608 C   0  0  0  0  0  0  0  0  0  0  0  0
    9.4757  -13.2827   17.1552 O   0  0  0  0  0  0  0  0  0  0  0  0
    7.6553  -13.7335   18.6786 C   0  0  0  0  0  0  0  0  0  0  0  0
    8.7517  -14.4634   19.4311 C   0  0  2  0  0  0  0  0  0  0  0  0
    9.2535  -15.5055   18.5533 N   0  0  0  0  0  0  0  0  0  0  0  0
    8.2160  -14.9948   20.6881 C   0  0  0  0  0  0  0  0  0  0  0  0
    7.4912  -14.3421   21.4863 O   0  0  0  0  0  0  0  0  0  0  0  0
    8.1795  -18.4549   22.2260 C   0  0  0  0  0  0  0  0  0  0  0  0
    8.0486  -16.9524   22.2599 C   0  0  2  0  0  0  0  0  0  0  0  0
    8.5271  -16.3355   21.0430 N   0  0  0  0  0  0  0  0  0  0  0  0
    8.8084  -16.4293   23.4176 C   0  0  0  0  0  0  0  0  0  0  0  0
   10.0226  -16.1061   23.3344 O   0  0  0  0  0  0  0  0  0  0  0  0
    8.1958  -16.2660   24.6896 N   0  0  0  0  0  0  0  0  0  0  0  0
    8.9031  -15.7198   25.8311 C   0  0  1  0  0  0  0  0  0  0  0  0
    7.9580  -15.0226   26.7874 C   0  0  0  0  0  0  0  0  0  0  0  0
    7.5055  -13.7228   26.2903 C   0  0  0  0  0  0  0  0  0  0  0  0
    8.3586  -12.6831   25.9854 C   0  0  0  0  0  0  0  0  0  0  0  0
    7.8948  -11.4695   25.5156 C   0  0  0  0  0  0  0  0  0  0  0  0
    6.5638  -11.2628   25.3380 C   0  0  0  0  0  0  0  0  0  0  0  0
    5.6838  -12.2874   25.6354 C   0  0  0  0  0  0  0  0  0  0  0  0
    6.1579  -13.5064   26.1079 C   0  0  0  0  0  0  0  0  0  0  0  0
    9.5801  -16.8072   26.5797 C   0  0  0  0  0  0  0  0  0  0  0  0
   10.5813  -16.6039   27.4897 O   0  0  0  0  0  0  0  0  0  0  0  0
    9.2190  -18.0120   26.3743 O   0  0  0  0  0  0  0  0  0  0  0  0
  1  2  1  0
  2  3  2  0
  4  5  1  0
  4  2  1  0
  5  7  1  0
  5  6  1  6
  7  8  2  0
 10  9  1  6
 11 10  1  0
 11  7  1  0
 12 10  1  0
 13 12  2  0
 14 12  1  0
 15 14  1  0
 15 23  1  0
 15 16  1  1
 17 16  1  0
 18 17  2  0
 19 18  1  0
 20 21  1  0
 20 19  2  0
 21 22  2  0
 22 17  1  0
 23 24  1  0
 25 23  2  0
M  END
$$$$
