NAF.pdb
     RDKit          3D

 25 25  0  0  1  0  0  0  0  0999 V2000
    8.6083  -12.4640   19.3224 N   0  0  0  0  0  0  0  0  0  0  0  0
    8.0945  -13.6807   18.8169 C   0  0  0  0  0  0  0  0  0  0  0  0
    7.2870  -13.6596   17.8550 O   0  0  0  0  0  0  0  0  0  0  0  0
    8.5480  -14.9455   19.4656 C   0  0  0  0  0  0  0  0  0  0  0  0
    7.9922  -14.9231   20.8769 C   0  0  2  0  0  0  0  0  0  0  0  0
    8.5698  -13.7717   21.5469 N   0  0  0  0  0  0  0  0  0  0  0  0
    8.3101  -16.1855   21.5510 C   0  0  0  0  0  0  0  0  0  0  0  0
    7.8700  -17.3126   21.1979 O   0  0  0  0  0  0  0  0  0  0  0  0
   10.4706  -18.2289   22.5915 C   0  0  0  0  0  0  0  0  0  0  0  0
    9.5604  -17.3413   23.4036 C   0  0  2  0  0  0  0  0  0  0  0  0
    9.1720  -16.1510   22.6807 N   0  0  0  0  0  0  0  0  0  0  0  0
   10.2509  -16.9620   24.6568 C   0  0  0  0  0  0  0  0  0  0  0  0
   11.2248  -17.6174   25.1126 O   0  0  0  0  0  0  0  0  0  0  0  0
    9.8423  -15.8287   25.4108 N   0  0  0  0  0  0  0  0  0  0  0  0
   10.5648  -15.3687   26.5804 C   0  0  1  0  0  0  0  0  0  0  0  0
   10.4250  -13.8721   26.7655 C   0  0  0  0  0  0  0  0  0  0  0  0
    9.0549  -13.4010   26.5596 C   0  0  0  0  0  0  0  0  0  0  0  0
    8.3515  -13.5878   25.3883 C   0  0  0  0  0  0  0  0  0  0  0  0
    7.0573  -13.1306   25.2308 C   0  0  0  0  0  0  0  0  0  0  0  0
    6.4313  -12.4735   26.2417 C   0  0  0  0  0  0  0  0  0  0  0  0
    7.1117  -12.2712   27.4286 C   0  0  0  0  0  0  0  0  0  0  0  0
    8.4143  -12.7342   27.5799 C   0  0  0  0  0  0  0  0  0  0  0  0
   10.0324  -16.0252   27.7996 C   0  0  0  0  0  0  0  0  0  0  0  0
    8.9951  -16.9174   27.7995 O   0  0  0  0  0  0  0  0  0  0  0  0
   10.5624  -15.7522   28.9260 O   0  0  0  0  0  0  0  0  0  0  0  0
  1  2  1  0
  2  3  2  0
  4  5  1  0
  4  2  1  0
  5  7  1  0
  5  6  1  1
  7  8  2  0
 10  9  1  6
 11 10  1  0
 11  7  1  0
 12 10  1  0
 13 12  2  0
 14 12  1  0
 15 14  1  0
 15 23  1  0
 15 16  1  1
 17 16  1  0
 18 17  2  0
 19 18  1  0
 20 21  1  0
 20 19  2  0
 21 22  2  0
 22 17  1  0
 23 24  1  0
 25 23  2  0
M  END
$$$$
