NAF.pdb
     RDKit          3D

 25 25  0  0  1  0  0  0  0  0999 V2000
    7.3638  -12.2773   17.3498 N   0  0  0  0  0  0  0  0  0  0  0  0
    8.1264  -13.2845   17.9854 C   0  0  0  0  0  0  0  0  0  0  0  0
    9.2196  -13.6438   17.4821 O   0  0  0  0  0  0  0  0  0  0  0  0
    7.5804  -13.8756   19.2420 C   0  0  0  0  0  0  0  0  0  0  0  0
    8.5623  -14.9505   19.6684 C   0  0  2  0  0  0  0  0  0  0  0  0
    8.6253  -15.9244   18.5934 N   0  0  0  0  0  0  0  0  0  0  0  0
    8.1261  -15.5397   20.9379 C   0  0  0  0  0  0  0  0  0  0  0  0
    6.9571  -15.9508   21.1686 O   0  0  0  0  0  0  0  0  0  0  0  0
    8.9187  -18.0487   22.5282 C   0  0  0  0  0  0  0  0  0  0  0  0
    8.9440  -16.6339   23.0510 C   0  0  2  0  0  0  0  0  0  0  0  0
    9.0754  -15.6620   21.9887 N   0  0  0  0  0  0  0  0  0  0  0  0
   10.0707  -16.4919   24.0005 C   0  0  0  0  0  0  0  0  0  0  0  0
   11.0048  -17.3339   24.0660 O   0  0  0  0  0  0  0  0  0  0  0  0
   10.1509  -15.3870   24.8909 N   0  0  0  0  0  0  0  0  0  0  0  0
    9.7237  -15.4678   26.2738 C   0  0  1  0  0  0  0  0  0  0  0  0
    8.2145  -15.4229   26.3915 C   0  0  0  0  0  0  0  0  0  0  0  0
    7.6655  -14.0901   26.1390 C   0  0  0  0  0  0  0  0  0  0  0  0
    6.9237  -13.7692   25.0218 C   0  0  0  0  0  0  0  0  0  0  0  0
    6.4190  -12.4993   24.8181 C   0  0  0  0  0  0  0  0  0  0  0  0
    6.6430  -11.5152   25.7275 C   0  0  0  0  0  0  0  0  0  0  0  0
    7.3838  -11.8073   26.8582 C   0  0  0  0  0  0  0  0  0  0  0  0
    7.8887  -13.0878   27.0565 C   0  0  0  0  0  0  0  0  0  0  0  0
   10.1848  -16.7427   26.8764 C   0  0  0  0  0  0  0  0  0  0  0  0
   10.8667  -16.8295   28.0593 O   0  0  0  0  0  0  0  0  0  0  0  0
    9.9388  -17.8348   26.2673 O   0  0  0  0  0  0  0  0  0  0  0  0
  1  2  1  0
  2  3  2  0
  4  5  1  0
  4  2  1  0
  5  7  1  0
  5  6  1  6
  7  8  2  0
 10  9  1  6
 11 10  1  0
 11  7  1  0
 12 10  1  0
 13 12  2  0
 14 12  1  0
 15 14  1  0
 15 23  1  0
 15 16  1  6
 17 16  1  0
 18 17  2  0
 19 18  1  0
 20 21  1  0
 20 19  2  0
 21 22  2  0
 22 17  1  0
 23 24  1  0
 25 23  2  0
M  END
$$$$
