NAF.pdb
     RDKit          3D

 25 25  0  0  1  0  0  0  0  0999 V2000
    6.2868  -21.0649   22.5288 N   0  0  0  0  0  0  0  0  0  0  0  0
    5.4321  -19.9574   22.3216 C   0  0  0  0  0  0  0  0  0  0  0  0
    4.3307  -20.1253   21.7417 O   0  0  0  0  0  0  0  0  0  0  0  0
    5.8942  -18.6261   22.8121 C   0  0  0  0  0  0  0  0  0  0  0  0
    5.9625  -17.7241   21.5944 C   0  0  2  0  0  0  0  0  0  0  0  0
    6.6911  -18.4458   20.5665 N   0  0  0  0  0  0  0  0  0  0  0  0
    6.6050  -16.4569   21.9562 C   0  0  0  0  0  0  0  0  0  0  0  0
    6.1539  -15.6476   22.8107 O   0  0  0  0  0  0  0  0  0  0  0  0
    7.5478  -13.6684   21.2492 C   0  0  0  0  0  0  0  0  0  0  0  0
    8.4729  -14.8311   21.5107 C   0  0  2  0  0  0  0  0  0  0  0  0
    7.8195  -16.1046   21.3073 N   0  0  0  0  0  0  0  0  0  0  0  0
    8.9748  -14.7433   22.9006 C   0  0  0  0  0  0  0  0  0  0  0  0
    9.7465  -13.8233   23.2798 O   0  0  0  0  0  0  0  0  0  0  0  0
    8.6047  -15.7033   23.8810 N   0  0  0  0  0  0  0  0  0  0  0  0
    9.0581  -15.6279   25.2559 C   0  0  1  0  0  0  0  0  0  0  0  0
    7.8950  -15.4978   26.2171 C   0  0  0  0  0  0  0  0  0  0  0  0
    7.4046  -14.1237   26.3309 C   0  0  0  0  0  0  0  0  0  0  0  0
    8.2022  -13.0553   26.6827 C   0  0  0  0  0  0  0  0  0  0  0  0
    7.7042  -11.7701   26.7779 C   0  0  0  0  0  0  0  0  0  0  0  0
    6.3935  -11.5188   26.5233 C   0  0  0  0  0  0  0  0  0  0  0  0
    5.5690  -12.5707   26.1680 C   0  0  0  0  0  0  0  0  0  0  0  0
    6.0773  -13.8618   26.0743 C   0  0  0  0  0  0  0  0  0  0  0  0
    9.8038  -16.8592   25.6153 C   0  0  0  0  0  0  0  0  0  0  0  0
    9.9970  -17.9142   24.7658 O   0  0  0  0  0  0  0  0  0  0  0  0
   10.3019  -16.9570   26.7842 O   0  0  0  0  0  0  0  0  0  0  0  0
  1  2  1  0
  2  3  2  0
  4  5  1  0
  4  2  1  0
  5  7  1  0
  5  6  1  6
  7  8  2  0
 10  9  1  1
 11 10  1  0
 11  7  1  0
 12 10  1  0
 13 12  2  0
 14 12  1  0
 15 14  1  0
 15 23  1  0
 15 16  1  1
 17 16  1  0
 18 17  2  0
 19 18  1  0
 20 21  1  0
 20 19  2  0
 21 22  2  0
 22 17  1  0
 23 24  1  0
 25 23  2  0
M  END
$$$$
