NAF.pdb
     RDKit          3D

 25 25  0  0  1  0  0  0  0  0999 V2000
    6.0978  -20.5048   18.2578 N   0  0  0  0  0  0  0  0  0  0  0  0
    7.3388  -20.1575   18.8401 C   0  0  0  0  0  0  0  0  0  0  0  0
    8.0985  -21.0632   19.2646 O   0  0  0  0  0  0  0  0  0  0  0  0
    7.6837  -18.7080   18.9198 C   0  0  0  0  0  0  0  0  0  0  0  0
    7.8751  -18.3963   20.3920 C   0  0  2  0  0  0  0  0  0  0  0  0
    6.5843  -18.5603   21.0363 N   0  0  0  0  0  0  0  0  0  0  0  0
    8.4117  -17.0402   20.5421 C   0  0  0  0  0  0  0  0  0  0  0  0
    9.4852  -16.6366   20.0193 O   0  0  0  0  0  0  0  0  0  0  0  0
    6.9737  -13.7614   21.4198 C   0  0  0  0  0  0  0  0  0  0  0  0
    8.1160  -14.7415   21.5216 C   0  0  2  0  0  0  0  0  0  0  0  0
    7.6822  -16.1070   21.3276 N   0  0  0  0  0  0  0  0  0  0  0  0
    8.7515  -14.6032   22.8514 C   0  0  0  0  0  0  0  0  0  0  0  0
    9.3886  -13.5705   23.1879 O   0  0  0  0  0  0  0  0  0  0  0  0
    8.6708  -15.6406   23.8196 N   0  0  0  0  0  0  0  0  0  0  0  0
    9.3034  -15.5438   25.1203 C   0  0  1  0  0  0  0  0  0  0  0  0
    8.2777  -15.4339   26.2291 C   0  0  0  0  0  0  0  0  0  0  0  0
    7.7269  -14.0844   26.3602 C   0  0  0  0  0  0  0  0  0  0  0  0
    6.3863  -13.7909   26.2262 C   0  0  0  0  0  0  0  0  0  0  0  0
    5.9019  -12.5038   26.3591 C   0  0  0  0  0  0  0  0  0  0  0  0
    6.7464  -11.4747   26.6301 C   0  0  0  0  0  0  0  0  0  0  0  0
    8.0967  -11.7386   26.7700 C   0  0  0  0  0  0  0  0  0  0  0  0
    8.5771  -13.0366   26.6347 C   0  0  0  0  0  0  0  0  0  0  0  0
   10.1208  -16.7542   25.3813 C   0  0  0  0  0  0  0  0  0  0  0  0
   10.9236  -16.9159   26.4773 O   0  0  0  0  0  0  0  0  0  0  0  0
   10.0848  -17.7127   24.5422 O   0  0  0  0  0  0  0  0  0  0  0  0
  1  2  1  0
  2  3  2  0
  4  5  1  0
  4  2  1  0
  5  7  1  0
  5  6  1  1
  7  8  2  0
 10  9  1  1
 11 10  1  0
 11  7  1  0
 12 10  1  0
 13 12  2  0
 14 12  1  0
 15 14  1  0
 15 23  1  0
 15 16  1  1
 17 16  1  0
 18 17  2  0
 19 18  1  0
 20 21  1  0
 20 19  2  0
 21 22  2  0
 22 17  1  0
 23 24  1  0
 25 23  2  0
M  END
$$$$
