NAF.pdb
     RDKit          3D

 25 25  0  0  1  0  0  0  0  0999 V2000
    8.0881  -20.7519   17.9787 N   0  0  0  0  0  0  0  0  0  0  0  0
    7.3255  -20.0937   18.9712 C   0  0  0  0  0  0  0  0  0  0  0  0
    6.5121  -20.7526   19.6653 O   0  0  0  0  0  0  0  0  0  0  0  0
    7.5329  -18.6260   19.1424 C   0  0  0  0  0  0  0  0  0  0  0  0
    8.0234  -18.4284   20.5642 C   0  0  2  0  0  0  0  0  0  0  0  0
    6.8925  -18.6622   21.4442 N   0  0  0  0  0  0  0  0  0  0  0  0
    8.5812  -17.0804   20.7093 C   0  0  0  0  0  0  0  0  0  0  0  0
    9.7310  -16.7393   20.3217 O   0  0  0  0  0  0  0  0  0  0  0  0
    7.1537  -13.7126   21.4325 C   0  0  0  0  0  0  0  0  0  0  0  0
    8.2564  -14.7344   21.5588 C   0  0  2  0  0  0  0  0  0  0  0  0
    7.7821  -16.0804   21.3271 N   0  0  0  0  0  0  0  0  0  0  0  0
    8.8478  -14.6391   22.9125 C   0  0  0  0  0  0  0  0  0  0  0  0
    9.4757  -13.6192   23.3015 O   0  0  0  0  0  0  0  0  0  0  0  0
    8.7327  -15.7054   23.8451 N   0  0  0  0  0  0  0  0  0  0  0  0
    9.2769  -15.6299   25.1866 C   0  0  1  0  0  0  0  0  0  0  0  0
    8.1789  -15.5516   26.2268 C   0  0  0  0  0  0  0  0  0  0  0  0
    7.5602  -14.2275   26.2995 C   0  0  0  0  0  0  0  0  0  0  0  0
    6.2442  -13.9808   25.9695 C   0  0  0  0  0  0  0  0  0  0  0  0
    5.6933  -12.7166   26.0529 C   0  0  0  0  0  0  0  0  0  0  0  0
    6.4446  -11.6640   26.4692 C   0  0  0  0  0  0  0  0  0  0  0  0
    7.7680  -11.8808   26.8070 C   0  0  0  0  0  0  0  0  0  0  0  0
    8.3158  -13.1561   26.7205 C   0  0  0  0  0  0  0  0  0  0  0  0
   10.0872  -16.8382   25.4771 C   0  0  0  0  0  0  0  0  0  0  0  0
   10.8160  -17.0162   26.6212 O   0  0  0  0  0  0  0  0  0  0  0  0
   10.1177  -17.7789   24.6178 O   0  0  0  0  0  0  0  0  0  0  0  0
  1  2  1  0
  2  3  2  0
  4  5  1  0
  4  2  1  0
  5  7  1  0
  5  6  1  1
  7  8  2  0
 10  9  1  1
 11 10  1  0
 11  7  1  0
 12 10  1  0
 13 12  2  0
 14 12  1  0
 15 14  1  0
 15 23  1  0
 15 16  1  1
 17 16  1  0
 18 17  2  0
 19 18  1  0
 20 21  1  0
 20 19  2  0
 21 22  2  0
 22 17  1  0
 23 24  1  0
 25 23  2  0
M  END
$$$$
