NAF.pdb
     RDKit          3D

 25 25  0  0  1  0  0  0  0  0999 V2000
    7.9411  -11.9569   17.6008 N   0  0  0  0  0  0  0  0  0  0  0  0
    7.8113  -13.3096   17.9922 C   0  0  0  0  0  0  0  0  0  0  0  0
    8.1092  -14.2203   17.1801 O   0  0  0  0  0  0  0  0  0  0  0  0
    7.3188  -13.5856   19.3733 C   0  0  0  0  0  0  0  0  0  0  0  0
    8.5319  -14.0047   20.1821 C   0  0  2  0  0  0  0  0  0  0  0  0
    9.4145  -14.7305   19.2863 N   0  0  0  0  0  0  0  0  0  0  0  0
    8.1040  -14.8122   21.3284 C   0  0  0  0  0  0  0  0  0  0  0  0
    7.2393  -14.4513   22.1714 O   0  0  0  0  0  0  0  0  0  0  0  0
    8.7548  -18.3934   22.3551 C   0  0  0  0  0  0  0  0  0  0  0  0
    8.3399  -16.9653   22.6088 C   0  0  2  0  0  0  0  0  0  0  0  0
    8.6960  -16.0910   21.5137 N   0  0  0  0  0  0  0  0  0  0  0  0
    8.9824  -16.4919   23.8555 C   0  0  0  0  0  0  0  0  0  0  0  0
   10.0899  -15.8926   23.8555 O   0  0  0  0  0  0  0  0  0  0  0  0
    8.3722  -16.6941   25.1231 N   0  0  0  0  0  0  0  0  0  0  0  0
    8.9446  -16.1849   26.3539 C   0  0  1  0  0  0  0  0  0  0  0  0
    7.9005  -15.4962   27.2077 C   0  0  0  0  0  0  0  0  0  0  0  0
    7.5089  -14.1887   26.6800 C   0  0  0  0  0  0  0  0  0  0  0  0
    8.3574  -13.1031   26.6237 C   0  0  0  0  0  0  0  0  0  0  0  0
    7.9529  -11.8835   26.1160 C   0  0  0  0  0  0  0  0  0  0  0  0
    6.6876  -11.7168   25.6505 C   0  0  0  0  0  0  0  0  0  0  0  0
    5.8138  -12.7879   25.6940 C   0  0  0  0  0  0  0  0  0  0  0  0
    6.2280  -14.0126   26.2065 C   0  0  0  0  0  0  0  0  0  0  0  0
    9.5146  -17.2991   27.1506 C   0  0  0  0  0  0  0  0  0  0  0  0
    9.3479  -18.6227   26.8469 O   0  0  0  0  0  0  0  0  0  0  0  0
   10.2050  -17.0241   28.1858 O   0  0  0  0  0  0  0  0  0  0  0  0
  1  2  1  0
  2  3  2  0
  4  5  1  0
  4  2  1  0
  5  7  1  0
  5  6  1  6
  7  8  2  0
 10  9  1  6
 11 10  1  0
 11  7  1  0
 12 10  1  0
 13 12  2  0
 14 12  1  0
 15 14  1  0
 15 23  1  0
 15 16  1  1
 17 16  1  0
 18 17  2  0
 19 18  1  0
 20 21  1  0
 20 19  2  0
 21 22  2  0
 22 17  1  0
 23 24  1  0
 25 23  2  0
M  END
$$$$
