NAF.pdb
     RDKit          3D

 25 25  0  0  1  0  0  0  0  0999 V2000
   10.1805  -19.0650   18.9931 N   0  0  0  0  0  0  0  0  0  0  0  0
    9.0709  -18.6563   18.2174 C   0  0  0  0  0  0  0  0  0  0  0  0
    9.1524  -18.6716   16.9641 O   0  0  0  0  0  0  0  0  0  0  0  0
    7.8421  -18.2215   18.9435 C   0  0  0  0  0  0  0  0  0  0  0  0
    8.2439  -18.0517   20.3965 C   0  0  2  0  0  0  0  0  0  0  0  0
    7.1104  -18.4624   21.2055 N   0  0  0  0  0  0  0  0  0  0  0  0
    8.6350  -16.6598   20.6394 C   0  0  0  0  0  0  0  0  0  0  0  0
    9.7578  -16.1722   20.3391 O   0  0  0  0  0  0  0  0  0  0  0  0
    6.7956  -13.5639   21.7535 C   0  0  0  0  0  0  0  0  0  0  0  0
    8.0208  -14.4376   21.6471 C   0  0  2  0  0  0  0  0  0  0  0  0
    7.6940  -15.7902   21.2546 N   0  0  0  0  0  0  0  0  0  0  0  0
    8.7173  -14.4507   22.9533 C   0  0  0  0  0  0  0  0  0  0  0  0
    9.1484  -13.3993   23.4958 O   0  0  0  0  0  0  0  0  0  0  0  0
    8.9333  -15.6632   23.6625 N   0  0  0  0  0  0  0  0  0  0  0  0
    9.1996  -15.6962   25.0871 C   0  0  1  0  0  0  0  0  0  0  0  0
    7.9164  -15.7358   25.8904 C   0  0  0  0  0  0  0  0  0  0  0  0
    7.4532  -14.4050   26.2851 C   0  0  0  0  0  0  0  0  0  0  0  0
    8.2900  -13.4124   26.7498 C   0  0  0  0  0  0  0  0  0  0  0  0
    7.8168  -12.1657   27.1113 C   0  0  0  0  0  0  0  0  0  0  0  0
    6.4923  -11.8781   27.0174 C   0  0  0  0  0  0  0  0  0  0  0  0
    5.6286  -12.8539   26.5545 C   0  0  0  0  0  0  0  0  0  0  0  0
    6.1122  -14.1066   26.1925 C   0  0  0  0  0  0  0  0  0  0  0  0
    9.9841  -16.9075   25.4314 C   0  0  0  0  0  0  0  0  0  0  0  0
   10.3476  -17.8683   24.5278 O   0  0  0  0  0  0  0  0  0  0  0  0
   10.3504  -17.0796   26.6398 O   0  0  0  0  0  0  0  0  0  0  0  0
  1  2  1  0
  2  3  2  0
  4  5  1  0
  4  2  1  0
  5  7  1  0
  5  6  1  1
  7  8  2  0
 10  9  1  1
 11 10  1  0
 11  7  1  0
 12 10  1  0
 13 12  2  0
 14 12  1  0
 15 14  1  0
 15 23  1  0
 15 16  1  1
 17 16  1  0
 18 17  2  0
 19 18  1  0
 20 21  1  0
 20 19  2  0
 21 22  2  0
 22 17  1  0
 23 24  1  0
 25 23  2  0
M  END
$$$$
