NAF.pdb
     RDKit          3D

 25 25  0  0  1  0  0  0  0  0999 V2000
    7.7087  -11.9648   17.9736 N   0  0  0  0  0  0  0  0  0  0  0  0
    7.5901  -13.3739   17.9669 C   0  0  0  0  0  0  0  0  0  0  0  0
    7.8724  -14.0141   16.9237 O   0  0  0  0  0  0  0  0  0  0  0  0
    7.1279  -14.0349   19.2222 C   0  0  0  0  0  0  0  0  0  0  0  0
    8.3772  -14.3444   20.0253 C   0  0  2  0  0  0  0  0  0  0  0  0
    9.2518  -15.1290   19.1722 N   0  0  0  0  0  0  0  0  0  0  0  0
    8.0086  -15.0503   21.2561 C   0  0  0  0  0  0  0  0  0  0  0  0
    7.1458  -14.6436   22.0800 O   0  0  0  0  0  0  0  0  0  0  0  0
    8.7002  -18.5260   22.5316 C   0  0  0  0  0  0  0  0  0  0  0  0
    8.3354  -17.0738   22.7156 C   0  0  2  0  0  0  0  0  0  0  0  0
    8.6603  -16.2781   21.5529 N   0  0  0  0  0  0  0  0  0  0  0  0
    9.0499  -16.5444   23.8990 C   0  0  0  0  0  0  0  0  0  0  0  0
   10.2020  -16.0422   23.8197 O   0  0  0  0  0  0  0  0  0  0  0  0
    8.4621  -16.5789   25.1926 N   0  0  0  0  0  0  0  0  0  0  0  0
    9.1356  -16.0644   26.3687 C   0  0  1  0  0  0  0  0  0  0  0  0
    8.1799  -15.3098   27.2693 C   0  0  0  0  0  0  0  0  0  0  0  0
    7.7193  -14.0519   26.6800 C   0  0  0  0  0  0  0  0  0  0  0  0
    8.5369  -12.9607   26.4749 C   0  0  0  0  0  0  0  0  0  0  0  0
    8.0670  -11.7892   25.9131 C   0  0  0  0  0  0  0  0  0  0  0  0
    6.7652  -11.6777   25.5410 C   0  0  0  0  0  0  0  0  0  0  0  0
    5.9210  -12.7559   25.7344 C   0  0  0  0  0  0  0  0  0  0  0  0
    6.4011  -13.9320   26.3006 C   0  0  0  0  0  0  0  0  0  0  0  0
    9.7100  -17.1820   27.1574 C   0  0  0  0  0  0  0  0  0  0  0  0
    9.5098  -18.5049   26.8713 O   0  0  0  0  0  0  0  0  0  0  0  0
   10.4377  -16.9109   28.1678 O   0  0  0  0  0  0  0  0  0  0  0  0
  1  2  1  0
  2  3  2  0
  4  5  1  0
  4  2  1  0
  5  7  1  0
  5  6  1  6
  7  8  2  0
 10  9  1  6
 11 10  1  0
 11  7  1  0
 12 10  1  0
 13 12  2  0
 14 12  1  0
 15 14  1  0
 15 23  1  0
 15 16  1  1
 17 16  1  0
 18 17  2  0
 19 18  1  0
 20 21  1  0
 20 19  2  0
 21 22  2  0
 22 17  1  0
 23 24  1  0
 25 23  2  0
M  END
$$$$
