NAF.pdb
     RDKit          3D

 25 25  0  0  1  0  0  0  0  0999 V2000
    4.9160  -21.0265   19.7941 N   0  0  0  0  0  0  0  0  0  0  0  0
    6.1744  -20.8536   20.4158 C   0  0  0  0  0  0  0  0  0  0  0  0
    6.6509  -21.7802   21.1173 O   0  0  0  0  0  0  0  0  0  0  0  0
    6.8797  -19.5565   20.2004 C   0  0  0  0  0  0  0  0  0  0  0  0
    7.1619  -18.9913   21.5796 C   0  0  2  0  0  0  0  0  0  0  0  0
    5.8811  -18.8093   22.2387 N   0  0  0  0  0  0  0  0  0  0  0  0
    7.9139  -17.7391   21.4537 C   0  0  0  0  0  0  0  0  0  0  0  0
    9.0431  -17.6382   20.9029 O   0  0  0  0  0  0  0  0  0  0  0  0
    7.0130  -14.1210   22.0090 C   0  0  0  0  0  0  0  0  0  0  0  0
    7.9923  -15.2624   21.8903 C   0  0  2  0  0  0  0  0  0  0  0  0
    7.3428  -16.5506   21.9843 N   0  0  0  0  0  0  0  0  0  0  0  0
    9.0097  -15.1365   22.9582 C   0  0  0  0  0  0  0  0  0  0  0  0
   10.1030  -14.5383   22.7780 O   0  0  0  0  0  0  0  0  0  0  0  0
    8.7967  -15.6906   24.2495 N   0  0  0  0  0  0  0  0  0  0  0  0
    9.8074  -15.6576   25.2883 C   0  0  1  0  0  0  0  0  0  0  0  0
    9.8637  -14.3035   25.9643 C   0  0  0  0  0  0  0  0  0  0  0  0
    8.5552  -13.6526   26.0397 C   0  0  0  0  0  0  0  0  0  0  0  0
    7.3606  -14.3408   26.0637 C   0  0  0  0  0  0  0  0  0  0  0  0
    6.1432  -13.6918   26.1378 C   0  0  0  0  0  0  0  0  0  0  0  0
    6.0880  -12.3354   26.1898 C   0  0  0  0  0  0  0  0  0  0  0  0
    7.2701  -11.6179   26.1674 C   0  0  0  0  0  0  0  0  0  0  0  0
    8.4918  -12.2781   26.0927 C   0  0  0  0  0  0  0  0  0  0  0  0
    9.5013  -16.6687   26.3300 C   0  0  0  0  0  0  0  0  0  0  0  0
   10.2962  -16.9160   27.4158 O   0  0  0  0  0  0  0  0  0  0  0  0
    8.4356  -17.3591   26.2221 O   0  0  0  0  0  0  0  0  0  0  0  0
  1  2  1  0
  2  3  2  0
  4  5  1  0
  4  2  1  0
  5  7  1  0
  5  6  1  6
  7  8  2  0
 10  9  1  1
 11 10  1  0
 11  7  1  0
 12 10  1  0
 13 12  2  0
 14 12  1  0
 15 14  1  0
 15 23  1  0
 15 16  1  1
 17 16  1  0
 18 17  2  0
 19 18  1  0
 20 21  1  0
 20 19  2  0
 21 22  2  0
 22 17  1  0
 23 24  1  0
 25 23  2  0
M  END
$$$$
