NAF.pdb
     RDKit          3D

 25 25  0  0  1  0  0  0  0  0999 V2000
    8.4697  -13.9033   17.9483 N   0  0  0  0  0  0  0  0  0  0  0  0
    8.6277  -12.9410   18.9724 C   0  0  0  0  0  0  0  0  0  0  0  0
    9.0966  -11.8099   18.6922 O   0  0  0  0  0  0  0  0  0  0  0  0
    8.2214  -13.3291   20.3547 C   0  0  0  0  0  0  0  0  0  0  0  0
    7.7433  -14.7663   20.2701 C   0  0  2  0  0  0  0  0  0  0  0  0
    6.4735  -14.7550   19.5661 N   0  0  0  0  0  0  0  0  0  0  0  0
    7.6346  -15.3289   21.6195 C   0  0  0  0  0  0  0  0  0  0  0  0
    6.7069  -15.0627   22.4301 O   0  0  0  0  0  0  0  0  0  0  0  0
    9.0377  -18.4139   23.1123 C   0  0  0  0  0  0  0  0  0  0  0  0
    8.5148  -17.0081   23.2737 C   0  0  2  0  0  0  0  0  0  0  0  0
    8.6364  -16.2376   22.0564 N   0  0  0  0  0  0  0  0  0  0  0  0
    9.2599  -16.3400   24.3646 C   0  0  0  0  0  0  0  0  0  0  0  0
   10.3657  -15.7693   24.1721 O   0  0  0  0  0  0  0  0  0  0  0  0
    8.7558  -16.3117   25.6931 N   0  0  0  0  0  0  0  0  0  0  0  0
    9.4765  -15.6910   26.7872 C   0  0  1  0  0  0  0  0  0  0  0  0
    8.5415  -14.9386   27.7110 C   0  0  0  0  0  0  0  0  0  0  0  0
    7.7594  -13.9156   27.0158 C   0  0  0  0  0  0  0  0  0  0  0  0
    6.4808  -14.1227   26.5429 C   0  0  0  0  0  0  0  0  0  0  0  0
    5.7713  -13.1314   25.8927 C   0  0  0  0  0  0  0  0  0  0  0  0
    6.3224  -11.9050   25.6979 C   0  0  0  0  0  0  0  0  0  0  0  0
    7.6036  -11.6677   26.1614 C   0  0  0  0  0  0  0  0  0  0  0  0
    8.3117  -12.6703   26.8150 C   0  0  0  0  0  0  0  0  0  0  0  0
   10.1699  -16.7257   27.5933 C   0  0  0  0  0  0  0  0  0  0  0  0
   10.0603  -18.0714   27.3718 O   0  0  0  0  0  0  0  0  0  0  0  0
   10.9182  -16.3555   28.5561 O   0  0  0  0  0  0  0  0  0  0  0  0
  1  2  1  0
  2  3  2  0
  4  5  1  0
  4  2  1  0
  5  7  1  0
  5  6  1  1
  7  8  2  0
 10  9  1  6
 11 10  1  0
 11  7  1  0
 12 10  1  0
 13 12  2  0
 14 12  1  0
 15 14  1  0
 15 23  1  0
 15 16  1  1
 17 16  1  0
 18 17  2  0
 19 18  1  0
 20 21  1  0
 20 19  2  0
 21 22  2  0
 22 17  1  0
 23 24  1  0
 25 23  2  0
M  END
$$$$
