NAF.pdb
     RDKit          3D

 25 25  0  0  1  0  0  0  0  0999 V2000
    8.2219  -20.5209   19.3377 N   0  0  0  0  0  0  0  0  0  0  0  0
    7.6967  -19.6306   18.3726 C   0  0  0  0  0  0  0  0  0  0  0  0
    7.2461  -20.0847   17.2917 O   0  0  0  0  0  0  0  0  0  0  0  0
    7.7068  -18.1743   18.6973 C   0  0  0  0  0  0  0  0  0  0  0  0
    8.2972  -18.0526   20.0893 C   0  0  2  0  0  0  0  0  0  0  0  0
    7.2558  -18.4235   21.0307 N   0  0  0  0  0  0  0  0  0  0  0  0
    8.7859  -16.6864   20.2988 C   0  0  0  0  0  0  0  0  0  0  0  0
    9.9519  -16.2961   20.0216 O   0  0  0  0  0  0  0  0  0  0  0  0
    7.1610  -13.3949   21.0453 C   0  0  0  0  0  0  0  0  0  0  0  0
    8.3010  -14.3754   21.1678 C   0  0  2  0  0  0  0  0  0  0  0  0
    7.8950  -15.7264   20.8511 N   0  0  0  0  0  0  0  0  0  0  0  0
    8.8334  -14.3241   22.5481 C   0  0  0  0  0  0  0  0  0  0  0  0
    9.3742  -13.2904   23.0221 O   0  0  0  0  0  0  0  0  0  0  0  0
    8.7575  -15.4511   23.4108 N   0  0  0  0  0  0  0  0  0  0  0  0
    9.2232  -15.4149   24.7832 C   0  0  1  0  0  0  0  0  0  0  0  0
    8.0669  -15.4156   25.7612 C   0  0  0  0  0  0  0  0  0  0  0  0
    7.5602  -14.0716   26.0411 C   0  0  0  0  0  0  0  0  0  0  0  0
    8.3583  -13.0257   26.4541 C   0  0  0  0  0  0  0  0  0  0  0  0
    7.8445  -11.7683   26.7068 C   0  0  0  0  0  0  0  0  0  0  0  0
    6.5171  -11.5231   26.5531 C   0  0  0  0  0  0  0  0  0  0  0  0
    5.6916  -12.5529   26.1399 C   0  0  0  0  0  0  0  0  0  0  0  0
    6.2159  -13.8160   25.8874 C   0  0  0  0  0  0  0  0  0  0  0  0
   10.0569  -16.6080   25.0705 C   0  0  0  0  0  0  0  0  0  0  0  0
   10.7600  -16.7911   26.2298 O   0  0  0  0  0  0  0  0  0  0  0  0
   10.1343  -17.5294   24.1935 O   0  0  0  0  0  0  0  0  0  0  0  0
  1  2  1  0
  2  3  2  0
  4  5  1  0
  4  2  1  0
  5  7  1  0
  5  6  1  1
  7  8  2  0
 10  9  1  1
 11 10  1  0
 11  7  1  0
 12 10  1  0
 13 12  2  0
 14 12  1  0
 15 14  1  0
 15 23  1  0
 15 16  1  1
 17 16  1  0
 18 17  2  0
 19 18  1  0
 20 21  1  0
 20 19  2  0
 21 22  2  0
 22 17  1  0
 23 24  1  0
 25 23  2  0
M  END
$$$$
