NAF.pdb
     RDKit          3D

 25 25  0  0  1  0  0  0  0  0999 V2000
    5.7166  -20.1360   18.1435 N   0  0  0  0  0  0  0  0  0  0  0  0
    6.8872  -19.9448   18.9135 C   0  0  0  0  0  0  0  0  0  0  0  0
    7.4477  -20.9356   19.4444 O   0  0  0  0  0  0  0  0  0  0  0  0
    7.4016  -18.5514   19.0556 C   0  0  0  0  0  0  0  0  0  0  0  0
    7.8166  -18.3966   20.5064 C   0  0  2  0  0  0  0  0  0  0  0  0
    6.6158  -18.5273   21.3121 N   0  0  0  0  0  0  0  0  0  0  0  0
    8.4823  -17.1038   20.6925 C   0  0  0  0  0  0  0  0  0  0  0  0
    9.6958  -16.8831   20.4332 O   0  0  0  0  0  0  0  0  0  0  0  0
    7.2441  -13.6117   21.2473 C   0  0  0  0  0  0  0  0  0  0  0  0
    8.2780  -14.6990   21.4040 C   0  0  2  0  0  0  0  0  0  0  0  0
    7.7195  -16.0167   21.1990 N   0  0  0  0  0  0  0  0  0  0  0  0
    8.8669  -14.6111   22.7593 C   0  0  0  0  0  0  0  0  0  0  0  0
    9.5603  -13.6270   23.1285 O   0  0  0  0  0  0  0  0  0  0  0  0
    8.6744  -15.6443   23.7161 N   0  0  0  0  0  0  0  0  0  0  0  0
    9.2294  -15.5812   25.0539 C   0  0  1  0  0  0  0  0  0  0  0  0
    8.1402  -15.4966   26.1026 C   0  0  0  0  0  0  0  0  0  0  0  0
    7.5922  -14.1470   26.2433 C   0  0  0  0  0  0  0  0  0  0  0  0
    6.2658  -13.8359   26.0306 C   0  0  0  0  0  0  0  0  0  0  0  0
    5.7833  -12.5494   26.1754 C   0  0  0  0  0  0  0  0  0  0  0  0
    6.6156  -11.5384   26.5372 C   0  0  0  0  0  0  0  0  0  0  0  0
    7.9515  -11.8202   26.7575 C   0  0  0  0  0  0  0  0  0  0  0  0
    8.4300  -13.1175   26.6098 C   0  0  0  0  0  0  0  0  0  0  0  0
   10.0292  -16.7994   25.3323 C   0  0  0  0  0  0  0  0  0  0  0  0
   10.1950  -17.8274   24.4448 O   0  0  0  0  0  0  0  0  0  0  0  0
   10.6042  -16.9118   26.4640 O   0  0  0  0  0  0  0  0  0  0  0  0
  1  2  1  0
  2  3  2  0
  4  5  1  0
  4  2  1  0
  5  7  1  0
  5  6  1  1
  7  8  2  0
 10  9  1  1
 11 10  1  0
 11  7  1  0
 12 10  1  0
 13 12  2  0
 14 12  1  0
 15 14  1  0
 15 23  1  0
 15 16  1  1
 17 16  1  0
 18 17  2  0
 19 18  1  0
 20 21  1  0
 20 19  2  0
 21 22  2  0
 22 17  1  0
 23 24  1  0
 25 23  2  0
M  END
$$$$
