FWL.pdb
     RDKit          3D

 34 36  0  0  1  0  0  0  0  0999 V2000
    6.5988  -17.8223   21.9137 N   0  0  0  0  0  0  0  0  0  0  0  0
    7.3008  -16.6126   21.5927 C   0  0  1  0  0  0  0  0  0  0  0  0
    6.2920  -15.5989   21.0972 C   0  0  0  0  0  0  0  0  0  0  0  0
    6.9460  -14.3571   20.6401 C   0  0  0  0  0  0  0  0  0  0  0  0
    7.0268  -13.2600   21.4507 C   0  0  0  0  0  0  0  0  0  0  0  0
    7.6390  -12.1058   21.0144 C   0  0  0  0  0  0  0  0  0  0  0  0
    8.1842  -12.0282   19.7525 C   0  0  0  0  0  0  0  0  0  0  0  0
    8.0986  -13.1385   18.9413 C   0  0  0  0  0  0  0  0  0  0  0  0
    7.4858  -14.2970   19.3753 C   0  0  0  0  0  0  0  0  0  0  0  0
    7.9256  -16.0005   22.8060 C   0  0  0  0  0  0  0  0  0  0  0  0
    7.4241  -15.0252   23.3997 O   0  0  0  0  0  0  0  0  0  0  0  0
    9.1256  -16.5587   23.2838 N   0  0  0  0  0  0  0  0  0  0  0  0
    9.8395  -15.9852   24.4426 C   0  0  1  0  0  0  0  0  0  0  0  0
    8.9511  -16.2992   25.6264 C   0  0  0  0  0  0  0  0  0  0  0  0
    7.8071  -15.4093   25.7960 C   0  0  0  0  0  0  0  0  0  0  0  0
    6.4613  -15.7788   25.7341 C   0  0  0  0  0  0  0  0  0  0  0  0
    5.7046  -14.6894   25.9239 N   0  0  0  0  0  0  0  0  0  0  0  0
    6.4916  -13.6093   26.1097 C   0  0  0  0  0  0  0  0  0  0  0  0
    6.1533  -12.2947   26.3380 C   0  0  0  0  0  0  0  0  0  0  0  0
    7.1833  -11.3873   26.4935 C   0  0  0  0  0  0  0  0  0  0  0  0
    8.4914  -11.8246   26.4158 C   0  0  0  0  0  0  0  0  0  0  0  0
    8.8378  -13.1346   26.1884 C   0  0  0  0  0  0  0  0  0  0  0  0
    7.8005  -14.0479   26.0318 C   0  0  0  0  0  0  0  0  0  0  0  0
   11.1319  -16.7269   24.5756 C   0  0  0  0  0  0  0  0  0  0  0  0
   11.8601  -16.4687   25.5677 O   0  0  0  0  0  0  0  0  0  0  0  0
   12.7941  -18.8388   20.6307 C   0  0  0  0  0  0  0  0  0  0  0  0
   13.2068  -17.5741   21.3209 C   0  0  2  0  0  0  0  0  0  0  0  0
   14.3432  -16.9629   20.4590 C   0  0  0  0  0  0  0  0  0  0  0  0
   13.7583  -17.6700   22.6772 C   0  0  0  0  0  0  0  0  0  0  0  0
   12.9363  -18.2111   23.7699 C   0  0  2  0  0  0  0  0  0  0  0  0
   11.5591  -17.6899   23.6489 N   0  0  0  0  0  0  0  0  0  0  0  0
   13.3450  -18.0976   25.1543 C   0  0  0  0  0  0  0  0  0  0  0  0
   13.7800  -16.9492   25.7628 O   0  0  0  0  0  0  0  0  0  0  0  0
   13.3190  -19.1232   25.8928 O   0  0  0  0  0  0  0  0  0  0  0  0
  2  1  1  1
  3  2  1  0
  4  3  1  0
  4  5  2  0
  6  5  1  0
  7  6  2  0
  8  9  2  0
  8  7  1  0
  9  4  1  0
 10 11  2  0
 10  2  1  0
 12 10  1  0
 13 12  1  0
 13 14  1  1
 15 23  1  0
 15 14  1  0
 16 15  2  0
 17 16  1  0
 17 18  1  0
 18 23  2  0
 19 18  1  0
 19 20  2  0
 20 21  1  0
 21 22  2  0
 23 22  1  0
 24 25  2  0
 24 13  1  0
 27 26  1  6
 27 28  1  0
 27 29  1  0
 30 29  1  6
 30 31  1  0
 31 24  1  0
 32 30  1  0
 33 32  1  0
 34 32  2  0
M  END
$$$$
