FWL.pdb
     RDKit          3D

 34 36  0  0  1  0  0  0  0  0999 V2000
    5.3678  -16.4894   24.5605 N   0  0  0  0  0  0  0  0  0  0  0  0
    6.7157  -15.9979   24.5869 C   0  0  1  0  0  0  0  0  0  0  0  0
    6.8686  -15.1048   25.7993 C   0  0  0  0  0  0  0  0  0  0  0  0
    6.6631  -13.6833   25.4591 C   0  0  0  0  0  0  0  0  0  0  0  0
    7.3343  -13.0996   24.4218 C   0  0  0  0  0  0  0  0  0  0  0  0
    7.1355  -11.7721   24.1127 C   0  0  0  0  0  0  0  0  0  0  0  0
    6.2568  -11.0007   24.8398 C   0  0  0  0  0  0  0  0  0  0  0  0
    5.5840  -11.5965   25.8841 C   0  0  0  0  0  0  0  0  0  0  0  0
    5.7808  -12.9268   26.1967 C   0  0  0  0  0  0  0  0  0  0  0  0
    7.7020  -17.1065   24.7752 C   0  0  0  0  0  0  0  0  0  0  0  0
    7.5367  -18.0173   25.6107 O   0  0  0  0  0  0  0  0  0  0  0  0
    8.8561  -17.1074   23.9702 N   0  0  0  0  0  0  0  0  0  0  0  0
    9.9574  -18.0653   24.1960 C   0  0  1  0  0  0  0  0  0  0  0  0
   10.7314  -18.0638   22.8959 C   0  0  0  0  0  0  0  0  0  0  0  0
   11.7336  -19.1169   22.7701 C   0  0  0  0  0  0  0  0  0  0  0  0
   11.4862  -20.4917   22.7665 C   0  0  0  0  0  0  0  0  0  0  0  0
   12.6523  -21.1408   22.6469 N   0  0  0  0  0  0  0  0  0  0  0  0
   13.6666  -20.2542   22.5707 C   0  0  0  0  0  0  0  0  0  0  0  0
   15.0207  -20.4651   22.4421 C   0  0  0  0  0  0  0  0  0  0  0  0
   15.8386  -19.3532   22.3882 C   0  0  0  0  0  0  0  0  0  0  0  0
   15.2778  -18.0930   22.4638 C   0  0  0  0  0  0  0  0  0  0  0  0
   13.9275  -17.8735   22.5921 C   0  0  0  0  0  0  0  0  0  0  0  0
   13.1043  -18.9932   22.6465 C   0  0  0  0  0  0  0  0  0  0  0  0
   10.8122  -17.5050   25.2885 C   0  0  0  0  0  0  0  0  0  0  0  0
   11.5034  -16.4863   25.0321 O   0  0  0  0  0  0  0  0  0  0  0  0
   11.2022  -14.3055   27.4293 C   0  0  0  0  0  0  0  0  0  0  0  0
   10.4761  -15.4964   27.9775 C   0  0  2  0  0  0  0  0  0  0  0  0
    9.6854  -14.9891   29.2125 C   0  0  0  0  0  0  0  0  0  0  0  0
   11.2688  -16.6310   28.4644 C   0  0  0  0  0  0  0  0  0  0  0  0
   11.8976  -17.5545   27.5082 C   0  0  2  0  0  0  0  0  0  0  0  0
   10.8719  -18.0632   26.5744 N   0  0  0  0  0  0  0  0  0  0  0  0
   12.7030  -18.6730   27.9517 C   0  0  0  0  0  0  0  0  0  0  0  0
   13.9493  -18.5811   28.5145 O   0  0  0  0  0  0  0  0  0  0  0  0
   12.2562  -19.8480   27.8186 O   0  0  0  0  0  0  0  0  0  0  0  0
  2  1  1  1
  3  2  1  0
  4  3  1  0
  4  5  2  0
  6  5  1  0
  7  6  2  0
  8  9  2  0
  8  7  1  0
  9  4  1  0
 10 11  2  0
 10  2  1  0
 12 10  1  0
 13 12  1  0
 13 14  1  6
 15 23  1  0
 15 14  1  0
 16 15  2  0
 17 16  1  0
 17 18  1  0
 18 23  2  0
 19 18  1  0
 19 20  2  0
 20 21  1  0
 21 22  2  0
 23 22  1  0
 24 25  2  0
 24 13  1  0
 27 26  1  1
 27 28  1  0
 27 29  1  0
 30 29  1  1
 30 31  1  0
 31 24  1  0
 32 30  1  0
 33 32  1  0
 34 32  2  0
M  END
$$$$
