FWL.pdb
     RDKit          3D

 34 36  0  0  1  0  0  0  0  0999 V2000
    7.8100  -17.3499   18.9751 N   0  0  0  0  0  0  0  0  0  0  0  0
    9.0075  -16.9819   19.6749 C   0  0  1  0  0  0  0  0  0  0  0  0
    9.7986  -16.0397   18.7933 C   0  0  0  0  0  0  0  0  0  0  0  0
    9.1823  -14.6997   18.7360 C   0  0  0  0  0  0  0  0  0  0  0  0
    8.3269  -14.3566   17.7271 C   0  0  0  0  0  0  0  0  0  0  0  0
    7.7573  -13.1033   17.6827 C   0  0  0  0  0  0  0  0  0  0  0  0
    8.0348  -12.1657   18.6521 C   0  0  0  0  0  0  0  0  0  0  0  0
    8.8982  -12.5192   19.6659 C   0  0  0  0  0  0  0  0  0  0  0  0
    9.4709  -13.7745   19.7135 C   0  0  0  0  0  0  0  0  0  0  0  0
    8.7026  -16.2100   20.9193 C   0  0  0  0  0  0  0  0  0  0  0  0
    7.8691  -15.2829   20.9467 O   0  0  0  0  0  0  0  0  0  0  0  0
    9.3913  -16.5560   22.0965 N   0  0  0  0  0  0  0  0  0  0  0  0
    9.0692  -15.9301   23.3949 C   0  0  1  0  0  0  0  0  0  0  0  0
    7.6879  -16.4478   23.7311 C   0  0  0  0  0  0  0  0  0  0  0  0
    7.0312  -15.7802   24.8502 C   0  0  0  0  0  0  0  0  0  0  0  0
    6.3655  -16.4072   25.9062 C   0  0  0  0  0  0  0  0  0  0  0  0
    5.8812  -15.4684   26.7305 N   0  0  0  0  0  0  0  0  0  0  0  0
    6.1972  -14.2414   26.2666 C   0  0  0  0  0  0  0  0  0  0  0  0
    5.9105  -12.9978   26.7821 C   0  0  0  0  0  0  0  0  0  0  0  0
    6.3671  -11.8960   26.0849 C   0  0  0  0  0  0  0  0  0  0  0  0
    7.0817  -12.0793   24.9170 C   0  0  0  0  0  0  0  0  0  0  0  0
    7.3722  -13.3169   24.3955 C   0  0  0  0  0  0  0  0  0  0  0  0
    6.9123  -14.4260   25.0977 C   0  0  0  0  0  0  0  0  0  0  0  0
   10.0557  -16.4505   24.3921 C   0  0  0  0  0  0  0  0  0  0  0  0
    9.9472  -17.6487   24.7579 O   0  0  0  0  0  0  0  0  0  0  0  0
    9.2592  -13.6808   29.0532 C   0  0  0  0  0  0  0  0  0  0  0  0
   10.2329  -14.6594   28.4700 C   0  0  2  0  0  0  0  0  0  0  0  0
   11.6212  -14.2879   29.0551 C   0  0  0  0  0  0  0  0  0  0  0  0
   10.4173  -14.6738   27.0145 C   0  0  0  0  0  0  0  0  0  0  0  0
   11.2875  -15.6828   26.3922 C   0  0  2  0  0  0  0  0  0  0  0  0
   11.0867  -15.6647   24.9286 N   0  0  0  0  0  0  0  0  0  0  0  0
   11.2863  -17.0617   26.8340 C   0  0  0  0  0  0  0  0  0  0  0  0
   10.2303  -17.9290   26.7285 O   0  0  0  0  0  0  0  0  0  0  0  0
   12.3251  -17.5392   27.3732 O   0  0  0  0  0  0  0  0  0  0  0  0
  2  1  1  6
  3  2  1  0
  4  3  1  0
  4  5  2  0
  6  5  1  0
  7  6  2  0
  8  9  2  0
  8  7  1  0
  9  4  1  0
 10 11  2  0
 10  2  1  0
 12 10  1  0
 13 12  1  0
 13 14  1  1
 15 23  1  0
 15 14  1  0
 16 15  2  0
 17 16  1  0
 17 18  1  0
 18 23  2  0
 19 18  1  0
 19 20  2  0
 20 21  1  0
 21 22  2  0
 23 22  1  0
 24 25  2  0
 24 13  1  0
 27 26  1  6
 27 28  1  0
 27 29  1  0
 30 29  1  1
 30 31  1  0
 31 24  1  0
 32 30  1  0
 33 32  1  0
 34 32  2  0
M  END
$$$$
