FWL.pdb
     RDKit          3D

 34 36  0  0  1  0  0  0  0  0999 V2000
    8.8681  -16.2123   20.1490 N   0  0  0  0  0  0  0  0  0  0  0  0
    9.2937  -14.8810   20.4738 C   0  0  1  0  0  0  0  0  0  0  0  0
    8.1636  -13.9303   20.1426 C   0  0  0  0  0  0  0  0  0  0  0  0
    7.9379  -13.8373   18.6869 C   0  0  0  0  0  0  0  0  0  0  0  0
    7.0191  -14.6318   18.0609 C   0  0  0  0  0  0  0  0  0  0  0  0
    6.8164  -14.5373   16.7018 C   0  0  0  0  0  0  0  0  0  0  0  0
    7.5330  -13.6414   15.9405 C   0  0  0  0  0  0  0  0  0  0  0  0
    8.4574  -12.8440   16.5790 C   0  0  0  0  0  0  0  0  0  0  0  0
    8.6633  -12.9360   17.9411 C   0  0  0  0  0  0  0  0  0  0  0  0
    9.5366  -14.7236   21.9413 C   0  0  0  0  0  0  0  0  0  0  0  0
   10.0503  -13.6980   22.4305 O   0  0  0  0  0  0  0  0  0  0  0  0
    9.1650  -15.7831   22.7895 N   0  0  0  0  0  0  0  0  0  0  0  0
    9.3844  -15.7207   24.2488 C   0  0  1  0  0  0  0  0  0  0  0  0
    8.1259  -16.3118   24.8453 C   0  0  0  0  0  0  0  0  0  0  0  0
    7.1649  -15.3387   25.3542 C   0  0  0  0  0  0  0  0  0  0  0  0
    5.9142  -15.6284   25.9049 C   0  0  0  0  0  0  0  0  0  0  0  0
    5.3148  -14.4793   26.2452 N   0  0  0  0  0  0  0  0  0  0  0  0
    6.1155  -13.4359   25.9434 C   0  0  0  0  0  0  0  0  0  0  0  0
    5.9139  -12.0851   26.1151 C   0  0  0  0  0  0  0  0  0  0  0  0
    6.9212  -11.2317   25.7084 C   0  0  0  0  0  0  0  0  0  0  0  0
    8.0731  -11.7557   25.1543 C   0  0  0  0  0  0  0  0  0  0  0  0
    8.2824  -13.1023   24.9794 C   0  0  0  0  0  0  0  0  0  0  0  0
    7.2680  -13.9613   25.3890 C   0  0  0  0  0  0  0  0  0  0  0  0
   10.5494  -16.6070   24.5578 C   0  0  0  0  0  0  0  0  0  0  0  0
   10.5935  -17.7360   24.0060 O   0  0  0  0  0  0  0  0  0  0  0  0
   10.1202  -15.1532   29.8991 C   0  0  0  0  0  0  0  0  0  0  0  0
   10.9653  -15.2274   28.6637 C   0  0  2  0  0  0  0  0  0  0  0  0
   10.8942  -13.8233   28.0071 C   0  0  0  0  0  0  0  0  0  0  0  0
   10.5736  -16.1687   27.6085 C   0  0  0  0  0  0  0  0  0  0  0  0
   11.6021  -16.8200   26.7836 C   0  0  2  0  0  0  0  0  0  0  0  0
   11.5845  -16.2328   25.4279 N   0  0  0  0  0  0  0  0  0  0  0  0
   11.6704  -18.2604   26.6539 C   0  0  0  0  0  0  0  0  0  0  0  0
   10.6040  -19.0886   26.4188 O   0  0  0  0  0  0  0  0  0  0  0  0
   12.7884  -18.8393   26.7682 O   0  0  0  0  0  0  0  0  0  0  0  0
  2  1  1  1
  3  2  1  0
  4  3  1  0
  4  5  2  0
  6  5  1  0
  7  6  2  0
  8  9  2  0
  8  7  1  0
  9  4  1  0
 10 11  2  0
 10  2  1  0
 12 10  1  0
 13 12  1  0
 13 14  1  1
 15 23  1  0
 15 14  1  0
 16 15  2  0
 17 16  1  0
 17 18  1  0
 18 23  2  0
 19 18  1  0
 19 20  2  0
 20 21  1  0
 21 22  2  0
 23 22  1  0
 24 25  2  0
 24 13  1  0
 27 26  1  1
 27 28  1  0
 27 29  1  0
 30 29  1  6
 30 31  1  0
 31 24  1  0
 32 30  1  0
 33 32  1  0
 34 32  2  0
M  END
$$$$
