FWL.pdb
     RDKit          3D

 34 36  0  0  1  0  0  0  0  0999 V2000
    5.4125  -17.3988   22.0830 N   0  0  0  0  0  0  0  0  0  0  0  0
    6.4242  -16.5174   21.5744 C   0  0  1  0  0  0  0  0  0  0  0  0
    5.7371  -15.3444   20.9091 C   0  0  0  0  0  0  0  0  0  0  0  0
    6.6957  -14.4957   20.1746 C   0  0  0  0  0  0  0  0  0  0  0  0
    6.3619  -13.2316   19.7773 C   0  0  0  0  0  0  0  0  0  0  0  0
    7.2637  -12.4478   19.0920 C   0  0  0  0  0  0  0  0  0  0  0  0
    8.5225  -12.9171   18.7904 C   0  0  0  0  0  0  0  0  0  0  0  0
    8.8514  -14.1925   19.1944 C   0  0  0  0  0  0  0  0  0  0  0  0
    7.9500  -14.9809   19.8814 C   0  0  0  0  0  0  0  0  0  0  0  0
    7.2477  -15.9307   22.6767 C   0  0  0  0  0  0  0  0  0  0  0  0
    6.9098  -14.8995   23.2911 O   0  0  0  0  0  0  0  0  0  0  0  0
    8.4474  -16.5799   23.0220 N   0  0  0  0  0  0  0  0  0  0  0  0
    9.4845  -15.9108   23.8335 C   0  0  1  0  0  0  0  0  0  0  0  0
    9.1263  -16.2556   25.2625 C   0  0  0  0  0  0  0  0  0  0  0  0
    8.0115  -15.4982   25.8219 C   0  0  0  0  0  0  0  0  0  0  0  0
    6.7020  -15.9580   25.9804 C   0  0  0  0  0  0  0  0  0  0  0  0
    5.9606  -14.9771   26.5129 N   0  0  0  0  0  0  0  0  0  0  0  0
    6.7230  -13.8825   26.7155 C   0  0  0  0  0  0  0  0  0  0  0  0
    6.3885  -12.6531   27.2365 C   0  0  0  0  0  0  0  0  0  0  0  0
    7.3884  -11.7043   27.3287 C   0  0  0  0  0  0  0  0  0  0  0  0
    8.6643  -12.0184   26.9025 C   0  0  0  0  0  0  0  0  0  0  0  0
    9.0068  -13.2427   26.3814 C   0  0  0  0  0  0  0  0  0  0  0  0
    7.9998  -14.1978   26.2886 C   0  0  0  0  0  0  0  0  0  0  0  0
   10.7950  -16.5399   23.4798 C   0  0  0  0  0  0  0  0  0  0  0  0
   10.8794  -17.7935   23.5300 O   0  0  0  0  0  0  0  0  0  0  0  0
   13.8776  -13.6657   20.1090 C   0  0  0  0  0  0  0  0  0  0  0  0
   14.1800  -14.6449   21.2026 C   0  0  2  0  0  0  0  0  0  0  0  0
   15.6662  -15.0514   21.0193 C   0  0  0  0  0  0  0  0  0  0  0  0
   13.4337  -15.9079   21.2314 C   0  0  0  0  0  0  0  0  0  0  0  0
   13.0716  -16.5202   22.5184 C   0  0  2  0  0  0  0  0  0  0  0  0
   11.9211  -15.7958   23.0970 N   0  0  0  0  0  0  0  0  0  0  0  0
   14.0523  -16.7243   23.5638 C   0  0  0  0  0  0  0  0  0  0  0  0
   15.1469  -17.5446   23.4773 O   0  0  0  0  0  0  0  0  0  0  0  0
   13.9177  -16.1182   24.6649 O   0  0  0  0  0  0  0  0  0  0  0  0
  2  1  1  1
  3  2  1  0
  4  3  1  0
  4  5  2  0
  6  5  1  0
  7  6  2  0
  8  9  2  0
  8  7  1  0
  9  4  1  0
 10 11  2  0
 10  2  1  0
 12 10  1  0
 13 12  1  0
 13 14  1  1
 15 23  1  0
 15 14  1  0
 16 15  2  0
 17 16  1  0
 17 18  1  0
 18 23  2  0
 19 18  1  0
 19 20  2  0
 20 21  1  0
 21 22  2  0
 23 22  1  0
 24 25  2  0
 24 13  1  0
 27 26  1  6
 27 28  1  0
 27 29  1  0
 30 29  1  6
 30 31  1  0
 31 24  1  0
 32 30  1  0
 33 32  1  0
 34 32  2  0
M  END
$$$$
