FWL.pdb
     RDKit          3D

 34 36  0  0  1  0  0  0  0  0999 V2000
    9.7654  -17.9671   19.8146 N   0  0  0  0  0  0  0  0  0  0  0  0
    9.6026  -16.5466   19.9352 C   0  0  1  0  0  0  0  0  0  0  0  0
    8.6532  -16.0866   18.8498 C   0  0  0  0  0  0  0  0  0  0  0  0
    8.3792  -14.6392   18.9422 C   0  0  0  0  0  0  0  0  0  0  0  0
    9.0176  -13.8553   19.8615 C   0  0  0  0  0  0  0  0  0  0  0  0
    8.7544  -12.5055   19.9397 C   0  0  0  0  0  0  0  0  0  0  0  0
    7.8430  -11.9127   19.0950 C   0  0  0  0  0  0  0  0  0  0  0  0
    7.2035  -12.7098   18.1709 C   0  0  0  0  0  0  0  0  0  0  0  0
    7.4648  -14.0630   18.0898 C   0  0  0  0  0  0  0  0  0  0  0  0
    8.9479  -16.1755   21.2279 C   0  0  0  0  0  0  0  0  0  0  0  0
    7.8449  -15.5962   21.2797 O   0  0  0  0  0  0  0  0  0  0  0  0
    9.6156  -16.5000   22.4233 N   0  0  0  0  0  0  0  0  0  0  0  0
    9.2282  -15.8978   23.7151 C   0  0  1  0  0  0  0  0  0  0  0  0
    7.8501  -16.4566   23.9938 C   0  0  0  0  0  0  0  0  0  0  0  0
    6.9830  -15.5975   24.7934 C   0  0  0  0  0  0  0  0  0  0  0  0
    5.7628  -15.9646   25.3658 C   0  0  0  0  0  0  0  0  0  0  0  0
    5.2527  -14.9075   26.0120 N   0  0  0  0  0  0  0  0  0  0  0  0
    6.0835  -13.8509   25.8933 C   0  0  0  0  0  0  0  0  0  0  0  0
    5.9679  -12.5721   26.3892 C   0  0  0  0  0  0  0  0  0  0  0  0
    6.9866  -11.6826   26.1073 C   0  0  0  0  0  0  0  0  0  0  0  0
    8.0646  -12.1015   25.3518 C   0  0  0  0  0  0  0  0  0  0  0  0
    8.1879  -13.3759   24.8531 C   0  0  0  0  0  0  0  0  0  0  0  0
    7.1621  -14.2712   25.1370 C   0  0  0  0  0  0  0  0  0  0  0  0
   10.1908  -16.4026   24.7432 C   0  0  0  0  0  0  0  0  0  0  0  0
   11.1276  -17.1475   24.3577 O   0  0  0  0  0  0  0  0  0  0  0  0
   11.2430  -13.3064   27.7238 C   0  0  0  0  0  0  0  0  0  0  0  0
   10.4846  -14.4736   28.2793 C   0  0  2  0  0  0  0  0  0  0  0  0
   10.2464  -14.1589   29.7800 C   0  0  0  0  0  0  0  0  0  0  0  0
   11.1253  -15.7934   28.2573 C   0  0  0  0  0  0  0  0  0  0  0  0
   11.1391  -16.5849   27.0181 C   0  0  2  0  0  0  0  0  0  0  0  0
   10.0925  -16.0805   26.1052 N   0  0  0  0  0  0  0  0  0  0  0  0
   11.0640  -18.0307   27.0406 C   0  0  0  0  0  0  0  0  0  0  0  0
   10.0479  -18.7821   26.5100 O   0  0  0  0  0  0  0  0  0  0  0  0
   11.9906  -18.6895   27.5932 O   0  0  0  0  0  0  0  0  0  0  0  0
  2  1  1  1
  3  2  1  0
  4  3  1  0
  4  5  2  0
  6  5  1  0
  7  6  2  0
  8  9  2  0
  8  7  1  0
  9  4  1  0
 10 11  2  0
 10  2  1  0
 12 10  1  0
 13 12  1  0
 13 14  1  1
 15 23  1  0
 15 14  1  0
 16 15  2  0
 17 16  1  0
 17 18  1  0
 18 23  2  0
 19 18  1  0
 19 20  2  0
 20 21  1  0
 21 22  2  0
 23 22  1  0
 24 25  2  0
 24 13  1  0
 27 26  1  1
 27 28  1  0
 27 29  1  0
 30 29  1  1
 30 31  1  0
 31 24  1  0
 32 30  1  0
 33 32  1  0
 34 32  2  0
M  END
$$$$
