FWL.pdb
     RDKit          3D

 34 36  0  0  1  0  0  0  0  0999 V2000
    8.4729  -18.1278   19.0764 N   0  0  0  0  0  0  0  0  0  0  0  0
    9.1291  -16.9084   19.4524 C   0  0  1  0  0  0  0  0  0  0  0  0
    8.7551  -15.8415   18.4461 C   0  0  0  0  0  0  0  0  0  0  0  0
    9.2487  -14.5112   18.8525 C   0  0  0  0  0  0  0  0  0  0  0  0
    8.3840  -13.4933   19.1413 C   0  0  0  0  0  0  0  0  0  0  0  0
    8.8550  -12.2554   19.5194 C   0  0  0  0  0  0  0  0  0  0  0  0
   10.2068  -12.0124   19.6159 C   0  0  0  0  0  0  0  0  0  0  0  0
   11.0721  -13.0437   19.3231 C   0  0  0  0  0  0  0  0  0  0  0  0
   10.6036  -14.2857   18.9438 C   0  0  0  0  0  0  0  0  0  0  0  0
    8.6409  -16.4056   20.7739 C   0  0  0  0  0  0  0  0  0  0  0  0
    7.5273  -15.8627   20.9157 O   0  0  0  0  0  0  0  0  0  0  0  0
    9.4828  -16.5593   21.8909 N   0  0  0  0  0  0  0  0  0  0  0  0
    9.1465  -15.9676   23.2017 C   0  0  1  0  0  0  0  0  0  0  0  0
    7.7833  -16.5342   23.5330 C   0  0  0  0  0  0  0  0  0  0  0  0
    7.0334  -15.7945   24.5428 C   0  0  0  0  0  0  0  0  0  0  0  0
    6.0519  -16.3193   25.3870 C   0  0  0  0  0  0  0  0  0  0  0  0
    5.5806  -15.3362   26.1660 N   0  0  0  0  0  0  0  0  0  0  0  0
    6.2083  -14.1778   25.8750 C   0  0  0  0  0  0  0  0  0  0  0  0
    6.0491  -12.9227   26.4174 C   0  0  0  0  0  0  0  0  0  0  0  0
    6.8392  -11.9055   25.9179 C   0  0  0  0  0  0  0  0  0  0  0  0
    7.7437  -12.1802   24.9106 C   0  0  0  0  0  0  0  0  0  0  0  0
    7.9090  -13.4297   24.3636 C   0  0  0  0  0  0  0  0  0  0  0  0
    7.1133  -14.4536   24.8668 C   0  0  0  0  0  0  0  0  0  0  0  0
   10.1526  -16.4752   24.1858 C   0  0  0  0  0  0  0  0  0  0  0  0
   10.4449  -17.6977   24.1520 O   0  0  0  0  0  0  0  0  0  0  0  0
   11.4827  -12.8351   27.6552 C   0  0  0  0  0  0  0  0  0  0  0  0
   11.0190  -14.2588   27.5920 C   0  0  2  0  0  0  0  0  0  0  0  0
   10.6018  -14.6415   29.0367 C   0  0  0  0  0  0  0  0  0  0  0  0
   11.9827  -15.2866   27.1820 C   0  0  0  0  0  0  0  0  0  0  0  0
   11.6049  -16.2913   26.1769 C   0  0  2  0  0  0  0  0  0  0  0  0
   10.7777  -15.6509   25.1336 N   0  0  0  0  0  0  0  0  0  0  0  0
   10.9760  -17.5403   26.5522 C   0  0  0  0  0  0  0  0  0  0  0  0
   11.6162  -18.6165   27.1095 O   0  0  0  0  0  0  0  0  0  0  0  0
    9.7359  -17.6910   26.3586 O   0  0  0  0  0  0  0  0  0  0  0  0
  2  1  1  6
  3  2  1  0
  4  3  1  0
  4  5  2  0
  6  5  1  0
  7  6  2  0
  8  9  2  0
  8  7  1  0
  9  4  1  0
 10 11  2  0
 10  2  1  0
 12 10  1  0
 13 12  1  0
 13 14  1  1
 15 23  1  0
 15 14  1  0
 16 15  2  0
 17 16  1  0
 17 18  1  0
 18 23  2  0
 19 18  1  0
 19 20  2  0
 20 21  1  0
 21 22  2  0
 23 22  1  0
 24 25  2  0
 24 13  1  0
 27 26  1  1
 27 28  1  0
 27 29  1  0
 30 29  1  1
 30 31  1  0
 31 24  1  0
 32 30  1  0
 33 32  1  0
 34 32  2  0
M  END
$$$$
