FWL.pdb
     RDKit          3D

 34 36  0  0  1  0  0  0  0  0999 V2000
   11.4625  -17.0661   18.6725 N   0  0  0  0  0  0  0  0  0  0  0  0
   11.3177  -17.6316   19.9834 C   0  0  1  0  0  0  0  0  0  0  0  0
   12.6898  -18.0379   20.4762 C   0  0  0  0  0  0  0  0  0  0  0  0
   13.2155  -19.1985   19.7310 C   0  0  0  0  0  0  0  0  0  0  0  0
   14.3193  -19.0865   18.9334 C   0  0  0  0  0  0  0  0  0  0  0  0
   14.8017  -20.1757   18.2419 C   0  0  0  0  0  0  0  0  0  0  0  0
   14.1851  -21.4032   18.3366 C   0  0  0  0  0  0  0  0  0  0  0  0
   13.0728  -21.5079   19.1429 C   0  0  0  0  0  0  0  0  0  0  0  0
   12.5866  -20.4183   19.8373 C   0  0  0  0  0  0  0  0  0  0  0  0
   10.8186  -16.6209   20.9666 C   0  0  0  0  0  0  0  0  0  0  0  0
   11.2186  -15.4398   20.9767 O   0  0  0  0  0  0  0  0  0  0  0  0
    9.8602  -17.0347   21.9100 N   0  0  0  0  0  0  0  0  0  0  0  0
    9.2487  -16.0844   22.8612 C   0  0  1  0  0  0  0  0  0  0  0  0
    7.7898  -16.4826   22.9072 C   0  0  0  0  0  0  0  0  0  0  0  0
    7.0147  -15.8733   23.9830 C   0  0  0  0  0  0  0  0  0  0  0  0
    6.0497  -16.5123   24.7653 C   0  0  0  0  0  0  0  0  0  0  0  0
    5.5455  -15.6287   25.6373 N   0  0  0  0  0  0  0  0  0  0  0  0
    6.1353  -14.4271   25.4677 C   0  0  0  0  0  0  0  0  0  0  0  0
    5.9345  -13.2391   26.1333 C   0  0  0  0  0  0  0  0  0  0  0  0
    6.6916  -12.1516   25.7427 C   0  0  0  0  0  0  0  0  0  0  0  0
    7.6059  -12.2936   24.7170 C   0  0  0  0  0  0  0  0  0  0  0  0
    7.8128  -13.4755   24.0475 C   0  0  0  0  0  0  0  0  0  0  0  0
    7.0503  -14.5702   24.4410 C   0  0  0  0  0  0  0  0  0  0  0  0
    9.8775  -16.3306   24.1962 C   0  0  0  0  0  0  0  0  0  0  0  0
   10.1839  -17.5133   24.4940 O   0  0  0  0  0  0  0  0  0  0  0  0
    9.5377  -14.0995   29.7975 C   0  0  0  0  0  0  0  0  0  0  0  0
   10.4962  -14.7513   28.8476 C   0  0  2  0  0  0  0  0  0  0  0  0
   11.8818  -14.1099   29.1245 C   0  0  0  0  0  0  0  0  0  0  0  0
   10.2718  -14.5819   27.4075 C   0  0  0  0  0  0  0  0  0  0  0  0
   10.5624  -15.6869   26.4818 C   0  0  2  0  0  0  0  0  0  0  0  0
   10.1379  -15.3062   25.1188 N   0  0  0  0  0  0  0  0  0  0  0  0
   10.1015  -17.0347   26.7413 C   0  0  0  0  0  0  0  0  0  0  0  0
   10.8592  -18.0448   27.2744 O   0  0  0  0  0  0  0  0  0  0  0  0
    8.9091  -17.3457   26.4593 O   0  0  0  0  0  0  0  0  0  0  0  0
  2  1  1  6
  3  2  1  0
  4  3  1  0
  4  5  2  0
  6  5  1  0
  7  6  2  0
  8  9  2  0
  8  7  1  0
  9  4  1  0
 10 11  2  0
 10  2  1  0
 12 10  1  0
 13 12  1  0
 13 14  1  1
 15 23  1  0
 15 14  1  0
 16 15  2  0
 17 16  1  0
 17 18  1  0
 18 23  2  0
 19 18  1  0
 19 20  2  0
 20 21  1  0
 21 22  2  0
 23 22  1  0
 24 25  2  0
 24 13  1  0
 27 26  1  1
 27 28  1  0
 27 29  1  0
 30 29  1  1
 30 31  1  0
 31 24  1  0
 32 30  1  0
 33 32  1  0
 34 32  2  0
M  END
$$$$
