FWL.pdb
     RDKit          3D

 34 36  0  0  1  0  0  0  0  0999 V2000
    8.9132  -17.1603   20.0764 N   0  0  0  0  0  0  0  0  0  0  0  0
   10.0998  -16.4385   20.4369 C   0  0  1  0  0  0  0  0  0  0  0  0
   10.2562  -15.2784   19.4775 C   0  0  0  0  0  0  0  0  0  0  0  0
    9.1054  -14.3565   19.5442 C   0  0  0  0  0  0  0  0  0  0  0  0
    9.2851  -13.0032   19.6043 C   0  0  0  0  0  0  0  0  0  0  0  0
    8.2044  -12.1515   19.6666 C   0  0  0  0  0  0  0  0  0  0  0  0
    6.9175  -12.6411   19.6698 C   0  0  0  0  0  0  0  0  0  0  0  0
    6.7446  -14.0066   19.6089 C   0  0  0  0  0  0  0  0  0  0  0  0
    7.8256  -14.8632   19.5464 C   0  0  0  0  0  0  0  0  0  0  0  0
    9.9794  -15.8251   21.7958 C   0  0  0  0  0  0  0  0  0  0  0  0
   10.3246  -14.6510   22.0352 O   0  0  0  0  0  0  0  0  0  0  0  0
    9.4537  -16.6169   22.8334 N   0  0  0  0  0  0  0  0  0  0  0  0
    9.2210  -16.0681   24.1848 C   0  0  1  0  0  0  0  0  0  0  0  0
    7.8911  -16.6538   24.6061 C   0  0  0  0  0  0  0  0  0  0  0  0
    6.9648  -15.7090   25.2213 C   0  0  0  0  0  0  0  0  0  0  0  0
    5.6619  -15.9889   25.6405 C   0  0  0  0  0  0  0  0  0  0  0  0
    5.1191  -14.8708   26.1413 N   0  0  0  0  0  0  0  0  0  0  0  0
    6.0074  -13.8575   26.0727 C   0  0  0  0  0  0  0  0  0  0  0  0
    5.8859  -12.5439   26.4657 C   0  0  0  0  0  0  0  0  0  0  0  0
    6.9745  -11.7156   26.2725 C   0  0  0  0  0  0  0  0  0  0  0  0
    8.1243  -12.2266   25.7024 C   0  0  0  0  0  0  0  0  0  0  0  0
    8.2540  -13.5362   25.3073 C   0  0  0  0  0  0  0  0  0  0  0  0
    7.1579  -14.3699   25.5019 C   0  0  0  0  0  0  0  0  0  0  0  0
   10.3048  -16.5990   25.0690 C   0  0  0  0  0  0  0  0  0  0  0  0
   11.1108  -17.4304   24.5786 O   0  0  0  0  0  0  0  0  0  0  0  0
   10.9028  -14.0264   29.6218 C   0  0  0  0  0  0  0  0  0  0  0  0
   11.5112  -14.6381   28.3964 C   0  0  2  0  0  0  0  0  0  0  0  0
   10.4837  -14.4272   27.2529 C   0  0  0  0  0  0  0  0  0  0  0  0
   11.7919  -16.0782   28.4040 C   0  0  0  0  0  0  0  0  0  0  0  0
   11.4844  -16.8948   27.2204 C   0  0  2  0  0  0  0  0  0  0  0  0
   10.4577  -16.2098   26.4082 N   0  0  0  0  0  0  0  0  0  0  0  0
   11.1153  -18.2901   27.3366 C   0  0  0  0  0  0  0  0  0  0  0  0
   11.9439  -19.2992   27.7533 O   0  0  0  0  0  0  0  0  0  0  0  0
    9.9419  -18.6470   27.0305 O   0  0  0  0  0  0  0  0  0  0  0  0
  2  1  1  6
  3  2  1  0
  4  3  1  0
  4  5  2  0
  6  5  1  0
  7  6  2  0
  8  9  2  0
  8  7  1  0
  9  4  1  0
 10 11  2  0
 10  2  1  0
 12 10  1  0
 13 12  1  0
 13 14  1  1
 15 23  1  0
 15 14  1  0
 16 15  2  0
 17 16  1  0
 17 18  1  0
 18 23  2  0
 19 18  1  0
 19 20  2  0
 20 21  1  0
 21 22  2  0
 23 22  1  0
 24 25  2  0
 24 13  1  0
 27 26  1  1
 27 28  1  0
 27 29  1  0
 30 29  1  1
 30 31  1  0
 31 24  1  0
 32 30  1  0
 33 32  1  0
 34 32  2  0
M  END
$$$$
