FWL.pdb
     RDKit          3D

 34 36  0  0  1  0  0  0  0  0999 V2000
   10.2567  -16.9807   18.8585 N   0  0  0  0  0  0  0  0  0  0  0  0
   10.0181  -17.6350   20.1131 C   0  0  1  0  0  0  0  0  0  0  0  0
   11.1982  -18.5360   20.4074 C   0  0  0  0  0  0  0  0  0  0  0  0
   11.0259  -19.8737   19.8079 C   0  0  0  0  0  0  0  0  0  0  0  0
   10.2517  -20.8250   20.4105 C   0  0  0  0  0  0  0  0  0  0  0  0
   10.0977  -22.0705   19.8429 C   0  0  0  0  0  0  0  0  0  0  0  0
   10.7189  -22.3884   18.6560 C   0  0  0  0  0  0  0  0  0  0  0  0
   11.4977  -21.4240   18.0547 C   0  0  0  0  0  0  0  0  0  0  0  0
   11.6543  -20.1746   18.6208 C   0  0  0  0  0  0  0  0  0  0  0  0
    9.9659  -16.6563   21.2430 C   0  0  0  0  0  0  0  0  0  0  0  0
   10.7259  -15.6702   21.3125 O   0  0  0  0  0  0  0  0  0  0  0  0
    9.0162  -16.8707   22.2590 N   0  0  0  0  0  0  0  0  0  0  0  0
    8.8950  -15.9554   23.4119 C   0  0  1  0  0  0  0  0  0  0  0  0
    7.4222  -15.9770   23.7577 C   0  0  0  0  0  0  0  0  0  0  0  0
    7.0717  -15.3276   25.0166 C   0  0  0  0  0  0  0  0  0  0  0  0
    6.4205  -15.9266   26.0976 C   0  0  0  0  0  0  0  0  0  0  0  0
    6.2597  -15.0139   27.0654 N   0  0  0  0  0  0  0  0  0  0  0  0
    6.7773  -13.8312   26.6729 C   0  0  0  0  0  0  0  0  0  0  0  0
    6.8365  -12.6259   27.3350 C   0  0  0  0  0  0  0  0  0  0  0  0
    7.4338  -11.5658   26.6809 C   0  0  0  0  0  0  0  0  0  0  0  0
    7.9407  -11.7508   25.4093 C   0  0  0  0  0  0  0  0  0  0  0  0
    7.8858  -12.9502   24.7412 C   0  0  0  0  0  0  0  0  0  0  0  0
    7.2843  -14.0173   25.4000 C   0  0  0  0  0  0  0  0  0  0  0  0
    9.6821  -16.5539   24.5346 C   0  0  0  0  0  0  0  0  0  0  0  0
    9.5861  -17.7929   24.7265 O   0  0  0  0  0  0  0  0  0  0  0  0
   13.7909  -17.8343   24.7309 C   0  0  0  0  0  0  0  0  0  0  0  0
   13.4561  -16.4077   25.0452 C   0  0  2  0  0  0  0  0  0  0  0  0
   14.8124  -15.6699   25.1994 C   0  0  0  0  0  0  0  0  0  0  0  0
   12.7174  -16.1225   26.2805 C   0  0  0  0  0  0  0  0  0  0  0  0
   11.3036  -16.5090   26.3991 C   0  0  2  0  0  0  0  0  0  0  0  0
   10.5152  -15.7970   25.3722 N   0  0  0  0  0  0  0  0  0  0  0  0
   10.5957  -16.4186   27.6589 C   0  0  0  0  0  0  0  0  0  0  0  0
    9.4378  -15.7166   27.8712 O   0  0  0  0  0  0  0  0  0  0  0  0
   11.0571  -17.0177   28.6719 O   0  0  0  0  0  0  0  0  0  0  0  0
  2  1  1  6
  3  2  1  0
  4  3  1  0
  4  5  2  0
  6  5  1  0
  7  6  2  0
  8  9  2  0
  8  7  1  0
  9  4  1  0
 10 11  2  0
 10  2  1  0
 12 10  1  0
 13 12  1  0
 13 14  1  1
 15 23  1  0
 15 14  1  0
 16 15  2  0
 17 16  1  0
 17 18  1  0
 18 23  2  0
 19 18  1  0
 19 20  2  0
 20 21  1  0
 21 22  2  0
 23 22  1  0
 24 25  2  0
 24 13  1  0
 27 26  1  1
 27 28  1  0
 27 29  1  0
 30 29  1  1
 30 31  1  0
 31 24  1  0
 32 30  1  0
 33 32  1  0
 34 32  2  0
M  END
$$$$
