FWL.pdb
     RDKit          3D

 34 36  0  0  1  0  0  0  0  0999 V2000
    7.8904  -18.2018   21.2020 N   0  0  0  0  0  0  0  0  0  0  0  0
    8.2689  -16.8206   21.1121 C   0  0  1  0  0  0  0  0  0  0  0  0
    7.0184  -16.0035   20.8684 C   0  0  0  0  0  0  0  0  0  0  0  0
    7.3389  -14.6007   20.5398 C   0  0  0  0  0  0  0  0  0  0  0  0
    8.6200  -14.1312   20.6143 C   0  0  0  0  0  0  0  0  0  0  0  0
    8.9084  -12.8202   20.3058 C   0  0  0  0  0  0  0  0  0  0  0  0
    7.9149  -11.9506   19.9153 C   0  0  0  0  0  0  0  0  0  0  0  0
    6.6259  -12.4315   19.8427 C   0  0  0  0  0  0  0  0  0  0  0  0
    6.3332  -13.7450   20.1511 C   0  0  0  0  0  0  0  0  0  0  0  0
    8.8331  -16.3195   22.4036 C   0  0  0  0  0  0  0  0  0  0  0  0
    9.2755  -15.1614   22.5384 O   0  0  0  0  0  0  0  0  0  0  0  0
    8.8582  -17.2015   23.4997 N   0  0  0  0  0  0  0  0  0  0  0  0
    9.4297  -16.8029   24.8020 C   0  0  1  0  0  0  0  0  0  0  0  0
    8.2556  -16.8374   25.7557 C   0  0  0  0  0  0  0  0  0  0  0  0
    7.4026  -15.6537   25.7317 C   0  0  0  0  0  0  0  0  0  0  0  0
    6.0574  -15.6166   25.3569 C   0  0  0  0  0  0  0  0  0  0  0  0
    5.6173  -14.3544   25.4491 N   0  0  0  0  0  0  0  0  0  0  0  0
    6.6148  -13.5490   25.8702 C   0  0  0  0  0  0  0  0  0  0  0  0
    6.6199  -12.1927   26.1048 C   0  0  0  0  0  0  0  0  0  0  0  0
    7.8018  -11.6233   26.5377 C   0  0  0  0  0  0  0  0  0  0  0  0
    8.9150  -12.4215   26.7161 C   0  0  0  0  0  0  0  0  0  0  0  0
    8.9186  -13.7758   26.4843 C   0  0  0  0  0  0  0  0  0  0  0  0
    7.7285  -14.3488   26.0484 C   0  0  0  0  0  0  0  0  0  0  0  0
   10.4207  -17.8546   25.1892 C   0  0  0  0  0  0  0  0  0  0  0  0
   10.0549  -19.0566   25.1371 O   0  0  0  0  0  0  0  0  0  0  0  0
   14.2737  -19.0756   23.3834 C   0  0  0  0  0  0  0  0  0  0  0  0
   14.4108  -18.0265   24.4447 C   0  0  2  0  0  0  0  0  0  0  0  0
   15.9274  -17.7164   24.5518 C   0  0  0  0  0  0  0  0  0  0  0  0
   13.9859  -18.3578   25.8094 C   0  0  0  0  0  0  0  0  0  0  0  0
   12.5752  -18.6667   26.0870 C   0  0  2  0  0  0  0  0  0  0  0  0
   11.7282  -17.5574   25.6022 N   0  0  0  0  0  0  0  0  0  0  0  0
   12.1262  -19.0350   27.4133 C   0  0  0  0  0  0  0  0  0  0  0  0
   11.2820  -18.2958   28.2004 O   0  0  0  0  0  0  0  0  0  0  0  0
   12.5308  -20.1180   27.9246 O   0  0  0  0  0  0  0  0  0  0  0  0
  2  1  1  1
  3  2  1  0
  4  3  1  0
  4  5  2  0
  6  5  1  0
  7  6  2  0
  8  9  2  0
  8  7  1  0
  9  4  1  0
 10 11  2  0
 10  2  1  0
 12 10  1  0
 13 12  1  0
 13 14  1  1
 15 23  1  0
 15 14  1  0
 16 15  2  0
 17 16  1  0
 17 18  1  0
 18 23  2  0
 19 18  1  0
 19 20  2  0
 20 21  1  0
 21 22  2  0
 23 22  1  0
 24 25  2  0
 24 13  1  0
 27 26  1  6
 27 28  1  0
 27 29  1  0
 30 29  1  1
 30 31  1  0
 31 24  1  0
 32 30  1  0
 33 32  1  0
 34 32  2  0
M  END
$$$$
