FWL.pdb
     RDKit          3D

 34 36  0  0  1  0  0  0  0  0999 V2000
    9.1305  -17.9052   19.1922 N   0  0  0  0  0  0  0  0  0  0  0  0
    8.9450  -18.3725   20.5362 C   0  0  1  0  0  0  0  0  0  0  0  0
    9.8756  -19.5448   20.7609 C   0  0  0  0  0  0  0  0  0  0  0  0
    9.4101  -20.7541   20.0540 C   0  0  0  0  0  0  0  0  0  0  0  0
   10.0820  -21.2423   18.9689 C   0  0  0  0  0  0  0  0  0  0  0  0
    9.6391  -22.3714   18.3160 C   0  0  0  0  0  0  0  0  0  0  0  0
    8.5099  -23.0359   18.7395 C   0  0  0  0  0  0  0  0  0  0  0  0
    7.8382  -22.5374   19.8342 C   0  0  0  0  0  0  0  0  0  0  0  0
    8.2793  -21.4060   20.4910 C   0  0  0  0  0  0  0  0  0  0  0  0
    9.3488  -17.3387   21.5390 C   0  0  0  0  0  0  0  0  0  0  0  0
   10.2622  -16.5171   21.3253 O   0  0  0  0  0  0  0  0  0  0  0  0
    8.6612  -17.3049   22.7661 N   0  0  0  0  0  0  0  0  0  0  0  0
    8.8896  -16.2299   23.7529 C   0  0  1  0  0  0  0  0  0  0  0  0
    7.5714  -16.1031   24.4847 C   0  0  0  0  0  0  0  0  0  0  0  0
    7.3778  -14.8456   25.1993 C   0  0  0  0  0  0  0  0  0  0  0  0
    6.4127  -13.8770   24.9131 C   0  0  0  0  0  0  0  0  0  0  0  0
    6.5532  -12.8591   25.7730 N   0  0  0  0  0  0  0  0  0  0  0  0
    7.5727  -13.1102   26.6205 C   0  0  0  0  0  0  0  0  0  0  0  0
    8.0714  -12.3532   27.6563 C   0  0  0  0  0  0  0  0  0  0  0  0
    9.1390  -12.8666   28.3670 C   0  0  0  0  0  0  0  0  0  0  0  0
    9.6576  -14.0986   28.0185 C   0  0  0  0  0  0  0  0  0  0  0  0
    9.1659  -14.8607   26.9862 C   0  0  0  0  0  0  0  0  0  0  0  0
    8.0911  -14.3434   26.2708 C   0  0  0  0  0  0  0  0  0  0  0  0
    9.9427  -16.7154   24.6981 C   0  0  0  0  0  0  0  0  0  0  0  0
    9.8327  -17.8822   25.1538 O   0  0  0  0  0  0  0  0  0  0  0  0
   14.0946  -17.4196   23.4188 C   0  0  0  0  0  0  0  0  0  0  0  0
   13.8194  -16.0764   24.0239 C   0  0  2  0  0  0  0  0  0  0  0  0
   15.1530  -15.2868   23.9469 C   0  0  0  0  0  0  0  0  0  0  0  0
   13.4155  -16.0178   25.4332 C   0  0  0  0  0  0  0  0  0  0  0  0
   12.1234  -16.5806   25.8530 C   0  0  2  0  0  0  0  0  0  0  0  0
   11.0372  -15.9305   25.0911 N   0  0  0  0  0  0  0  0  0  0  0  0
   11.7344  -16.6296   27.2468 C   0  0  0  0  0  0  0  0  0  0  0  0
   10.5757  -16.1144   27.7670 O   0  0  0  0  0  0  0  0  0  0  0  0
   12.5049  -17.1788   28.0850 O   0  0  0  0  0  0  0  0  0  0  0  0
  2  1  1  6
  3  2  1  0
  4  3  1  0
  4  5  2  0
  6  5  1  0
  7  6  2  0
  8  9  2  0
  8  7  1  0
  9  4  1  0
 10 11  2  0
 10  2  1  0
 12 10  1  0
 13 12  1  0
 13 14  1  1
 15 23  1  0
 15 14  1  0
 16 15  2  0
 17 16  1  0
 17 18  1  0
 18 23  2  0
 19 18  1  0
 19 20  2  0
 20 21  1  0
 21 22  2  0
 23 22  1  0
 24 25  2  0
 24 13  1  0
 27 26  1  1
 27 28  1  0
 27 29  1  0
 30 29  1  1
 30 31  1  0
 31 24  1  0
 32 30  1  0
 33 32  1  0
 34 32  2  0
M  END
$$$$
