FWL.pdb
     RDKit          3D

 34 36  0  0  1  0  0  0  0  0999 V2000
    9.4001  -19.2784   18.3943 N   0  0  0  0  0  0  0  0  0  0  0  0
    9.8318  -19.3944   19.7578 C   0  0  1  0  0  0  0  0  0  0  0  0
   10.8062  -20.5491   19.8477 C   0  0  0  0  0  0  0  0  0  0  0  0
   10.1598  -21.8351   19.5205 C   0  0  0  0  0  0  0  0  0  0  0  0
   10.5123  -22.5406   18.4046 C   0  0  0  0  0  0  0  0  0  0  0  0
    9.9027  -23.7397   18.1080 C   0  0  0  0  0  0  0  0  0  0  0  0
    8.9242  -24.2571   18.9270 C   0  0  0  0  0  0  0  0  0  0  0  0
    8.5745  -23.5398   20.0500 C   0  0  0  0  0  0  0  0  0  0  0  0
    9.1834  -22.3377   20.3504 C   0  0  0  0  0  0  0  0  0  0  0  0
   10.5960  -18.1862   20.1978 C   0  0  0  0  0  0  0  0  0  0  0  0
   11.4863  -17.6636   19.4983 O   0  0  0  0  0  0  0  0  0  0  0  0
   10.2859  -17.6294   21.4523 N   0  0  0  0  0  0  0  0  0  0  0  0
   10.9345  -16.3923   21.9325 C   0  0  1  0  0  0  0  0  0  0  0  0
    9.9083  -15.7583   22.8458 C   0  0  0  0  0  0  0  0  0  0  0  0
    8.7120  -15.2547   22.1788 C   0  0  0  0  0  0  0  0  0  0  0  0
    7.4065  -15.7105   22.3767 C   0  0  0  0  0  0  0  0  0  0  0  0
    6.5813  -15.0186   21.5794 N   0  0  0  0  0  0  0  0  0  0  0  0
    7.2842  -14.1204   20.8583 C   0  0  0  0  0  0  0  0  0  0  0  0
    6.8572  -13.2061   19.9221 C   0  0  0  0  0  0  0  0  0  0  0  0
    7.8127  -12.4007   19.3331 C   0  0  0  0  0  0  0  0  0  0  0  0
    9.1376  -12.5398   19.6986 C   0  0  0  0  0  0  0  0  0  0  0  0
    9.5722  -13.4497   20.6320 C   0  0  0  0  0  0  0  0  0  0  0  0
    8.6100  -14.2604   21.2248 C   0  0  0  0  0  0  0  0  0  0  0  0
   12.1305  -16.8031   22.7318 C   0  0  0  0  0  0  0  0  0  0  0  0
   11.9713  -17.6728   23.6259 O   0  0  0  0  0  0  0  0  0  0  0  0
   15.2312  -19.9059   24.0378 C   0  0  0  0  0  0  0  0  0  0  0  0
   14.8469  -19.3057   22.7194 C   0  0  2  0  0  0  0  0  0  0  0  0
   15.6271  -20.1008   21.6393 C   0  0  0  0  0  0  0  0  0  0  0  0
   15.1742  -17.8965   22.4749 C   0  0  0  0  0  0  0  0  0  0  0  0
   14.5398  -16.8425   23.2806 C   0  0  2  0  0  0  0  0  0  0  0  0
   13.4094  -16.2643   22.5251 N   0  0  0  0  0  0  0  0  0  0  0  0
   15.3094  -15.7558   23.8492 C   0  0  0  0  0  0  0  0  0  0  0  0
   15.0408  -14.4217   23.6866 O   0  0  0  0  0  0  0  0  0  0  0  0
   16.3248  -16.0199   24.5543 O   0  0  0  0  0  0  0  0  0  0  0  0
  2  1  1  6
  3  2  1  0
  4  3  1  0
  4  5  2  0
  6  5  1  0
  7  6  2  0
  8  9  2  0
  8  7  1  0
  9  4  1  0
 10 11  2  0
 10  2  1  0
 12 10  1  0
 13 12  1  0
 13 14  1  1
 15 23  1  0
 15 14  1  0
 16 15  2  0
 17 16  1  0
 17 18  1  0
 18 23  2  0
 19 18  1  0
 19 20  2  0
 20 21  1  0
 21 22  2  0
 23 22  1  0
 24 25  2  0
 24 13  1  0
 27 26  1  1
 27 28  1  0
 27 29  1  0
 30 29  1  6
 30 31  1  0
 31 24  1  0
 32 30  1  0
 33 32  1  0
 34 32  2  0
M  END
$$$$
