FWL.pdb
     RDKit          3D

 34 36  0  0  1  0  0  0  0  0999 V2000
    9.7518  -18.6237   19.2629 N   0  0  0  0  0  0  0  0  0  0  0  0
    9.1068  -18.7332   20.5400 C   0  0  1  0  0  0  0  0  0  0  0  0
    9.6066  -19.9925   21.2147 C   0  0  0  0  0  0  0  0  0  0  0  0
    9.1819  -21.2055   20.4889 C   0  0  0  0  0  0  0  0  0  0  0  0
   10.0846  -21.9808   19.8171 C   0  0  0  0  0  0  0  0  0  0  0  0
    9.6778  -23.1108   19.1427 C   0  0  0  0  0  0  0  0  0  0  0  0
    8.3535  -23.4875   19.1282 C   0  0  0  0  0  0  0  0  0  0  0  0
    7.4497  -22.7006   19.8079 C   0  0  0  0  0  0  0  0  0  0  0  0
    7.8538  -21.5673   20.4850 C   0  0  0  0  0  0  0  0  0  0  0  0
    9.4908  -17.6088   21.4487 C   0  0  0  0  0  0  0  0  0  0  0  0
   10.6369  -17.1176   21.4615 O   0  0  0  0  0  0  0  0  0  0  0  0
    8.5088  -17.0964   22.3165 N   0  0  0  0  0  0  0  0  0  0  0  0
    8.7862  -15.9557   23.2129 C   0  0  1  0  0  0  0  0  0  0  0  0
    7.4409  -15.2904   23.4044 C   0  0  0  0  0  0  0  0  0  0  0  0
    7.4603  -14.0730   24.2088 C   0  0  0  0  0  0  0  0  0  0  0  0
    7.4977  -12.7648   23.7203 C   0  0  0  0  0  0  0  0  0  0  0  0
    7.5201  -11.9164   24.7572 N   0  0  0  0  0  0  0  0  0  0  0  0
    7.4992  -12.6064   25.9166 C   0  0  0  0  0  0  0  0  0  0  0  0
    7.5100  -12.1552   27.2170 C   0  0  0  0  0  0  0  0  0  0  0  0
    7.4821  -13.1022   28.2224 C   0  0  0  0  0  0  0  0  0  0  0  0
    7.4449  -14.4430   27.8920 C   0  0  0  0  0  0  0  0  0  0  0  0
    7.4338  -14.9018   26.5969 C   0  0  0  0  0  0  0  0  0  0  0  0
    7.4620  -13.9482   25.5849 C   0  0  0  0  0  0  0  0  0  0  0  0
    9.2547  -16.5225   24.5158 C   0  0  0  0  0  0  0  0  0  0  0  0
    9.0476  -17.7431   24.7358 O   0  0  0  0  0  0  0  0  0  0  0  0
   14.3183  -17.8531   25.0980 C   0  0  0  0  0  0  0  0  0  0  0  0
   13.0604  -17.8182   25.9119 C   0  0  2  0  0  0  0  0  0  0  0  0
   12.5956  -19.2920   26.0518 C   0  0  0  0  0  0  0  0  0  0  0  0
   11.9025  -17.0965   25.3721 C   0  0  0  0  0  0  0  0  0  0  0  0
   10.9800  -16.3995   26.2809 C   0  0  2  0  0  0  0  0  0  0  0  0
    9.9102  -15.7558   25.4910 N   0  0  0  0  0  0  0  0  0  0  0  0
   11.4568  -15.4467   27.2614 C   0  0  0  0  0  0  0  0  0  0  0  0
   11.6790  -15.7145   28.5871 O   0  0  0  0  0  0  0  0  0  0  0  0
   11.6919  -14.2571   26.9043 O   0  0  0  0  0  0  0  0  0  0  0  0
  2  1  1  6
  3  2  1  0
  4  3  1  0
  4  5  2  0
  6  5  1  0
  7  6  2  0
  8  9  2  0
  8  7  1  0
  9  4  1  0
 10 11  2  0
 10  2  1  0
 12 10  1  0
 13 12  1  0
 13 14  1  1
 15 23  1  0
 15 14  1  0
 16 15  2  0
 17 16  1  0
 17 18  1  0
 18 23  2  0
 19 18  1  0
 19 20  2  0
 20 21  1  0
 21 22  2  0
 23 22  1  0
 24 25  2  0
 24 13  1  0
 27 26  1  6
 27 28  1  0
 27 29  1  0
 30 29  1  6
 30 31  1  0
 31 24  1  0
 32 30  1  0
 33 32  1  0
 34 32  2  0
M  END
$$$$
