FWL.pdb
     RDKit          3D

 34 36  0  0  1  0  0  0  0  0999 V2000
   10.1612  -18.2100   19.7021 N   0  0  0  0  0  0  0  0  0  0  0  0
   10.9104  -17.0322   20.0347 C   0  0  1  0  0  0  0  0  0  0  0  0
   10.9304  -16.1275   18.8214 C   0  0  0  0  0  0  0  0  0  0  0  0
   11.6788  -16.7323   17.7022 C   0  0  0  0  0  0  0  0  0  0  0  0
   13.0165  -16.9922   17.8038 C   0  0  0  0  0  0  0  0  0  0  0  0
   13.7058  -17.5566   16.7533 C   0  0  0  0  0  0  0  0  0  0  0  0
   13.0656  -17.8728   15.5760 C   0  0  0  0  0  0  0  0  0  0  0  0
   11.7169  -17.6078   15.4815 C   0  0  0  0  0  0  0  0  0  0  0  0
   11.0229  -17.0421   16.5324 C   0  0  0  0  0  0  0  0  0  0  0  0
   10.2433  -16.2428   21.1159 C   0  0  0  0  0  0  0  0  0  0  0  0
    9.8107  -15.0875   20.9341 O   0  0  0  0  0  0  0  0  0  0  0  0
   10.1060  -16.8415   22.3819 N   0  0  0  0  0  0  0  0  0  0  0  0
    9.5009  -16.1190   23.5191 C   0  0  1  0  0  0  0  0  0  0  0  0
    8.0594  -16.5784   23.5341 C   0  0  0  0  0  0  0  0  0  0  0  0
    7.1885  -15.8568   24.4561 C   0  0  0  0  0  0  0  0  0  0  0  0
    6.0431  -16.3649   25.0737 C   0  0  0  0  0  0  0  0  0  0  0  0
    5.5015  -15.4058   25.8367 N   0  0  0  0  0  0  0  0  0  0  0  0
    6.2396  -14.2793   25.7524 C   0  0  0  0  0  0  0  0  0  0  0  0
    6.0629  -13.0563   26.3588 C   0  0  0  0  0  0  0  0  0  0  0  0
    6.9889  -12.0680   26.0864 C   0  0  0  0  0  0  0  0  0  0  0  0
    8.0393  -12.3384   25.2309 C   0  0  0  0  0  0  0  0  0  0  0  0
    8.2231  -13.5561   24.6216 C   0  0  0  0  0  0  0  0  0  0  0  0
    7.2906  -14.5510   24.8960 C   0  0  0  0  0  0  0  0  0  0  0  0
   10.1904  -16.5925   24.7595 C   0  0  0  0  0  0  0  0  0  0  0  0
   10.3880  -17.8275   24.8889 O   0  0  0  0  0  0  0  0  0  0  0  0
    9.5026  -13.6872   29.4861 C   0  0  0  0  0  0  0  0  0  0  0  0
   10.4935  -14.3349   28.5671 C   0  0  2  0  0  0  0  0  0  0  0  0
   10.4766  -13.5023   27.2579 C   0  0  0  0  0  0  0  0  0  0  0  0
   10.2516  -15.7202   28.1484 C   0  0  0  0  0  0  0  0  0  0  0  0
   11.0462  -16.3102   27.0607 C   0  0  2  0  0  0  0  0  0  0  0  0
   10.6223  -15.7234   25.7728 N   0  0  0  0  0  0  0  0  0  0  0  0
   11.1550  -17.7442   26.8927 C   0  0  0  0  0  0  0  0  0  0  0  0
   10.6302  -18.4644   25.8513 O   0  0  0  0  0  0  0  0  0  0  0  0
   11.7718  -18.4237   27.7621 O   0  0  0  0  0  0  0  0  0  0  0  0
  2  1  1  6
  3  2  1  0
  4  3  1  0
  4  5  2  0
  6  5  1  0
  7  6  2  0
  8  9  2  0
  8  7  1  0
  9  4  1  0
 10 11  2  0
 10  2  1  0
 12 10  1  0
 13 12  1  0
 13 14  1  1
 15 23  1  0
 15 14  1  0
 16 15  2  0
 17 16  1  0
 17 18  1  0
 18 23  2  0
 19 18  1  0
 19 20  2  0
 20 21  1  0
 21 22  2  0
 23 22  1  0
 24 25  2  0
 24 13  1  0
 27 26  1  1
 27 28  1  0
 27 29  1  0
 30 29  1  1
 30 31  1  0
 31 24  1  0
 32 30  1  0
 33 32  1  0
 34 32  2  0
M  END
$$$$
