FWL.pdb
     RDKit          3D

 34 36  0  0  1  0  0  0  0  0999 V2000
    9.9412  -18.0015   20.0423 N   0  0  0  0  0  0  0  0  0  0  0  0
    9.9212  -16.5745   19.8928 C   0  0  1  0  0  0  0  0  0  0  0  0
    8.6427  -16.1927   19.1783 C   0  0  0  0  0  0  0  0  0  0  0  0
    8.4199  -14.7338   19.2010 C   0  0  0  0  0  0  0  0  0  0  0  0
    7.3526  -14.1910   19.8594 C   0  0  0  0  0  0  0  0  0  0  0  0
    7.1535  -12.8281   19.8743 C   0  0  0  0  0  0  0  0  0  0  0  0
    8.0234  -11.9793   19.2271 C   0  0  0  0  0  0  0  0  0  0  0  0
    9.0969  -12.5344   18.5656 C   0  0  0  0  0  0  0  0  0  0  0  0
    9.2995  -13.8999   18.5487 C   0  0  0  0  0  0  0  0  0  0  0  0
    9.8649  -15.8831   21.2180 C   0  0  0  0  0  0  0  0  0  0  0  0
   10.3732  -14.7611   21.4119 O   0  0  0  0  0  0  0  0  0  0  0  0
    9.2088  -16.5376   22.2769 N   0  0  0  0  0  0  0  0  0  0  0  0
    9.0002  -15.8806   23.5832 C   0  0  1  0  0  0  0  0  0  0  0  0
    7.6986  -16.4595   24.0932 C   0  0  0  0  0  0  0  0  0  0  0  0
    6.9268  -15.5779   24.9629 C   0  0  0  0  0  0  0  0  0  0  0  0
    5.9498  -15.9753   25.8788 C   0  0  0  0  0  0  0  0  0  0  0  0
    5.4534  -14.8863   26.4814 N   0  0  0  0  0  0  0  0  0  0  0  0
    6.0600  -13.7796   26.0041 C   0  0  0  0  0  0  0  0  0  0  0  0
    5.8719  -12.4554   26.3294 C   0  0  0  0  0  0  0  0  0  0  0  0
    6.6452  -11.5193   25.6705 C   0  0  0  0  0  0  0  0  0  0  0  0
    7.5624  -11.9387   24.7265 C   0  0  0  0  0  0  0  0  0  0  0  0
    7.7565  -13.2582   24.3959 C   0  0  0  0  0  0  0  0  0  0  0  0
    6.9777  -14.2005   25.0594 C   0  0  0  0  0  0  0  0  0  0  0  0
   10.1222  -16.3077   24.4758 C   0  0  0  0  0  0  0  0  0  0  0  0
   11.2950  -16.0151   24.1291 O   0  0  0  0  0  0  0  0  0  0  0  0
    9.9736  -13.4049   27.9543 C   0  0  0  0  0  0  0  0  0  0  0  0
   10.1015  -14.8978   27.9853 C   0  0  2  0  0  0  0  0  0  0  0  0
   10.4985  -15.2670   29.4392 C   0  0  0  0  0  0  0  0  0  0  0  0
   11.1184  -15.5266   27.1346 C   0  0  0  0  0  0  0  0  0  0  0  0
   10.9639  -16.9276   26.7152 C   0  0  2  0  0  0  0  0  0  0  0  0
    9.9210  -17.0126   25.6721 N   0  0  0  0  0  0  0  0  0  0  0  0
   10.7328  -17.9859   27.6760 C   0  0  0  0  0  0  0  0  0  0  0  0
    9.5987  -18.7511   27.7579 O   0  0  0  0  0  0  0  0  0  0  0  0
   11.6254  -18.2505   28.5311 O   0  0  0  0  0  0  0  0  0  0  0  0
  2  1  1  1
  3  2  1  0
  4  3  1  0
  4  5  2  0
  6  5  1  0
  7  6  2  0
  8  9  2  0
  8  7  1  0
  9  4  1  0
 10 11  2  0
 10  2  1  0
 12 10  1  0
 13 12  1  0
 13 14  1  1
 15 23  1  0
 15 14  1  0
 16 15  2  0
 17 16  1  0
 17 18  1  0
 18 23  2  0
 19 18  1  0
 19 20  2  0
 20 21  1  0
 21 22  2  0
 23 22  1  0
 24 25  2  0
 24 13  1  0
 27 26  1  1
 27 28  1  0
 27 29  1  0
 30 29  1  1
 30 31  1  0
 31 24  1  0
 32 30  1  0
 33 32  1  0
 34 32  2  0
M  END
$$$$
