NAR.pdb
     RDKit          3D

 25 24  0  0  1  0  0  0  0  0999 V2000
    7.8786  -15.3274   15.8146 N   0  0  0  0  0  0  0  0  0  0  0  0
    9.2174  -15.3527   16.2850 C   0  0  0  0  0  0  0  0  0  0  0  0
   10.1374  -15.9618   15.7000 O   0  0  0  0  0  0  0  0  0  0  0  0
    9.5348  -14.6213   17.5289 C   0  0  0  0  0  0  0  0  0  0  0  0
    8.2196  -14.0682   18.0933 C   0  0  2  0  0  0  0  0  0  0  0  0
    7.9016  -12.9131   17.2987 N   0  0  0  0  0  0  0  0  0  0  0  0
    8.5078  -13.7187   19.5077 C   0  0  0  0  0  0  0  0  0  0  0  0
    8.3810  -12.5239   19.8820 O   0  0  0  0  0  0  0  0  0  0  0  0
    6.7171  -15.2129   21.3948 C   0  0  0  0  0  0  0  0  0  0  0  0
    8.1797  -14.8627   21.6927 C   0  0  2  0  0  0  0  0  0  0  0  0
    8.9250  -14.6538   20.4901 N   0  0  0  0  0  0  0  0  0  0  0  0
    8.7259  -16.0551   22.3970 C   0  0  0  0  0  0  0  0  0  0  0  0
    7.9218  -16.8762   22.9062 O   0  0  0  0  0  0  0  0  0  0  0  0
   10.4850  -14.9748   29.9264 N   0  0  0  0  0  0  0  0  0  0  0  0
   10.5879  -16.3742   29.7595 C   0  0  0  0  0  0  0  0  0  0  0  0
   11.2692  -17.0890   30.6112 N   0  0  0  0  0  0  0  0  0  0  0  0
    9.9508  -17.0272   28.6598 N   0  0  0  0  0  0  0  0  0  0  0  0
    9.6131  -16.3471   27.4275 C   0  0  0  0  0  0  0  0  0  0  0  0
   10.2613  -16.9928   26.2299 C   0  0  0  0  0  0  0  0  0  0  0  0
    9.9463  -16.3136   24.9469 C   0  0  0  0  0  0  0  0  0  0  0  0
   10.6149  -16.9128   23.7282 C   0  0  2  0  0  0  0  0  0  0  0  0
   10.1177  -16.2964   22.5137 N   0  0  0  0  0  0  0  0  0  0  0  0
   10.4207  -18.3673   23.6010 C   0  0  0  0  0  0  0  0  0  0  0  0
   11.4758  -19.2270   23.7886 O   0  0  0  0  0  0  0  0  0  0  0  0
    9.2950  -18.8262   23.3205 O   0  0  0  0  0  0  0  0  0  0  0  0
  1  2  1  0
  2  3  2  0
  4  5  1  0
  4  2  1  0
  5  6  1  6
  7  8  2  0
  7  5  1  0
 10  9  1  6
 10 11  1  0
 11  7  1  0
 12 22  1  0
 12 10  1  0
 13 12  2  0
 15 14  1  0
 16 15  2  0
 17 15  1  0
 18 17  1  0
 19 18  1  0
 20 19  1  0
 21 20  1  1
 21 22  1  0
 23 21  1  0
 24 23  1  0
 25 23  2  0
M  END
$$$$
