NAR.pdb
     RDKit          3D

 25 24  0  0  1  0  0  0  0  0999 V2000
    5.3519  -18.4904   16.6423 N   0  0  0  0  0  0  0  0  0  0  0  0
    5.1694  -18.6864   18.0361 C   0  0  0  0  0  0  0  0  0  0  0  0
    4.3159  -19.4637   18.5123 O   0  0  0  0  0  0  0  0  0  0  0  0
    6.0338  -17.9317   18.9668 C   0  0  0  0  0  0  0  0  0  0  0  0
    6.9324  -17.0133   18.1281 C   0  0  2  0  0  0  0  0  0  0  0  0
    7.7849  -17.8827   17.3639 N   0  0  0  0  0  0  0  0  0  0  0  0
    7.6922  -16.1953   19.1075 C   0  0  0  0  0  0  0  0  0  0  0  0
    8.6883  -16.7012   19.6868 O   0  0  0  0  0  0  0  0  0  0  0  0
    7.5736  -12.7097   20.6124 C   0  0  0  0  0  0  0  0  0  0  0  0
    8.1774  -14.0940   20.3483 C   0  0  2  0  0  0  0  0  0  0  0  0
    7.3706  -14.8552   19.4456 N   0  0  0  0  0  0  0  0  0  0  0  0
    8.1857  -14.7705   21.6745 C   0  0  0  0  0  0  0  0  0  0  0  0
    7.1125  -15.2594   22.1094 O   0  0  0  0  0  0  0  0  0  0  0  0
   13.0896  -21.1311   25.0657 N   0  0  0  0  0  0  0  0  0  0  0  0
   12.2041  -20.7382   26.0946 C   0  0  0  0  0  0  0  0  0  0  0  0
   12.0740  -21.4717   27.1649 N   0  0  0  0  0  0  0  0  0  0  0  0
   11.4395  -19.5366   25.9805 N   0  0  0  0  0  0  0  0  0  0  0  0
   11.4348  -18.7155   24.7884 C   0  0  0  0  0  0  0  0  0  0  0  0
   10.4093  -17.6136   24.8655 C   0  0  0  0  0  0  0  0  0  0  0  0
   10.3387  -16.7823   23.6365 C   0  0  0  0  0  0  0  0  0  0  0  0
    9.3065  -15.6758   23.6746 C   0  0  2  0  0  0  0  0  0  0  0  0
    9.3586  -14.8820   22.4624 N   0  0  0  0  0  0  0  0  0  0  0  0
    9.4645  -14.7573   24.8153 C   0  0  0  0  0  0  0  0  0  0  0  0
    8.9684  -15.0946   26.0512 O   0  0  0  0  0  0  0  0  0  0  0  0
   10.0497  -13.6661   24.6636 O   0  0  0  0  0  0  0  0  0  0  0  0
  1  2  1  0
  2  3  2  0
  4  5  1  0
  4  2  1  0
  5  6  1  1
  7  8  2  0
  7  5  1  0
 10  9  1  1
 10 11  1  0
 11  7  1  0
 12 22  1  0
 12 10  1  0
 13 12  2  0
 15 14  1  0
 16 15  2  0
 17 15  1  0
 18 17  1  0
 19 18  1  0
 20 19  1  0
 21 20  1  6
 21 22  1  0
 23 21  1  0
 24 23  1  0
 25 23  2  0
M  END
$$$$
