NAR.pdb
     RDKit          3D

 25 24  0  0  1  0  0  0  0  0999 V2000
    9.4154  -16.9384   14.4657 N   0  0  0  0  0  0  0  0  0  0  0  0
    9.8998  -15.6060   14.3990 C   0  0  0  0  0  0  0  0  0  0  0  0
   10.4691  -15.1340   13.3927 O   0  0  0  0  0  0  0  0  0  0  0  0
    9.7200  -14.7373   15.5805 C   0  0  0  0  0  0  0  0  0  0  0  0
    9.1522  -15.6022   16.7134 C   0  0  2  0  0  0  0  0  0  0  0  0
    7.8095  -15.9358   16.3230 N   0  0  0  0  0  0  0  0  0  0  0  0
    9.1915  -14.7469   17.9268 C   0  0  0  0  0  0  0  0  0  0  0  0
   10.3064  -14.4191   18.4100 O   0  0  0  0  0  0  0  0  0  0  0  0
    6.8469  -12.8187   20.1794 C   0  0  0  0  0  0  0  0  0  0  0  0
    8.1278  -13.5986   19.8609 C   0  0  2  0  0  0  0  0  0  0  0  0
    8.0387  -14.2611   18.5967 N   0  0  0  0  0  0  0  0  0  0  0  0
    8.2325  -14.6236   20.9356 C   0  0  0  0  0  0  0  0  0  0  0  0
    7.5891  -15.6963   20.8112 O   0  0  0  0  0  0  0  0  0  0  0  0
   14.5233  -15.2425   22.5944 N   0  0  0  0  0  0  0  0  0  0  0  0
   14.4710  -15.2912   21.1832 C   0  0  0  0  0  0  0  0  0  0  0  0
   15.2598  -14.5364   20.4701 N   0  0  0  0  0  0  0  0  0  0  0  0
   13.5572  -16.1639   20.5161 N   0  0  0  0  0  0  0  0  0  0  0  0
   12.4716  -16.8377   21.1964 C   0  0  0  0  0  0  0  0  0  0  0  0
   11.4848  -15.8641   21.7881 C   0  0  0  0  0  0  0  0  0  0  0  0
   10.2739  -16.5151   22.3504 C   0  0  0  0  0  0  0  0  0  0  0  0
    9.2676  -15.5657   22.9647 C   0  0  2  0  0  0  0  0  0  0  0  0
    9.0300  -14.4328   22.0916 N   0  0  0  0  0  0  0  0  0  0  0  0
    9.6760  -15.0379   24.2778 C   0  0  0  0  0  0  0  0  0  0  0  0
    9.7988  -13.6836   24.4732 O   0  0  0  0  0  0  0  0  0  0  0  0
    9.9139  -15.8199   25.2201 O   0  0  0  0  0  0  0  0  0  0  0  0
  1  2  1  0
  2  3  2  0
  4  5  1  0
  4  2  1  0
  5  6  1  6
  7  8  2  0
  7  5  1  0
 10  9  1  1
 10 11  1  0
 11  7  1  0
 12 22  1  0
 12 10  1  0
 13 12  2  0
 15 14  1  0
 16 15  2  0
 17 15  1  0
 18 17  1  0
 19 18  1  0
 20 19  1  0
 21 20  1  6
 21 22  1  0
 23 21  1  0
 24 23  1  0
 25 23  2  0
M  END
$$$$
