NAR.pdb
     RDKit          3D

 25 24  0  0  1  0  0  0  0  0999 V2000
   13.0100  -16.9528   14.4588 N   0  0  0  0  0  0  0  0  0  0  0  0
   11.7647  -16.3910   14.8438 C   0  0  0  0  0  0  0  0  0  0  0  0
   11.2129  -15.4586   14.2228 O   0  0  0  0  0  0  0  0  0  0  0  0
   11.0907  -16.9390   16.0390 C   0  0  0  0  0  0  0  0  0  0  0  0
   11.9506  -18.0928   16.5715 C   0  0  2  0  0  0  0  0  0  0  0  0
   11.6746  -19.2185   15.7211 N   0  0  0  0  0  0  0  0  0  0  0  0
   11.4983  -18.3160   17.9684 C   0  0  0  0  0  0  0  0  0  0  0  0
   10.2707  -18.2398   18.2348 O   0  0  0  0  0  0  0  0  0  0  0  0
   12.8630  -19.8371   21.1150 C   0  0  0  0  0  0  0  0  0  0  0  0
   11.8665  -18.9655   20.3418 C   0  0  2  0  0  0  0  0  0  0  0  0
   12.3679  -18.6155   19.0490 N   0  0  0  0  0  0  0  0  0  0  0  0
   11.7254  -17.7268   21.1555 C   0  0  0  0  0  0  0  0  0  0  0  0
   12.5553  -16.7975   20.9888 O   0  0  0  0  0  0  0  0  0  0  0  0
    8.3792  -11.8877   20.3602 N   0  0  0  0  0  0  0  0  0  0  0  0
    7.7988  -12.8059   19.4563 C   0  0  0  0  0  0  0  0  0  0  0  0
    7.7515  -12.5327   18.1821 N   0  0  0  0  0  0  0  0  0  0  0  0
    7.2559  -14.0434   19.9205 N   0  0  0  0  0  0  0  0  0  0  0  0
    7.5229  -14.5757   21.2399 C   0  0  0  0  0  0  0  0  0  0  0  0
    8.9131  -15.1477   21.3476 C   0  0  0  0  0  0  0  0  0  0  0  0
    9.2256  -15.6976   22.6916 C   0  0  0  0  0  0  0  0  0  0  0  0
   10.6068  -16.3019   22.8271 C   0  0  2  0  0  0  0  0  0  0  0  0
   10.6908  -17.5590   22.1095 N   0  0  0  0  0  0  0  0  0  0  0  0
   11.0074  -16.5576   24.2213 C   0  0  0  0  0  0  0  0  0  0  0  0
   11.6661  -15.5912   24.9421 O   0  0  0  0  0  0  0  0  0  0  0  0
   10.7508  -17.6558   24.7547 O   0  0  0  0  0  0  0  0  0  0  0  0
  1  2  1  0
  2  3  2  0
  4  5  1  0
  4  2  1  0
  5  6  1  6
  7  8  2  0
  7  5  1  0
 10  9  1  1
 10 11  1  0
 11  7  1  0
 12 22  1  0
 12 10  1  0
 13 12  2  0
 15 14  1  0
 16 15  2  0
 17 15  1  0
 18 17  1  0
 19 18  1  0
 20 19  1  0
 21 20  1  1
 21 22  1  0
 23 21  1  0
 24 23  1  0
 25 23  2  0
M  END
$$$$
