NAR.pdb
     RDKit          3D

 25 24  0  0  1  0  0  0  0  0999 V2000
    9.9148  -14.2150   14.4724 N   0  0  0  0  0  0  0  0  0  0  0  0
    8.7981  -13.9807   15.3165 C   0  0  0  0  0  0  0  0  0  0  0  0
    7.6151  -14.0582   14.9242 O   0  0  0  0  0  0  0  0  0  0  0  0
    9.0516  -13.6279   16.7287 C   0  0  0  0  0  0  0  0  0  0  0  0
    9.1456  -14.9352   17.5264 C   0  0  2  0  0  0  0  0  0  0  0  0
    7.9467  -15.6698   17.2269 N   0  0  0  0  0  0  0  0  0  0  0  0
    9.2170  -14.5282   18.9529 C   0  0  0  0  0  0  0  0  0  0  0  0
   10.3221  -14.1632   19.4317 O   0  0  0  0  0  0  0  0  0  0  0  0
    6.8960  -13.8719   21.8657 C   0  0  0  0  0  0  0  0  0  0  0  0
    8.2491  -14.1930   21.2204 C   0  0  2  0  0  0  0  0  0  0  0  0
    8.1060  -14.5204   19.8357 N   0  0  0  0  0  0  0  0  0  0  0  0
    8.7495  -15.3907   21.9495 C   0  0  0  0  0  0  0  0  0  0  0  0
    7.9272  -16.2803   22.2847 O   0  0  0  0  0  0  0  0  0  0  0  0
   13.5142  -15.7046   18.5135 N   0  0  0  0  0  0  0  0  0  0  0  0
   14.5461  -15.2281   19.3531 C   0  0  0  0  0  0  0  0  0  0  0  0
   15.2794  -14.2154   18.9827 N   0  0  0  0  0  0  0  0  0  0  0  0
   14.8030  -15.8447   20.6162 N   0  0  0  0  0  0  0  0  0  0  0  0
   13.9522  -16.8712   21.1798 C   0  0  0  0  0  0  0  0  0  0  0  0
   12.7291  -16.2904   21.8420 C   0  0  0  0  0  0  0  0  0  0  0  0
   11.8074  -17.3179   22.3905 C   0  0  0  0  0  0  0  0  0  0  0  0
   10.5178  -16.7740   22.9671 C   0  0  2  0  0  0  0  0  0  0  0  0
   10.1174  -15.5625   22.2784 N   0  0  0  0  0  0  0  0  0  0  0  0
   10.5962  -16.4635   24.4049 C   0  0  0  0  0  0  0  0  0  0  0  0
   10.6917  -17.4758   25.3287 O   0  0  0  0  0  0  0  0  0  0  0  0
   10.5749  -15.2775   24.7910 O   0  0  0  0  0  0  0  0  0  0  0  0
  1  2  1  0
  2  3  2  0
  4  5  1  0
  4  2  1  0
  5  6  1  1
  7  8  2  0
  7  5  1  0
 10  9  1  1
 10 11  1  0
 11  7  1  0
 12 22  1  0
 12 10  1  0
 13 12  2  0
 15 14  1  0
 16 15  2  0
 17 15  1  0
 18 17  1  0
 19 18  1  0
 20 19  1  0
 21 20  1  6
 21 22  1  0
 23 21  1  0
 24 23  1  0
 25 23  2  0
M  END
$$$$
