NAR.pdb
     RDKit          3D

 25 24  0  0  1  0  0  0  0  0999 V2000
    9.4124  -15.7639   11.9387 N   0  0  0  0  0  0  0  0  0  0  0  0
    8.3567  -15.2443   12.7324 C   0  0  0  0  0  0  0  0  0  0  0  0
    7.1510  -15.3579   12.4273 O   0  0  0  0  0  0  0  0  0  0  0  0
    8.7050  -14.5345   13.9805 C   0  0  0  0  0  0  0  0  0  0  0  0
    8.6600  -15.5549   15.1255 C   0  0  2  0  0  0  0  0  0  0  0  0
    7.2949  -15.9981   15.2084 N   0  0  0  0  0  0  0  0  0  0  0  0
    9.0874  -14.8127   16.3387 C   0  0  0  0  0  0  0  0  0  0  0  0
   10.2977  -14.4920   16.4666 O   0  0  0  0  0  0  0  0  0  0  0  0
    7.5428  -13.3490   19.4831 C   0  0  0  0  0  0  0  0  0  0  0  0
    8.6948  -13.7930   18.5740 C   0  0  2  0  0  0  0  0  0  0  0  0
    8.2122  -14.4299   17.3880 N   0  0  0  0  0  0  0  0  0  0  0  0
    9.4590  -14.7865   19.3774 C   0  0  0  0  0  0  0  0  0  0  0  0
    9.1159  -15.9947   19.3282 O   0  0  0  0  0  0  0  0  0  0  0  0
   17.0935  -15.8295   17.3880 N   0  0  0  0  0  0  0  0  0  0  0  0
   16.2108  -14.8993   17.9815 C   0  0  0  0  0  0  0  0  0  0  0  0
   15.7989  -13.8620   17.3071 N   0  0  0  0  0  0  0  0  0  0  0  0
   15.7568  -15.0779   19.3244 N   0  0  0  0  0  0  0  0  0  0  0  0
   14.7881  -14.2042   19.9518 C   0  0  0  0  0  0  0  0  0  0  0  0
   13.3772  -14.7019   19.7699 C   0  0  0  0  0  0  0  0  0  0  0  0
   12.7323  -15.1326   21.0367 C   0  0  0  0  0  0  0  0  0  0  0  0
   11.2584  -15.4580   20.9225 C   0  0  2  0  0  0  0  0  0  0  0  0
   10.5572  -14.4185   20.1944 N   0  0  0  0  0  0  0  0  0  0  0  0
   10.5855  -15.6221   22.2226 C   0  0  0  0  0  0  0  0  0  0  0  0
   10.8643  -16.7088   23.0155 O   0  0  0  0  0  0  0  0  0  0  0  0
    9.7568  -14.7739   22.6097 O   0  0  0  0  0  0  0  0  0  0  0  0
  1  2  1  0
  2  3  2  0
  4  5  1  0
  4  2  1  0
  5  6  1  1
  7  8  2  0
  7  5  1  0
 10  9  1  1
 10 11  1  0
 11  7  1  0
 12 22  1  0
 12 10  1  0
 13 12  2  0
 15 14  1  0
 16 15  2  0
 17 15  1  0
 18 17  1  0
 19 18  1  0
 20 19  1  0
 21 20  1  1
 21 22  1  0
 23 21  1  0
 24 23  1  0
 25 23  2  0
M  END
$$$$
