NAR.pdb
     RDKit          3D

 25 24  0  0  1  0  0  0  0  0999 V2000
   12.2022  -16.4555   14.8119 N   0  0  0  0  0  0  0  0  0  0  0  0
   11.1687  -17.4264   14.8736 C   0  0  0  0  0  0  0  0  0  0  0  0
   10.3840  -17.6522   13.9287 O   0  0  0  0  0  0  0  0  0  0  0  0
   11.0164  -18.2065   16.1191 C   0  0  0  0  0  0  0  0  0  0  0  0
   12.0618  -17.6965   17.1196 C   0  0  2  0  0  0  0  0  0  0  0  0
   13.2940  -18.3517   16.7745 N   0  0  0  0  0  0  0  0  0  0  0  0
   11.5632  -18.1008   18.4589 C   0  0  0  0  0  0  0  0  0  0  0  0
   10.5201  -17.5625   18.9128 O   0  0  0  0  0  0  0  0  0  0  0  0
   12.4183  -20.6183   21.1696 C   0  0  0  0  0  0  0  0  0  0  0  0
   11.6335  -19.4610   20.5411 C   0  0  2  0  0  0  0  0  0  0  0  0
   12.1903  -19.0711   19.2828 N   0  0  0  0  0  0  0  0  0  0  0  0
   11.7758  -18.3322   21.5014 C   0  0  0  0  0  0  0  0  0  0  0  0
   12.8259  -17.6419   21.4701 O   0  0  0  0  0  0  0  0  0  0  0  0
    6.6327  -13.1137   19.7178 N   0  0  0  0  0  0  0  0  0  0  0  0
    7.9741  -13.0511   19.2778 C   0  0  0  0  0  0  0  0  0  0  0  0
    8.2967  -12.3057   18.2576 N   0  0  0  0  0  0  0  0  0  0  0  0
    8.9952  -13.8001   19.9395 N   0  0  0  0  0  0  0  0  0  0  0  0
    8.8005  -14.4316   21.2274 C   0  0  0  0  0  0  0  0  0  0  0  0
   10.0768  -15.0279   21.7630 C   0  0  0  0  0  0  0  0  0  0  0  0
    9.8883  -15.8071   23.0135 C   0  0  0  0  0  0  0  0  0  0  0  0
   10.9588  -16.8418   23.2866 C   0  0  2  0  0  0  0  0  0  0  0  0
   10.7713  -18.0094   22.4477 N   0  0  0  0  0  0  0  0  0  0  0  0
   10.9961  -17.3004   24.6860 C   0  0  0  0  0  0  0  0  0  0  0  0
   10.8488  -18.6336   24.9830 O   0  0  0  0  0  0  0  0  0  0  0  0
   11.1608  -16.4783   25.6097 O   0  0  0  0  0  0  0  0  0  0  0  0
  1  2  1  0
  2  3  2  0
  4  5  1  0
  4  2  1  0
  5  6  1  6
  7  8  2  0
  7  5  1  0
 10  9  1  1
 10 11  1  0
 11  7  1  0
 12 22  1  0
 12 10  1  0
 13 12  2  0
 15 14  1  0
 16 15  2  0
 17 15  1  0
 18 17  1  0
 19 18  1  0
 20 19  1  0
 21 20  1  1
 21 22  1  0
 23 21  1  0
 24 23  1  0
 25 23  2  0
M  END
$$$$
