VNA.pdb
     RDKit          3D

 21 20  0  0  1  0  0  0  0  0999 V2000
    7.2483  -12.7356   21.4932 C   0  0  0  0  0  0  0  0  0  0  0  0
    8.4060  -13.1877   20.6642 C   0  0  2  0  0  0  0  0  0  0  0  0
    8.3521  -12.4695   19.3400 C   0  0  0  0  0  0  0  0  0  0  0  0
    8.4442  -14.6782   20.4395 C   0  0  2  0  0  0  0  0  0  0  0  0
    7.3056  -15.0811   19.6363 N   0  0  0  0  0  0  0  0  0  0  0  0
    8.4455  -15.4400   21.7102 C   0  0  0  0  0  0  0  0  0  0  0  0
    7.3589  -15.7476   22.2617 O   0  0  0  0  0  0  0  0  0  0  0  0
   11.9063  -18.8636   25.4331 N   0  0  0  0  0  0  0  0  0  0  0  0
   10.6622  -18.3458   24.9617 C   0  0  0  0  0  0  0  0  0  0  0  0
    9.6496  -18.5106   25.6841 O   0  0  0  0  0  0  0  0  0  0  0  0
   10.6174  -17.6500   23.6672 C   0  0  0  0  0  0  0  0  0  0  0  0
    9.6209  -16.5175   23.6754 C   0  0  2  0  0  0  0  0  0  0  0  0
    9.6289  -15.8625   22.3733 N   0  0  0  0  0  0  0  0  0  0  0  0
   10.0092  -15.5392   24.7480 C   0  0  0  0  0  0  0  0  0  0  0  0
   11.1674  -15.0849   24.6786 O   0  0  0  0  0  0  0  0  0  0  0  0
    8.3276  -13.2494   27.0693 C   0  0  0  0  0  0  0  0  0  0  0  0
    9.4341  -14.2178   26.7776 C   0  0  2  0  0  0  0  0  0  0  0  0
    9.1162  -15.1643   25.7635 N   0  0  0  0  0  0  0  0  0  0  0  0
    9.9363  -14.8064   28.0490 C   0  0  0  0  0  0  0  0  0  0  0  0
    9.9271  -16.0391   28.2012 O   0  0  0  0  0  0  0  0  0  0  0  0
   10.4132  -13.9969   29.0630 O   0  0  0  0  0  0  0  0  0  0  0  0
  2  1  1  1
  2  4  1  0
  3  2  1  0
  4  6  1  0
  4  5  1  6
  6  7  2  0
  8  9  1  0
  9 10  2  0
  9 11  1  0
 12 11  1  6
 12 14  1  0
 13 12  1  0
 13  6  1  0
 14 15  2  0
 14 18  1  0
 17 16  1  1
 17 19  1  0
 18 17  1  0
 19 20  2  0
 19 21  1  0
M  END
$$$$
