VNA.pdb
     RDKit          3D

 21 20  0  0  1  0  0  0  0  0999 V2000
    9.3457  -12.9657   18.3126 C   0  0  0  0  0  0  0  0  0  0  0  0
    8.7756  -13.2254   19.6688 C   0  0  2  0  0  0  0  0  0  0  0  0
    9.8988  -13.1832   20.6731 C   0  0  0  0  0  0  0  0  0  0  0  0
    8.0398  -14.5372   19.7751 C   0  0  2  0  0  0  0  0  0  0  0  0
    6.9665  -14.5764   18.8001 N   0  0  0  0  0  0  0  0  0  0  0  0
    7.4839  -14.7636   21.1296 C   0  0  0  0  0  0  0  0  0  0  0  0
    6.5705  -14.0201   21.5685 O   0  0  0  0  0  0  0  0  0  0  0  0
    5.8905  -16.9756   25.5339 N   0  0  0  0  0  0  0  0  0  0  0  0
    6.9324  -17.7893   24.9949 C   0  0  0  0  0  0  0  0  0  0  0  0
    7.3665  -18.7284   25.7049 O   0  0  0  0  0  0  0  0  0  0  0  0
    7.4479  -17.4990   23.6488 C   0  0  0  0  0  0  0  0  0  0  0  0
    7.3457  -16.0314   23.3155 C   0  0  2  0  0  0  0  0  0  0  0  0
    7.9250  -15.7974   21.9986 N   0  0  0  0  0  0  0  0  0  0  0  0
    8.0936  -15.2459   24.3557 C   0  0  0  0  0  0  0  0  0  0  0  0
    9.3301  -15.3992   24.3705 O   0  0  0  0  0  0  0  0  0  0  0  0
    7.3183  -12.5031   26.8054 C   0  0  0  0  0  0  0  0  0  0  0  0
    8.0977  -13.6733   26.2853 C   0  0  2  0  0  0  0  0  0  0  0  0
    7.4330  -14.3929   25.2530 N   0  0  0  0  0  0  0  0  0  0  0  0
    8.5748  -14.5063   27.4227 C   0  0  0  0  0  0  0  0  0  0  0  0
    9.2693  -13.9899   28.3136 O   0  0  0  0  0  0  0  0  0  0  0  0
    8.2537  -15.8487   27.4993 O   0  0  0  0  0  0  0  0  0  0  0  0
  2  1  1  6
  2  4  1  0
  3  2  1  0
  4  6  1  0
  4  5  1  6
  6  7  2  0
  8  9  1  0
  9 10  2  0
  9 11  1  0
 12 11  1  1
 12 14  1  0
 13 12  1  0
 13  6  1  0
 14 15  2  0
 14 18  1  0
 17 16  1  1
 17 19  1  0
 18 17  1  0
 19 20  2  0
 19 21  1  0
M  END
$$$$
