VNA.pdb
     RDKit          3D

 21 20  0  0  1  0  0  0  0  0999 V2000
    2.0230  -31.3637   21.1256 C   0  0  0  0  0  0  0  0  0  0  0  0
    3.3483  -30.7129   20.8981 C   0  0  2  0  0  0  0  0  0  0  0  0
    3.8586  -30.1980   22.2197 C   0  0  0  0  0  0  0  0  0  0  0  0
    3.3072  -29.5917   19.8908 C   0  0  2  0  0  0  0  0  0  0  0  0
    2.9334  -30.1155   18.5909 N   0  0  0  0  0  0  0  0  0  0  0  0
    4.6038  -28.8832   19.7826 C   0  0  0  0  0  0  0  0  0  0  0  0
    5.5722  -29.4272   19.1942 O   0  0  0  0  0  0  0  0  0  0  0  0
    5.6111  -26.1264   17.5965 N   0  0  0  0  0  0  0  0  0  0  0  0
    5.6036  -25.0824   18.5702 C   0  0  0  0  0  0  0  0  0  0  0  0
    5.3874  -23.9127   18.1707 O   0  0  0  0  0  0  0  0  0  0  0  0
    5.8460  -25.4142   19.9819 C   0  0  0  0  0  0  0  0  0  0  0  0
    6.1099  -26.8871   20.1727 C   0  0  2  0  0  0  0  0  0  0  0  0
    4.8394  -27.5873   20.3151 N   0  0  0  0  0  0  0  0  0  0  0  0
    6.9435  -27.0732   21.4091 C   0  0  0  0  0  0  0  0  0  0  0  0
    6.3247  -27.0644   22.4906 O   0  0  0  0  0  0  0  0  0  0  0  0
   10.4499  -28.1355   22.1955 C   0  0  0  0  0  0  0  0  0  0  0  0
    9.1574  -27.4348   22.4881 C   0  0  2  0  0  0  0  0  0  0  0  0
    8.3345  -27.2458   21.3424 N   0  0  0  0  0  0  0  0  0  0  0  0
    9.4206  -26.2028   23.2807 C   0  0  0  0  0  0  0  0  0  0  0  0
    9.2173  -25.0888   22.7704 O   0  0  0  0  0  0  0  0  0  0  0  0
    9.8890  -26.2839   24.5788 O   0  0  0  0  0  0  0  0  0  0  0  0
  2  1  1  1
  2  4  1  0
  3  2  1  0
  4  6  1  0
  4  5  1  6
  6  7  2  0
  8  9  1  0
  9 10  2  0
  9 11  1  0
 12 11  1  1
 12 14  1  0
 13 12  1  0
 13  6  1  0
 14 15  2  0
 14 18  1  0
 17 16  1  6
 17 19  1  0
 18 17  1  0
 19 20  2  0
 19 21  1  0
M  END
$$$$
