VNA.pdb
     RDKit          3D

 21 20  0  0  1  0  0  0  0  0999 V2000
    7.3758  -13.2301   20.6399 C   0  0  0  0  0  0  0  0  0  0  0  0
    8.6026  -13.1421   19.7920 C   0  0  2  0  0  0  0  0  0  0  0  0
    8.3851  -12.0748   18.7499 C   0  0  0  0  0  0  0  0  0  0  0  0
    8.9728  -14.4432   19.1259 C   0  0  2  0  0  0  0  0  0  0  0  0
    7.8980  -14.8666   18.2486 N   0  0  0  0  0  0  0  0  0  0  0  0
    9.2611  -15.5162   20.1059 C   0  0  0  0  0  0  0  0  0  0  0  0
    8.3496  -16.3036   20.4648 O   0  0  0  0  0  0  0  0  0  0  0  0
   11.2725  -18.7636   19.6959 N   0  0  0  0  0  0  0  0  0  0  0  0
   12.4134  -18.1041   20.2450 C   0  0  0  0  0  0  0  0  0  0  0  0
   13.5182  -18.2770   19.6757 O   0  0  0  0  0  0  0  0  0  0  0  0
   12.2512  -17.2608   21.4385 C   0  0  0  0  0  0  0  0  0  0  0  0
   10.8214  -16.8144   21.6174 C   0  0  2  0  0  0  0  0  0  0  0  0
   10.5393  -15.7262   20.6897 N   0  0  0  0  0  0  0  0  0  0  0  0
   10.6340  -16.3475   23.0335 C   0  0  0  0  0  0  0  0  0  0  0  0
   11.4289  -15.4734   23.4294 O   0  0  0  0  0  0  0  0  0  0  0  0
    7.9641  -16.4146   25.5975 C   0  0  0  0  0  0  0  0  0  0  0  0
    9.4084  -16.4490   25.1977 C   0  0  2  0  0  0  0  0  0  0  0  0
    9.6227  -16.8688   23.8549 N   0  0  0  0  0  0  0  0  0  0  0  0
   10.1962  -17.1911   26.2195 C   0  0  0  0  0  0  0  0  0  0  0  0
   10.8542  -18.1891   25.8824 O   0  0  0  0  0  0  0  0  0  0  0  0
   10.2041  -16.7823   27.5401 O   0  0  0  0  0  0  0  0  0  0  0  0
  2  1  1  6
  2  4  1  0
  3  2  1  0
  4  6  1  0
  4  5  1  6
  6  7  2  0
  8  9  1  0
  9 10  2  0
  9 11  1  0
 12 11  1  1
 12 14  1  0
 13 12  1  0
 13  6  1  0
 14 15  2  0
 14 18  1  0
 17 16  1  1
 17 19  1  0
 18 17  1  0
 19 20  2  0
 19 21  1  0
M  END
$$$$
