VNA.pdb
     RDKit          3D

 21 20  0  0  1  0  0  0  0  0999 V2000
    7.3316  -12.8116   21.4409 C   0  0  0  0  0  0  0  0  0  0  0  0
    8.4504  -13.4168   20.6574 C   0  0  2  0  0  0  0  0  0  0  0  0
    8.4060  -12.8602   19.2572 C   0  0  0  0  0  0  0  0  0  0  0  0
    8.4127  -14.9235   20.6131 C   0  0  2  0  0  0  0  0  0  0  0  0
    7.2277  -15.3624   19.9010 N   0  0  0  0  0  0  0  0  0  0  0  0
    8.4273  -15.5278   21.9657 C   0  0  0  0  0  0  0  0  0  0  0  0
    7.3462  -15.7906   22.5503 O   0  0  0  0  0  0  0  0  0  0  0  0
   11.9616  -18.7632   25.6969 N   0  0  0  0  0  0  0  0  0  0  0  0
   10.6827  -18.3982   25.1777 C   0  0  0  0  0  0  0  0  0  0  0  0
    9.6692  -18.7116   25.8478 O   0  0  0  0  0  0  0  0  0  0  0  0
   10.6050  -17.6801   23.8970 C   0  0  0  0  0  0  0  0  0  0  0  0
    9.6214  -16.5379   23.9552 C   0  0  2  0  0  0  0  0  0  0  0  0
    9.6179  -15.8426   22.6742 N   0  0  0  0  0  0  0  0  0  0  0  0
   10.0359  -15.5980   25.0520 C   0  0  0  0  0  0  0  0  0  0  0  0
   11.1580  -15.0714   24.9240 O   0  0  0  0  0  0  0  0  0  0  0  0
    8.4811  -13.5230   27.6317 C   0  0  0  0  0  0  0  0  0  0  0  0
    9.5692  -14.4686   27.2206 C   0  0  2  0  0  0  0  0  0  0  0  0
    9.2045  -15.3337   26.1511 N   0  0  0  0  0  0  0  0  0  0  0  0
   10.1207  -15.1542   28.4211 C   0  0  0  0  0  0  0  0  0  0  0  0
   10.5106  -14.4802   29.3887 O   0  0  0  0  0  0  0  0  0  0  0  0
   10.2042  -16.5332   28.4716 O   0  0  0  0  0  0  0  0  0  0  0  0
  2  1  1  1
  2  4  1  0
  3  2  1  0
  4  6  1  0
  4  5  1  1
  6  7  2  0
  8  9  1  0
  9 10  2  0
  9 11  1  0
 12 11  1  6
 12 14  1  0
 13 12  1  0
 13  6  1  0
 14 15  2  0
 14 18  1  0
 17 16  1  1
 17 19  1  0
 18 17  1  0
 19 20  2  0
 19 21  1  0
M  END
$$$$
