VNA.pdb
     RDKit          3D

 21 20  0  0  1  0  0  0  0  0999 V2000
    7.3477  -12.7380   19.5108 C   0  0  0  0  0  0  0  0  0  0  0  0
    7.5683  -13.3985   20.8324 C   0  0  2  0  0  0  0  0  0  0  0  0
    8.6340  -12.6332   21.5747 C   0  0  0  0  0  0  0  0  0  0  0  0
    7.9586  -14.8511   20.7256 C   0  0  2  0  0  0  0  0  0  0  0  0
    6.9897  -15.5592   19.9109 N   0  0  0  0  0  0  0  0  0  0  0  0
    8.0615  -15.5061   22.0505 C   0  0  0  0  0  0  0  0  0  0  0  0
    7.0267  -15.7139   22.7329 O   0  0  0  0  0  0  0  0  0  0  0  0
   11.6819  -18.9140   25.6501 N   0  0  0  0  0  0  0  0  0  0  0  0
   10.4414  -18.3577   25.2146 C   0  0  0  0  0  0  0  0  0  0  0  0
    9.4431  -18.5007   25.9612 O   0  0  0  0  0  0  0  0  0  0  0  0
   10.3834  -17.6497   23.9273 C   0  0  0  0  0  0  0  0  0  0  0  0
    9.3842  -16.5200   23.9550 C   0  0  2  0  0  0  0  0  0  0  0  0
    9.2895  -15.9310   22.6251 N   0  0  0  0  0  0  0  0  0  0  0  0
    9.8473  -15.4886   24.9449 C   0  0  0  0  0  0  0  0  0  0  0  0
   10.9598  -14.9753   24.7177 O   0  0  0  0  0  0  0  0  0  0  0  0
    8.3679  -13.2022   27.3928 C   0  0  0  0  0  0  0  0  0  0  0  0
    9.4649  -14.1485   27.0074 C   0  0  2  0  0  0  0  0  0  0  0  0
    9.0688  -15.1299   26.0560 N   0  0  0  0  0  0  0  0  0  0  0  0
   10.1165  -14.6894   28.2315 C   0  0  0  0  0  0  0  0  0  0  0  0
   10.5187  -13.9085   29.1095 O   0  0  0  0  0  0  0  0  0  0  0  0
   10.2794  -16.0515   28.4024 O   0  0  0  0  0  0  0  0  0  0  0  0
  2  1  1  6
  2  4  1  0
  3  2  1  0
  4  6  1  0
  4  5  1  6
  6  7  2  0
  8  9  1  0
  9 10  2  0
  9 11  1  0
 12 11  1  6
 12 14  1  0
 13 12  1  0
 13  6  1  0
 14 15  2  0
 14 18  1  0
 17 16  1  1
 17 19  1  0
 18 17  1  0
 19 20  2  0
 19 21  1  0
M  END
$$$$
