VNA.pdb
     RDKit          3D

 21 20  0  0  1  0  0  0  0  0999 V2000
    8.2011  -13.4760   18.6558 C   0  0  0  0  0  0  0  0  0  0  0  0
    7.7803  -13.6067   20.0833 C   0  0  2  0  0  0  0  0  0  0  0  0
    7.8126  -12.2389   20.7159 C   0  0  0  0  0  0  0  0  0  0  0  0
    8.6321  -14.5621   20.8804 C   0  0  2  0  0  0  0  0  0  0  0  0
    8.6672  -15.8533   20.2205 N   0  0  0  0  0  0  0  0  0  0  0  0
    8.1419  -14.7308   22.2683 C   0  0  0  0  0  0  0  0  0  0  0  0
    7.6968  -13.7422   22.9041 O   0  0  0  0  0  0  0  0  0  0  0  0
    5.6023  -17.2188   23.0047 N   0  0  0  0  0  0  0  0  0  0  0  0
    6.3199  -18.0952   23.8737 C   0  0  0  0  0  0  0  0  0  0  0  0
    5.9377  -19.2882   23.9456 O   0  0  0  0  0  0  0  0  0  0  0  0
    7.4617  -17.5728   24.6388 C   0  0  0  0  0  0  0  0  0  0  0  0
    7.7129  -16.1151   24.3429 C   0  0  2  0  0  0  0  0  0  0  0  0
    8.1390  -15.9739   22.9562 N   0  0  0  0  0  0  0  0  0  0  0  0
    8.7861  -15.6120   25.2667 C   0  0  0  0  0  0  0  0  0  0  0  0
    9.9576  -15.8858   24.9423 O   0  0  0  0  0  0  0  0  0  0  0  0
    9.0562  -13.0102   27.8969 C   0  0  0  0  0  0  0  0  0  0  0  0
    9.4679  -14.3113   27.2766 C   0  0  2  0  0  0  0  0  0  0  0  0
    8.4802  -14.8786   26.4233 N   0  0  0  0  0  0  0  0  0  0  0  0
    9.9893  -15.2275   28.3274 C   0  0  0  0  0  0  0  0  0  0  0  0
    9.4821  -16.3525   28.4683 O   0  0  0  0  0  0  0  0  0  0  0  0
   11.0318  -14.8408   29.1487 O   0  0  0  0  0  0  0  0  0  0  0  0
  2  1  1  6
  2  4  1  0
  3  2  1  0
  4  6  1  0
  4  5  1  6
  6  7  2  0
  8  9  1  0
  9 10  2  0
  9 11  1  0
 12 11  1  1
 12 14  1  0
 13 12  1  0
 13  6  1  0
 14 15  2  0
 14 18  1  0
 17 16  1  1
 17 19  1  0
 18 17  1  0
 19 20  2  0
 19 21  1  0
M  END
$$$$
