VNA.pdb
     RDKit          3D

 21 20  0  0  1  0  0  0  0  0999 V2000
    7.1804  -12.6786   18.6338 C   0  0  0  0  0  0  0  0  0  0  0  0
    8.2785  -13.4907   19.2391 C   0  0  2  0  0  0  0  0  0  0  0  0
    9.0312  -12.6216   20.2139 C   0  0  0  0  0  0  0  0  0  0  0  0
    9.2319  -14.0708   18.2252 C   0  0  2  0  0  0  0  0  0  0  0  0
    8.4967  -14.8709   17.2643 N   0  0  0  0  0  0  0  0  0  0  0  0
   10.2866  -14.9004   18.8532 C   0  0  0  0  0  0  0  0  0  0  0  0
   10.0160  -16.0549   19.2697 O   0  0  0  0  0  0  0  0  0  0  0  0
   13.8320  -16.0932   17.3125 N   0  0  0  0  0  0  0  0  0  0  0  0
   14.4307  -14.9988   18.0067 C   0  0  0  0  0  0  0  0  0  0  0  0
   15.3019  -14.3292   17.4007 O   0  0  0  0  0  0  0  0  0  0  0  0
   14.0089  -14.7038   19.3840 C   0  0  0  0  0  0  0  0  0  0  0  0
   12.6465  -15.2765   19.6863 C   0  0  2  0  0  0  0  0  0  0  0  0
   11.6294  -14.4690   19.0245 N   0  0  0  0  0  0  0  0  0  0  0  0
   12.4333  -15.2584   21.1737 C   0  0  0  0  0  0  0  0  0  0  0  0
   13.0916  -14.4123   21.8089 O   0  0  0  0  0  0  0  0  0  0  0  0
    9.9822  -16.3607   23.6751 C   0  0  0  0  0  0  0  0  0  0  0  0
   11.4042  -16.2422   23.2156 C   0  0  2  0  0  0  0  0  0  0  0  0
   11.5448  -16.1439   21.8028 N   0  0  0  0  0  0  0  0  0  0  0  0
   12.2302  -17.3024   23.8553 C   0  0  0  0  0  0  0  0  0  0  0  0
   12.3206  -17.3475   25.0932 O   0  0  0  0  0  0  0  0  0  0  0  0
   12.8982  -18.2378   23.0873 O   0  0  0  0  0  0  0  0  0  0  0  0
  2  1  1  6
  2  4  1  0
  3  2  1  0
  4  6  1  0
  4  5  1  6
  6  7  2  0
  8  9  1  0
  9 10  2  0
  9 11  1  0
 12 11  1  1
 12 14  1  0
 13 12  1  0
 13  6  1  0
 14 15  2  0
 14 18  1  0
 17 16  1  6
 17 19  1  0
 18 17  1  0
 19 20  2  0
 19 21  1  0
M  END
$$$$
