VNA.pdb
     RDKit          3D

 21 20  0  0  1  0  0  0  0  0999 V2000
    7.4347  -13.7751   20.5716 C   0  0  0  0  0  0  0  0  0  0  0  0
    8.3191  -13.3155   19.4587 C   0  0  2  0  0  0  0  0  0  0  0  0
    7.6760  -12.1206   18.8025 C   0  0  0  0  0  0  0  0  0  0  0  0
    8.5978  -14.3802   18.4279 C   0  0  2  0  0  0  0  0  0  0  0  0
    7.3724  -14.7162   17.7283 N   0  0  0  0  0  0  0  0  0  0  0  0
    9.1763  -15.6060   19.0258 C   0  0  0  0  0  0  0  0  0  0  0  0
    8.4539  -16.6173   19.2133 O   0  0  0  0  0  0  0  0  0  0  0  0
   11.9744  -19.9569   19.7694 N   0  0  0  0  0  0  0  0  0  0  0  0
   12.6986  -18.7317   19.8819 C   0  0  0  0  0  0  0  0  0  0  0  0
   13.7818  -18.7496   20.5149 O   0  0  0  0  0  0  0  0  0  0  0  0
   12.1544  -17.5153   19.2607 C   0  0  0  0  0  0  0  0  0  0  0  0
   11.0689  -16.8943   20.1043 C   0  0  2  0  0  0  0  0  0  0  0  0
   10.5372  -15.7245   19.4162 N   0  0  0  0  0  0  0  0  0  0  0  0
   11.6553  -16.4925   21.4283 C   0  0  0  0  0  0  0  0  0  0  0  0
   12.6258  -15.7124   21.3808 O   0  0  0  0  0  0  0  0  0  0  0  0
   10.7830  -16.9591   25.0637 C   0  0  0  0  0  0  0  0  0  0  0  0
   11.6926  -16.6536   23.9120 C   0  0  2  0  0  0  0  0  0  0  0  0
   11.1363  -16.9709   22.6411 N   0  0  0  0  0  0  0  0  0  0  0  0
   13.0405  -17.2308   24.1679 C   0  0  0  0  0  0  0  0  0  0  0  0
   13.8883  -16.5629   24.7825 O   0  0  0  0  0  0  0  0  0  0  0  0
   13.3599  -18.5023   23.7292 O   0  0  0  0  0  0  0  0  0  0  0  0
  2  1  1  1
  2  4  1  0
  3  2  1  0
  4  6  1  0
  4  5  1  1
  6  7  2  0
  8  9  1  0
  9 10  2  0
  9 11  1  0
 12 11  1  6
 12 14  1  0
 13 12  1  0
 13  6  1  0
 14 15  2  0
 14 18  1  0
 17 16  1  1
 17 19  1  0
 18 17  1  0
 19 20  2  0
 19 21  1  0
M  END
$$$$
