VNA.pdb
     RDKit          3D

 21 20  0  0  1  0  0  0  0  0999 V2000
    8.0964  -12.9042   18.8493 C   0  0  0  0  0  0  0  0  0  0  0  0
    7.7327  -13.3725   20.2204 C   0  0  2  0  0  0  0  0  0  0  0  0
    8.3134  -12.4076   21.2224 C   0  0  0  0  0  0  0  0  0  0  0  0
    8.1999  -14.7734   20.5254 C   0  0  2  0  0  0  0  0  0  0  0  0
    7.7301  -15.6806   19.4958 N   0  0  0  0  0  0  0  0  0  0  0  0
    7.7346  -15.2471   21.8498 C   0  0  0  0  0  0  0  0  0  0  0  0
    6.5713  -15.7038   21.9828 O   0  0  0  0  0  0  0  0  0  0  0  0
    5.8326  -18.2994   23.5380 N   0  0  0  0  0  0  0  0  0  0  0  0
    6.6972  -17.7890   24.5529 C   0  0  0  0  0  0  0  0  0  0  0  0
    6.2779  -17.7968   25.7356 O   0  0  0  0  0  0  0  0  0  0  0  0
    8.0253  -17.2819   24.1777 C   0  0  0  0  0  0  0  0  0  0  0  0
    8.1043  -15.7801   24.2960 C   0  0  2  0  0  0  0  0  0  0  0  0
    8.5377  -15.2211   23.0215 N   0  0  0  0  0  0  0  0  0  0  0  0
    9.0901  -15.4309   25.3751 C   0  0  0  0  0  0  0  0  0  0  0  0
   10.2646  -15.7987   25.1808 O   0  0  0  0  0  0  0  0  0  0  0  0
    9.1447  -13.2326   28.4136 C   0  0  0  0  0  0  0  0  0  0  0  0
    9.6055  -14.3865   27.5751 C   0  0  2  0  0  0  0  0  0  0  0  0
    8.7042  -14.7326   26.5295 N   0  0  0  0  0  0  0  0  0  0  0  0
   10.0100  -15.5178   28.4537 C   0  0  0  0  0  0  0  0  0  0  0  0
   10.8245  -15.3225   29.3709 O   0  0  0  0  0  0  0  0  0  0  0  0
    9.4897  -16.7839   28.2608 O   0  0  0  0  0  0  0  0  0  0  0  0
  2  1  1  6
  2  4  1  0
  3  2  1  0
  4  6  1  0
  4  5  1  6
  6  7  2  0
  8  9  1  0
  9 10  2  0
  9 11  1  0
 12 11  1  6
 12 14  1  0
 13 12  1  0
 13  6  1  0
 14 15  2  0
 14 18  1  0
 17 16  1  1
 17 19  1  0
 18 17  1  0
 19 20  2  0
 19 21  1  0
M  END
$$$$
