VNA.pdb
     RDKit          3D

 21 20  0  0  1  0  0  0  0  0999 V2000
    8.0233  -12.6893   19.2243 C   0  0  0  0  0  0  0  0  0  0  0  0
    7.5293  -13.3710   20.4585 C   0  0  2  0  0  0  0  0  0  0  0  0
    8.0035  -12.5884   21.6564 C   0  0  0  0  0  0  0  0  0  0  0  0
    7.9720  -14.8077   20.5749 C   0  0  2  0  0  0  0  0  0  0  0  0
    7.5452  -15.5474   19.4024 N   0  0  0  0  0  0  0  0  0  0  0  0
    7.4412  -15.4642   21.7923 C   0  0  0  0  0  0  0  0  0  0  0  0
    6.2467  -15.8535   21.8287 O   0  0  0  0  0  0  0  0  0  0  0  0
    6.7535  -18.0201   26.1172 N   0  0  0  0  0  0  0  0  0  0  0  0
    7.8276  -18.5463   25.3377 C   0  0  0  0  0  0  0  0  0  0  0  0
    8.2704  -19.6799   25.6435 O   0  0  0  0  0  0  0  0  0  0  0  0
    8.3647  -17.7508   24.2239 C   0  0  0  0  0  0  0  0  0  0  0  0
    7.6991  -16.4004   24.1293 C   0  0  2  0  0  0  0  0  0  0  0  0
    8.2130  -15.6933   22.9630 N   0  0  0  0  0  0  0  0  0  0  0  0
    8.0019  -15.6233   25.3793 C   0  0  0  0  0  0  0  0  0  0  0  0
    7.5543  -16.1001   26.4400 O   0  0  0  0  0  0  0  0  0  0  0  0
    8.0295  -12.6960   26.9172 C   0  0  0  0  0  0  0  0  0  0  0  0
    9.0797  -13.6854   26.5105 C   0  0  2  0  0  0  0  0  0  0  0  0
    8.7444  -14.4330   25.3468 N   0  0  0  0  0  0  0  0  0  0  0  0
    9.4828  -14.5039   27.6865 C   0  0  0  0  0  0  0  0  0  0  0  0
    9.8782  -13.9407   28.7205 O   0  0  0  0  0  0  0  0  0  0  0  0
    9.4224  -15.8842   27.6413 O   0  0  0  0  0  0  0  0  0  0  0  0
  2  1  1  6
  2  4  1  0
  3  2  1  0
  4  6  1  0
  4  5  1  6
  6  7  2  0
  8  9  1  0
  9 10  2  0
  9 11  1  0
 12 11  1  1
 12 14  1  0
 13 12  1  0
 13  6  1  0
 14 15  2  0
 14 18  1  0
 17 16  1  1
 17 19  1  0
 18 17  1  0
 19 20  2  0
 19 21  1  0
M  END
$$$$
