VNA.pdb
     RDKit          3D

 21 20  0  0  1  0  0  0  0  0999 V2000
    7.4528  -12.2840   18.4926 C   0  0  0  0  0  0  0  0  0  0  0  0
    7.7558  -13.3502   19.4942 C   0  0  2  0  0  0  0  0  0  0  0  0
    8.3299  -12.6970   20.7254 C   0  0  0  0  0  0  0  0  0  0  0  0
    8.7020  -14.4080   18.9847 C   0  0  2  0  0  0  0  0  0  0  0  0
    8.1398  -15.0406   17.8067 N   0  0  0  0  0  0  0  0  0  0  0  0
    8.9961  -15.4403   20.0059 C   0  0  0  0  0  0  0  0  0  0  0  0
    8.1654  -16.3554   20.2346 O   0  0  0  0  0  0  0  0  0  0  0  0
   12.4571  -19.1036   22.4749 N   0  0  0  0  0  0  0  0  0  0  0  0
   12.3392  -17.7258   22.8295 C   0  0  0  0  0  0  0  0  0  0  0  0
   12.5565  -17.4095   24.0241 O   0  0  0  0  0  0  0  0  0  0  0  0
   11.9732  -16.7462   21.7958 C   0  0  0  0  0  0  0  0  0  0  0  0
   10.4838  -16.5110   21.7509 C   0  0  2  0  0  0  0  0  0  0  0  0
   10.1921  -15.4710   20.7722 N   0  0  0  0  0  0  0  0  0  0  0  0
   10.0204  -16.0817   23.1144 C   0  0  0  0  0  0  0  0  0  0  0  0
   10.4874  -15.0060   23.5356 O   0  0  0  0  0  0  0  0  0  0  0  0
    7.1843  -16.6228   25.3493 C   0  0  0  0  0  0  0  0  0  0  0  0
    8.6655  -16.4874   25.1628 C   0  0  2  0  0  0  0  0  0  0  0  0
    9.1161  -16.8508   23.8627 N   0  0  0  0  0  0  0  0  0  0  0  0
    9.3778  -17.1597   26.2835 C   0  0  0  0  0  0  0  0  0  0  0  0
   10.2091  -18.0492   26.0376 O   0  0  0  0  0  0  0  0  0  0  0  0
    9.1248  -16.8056   27.5956 O   0  0  0  0  0  0  0  0  0  0  0  0
  2  1  1  6
  2  4  1  0
  3  2  1  0
  4  6  1  0
  4  5  1  6
  6  7  2  0
  8  9  1  0
  9 10  2  0
  9 11  1  0
 12 11  1  1
 12 14  1  0
 13 12  1  0
 13  6  1  0
 14 15  2  0
 14 18  1  0
 17 16  1  6
 17 19  1  0
 18 17  1  0
 19 20  2  0
 19 21  1  0
M  END
$$$$
