VNA.pdb
     RDKit          3D

 21 20  0  0  1  0  0  0  0  0999 V2000
    7.0144  -12.7417   20.4101 C   0  0  0  0  0  0  0  0  0  0  0  0
    8.3558  -13.2181   19.9570 C   0  0  2  0  0  0  0  0  0  0  0  0
    8.6015  -12.6943   18.5650 C   0  0  0  0  0  0  0  0  0  0  0  0
    8.5031  -14.7187   19.9749 C   0  0  2  0  0  0  0  0  0  0  0  0
    7.6134  -15.3092   18.9933 N   0  0  0  0  0  0  0  0  0  0  0  0
    8.2191  -15.2970   21.3090 C   0  0  0  0  0  0  0  0  0  0  0  0
    7.0352  -15.5485   21.6479 O   0  0  0  0  0  0  0  0  0  0  0  0
    8.8130  -18.5256   22.2162 N   0  0  0  0  0  0  0  0  0  0  0  0
    9.8479  -18.4164   23.1935 C   0  0  0  0  0  0  0  0  0  0  0  0
   10.5902  -19.4122   23.3718 O   0  0  0  0  0  0  0  0  0  0  0  0
   10.0007  -17.1598   23.9415 C   0  0  0  0  0  0  0  0  0  0  0  0
    8.9311  -16.1598   23.5791 C   0  0  2  0  0  0  0  0  0  0  0  0
    9.2246  -15.5983   22.2664 N   0  0  0  0  0  0  0  0  0  0  0  0
    8.9157  -15.0711   24.6149 C   0  0  0  0  0  0  0  0  0  0  0  0
    9.9641  -14.4067   24.7234 O   0  0  0  0  0  0  0  0  0  0  0  0
    6.3017  -13.2819   26.5990 C   0  0  0  0  0  0  0  0  0  0  0  0
    7.7016  -13.7524   26.3421 C   0  0  2  0  0  0  0  0  0  0  0  0
    7.7852  -14.8233   25.4085 N   0  0  0  0  0  0  0  0  0  0  0  0
    8.3974  -13.9931   27.6357 C   0  0  0  0  0  0  0  0  0  0  0  0
    8.7819  -15.1387   27.9227 O   0  0  0  0  0  0  0  0  0  0  0  0
    8.6208  -12.9559   28.5219 O   0  0  0  0  0  0  0  0  0  0  0  0
  2  1  1  6
  2  4  1  0
  3  2  1  0
  4  6  1  0
  4  5  1  6
  6  7  2  0
  8  9  1  0
  9 10  2  0
  9 11  1  0
 12 11  1  1
 12 14  1  0
 13 12  1  0
 13  6  1  0
 14 15  2  0
 14 18  1  0
 17 16  1  1
 17 19  1  0
 18 17  1  0
 19 20  2  0
 19 21  1  0
M  END
$$$$
