IAA.pdb
     RDKit          3D

 19 18  0  0  1  0  0  0  0  0999 V2000
    5.5393  -11.4454   26.4988 C   0  0  0  0  0  0  0  0  0  0  0  0
    5.4238  -12.7843   25.8595 C   0  0  0  0  0  0  0  0  0  0  0  0
    6.6652  -13.5891   25.7759 C   0  0  2  0  0  0  0  0  0  0  0  0
    7.7131  -12.7453   25.0454 C   0  0  0  0  0  0  0  0  0  0  0  0
    6.6091  -14.9048   25.1244 C   0  0  2  0  0  0  0  0  0  0  0  0
    5.5147  -15.7156   25.6043 N   0  0  0  0  0  0  0  0  0  0  0  0
    7.8833  -15.6534   25.0835 C   0  0  0  0  0  0  0  0  0  0  0  0
    8.1651  -16.5669   25.9126 O   0  0  0  0  0  0  0  0  0  0  0  0
   10.8319  -15.7664   22.7804 C   0  0  0  0  0  0  0  0  0  0  0  0
   10.0893  -16.2286   23.9997 C   0  0  2  0  0  0  0  0  0  0  0  0
    8.8830  -15.3958   24.1049 N   0  0  0  0  0  0  0  0  0  0  0  0
   10.9085  -16.0773   25.2456 C   0  0  0  0  0  0  0  0  0  0  0  0
   12.0164  -16.6534   25.3732 O   0  0  0  0  0  0  0  0  0  0  0  0
   10.7966  -13.8188   28.2615 C   0  0  0  0  0  0  0  0  0  0  0  0
   11.1199  -15.1348   27.5933 C   0  0  2  0  0  0  0  0  0  0  0  0
   10.4529  -15.2766   26.3176 N   0  0  0  0  0  0  0  0  0  0  0  0
   10.8379  -16.2936   28.4346 C   0  0  0  0  0  0  0  0  0  0  0  0
   11.4049  -16.4252   29.5414 O   0  0  0  0  0  0  0  0  0  0  0  0
    9.9427  -17.2715   28.0348 O   0  0  0  0  0  0  0  0  0  0  0  0
  1  2  1  0
  2  3  1  0
  3  4  1  6
  5  3  1  0
  5  7  1  0
  5  6  1  1
  7  8  2  0
 10  9  1  6
 11  7  1  0
 11 10  1  0
 12 10  1  0
 12 16  1  0
 13 12  2  0
 15 14  1  1
 16 15  1  0
 17 15  1  0
 18 17  2  0
 19 17  1  0
M  END
$$$$
