IAA.pdb
     RDKit          3D

 19 18  0  0  1  0  0  0  0  0999 V2000
    5.5466  -11.5986   26.6544 C   0  0  0  0  0  0  0  0  0  0  0  0
    5.4354  -12.8851   25.9147 C   0  0  0  0  0  0  0  0  0  0  0  0
    6.6662  -13.7049   25.8202 C   0  0  2  0  0  0  0  0  0  0  0  0
    7.7499  -12.8364   25.1760 C   0  0  0  0  0  0  0  0  0  0  0  0
    6.6106  -14.9771   25.0873 C   0  0  2  0  0  0  0  0  0  0  0  0
    5.4481  -15.7633   25.4276 N   0  0  0  0  0  0  0  0  0  0  0  0
    7.8522  -15.7794   25.1032 C   0  0  0  0  0  0  0  0  0  0  0  0
    8.0411  -16.7286   25.9185 O   0  0  0  0  0  0  0  0  0  0  0  0
   10.9806  -15.9109   23.0513 C   0  0  0  0  0  0  0  0  0  0  0  0
   10.1427  -16.3572   24.2133 C   0  0  2  0  0  0  0  0  0  0  0  0
    8.9231  -15.5372   24.1989 N   0  0  0  0  0  0  0  0  0  0  0  0
   10.8522  -16.1704   25.5202 C   0  0  0  0  0  0  0  0  0  0  0  0
   11.9494  -16.7335   25.7545 O   0  0  0  0  0  0  0  0  0  0  0  0
   10.2593  -13.9254   28.5287 C   0  0  0  0  0  0  0  0  0  0  0  0
   10.9154  -15.0833   27.8135 C   0  0  2  0  0  0  0  0  0  0  0  0
   10.3018  -15.3499   26.5310 N   0  0  0  0  0  0  0  0  0  0  0  0
   10.9555  -16.3055   28.6104 C   0  0  0  0  0  0  0  0  0  0  0  0
   11.5807  -16.3350   29.6929 O   0  0  0  0  0  0  0  0  0  0  0  0
   10.3081  -17.4567   28.1942 O   0  0  0  0  0  0  0  0  0  0  0  0
  1  2  1  0
  2  3  1  0
  3  4  1  6
  5  3  1  0
  5  7  1  0
  5  6  1  1
  7  8  2  0
 10  9  1  6
 11  7  1  0
 11 10  1  0
 12 10  1  0
 12 16  1  0
 13 12  2  0
 15 14  1  1
 16 15  1  0
 17 15  1  0
 18 17  2  0
 19 17  1  0
M  END
$$$$
