IAA.pdb
     RDKit          3D

 19 18  0  0  1  0  0  0  0  0999 V2000
    7.6814  -12.0433   26.6082 C   0  0  0  0  0  0  0  0  0  0  0  0
    6.7394  -13.1271   26.2174 C   0  0  0  0  0  0  0  0  0  0  0  0
    7.3347  -14.3274   25.5843 C   0  0  2  0  0  0  0  0  0  0  0  0
    8.0671  -13.8668   24.3213 C   0  0  0  0  0  0  0  0  0  0  0  0
    6.4499  -15.4404   25.2141 C   0  0  2  0  0  0  0  0  0  0  0  0
    5.6070  -15.8664   26.3064 N   0  0  0  0  0  0  0  0  0  0  0  0
    7.1042  -16.5795   24.5358 C   0  0  0  0  0  0  0  0  0  0  0  0
    7.6002  -17.5569   25.1682 O   0  0  0  0  0  0  0  0  0  0  0  0
    7.2524  -17.8025   21.0299 C   0  0  0  0  0  0  0  0  0  0  0  0
    7.7274  -17.8608   22.4521 C   0  0  2  0  0  0  0  0  0  0  0  0
    7.2209  -16.6537   23.1202 N   0  0  0  0  0  0  0  0  0  0  0  0
    9.2232  -17.8889   22.5426 C   0  0  0  0  0  0  0  0  0  0  0  0
    9.8755  -18.9239   22.2619 O   0  0  0  0  0  0  0  0  0  0  0  0
   11.8629  -15.2296   22.7253 C   0  0  0  0  0  0  0  0  0  0  0  0
   11.3866  -16.6386   22.9910 C   0  0  2  0  0  0  0  0  0  0  0  0
    9.9445  -16.7433   22.9491 N   0  0  0  0  0  0  0  0  0  0  0  0
   11.8902  -17.1910   24.2446 C   0  0  0  0  0  0  0  0  0  0  0  0
   11.0966  -17.5525   25.1410 O   0  0  0  0  0  0  0  0  0  0  0  0
   13.2486  -17.3294   24.4751 O   0  0  0  0  0  0  0  0  0  0  0  0
  1  2  1  0
  2  3  1  0
  3  4  1  6
  5  3  1  0
  5  7  1  0
  5  6  1  1
  7  8  2  0
 10  9  1  6
 11  7  1  0
 11 10  1  0
 12 10  1  0
 12 16  1  0
 13 12  2  0
 15 14  1  1
 16 15  1  0
 17 15  1  0
 18 17  2  0
 19 17  1  0
M  END
$$$$
