IAA.pdb
     RDKit          3D

 19 18  0  0  1  0  0  0  0  0999 V2000
    9.1562  -16.9957   14.0134 C   0  0  0  0  0  0  0  0  0  0  0  0
    8.3747  -15.9257   14.6910 C   0  0  0  0  0  0  0  0  0  0  0  0
    8.7743  -15.5892   16.0777 C   0  0  2  0  0  0  0  0  0  0  0  0
    8.6310  -16.8597   16.9197 C   0  0  0  0  0  0  0  0  0  0  0  0
    8.0663  -14.5044   16.7711 C   0  0  2  0  0  0  0  0  0  0  0  0
    8.0719  -13.2701   16.0216 N   0  0  0  0  0  0  0  0  0  0  0  0
    8.4383  -14.3002   18.1872 C   0  0  0  0  0  0  0  0  0  0  0  0
    9.5306  -13.7645   18.5355 O   0  0  0  0  0  0  0  0  0  0  0  0
    6.6644  -14.3721   21.4335 C   0  0  0  0  0  0  0  0  0  0  0  0
    7.9486  -14.4348   20.6599 C   0  0  2  0  0  0  0  0  0  0  0  0
    7.5896  -14.6940   19.2585 N   0  0  0  0  0  0  0  0  0  0  0  0
    8.8474  -15.5279   21.1535 C   0  0  0  0  0  0  0  0  0  0  0  0
    9.3274  -15.5056   22.3131 O   0  0  0  0  0  0  0  0  0  0  0  0
    9.6796  -18.9824   19.8794 C   0  0  0  0  0  0  0  0  0  0  0  0
    9.9701  -17.7641   20.7244 C   0  0  2  0  0  0  0  0  0  0  0  0
    9.1810  -16.6207   20.3213 N   0  0  0  0  0  0  0  0  0  0  0  0
   11.3850  -17.4072   20.7551 C   0  0  0  0  0  0  0  0  0  0  0  0
   12.2386  -18.2363   21.1394 O   0  0  0  0  0  0  0  0  0  0  0  0
   11.8185  -16.1518   20.3630 O   0  0  0  0  0  0  0  0  0  0  0  0
  1  2  1  0
  2  3  1  0
  3  4  1  1
  5  3  1  0
  5  7  1  0
  5  6  1  6
  7  8  2  0
 10  9  1  1
 11  7  1  0
 11 10  1  0
 12 10  1  0
 12 16  1  0
 13 12  2  0
 15 14  1  6
 16 15  1  0
 17 15  1  0
 18 17  2  0
 19 17  1  0
M  END
$$$$
