IAA.pdb
     RDKit          3D

 19 18  0  0  1  0  0  0  0  0999 V2000
    8.1910  -12.1215   19.3823 C   0  0  0  0  0  0  0  0  0  0  0  0
    7.4620  -13.3607   19.7668 C   0  0  0  0  0  0  0  0  0  0  0  0
    7.6400  -13.8297   21.1611 C   0  0  2  0  0  0  0  0  0  0  0  0
    9.1391  -14.0405   21.3885 C   0  0  0  0  0  0  0  0  0  0  0  0
    6.9413  -15.0495   21.5884 C   0  0  2  0  0  0  0  0  0  0  0  0
    5.5891  -15.1194   21.0865 N   0  0  0  0  0  0  0  0  0  0  0  0
    7.0183  -15.3585   23.0321 C   0  0  0  0  0  0  0  0  0  0  0  0
    6.7348  -14.5106   23.9276 O   0  0  0  0  0  0  0  0  0  0  0  0
    6.6409  -17.9599   25.3393 C   0  0  0  0  0  0  0  0  0  0  0  0
    7.6170  -16.8896   24.9477 C   0  0  2  0  0  0  0  0  0  0  0  0
    7.4182  -16.6357   23.5138 N   0  0  0  0  0  0  0  0  0  0  0  0
    9.0355  -17.3102   25.1865 C   0  0  0  0  0  0  0  0  0  0  0  0
    9.4775  -17.4890   26.3477 O   0  0  0  0  0  0  0  0  0  0  0  0
   11.7354  -18.9422   23.2680 C   0  0  0  0  0  0  0  0  0  0  0  0
   11.3228  -17.8492   24.2260 C   0  0  2  0  0  0  0  0  0  0  0  0
    9.9200  -17.5184   24.1038 N   0  0  0  0  0  0  0  0  0  0  0  0
   12.1321  -16.6405   24.1053 C   0  0  0  0  0  0  0  0  0  0  0  0
   13.3517  -16.6653   24.3808 O   0  0  0  0  0  0  0  0  0  0  0  0
   11.5776  -15.4428   23.6862 O   0  0  0  0  0  0  0  0  0  0  0  0
  1  2  1  0
  2  3  1  0
  3  4  1  6
  5  3  1  0
  5  7  1  0
  5  6  1  1
  7  8  2  0
 10  9  1  6
 11  7  1  0
 11 10  1  0
 12 10  1  0
 12 16  1  0
 13 12  2  0
 15 14  1  6
 16 15  1  0
 17 15  1  0
 18 17  2  0
 19 17  1  0
M  END
$$$$
