IAA.pdb
     RDKit          3D

 19 18  0  0  1  0  0  0  0  0999 V2000
    7.4128  -11.9117   19.6008 C   0  0  0  0  0  0  0  0  0  0  0  0
    7.7501  -13.3594   19.6714 C   0  0  0  0  0  0  0  0  0  0  0  0
    7.6376  -14.0029   21.0015 C   0  0  2  0  0  0  0  0  0  0  0  0
    8.6324  -13.3082   21.9351 C   0  0  0  0  0  0  0  0  0  0  0  0
    7.8571  -15.4520   21.1037 C   0  0  2  0  0  0  0  0  0  0  0  0
    6.9191  -16.2126   20.3118 N   0  0  0  0  0  0  0  0  0  0  0  0
    7.9897  -15.9839   22.4767 C   0  0  0  0  0  0  0  0  0  0  0  0
    7.0084  -16.0774   23.2701 O   0  0  0  0  0  0  0  0  0  0  0  0
   10.2500  -18.1110   24.3528 C   0  0  0  0  0  0  0  0  0  0  0  0
    9.3621  -16.9018   24.3861 C   0  0  2  0  0  0  0  0  0  0  0  0
    9.2352  -16.4282   23.0007 N   0  0  0  0  0  0  0  0  0  0  0  0
    9.9363  -15.8082   25.2351 C   0  0  0  0  0  0  0  0  0  0  0  0
   10.9657  -15.1812   24.8848 O   0  0  0  0  0  0  0  0  0  0  0  0
    8.8068  -13.2977   27.5152 C   0  0  0  0  0  0  0  0  0  0  0  0
    9.8066  -14.4192   27.3561 C   0  0  2  0  0  0  0  0  0  0  0  0
    9.3303  -15.4509   26.4611 N   0  0  0  0  0  0  0  0  0  0  0  0
   10.2165  -15.0112   28.6257 C   0  0  0  0  0  0  0  0  0  0  0  0
    9.9104  -16.1919   28.9016 O   0  0  0  0  0  0  0  0  0  0  0  0
   10.9493  -14.2889   29.5524 O   0  0  0  0  0  0  0  0  0  0  0  0
  1  2  1  0
  2  3  1  0
  3  4  1  1
  5  3  1  0
  5  7  1  0
  5  6  1  1
  7  8  2  0
 10  9  1  6
 11  7  1  0
 11 10  1  0
 12 10  1  0
 12 16  1  0
 13 12  2  0
 15 14  1  1
 16 15  1  0
 17 15  1  0
 18 17  2  0
 19 17  1  0
M  END
$$$$
