IAA.pdb
     RDKit          3D

 19 18  0  0  1  0  0  0  0  0999 V2000
    8.0480  -12.3657   19.5815 C   0  0  0  0  0  0  0  0  0  0  0  0
    7.7076  -13.7874   19.8605 C   0  0  0  0  0  0  0  0  0  0  0  0
    7.5065  -14.1550   21.2818 C   0  0  2  0  0  0  0  0  0  0  0  0
    8.7796  -13.7727   22.0412 C   0  0  0  0  0  0  0  0  0  0  0  0
    7.1857  -15.5508   21.6097 C   0  0  2  0  0  0  0  0  0  0  0  0
    6.0008  -16.0219   20.9320 N   0  0  0  0  0  0  0  0  0  0  0  0
    7.1755  -15.8837   23.0500 C   0  0  0  0  0  0  0  0  0  0  0  0
    6.3445  -15.3805   23.8609 O   0  0  0  0  0  0  0  0  0  0  0  0
    8.4219  -18.5408   25.2192 C   0  0  0  0  0  0  0  0  0  0  0  0
    8.1111  -17.0808   25.0658 C   0  0  2  0  0  0  0  0  0  0  0  0
    8.1036  -16.7960   23.6241 N   0  0  0  0  0  0  0  0  0  0  0  0
    9.1343  -16.2165   25.7383 C   0  0  0  0  0  0  0  0  0  0  0  0
   10.2857  -16.0736   25.2593 O   0  0  0  0  0  0  0  0  0  0  0  0
    8.9814  -13.3940   28.1286 C   0  0  0  0  0  0  0  0  0  0  0  0
    9.7120  -14.6157   27.6220 C   0  0  2  0  0  0  0  0  0  0  0  0
    8.8286  -15.5343   26.9380 N   0  0  0  0  0  0  0  0  0  0  0  0
   10.4519  -15.3192   28.6651 C   0  0  0  0  0  0  0  0  0  0  0  0
   11.3419  -14.7302   29.3167 O   0  0  0  0  0  0  0  0  0  0  0  0
   10.1917  -16.6469   28.9602 O   0  0  0  0  0  0  0  0  0  0  0  0
  1  2  1  0
  2  3  1  0
  3  4  1  1
  5  3  1  0
  5  7  1  0
  5  6  1  1
  7  8  2  0
 10  9  1  6
 11  7  1  0
 11 10  1  0
 12 10  1  0
 12 16  1  0
 13 12  2  0
 15 14  1  1
 16 15  1  0
 17 15  1  0
 18 17  2  0
 19 17  1  0
M  END
$$$$
