IAA.pdb
     RDKit          3D

 19 18  0  0  1  0  0  0  0  0999 V2000
    7.4554  -11.9303   27.4520 C   0  0  0  0  0  0  0  0  0  0  0  0
    6.5644  -12.9611   26.8535 C   0  0  0  0  0  0  0  0  0  0  0  0
    7.1628  -13.8348   25.8170 C   0  0  2  0  0  0  0  0  0  0  0  0
    7.7026  -12.9294   24.7067 C   0  0  0  0  0  0  0  0  0  0  0  0
    6.3215  -14.8646   25.1924 C   0  0  2  0  0  0  0  0  0  0  0  0
    5.6095  -15.6631   26.1623 N   0  0  0  0  0  0  0  0  0  0  0  0
    6.9836  -15.6942   24.1633 C   0  0  0  0  0  0  0  0  0  0  0  0
    7.3074  -16.9009   24.3640 O   0  0  0  0  0  0  0  0  0  0  0  0
    7.5591  -15.3056   20.5037 C   0  0  0  0  0  0  0  0  0  0  0  0
    7.7186  -16.0795   21.7793 C   0  0  2  0  0  0  0  0  0  0  0  0
    7.3029  -15.1894   22.8724 N   0  0  0  0  0  0  0  0  0  0  0  0
    9.1374  -16.5094   22.0002 C   0  0  0  0  0  0  0  0  0  0  0  0
    9.6901  -17.3496   21.2492 O   0  0  0  0  0  0  0  0  0  0  0  0
   12.0958  -15.1670   23.7940 C   0  0  0  0  0  0  0  0  0  0  0  0
   11.2535  -16.3559   23.3942 C   0  0  2  0  0  0  0  0  0  0  0  0
    9.8964  -15.9769   23.0672 N   0  0  0  0  0  0  0  0  0  0  0  0
   11.2467  -17.4201   24.3931 C   0  0  0  0  0  0  0  0  0  0  0  0
   10.1727  -17.7913   24.9152 O   0  0  0  0  0  0  0  0  0  0  0  0
   12.4186  -18.0434   24.7875 O   0  0  0  0  0  0  0  0  0  0  0  0
  1  2  1  0
  2  3  1  0
  3  4  1  6
  5  3  1  0
  5  7  1  0
  5  6  1  1
  7  8  2  0
 10  9  1  6
 11  7  1  0
 11 10  1  0
 12 10  1  0
 12 16  1  0
 13 12  2  0
 15 14  1  1
 16 15  1  0
 17 15  1  0
 18 17  2  0
 19 17  1  0
M  END
$$$$
