IAA.pdb
     RDKit          3D

 19 18  0  0  1  0  0  0  0  0999 V2000
    7.7382  -11.2520   26.4188 C   0  0  0  0  0  0  0  0  0  0  0  0
    6.7219  -12.3363   26.3410 C   0  0  0  0  0  0  0  0  0  0  0  0
    7.1976  -13.6593   25.8729 C   0  0  2  0  0  0  0  0  0  0  0  0
    7.8837  -13.4502   24.5204 C   0  0  0  0  0  0  0  0  0  0  0  0
    6.2205  -14.7460   25.7216 C   0  0  2  0  0  0  0  0  0  0  0  0
    5.3084  -14.8318   26.8379 N   0  0  0  0  0  0  0  0  0  0  0  0
    6.7809  -16.0641   25.3553 C   0  0  0  0  0  0  0  0  0  0  0  0
    7.3910  -16.8005   26.1840 O   0  0  0  0  0  0  0  0  0  0  0  0
    6.4951  -18.3528   22.4371 C   0  0  0  0  0  0  0  0  0  0  0  0
    7.1752  -17.9356   23.7079 C   0  0  2  0  0  0  0  0  0  0  0  0
    6.6718  -16.5955   24.0404 N   0  0  0  0  0  0  0  0  0  0  0  0
    8.6653  -17.8834   23.5549 C   0  0  0  0  0  0  0  0  0  0  0  0
    9.3753  -18.9054   23.7192 O   0  0  0  0  0  0  0  0  0  0  0  0
   11.0843  -15.3224   22.1865 C   0  0  0  0  0  0  0  0  0  0  0  0
   10.7432  -16.5160   23.0478 C   0  0  2  0  0  0  0  0  0  0  0  0
    9.3157  -16.6742   23.2192 N   0  0  0  0  0  0  0  0  0  0  0  0
   11.4021  -16.4948   24.3501 C   0  0  0  0  0  0  0  0  0  0  0  0
   10.7254  -16.4827   25.4016 O   0  0  0  0  0  0  0  0  0  0  0  0
   12.7827  -16.4876   24.4573 O   0  0  0  0  0  0  0  0  0  0  0  0
  1  2  1  0
  2  3  1  0
  3  4  1  6
  5  3  1  0
  5  7  1  0
  5  6  1  1
  7  8  2  0
 10  9  1  6
 11  7  1  0
 11 10  1  0
 12 10  1  0
 12 16  1  0
 13 12  2  0
 15 14  1  1
 16 15  1  0
 17 15  1  0
 18 17  2  0
 19 17  1  0
M  END
$$$$
