IAA.pdb
     RDKit          3D

 19 18  0  0  1  0  0  0  0  0999 V2000
    5.4261  -11.2289   26.9107 C   0  0  0  0  0  0  0  0  0  0  0  0
    5.4147  -12.4268   26.0277 C   0  0  0  0  0  0  0  0  0  0  0  0
    6.7282  -13.0459   25.7321 C   0  0  2  0  0  0  0  0  0  0  0  0
    7.5789  -11.9985   25.0088 C   0  0  0  0  0  0  0  0  0  0  0  0
    6.7616  -14.2823   24.9392 C   0  0  2  0  0  0  0  0  0  0  0  0
    5.8380  -15.2795   25.4268 N   0  0  0  0  0  0  0  0  0  0  0  0
    8.1057  -14.8426   24.6838 C   0  0  0  0  0  0  0  0  0  0  0  0
    9.1035  -14.1191   24.3970 O   0  0  0  0  0  0  0  0  0  0  0  0
   10.1231  -16.1414   23.1302 C   0  0  0  0  0  0  0  0  0  0  0  0
    9.6919  -16.7876   24.4140 C   0  0  2  0  0  0  0  0  0  0  0  0
    8.3688  -16.2392   24.7435 N   0  0  0  0  0  0  0  0  0  0  0  0
   10.6438  -16.4974   25.5347 C   0  0  0  0  0  0  0  0  0  0  0  0
   11.8709  -16.7396   25.4291 O   0  0  0  0  0  0  0  0  0  0  0  0
   10.5019  -14.2586   28.5078 C   0  0  0  0  0  0  0  0  0  0  0  0
   11.0273  -15.5085   27.8411 C   0  0  2  0  0  0  0  0  0  0  0  0
   10.1827  -15.9395   26.7488 N   0  0  0  0  0  0  0  0  0  0  0  0
   11.2406  -16.6125   28.7717 C   0  0  0  0  0  0  0  0  0  0  0  0
   11.9896  -16.4692   29.7628 O   0  0  0  0  0  0  0  0  0  0  0  0
   10.6253  -17.8390   28.5853 O   0  0  0  0  0  0  0  0  0  0  0  0
  1  2  1  0
  2  3  1  0
  3  4  1  6
  5  3  1  0
  5  7  1  0
  5  6  1  1
  7  8  2  0
 10  9  1  6
 11  7  1  0
 11 10  1  0
 12 10  1  0
 12 16  1  0
 13 12  2  0
 15 14  1  1
 16 15  1  0
 17 15  1  0
 18 17  2  0
 19 17  1  0
M  END
$$$$
