IAA.pdb
     RDKit          3D

 19 18  0  0  1  0  0  0  0  0999 V2000
    7.9429  -12.2810   27.3337 C   0  0  0  0  0  0  0  0  0  0  0  0
    6.9612  -13.2724   26.8159 C   0  0  0  0  0  0  0  0  0  0  0  0
    7.4233  -14.1521   25.7167 C   0  0  2  0  0  0  0  0  0  0  0  0
    7.8528  -13.2517   24.5554 C   0  0  0  0  0  0  0  0  0  0  0  0
    6.4981  -15.1632   25.1873 C   0  0  2  0  0  0  0  0  0  0  0  0
    5.9307  -15.9932   26.2239 N   0  0  0  0  0  0  0  0  0  0  0  0
    7.0030  -15.9587   24.0481 C   0  0  0  0  0  0  0  0  0  0  0  0
    7.4621  -17.1301   24.1839 O   0  0  0  0  0  0  0  0  0  0  0  0
    6.9470  -15.5913   20.3357 C   0  0  0  0  0  0  0  0  0  0  0  0
    7.3944  -16.3035   21.5783 C   0  0  2  0  0  0  0  0  0  0  0  0
    7.0071  -15.4584   22.7166 N   0  0  0  0  0  0  0  0  0  0  0  0
    8.8779  -16.5163   21.5988 C   0  0  0  0  0  0  0  0  0  0  0  0
    9.4414  -17.2704   20.7686 O   0  0  0  0  0  0  0  0  0  0  0  0
   11.8435  -14.7366   22.8626 C   0  0  0  0  0  0  0  0  0  0  0  0
   11.1156  -16.0510   22.7038 C   0  0  2  0  0  0  0  0  0  0  0  0
    9.6878  -15.8693   22.5598 N   0  0  0  0  0  0  0  0  0  0  0  0
   11.3914  -16.9971   23.7805 C   0  0  0  0  0  0  0  0  0  0  0  0
   10.4647  -17.4150   24.5087 O   0  0  0  0  0  0  0  0  0  0  0  0
   12.6755  -17.4546   24.0242 O   0  0  0  0  0  0  0  0  0  0  0  0
  1  2  1  0
  2  3  1  0
  3  4  1  6
  5  3  1  0
  5  7  1  0
  5  6  1  1
  7  8  2  0
 10  9  1  6
 11  7  1  0
 11 10  1  0
 12 10  1  0
 12 16  1  0
 13 12  2  0
 15 14  1  1
 16 15  1  0
 17 15  1  0
 18 17  2  0
 19 17  1  0
M  END
$$$$
