IAA.pdb
     RDKit          3D

 19 18  0  0  1  0  0  0  0  0999 V2000
    7.8063  -12.1323   20.8084 C   0  0  0  0  0  0  0  0  0  0  0  0
    7.4390  -13.3588   20.0498 C   0  0  0  0  0  0  0  0  0  0  0  0
    8.2703  -14.5617   20.2903 C   0  0  2  0  0  0  0  0  0  0  0  0
    9.7224  -14.1875   19.9821 C   0  0  0  0  0  0  0  0  0  0  0  0
    7.9547  -15.7943   19.5557 C   0  0  2  0  0  0  0  0  0  0  0  0
    6.5478  -16.1176   19.5924 N   0  0  0  0  0  0  0  0  0  0  0  0
    8.8049  -16.9621   19.8703 C   0  0  0  0  0  0  0  0  0  0  0  0
    8.4742  -17.8375   20.7221 O   0  0  0  0  0  0  0  0  0  0  0  0
   11.6405  -18.6476   18.2162 C   0  0  0  0  0  0  0  0  0  0  0  0
   10.8292  -18.4123   19.4564 C   0  0  2  0  0  0  0  0  0  0  0  0
   10.0579  -17.1812   19.2337 N   0  0  0  0  0  0  0  0  0  0  0  0
   11.6945  -18.2447   20.6686 C   0  0  0  0  0  0  0  0  0  0  0  0
   12.6270  -19.0459   20.9217 O   0  0  0  0  0  0  0  0  0  0  0  0
   13.5231  -16.1710   22.4899 C   0  0  0  0  0  0  0  0  0  0  0  0
   12.2474  -16.9308   22.7693 C   0  0  2  0  0  0  0  0  0  0  0  0
   11.4827  -17.1730   21.5656 N   0  0  0  0  0  0  0  0  0  0  0  0
   11.4042  -16.2925   23.7753 C   0  0  0  0  0  0  0  0  0  0  0  0
   10.2321  -15.9565   23.4979 O   0  0  0  0  0  0  0  0  0  0  0  0
   11.8739  -16.0432   25.0539 O   0  0  0  0  0  0  0  0  0  0  0  0
  1  2  1  0
  2  3  1  0
  3  4  1  6
  5  3  1  0
  5  7  1  0
  5  6  1  1
  7  8  2  0
 10  9  1  6
 11  7  1  0
 11 10  1  0
 12 10  1  0
 12 16  1  0
 13 12  2  0
 15 14  1  6
 16 15  1  0
 17 15  1  0
 18 17  2  0
 19 17  1  0
M  END
$$$$
