IAA.pdb
     RDKit          3D

 19 18  0  0  1  0  0  0  0  0999 V2000
    5.5993  -11.6027   26.5833 C   0  0  0  0  0  0  0  0  0  0  0  0
    5.4924  -12.8573   25.7901 C   0  0  0  0  0  0  0  0  0  0  0  0
    6.7031  -13.7094   25.7296 C   0  0  2  0  0  0  0  0  0  0  0  0
    7.8246  -12.8731   25.1080 C   0  0  0  0  0  0  0  0  0  0  0  0
    6.6319  -14.9836   25.0017 C   0  0  2  0  0  0  0  0  0  0  0  0
    5.4774  -15.7692   25.3693 N   0  0  0  0  0  0  0  0  0  0  0  0
    7.8738  -15.7857   24.9927 C   0  0  0  0  0  0  0  0  0  0  0  0
    8.0672  -16.7531   25.7851 O   0  0  0  0  0  0  0  0  0  0  0  0
   10.9690  -15.9038   22.8939 C   0  0  0  0  0  0  0  0  0  0  0  0
   10.1628  -16.3375   24.0828 C   0  0  2  0  0  0  0  0  0  0  0  0
    8.9399  -15.5224   24.0886 N   0  0  0  0  0  0  0  0  0  0  0  0
   10.9047  -16.1306   25.3685 C   0  0  0  0  0  0  0  0  0  0  0  0
   12.0300  -16.6508   25.5647 O   0  0  0  0  0  0  0  0  0  0  0  0
   10.4879  -13.8386   28.3390 C   0  0  0  0  0  0  0  0  0  0  0  0
   10.9578  -15.1237   27.6984 C   0  0  2  0  0  0  0  0  0  0  0  0
   10.3537  -15.3389   26.4018 N   0  0  0  0  0  0  0  0  0  0  0  0
   10.7559  -16.2968   28.5430 C   0  0  0  0  0  0  0  0  0  0  0  0
   11.3109  -16.3749   29.6609 O   0  0  0  0  0  0  0  0  0  0  0  0
    9.9514  -17.3472   28.1343 O   0  0  0  0  0  0  0  0  0  0  0  0
  1  2  1  0
  2  3  1  0
  3  4  1  6
  5  3  1  0
  5  7  1  0
  5  6  1  1
  7  8  2  0
 10  9  1  6
 11  7  1  0
 11 10  1  0
 12 10  1  0
 12 16  1  0
 13 12  2  0
 15 14  1  1
 16 15  1  0
 17 15  1  0
 18 17  2  0
 19 17  1  0
M  END
$$$$
