VDK.pdb
     RDKit          3D

 25 24  0  0  1  0  0  0  0  0999 V2000
   26.0237  -16.3172  -18.0339 C   0  0  0  0  0  0  0  0  0  0  0  0
   26.7753  -17.4369  -17.3917 C   0  0  2  0  0  0  0  0  0  0  0  0
   27.9482  -17.8916  -18.2484 C   0  0  0  0  0  0  0  0  0  0  0  0
   25.9061  -18.6541  -17.1416 C   0  0  2  0  0  0  0  0  0  0  0  0
   25.5378  -19.2644  -18.4059 N   0  0  0  0  0  0  0  0  0  0  0  0
   24.6947  -18.3279  -16.3765 C   0  0  0  0  0  0  0  0  0  0  0  0
   24.7031  -17.7864  -15.2444 O   0  0  0  0  0  0  0  0  0  0  0  0
   23.3802  -18.6199  -16.8974 N   0  0  0  0  0  0  0  0  0  0  0  0
   22.1804  -18.2828  -16.2012 C   0  0  1  0  0  0  0  0  0  0  0  0
   21.7779  -16.8388  -16.3596 C   0  0  0  0  0  0  0  0  0  0  0  0
   20.5830  -16.4886  -15.5674 C   0  0  0  0  0  0  0  0  0  0  0  0
   19.6131  -15.9792  -16.1809 O   0  0  0  0  0  0  0  0  0  0  0  0
   21.0483  -19.1846  -16.5405 C   0  0  0  0  0  0  0  0  0  0  0  0
   20.6997  -19.3387  -17.7398 O   0  0  0  0  0  0  0  0  0  0  0  0
   20.4509  -16.6771  -14.2113 O   0  0  0  0  0  0  0  0  0  0  0  0
   20.3551  -19.8732  -15.5380 N   0  0  0  0  0  0  0  0  0  0  0  0
   19.1797  -20.7142  -15.7923 C   0  0  1  0  0  0  0  0  0  0  0  0
   19.1693  -21.7412  -14.6837 C   0  0  0  0  0  0  0  0  0  0  0  0
   20.1680  -22.8392  -14.8561 C   0  0  0  0  0  0  0  0  0  0  0  0
   20.0887  -23.7745  -13.6747 C   0  0  0  0  0  0  0  0  0  0  0  0
   18.6819  -24.3373  -13.5504 C   0  0  0  0  0  0  0  0  0  0  0  0
   18.6169  -25.2472  -12.4188 N   0  0  0  0  0  0  0  0  0  0  0  0
   17.9865  -19.8398  -15.7432 C   0  0  0  0  0  0  0  0  0  0  0  0
   18.0950  -18.4632  -15.4918 O   0  0  0  0  0  0  0  0  0  0  0  0
   16.8490  -20.3300  -15.9289 O   0  0  0  0  0  0  0  0  0  0  0  0
  2  1  1  6
  3  2  1  0
  4  2  1  0
  4  6  1  0
  4  5  1  6
  6  7  2  0
  8  9  1  0
  8  6  1  0
 10 11  1  0
  9 10  1  6
 11 12  2  0
 13  9  1  0
 13 14  2  0
 15 11  1  0
 16 13  1  0
 17 16  1  0
 17 23  1  0
 17 18  1  1
 19 18  1  0
 20 19  1  0
 21 22  1  0
 21 20  1  0
 23 25  2  0
 23 24  1  0
M  END
$$$$
