VDK.pdb
     RDKit          3D

 25 24  0  0  1  0  0  0  0  0999 V2000
   20.9832  -10.2880  -20.8700 C   0  0  0  0  0  0  0  0  0  0  0  0
   22.2360  -10.8716  -20.3034 C   0  0  2  0  0  0  0  0  0  0  0  0
   22.7554  -12.0222  -21.1538 C   0  0  0  0  0  0  0  0  0  0  0  0
   22.0460  -11.4057  -18.8969 C   0  0  2  0  0  0  0  0  0  0  0  0
   21.3661  -12.6870  -18.9443 N   0  0  0  0  0  0  0  0  0  0  0  0
   21.2936  -10.4758  -18.0433 C   0  0  0  0  0  0  0  0  0  0  0  0
   20.0411  -10.4434  -17.9729 O   0  0  0  0  0  0  0  0  0  0  0  0
   21.9714   -9.5130  -17.2077 N   0  0  0  0  0  0  0  0  0  0  0  0
   21.2840   -8.4709  -16.5151 C   0  0  1  0  0  0  0  0  0  0  0  0
   21.5211   -8.4792  -15.0265 C   0  0  0  0  0  0  0  0  0  0  0  0
   20.6512   -7.5309  -14.3042 C   0  0  0  0  0  0  0  0  0  0  0  0
   20.9003   -7.3292  -13.0902 O   0  0  0  0  0  0  0  0  0  0  0  0
   21.5600   -7.1256  -17.0842 C   0  0  0  0  0  0  0  0  0  0  0  0
   22.7462   -6.7353  -17.2390 O   0  0  0  0  0  0  0  0  0  0  0  0
   19.5904   -6.8525  -14.8580 O   0  0  0  0  0  0  0  0  0  0  0  0
   20.5114   -6.2755  -17.4552 N   0  0  0  0  0  0  0  0  0  0  0  0
   20.7042   -5.0151  -18.1819 C   0  0  1  0  0  0  0  0  0  0  0  0
   19.3501   -4.6678  -18.7560 C   0  0  0  0  0  0  0  0  0  0  0  0
   19.3300   -3.4083  -19.5597 C   0  0  0  0  0  0  0  0  0  0  0  0
   17.9131   -3.1119  -19.9856 C   0  0  0  0  0  0  0  0  0  0  0  0
   17.8767   -1.8457  -20.8262 C   0  0  0  0  0  0  0  0  0  0  0  0
   16.4971   -1.4502  -21.0563 N   0  0  0  0  0  0  0  0  0  0  0  0
   21.1636   -4.0026  -17.2050 C   0  0  0  0  0  0  0  0  0  0  0  0
   21.9698   -2.9211  -17.5927 O   0  0  0  0  0  0  0  0  0  0  0  0
   20.8306   -4.1043  -16.0019 O   0  0  0  0  0  0  0  0  0  0  0  0
  2  1  1  6
  3  2  1  0
  4  2  1  0
  4  6  1  0
  4  5  1  6
  6  7  2  0
  8  9  1  0
  8  6  1  0
 10 11  1  0
  9 10  1  1
 11 12  2  0
 13  9  1  0
 13 14  2  0
 15 11  1  0
 16 13  1  0
 17 16  1  0
 17 23  1  0
 17 18  1  1
 19 18  1  0
 20 19  1  0
 21 22  1  0
 21 20  1  0
 23 25  2  0
 23 24  1  0
M  END
$$$$
