VDK.pdb
     RDKit          3D

 25 24  0  0  1  0  0  0  0  0999 V2000
   27.9376  -18.2352  -15.5719 C   0  0  0  0  0  0  0  0  0  0  0  0
   26.7961  -19.1970  -15.6266 C   0  0  2  0  0  0  0  0  0  0  0  0
   27.0933  -20.3712  -16.5485 C   0  0  0  0  0  0  0  0  0  0  0  0
   25.5151  -18.5536  -16.1212 C   0  0  2  0  0  0  0  0  0  0  0  0
   25.4687  -17.1644  -15.7037 N   0  0  0  0  0  0  0  0  0  0  0  0
   24.3163  -19.2559  -15.6428 C   0  0  0  0  0  0  0  0  0  0  0  0
   24.0355  -20.4442  -15.9324 O   0  0  0  0  0  0  0  0  0  0  0  0
   23.3589  -18.6005  -14.7834 N   0  0  0  0  0  0  0  0  0  0  0  0
   22.2009  -19.2601  -14.2716 C   0  0  1  0  0  0  0  0  0  0  0  0
   21.8511  -18.8554  -12.8624 C   0  0  0  0  0  0  0  0  0  0  0  0
   21.8095  -20.0008  -11.9327 C   0  0  0  0  0  0  0  0  0  0  0  0
   22.4436  -19.8920  -10.8545 O   0  0  0  0  0  0  0  0  0  0  0  0
   21.0214  -19.1236  -15.1661 C   0  0  0  0  0  0  0  0  0  0  0  0
   20.8349  -18.0582  -15.8092 O   0  0  0  0  0  0  0  0  0  0  0  0
   21.1305  -21.1759  -12.1565 O   0  0  0  0  0  0  0  0  0  0  0  0
   20.1039  -20.1716  -15.3073 N   0  0  0  0  0  0  0  0  0  0  0  0
   18.9369  -20.1170  -16.1954 C   0  0  1  0  0  0  0  0  0  0  0  0
   18.8106  -21.5034  -16.7834 C   0  0  0  0  0  0  0  0  0  0  0  0
   17.6905  -21.6549  -17.7607 C   0  0  0  0  0  0  0  0  0  0  0  0
   17.6729  -23.0705  -18.2825 C   0  0  0  0  0  0  0  0  0  0  0  0
   16.6255  -23.2089  -19.3757 C   0  0  0  0  0  0  0  0  0  0  0  0
   16.7759  -24.4940  -20.0381 N   0  0  0  0  0  0  0  0  0  0  0  0
   17.7625  -19.7616  -15.3675 C   0  0  0  0  0  0  0  0  0  0  0  0
   16.6052  -19.2063  -15.9350 O   0  0  0  0  0  0  0  0  0  0  0  0
   17.7924  -19.9570  -14.1308 O   0  0  0  0  0  0  0  0  0  0  0  0
  2  1  1  6
  3  2  1  0
  4  2  1  0
  4  6  1  0
  4  5  1  1
  6  7  2  0
  8  9  1  0
  8  6  1  0
 10 11  1  0
  9 10  1  1
 11 12  2  0
 13  9  1  0
 13 14  2  0
 15 11  1  0
 16 13  1  0
 17 16  1  0
 17 23  1  0
 17 18  1  1
 19 18  1  0
 20 19  1  0
 21 22  1  0
 21 20  1  0
 23 25  2  0
 23 24  1  0
M  END
$$$$
