VDK.pdb
     RDKit          3D

 25 24  0  0  1  0  0  0  0  0999 V2000
   19.3203  -17.6771  -18.4904 C   0  0  0  0  0  0  0  0  0  0  0  0
   18.4866  -17.2541  -17.3254 C   0  0  2  0  0  0  0  0  0  0  0  0
   17.1020  -16.7963  -17.7612 C   0  0  0  0  0  0  0  0  0  0  0  0
   19.1103  -16.1122  -16.5465 C   0  0  2  0  0  0  0  0  0  0  0  0
   18.8134  -16.2600  -15.1336 N   0  0  0  0  0  0  0  0  0  0  0  0
   18.6490  -14.7983  -17.0158 C   0  0  0  0  0  0  0  0  0  0  0  0
   18.8343  -14.3624  -18.1779 O   0  0  0  0  0  0  0  0  0  0  0  0
   17.9322  -13.9013  -16.1405 N   0  0  0  0  0  0  0  0  0  0  0  0
   17.5417  -12.5856  -16.5336 C   0  0  1  0  0  0  0  0  0  0  0  0
   16.2730  -12.1113  -15.8721 C   0  0  0  0  0  0  0  0  0  0  0  0
   15.1426  -13.0383  -16.0737 C   0  0  0  0  0  0  0  0  0  0  0  0
   14.6282  -13.5520  -15.0500 O   0  0  0  0  0  0  0  0  0  0  0  0
   18.6303  -11.5885  -16.3589 C   0  0  0  0  0  0  0  0  0  0  0  0
   19.2815  -11.5446  -15.2830 O   0  0  0  0  0  0  0  0  0  0  0  0
   14.6105  -13.3820  -17.2947 O   0  0  0  0  0  0  0  0  0  0  0  0
   18.9476  -10.6870  -17.3819 N   0  0  0  0  0  0  0  0  0  0  0  0
   20.0032   -9.6732  -17.2745 C   0  0  1  0  0  0  0  0  0  0  0  0
   20.3572   -9.3052  -18.6969 C   0  0  0  0  0  0  0  0  0  0  0  0
   21.3860   -8.2278  -18.8133 C   0  0  0  0  0  0  0  0  0  0  0  0
   21.7653   -8.0560  -20.2635 C   0  0  0  0  0  0  0  0  0  0  0  0
   22.8265   -6.9759  -20.3991 C   0  0  0  0  0  0  0  0  0  0  0  0
   23.2640   -6.8903  -21.7826 N   0  0  0  0  0  0  0  0  0  0  0  0
   19.4424   -8.5222  -16.5320 C   0  0  0  0  0  0  0  0  0  0  0  0
   20.2545   -7.6887  -15.7472 O   0  0  0  0  0  0  0  0  0  0  0  0
   18.2159   -8.2778  -16.5990 O   0  0  0  0  0  0  0  0  0  0  0  0
  2  1  1  6
  3  2  1  0
  4  2  1  0
  4  6  1  0
  4  5  1  1
  6  7  2  0
  8  9  1  0
  8  6  1  0
 10 11  1  0
  9 10  1  1
 11 12  2  0
 13  9  1  0
 13 14  2  0
 15 11  1  0
 16 13  1  0
 17 16  1  0
 17 23  1  0
 17 18  1  6
 19 18  1  0
 20 19  1  0
 21 22  1  0
 21 20  1  0
 23 25  2  0
 23 24  1  0
M  END
$$$$
