VDK.pdb
     RDKit          3D

 25 24  0  0  1  0  0  0  0  0999 V2000
   27.1819  -20.9635  -12.4871 C   0  0  0  0  0  0  0  0  0  0  0  0
   25.7087  -20.8977  -12.2498 C   0  0  2  0  0  0  0  0  0  0  0  0
   25.2469  -21.9737  -11.2773 C   0  0  0  0  0  0  0  0  0  0  0  0
   24.9048  -21.0719  -13.5237 C   0  0  2  0  0  0  0  0  0  0  0  0
   25.3815  -20.1485  -14.5369 N   0  0  0  0  0  0  0  0  0  0  0  0
   23.4652  -20.8716  -13.3076 C   0  0  0  0  0  0  0  0  0  0  0  0
   22.9768  -19.8977  -12.6849 O   0  0  0  0  0  0  0  0  0  0  0  0
   22.4951  -21.8131  -13.8146 N   0  0  0  0  0  0  0  0  0  0  0  0
   21.0946  -21.6891  -13.5667 C   0  0  1  0  0  0  0  0  0  0  0  0
   20.3107  -21.2170  -14.7646 C   0  0  0  0  0  0  0  0  0  0  0  0
   20.5568  -19.7977  -15.0852 C   0  0  0  0  0  0  0  0  0  0  0  0
   20.2246  -18.9459  -14.2247 O   0  0  0  0  0  0  0  0  0  0  0  0
   20.4999  -22.9303  -13.0050 C   0  0  0  0  0  0  0  0  0  0  0  0
   20.7109  -24.0401  -13.5594 O   0  0  0  0  0  0  0  0  0  0  0  0
   21.1212  -19.3375  -16.2522 O   0  0  0  0  0  0  0  0  0  0  0  0
   19.7002  -22.8859  -11.8568 N   0  0  0  0  0  0  0  0  0  0  0  0
   19.1650  -24.0795  -11.1914 C   0  0  1  0  0  0  0  0  0  0  0  0
   18.9308  -23.6715   -9.7553 C   0  0  0  0  0  0  0  0  0  0  0  0
   18.4238  -24.7716   -8.8805 C   0  0  0  0  0  0  0  0  0  0  0  0
   18.2860  -24.2610   -7.4674 C   0  0  0  0  0  0  0  0  0  0  0  0
   17.9116  -25.4026   -6.5359 C   0  0  0  0  0  0  0  0  0  0  0  0
   17.9358  -24.9388   -5.1586 N   0  0  0  0  0  0  0  0  0  0  0  0
   17.9022  -24.4419  -11.8731 C   0  0  0  0  0  0  0  0  0  0  0  0
   17.0404  -23.4627  -12.3912 O   0  0  0  0  0  0  0  0  0  0  0  0
   17.5864  -25.6476  -11.9957 O   0  0  0  0  0  0  0  0  0  0  0  0
  2  1  1  6
  3  2  1  0
  4  2  1  0
  4  6  1  0
  4  5  1  6
  6  7  2  0
  8  9  1  0
  8  6  1  0
 10 11  1  0
  9 10  1  6
 11 12  2  0
 13  9  1  0
 13 14  2  0
 15 11  1  0
 16 13  1  0
 17 16  1  0
 17 23  1  0
 17 18  1  1
 19 18  1  0
 20 19  1  0
 21 22  1  0
 21 20  1  0
 23 25  2  0
 23 24  1  0
M  END
$$$$
