VDK.pdb
     RDKit          3D

 25 24  0  0  1  0  0  0  0  0999 V2000
   29.8855  -12.6093  -21.2200 C   0  0  0  0  0  0  0  0  0  0  0  0
   30.1604  -13.5060  -20.0574 C   0  0  2  0  0  0  0  0  0  0  0  0
   29.2326  -14.7125  -20.0457 C   0  0  0  0  0  0  0  0  0  0  0  0
   29.9935  -12.8008  -18.7254 C   0  0  2  0  0  0  0  0  0  0  0  0
   28.5829  -12.6781  -18.4065 N   0  0  0  0  0  0  0  0  0  0  0  0
   30.6223  -11.4728  -18.7136 C   0  0  0  0  0  0  0  0  0  0  0  0
   31.8451  -11.2725  -18.9123 O   0  0  0  0  0  0  0  0  0  0  0  0
   29.8468  -10.2806  -18.4649 N   0  0  0  0  0  0  0  0  0  0  0  0
   30.4178   -8.9721  -18.4690 C   0  0  1  0  0  0  0  0  0  0  0  0
   29.4392   -7.8895  -18.8467 C   0  0  0  0  0  0  0  0  0  0  0  0
   28.8018   -8.1270  -20.1562 C   0  0  0  0  0  0  0  0  0  0  0  0
   29.5030   -7.9418  -21.1812 O   0  0  0  0  0  0  0  0  0  0  0  0
   31.1009   -8.6410  -17.1909 C   0  0  0  0  0  0  0  0  0  0  0  0
   30.5420   -8.8909  -16.0915 O   0  0  0  0  0  0  0  0  0  0  0  0
   27.5010   -8.5349  -20.3396 O   0  0  0  0  0  0  0  0  0  0  0  0
   32.3697   -8.0494  -17.1887 N   0  0  0  0  0  0  0  0  0  0  0  0
   33.1085   -7.7132  -15.9661 C   0  0  1  0  0  0  0  0  0  0  0  0
   34.3937   -8.5049  -16.0392 C   0  0  0  0  0  0  0  0  0  0  0  0
   35.3083   -8.2974  -14.8760 C   0  0  0  0  0  0  0  0  0  0  0  0
   36.5137   -9.1928  -15.0243 C   0  0  0  0  0  0  0  0  0  0  0  0
   37.4481   -9.0077  -13.8395 C   0  0  0  0  0  0  0  0  0  0  0  0
   38.6768   -9.7512  -14.0641 N   0  0  0  0  0  0  0  0  0  0  0  0
   33.3593   -6.2546  -15.9832 C   0  0  0  0  0  0  0  0  0  0  0  0
   33.1190   -5.4818  -17.1300 O   0  0  0  0  0  0  0  0  0  0  0  0
   33.7962   -5.6873  -14.9557 O   0  0  0  0  0  0  0  0  0  0  0  0
  2  1  1  6
  3  2  1  0
  4  2  1  0
  4  6  1  0
  4  5  1  6
  6  7  2  0
  8  9  1  0
  8  6  1  0
 10 11  1  0
  9 10  1  1
 11 12  2  0
 13  9  1  0
 13 14  2  0
 15 11  1  0
 16 13  1  0
 17 16  1  0
 17 23  1  0
 17 18  1  6
 19 18  1  0
 20 19  1  0
 21 22  1  0
 21 20  1  0
 23 25  2  0
 23 24  1  0
M  END
$$$$
