VDK.pdb
     RDKit          3D

 25 24  0  0  1  0  0  0  0  0999 V2000
   17.7960  -15.4570  -18.2166 C   0  0  0  0  0  0  0  0  0  0  0  0
   19.2498  -15.4727  -18.5593 C   0  0  2  0  0  0  0  0  0  0  0  0
   19.8244  -16.8812  -18.5098 C   0  0  0  0  0  0  0  0  0  0  0  0
   20.0791  -14.6184  -17.6202 C   0  0  2  0  0  0  0  0  0  0  0  0
   20.1193  -15.2296  -16.3045 N   0  0  0  0  0  0  0  0  0  0  0  0
   19.5661  -13.2454  -17.5142 C   0  0  0  0  0  0  0  0  0  0  0  0
   19.4717  -12.4537  -18.4832 O   0  0  0  0  0  0  0  0  0  0  0  0
   19.1258  -12.7076  -16.2486 N   0  0  0  0  0  0  0  0  0  0  0  0
   18.6886  -11.3576  -16.0926 C   0  0  1  0  0  0  0  0  0  0  0  0
   17.5431  -11.2039  -15.1248 C   0  0  0  0  0  0  0  0  0  0  0  0
   16.3563  -11.9895  -15.5149 C   0  0  0  0  0  0  0  0  0  0  0  0
   15.8415  -11.7403  -16.6327 O   0  0  0  0  0  0  0  0  0  0  0  0
   19.7988  -10.4323  -15.7446 C   0  0  0  0  0  0  0  0  0  0  0  0
   20.6049  -10.7287  -14.8250 O   0  0  0  0  0  0  0  0  0  0  0  0
   15.7722  -12.9716  -14.7493 O   0  0  0  0  0  0  0  0  0  0  0  0
   19.9651   -9.2228  -16.4297 N   0  0  0  0  0  0  0  0  0  0  0  0
   21.0340   -8.2612  -16.1352 C   0  0  1  0  0  0  0  0  0  0  0  0
   21.0729   -7.3239  -17.3199 C   0  0  0  0  0  0  0  0  0  0  0  0
   22.0096   -6.1709  -17.1586 C   0  0  0  0  0  0  0  0  0  0  0  0
   21.8591   -5.2387  -18.3354 C   0  0  0  0  0  0  0  0  0  0  0  0
   22.8311   -4.0769  -18.2063 C   0  0  0  0  0  0  0  0  0  0  0  0
   22.7753   -3.2562  -19.4046 N   0  0  0  0  0  0  0  0  0  0  0  0
   20.6673   -7.5552  -14.8870 C   0  0  0  0  0  0  0  0  0  0  0  0
   21.6424   -7.1197  -13.9763 O   0  0  0  0  0  0  0  0  0  0  0  0
   19.4616   -7.3365  -14.6283 O   0  0  0  0  0  0  0  0  0  0  0  0
  2  1  1  1
  3  2  1  0
  4  2  1  0
  4  6  1  0
  4  5  1  1
  6  7  2  0
  8  9  1  0
  8  6  1  0
 10 11  1  0
  9 10  1  1
 11 12  2  0
 13  9  1  0
 13 14  2  0
 15 11  1  0
 16 13  1  0
 17 16  1  0
 17 23  1  0
 17 18  1  6
 19 18  1  0
 20 19  1  0
 21 22  1  0
 21 20  1  0
 23 25  2  0
 23 24  1  0
M  END
$$$$
