VDK.pdb
     RDKit          3D

 25 24  0  0  1  0  0  0  0  0999 V2000
   14.2192   -9.7866  -15.0560 C   0  0  0  0  0  0  0  0  0  0  0  0
   14.8610  -11.1180  -14.8397 C   0  0  2  0  0  0  0  0  0  0  0  0
   14.4187  -11.7493  -13.5273 C   0  0  0  0  0  0  0  0  0  0  0  0
   16.3749  -11.0369  -14.8088 C   0  0  2  0  0  0  0  0  0  0  0  0
   16.9361  -12.3659  -14.6497 N   0  0  0  0  0  0  0  0  0  0  0  0
   16.8656  -10.1594  -13.7371 C   0  0  0  0  0  0  0  0  0  0  0  0
   17.0685  -10.5366  -12.5576 O   0  0  0  0  0  0  0  0  0  0  0  0
   17.1530   -8.7663  -13.9844 N   0  0  0  0  0  0  0  0  0  0  0  0
   17.6636   -7.8918  -12.9781 C   0  0  1  0  0  0  0  0  0  0  0  0
   18.5830   -6.8257  -13.5169 C   0  0  0  0  0  0  0  0  0  0  0  0
   19.8001   -7.3820  -14.1389 C   0  0  0  0  0  0  0  0  0  0  0  0
   20.3385   -8.3658  -13.5742 O   0  0  0  0  0  0  0  0  0  0  0  0
   16.5904   -7.2886  -12.1448 C   0  0  0  0  0  0  0  0  0  0  0  0
   15.4294   -7.1514  -12.6105 O   0  0  0  0  0  0  0  0  0  0  0  0
   20.3887   -6.9063  -15.2876 O   0  0  0  0  0  0  0  0  0  0  0  0
   16.8515   -6.8657  -10.8361 N   0  0  0  0  0  0  0  0  0  0  0  0
   15.8282   -6.3155   -9.9394 C   0  0  1  0  0  0  0  0  0  0  0  0
   14.8899   -7.4628   -9.6439 C   0  0  0  0  0  0  0  0  0  0  0  0
   13.8192   -7.1392   -8.6532 C   0  0  0  0  0  0  0  0  0  0  0  0
   12.9158   -8.3363   -8.4875 C   0  0  0  0  0  0  0  0  0  0  0  0
   11.7934   -8.0103   -7.5153 C   0  0  0  0  0  0  0  0  0  0  0  0
   11.0030   -9.2035   -7.2619 N   0  0  0  0  0  0  0  0  0  0  0  0
   16.5151   -5.8383   -8.7182 C   0  0  0  0  0  0  0  0  0  0  0  0
   15.9862   -4.7992   -7.9370 O   0  0  0  0  0  0  0  0  0  0  0  0
   17.5940   -6.3676   -8.3654 O   0  0  0  0  0  0  0  0  0  0  0  0
  2  1  1  1
  3  2  1  0
  4  2  1  0
  4  6  1  0
  4  5  1  1
  6  7  2  0
  8  9  1  0
  8  6  1  0
 10 11  1  0
  9 10  1  6
 11 12  2  0
 13  9  1  0
 13 14  2  0
 15 11  1  0
 16 13  1  0
 17 16  1  0
 17 23  1  0
 17 18  1  1
 19 18  1  0
 20 19  1  0
 21 22  1  0
 21 20  1  0
 23 25  2  0
 23 24  1  0
M  END
$$$$
