VDK.pdb
     RDKit          3D

 25 24  0  0  1  0  0  0  0  0999 V2000
   20.9613  -11.2788  -19.6022 C   0  0  0  0  0  0  0  0  0  0  0  0
   20.4641  -10.2801  -18.6090 C   0  0  2  0  0  0  0  0  0  0  0  0
   20.2390   -8.9165  -19.2468 C   0  0  0  0  0  0  0  0  0  0  0  0
   21.4250  -10.0798  -17.4531 C   0  0  2  0  0  0  0  0  0  0  0  0
   21.5314  -11.3054  -16.6831 N   0  0  0  0  0  0  0  0  0  0  0  0
   21.0183   -8.9749  -16.5737 C   0  0  0  0  0  0  0  0  0  0  0  0
   19.9582   -8.9649  -15.9023 O   0  0  0  0  0  0  0  0  0  0  0  0
   21.8399   -7.7971  -16.4244 N   0  0  0  0  0  0  0  0  0  0  0  0
   21.5128   -6.7350  -15.5283 C   0  0  1  0  0  0  0  0  0  0  0  0
   22.7089   -5.9321  -15.0843 C   0  0  0  0  0  0  0  0  0  0  0  0
   22.3791   -4.9486  -14.0347 C   0  0  0  0  0  0  0  0  0  0  0  0
   22.3332   -3.7397  -14.3708 O   0  0  0  0  0  0  0  0  0  0  0  0
   20.4491   -5.8433  -16.0604 C   0  0  0  0  0  0  0  0  0  0  0  0
   20.5215   -5.4044  -17.2375 O   0  0  0  0  0  0  0  0  0  0  0  0
   22.1188   -5.2543  -12.7190 O   0  0  0  0  0  0  0  0  0  0  0  0
   19.3555   -5.4789  -15.2659 N   0  0  0  0  0  0  0  0  0  0  0  0
   18.2628   -4.6169  -15.7316 C   0  0  1  0  0  0  0  0  0  0  0  0
   16.9935   -5.3918  -15.4631 C   0  0  0  0  0  0  0  0  0  0  0  0
   15.7398   -4.6427  -15.7786 C   0  0  0  0  0  0  0  0  0  0  0  0
   14.5501   -5.5393  -15.5389 C   0  0  0  0  0  0  0  0  0  0  0  0
   13.2691   -4.8188  -15.9276 C   0  0  0  0  0  0  0  0  0  0  0  0
   12.1461   -5.7379  -15.8453 N   0  0  0  0  0  0  0  0  0  0  0  0
   18.3183   -3.3632  -14.9468 C   0  0  0  0  0  0  0  0  0  0  0  0
   17.7788   -2.1646  -15.4389 O   0  0  0  0  0  0  0  0  0  0  0  0
   18.8571   -3.3614  -13.8162 O   0  0  0  0  0  0  0  0  0  0  0  0
  2  1  1  6
  3  2  1  0
  4  2  1  0
  4  6  1  0
  4  5  1  1
  6  7  2  0
  8  9  1  0
  8  6  1  0
 10 11  1  0
  9 10  1  6
 11 12  2  0
 13  9  1  0
 13 14  2  0
 15 11  1  0
 16 13  1  0
 17 16  1  0
 17 23  1  0
 17 18  1  1
 19 18  1  0
 20 19  1  0
 21 22  1  0
 21 20  1  0
 23 25  2  0
 23 24  1  0
M  END
$$$$
