VDK.pdb
     RDKit          3D

 25 24  0  0  1  0  0  0  0  0999 V2000
   23.6720  -11.0621  -14.3877 C   0  0  0  0  0  0  0  0  0  0  0  0
   22.7525  -11.5596  -15.4545 C   0  0  2  0  0  0  0  0  0  0  0  0
   23.3895  -12.6750  -16.2712 C   0  0  0  0  0  0  0  0  0  0  0  0
   22.3450  -10.4701  -16.4273 C   0  0  2  0  0  0  0  0  0  0  0  0
   23.4995  -10.0360  -17.1923 N   0  0  0  0  0  0  0  0  0  0  0  0
   21.7357   -9.3166  -15.7509 C   0  0  0  0  0  0  0  0  0  0  0  0
   20.6452   -9.3606  -15.1315 O   0  0  0  0  0  0  0  0  0  0  0  0
   22.3751   -8.0221  -15.7583 N   0  0  0  0  0  0  0  0  0  0  0  0
   21.7895   -6.8672  -15.1572 C   0  0  1  0  0  0  0  0  0  0  0  0
   22.6671   -6.2197  -14.1166 C   0  0  0  0  0  0  0  0  0  0  0  0
   22.0017   -5.0982  -13.4257 C   0  0  0  0  0  0  0  0  0  0  0  0
   22.4999   -3.9548  -13.5697 O   0  0  0  0  0  0  0  0  0  0  0  0
   21.3365   -5.8670  -16.1593 C   0  0  0  0  0  0  0  0  0  0  0  0
   22.1623   -5.3514  -16.9567 O   0  0  0  0  0  0  0  0  0  0  0  0
   20.8797   -5.2095  -12.6377 O   0  0  0  0  0  0  0  0  0  0  0  0
   19.9919   -5.4840  -16.2325 N   0  0  0  0  0  0  0  0  0  0  0  0
   19.4787   -4.4940  -17.1866 C   0  0  1  0  0  0  0  0  0  0  0  0
   17.9967   -4.7685  -17.2969 C   0  0  0  0  0  0  0  0  0  0  0  0
   17.2513   -3.7815  -18.1352 C   0  0  0  0  0  0  0  0  0  0  0  0
   15.7870   -4.1449  -18.1486 C   0  0  0  0  0  0  0  0  0  0  0  0
   15.0394   -3.2558  -19.1294 C   0  0  0  0  0  0  0  0  0  0  0  0
   13.6514   -3.6790  -19.2140 N   0  0  0  0  0  0  0  0  0  0  0  0
   19.7491   -3.1515  -16.6250 C   0  0  0  0  0  0  0  0  0  0  0  0
   19.7939   -2.9305  -15.2397 O   0  0  0  0  0  0  0  0  0  0  0  0
   19.9436   -2.1835  -17.3956 O   0  0  0  0  0  0  0  0  0  0  0  0
  2  1  1  1
  3  2  1  0
  4  2  1  0
  4  6  1  0
  4  5  1  1
  6  7  2  0
  8  9  1  0
  8  6  1  0
 10 11  1  0
  9 10  1  1
 11 12  2  0
 13  9  1  0
 13 14  2  0
 15 11  1  0
 16 13  1  0
 17 16  1  0
 17 23  1  0
 17 18  1  1
 19 18  1  0
 20 19  1  0
 21 22  1  0
 21 20  1  0
 23 25  2  0
 23 24  1  0
M  END
$$$$
