WSQ.pdb
     RDKit          3D

 30 31  0  0  1  0  0  0  0  0999 V2000
    6.2032  -18.0210   24.8502 N   0  0  0  0  0  0  0  0  0  0  0  0
    6.8841  -16.8794   24.3438 C   0  0  1  0  0  0  0  0  0  0  0  0
    7.7750  -16.1701   25.3172 C   0  0  0  0  0  0  0  0  0  0  0  0
    7.0611  -15.0392   25.9618 C   0  0  0  0  0  0  0  0  0  0  0  0
    5.8701  -15.1656   26.6763 C   0  0  0  0  0  0  0  0  0  0  0  0
    5.4515  -13.9751   27.1230 N   0  0  0  0  0  0  0  0  0  0  0  0
    6.3597  -13.0679   26.7071 C   0  0  0  0  0  0  0  0  0  0  0  0
    6.4305  -11.6960   26.8855 C   0  0  0  0  0  0  0  0  0  0  0  0
    7.4844  -10.9877   26.3539 C   0  0  0  0  0  0  0  0  0  0  0  0
    8.4775  -11.5961   25.6467 C   0  0  0  0  0  0  0  0  0  0  0  0
    8.4207  -12.9808   25.4573 C   0  0  0  0  0  0  0  0  0  0  0  0
    7.3664  -13.6910   25.9881 C   0  0  0  0  0  0  0  0  0  0  0  0
    7.6785  -17.1524   23.1271 C   0  0  0  0  0  0  0  0  0  0  0  0
    8.5382  -18.0769   23.2050 O   0  0  0  0  0  0  0  0  0  0  0  0
    7.9785  -14.2587   20.1698 O   0  0  0  0  0  0  0  0  0  0  0  0
    8.2628  -15.5605   19.7576 C   0  0  0  0  0  0  0  0  0  0  0  0
    8.6459  -16.4065   20.9673 C   0  0  2  0  0  0  0  0  0  0  0  0
    7.5661  -16.4830   21.9001 N   0  0  0  0  0  0  0  0  0  0  0  0
    9.8603  -15.7825   21.5358 C   0  0  0  0  0  0  0  0  0  0  0  0
    9.7195  -14.8733   22.3936 O   0  0  0  0  0  0  0  0  0  0  0  0
   11.2014  -18.9192   25.2272 N   0  0  0  0  0  0  0  0  0  0  0  0
   12.4832  -18.3229   25.3294 C   0  0  0  0  0  0  0  0  0  0  0  0
   13.2590  -18.7078   26.2299 O   0  0  0  0  0  0  0  0  0  0  0  0
   12.8472  -17.2649   24.3591 C   0  0  0  0  0  0  0  0  0  0  0  0
   11.8295  -17.2292   23.2388 C   0  0  0  0  0  0  0  0  0  0  0  0
   12.2355  -16.2102   22.1743 C   0  0  2  0  0  0  0  0  0  0  0  0
   11.1749  -16.1454   21.1747 N   0  0  0  0  0  0  0  0  0  0  0  0
   13.5272  -16.5841   21.5905 C   0  0  0  0  0  0  0  0  0  0  0  0
   13.6180  -17.7646   20.8675 O   0  0  0  0  0  0  0  0  0  0  0  0
   14.5709  -15.8867   21.7093 O   0  0  0  0  0  0  0  0  0  0  0  0
  2  1  1  1
  2  3  1  0
  2 13  1  0
  3  4  1  0
  4 12  1  0
  4  5  2  0
  5  6  1  0
  7  6  1  0
  7  8  2  0
  9  8  1  0
 10  9  2  0
 11 12  2  0
 11 10  1  0
 12  7  1  0
 13 14  2  0
 16 15  1  0
 17 16  1  6
 17 19  1  0
 18 13  1  0
 18 17  1  0
 19 27  1  0
 19 20  2  0
 21 22  1  0
 22 23  2  0
 24 22  1  0
 24 25  1  0
 26 25  1  1
 26 28  1  0
 27 26  1  0
 28 30  2  0
 28 29  1  0
M  END
$$$$
