WSQ.pdb
     RDKit          3D

 30 31  0  0  1  0  0  0  0  0999 V2000
    6.7159  -17.3404   23.8810 N   0  0  0  0  0  0  0  0  0  0  0  0
    7.7769  -16.4336   23.6063 C   0  0  1  0  0  0  0  0  0  0  0  0
    8.3822  -15.7617   24.8008 C   0  0  0  0  0  0  0  0  0  0  0  0
    7.4007  -14.8608   25.4559 C   0  0  0  0  0  0  0  0  0  0  0  0
    6.2346  -15.2936   26.0867 C   0  0  0  0  0  0  0  0  0  0  0  0
    5.5369  -14.2566   26.5662 N   0  0  0  0  0  0  0  0  0  0  0  0
    6.2371  -13.1458   26.2547 C   0  0  0  0  0  0  0  0  0  0  0  0
    5.9881  -11.8067   26.5067 C   0  0  0  0  0  0  0  0  0  0  0  0
    6.8805  -10.8498   26.0790 C   0  0  0  0  0  0  0  0  0  0  0  0
    8.0190  -11.1763   25.4056 C   0  0  0  0  0  0  0  0  0  0  0  0
    8.2851  -12.5242   25.1429 C   0  0  0  0  0  0  0  0  0  0  0  0
    7.3927  -13.4830   25.5697 C   0  0  0  0  0  0  0  0  0  0  0  0
    8.8793  -17.0288   22.8213 C   0  0  0  0  0  0  0  0  0  0  0  0
    9.3856  -18.0970   23.2715 O   0  0  0  0  0  0  0  0  0  0  0  0
   11.1088  -14.7570   20.1854 O   0  0  0  0  0  0  0  0  0  0  0  0
   11.0612  -16.1178   19.8831 C   0  0  0  0  0  0  0  0  0  0  0  0
   10.6969  -16.9064   21.1365 C   0  0  2  0  0  0  0  0  0  0  0  0
    9.4123  -16.5196   21.6284 N   0  0  0  0  0  0  0  0  0  0  0  0
   11.7868  -16.6618   22.1059 C   0  0  0  0  0  0  0  0  0  0  0  0
   11.6807  -15.6843   22.8905 O   0  0  0  0  0  0  0  0  0  0  0  0
   11.4693  -19.4355   26.4374 N   0  0  0  0  0  0  0  0  0  0  0  0
   12.8001  -19.0991   26.7905 C   0  0  0  0  0  0  0  0  0  0  0  0
   13.2107  -19.3792   27.9368 O   0  0  0  0  0  0  0  0  0  0  0  0
   13.6486  -18.4272   25.7796 C   0  0  0  0  0  0  0  0  0  0  0  0
   12.8679  -18.2520   24.4944 C   0  0  0  0  0  0  0  0  0  0  0  0
   13.7085  -17.5198   23.4488 C   0  0  2  0  0  0  0  0  0  0  0  0
   12.9449  -17.4610   22.2071 N   0  0  0  0  0  0  0  0  0  0  0  0
   14.9965  -18.1985   23.2774 C   0  0  0  0  0  0  0  0  0  0  0  0
   15.1740  -19.0299   22.1811 O   0  0  0  0  0  0  0  0  0  0  0  0
   15.9619  -18.0686   24.0779 O   0  0  0  0  0  0  0  0  0  0  0  0
  2  1  1  1
  2  3  1  0
  2 13  1  0
  3  4  1  0
  4 12  1  0
  4  5  2  0
  5  6  1  0
  7  6  1  0
  7  8  2  0
  9  8  1  0
 10  9  2  0
 11 12  2  0
 11 10  1  0
 12  7  1  0
 13 14  2  0
 16 15  1  0
 17 16  1  6
 17 19  1  0
 18 13  1  0
 18 17  1  0
 19 27  1  0
 19 20  2  0
 21 22  1  0
 22 23  2  0
 24 22  1  0
 24 25  1  0
 26 25  1  1
 26 28  1  0
 27 26  1  0
 28 30  2  0
 28 29  1  0
M  END
$$$$
