WSQ.pdb
     RDKit          3D

 30 31  0  0  1  0  0  0  0  0999 V2000
    6.4894  -18.1757   24.9661 N   0  0  0  0  0  0  0  0  0  0  0  0
    6.9984  -17.0299   24.2941 C   0  0  1  0  0  0  0  0  0  0  0  0
    7.8103  -16.0920   25.1341 C   0  0  0  0  0  0  0  0  0  0  0  0
    6.9694  -14.9854   25.6559 C   0  0  0  0  0  0  0  0  0  0  0  0
    5.6202  -15.1108   25.9859 C   0  0  0  0  0  0  0  0  0  0  0  0
    5.1205  -13.9432   26.4090 N   0  0  0  0  0  0  0  0  0  0  0  0
    6.1325  -13.0519   26.3595 C   0  0  0  0  0  0  0  0  0  0  0  0
    6.1832  -11.7062   26.6838 C   0  0  0  0  0  0  0  0  0  0  0  0
    7.3630  -11.0104   26.5459 C   0  0  0  0  0  0  0  0  0  0  0  0
    8.5022  -11.6063   26.0949 C   0  0  0  0  0  0  0  0  0  0  0  0
    8.4678  -12.9647   25.7629 C   0  0  0  0  0  0  0  0  0  0  0  0
    7.2878  -13.6622   25.8996 C   0  0  0  0  0  0  0  0  0  0  0  0
    7.7916  -17.3515   23.0885 C   0  0  0  0  0  0  0  0  0  0  0  0
    8.4434  -18.4353   23.1092 O   0  0  0  0  0  0  0  0  0  0  0  0
    8.2654  -14.5825   20.2266 O   0  0  0  0  0  0  0  0  0  0  0  0
    8.7313  -15.8165   19.7734 C   0  0  0  0  0  0  0  0  0  0  0  0
    8.9178  -16.7580   20.9586 C   0  0  2  0  0  0  0  0  0  0  0  0
    7.8866  -16.5681   21.9294 N   0  0  0  0  0  0  0  0  0  0  0  0
   10.2711  -16.4858   21.4893 C   0  0  0  0  0  0  0  0  0  0  0  0
   10.5287  -15.3262   21.9034 O   0  0  0  0  0  0  0  0  0  0  0  0
   12.5190  -18.1808   26.7856 N   0  0  0  0  0  0  0  0  0  0  0  0
   12.3490  -18.7110   25.4821 C   0  0  0  0  0  0  0  0  0  0  0  0
   12.4757  -19.9419   25.3088 O   0  0  0  0  0  0  0  0  0  0  0  0
   12.0272  -17.7774   24.3784 C   0  0  0  0  0  0  0  0  0  0  0  0
   12.9706  -18.0153   23.2185 C   0  0  0  0  0  0  0  0  0  0  0  0
   12.6268  -17.0959   22.0469 C   0  0  2  0  0  0  0  0  0  0  0  0
   11.2976  -17.4508   21.5614 N   0  0  0  0  0  0  0  0  0  0  0  0
   13.6491  -17.2122   21.0028 C   0  0  0  0  0  0  0  0  0  0  0  0
   14.9426  -16.7966   21.2836 O   0  0  0  0  0  0  0  0  0  0  0  0
   13.4174  -17.6730   19.8522 O   0  0  0  0  0  0  0  0  0  0  0  0
  2  1  1  1
  2  3  1  0
  2 13  1  0
  3  4  1  0
  4 12  1  0
  4  5  2  0
  5  6  1  0
  7  6  1  0
  7  8  2  0
  9  8  1  0
 10  9  2  0
 11 12  2  0
 11 10  1  0
 12  7  1  0
 13 14  2  0
 16 15  1  0
 17 16  1  6
 17 19  1  0
 18 13  1  0
 18 17  1  0
 19 27  1  0
 19 20  2  0
 21 22  1  0
 22 23  2  0
 24 22  1  0
 24 25  1  0
 26 25  1  1
 26 28  1  0
 27 26  1  0
 28 30  2  0
 28 29  1  0
M  END
$$$$
