WSQ.pdb
     RDKit          3D

 30 31  0  0  1  0  0  0  0  0999 V2000
    6.6464  -17.9539   24.9353 N   0  0  0  0  0  0  0  0  0  0  0  0
    7.2843  -16.8901   24.2389 C   0  0  1  0  0  0  0  0  0  0  0  0
    8.0076  -15.8957   25.0946 C   0  0  0  0  0  0  0  0  0  0  0  0
    7.0743  -14.8628   25.6107 C   0  0  0  0  0  0  0  0  0  0  0  0
    5.7444  -15.1052   25.9536 C   0  0  0  0  0  0  0  0  0  0  0  0
    5.1446  -13.9821   26.3673 N   0  0  0  0  0  0  0  0  0  0  0  0
    6.0718  -13.0040   26.2986 C   0  0  0  0  0  0  0  0  0  0  0  0
    6.0034  -11.6552   26.6067 C   0  0  0  0  0  0  0  0  0  0  0  0
    7.1147  -10.8578   26.4506 C   0  0  0  0  0  0  0  0  0  0  0  0
    8.2995  -11.3543   25.9968 C   0  0  0  0  0  0  0  0  0  0  0  0
    8.3852  -12.7143   25.6811 C   0  0  0  0  0  0  0  0  0  0  0  0
    7.2739  -13.5135   25.8360 C   0  0  0  0  0  0  0  0  0  0  0  0
    8.2224  -17.3443   23.1903 C   0  0  0  0  0  0  0  0  0  0  0  0
    8.9546  -18.3361   23.4734 O   0  0  0  0  0  0  0  0  0  0  0  0
    8.4156  -16.6153   18.9945 O   0  0  0  0  0  0  0  0  0  0  0  0
    9.4673  -16.2111   19.8166 C   0  0  0  0  0  0  0  0  0  0  0  0
    9.4910  -17.0720   21.0752 C   0  0  2  0  0  0  0  0  0  0  0  0
    8.3737  -16.7784   21.9163 N   0  0  0  0  0  0  0  0  0  0  0  0
   10.7923  -16.8093   21.7270 C   0  0  0  0  0  0  0  0  0  0  0  0
   10.9826  -15.6805   22.2485 O   0  0  0  0  0  0  0  0  0  0  0  0
   13.0758  -20.5869   25.4110 N   0  0  0  0  0  0  0  0  0  0  0  0
   12.6594  -19.3244   25.9028 C   0  0  0  0  0  0  0  0  0  0  0  0
   12.2965  -19.2295   27.0945 O   0  0  0  0  0  0  0  0  0  0  0  0
   12.6732  -18.1685   24.9770 C   0  0  0  0  0  0  0  0  0  0  0  0
   13.1877  -18.6068   23.6224 C   0  0  0  0  0  0  0  0  0  0  0  0
   13.0329  -17.4832   22.5977 C   0  0  2  0  0  0  0  0  0  0  0  0
   11.8401  -17.7510   21.8016 N   0  0  0  0  0  0  0  0  0  0  0  0
   14.2413  -17.3877   21.7734 C   0  0  0  0  0  0  0  0  0  0  0  0
   14.1728  -17.7632   20.4396 O   0  0  0  0  0  0  0  0  0  0  0  0
   15.3507  -16.9798   22.2121 O   0  0  0  0  0  0  0  0  0  0  0  0
  2  1  1  1
  2  3  1  0
  2 13  1  0
  3  4  1  0
  4 12  1  0
  4  5  2  0
  5  6  1  0
  7  6  1  0
  7  8  2  0
  9  8  1  0
 10  9  2  0
 11 12  2  0
 11 10  1  0
 12  7  1  0
 13 14  2  0
 16 15  1  0
 17 16  1  6
 17 19  1  0
 18 13  1  0
 18 17  1  0
 19 27  1  0
 19 20  2  0
 21 22  1  0
 22 23  2  0
 24 22  1  0
 24 25  1  0
 26 25  1  1
 26 28  1  0
 27 26  1  0
 28 30  2  0
 28 29  1  0
M  END
$$$$
