WSQ.pdb
     RDKit          3D

 30 31  0  0  1  0  0  0  0  0999 V2000
    6.1467  -17.9228   24.6043 N   0  0  0  0  0  0  0  0  0  0  0  0
    6.8631  -16.8782   23.9571 C   0  0  1  0  0  0  0  0  0  0  0  0
    7.8321  -16.1260   24.8171 C   0  0  0  0  0  0  0  0  0  0  0  0
    7.1429  -15.0543   25.5791 C   0  0  0  0  0  0  0  0  0  0  0  0
    6.1360  -15.2792   26.5174 C   0  0  0  0  0  0  0  0  0  0  0  0
    5.6894  -14.1243   27.0261 N   0  0  0  0  0  0  0  0  0  0  0  0
    6.3965  -13.1425   26.4285 C   0  0  0  0  0  0  0  0  0  0  0  0
    6.3549  -11.7657   26.5750 C   0  0  0  0  0  0  0  0  0  0  0  0
    7.2023  -10.9705   25.8371 C   0  0  0  0  0  0  0  0  0  0  0  0
    8.0957  -11.4962   24.9529 C   0  0  0  0  0  0  0  0  0  0  0  0
    8.1502  -12.8847   24.7929 C   0  0  0  0  0  0  0  0  0  0  0  0
    7.3024  -13.6819   25.5302 C   0  0  0  0  0  0  0  0  0  0  0  0
    7.5874  -17.3166   22.7450 C   0  0  0  0  0  0  0  0  0  0  0  0
    8.3305  -18.3332   22.8633 O   0  0  0  0  0  0  0  0  0  0  0  0
    7.8521  -14.6623   19.8688 O   0  0  0  0  0  0  0  0  0  0  0  0
    8.3868  -15.8513   19.3732 C   0  0  0  0  0  0  0  0  0  0  0  0
    8.5710  -16.8435   20.5166 C   0  0  2  0  0  0  0  0  0  0  0  0
    7.5257  -16.7108   21.4819 N   0  0  0  0  0  0  0  0  0  0  0  0
    9.9142  -16.5791   21.0763 C   0  0  0  0  0  0  0  0  0  0  0  0
   10.1487  -15.4396   21.5546 O   0  0  0  0  0  0  0  0  0  0  0  0
   11.5732  -20.0597   24.6793 N   0  0  0  0  0  0  0  0  0  0  0  0
   11.7952  -18.7515   25.1778 C   0  0  0  0  0  0  0  0  0  0  0  0
   11.5667  -18.5171   26.3836 O   0  0  0  0  0  0  0  0  0  0  0  0
   12.2905  -17.7159   24.2422 C   0  0  0  0  0  0  0  0  0  0  0  0
   12.4380  -18.3092   22.8572 C   0  0  0  0  0  0  0  0  0  0  0  0
   12.2140  -17.2414   21.7868 C   0  0  2  0  0  0  0  0  0  0  0  0
   10.9553  -17.5306   21.1082 N   0  0  0  0  0  0  0  0  0  0  0  0
   13.3507  -17.2141   20.8615 C   0  0  0  0  0  0  0  0  0  0  0  0
   14.5967  -16.8400   21.3433 O   0  0  0  0  0  0  0  0  0  0  0  0
   13.2594  -17.5142   19.6403 O   0  0  0  0  0  0  0  0  0  0  0  0
  2  1  1  1
  2  3  1  0
  2 13  1  0
  3  4  1  0
  4 12  1  0
  4  5  2  0
  5  6  1  0
  7  6  1  0
  7  8  2  0
  9  8  1  0
 10  9  2  0
 11 12  2  0
 11 10  1  0
 12  7  1  0
 13 14  2  0
 16 15  1  0
 17 16  1  6
 17 19  1  0
 18 13  1  0
 18 17  1  0
 19 27  1  0
 19 20  2  0
 21 22  1  0
 22 23  2  0
 24 22  1  0
 24 25  1  0
 26 25  1  1
 26 28  1  0
 27 26  1  0
 28 30  2  0
 28 29  1  0
M  END
$$$$
