WSQ.pdb
     RDKit          3D

 30 31  0  0  1  0  0  0  0  0999 V2000
    6.6331  -17.6214   23.9275 N   0  0  0  0  0  0  0  0  0  0  0  0
    7.6821  -16.7005   23.6538 C   0  0  1  0  0  0  0  0  0  0  0  0
    8.2739  -16.0168   24.8483 C   0  0  0  0  0  0  0  0  0  0  0  0
    7.2799  -15.1224   25.4933 C   0  0  0  0  0  0  0  0  0  0  0  0
    6.1336  -15.5658   26.1524 C   0  0  0  0  0  0  0  0  0  0  0  0
    5.4175  -14.5333   26.6140 N   0  0  0  0  0  0  0  0  0  0  0  0
    6.0859  -13.4148   26.2628 C   0  0  0  0  0  0  0  0  0  0  0  0
    5.8078  -12.0757   26.4825 C   0  0  0  0  0  0  0  0  0  0  0  0
    6.6706  -11.1096   26.0164 C   0  0  0  0  0  0  0  0  0  0  0  0
    7.8073  -11.4268   25.3356 C   0  0  0  0  0  0  0  0  0  0  0  0
    8.1026  -12.7745   25.1051 C   0  0  0  0  0  0  0  0  0  0  0  0
    7.2399  -13.7425   25.5703 C   0  0  0  0  0  0  0  0  0  0  0  0
    8.7954  -17.2823   22.8741 C   0  0  0  0  0  0  0  0  0  0  0  0
    9.3174  -18.3400   23.3307 O   0  0  0  0  0  0  0  0  0  0  0  0
   10.3385  -15.3839   19.6218 O   0  0  0  0  0  0  0  0  0  0  0  0
   10.7653  -16.7082   19.7196 C   0  0  0  0  0  0  0  0  0  0  0  0
   10.5792  -17.1999   21.1511 C   0  0  2  0  0  0  0  0  0  0  0  0
    9.3228  -16.7708   21.6797 N   0  0  0  0  0  0  0  0  0  0  0  0
   11.7361  -16.6848   21.9151 C   0  0  0  0  0  0  0  0  0  0  0  0
   11.7812  -15.4547   22.1744 O   0  0  0  0  0  0  0  0  0  0  0  0
   14.2548  -19.6731   26.3725 N   0  0  0  0  0  0  0  0  0  0  0  0
   13.1367  -18.8058   26.4554 C   0  0  0  0  0  0  0  0  0  0  0  0
   12.3666  -18.9041   27.4343 O   0  0  0  0  0  0  0  0  0  0  0  0
   12.9306  -17.8169   25.3724 C   0  0  0  0  0  0  0  0  0  0  0  0
   14.0801  -17.8903   24.3899 C   0  0  0  0  0  0  0  0  0  0  0  0
   13.8501  -16.9351   23.2191 C   0  0  2  0  0  0  0  0  0  0  0  0
   12.7986  -17.4911   22.3745 N   0  0  0  0  0  0  0  0  0  0  0  0
   15.1029  -16.7320   22.4854 C   0  0  0  0  0  0  0  0  0  0  0  0
   15.1890  -17.1741   21.1732 O   0  0  0  0  0  0  0  0  0  0  0  0
   16.1170  -16.1730   22.9841 O   0  0  0  0  0  0  0  0  0  0  0  0
  2  1  1  1
  2  3  1  0
  2 13  1  0
  3  4  1  0
  4 12  1  0
  4  5  2  0
  5  6  1  0
  7  6  1  0
  7  8  2  0
  9  8  1  0
 10  9  2  0
 11 12  2  0
 11 10  1  0
 12  7  1  0
 13 14  2  0
 16 15  1  0
 17 16  1  6
 17 19  1  0
 18 13  1  0
 18 17  1  0
 19 27  1  0
 19 20  2  0
 21 22  1  0
 22 23  2  0
 24 22  1  0
 24 25  1  0
 26 25  1  1
 26 28  1  0
 27 26  1  0
 28 30  2  0
 28 29  1  0
M  END
$$$$
