WSQ.pdb
     RDKit          3D

 30 31  0  0  1  0  0  0  0  0999 V2000
    6.3947  -17.6773   24.4005 N   0  0  0  0  0  0  0  0  0  0  0  0
    7.1702  -16.6548   23.7868 C   0  0  1  0  0  0  0  0  0  0  0  0
    7.9708  -15.7988   24.7199 C   0  0  0  0  0  0  0  0  0  0  0  0
    7.0951  -14.8463   25.4480 C   0  0  0  0  0  0  0  0  0  0  0  0
    5.9559  -15.2143   26.1633 C   0  0  0  0  0  0  0  0  0  0  0  0
    5.3577  -14.1413   26.6953 N   0  0  0  0  0  0  0  0  0  0  0  0
    6.0966  -13.0713   26.3344 C   0  0  0  0  0  0  0  0  0  0  0  0
    5.9459  -11.7215   26.6066 C   0  0  0  0  0  0  0  0  0  0  0  0
    6.8586  -10.8157   26.1152 C   0  0  0  0  0  0  0  0  0  0  0  0
    7.9228  -11.2039   25.3582 C   0  0  0  0  0  0  0  0  0  0  0  0
    8.0892  -12.5633   25.0740 C   0  0  0  0  0  0  0  0  0  0  0  0
    7.1764  -13.4711   25.5645 C   0  0  0  0  0  0  0  0  0  0  0  0
    8.0864  -17.1521   22.7385 C   0  0  0  0  0  0  0  0  0  0  0  0
    8.5260  -18.3297   22.8796 O   0  0  0  0  0  0  0  0  0  0  0  0
    9.8209  -14.5076   20.0593 O   0  0  0  0  0  0  0  0  0  0  0  0
    9.9048  -15.8526   19.7000 C   0  0  0  0  0  0  0  0  0  0  0  0
    9.7429  -16.7234   20.9414 C   0  0  2  0  0  0  0  0  0  0  0  0
    8.5105  -16.4406   21.6070 N   0  0  0  0  0  0  0  0  0  0  0  0
   10.9302  -16.4614   21.7835 C   0  0  0  0  0  0  0  0  0  0  0  0
   10.8322  -15.6134   22.7075 O   0  0  0  0  0  0  0  0  0  0  0  0
   11.8892  -19.7585   25.9000 N   0  0  0  0  0  0  0  0  0  0  0  0
   13.0651  -18.9757   25.7830 C   0  0  0  0  0  0  0  0  0  0  0  0
   13.4642  -18.3322   26.7768 O   0  0  0  0  0  0  0  0  0  0  0  0
   13.7714  -18.9557   24.4815 C   0  0  0  0  0  0  0  0  0  0  0  0
   12.7859  -18.6569   23.3717 C   0  0  0  0  0  0  0  0  0  0  0  0
   13.0788  -17.2947   22.7433 C   0  0  2  0  0  0  0  0  0  0  0  0
   12.1732  -17.1069   21.6151 N   0  0  0  0  0  0  0  0  0  0  0  0
   14.4873  -17.2204   22.3436 C   0  0  0  0  0  0  0  0  0  0  0  0
   14.7962  -17.1366   20.9937 O   0  0  0  0  0  0  0  0  0  0  0  0
   15.4436  -17.2285   23.1652 O   0  0  0  0  0  0  0  0  0  0  0  0
  2  1  1  1
  2  3  1  0
  2 13  1  0
  3  4  1  0
  4 12  1  0
  4  5  2  0
  5  6  1  0
  7  6  1  0
  7  8  2  0
  9  8  1  0
 10  9  2  0
 11 12  2  0
 11 10  1  0
 12  7  1  0
 13 14  2  0
 16 15  1  0
 17 16  1  6
 17 19  1  0
 18 13  1  0
 18 17  1  0
 19 27  1  0
 19 20  2  0
 21 22  1  0
 22 23  2  0
 24 22  1  0
 24 25  1  0
 26 25  1  6
 26 28  1  0
 27 26  1  0
 28 30  2  0
 28 29  1  0
M  END
$$$$
