WSQ.pdb
     RDKit          3D

 30 31  0  0  1  0  0  0  0  0999 V2000
    7.1894  -17.3134   24.8896 N   0  0  0  0  0  0  0  0  0  0  0  0
    7.3872  -16.7703   23.5898 C   0  0  1  0  0  0  0  0  0  0  0  0
    7.1832  -15.2913   23.4662 C   0  0  0  0  0  0  0  0  0  0  0  0
    6.6115  -14.7292   24.7157 C   0  0  0  0  0  0  0  0  0  0  0  0
    5.6826  -15.3872   25.5214 C   0  0  0  0  0  0  0  0  0  0  0  0
    5.3336  -14.6280   26.5673 N   0  0  0  0  0  0  0  0  0  0  0  0
    6.0273  -13.4760   26.4541 C   0  0  0  0  0  0  0  0  0  0  0  0
    6.0590  -12.3447   27.2529 C   0  0  0  0  0  0  0  0  0  0  0  0
    6.8718  -11.2869   26.9134 C   0  0  0  0  0  0  0  0  0  0  0  0
    7.6597  -11.3114   25.8022 C   0  0  0  0  0  0  0  0  0  0  0  0
    7.6392  -12.4463   24.9848 C   0  0  0  0  0  0  0  0  0  0  0  0
    6.8259  -13.5056   25.3227 C   0  0  0  0  0  0  0  0  0  0  0  0
    8.7076  -17.0901   23.0066 C   0  0  0  0  0  0  0  0  0  0  0  0
    9.5609  -17.6098   23.7823 O   0  0  0  0  0  0  0  0  0  0  0  0
    9.6168  -17.2871   18.9009 O   0  0  0  0  0  0  0  0  0  0  0  0
   10.5918  -16.7765   19.7575 C   0  0  0  0  0  0  0  0  0  0  0  0
   10.3601  -17.3073   21.1683 C   0  0  2  0  0  0  0  0  0  0  0  0
    9.0984  -16.8710   21.6778 N   0  0  0  0  0  0  0  0  0  0  0  0
   11.5059  -16.8369   21.9765 C   0  0  0  0  0  0  0  0  0  0  0  0
   11.6128  -15.6037   22.2010 O   0  0  0  0  0  0  0  0  0  0  0  0
   12.0519  -19.5783   26.3592 N   0  0  0  0  0  0  0  0  0  0  0  0
   12.3723  -18.2751   26.8155 C   0  0  0  0  0  0  0  0  0  0  0  0
   11.9582  -17.9080   27.9357 O   0  0  0  0  0  0  0  0  0  0  0  0
   13.1876  -17.4027   25.9395 C   0  0  0  0  0  0  0  0  0  0  0  0
   13.5243  -18.1379   24.6596 C   0  0  0  0  0  0  0  0  0  0  0  0
   13.4801  -17.1865   23.4641 C   0  0  2  0  0  0  0  0  0  0  0  0
   12.4924  -17.6893   22.5154 N   0  0  0  0  0  0  0  0  0  0  0  0
   14.8142  -17.0697   22.8678 C   0  0  0  0  0  0  0  0  0  0  0  0
   15.0067  -17.5119   21.5670 O   0  0  0  0  0  0  0  0  0  0  0  0
   15.8067  -16.5855   23.4761 O   0  0  0  0  0  0  0  0  0  0  0  0
  2  1  1  1
  2  3  1  0
  2 13  1  0
  3  4  1  0
  4 12  1  0
  4  5  2  0
  5  6  1  0
  7  6  1  0
  7  8  2  0
  9  8  1  0
 10  9  2  0
 11 12  2  0
 11 10  1  0
 12  7  1  0
 13 14  2  0
 16 15  1  0
 17 16  1  6
 17 19  1  0
 18 13  1  0
 18 17  1  0
 19 27  1  0
 19 20  2  0
 21 22  1  0
 22 23  2  0
 24 22  1  0
 24 25  1  0
 26 25  1  1
 26 28  1  0
 27 26  1  0
 28 30  2  0
 28 29  1  0
M  END
$$$$
