WSQ.pdb
     RDKit          3D

 30 31  0  0  1  0  0  0  0  0999 V2000
    6.4568  -17.5327   24.1504 N   0  0  0  0  0  0  0  0  0  0  0  0
    7.4195  -16.5777   23.7208 C   0  0  1  0  0  0  0  0  0  0  0  0
    8.1976  -15.9052   24.8102 C   0  0  0  0  0  0  0  0  0  0  0  0
    7.3407  -14.9566   25.5652 C   0  0  0  0  0  0  0  0  0  0  0  0
    6.2423  -15.3327   26.3379 C   0  0  0  0  0  0  0  0  0  0  0  0
    5.6513  -14.2621   26.8825 N   0  0  0  0  0  0  0  0  0  0  0  0
    6.3544  -13.1856   26.4730 C   0  0  0  0  0  0  0  0  0  0  0  0
    6.1937  -11.8346   26.7335 C   0  0  0  0  0  0  0  0  0  0  0  0
    7.0671  -10.9212   26.1877 C   0  0  0  0  0  0  0  0  0  0  0  0
    8.1014  -11.3029   25.3873 C   0  0  0  0  0  0  0  0  0  0  0  0
    8.2775  -12.6634   25.1142 C   0  0  0  0  0  0  0  0  0  0  0  0
    7.4040  -13.5787   25.6591 C   0  0  0  0  0  0  0  0  0  0  0  0
    8.3901  -17.1113   22.7416 C   0  0  0  0  0  0  0  0  0  0  0  0
    8.9660  -18.1958   23.0450 O   0  0  0  0  0  0  0  0  0  0  0  0
    9.5633  -14.8015   19.7112 O   0  0  0  0  0  0  0  0  0  0  0  0
   10.0149  -16.1024   19.4895 C   0  0  0  0  0  0  0  0  0  0  0  0
    9.8920  -16.9113   20.7765 C   0  0  2  0  0  0  0  0  0  0  0  0
    8.7289  -16.5274   21.5125 N   0  0  0  0  0  0  0  0  0  0  0  0
   11.1497  -16.6888   21.5221 C   0  0  0  0  0  0  0  0  0  0  0  0
   11.1927  -15.7461   22.3540 O   0  0  0  0  0  0  0  0  0  0  0  0
   12.2527  -20.2226   25.7703 N   0  0  0  0  0  0  0  0  0  0  0  0
   12.8661  -19.9568   24.5205 C   0  0  0  0  0  0  0  0  0  0  0  0
   13.0021  -20.8916   23.7028 O   0  0  0  0  0  0  0  0  0  0  0  0
   13.3207  -18.5758   24.2386 C   0  0  0  0  0  0  0  0  0  0  0  0
   13.9149  -18.5090   22.8477 C   0  0  0  0  0  0  0  0  0  0  0  0
   13.5088  -17.2111   22.1500 C   0  0  2  0  0  0  0  0  0  0  0  0
   12.3115  -17.4723   21.3585 N   0  0  0  0  0  0  0  0  0  0  0  0
   14.6188  -16.7147   21.3312 C   0  0  0  0  0  0  0  0  0  0  0  0
   15.8031  -16.3540   21.9574 O   0  0  0  0  0  0  0  0  0  0  0  0
   14.5579  -16.5956   20.0774 O   0  0  0  0  0  0  0  0  0  0  0  0
  2  1  1  1
  2  3  1  0
  2 13  1  0
  3  4  1  0
  4 12  1  0
  4  5  2  0
  5  6  1  0
  7  6  1  0
  7  8  2  0
  9  8  1  0
 10  9  2  0
 11 12  2  0
 11 10  1  0
 12  7  1  0
 13 14  2  0
 16 15  1  0
 17 16  1  6
 17 19  1  0
 18 13  1  0
 18 17  1  0
 19 27  1  0
 19 20  2  0
 21 22  1  0
 22 23  2  0
 24 22  1  0
 24 25  1  0
 26 25  1  6
 26 28  1  0
 27 26  1  0
 28 30  2  0
 28 29  1  0
M  END
$$$$
