KIQ.pdb
     RDKit          3D

 27 26  0  0  1  0  0  0  0  0999 V2000
    6.6615  -15.1842   21.2713 N   0  0  0  0  0  0  0  0  0  0  0  0
    8.0775  -15.2490   21.2524 C   0  0  1  0  0  0  0  0  0  0  0  0
    8.8348  -14.4537   20.3136 C   0  0  0  0  0  0  0  0  0  0  0  0
    8.6738  -14.2723   18.9031 C   0  0  0  0  0  0  0  0  0  0  0  0
    7.5353  -13.7691   18.1922 C   0  0  0  0  0  0  0  0  0  0  0  0
    7.4140  -13.6679   16.7333 C   0  0  0  0  0  0  0  0  0  0  0  0
    8.4694  -13.3367   15.8930 N   0  0  0  0  0  0  0  0  0  0  0  0
    8.6340  -15.0186   22.6427 C   0  0  0  0  0  0  0  0  0  0  0  0
    9.8774  -14.8454   22.7105 O   0  0  0  0  0  0  0  0  0  0  0  0
    5.7901  -12.1165   26.0699 C   0  0  0  0  0  0  0  0  0  0  0  0
    6.9592  -12.7465   25.3059 C   0  0  0  0  0  0  0  0  0  0  0  0
    7.4538  -13.9736   25.9725 C   0  0  2  0  0  0  0  0  0  0  0  0
    7.9868  -13.7109   27.3692 C   0  0  0  0  0  0  0  0  0  0  0  0
    8.4109  -14.7329   25.1262 C   0  0  2  0  0  0  0  0  0  0  0  0
    7.8385  -14.9906   23.7977 N   0  0  0  0  0  0  0  0  0  0  0  0
    8.7687  -16.0126   25.7380 C   0  0  0  0  0  0  0  0  0  0  0  0
    7.8722  -16.8574   25.9538 O   0  0  0  0  0  0  0  0  0  0  0  0
   13.4373  -21.1389   24.8750 N   0  0  0  0  0  0  0  0  0  0  0  0
   13.3079  -19.8212   25.4062 C   0  0  0  0  0  0  0  0  0  0  0  0
   14.2134  -19.0083   25.1381 O   0  0  0  0  0  0  0  0  0  0  0  0
   12.1676  -19.4426   26.2287 C   0  0  0  0  0  0  0  0  0  0  0  0
   11.5667  -18.1581   25.7748 C   0  0  0  0  0  0  0  0  0  0  0  0
   10.4241  -17.6411   26.5888 C   0  0  2  0  0  0  0  0  0  0  0  0
   10.0974  -16.3000   26.0825 N   0  0  0  0  0  0  0  0  0  0  0  0
   10.6926  -17.5075   28.0360 C   0  0  0  0  0  0  0  0  0  0  0  0
   10.7237  -18.6280   28.8363 O   0  0  0  0  0  0  0  0  0  0  0  0
   10.8961  -16.4107   28.5815 O   0  0  0  0  0  0  0  0  0  0  0  0
  2  1  1  1
  3  2  1  0
  4  3  1  0
  5  4  1  0
  6  5  1  0
  7  6  1  0
  8  9  2  0
  8  2  1  0
 10 11  1  0
 12 11  1  0
 12 14  1  0
 12 13  1  1
 14 15  1  6
 15  8  1  0
 16 24  1  0
 16 14  1  0
 17 16  2  0
 18 19  1  0
 19 21  1  0
 20 19  2  0
 21 22  1  0
 23 22  1  6
 23 24  1  0
 23 25  1  0
 25 26  1  0
 27 25  2  0
M  END
$$$$
