KIQ.pdb
     RDKit          3D

 27 26  0  0  1  0  0  0  0  0999 V2000
    8.6291  -14.6251   20.2263 N   0  0  0  0  0  0  0  0  0  0  0  0
    7.7118  -15.1499   21.1711 C   0  0  1  0  0  0  0  0  0  0  0  0
    7.2398  -16.5105   21.0564 C   0  0  0  0  0  0  0  0  0  0  0  0
    6.9380  -17.2978   19.8999 C   0  0  0  0  0  0  0  0  0  0  0  0
    6.3393  -18.5988   19.8374 C   0  0  0  0  0  0  0  0  0  0  0  0
    6.1069  -19.3755   18.6143 C   0  0  0  0  0  0  0  0  0  0  0  0
    6.7738  -20.5560   18.3121 N   0  0  0  0  0  0  0  0  0  0  0  0
    8.2243  -14.9317   22.5802 C   0  0  0  0  0  0  0  0  0  0  0  0
    9.4341  -15.2157   22.7705 O   0  0  0  0  0  0  0  0  0  0  0  0
    5.7397  -11.3252   25.9366 C   0  0  0  0  0  0  0  0  0  0  0  0
    6.7779  -12.1427   25.1611 C   0  0  0  0  0  0  0  0  0  0  0  0
    7.0474  -13.4466   25.8105 C   0  0  2  0  0  0  0  0  0  0  0  0
    7.5211  -13.3031   27.2454 C   0  0  0  0  0  0  0  0  0  0  0  0
    7.9386  -14.3131   24.9957 C   0  0  2  0  0  0  0  0  0  0  0  0
    7.4263  -14.4420   23.6247 N   0  0  0  0  0  0  0  0  0  0  0  0
    8.0632  -15.6500   25.5765 C   0  0  0  0  0  0  0  0  0  0  0  0
    7.2859  -16.5540   25.1990 O   0  0  0  0  0  0  0  0  0  0  0  0
   11.6873  -17.4992   22.7422 N   0  0  0  0  0  0  0  0  0  0  0  0
   11.7890  -18.6071   23.6353 C   0  0  0  0  0  0  0  0  0  0  0  0
   12.3458  -19.6354   23.2049 O   0  0  0  0  0  0  0  0  0  0  0  0
   11.2628  -18.5403   24.9913 C   0  0  0  0  0  0  0  0  0  0  0  0
   10.4001  -17.3425   25.1862 C   0  0  0  0  0  0  0  0  0  0  0  0
    9.7206  -17.2286   26.5131 C   0  0  2  0  0  0  0  0  0  0  0  0
    9.0387  -15.9265   26.5454 N   0  0  0  0  0  0  0  0  0  0  0  0
   10.6186  -17.2800   27.6859 C   0  0  0  0  0  0  0  0  0  0  0  0
   10.8178  -16.1515   28.4499 O   0  0  0  0  0  0  0  0  0  0  0  0
   11.2179  -18.3128   28.0263 O   0  0  0  0  0  0  0  0  0  0  0  0
  2  1  1  6
  3  2  1  0
  4  3  1  0
  5  4  1  0
  6  5  1  0
  7  6  1  0
  8  9  2  0
  8  2  1  0
 10 11  1  0
 12 11  1  0
 12 14  1  0
 12 13  1  1
 14 15  1  6
 15  8  1  0
 16 24  1  0
 16 14  1  0
 17 16  2  0
 18 19  1  0
 19 21  1  0
 20 19  2  0
 21 22  1  0
 23 22  1  6
 23 24  1  0
 23 25  1  0
 25 26  1  0
 27 25  2  0
M  END
$$$$
