KIQ.pdb
     RDKit          3D

 27 26  0  0  1  0  0  0  0  0999 V2000
    6.8877  -15.8644   21.1456 N   0  0  0  0  0  0  0  0  0  0  0  0
    8.0461  -15.0586   21.0105 C   0  0  1  0  0  0  0  0  0  0  0  0
    8.0471  -13.9205   20.1207 C   0  0  0  0  0  0  0  0  0  0  0  0
    7.6623  -13.8115   18.7465 C   0  0  0  0  0  0  0  0  0  0  0  0
    8.5028  -13.7209   17.5888 C   0  0  0  0  0  0  0  0  0  0  0  0
    8.0419  -13.5116   16.2114 C   0  0  0  0  0  0  0  0  0  0  0  0
    8.8957  -13.2954   15.1372 N   0  0  0  0  0  0  0  0  0  0  0  0
    8.5375  -14.6101   22.3719 C   0  0  0  0  0  0  0  0  0  0  0  0
    9.6502  -14.0250   22.3843 O   0  0  0  0  0  0  0  0  0  0  0  0
    6.9053  -11.8615   27.3742 C   0  0  0  0  0  0  0  0  0  0  0  0
    7.9128  -12.8203   26.7314 C   0  0  0  0  0  0  0  0  0  0  0  0
    7.3387  -13.5126   25.5543 C   0  0  2  0  0  0  0  0  0  0  0  0
    6.0485  -14.2456   25.8735 C   0  0  0  0  0  0  0  0  0  0  0  0
    8.3324  -14.3743   24.8621 C   0  0  2  0  0  0  0  0  0  0  0  0
    7.8184  -14.8160   23.5585 N   0  0  0  0  0  0  0  0  0  0  0  0
    8.6645  -15.5553   25.6589 C   0  0  0  0  0  0  0  0  0  0  0  0
    7.7796  -16.4110   25.8795 O   0  0  0  0  0  0  0  0  0  0  0  0
   12.2849  -19.3228   22.7128 N   0  0  0  0  0  0  0  0  0  0  0  0
   12.3540  -18.6539   23.9710 C   0  0  0  0  0  0  0  0  0  0  0  0
   13.4884  -18.4412   24.4406 O   0  0  0  0  0  0  0  0  0  0  0  0
   11.1505  -18.2391   24.6777 C   0  0  0  0  0  0  0  0  0  0  0  0
   11.4753  -17.5685   25.9668 C   0  0  0  0  0  0  0  0  0  0  0  0
   10.3135  -17.0427   26.7473 C   0  0  2  0  0  0  0  0  0  0  0  0
    9.9562  -15.7368   26.1743 N   0  0  0  0  0  0  0  0  0  0  0  0
   10.5674  -16.8321   28.1880 C   0  0  0  0  0  0  0  0  0  0  0  0
   10.5429  -15.5587   28.7120 O   0  0  0  0  0  0  0  0  0  0  0  0
   10.8081  -17.7664   28.9697 O   0  0  0  0  0  0  0  0  0  0  0  0
  2  1  1  1
  3  2  1  0
  4  3  1  0
  5  4  1  0
  6  5  1  0
  7  6  1  0
  8  9  2  0
  8  2  1  0
 10 11  1  0
 12 11  1  0
 12 14  1  0
 12 13  1  1
 14 15  1  6
 15  8  1  0
 16 24  1  0
 16 14  1  0
 17 16  2  0
 18 19  1  0
 19 21  1  0
 20 19  2  0
 21 22  1  0
 23 22  1  6
 23 24  1  0
 23 25  1  0
 25 26  1  0
 27 25  2  0
M  END
$$$$
