KIQ.pdb
     RDKit          3D

 27 26  0  0  1  0  0  0  0  0999 V2000
    8.0383  -15.2780   20.4477 N   0  0  0  0  0  0  0  0  0  0  0  0
    7.3773  -15.7824   21.5959 C   0  0  1  0  0  0  0  0  0  0  0  0
    7.0466  -17.1853   21.6937 C   0  0  0  0  0  0  0  0  0  0  0  0
    6.3663  -18.0486   20.7771 C   0  0  0  0  0  0  0  0  0  0  0  0
    6.2569  -17.9295   19.3527 C   0  0  0  0  0  0  0  0  0  0  0  0
    5.5833  -18.8833   18.4639 C   0  0  0  0  0  0  0  0  0  0  0  0
    5.4598  -18.7038   17.0919 N   0  0  0  0  0  0  0  0  0  0  0  0
    8.1158  -15.3695   22.8528 C   0  0  0  0  0  0  0  0  0  0  0  0
    9.3672  -15.4833   22.8123 O   0  0  0  0  0  0  0  0  0  0  0  0
    5.9511  -11.5525   26.0387 C   0  0  0  0  0  0  0  0  0  0  0  0
    7.0070  -12.3605   25.2773 C   0  0  0  0  0  0  0  0  0  0  0  0
    7.4378  -13.5565   26.0381 C   0  0  2  0  0  0  0  0  0  0  0  0
    8.1313  -13.2066   27.3421 C   0  0  0  0  0  0  0  0  0  0  0  0
    8.2234  -14.5055   25.2067 C   0  0  2  0  0  0  0  0  0  0  0  0
    7.4733  -14.8841   24.0014 N   0  0  0  0  0  0  0  0  0  0  0  0
    8.5576  -15.7198   25.9509 C   0  0  0  0  0  0  0  0  0  0  0  0
    7.6556  -16.5487   26.2026 O   0  0  0  0  0  0  0  0  0  0  0  0
   13.0121  -21.0516   25.3619 N   0  0  0  0  0  0  0  0  0  0  0  0
   12.8604  -19.6555   25.6131 C   0  0  0  0  0  0  0  0  0  0  0  0
   13.6245  -18.8817   25.0048 O   0  0  0  0  0  0  0  0  0  0  0  0
   11.8571  -19.1558   26.5425 C   0  0  0  0  0  0  0  0  0  0  0  0
   11.2369  -17.8937   26.0532 C   0  0  0  0  0  0  0  0  0  0  0  0
   10.2000  -17.2820   26.9398 C   0  0  2  0  0  0  0  0  0  0  0  0
    9.8699  -15.9625   26.3818 N   0  0  0  0  0  0  0  0  0  0  0  0
   10.6167  -17.0708   28.3420 C   0  0  0  0  0  0  0  0  0  0  0  0
   10.8007  -18.1518   29.1754 O   0  0  0  0  0  0  0  0  0  0  0  0
   10.8139  -15.9417   28.8197 O   0  0  0  0  0  0  0  0  0  0  0  0
  2  1  1  6
  3  2  1  0
  4  3  1  0
  5  4  1  0
  6  5  1  0
  7  6  1  0
  8  9  2  0
  8  2  1  0
 10 11  1  0
 12 11  1  0
 12 14  1  0
 12 13  1  1
 14 15  1  6
 15  8  1  0
 16 24  1  0
 16 14  1  0
 17 16  2  0
 18 19  1  0
 19 21  1  0
 20 19  2  0
 21 22  1  0
 23 22  1  6
 23 24  1  0
 23 25  1  0
 25 26  1  0
 27 25  2  0
M  END
$$$$
