KIQ.pdb
     RDKit          3D

 27 26  0  0  1  0  0  0  0  0999 V2000
    8.7142  -18.1527   16.4715 N   0  0  0  0  0  0  0  0  0  0  0  0
    7.8779  -17.9772   17.6027 C   0  0  1  0  0  0  0  0  0  0  0  0
    7.2305  -19.1125   18.2183 C   0  0  0  0  0  0  0  0  0  0  0  0
    7.6863  -20.4559   18.4073 C   0  0  0  0  0  0  0  0  0  0  0  0
    7.7195  -21.2253   19.6164 C   0  0  0  0  0  0  0  0  0  0  0  0
    8.1529  -22.6227   19.7294 C   0  0  0  0  0  0  0  0  0  0  0  0
    8.2498  -23.3048   20.9356 N   0  0  0  0  0  0  0  0  0  0  0  0
    8.6024  -17.1911   18.6765 C   0  0  0  0  0  0  0  0  0  0  0  0
    9.8517  -17.3290   18.7039 O   0  0  0  0  0  0  0  0  0  0  0  0
    6.7367  -12.2541   20.0045 C   0  0  0  0  0  0  0  0  0  0  0  0
    7.6607  -13.4308   19.6741 C   0  0  0  0  0  0  0  0  0  0  0  0
    7.9164  -14.2789   20.8615 C   0  0  2  0  0  0  0  0  0  0  0  0
    8.5107  -13.5028   22.0226 C   0  0  0  0  0  0  0  0  0  0  0  0
    8.6948  -15.5007   20.5293 C   0  0  2  0  0  0  0  0  0  0  0  0
    7.9498  -16.3525   19.5921 N   0  0  0  0  0  0  0  0  0  0  0  0
    9.0037  -16.2814   21.7273 C   0  0  0  0  0  0  0  0  0  0  0  0
    8.0798  -16.8804   22.3201 O   0  0  0  0  0  0  0  0  0  0  0  0
   14.0442  -19.5078   22.1664 N   0  0  0  0  0  0  0  0  0  0  0  0
   13.5366  -19.7115   23.4840 C   0  0  0  0  0  0  0  0  0  0  0  0
   14.1621  -20.4995   24.2191 O   0  0  0  0  0  0  0  0  0  0  0  0
   12.3374  -19.0295   23.9497 C   0  0  0  0  0  0  0  0  0  0  0  0
   11.8032  -18.0955   22.9205 C   0  0  0  0  0  0  0  0  0  0  0  0
   10.6054  -17.2932   23.3169 C   0  0  2  0  0  0  0  0  0  0  0  0
   10.3162  -16.3645   22.2144 N   0  0  0  0  0  0  0  0  0  0  0  0
   10.7698  -16.4802   24.5402 C   0  0  0  0  0  0  0  0  0  0  0  0
   10.5273  -17.0391   25.7754 O   0  0  0  0  0  0  0  0  0  0  0  0
   11.1232  -15.2902   24.5116 O   0  0  0  0  0  0  0  0  0  0  0  0
  2  1  1  6
  3  2  1  0
  4  3  1  0
  5  4  1  0
  6  5  1  0
  7  6  1  0
  8  9  2  0
  8  2  1  0
 10 11  1  0
 12 11  1  0
 12 14  1  0
 12 13  1  1
 14 15  1  6
 15  8  1  0
 16 24  1  0
 16 14  1  0
 17 16  2  0
 18 19  1  0
 19 21  1  0
 20 19  2  0
 21 22  1  0
 23 22  1  6
 23 24  1  0
 23 25  1  0
 25 26  1  0
 27 25  2  0
M  END
$$$$
