KIQ.pdb
     RDKit          3D

 27 26  0  0  1  0  0  0  0  0999 V2000
    8.9461  -15.7582   20.3815 N   0  0  0  0  0  0  0  0  0  0  0  0
    8.1621  -16.1136   21.5078 C   0  0  1  0  0  0  0  0  0  0  0  0
    7.9586  -17.5023   21.8501 C   0  0  0  0  0  0  0  0  0  0  0  0
    7.3794  -18.5726   21.0968 C   0  0  0  0  0  0  0  0  0  0  0  0
    7.9574  -19.3203   20.0190 C   0  0  0  0  0  0  0  0  0  0  0  0
    7.3284  -20.4530   19.3299 C   0  0  0  0  0  0  0  0  0  0  0  0
    6.7985  -20.3777   18.0480 N   0  0  0  0  0  0  0  0  0  0  0  0
    8.6457  -15.3764   22.7401 C   0  0  0  0  0  0  0  0  0  0  0  0
    9.8901  -15.2212   22.8292 O   0  0  0  0  0  0  0  0  0  0  0  0
    6.5897  -11.5431   27.1472 C   0  0  0  0  0  0  0  0  0  0  0  0
    7.7068  -12.4161   26.5660 C   0  0  0  0  0  0  0  0  0  0  0  0
    7.2129  -13.2841   25.4719 C   0  0  2  0  0  0  0  0  0  0  0  0
    5.9859  -14.0865   25.8650 C   0  0  0  0  0  0  0  0  0  0  0  0
    8.2878  -14.1282   24.8878 C   0  0  2  0  0  0  0  0  0  0  0  0
    7.7852  -14.8835   23.7321 N   0  0  0  0  0  0  0  0  0  0  0  0
    8.8196  -15.0736   25.8695 C   0  0  0  0  0  0  0  0  0  0  0  0
    8.2125  -16.1478   26.0729 O   0  0  0  0  0  0  0  0  0  0  0  0
   14.2133  -17.2754   23.9299 N   0  0  0  0  0  0  0  0  0  0  0  0
   13.7099  -16.4907   25.0097 C   0  0  0  0  0  0  0  0  0  0  0  0
   14.5054  -15.7069   25.5625 O   0  0  0  0  0  0  0  0  0  0  0  0
   12.3263  -16.6023   25.4491 C   0  0  0  0  0  0  0  0  0  0  0  0
   12.1036  -15.9001   26.7431 C   0  0  0  0  0  0  0  0  0  0  0  0
   10.6987  -15.8902   27.2544 C   0  0  2  0  0  0  0  0  0  0  0  0
    9.9950  -14.7896   26.5798 N   0  0  0  0  0  0  0  0  0  0  0  0
   10.5605  -15.6695   28.7093 C   0  0  0  0  0  0  0  0  0  0  0  0
   10.6938  -16.7271   29.5814 O   0  0  0  0  0  0  0  0  0  0  0  0
   10.3241  -14.5528   29.1982 O   0  0  0  0  0  0  0  0  0  0  0  0
  2  1  1  6
  3  2  1  0
  4  3  1  0
  5  4  1  0
  6  5  1  0
  7  6  1  0
  8  9  2  0
  8  2  1  0
 10 11  1  0
 12 11  1  0
 12 14  1  0
 12 13  1  1
 14 15  1  6
 15  8  1  0
 16 24  1  0
 16 14  1  0
 17 16  2  0
 18 19  1  0
 19 21  1  0
 20 19  2  0
 21 22  1  0
 23 22  1  6
 23 24  1  0
 23 25  1  0
 25 26  1  0
 27 25  2  0
M  END
$$$$
