KIQ.pdb
     RDKit          3D

 27 26  0  0  1  0  0  0  0  0999 V2000
    9.0993  -18.4576   16.9984 N   0  0  0  0  0  0  0  0  0  0  0  0
    8.3229  -18.3358   18.1782 C   0  0  1  0  0  0  0  0  0  0  0  0
    7.9354  -19.5104   18.9247 C   0  0  0  0  0  0  0  0  0  0  0  0
    7.7579  -20.8664   18.5026 C   0  0  0  0  0  0  0  0  0  0  0  0
    8.6934  -21.7227   17.8344 C   0  0  0  0  0  0  0  0  0  0  0  0
    8.4531  -23.1191   17.4525 C   0  0  0  0  0  0  0  0  0  0  0  0
    9.3465  -23.8799   16.7090 N   0  0  0  0  0  0  0  0  0  0  0  0
    8.9630  -17.3458   19.1301 C   0  0  0  0  0  0  0  0  0  0  0  0
   10.2188  -17.3729   19.1818 O   0  0  0  0  0  0  0  0  0  0  0  0
    6.6519  -12.4547   20.0410 C   0  0  0  0  0  0  0  0  0  0  0  0
    7.7058  -13.5412   19.8034 C   0  0  0  0  0  0  0  0  0  0  0  0
    8.0011  -14.3004   21.0408 C   0  0  2  0  0  0  0  0  0  0  0  0
    8.4982  -13.4160   22.1698 C   0  0  0  0  0  0  0  0  0  0  0  0
    8.8875  -15.4674   20.7929 C   0  0  2  0  0  0  0  0  0  0  0  0
    8.2289  -16.4423   19.9127 N   0  0  0  0  0  0  0  0  0  0  0  0
    9.2541  -16.1364   22.0411 C   0  0  0  0  0  0  0  0  0  0  0  0
    8.4106  -16.8583   22.6168 O   0  0  0  0  0  0  0  0  0  0  0  0
   14.7329  -18.4663   22.4055 N   0  0  0  0  0  0  0  0  0  0  0  0
   14.3110  -18.7403   23.7404 C   0  0  0  0  0  0  0  0  0  0  0  0
   15.0895  -19.3951   24.4600 O   0  0  0  0  0  0  0  0  0  0  0  0
   13.0244  -18.2769   24.2405 C   0  0  0  0  0  0  0  0  0  0  0  0
   12.3441  -17.3857   23.2607 C   0  0  0  0  0  0  0  0  0  0  0  0
   10.9752  -16.9164   23.6365 C   0  0  2  0  0  0  0  0  0  0  0  0
   10.5328  -15.9780   22.5948 N   0  0  0  0  0  0  0  0  0  0  0  0
   10.8869  -16.2059   24.9296 C   0  0  0  0  0  0  0  0  0  0  0  0
   11.0144  -14.8353   24.9716 O   0  0  0  0  0  0  0  0  0  0  0  0
   10.6997  -16.7951   26.0065 O   0  0  0  0  0  0  0  0  0  0  0  0
  2  1  1  6
  3  2  1  0
  4  3  1  0
  5  4  1  0
  6  5  1  0
  7  6  1  0
  8  9  2  0
  8  2  1  0
 10 11  1  0
 12 11  1  0
 12 14  1  0
 12 13  1  1
 14 15  1  6
 15  8  1  0
 16 24  1  0
 16 14  1  0
 17 16  2  0
 18 19  1  0
 19 21  1  0
 20 19  2  0
 21 22  1  0
 23 22  1  6
 23 24  1  0
 23 25  1  0
 25 26  1  0
 27 25  2  0
M  END
$$$$
