KIQ.pdb
     RDKit          3D

 27 26  0  0  1  0  0  0  0  0999 V2000
    6.5046  -14.9557   21.1489 N   0  0  0  0  0  0  0  0  0  0  0  0
    7.8837  -14.6323   21.0932 C   0  0  1  0  0  0  0  0  0  0  0  0
    8.3491  -13.5496   20.2575 C   0  0  0  0  0  0  0  0  0  0  0  0
    8.0344  -13.2176   18.9013 C   0  0  0  0  0  0  0  0  0  0  0  0
    7.4186  -14.0394   17.9012 C   0  0  0  0  0  0  0  0  0  0  0  0
    7.1463  -13.6409   16.5154 C   0  0  0  0  0  0  0  0  0  0  0  0
    8.1136  -13.6057   15.5190 N   0  0  0  0  0  0  0  0  0  0  0  0
    8.4360  -14.4378   22.4907 C   0  0  0  0  0  0  0  0  0  0  0  0
    9.6546  -14.1359   22.5583 O   0  0  0  0  0  0  0  0  0  0  0  0
    5.8564  -11.6918   26.1230 C   0  0  0  0  0  0  0  0  0  0  0  0
    6.9632  -12.3691   25.3083 C   0  0  0  0  0  0  0  0  0  0  0  0
    7.3534  -13.6744   25.8901 C   0  0  2  0  0  0  0  0  0  0  0  0
    7.8995  -13.5507   27.3008 C   0  0  0  0  0  0  0  0  0  0  0  0
    8.2496  -14.4502   24.9935 C   0  0  2  0  0  0  0  0  0  0  0  0
    7.6621  -14.5746   23.6526 N   0  0  0  0  0  0  0  0  0  0  0  0
    8.5034  -15.7915   25.5197 C   0  0  0  0  0  0  0  0  0  0  0  0
    7.5400  -16.5681   25.7005 O   0  0  0  0  0  0  0  0  0  0  0  0
   14.2491  -17.3707   23.7225 N   0  0  0  0  0  0  0  0  0  0  0  0
   12.9253  -17.8260   23.9969 C   0  0  0  0  0  0  0  0  0  0  0  0
   12.2871  -18.3238   23.0494 O   0  0  0  0  0  0  0  0  0  0  0  0
   12.3433  -17.7122   25.3267 C   0  0  0  0  0  0  0  0  0  0  0  0
   10.9578  -18.2557   25.3672 C   0  0  0  0  0  0  0  0  0  0  0  0
   10.0132  -17.5831   26.3110 C   0  0  2  0  0  0  0  0  0  0  0  0
    9.8067  -16.2124   25.8211 N   0  0  0  0  0  0  0  0  0  0  0  0
   10.4863  -17.4806   27.7075 C   0  0  0  0  0  0  0  0  0  0  0  0
   10.6175  -18.6168   28.4747 O   0  0  0  0  0  0  0  0  0  0  0  0
   10.7781  -16.3966   28.2383 O   0  0  0  0  0  0  0  0  0  0  0  0
  2  1  1  1
  3  2  1  0
  4  3  1  0
  5  4  1  0
  6  5  1  0
  7  6  1  0
  8  9  2  0
  8  2  1  0
 10 11  1  0
 12 11  1  0
 12 14  1  0
 12 13  1  1
 14 15  1  6
 15  8  1  0
 16 24  1  0
 16 14  1  0
 17 16  2  0
 18 19  1  0
 19 21  1  0
 20 19  2  0
 21 22  1  0
 23 22  1  6
 23 24  1  0
 23 25  1  0
 25 26  1  0
 27 25  2  0
M  END
$$$$
