KIQ.pdb
     RDKit          3D

 27 26  0  0  1  0  0  0  0  0999 V2000
   10.4206  -18.1959   17.0597 N   0  0  0  0  0  0  0  0  0  0  0  0
    9.3382  -18.0481   17.9631 C   0  0  1  0  0  0  0  0  0  0  0  0
    8.7346  -19.2072   18.5789 C   0  0  0  0  0  0  0  0  0  0  0  0
    8.6287  -20.5582   18.1186 C   0  0  0  0  0  0  0  0  0  0  0  0
    9.3323  -21.7173   18.5838 C   0  0  0  0  0  0  0  0  0  0  0  0
    9.1373  -23.0884   18.0983 C   0  0  0  0  0  0  0  0  0  0  0  0
    9.8010  -24.1922   18.6186 N   0  0  0  0  0  0  0  0  0  0  0  0
    9.6900  -17.0506   19.0480 C   0  0  0  0  0  0  0  0  0  0  0  0
   10.9183  -16.8836   19.2577 O   0  0  0  0  0  0  0  0  0  0  0  0
    6.4885  -12.6501   19.9204 C   0  0  0  0  0  0  0  0  0  0  0  0
    7.7095  -13.5573   19.7364 C   0  0  0  0  0  0  0  0  0  0  0  0
    8.0012  -14.3407   20.9595 C   0  0  2  0  0  0  0  0  0  0  0  0
    8.1986  -13.4674   22.1851 C   0  0  0  0  0  0  0  0  0  0  0  0
    9.1097  -15.3107   20.7612 C   0  0  2  0  0  0  0  0  0  0  0  0
    8.7302  -16.3409   19.7847 N   0  0  0  0  0  0  0  0  0  0  0  0
    9.4776  -15.9676   22.0156 C   0  0  0  0  0  0  0  0  0  0  0  0
    8.7396  -16.8682   22.4718 O   0  0  0  0  0  0  0  0  0  0  0  0
   15.4185  -16.1826   23.5249 N   0  0  0  0  0  0  0  0  0  0  0  0
   14.8629  -17.1096   24.4561 C   0  0  0  0  0  0  0  0  0  0  0  0
   15.6601  -17.8355   25.0807 O   0  0  0  0  0  0  0  0  0  0  0  0
   13.4253  -17.2055   24.6664 C   0  0  0  0  0  0  0  0  0  0  0  0
   12.6664  -16.5053   23.5936 C   0  0  0  0  0  0  0  0  0  0  0  0
   11.1773  -16.5133   23.7271 C   0  0  2  0  0  0  0  0  0  0  0  0
   10.6413  -15.6005   22.7067 N   0  0  0  0  0  0  0  0  0  0  0  0
   10.6606  -16.0575   25.0347 C   0  0  0  0  0  0  0  0  0  0  0  0
   10.6337  -16.9250   26.1041 O   0  0  0  0  0  0  0  0  0  0  0  0
   10.2387  -14.9051   25.2238 O   0  0  0  0  0  0  0  0  0  0  0  0
  2  1  1  1
  3  2  1  0
  4  3  1  0
  5  4  1  0
  6  5  1  0
  7  6  1  0
  8  9  2  0
  8  2  1  0
 10 11  1  0
 12 11  1  0
 12 14  1  0
 12 13  1  1
 14 15  1  6
 15  8  1  0
 16 24  1  0
 16 14  1  0
 17 16  2  0
 18 19  1  0
 19 21  1  0
 20 19  2  0
 21 22  1  0
 23 22  1  1
 23 24  1  0
 23 25  1  0
 25 26  1  0
 27 25  2  0
M  END
$$$$
