KIQ.pdb
     RDKit          3D

 27 26  0  0  1  0  0  0  0  0999 V2000
    6.3744  -15.5488   21.5769 N   0  0  0  0  0  0  0  0  0  0  0  0
    7.5324  -14.7549   21.3812 C   0  0  1  0  0  0  0  0  0  0  0  0
    7.4496  -13.5023   20.6661 C   0  0  0  0  0  0  0  0  0  0  0  0
    7.1902  -13.2333   19.2845 C   0  0  0  0  0  0  0  0  0  0  0  0
    7.8977  -13.7131   18.1338 C   0  0  0  0  0  0  0  0  0  0  0  0
    7.5963  -13.3689   16.7395 C   0  0  0  0  0  0  0  0  0  0  0  0
    8.3885  -13.7480   15.6632 N   0  0  0  0  0  0  0  0  0  0  0  0
    8.2350  -14.5137   22.7018 C   0  0  0  0  0  0  0  0  0  0  0  0
    9.4326  -14.1396   22.6219 O   0  0  0  0  0  0  0  0  0  0  0  0
    5.9470  -12.0205   26.6746 C   0  0  0  0  0  0  0  0  0  0  0  0
    7.0933  -12.5437   25.8029 C   0  0  0  0  0  0  0  0  0  0  0  0
    7.5516  -13.8820   26.2431 C   0  0  2  0  0  0  0  0  0  0  0  0
    8.2315  -13.8548   27.5998 C   0  0  0  0  0  0  0  0  0  0  0  0
    8.3640  -14.5726   25.2076 C   0  0  2  0  0  0  0  0  0  0  0  0
    7.6149  -14.6839   23.9485 N   0  0  0  0  0  0  0  0  0  0  0  0
    8.7547  -15.9144   25.6401 C   0  0  0  0  0  0  0  0  0  0  0  0
    7.8856  -16.8111   25.7067 O   0  0  0  0  0  0  0  0  0  0  0  0
   13.6479  -18.5421   23.6160 N   0  0  0  0  0  0  0  0  0  0  0  0
   13.3003  -19.5102   24.6046 C   0  0  0  0  0  0  0  0  0  0  0  0
   13.9499  -20.5735   24.6127 O   0  0  0  0  0  0  0  0  0  0  0  0
   12.2305  -19.2675   25.5620 C   0  0  0  0  0  0  0  0  0  0  0  0
   11.5583  -17.9623   25.3140 C   0  0  0  0  0  0  0  0  0  0  0  0
   10.4577  -17.5979   26.2579 C   0  0  2  0  0  0  0  0  0  0  0  0
   10.0847  -16.2035   25.9782 N   0  0  0  0  0  0  0  0  0  0  0  0
   10.8071  -17.6767   27.6919 C   0  0  0  0  0  0  0  0  0  0  0  0
   10.9275  -18.9044   28.3042 O   0  0  0  0  0  0  0  0  0  0  0  0
   11.0021  -16.6688   28.3905 O   0  0  0  0  0  0  0  0  0  0  0  0
  2  1  1  1
  3  2  1  0
  4  3  1  0
  5  4  1  0
  6  5  1  0
  7  6  1  0
  8  9  2  0
  8  2  1  0
 10 11  1  0
 12 11  1  0
 12 14  1  0
 12 13  1  1
 14 15  1  6
 15  8  1  0
 16 24  1  0
 16 14  1  0
 17 16  2  0
 18 19  1  0
 19 21  1  0
 20 19  2  0
 21 22  1  0
 23 22  1  6
 23 24  1  0
 23 25  1  0
 25 26  1  0
 27 25  2  0
M  END
$$$$
