KIQ.pdb
     RDKit          3D

 27 26  0  0  1  0  0  0  0  0999 V2000
    8.5503  -17.8289   16.4518 N   0  0  0  0  0  0  0  0  0  0  0  0
    7.9859  -18.0261   17.7371 C   0  0  1  0  0  0  0  0  0  0  0  0
    7.8319  -19.3590   18.2728 C   0  0  0  0  0  0  0  0  0  0  0  0
    7.7224  -20.6228   17.6103 C   0  0  0  0  0  0  0  0  0  0  0  0
    7.7864  -20.9027   16.2058 C   0  0  0  0  0  0  0  0  0  0  0  0
    7.6748  -22.2311   15.5924 C   0  0  0  0  0  0  0  0  0  0  0  0
    7.7292  -22.4549   14.2225 N   0  0  0  0  0  0  0  0  0  0  0  0
    8.7007  -17.1707   18.7633 C   0  0  0  0  0  0  0  0  0  0  0  0
    9.9272  -17.4052   18.9095 O   0  0  0  0  0  0  0  0  0  0  0  0
    7.0604  -12.0381   19.8648 C   0  0  0  0  0  0  0  0  0  0  0  0
    7.9840  -13.2362   19.6217 C   0  0  0  0  0  0  0  0  0  0  0  0
    8.0686  -14.1151   20.8112 C   0  0  2  0  0  0  0  0  0  0  0  0
    8.6106  -13.3992   22.0350 C   0  0  0  0  0  0  0  0  0  0  0  0
    8.7826  -15.3873   20.5273 C   0  0  2  0  0  0  0  0  0  0  0  0
    8.0637  -16.1715   19.5139 N   0  0  0  0  0  0  0  0  0  0  0  0
    8.9265  -16.2017   21.7340 C   0  0  0  0  0  0  0  0  0  0  0  0
    7.9017  -16.6493   22.2938 O   0  0  0  0  0  0  0  0  0  0  0  0
   12.2687  -20.7844   22.0342 N   0  0  0  0  0  0  0  0  0  0  0  0
   13.0583  -19.6183   22.2625 C   0  0  0  0  0  0  0  0  0  0  0  0
   14.2609  -19.6738   21.9411 O   0  0  0  0  0  0  0  0  0  0  0  0
   12.4844  -18.4152   22.8483 C   0  0  0  0  0  0  0  0  0  0  0  0
   11.0230  -18.5666   23.0902 C   0  0  0  0  0  0  0  0  0  0  0  0
   10.2854  -17.3228   23.4697 C   0  0  2  0  0  0  0  0  0  0  0  0
   10.1932  -16.4839   22.2658 N   0  0  0  0  0  0  0  0  0  0  0  0
   10.9277  -16.5069   24.5216 C   0  0  0  0  0  0  0  0  0  0  0  0
   10.9911  -16.9773   25.8145 O   0  0  0  0  0  0  0  0  0  0  0  0
   11.4249  -15.3919   24.2949 O   0  0  0  0  0  0  0  0  0  0  0  0
  2  1  1  6
  3  2  1  0
  4  3  1  0
  5  4  1  0
  6  5  1  0
  7  6  1  0
  8  9  2  0
  8  2  1  0
 10 11  1  0
 12 11  1  0
 12 14  1  0
 12 13  1  1
 14 15  1  6
 15  8  1  0
 16 24  1  0
 16 14  1  0
 17 16  2  0
 18 19  1  0
 19 21  1  0
 20 19  2  0
 21 22  1  0
 23 22  1  6
 23 24  1  0
 23 25  1  0
 25 26  1  0
 27 25  2  0
M  END
$$$$
