KIQ.pdb
     RDKit          3D

 27 26  0  0  1  0  0  0  0  0999 V2000
    8.8065  -15.0827   19.9633 N   0  0  0  0  0  0  0  0  0  0  0  0
    7.9737  -15.5991   20.9878 C   0  0  1  0  0  0  0  0  0  0  0  0
    7.6578  -17.0081   21.0345 C   0  0  0  0  0  0  0  0  0  0  0  0
    6.9391  -17.8331   20.1120 C   0  0  0  0  0  0  0  0  0  0  0  0
    7.1462  -17.9848   18.7018 C   0  0  0  0  0  0  0  0  0  0  0  0
    6.3435  -18.8240   17.8047 C   0  0  0  0  0  0  0  0  0  0  0  0
    5.1490  -19.4276   18.1770 N   0  0  0  0  0  0  0  0  0  0  0  0
    8.4857  -15.1716   22.3483 C   0  0  0  0  0  0  0  0  0  0  0  0
    9.7218  -15.3075   22.5331 O   0  0  0  0  0  0  0  0  0  0  0  0
    6.9052  -11.6777   27.2074 C   0  0  0  0  0  0  0  0  0  0  0  0
    7.8360  -12.7168   26.5737 C   0  0  0  0  0  0  0  0  0  0  0  0
    7.2847  -13.2474   25.3052 C   0  0  2  0  0  0  0  0  0  0  0  0
    5.8699  -13.7767   25.4538 C   0  0  0  0  0  0  0  0  0  0  0  0
    8.1973  -14.2232   24.6540 C   0  0  2  0  0  0  0  0  0  0  0  0
    7.6596  -14.6505   23.3551 N   0  0  0  0  0  0  0  0  0  0  0  0
    8.3997  -15.4072   25.4891 C   0  0  0  0  0  0  0  0  0  0  0  0
    7.6734  -16.4098   25.3124 O   0  0  0  0  0  0  0  0  0  0  0  0
   13.7281  -18.2727   24.6763 N   0  0  0  0  0  0  0  0  0  0  0  0
   12.4091  -17.7395   24.5712 C   0  0  0  0  0  0  0  0  0  0  0  0
   11.7839  -17.9714   23.5186 O   0  0  0  0  0  0  0  0  0  0  0  0
   11.8189  -16.9556   25.6470 C   0  0  0  0  0  0  0  0  0  0  0  0
   10.5003  -17.5055   26.0664 C   0  0  0  0  0  0  0  0  0  0  0  0
    9.7532  -16.7158   27.0928 C   0  0  2  0  0  0  0  0  0  0  0  0
    9.3932  -15.4294   26.4788 N   0  0  0  0  0  0  0  0  0  0  0  0
   10.5088  -16.4139   28.3266 C   0  0  0  0  0  0  0  0  0  0  0  0
   10.9116  -17.4381   29.1547 O   0  0  0  0  0  0  0  0  0  0  0  0
   10.8063  -15.2566   28.6641 O   0  0  0  0  0  0  0  0  0  0  0  0
  2  1  1  6
  3  2  1  0
  4  3  1  0
  5  4  1  0
  6  5  1  0
  7  6  1  0
  8  9  2  0
  8  2  1  0
 10 11  1  0
 12 11  1  0
 12 14  1  0
 12 13  1  1
 14 15  1  6
 15  8  1  0
 16 24  1  0
 16 14  1  0
 17 16  2  0
 18 19  1  0
 19 21  1  0
 20 19  2  0
 21 22  1  0
 23 22  1  6
 23 24  1  0
 23 25  1  0
 25 26  1  0
 27 25  2  0
M  END
$$$$
