KIQ.pdb
     RDKit          3D

 27 26  0  0  1  0  0  0  0  0999 V2000
    6.9321  -14.5885   20.4193 N   0  0  0  0  0  0  0  0  0  0  0  0
    6.5999  -15.3445   21.5716 C   0  0  1  0  0  0  0  0  0  0  0  0
    6.4642  -16.7806   21.4915 C   0  0  0  0  0  0  0  0  0  0  0  0
    5.4144  -17.5887   20.9500 C   0  0  0  0  0  0  0  0  0  0  0  0
    4.8596  -18.8012   21.4764 C   0  0  0  0  0  0  0  0  0  0  0  0
    3.5499  -19.3642   21.1284 C   0  0  0  0  0  0  0  0  0  0  0  0
    3.2622  -19.9456   19.9001 N   0  0  0  0  0  0  0  0  0  0  0  0
    7.5409  -15.0092   22.7109 C   0  0  0  0  0  0  0  0  0  0  0  0
    8.7623  -15.2023   22.4841 O   0  0  0  0  0  0  0  0  0  0  0  0
    6.1841  -11.1988   26.3710 C   0  0  0  0  0  0  0  0  0  0  0  0
    6.9664  -12.0775   25.3894 C   0  0  0  0  0  0  0  0  0  0  0  0
    7.4636  -13.3145   26.0354 C   0  0  2  0  0  0  0  0  0  0  0  0
    8.3924  -13.0367   27.2032 C   0  0  0  0  0  0  0  0  0  0  0  0
    8.0419  -14.2725   25.0572 C   0  0  2  0  0  0  0  0  0  0  0  0
    7.1078  -14.5102   23.9482 N   0  0  0  0  0  0  0  0  0  0  0  0
    8.3579  -15.5550   25.6861 C   0  0  0  0  0  0  0  0  0  0  0  0
    7.5747  -16.5181   25.5346 O   0  0  0  0  0  0  0  0  0  0  0  0
    9.6537  -18.9805   23.2971 N   0  0  0  0  0  0  0  0  0  0  0  0
   10.9586  -19.2139   23.8244 C   0  0  0  0  0  0  0  0  0  0  0  0
   11.4695  -20.3292   23.6057 O   0  0  0  0  0  0  0  0  0  0  0  0
   11.6630  -18.1934   24.5877 C   0  0  0  0  0  0  0  0  0  0  0  0
   10.7766  -17.0418   24.9119 C   0  0  0  0  0  0  0  0  0  0  0  0
   10.2893  -16.9621   26.3231 C   0  0  2  0  0  0  0  0  0  0  0  0
    9.5221  -15.7146   26.4516 N   0  0  0  0  0  0  0  0  0  0  0  0
   11.3486  -16.9308   27.3534 C   0  0  0  0  0  0  0  0  0  0  0  0
   11.8941  -15.7277   27.7430 O   0  0  0  0  0  0  0  0  0  0  0  0
   11.7835  -17.9580   27.8989 O   0  0  0  0  0  0  0  0  0  0  0  0
  2  1  1  6
  3  2  1  0
  4  3  1  0
  5  4  1  0
  6  5  1  0
  7  6  1  0
  8  9  2  0
  8  2  1  0
 10 11  1  0
 12 11  1  0
 12 14  1  0
 12 13  1  1
 14 15  1  6
 15  8  1  0
 16 24  1  0
 16 14  1  0
 17 16  2  0
 18 19  1  0
 19 21  1  0
 20 19  2  0
 21 22  1  0
 23 22  1  6
 23 24  1  0
 23 25  1  0
 25 26  1  0
 27 25  2  0
M  END
$$$$
