KIQ.pdb
     RDKit          3D

 27 26  0  0  1  0  0  0  0  0999 V2000
    6.3253  -15.7401   21.4860 N   0  0  0  0  0  0  0  0  0  0  0  0
    7.7156  -15.5303   21.3059 C   0  0  1  0  0  0  0  0  0  0  0  0
    8.1958  -14.6689   20.2501 C   0  0  0  0  0  0  0  0  0  0  0  0
    7.6228  -14.3436   18.9797 C   0  0  0  0  0  0  0  0  0  0  0  0
    7.3063  -13.0504   18.4483 C   0  0  0  0  0  0  0  0  0  0  0  0
    8.0471  -12.3564   17.3886 C   0  0  0  0  0  0  0  0  0  0  0  0
    8.2729  -12.8929   16.1273 N   0  0  0  0  0  0  0  0  0  0  0  0
    8.3570  -15.1023   22.6102 C   0  0  0  0  0  0  0  0  0  0  0  0
    9.5693  -14.7765   22.5406 O   0  0  0  0  0  0  0  0  0  0  0  0
    5.7535  -12.0060   26.0092 C   0  0  0  0  0  0  0  0  0  0  0  0
    6.9022  -12.6629   25.2368 C   0  0  0  0  0  0  0  0  0  0  0  0
    7.4174  -13.8639   25.9344 C   0  0  2  0  0  0  0  0  0  0  0  0
    8.0116  -13.5454   27.2943 C   0  0  0  0  0  0  0  0  0  0  0  0
    8.3327  -14.6666   25.0818 C   0  0  2  0  0  0  0  0  0  0  0  0
    7.6680  -15.0580   23.8313 N   0  0  0  0  0  0  0  0  0  0  0  0
    8.7838  -15.8758   25.7705 C   0  0  0  0  0  0  0  0  0  0  0  0
    7.9355  -16.7057   26.1649 O   0  0  0  0  0  0  0  0  0  0  0  0
   14.3020  -18.3391   24.7377 N   0  0  0  0  0  0  0  0  0  0  0  0
   13.7927  -19.2502   25.7100 C   0  0  0  0  0  0  0  0  0  0  0  0
   14.4913  -20.2470   25.9766 O   0  0  0  0  0  0  0  0  0  0  0  0
   12.5100  -19.0267   26.3619 C   0  0  0  0  0  0  0  0  0  0  0  0
   11.8741  -17.7616   25.9013 C   0  0  0  0  0  0  0  0  0  0  0  0
   10.5634  -17.4153   26.5316 C   0  0  2  0  0  0  0  0  0  0  0  0
   10.1484  -16.1124   25.9914 N   0  0  0  0  0  0  0  0  0  0  0  0
   10.5873  -17.2894   28.0041 C   0  0  0  0  0  0  0  0  0  0  0  0
   10.4086  -18.4041   28.7929 O   0  0  0  0  0  0  0  0  0  0  0  0
   10.7639  -16.2042   28.5811 O   0  0  0  0  0  0  0  0  0  0  0  0
  2  1  1  1
  3  2  1  0
  4  3  1  0
  5  4  1  0
  6  5  1  0
  7  6  1  0
  8  9  2  0
  8  2  1  0
 10 11  1  0
 12 11  1  0
 12 14  1  0
 12 13  1  1
 14 15  1  6
 15  8  1  0
 16 24  1  0
 16 14  1  0
 17 16  2  0
 18 19  1  0
 19 21  1  0
 20 19  2  0
 21 22  1  0
 23 22  1  6
 23 24  1  0
 23 25  1  0
 25 26  1  0
 27 25  2  0
M  END
$$$$
