KIQ.pdb
     RDKit          3D

 27 26  0  0  1  0  0  0  0  0999 V2000
    9.8518  -18.7936   17.0743 N   0  0  0  0  0  0  0  0  0  0  0  0
    8.7972  -18.5455   17.9886 C   0  0  1  0  0  0  0  0  0  0  0  0
    8.1499  -19.6397   18.6747 C   0  0  0  0  0  0  0  0  0  0  0  0
    7.2005  -20.6026   18.2058 C   0  0  0  0  0  0  0  0  0  0  0  0
    5.8272  -20.4008   17.8477 C   0  0  0  0  0  0  0  0  0  0  0  0
    4.8871  -21.4502   17.4376 C   0  0  0  0  0  0  0  0  0  0  0  0
    3.5934  -21.1980   16.9991 N   0  0  0  0  0  0  0  0  0  0  0  0
    9.2206  -17.5130   19.0136 C   0  0  0  0  0  0  0  0  0  0  0  0
   10.3954  -17.6249   19.4470 O   0  0  0  0  0  0  0  0  0  0  0  0
    7.6563  -11.8852   21.0501 C   0  0  0  0  0  0  0  0  0  0  0  0
    8.5259  -13.1412   21.1672 C   0  0  0  0  0  0  0  0  0  0  0  0
    7.9773  -14.2653   20.3734 C   0  0  2  0  0  0  0  0  0  0  0  0
    6.5279  -14.5691   20.7062 C   0  0  0  0  0  0  0  0  0  0  0  0
    8.8433  -15.4722   20.4248 C   0  0  2  0  0  0  0  0  0  0  0  0
    8.3805  -16.4849   19.4661 N   0  0  0  0  0  0  0  0  0  0  0  0
    8.8568  -16.0653   21.7621 C   0  0  0  0  0  0  0  0  0  0  0  0
    8.0304  -16.9617   22.0403 O   0  0  0  0  0  0  0  0  0  0  0  0
   11.4421  -20.4625   21.6966 N   0  0  0  0  0  0  0  0  0  0  0  0
   12.1901  -19.8145   22.7241 C   0  0  0  0  0  0  0  0  0  0  0  0
   13.3931  -20.1209   22.8315 O   0  0  0  0  0  0  0  0  0  0  0  0
   11.5739  -18.8382   23.6114 C   0  0  0  0  0  0  0  0  0  0  0  0
   10.9711  -17.7093   22.8503 C   0  0  0  0  0  0  0  0  0  0  0  0
   10.3299  -16.6326   23.6658 C   0  0  2  0  0  0  0  0  0  0  0  0
    9.7807  -15.6419   22.7286 N   0  0  0  0  0  0  0  0  0  0  0  0
   11.2392  -15.9106   24.5804 C   0  0  0  0  0  0  0  0  0  0  0  0
   11.8571  -14.7524   24.1637 O   0  0  0  0  0  0  0  0  0  0  0  0
   11.4813  -16.3038   25.7331 O   0  0  0  0  0  0  0  0  0  0  0  0
  2  1  1  1
  3  2  1  0
  4  3  1  0
  5  4  1  0
  6  5  1  0
  7  6  1  0
  8  9  2  0
  8  2  1  0
 10 11  1  0
 12 11  1  0
 12 14  1  0
 12 13  1  1
 14 15  1  6
 15  8  1  0
 16 24  1  0
 16 14  1  0
 17 16  2  0
 18 19  1  0
 19 21  1  0
 20 19  2  0
 21 22  1  0
 23 22  1  6
 23 24  1  0
 23 25  1  0
 25 26  1  0
 27 25  2  0
M  END
$$$$
