KIQ.pdb
     RDKit          3D

 27 26  0  0  1  0  0  0  0  0999 V2000
    6.4939  -16.1919   21.8309 N   0  0  0  0  0  0  0  0  0  0  0  0
    7.7304  -15.6042   21.4632 C   0  0  1  0  0  0  0  0  0  0  0  0
    7.7907  -14.6303   20.3979 C   0  0  0  0  0  0  0  0  0  0  0  0
    7.3839  -14.7205   19.0286 C   0  0  0  0  0  0  0  0  0  0  0  0
    8.0533  -15.3694   17.9397 C   0  0  0  0  0  0  0  0  0  0  0  0
    7.5430  -15.4846   16.5687 C   0  0  0  0  0  0  0  0  0  0  0  0
    8.1795  -14.9395   15.4608 N   0  0  0  0  0  0  0  0  0  0  0  0
    8.4252  -15.0327   22.6825 C   0  0  0  0  0  0  0  0  0  0  0  0
    9.5648  -14.5416   22.4805 O   0  0  0  0  0  0  0  0  0  0  0  0
    5.6762  -12.2442   26.3325 C   0  0  0  0  0  0  0  0  0  0  0  0
    6.8083  -12.7362   25.4249 C   0  0  0  0  0  0  0  0  0  0  0  0
    7.5864  -13.8260   26.0585 C   0  0  2  0  0  0  0  0  0  0  0  0
    8.2268  -13.4071   27.3693 C   0  0  0  0  0  0  0  0  0  0  0  0
    8.5549  -14.4514   25.1205 C   0  0  2  0  0  0  0  0  0  0  0  0
    7.8578  -15.0330   23.9653 N   0  0  0  0  0  0  0  0  0  0  0  0
    9.3327  -15.5030   25.7759 C   0  0  0  0  0  0  0  0  0  0  0  0
   10.1787  -15.1868   26.6409 O   0  0  0  0  0  0  0  0  0  0  0  0
   13.5181  -18.6800   23.8640 N   0  0  0  0  0  0  0  0  0  0  0  0
   13.6084  -18.6550   25.2875 C   0  0  0  0  0  0  0  0  0  0  0  0
   14.7487  -18.7152   25.7864 O   0  0  0  0  0  0  0  0  0  0  0  0
   12.4189  -18.5652   26.1225 C   0  0  0  0  0  0  0  0  0  0  0  0
   11.3304  -17.8070   25.4464 C   0  0  0  0  0  0  0  0  0  0  0  0
    9.9844  -17.8672   26.0945 C   0  0  2  0  0  0  0  0  0  0  0  0
    9.1406  -16.8526   25.4465 N   0  0  0  0  0  0  0  0  0  0  0  0
    9.9716  -17.5835   27.5450 C   0  0  0  0  0  0  0  0  0  0  0  0
    9.8870  -18.6199   28.4481 O   0  0  0  0  0  0  0  0  0  0  0  0
   10.0341  -16.4310   28.0030 O   0  0  0  0  0  0  0  0  0  0  0  0
  2  1  1  1
  3  2  1  0
  4  3  1  0
  5  4  1  0
  6  5  1  0
  7  6  1  0
  8  9  2  0
  8  2  1  0
 10 11  1  0
 12 11  1  0
 12 14  1  0
 12 13  1  1
 14 15  1  6
 15  8  1  0
 16 24  1  0
 16 14  1  0
 17 16  2  0
 18 19  1  0
 19 21  1  0
 20 19  2  0
 21 22  1  0
 23 22  1  6
 23 24  1  0
 23 25  1  0
 25 26  1  0
 27 25  2  0
M  END
$$$$
