CNI.pdb
     RDKit          3D

 23 22  0  0  1  0  0  0  0  0999 V2000
    8.7547  -15.1262   18.9469 N   0  0  0  0  0  0  0  0  0  0  0  0
    8.4280  -13.9963   19.7942 C   0  0  1  0  0  0  0  0  0  0  0  0
    7.3247  -13.2219   19.0623 C   0  0  0  0  0  0  0  0  0  0  0  0
    8.0864  -12.6229   17.5144 S   0  0  0  0  0  0  0  0  0  0  0  0
    7.9473  -14.4483   21.1226 C   0  0  0  0  0  0  0  0  0  0  0  0
    7.5568  -13.6397   21.9965 O   0  0  0  0  0  0  0  0  0  0  0  0
    5.8776  -19.5075   23.7031 N   0  0  0  0  0  0  0  0  0  0  0  0
    6.7110  -18.3763   23.7794 C   0  0  0  0  0  0  0  0  0  0  0  0
    6.8711  -17.8757   24.9335 O   0  0  0  0  0  0  0  0  0  0  0  0
    7.3349  -17.8452   22.5660 C   0  0  0  0  0  0  0  0  0  0  0  0
    7.4031  -16.3609   22.6338 C   0  0  2  0  0  0  0  0  0  0  0  0
    7.9256  -15.8295   21.4199 N   0  0  0  0  0  0  0  0  0  0  0  0
    8.1663  -15.8858   23.8353 C   0  0  0  0  0  0  0  0  0  0  0  0
    9.3909  -16.1266   23.8541 O   0  0  0  0  0  0  0  0  0  0  0  0
    6.0220  -11.5577   26.6030 C   0  0  0  0  0  0  0  0  0  0  0  0
    6.9549  -12.4592   25.8169 C   0  0  0  0  0  0  0  0  0  0  0  0
    7.4067  -13.5653   26.7499 C   0  0  2  0  0  0  0  0  0  0  0  0
    8.2644  -12.8932   27.7942 C   0  0  0  0  0  0  0  0  0  0  0  0
    8.1534  -14.6688   26.0909 C   0  0  2  0  0  0  0  0  0  0  0  0
    7.5688  -15.2067   24.8950 N   0  0  0  0  0  0  0  0  0  0  0  0
    8.6336  -15.6624   27.0219 C   0  0  0  0  0  0  0  0  0  0  0  0
    8.1597  -16.8074   27.1103 O   0  0  0  0  0  0  0  0  0  0  0  0
    9.6985  -15.3321   27.8859 O   0  0  0  0  0  0  0  0  0  0  0  0
  2  1  1  6
  2  5  1  0
  3  2  1  0
  4  3  1  0
  5 12  1  0
  6  5  2  0
  7  8  1  0
  8  9  2  0
 10  8  1  0
 11 13  1  0
 11 10  1  6
 12 11  1  0
 13 14  2  0
 16 15  1  0
 17 16  1  0
 17 18  1  1
 19 17  1  0
 20 13  1  0
 19 20  1  6
 21 19  1  0
 22 21  2  0
 23 21  1  0
M  END
$$$$
