CNI.pdb
     RDKit          3D

 23 22  0  0  1  0  0  0  0  0999 V2000
    7.8989  -15.6719   18.0401 N   0  0  0  0  0  0  0  0  0  0  0  0
    8.1769  -14.8807   19.2224 C   0  0  1  0  0  0  0  0  0  0  0  0
    7.5451  -13.5057   18.9712 C   0  0  0  0  0  0  0  0  0  0  0  0
    8.8823  -12.4659   18.2887 S   0  0  0  0  0  0  0  0  0  0  0  0
    7.5886  -15.5059   20.4320 C   0  0  0  0  0  0  0  0  0  0  0  0
    6.5631  -16.2234   20.3752 O   0  0  0  0  0  0  0  0  0  0  0  0
    5.7880  -17.8424   24.3929 N   0  0  0  0  0  0  0  0  0  0  0  0
    7.1389  -17.9417   24.0118 C   0  0  0  0  0  0  0  0  0  0  0  0
    7.9027  -18.5603   24.8131 O   0  0  0  0  0  0  0  0  0  0  0  0
    7.5880  -17.3476   22.7512 C   0  0  0  0  0  0  0  0  0  0  0  0
    7.7194  -15.8734   22.8989 C   0  0  2  0  0  0  0  0  0  0  0  0
    8.1963  -15.2913   21.6896 N   0  0  0  0  0  0  0  0  0  0  0  0
    8.5650  -15.4983   24.0805 C   0  0  0  0  0  0  0  0  0  0  0  0
    9.5440  -16.2325   24.3262 O   0  0  0  0  0  0  0  0  0  0  0  0
    5.6216  -11.9260   27.1042 C   0  0  0  0  0  0  0  0  0  0  0  0
    6.7805  -12.3964   26.2460 C   0  0  0  0  0  0  0  0  0  0  0  0
    7.5427  -13.4343   27.0460 C   0  0  2  0  0  0  0  0  0  0  0  0
    8.1733  -12.6830   28.1931 C   0  0  0  0  0  0  0  0  0  0  0  0
    8.5751  -14.1775   26.2769 C   0  0  2  0  0  0  0  0  0  0  0  0
    8.2989  -14.3919   24.8845 N   0  0  0  0  0  0  0  0  0  0  0  0
    9.0733  -15.3393   26.9744 C   0  0  0  0  0  0  0  0  0  0  0  0
   10.0690  -15.3206   27.7172 O   0  0  0  0  0  0  0  0  0  0  0  0
    8.4052  -16.5714   26.8152 O   0  0  0  0  0  0  0  0  0  0  0  0
  2  1  1  6
  2  5  1  0
  3  2  1  0
  4  3  1  0
  5 12  1  0
  6  5  2  0
  7  8  1  0
  8  9  2  0
 10  8  1  0
 11 13  1  0
 11 10  1  6
 12 11  1  0
 13 14  2  0
 16 15  1  0
 17 16  1  0
 17 18  1  1
 19 17  1  0
 20 13  1  0
 19 20  1  6
 21 19  1  0
 22 21  2  0
 23 21  1  0
M  END
$$$$
