CNI.pdb
     RDKit          3D

 23 22  0  0  1  0  0  0  0  0999 V2000
    7.8788  -16.6737   18.0105 N   0  0  0  0  0  0  0  0  0  0  0  0
    8.5604  -16.3975   19.2597 C   0  0  1  0  0  0  0  0  0  0  0  0
    9.1284  -14.9787   19.1287 C   0  0  0  0  0  0  0  0  0  0  0  0
    7.7108  -13.8550   19.3789 S   0  0  0  0  0  0  0  0  0  0  0  0
    7.6225  -16.4744   20.4063 C   0  0  0  0  0  0  0  0  0  0  0  0
    6.4546  -16.9099   20.2793 O   0  0  0  0  0  0  0  0  0  0  0  0
    7.4688  -18.5259   25.3271 N   0  0  0  0  0  0  0  0  0  0  0  0
    6.6754  -18.3782   24.1743 C   0  0  0  0  0  0  0  0  0  0  0  0
    5.4407  -18.6346   24.3079 O   0  0  0  0  0  0  0  0  0  0  0  0
    7.2883  -17.9501   22.9155 C   0  0  0  0  0  0  0  0  0  0  0  0
    7.4382  -16.4704   22.8970 C   0  0  2  0  0  0  0  0  0  0  0  0
    8.0505  -16.0460   21.6830 N   0  0  0  0  0  0  0  0  0  0  0  0
    8.1664  -15.9623   24.1068 C   0  0  0  0  0  0  0  0  0  0  0  0
    9.3495  -16.3344   24.2476 O   0  0  0  0  0  0  0  0  0  0  0  0
    5.5010  -11.7706   26.7638 C   0  0  0  0  0  0  0  0  0  0  0  0
    6.5444  -12.4777   25.9199 C   0  0  0  0  0  0  0  0  0  0  0  0
    7.3040  -13.4177   26.8350 C   0  0  2  0  0  0  0  0  0  0  0  0
    8.1204  -12.5314   27.7437 C   0  0  0  0  0  0  0  0  0  0  0  0
    8.1777  -14.3960   26.1354 C   0  0  2  0  0  0  0  0  0  0  0  0
    7.5810  -15.1160   25.0461 N   0  0  0  0  0  0  0  0  0  0  0  0
    8.9513  -15.2126   27.0406 C   0  0  0  0  0  0  0  0  0  0  0  0
    9.9300  -14.7920   27.6799 O   0  0  0  0  0  0  0  0  0  0  0  0
    8.5902  -16.5641   27.2210 O   0  0  0  0  0  0  0  0  0  0  0  0
  2  1  1  6
  2  5  1  0
  3  2  1  0
  4  3  1  0
  5 12  1  0
  6  5  2  0
  7  8  1  0
  8  9  2  0
 10  8  1  0
 11 13  1  0
 11 10  1  1
 12 11  1  0
 13 14  2  0
 16 15  1  0
 17 16  1  0
 17 18  1  1
 19 17  1  0
 20 13  1  0
 19 20  1  1
 21 19  1  0
 22 21  2  0
 23 21  1  0
M  END
$$$$
