CNI.pdb
     RDKit          3D

 23 22  0  0  1  0  0  0  0  0999 V2000
    8.9279  -15.3025   19.2702 N   0  0  0  0  0  0  0  0  0  0  0  0
    8.4722  -14.1362   20.0006 C   0  0  1  0  0  0  0  0  0  0  0  0
    7.4006  -13.4776   19.1226 C   0  0  0  0  0  0  0  0  0  0  0  0
    8.2769  -12.8909   17.6318 S   0  0  0  0  0  0  0  0  0  0  0  0
    7.8991  -14.5206   21.3136 C   0  0  0  0  0  0  0  0  0  0  0  0
    7.3540  -13.6832   22.0696 O   0  0  0  0  0  0  0  0  0  0  0  0
    6.3913  -18.9369   20.9675 N   0  0  0  0  0  0  0  0  0  0  0  0
    6.1786  -18.1976   22.1457 C   0  0  0  0  0  0  0  0  0  0  0  0
    4.9734  -17.9105   22.4167 O   0  0  0  0  0  0  0  0  0  0  0  0
    7.3175  -17.8058   22.9782 C   0  0  0  0  0  0  0  0  0  0  0  0
    7.4616  -16.3254   22.9836 C   0  0  2  0  0  0  0  0  0  0  0  0
    7.9656  -15.8685   21.7322 N   0  0  0  0  0  0  0  0  0  0  0  0
    8.2903  -15.8438   24.1382 C   0  0  0  0  0  0  0  0  0  0  0  0
    9.5225  -16.0271   24.0602 O   0  0  0  0  0  0  0  0  0  0  0  0
    6.0958  -11.6604   26.8184 C   0  0  0  0  0  0  0  0  0  0  0  0
    7.1381  -12.4683   26.0688 C   0  0  0  0  0  0  0  0  0  0  0  0
    7.7002  -13.4899   27.0375 C   0  0  2  0  0  0  0  0  0  0  0  0
    8.6479  -12.7270   27.9307 C   0  0  0  0  0  0  0  0  0  0  0  0
    8.3945  -14.6379   26.3974 C   0  0  2  0  0  0  0  0  0  0  0  0
    7.7438  -15.2190   25.2572 N   0  0  0  0  0  0  0  0  0  0  0  0
    8.9006  -15.5965   27.3511 C   0  0  0  0  0  0  0  0  0  0  0  0
    8.4489  -16.7472   27.4748 O   0  0  0  0  0  0  0  0  0  0  0  0
    9.9661  -15.2231   28.1966 O   0  0  0  0  0  0  0  0  0  0  0  0
  2  1  1  6
  2  5  1  0
  3  2  1  0
  4  3  1  0
  5 12  1  0
  6  5  2  0
  7  8  1  0
  8  9  2  0
 10  8  1  0
 11 13  1  0
 11 10  1  6
 12 11  1  0
 13 14  2  0
 16 15  1  0
 17 16  1  0
 17 18  1  1
 19 17  1  0
 20 13  1  0
 19 20  1  6
 21 19  1  0
 22 21  2  0
 23 21  1  0
M  END
$$$$
