CNI.pdb
     RDKit          3D

 23 22  0  0  1  0  0  0  0  0999 V2000
    7.5339  -15.3589   17.7173 N   0  0  0  0  0  0  0  0  0  0  0  0
    8.3072  -14.6809   18.7389 C   0  0  1  0  0  0  0  0  0  0  0  0
    7.8040  -13.2321   18.7605 C   0  0  0  0  0  0  0  0  0  0  0  0
    8.7788  -12.3907   20.0553 S   0  0  0  0  0  0  0  0  0  0  0  0
    8.1101  -15.3156   20.0650 C   0  0  0  0  0  0  0  0  0  0  0  0
    6.9696  -15.5871   20.5070 O   0  0  0  0  0  0  0  0  0  0  0  0
   10.7646  -18.6788   20.2699 N   0  0  0  0  0  0  0  0  0  0  0  0
    9.8368  -18.3900   21.2876 C   0  0  0  0  0  0  0  0  0  0  0  0
    8.7727  -19.0798   21.2874 O   0  0  0  0  0  0  0  0  0  0  0  0
   10.1299  -17.3426   22.2678 C   0  0  0  0  0  0  0  0  0  0  0  0
    9.1438  -16.2360   22.1440 C   0  0  2  0  0  0  0  0  0  0  0  0
    9.2363  -15.6268   20.8598 N   0  0  0  0  0  0  0  0  0  0  0  0
    9.2749  -15.2369   23.2559 C   0  0  0  0  0  0  0  0  0  0  0  0
   10.1684  -14.3739   23.1332 O   0  0  0  0  0  0  0  0  0  0  0  0
    6.2949  -11.4969   26.7236 C   0  0  0  0  0  0  0  0  0  0  0  0
    7.4233  -12.5021   26.8551 C   0  0  0  0  0  0  0  0  0  0  0  0
    7.3353  -13.4379   25.6657 C   0  0  2  0  0  0  0  0  0  0  0  0
    6.0336  -14.1840   25.8290 C   0  0  0  0  0  0  0  0  0  0  0  0
    8.4707  -14.3887   25.5369 C   0  0  2  0  0  0  0  0  0  0  0  0
    8.4566  -15.2435   24.3835 N   0  0  0  0  0  0  0  0  0  0  0  0
    8.7911  -15.0588   26.7750 C   0  0  0  0  0  0  0  0  0  0  0  0
    9.0816  -14.4613   27.8248 O   0  0  0  0  0  0  0  0  0  0  0  0
    8.7783  -16.4688   26.8127 O   0  0  0  0  0  0  0  0  0  0  0  0
  2  1  1  6
  2  5  1  0
  3  2  1  0
  4  3  1  0
  5 12  1  0
  6  5  2  0
  7  8  1  0
  8  9  2  0
 10  8  1  0
 11 13  1  0
 11 10  1  1
 12 11  1  0
 13 14  2  0
 16 15  1  0
 17 16  1  0
 17 18  1  1
 19 17  1  0
 20 13  1  0
 19 20  1  6
 21 19  1  0
 22 21  2  0
 23 21  1  0
M  END
$$$$
