CNI.pdb
     RDKit          3D

 23 22  0  0  1  0  0  0  0  0999 V2000
    9.6212  -14.5288   18.8241 N   0  0  0  0  0  0  0  0  0  0  0  0
    8.7523  -13.5405   19.4320 C   0  0  1  0  0  0  0  0  0  0  0  0
    7.6249  -13.2885   18.4229 C   0  0  0  0  0  0  0  0  0  0  0  0
    6.8766  -14.9229   18.1010 S   0  0  0  0  0  0  0  0  0  0  0  0
    8.1960  -14.0371   20.7142 C   0  0  0  0  0  0  0  0  0  0  0  0
    7.4159  -13.3464   21.4100 O   0  0  0  0  0  0  0  0  0  0  0  0
    6.2661  -18.5512   23.5523 N   0  0  0  0  0  0  0  0  0  0  0  0
    7.5723  -18.0373   23.4526 C   0  0  0  0  0  0  0  0  0  0  0  0
    8.2981  -18.1483   24.4866 O   0  0  0  0  0  0  0  0  0  0  0  0
    8.0207  -17.4188   22.2036 C   0  0  0  0  0  0  0  0  0  0  0  0
    7.9691  -15.9368   22.3196 C   0  0  2  0  0  0  0  0  0  0  0  0
    8.5510  -15.3260   21.1719 N   0  0  0  0  0  0  0  0  0  0  0  0
    8.5886  -15.4493   23.5965 C   0  0  0  0  0  0  0  0  0  0  0  0
    9.8357  -15.4246   23.6421 O   0  0  0  0  0  0  0  0  0  0  0  0
    6.8294  -10.8462   27.0598 C   0  0  0  0  0  0  0  0  0  0  0  0
    7.7648  -12.0401   27.0824 C   0  0  0  0  0  0  0  0  0  0  0  0
    7.2952  -13.0021   26.0089 C   0  0  2  0  0  0  0  0  0  0  0  0
    5.9281  -13.4671   26.4475 C   0  0  0  0  0  0  0  0  0  0  0  0
    8.1938  -14.1636   25.7782 C   0  0  2  0  0  0  0  0  0  0  0  0
    7.8384  -15.0373   24.6959 N   0  0  0  0  0  0  0  0  0  0  0  0
    8.5670  -14.8415   26.9971 C   0  0  0  0  0  0  0  0  0  0  0  0
    9.0634  -14.2655   27.9796 O   0  0  0  0  0  0  0  0  0  0  0  0
    8.3639  -16.2339   27.0952 O   0  0  0  0  0  0  0  0  0  0  0  0
  2  1  1  6
  2  5  1  0
  3  2  1  0
  4  3  1  0
  5 12  1  0
  6  5  2  0
  7  8  1  0
  8  9  2  0
 10  8  1  0
 11 13  1  0
 11 10  1  6
 12 11  1  0
 13 14  2  0
 16 15  1  0
 17 16  1  0
 17 18  1  1
 19 17  1  0
 20 13  1  0
 19 20  1  6
 21 19  1  0
 22 21  2  0
 23 21  1  0
M  END
$$$$
