CNI.pdb
     RDKit          3D

 23 22  0  0  1  0  0  0  0  0999 V2000
    7.3341  -15.0088   18.7698 N   0  0  0  0  0  0  0  0  0  0  0  0
    8.2853  -14.5149   19.7458 C   0  0  1  0  0  0  0  0  0  0  0  0
    7.9020  -13.0535   20.0103 C   0  0  0  0  0  0  0  0  0  0  0  0
    8.4334  -12.1283   18.5282 S   0  0  0  0  0  0  0  0  0  0  0  0
    8.2172  -15.3018   21.0013 C   0  0  0  0  0  0  0  0  0  0  0  0
    7.1249  -15.6081   21.5333 O   0  0  0  0  0  0  0  0  0  0  0  0
   10.9277  -18.3513   20.4505 N   0  0  0  0  0  0  0  0  0  0  0  0
   10.1210  -18.4174   21.6015 C   0  0  0  0  0  0  0  0  0  0  0  0
    9.1511  -19.2334   21.5593 O   0  0  0  0  0  0  0  0  0  0  0  0
   10.4255  -17.5711   22.7568 C   0  0  0  0  0  0  0  0  0  0  0  0
    9.4474  -16.4540   22.8444 C   0  0  2  0  0  0  0  0  0  0  0  0
    9.4146  -15.7227   21.6225 N   0  0  0  0  0  0  0  0  0  0  0  0
    9.7071  -15.5687   24.0279 C   0  0  0  0  0  0  0  0  0  0  0  0
   10.7605  -14.8995   24.0083 O   0  0  0  0  0  0  0  0  0  0  0  0
    6.0613  -12.3173   26.1622 C   0  0  0  0  0  0  0  0  0  0  0  0
    7.3186  -12.9871   25.6414 C   0  0  0  0  0  0  0  0  0  0  0  0
    7.8374  -13.8917   26.7417 C   0  0  2  0  0  0  0  0  0  0  0  0
    8.2332  -12.9733   27.8721 C   0  0  0  0  0  0  0  0  0  0  0  0
    8.9789  -14.7586   26.3479 C   0  0  2  0  0  0  0  0  0  0  0  0
    8.8366  -15.4746   25.1117 N   0  0  0  0  0  0  0  0  0  0  0  0
    9.4935  -15.5484   27.4415 C   0  0  0  0  0  0  0  0  0  0  0  0
    9.3743  -16.7830   27.5134 O   0  0  0  0  0  0  0  0  0  0  0  0
   10.1714  -14.8993   28.4944 O   0  0  0  0  0  0  0  0  0  0  0  0
  2  1  1  6
  2  5  1  0
  3  2  1  0
  4  3  1  0
  5 12  1  0
  6  5  2  0
  7  8  1  0
  8  9  2  0
 10  8  1  0
 11 13  1  0
 11 10  1  6
 12 11  1  0
 13 14  2  0
 16 15  1  0
 17 16  1  0
 17 18  1  1
 19 17  1  0
 20 13  1  0
 19 20  1  6
 21 19  1  0
 22 21  2  0
 23 21  1  0
M  END
$$$$
