CNI.pdb
     RDKit          3D

 23 22  0  0  1  0  0  0  0  0999 V2000
    7.7441  -15.0567   17.8164 N   0  0  0  0  0  0  0  0  0  0  0  0
    8.1620  -14.5735   19.1176 C   0  0  1  0  0  0  0  0  0  0  0  0
    7.6592  -13.1276   19.2150 C   0  0  0  0  0  0  0  0  0  0  0  0
    8.9203  -12.1092   18.3740 S   0  0  0  0  0  0  0  0  0  0  0  0
    7.5783  -15.3974   20.2042 C   0  0  0  0  0  0  0  0  0  0  0  0
    6.6932  -16.2560   19.9826 O   0  0  0  0  0  0  0  0  0  0  0  0
    6.5843  -17.6691   24.5086 N   0  0  0  0  0  0  0  0  0  0  0  0
    7.2451  -18.2724   23.4226 C   0  0  0  0  0  0  0  0  0  0  0  0
    7.4368  -19.5230   23.5085 O   0  0  0  0  0  0  0  0  0  0  0  0
    7.6676  -17.4588   22.2810 C   0  0  0  0  0  0  0  0  0  0  0  0
    7.5852  -16.0140   22.6244 C   0  0  2  0  0  0  0  0  0  0  0  0
    8.0280  -15.2152   21.5313 N   0  0  0  0  0  0  0  0  0  0  0  0
    8.3183  -15.6935   23.8940 C   0  0  0  0  0  0  0  0  0  0  0  0
    9.5491  -15.9011   23.8996 O   0  0  0  0  0  0  0  0  0  0  0  0
    5.9050  -11.5579   26.4383 C   0  0  0  0  0  0  0  0  0  0  0  0
    6.9200  -12.4358   25.7313 C   0  0  0  0  0  0  0  0  0  0  0  0
    7.4577  -13.4178   26.7534 C   0  0  2  0  0  0  0  0  0  0  0  0
    8.3049  -12.6006   27.6980 C   0  0  0  0  0  0  0  0  0  0  0  0
    8.2461  -14.5411   26.1822 C   0  0  2  0  0  0  0  0  0  0  0  0
    7.6873  -15.1881   25.0287 N   0  0  0  0  0  0  0  0  0  0  0  0
    8.7552  -15.4440   27.1872 C   0  0  0  0  0  0  0  0  0  0  0  0
    8.1737  -16.4859   27.5332 O   0  0  0  0  0  0  0  0  0  0  0  0
    9.9785  -15.1421   27.8213 O   0  0  0  0  0  0  0  0  0  0  0  0
  2  1  1  6
  2  5  1  0
  3  2  1  0
  4  3  1  0
  5 12  1  0
  6  5  2  0
  7  8  1  0
  8  9  2  0
 10  8  1  0
 11 13  1  0
 11 10  1  6
 12 11  1  0
 13 14  2  0
 16 15  1  0
 17 16  1  0
 17 18  1  1
 19 17  1  0
 20 13  1  0
 19 20  1  6
 21 19  1  0
 22 21  2  0
 23 21  1  0
M  END
$$$$
