CNI.pdb
     RDKit          3D

 23 22  0  0  1  0  0  0  0  0999 V2000
    7.0148  -14.1314   18.4735 N   0  0  0  0  0  0  0  0  0  0  0  0
    8.2973  -14.4684   19.0590 C   0  0  1  0  0  0  0  0  0  0  0  0
    9.0860  -13.1553   19.1380 C   0  0  0  0  0  0  0  0  0  0  0  0
    8.1003  -12.0515   20.2080 S   0  0  0  0  0  0  0  0  0  0  0  0
    8.1281  -15.0513   20.4124 C   0  0  0  0  0  0  0  0  0  0  0  0
    7.0748  -14.8977   21.0734 O   0  0  0  0  0  0  0  0  0  0  0  0
    8.5443  -19.4224   21.5491 N   0  0  0  0  0  0  0  0  0  0  0  0
    9.6697  -18.6049   21.3361 C   0  0  0  0  0  0  0  0  0  0  0  0
   10.3157  -18.8098   20.2643 O   0  0  0  0  0  0  0  0  0  0  0  0
   10.0329  -17.5893   22.3262 C   0  0  0  0  0  0  0  0  0  0  0  0
    9.0897  -16.4416   22.2510 C   0  0  2  0  0  0  0  0  0  0  0  0
    9.1807  -15.8034   20.9808 N   0  0  0  0  0  0  0  0  0  0  0  0
    9.2831  -15.4776   23.3846 C   0  0  0  0  0  0  0  0  0  0  0  0
   10.3326  -14.8020   23.3746 O   0  0  0  0  0  0  0  0  0  0  0  0
    6.2635  -11.4533   26.6008 C   0  0  0  0  0  0  0  0  0  0  0  0
    7.3963  -12.4494   26.7599 C   0  0  0  0  0  0  0  0  0  0  0  0
    7.2474  -13.4821   25.6601 C   0  0  2  0  0  0  0  0  0  0  0  0
    5.9627  -14.2153   25.9601 C   0  0  0  0  0  0  0  0  0  0  0  0
    8.3806  -14.4375   25.5462 C   0  0  2  0  0  0  0  0  0  0  0  0
    8.3572  -15.3195   24.4137 N   0  0  0  0  0  0  0  0  0  0  0  0
    8.7086  -15.0784   26.7977 C   0  0  0  0  0  0  0  0  0  0  0  0
    8.9952  -14.4563   27.8342 O   0  0  0  0  0  0  0  0  0  0  0  0
    8.7084  -16.4874   26.8652 O   0  0  0  0  0  0  0  0  0  0  0  0
  2  1  1  1
  2  5  1  0
  3  2  1  0
  4  3  1  0
  5 12  1  0
  6  5  2  0
  7  8  1  0
  8  9  2  0
 10  8  1  0
 11 13  1  0
 11 10  1  6
 12 11  1  0
 13 14  2  0
 16 15  1  0
 17 16  1  0
 17 18  1  1
 19 17  1  0
 20 13  1  0
 19 20  1  6
 21 19  1  0
 22 21  2  0
 23 21  1  0
M  END
$$$$
