CNI.pdb
     RDKit          3D

 23 22  0  0  1  0  0  0  0  0999 V2000
    8.5888  -14.6836   17.4026 N   0  0  0  0  0  0  0  0  0  0  0  0
    9.1735  -14.3714   18.6917 C   0  0  1  0  0  0  0  0  0  0  0  0
    8.8429  -12.8982   18.9621 C   0  0  0  0  0  0  0  0  0  0  0  0
    7.0822  -12.8686   19.4457 S   0  0  0  0  0  0  0  0  0  0  0  0
    8.6043  -15.2322   19.7571 C   0  0  0  0  0  0  0  0  0  0  0  0
    7.7700  -16.1327   19.5066 O   0  0  0  0  0  0  0  0  0  0  0  0
   11.0127  -16.2864   21.2096 N   0  0  0  0  0  0  0  0  0  0  0  0
   10.2154  -17.4261   21.4231 C   0  0  0  0  0  0  0  0  0  0  0  0
   10.7536  -18.5435   21.1587 O   0  0  0  0  0  0  0  0  0  0  0  0
    8.8476  -17.2775   21.9237 C   0  0  0  0  0  0  0  0  0  0  0  0
    8.5493  -15.8427   22.1783 C   0  0  2  0  0  0  0  0  0  0  0  0
    9.0093  -15.0379   21.0969 N   0  0  0  0  0  0  0  0  0  0  0  0
    9.0906  -15.3801   23.4992 C   0  0  0  0  0  0  0  0  0  0  0  0
   10.2941  -15.0503   23.5286 O   0  0  0  0  0  0  0  0  0  0  0  0
    6.0998  -11.9657   26.2862 C   0  0  0  0  0  0  0  0  0  0  0  0
    7.2399  -12.7037   25.6106 C   0  0  0  0  0  0  0  0  0  0  0  0
    7.6612  -13.8282   26.5358 C   0  0  2  0  0  0  0  0  0  0  0  0
    8.2398  -13.1565   27.7572 C   0  0  0  0  0  0  0  0  0  0  0  0
    8.6397  -14.7819   25.9503 C   0  0  2  0  0  0  0  0  0  0  0  0
    8.3159  -15.3101   24.6552 N   0  0  0  0  0  0  0  0  0  0  0  0
    9.1081  -15.7653   26.8979 C   0  0  0  0  0  0  0  0  0  0  0  0
    8.7710  -16.9608   26.8713 O   0  0  0  0  0  0  0  0  0  0  0  0
    9.9978  -15.3643   27.9165 O   0  0  0  0  0  0  0  0  0  0  0  0
  2  1  1  6
  2  5  1  0
  3  2  1  0
  4  3  1  0
  5 12  1  0
  6  5  2  0
  7  8  1  0
  8  9  2  0
 10  8  1  0
 11 13  1  0
 11 10  1  6
 12 11  1  0
 13 14  2  0
 16 15  1  0
 17 16  1  0
 17 18  1  1
 19 17  1  0
 20 13  1  0
 19 20  1  6
 21 19  1  0
 22 21  2  0
 23 21  1  0
M  END
$$$$
