CNI.pdb
     RDKit          3D

 23 22  0  0  1  0  0  0  0  0999 V2000
    9.1871  -15.9946   18.8940 N   0  0  0  0  0  0  0  0  0  0  0  0
    8.8604  -14.7058   19.4715 C   0  0  1  0  0  0  0  0  0  0  0  0
    7.8417  -14.0616   18.5228 C   0  0  0  0  0  0  0  0  0  0  0  0
    7.7135  -12.3172   19.0477 S   0  0  0  0  0  0  0  0  0  0  0  0
    8.2774  -14.8617   20.8264 C   0  0  0  0  0  0  0  0  0  0  0  0
    7.9763  -13.8741   21.5361 O   0  0  0  0  0  0  0  0  0  0  0  0
    6.8478  -19.1849   24.7912 N   0  0  0  0  0  0  0  0  0  0  0  0
    6.4163  -18.1049   23.9991 C   0  0  0  0  0  0  0  0  0  0  0  0
    5.4759  -17.4009   24.4768 O   0  0  0  0  0  0  0  0  0  0  0  0
    7.0493  -17.8500   22.7038 C   0  0  0  0  0  0  0  0  0  0  0  0
    7.3855  -16.4069   22.5742 C   0  0  2  0  0  0  0  0  0  0  0  0
    8.0515  -16.1586   21.3398 N   0  0  0  0  0  0  0  0  0  0  0  0
    8.1672  -15.9022   23.7514 C   0  0  0  0  0  0  0  0  0  0  0  0
    9.3694  -16.2328   23.8108 O   0  0  0  0  0  0  0  0  0  0  0  0
    5.7933  -11.6664   26.3391 C   0  0  0  0  0  0  0  0  0  0  0  0
    6.9404  -12.3666   25.6358 C   0  0  0  0  0  0  0  0  0  0  0  0
    7.4644  -13.4326   26.5777 C   0  0  2  0  0  0  0  0  0  0  0  0
    8.3446  -12.7069   27.5660 C   0  0  0  0  0  0  0  0  0  0  0  0
    8.2158  -14.5319   25.9168 C   0  0  2  0  0  0  0  0  0  0  0  0
    7.6100  -15.1023   24.7469 N   0  0  0  0  0  0  0  0  0  0  0  0
    8.7420  -15.4991   26.8507 C   0  0  0  0  0  0  0  0  0  0  0  0
    8.0950  -16.4742   27.2680 O   0  0  0  0  0  0  0  0  0  0  0  0
   10.0611  -15.3440   27.3256 O   0  0  0  0  0  0  0  0  0  0  0  0
  2  1  1  6
  2  5  1  0
  3  2  1  0
  4  3  1  0
  5 12  1  0
  6  5  2  0
  7  8  1  0
  8  9  2  0
 10  8  1  0
 11 13  1  0
 11 10  1  1
 12 11  1  0
 13 14  2  0
 16 15  1  0
 17 16  1  0
 17 18  1  1
 19 17  1  0
 20 13  1  0
 19 20  1  6
 21 19  1  0
 22 21  2  0
 23 21  1  0
M  END
$$$$
