CNI.pdb
     RDKit          3D

 23 22  0  0  1  0  0  0  0  0999 V2000
    9.3190  -14.5162   19.2568 N   0  0  0  0  0  0  0  0  0  0  0  0
    8.2812  -13.9453   20.0926 C   0  0  1  0  0  0  0  0  0  0  0  0
    6.9935  -13.9904   19.2604 C   0  0  0  0  0  0  0  0  0  0  0  0
    7.2434  -12.7980   17.9001 S   0  0  0  0  0  0  0  0  0  0  0  0
    8.1154  -14.7254   21.3432 C   0  0  0  0  0  0  0  0  0  0  0  0
    7.2005  -14.4776   22.1626 O   0  0  0  0  0  0  0  0  0  0  0  0
   10.0492  -18.9623   20.5616 N   0  0  0  0  0  0  0  0  0  0  0  0
    9.2499  -18.6044   21.6630 C   0  0  0  0  0  0  0  0  0  0  0  0
    8.0648  -19.0560   21.6650 O   0  0  0  0  0  0  0  0  0  0  0  0
    9.8015  -17.7564   22.7214 C   0  0  0  0  0  0  0  0  0  0  0  0
    8.9981  -16.5112   22.8496 C   0  0  2  0  0  0  0  0  0  0  0  0
    9.0110  -15.7809   21.6268 N   0  0  0  0  0  0  0  0  0  0  0  0
    9.4382  -15.6738   24.0145 C   0  0  0  0  0  0  0  0  0  0  0  0
   10.5912  -15.1986   23.9609 O   0  0  0  0  0  0  0  0  0  0  0  0
    5.9195  -12.2914   26.0952 C   0  0  0  0  0  0  0  0  0  0  0  0
    7.2283  -12.8692   25.5910 C   0  0  0  0  0  0  0  0  0  0  0  0
    7.8180  -13.6992   26.7142 C   0  0  2  0  0  0  0  0  0  0  0  0
    8.3482  -12.7067   27.7200 C   0  0  0  0  0  0  0  0  0  0  0  0
    8.8883  -14.6419   26.2953 C   0  0  2  0  0  0  0  0  0  0  0  0
    8.6255  -15.4194   25.1173 N   0  0  0  0  0  0  0  0  0  0  0  0
    9.4444  -15.3924   27.3962 C   0  0  0  0  0  0  0  0  0  0  0  0
   10.0732  -14.8734   28.3337 O   0  0  0  0  0  0  0  0  0  0  0  0
    9.2740  -16.7923   27.4252 O   0  0  0  0  0  0  0  0  0  0  0  0
  2  1  1  6
  2  5  1  0
  3  2  1  0
  4  3  1  0
  5 12  1  0
  6  5  2  0
  7  8  1  0
  8  9  2  0
 10  8  1  0
 11 13  1  0
 11 10  1  6
 12 11  1  0
 13 14  2  0
 16 15  1  0
 17 16  1  0
 17 18  1  1
 19 17  1  0
 20 13  1  0
 19 20  1  6
 21 19  1  0
 22 21  2  0
 23 21  1  0
M  END
$$$$
