RYS.pdb
     RDKit          3D

 30 30  0  0  1  0  0  0  0  0999 V2000
   16.4803  -19.8467   14.4129 N   0  0  0  0  0  0  0  0  0  0  0  0
   15.7306  -20.0141   13.2040 C   0  0  0  0  0  0  0  0  0  0  0  0
   15.5849  -18.9763   12.4581 N   0  0  0  0  0  0  0  0  0  0  0  0
   15.1706  -21.2755   12.8505 N   0  0  0  0  0  0  0  0  0  0  0  0
   15.2731  -22.3787   13.7411 C   0  0  0  0  0  0  0  0  0  0  0  0
   14.4039  -22.3285   14.9203 C   0  0  0  0  0  0  0  0  0  0  0  0
   14.3313  -23.4085   15.9017 C   0  0  0  0  0  0  0  0  0  0  0  0
   13.4469  -23.3158   17.0806 C   0  0  2  0  0  0  0  0  0  0  0  0
   12.0608  -23.2316   16.9297 N   0  0  0  0  0  0  0  0  0  0  0  0
   13.9993  -22.2343   17.9756 C   0  0  0  0  0  0  0  0  0  0  0  0
   13.5766  -21.0663   17.7816 O   0  0  0  0  0  0  0  0  0  0  0  0
   15.1702  -18.9931   11.5064 O   0  0  0  0  0  0  0  0  0  0  0  0
   10.2816  -21.4308   23.6948 C   0  0  0  0  0  0  0  0  0  0  0  0
   11.5492  -21.4744   23.0796 C   0  0  0  0  0  0  0  0  0  0  0  0
   12.0259  -22.6416   22.5621 C   0  0  0  0  0  0  0  0  0  0  0  0
   13.2546  -22.7060   21.9595 C   0  0  0  0  0  0  0  0  0  0  0  0
   14.0692  -21.5850   21.8477 C   0  0  0  0  0  0  0  0  0  0  0  0
   15.3814  -21.5752   21.2170 C   0  0  2  0  0  0  0  0  0  0  0  0
   15.4456  -21.3188   19.7664 N   0  0  0  0  0  0  0  0  0  0  0  0
   14.9414  -22.4437   18.9925 C   0  0  0  0  0  0  0  0  0  0  0  0
   16.9066  -21.0936   19.4191 O   0  0  0  0  0  0  0  0  0  0  0  0
   17.6243  -21.9861   18.9249 C   0  0  0  0  0  0  0  0  0  0  0  0
   13.5732  -20.4119   22.3754 C   0  0  0  0  0  0  0  0  0  0  0  0
   12.3151  -20.3385   22.9957 O   0  0  0  0  0  0  0  0  0  0  0  0
   20.2106  -17.6320   18.7536 C   0  0  0  0  0  0  0  0  0  0  0  0
   18.9000  -17.9499   19.0987 C   0  0  2  0  0  0  0  0  0  0  0  0
   18.7870  -19.4408   19.4792 N   0  0  0  0  0  0  0  0  0  0  0  0
   17.4214  -19.8027   19.6849 C   0  0  0  0  0  0  0  0  0  0  0  0
   19.6562  -19.6841   20.6783 O   0  0  0  0  0  0  0  0  0  0  0  0
   19.2186  -19.6650   21.8406 O   0  0  0  0  0  0  0  0  0  0  0  0
  2  1  1  0
  2  3  2  0
  4  2  1  0
  5  6  1  0
  5  4  1  0
  7  6  1  0
  8  7  1  0
  8  9  1  6
 10 11  2  0
 10  8  1  0
 12 13  1  0
 13 14  2  0
 14 15  1  0
 16 17  1  0
 16 15  2  0
 18 17  1  1
 18 19  1  0
 19 10  1  0
 20 18  1  0
 21 20  2  0
 22 16  1  0
 23 22  2  0
 23 13  1  0
 25 24  1  0
 26 25  1  6
 26 27  1  0
 27 20  1  0
 28 26  1  0
 28 30  1  0
 29 28  2  0
M  END
$$$$
