RYS.pdb
     RDKit          3D

 30 30  0  0  1  0  0  0  0  0999 V2000
    8.7187  -12.9987   18.1133 N   0  0  0  0  0  0  0  0  0  0  0  0
    8.5080  -12.4324   19.4119 C   0  0  0  0  0  0  0  0  0  0  0  0
    9.2053  -11.3956   19.7177 N   0  0  0  0  0  0  0  0  0  0  0  0
    7.5690  -12.9988   20.3215 N   0  0  0  0  0  0  0  0  0  0  0  0
    6.7653  -14.1024   19.9254 C   0  0  0  0  0  0  0  0  0  0  0  0
    7.1035  -15.3897   20.5395 C   0  0  0  0  0  0  0  0  0  0  0  0
    8.3574  -15.6267   21.2510 C   0  0  0  0  0  0  0  0  0  0  0  0
    8.6718  -16.9470   21.8328 C   0  0  2  0  0  0  0  0  0  0  0  0
    7.7695  -18.0081   21.7270 N   0  0  0  0  0  0  0  0  0  0  0  0
    9.1330  -16.7175   23.2507 C   0  0  0  0  0  0  0  0  0  0  0  0
   10.2590  -16.1789   23.4011 O   0  0  0  0  0  0  0  0  0  0  0  0
    9.1704  -10.9176   20.6387 O   0  0  0  0  0  0  0  0  0  0  0  0
    6.0632  -10.9273   25.7053 C   0  0  0  0  0  0  0  0  0  0  0  0
    6.5005  -12.2483   25.9305 C   0  0  0  0  0  0  0  0  0  0  0  0
    5.6419  -13.2956   25.7768 C   0  0  0  0  0  0  0  0  0  0  0  0
    6.0462  -14.5871   25.9900 C   0  0  0  0  0  0  0  0  0  0  0  0
    7.3489  -14.8876   26.3711 C   0  0  0  0  0  0  0  0  0  0  0  0
    7.8519  -16.2330   26.6096 C   0  0  2  0  0  0  0  0  0  0  0  0
    8.9114  -16.7395   25.7179 N   0  0  0  0  0  0  0  0  0  0  0  0
    8.3996  -17.0632   24.3944 C   0  0  0  0  0  0  0  0  0  0  0  0
    9.4649  -18.0007   26.3572 O   0  0  0  0  0  0  0  0  0  0  0  0
    8.7630  -19.0100   26.5682 C   0  0  0  0  0  0  0  0  0  0  0  0
    8.2055  -13.8180   26.5221 C   0  0  0  0  0  0  0  0  0  0  0  0
    7.7979  -12.4913   26.3066 O   0  0  0  0  0  0  0  0  0  0  0  0
   13.6178  -18.1916   26.5798 C   0  0  0  0  0  0  0  0  0  0  0  0
   12.8539  -19.3515   26.6737 C   0  0  1  0  0  0  0  0  0  0  0  0
   11.5033  -19.0560   27.3586 N   0  0  0  0  0  0  0  0  0  0  0  0
   10.8363  -17.9762   26.7050 C   0  0  0  0  0  0  0  0  0  0  0  0
   11.7635  -18.8030   28.8148 O   0  0  0  0  0  0  0  0  0  0  0  0
   11.4570  -17.7388   29.3774 O   0  0  0  0  0  0  0  0  0  0  0  0
  2  1  1  0
  2  3  2  0
  4  2  1  0
  5  6  1  0
  5  4  1  0
  7  6  1  0
  8  7  1  0
  8  9  1  1
 10 11  2  0
 10  8  1  0
 12 13  1  0
 13 14  2  0
 14 15  1  0
 16 17  1  0
 16 15  2  0
 18 17  1  6
 18 19  1  0
 19 10  1  0
 20 18  1  0
 21 20  2  0
 22 16  1  0
 23 22  2  0
 23 13  1  0
 25 24  1  0
 26 25  1  6
 26 27  1  0
 27 20  1  0
 28 26  1  0
 28 30  1  0
 29 28  2  0
M  END
$$$$
