RYS.pdb
     RDKit          3D

 30 30  0  0  1  0  0  0  0  0999 V2000
    7.3234  -12.6976   18.2839 N   0  0  0  0  0  0  0  0  0  0  0  0
    8.1210  -13.7825   17.7959 C   0  0  0  0  0  0  0  0  0  0  0  0
    8.8071  -13.5698   16.7288 N   0  0  0  0  0  0  0  0  0  0  0  0
    8.1465  -15.0402   18.4647 N   0  0  0  0  0  0  0  0  0  0  0  0
    9.1157  -15.2949   19.4730 C   0  0  0  0  0  0  0  0  0  0  0  0
    8.7112  -14.9665   20.8431 C   0  0  0  0  0  0  0  0  0  0  0  0
    8.1941  -15.9612   21.7800 C   0  0  0  0  0  0  0  0  0  0  0  0
    9.0848  -16.6542   22.7322 C   0  0  2  0  0  0  0  0  0  0  0  0
    9.2082  -18.0455   22.7131 N   0  0  0  0  0  0  0  0  0  0  0  0
    8.7786  -16.1184   24.1088 C   0  0  0  0  0  0  0  0  0  0  0  0
    7.7911  -16.6178   24.7055 O   0  0  0  0  0  0  0  0  0  0  0  0
    9.4380  -14.2678   16.2897 O   0  0  0  0  0  0  0  0  0  0  0  0
   12.2723  -18.2714   30.1700 C   0  0  0  0  0  0  0  0  0  0  0  0
   11.7308  -17.2491   29.3644 C   0  0  0  0  0  0  0  0  0  0  0  0
   10.9085  -16.3064   29.9052 C   0  0  0  0  0  0  0  0  0  0  0  0
   10.3721  -15.3040   29.1407 C   0  0  0  0  0  0  0  0  0  0  0  0
   10.6427  -15.2026   27.7808 C   0  0  0  0  0  0  0  0  0  0  0  0
   10.1149  -14.1642   26.9072 C   0  0  2  0  0  0  0  0  0  0  0  0
    9.0170  -14.5272   25.9924 N   0  0  0  0  0  0  0  0  0  0  0  0
    9.5112  -15.1128   24.7551 C   0  0  0  0  0  0  0  0  0  0  0  0
    8.2661  -13.2475   25.6697 O   0  0  0  0  0  0  0  0  0  0  0  0
    8.6990  -12.4005   24.8629 C   0  0  0  0  0  0  0  0  0  0  0  0
   11.4762  -16.1630   27.2486 C   0  0  0  0  0  0  0  0  0  0  0  0
   12.0289  -17.1943   28.0258 O   0  0  0  0  0  0  0  0  0  0  0  0
    4.9077  -12.4716   28.1322 C   0  0  0  0  0  0  0  0  0  0  0  0
    4.8258  -12.1168   26.7886 C   0  0  1  0  0  0  0  0  0  0  0  0
    6.2343  -11.8842   26.2034 N   0  0  0  0  0  0  0  0  0  0  0  0
    7.0320  -13.0606   26.3364 C   0  0  0  0  0  0  0  0  0  0  0  0
    6.8274  -10.6815   26.8772 O   0  0  0  0  0  0  0  0  0  0  0  0
    7.8818  -10.7296   27.5321 O   0  0  0  0  0  0  0  0  0  0  0  0
  2  1  1  0
  2  3  2  0
  4  2  1  0
  5  6  1  0
  5  4  1  0
  7  6  1  0
  8  7  1  0
  8  9  1  1
 10 11  2  0
 10  8  1  0
 12 13  1  0
 13 14  2  0
 14 15  1  0
 16 17  1  0
 16 15  2  0
 18 17  1  1
 18 19  1  0
 19 10  1  0
 20 18  1  0
 21 20  2  0
 22 16  1  0
 23 22  2  0
 23 13  1  0
 25 24  1  0
 26 25  1  6
 26 27  1  0
 27 20  1  0
 28 26  1  0
 28 30  1  0
 29 28  2  0
M  END
$$$$
