RYS.pdb
     RDKit          3D

 30 30  0  0  1  0  0  0  0  0999 V2000
    8.3492  -13.5283   15.2382 N   0  0  0  0  0  0  0  0  0  0  0  0
    8.2602  -14.8288   14.6447 C   0  0  0  0  0  0  0  0  0  0  0  0
    7.4580  -14.9628   13.6481 N   0  0  0  0  0  0  0  0  0  0  0  0
    9.0258  -15.9223   15.1426 N   0  0  0  0  0  0  0  0  0  0  0  0
   10.0846  -15.6940   16.0632 C   0  0  0  0  0  0  0  0  0  0  0  0
    9.8732  -14.6034   17.0196 C   0  0  0  0  0  0  0  0  0  0  0  0
   10.0689  -14.7587   18.4592 C   0  0  0  0  0  0  0  0  0  0  0  0
    9.1970  -15.6402   19.2613 C   0  0  2  0  0  0  0  0  0  0  0  0
    7.8911  -15.9192   18.8515 N   0  0  0  0  0  0  0  0  0  0  0  0
    9.2666  -15.1644   20.6912 C   0  0  0  0  0  0  0  0  0  0  0  0
   10.4127  -14.9646   21.1676 O   0  0  0  0  0  0  0  0  0  0  0  0
    7.3556  -15.8338   13.0922 O   0  0  0  0  0  0  0  0  0  0  0  0
    7.3562  -12.3064   28.9117 C   0  0  0  0  0  0  0  0  0  0  0  0
    7.3253  -12.6686   27.5497 C   0  0  0  0  0  0  0  0  0  0  0  0
    8.0308  -11.9532   26.6288 C   0  0  0  0  0  0  0  0  0  0  0  0
    8.0154  -12.2882   25.3005 C   0  0  0  0  0  0  0  0  0  0  0  0
    7.2813  -13.3722   24.8325 C   0  0  0  0  0  0  0  0  0  0  0  0
    7.2212  -13.7914   23.4395 C   0  0  2  0  0  0  0  0  0  0  0  0
    8.3345  -14.6048   22.9171 N   0  0  0  0  0  0  0  0  0  0  0  0
    8.1529  -14.9367   21.5117 C   0  0  0  0  0  0  0  0  0  0  0  0
    8.3668  -15.8876   23.7291 O   0  0  0  0  0  0  0  0  0  0  0  0
    7.4419  -16.7239   23.6998 C   0  0  0  0  0  0  0  0  0  0  0  0
    6.5735  -14.0860   25.7758 C   0  0  0  0  0  0  0  0  0  0  0  0
    6.5834  -13.7478   27.1390 O   0  0  0  0  0  0  0  0  0  0  0  0
   10.7405  -18.4607   23.5650 C   0  0  0  0  0  0  0  0  0  0  0  0
   10.9111  -18.0637   24.8883 C   0  0  2  0  0  0  0  0  0  0  0  0
    9.6997  -17.2357   25.3653 N   0  0  0  0  0  0  0  0  0  0  0  0
    9.5149  -16.0925   24.5304 C   0  0  0  0  0  0  0  0  0  0  0  0
    9.9093  -16.8915   26.8109 O   0  0  0  0  0  0  0  0  0  0  0  0
    9.9853  -15.7207   27.2190 O   0  0  0  0  0  0  0  0  0  0  0  0
  2  1  1  0
  2  3  2  0
  4  2  1  0
  5  6  1  0
  5  4  1  0
  7  6  1  0
  8  7  1  0
  8  9  1  6
 10 11  2  0
 10  8  1  0
 12 13  1  0
 13 14  2  0
 14 15  1  0
 16 17  1  0
 16 15  2  0
 18 17  1  6
 18 19  1  0
 19 10  1  0
 20 18  1  0
 21 20  2  0
 22 16  1  0
 23 22  2  0
 23 13  1  0
 25 24  1  0
 26 25  1  6
 26 27  1  0
 27 20  1  0
 28 26  1  0
 28 30  1  0
 29 28  2  0
M  END
$$$$
