RYS.pdb
     RDKit          3D

 30 30  0  0  1  0  0  0  0  0999 V2000
    8.7167  -15.3261   16.3289 N   0  0  0  0  0  0  0  0  0  0  0  0
    8.1385  -14.0584   16.6605 C   0  0  0  0  0  0  0  0  0  0  0  0
    8.2234  -13.1280   15.7763 N   0  0  0  0  0  0  0  0  0  0  0  0
    7.5023  -13.8423   17.9168 N   0  0  0  0  0  0  0  0  0  0  0  0
    8.2258  -13.2640   18.9952 C   0  0  0  0  0  0  0  0  0  0  0  0
    9.4916  -13.9194   19.3372 C   0  0  0  0  0  0  0  0  0  0  0  0
    9.7225  -14.5844   20.6175 C   0  0  0  0  0  0  0  0  0  0  0  0
    8.6526  -15.3495   21.2886 C   0  0  2  0  0  0  0  0  0  0  0  0
    7.3075  -15.0658   21.0409 N   0  0  0  0  0  0  0  0  0  0  0  0
    8.9764  -15.3817   22.7617 C   0  0  0  0  0  0  0  0  0  0  0  0
    9.4830  -14.3419   23.2543 O   0  0  0  0  0  0  0  0  0  0  0  0
    7.8862  -12.1559   15.9153 O   0  0  0  0  0  0  0  0  0  0  0  0
    6.6179  -10.6242   26.6376 C   0  0  0  0  0  0  0  0  0  0  0  0
    6.9350  -11.9830   26.4367 C   0  0  0  0  0  0  0  0  0  0  0  0
    6.4328  -12.6580   25.3645 C   0  0  0  0  0  0  0  0  0  0  0  0
    6.7288  -13.9784   25.1501 C   0  0  0  0  0  0  0  0  0  0  0  0
    7.5544  -14.6882   26.0146 C   0  0  0  0  0  0  0  0  0  0  0  0
    7.9175  -16.0884   25.8490 C   0  0  2  0  0  0  0  0  0  0  0  0
    9.0941  -16.4002   25.0168 N   0  0  0  0  0  0  0  0  0  0  0  0
    8.7549  -16.4806   23.6037 C   0  0  0  0  0  0  0  0  0  0  0  0
    9.6197  -17.7482   25.4777 O   0  0  0  0  0  0  0  0  0  0  0  0
    9.0884  -18.8259   25.1429 C   0  0  0  0  0  0  0  0  0  0  0  0
    8.0547  -13.9917   27.0940 C   0  0  0  0  0  0  0  0  0  0  0  0
    7.7547  -12.6385   27.3211 O   0  0  0  0  0  0  0  0  0  0  0  0
   13.4911  -19.9523   27.2892 C   0  0  0  0  0  0  0  0  0  0  0  0
   12.8997  -18.8228   26.7302 C   0  0  1  0  0  0  0  0  0  0  0  0
   11.3641  -18.8953   26.8607 N   0  0  0  0  0  0  0  0  0  0  0  0
   10.7596  -17.7224   26.3157 C   0  0  0  0  0  0  0  0  0  0  0  0
   11.0283  -19.1236   28.3055 O   0  0  0  0  0  0  0  0  0  0  0  0
   10.3997  -18.2978   28.9881 O   0  0  0  0  0  0  0  0  0  0  0  0
  2  1  1  0
  2  3  2  0
  4  2  1  0
  5  6  1  0
  5  4  1  0
  7  6  1  0
  8  7  1  0
  8  9  1  1
 10 11  2  0
 10  8  1  0
 12 13  1  0
 13 14  2  0
 14 15  1  0
 16 17  1  0
 16 15  2  0
 18 17  1  6
 18 19  1  0
 19 10  1  0
 20 18  1  0
 21 20  2  0
 22 16  1  0
 23 22  2  0
 23 13  1  0
 25 24  1  0
 26 25  1  6
 26 27  1  0
 27 20  1  0
 28 26  1  0
 28 30  1  0
 29 28  2  0
M  END
$$$$
