RYS.pdb
     RDKit          3D

 30 30  0  0  1  0  0  0  0  0999 V2000
    7.7999  -13.1426   16.7476 N   0  0  0  0  0  0  0  0  0  0  0  0
    7.9742  -14.2815   15.8967 C   0  0  0  0  0  0  0  0  0  0  0  0
    8.3774  -14.0577   14.6958 N   0  0  0  0  0  0  0  0  0  0  0  0
    7.7079  -15.6007   16.3640 N   0  0  0  0  0  0  0  0  0  0  0  0
    7.5266  -15.8449   17.7527 C   0  0  0  0  0  0  0  0  0  0  0  0
    8.5206  -15.2363   18.6417 C   0  0  0  0  0  0  0  0  0  0  0  0
    8.4637  -15.3530   20.0970 C   0  0  0  0  0  0  0  0  0  0  0  0
    8.1552  -14.1869   20.9487 C   0  0  2  0  0  0  0  0  0  0  0  0
    8.5078  -12.8959   20.5485 N   0  0  0  0  0  0  0  0  0  0  0  0
    8.6268  -14.5101   22.3448 C   0  0  0  0  0  0  0  0  0  0  0  0
    9.7300  -14.0217   22.6984 O   0  0  0  0  0  0  0  0  0  0  0  0
    8.5342  -14.7969   13.9838 O   0  0  0  0  0  0  0  0  0  0  0  0
    6.4063   -9.9773   27.1073 C   0  0  0  0  0  0  0  0  0  0  0  0
    6.6636  -11.3151   26.7448 C   0  0  0  0  0  0  0  0  0  0  0  0
    5.6367  -12.1574   26.4390 C   0  0  0  0  0  0  0  0  0  0  0  0
    5.8644  -13.4607   26.0836 C   0  0  0  0  0  0  0  0  0  0  0  0
    7.1515  -13.9822   26.0179 C   0  0  0  0  0  0  0  0  0  0  0  0
    7.4710  -15.3524   25.6434 C   0  0  2  0  0  0  0  0  0  0  0  0
    8.4749  -15.5597   24.5836 N   0  0  0  0  0  0  0  0  0  0  0  0
    7.9265  -15.3100   23.2587 C   0  0  0  0  0  0  0  0  0  0  0  0
    8.9203  -17.0088   24.6705 O   0  0  0  0  0  0  0  0  0  0  0  0
    8.1179  -17.9485   24.8410 C   0  0  0  0  0  0  0  0  0  0  0  0
    8.1794  -13.1181   26.3295 C   0  0  0  0  0  0  0  0  0  0  0  0
    7.9537  -11.7811   26.6959 O   0  0  0  0  0  0  0  0  0  0  0  0
   12.3029  -18.1388   22.8746 C   0  0  0  0  0  0  0  0  0  0  0  0
   12.3338  -18.5668   24.1989 C   0  0  2  0  0  0  0  0  0  0  0  0
   10.9232  -18.5044   24.8209 N   0  0  0  0  0  0  0  0  0  0  0  0
   10.3096  -17.2454   24.5444 C   0  0  0  0  0  0  0  0  0  0  0  0
   11.0457  -18.7996   26.2872 O   0  0  0  0  0  0  0  0  0  0  0  0
   10.6663  -18.0081   27.1662 O   0  0  0  0  0  0  0  0  0  0  0  0
  2  1  1  0
  2  3  2  0
  4  2  1  0
  5  6  1  0
  5  4  1  0
  7  6  1  0
  8  7  1  0
  8  9  1  6
 10 11  2  0
 10  8  1  0
 12 13  1  0
 13 14  2  0
 14 15  1  0
 16 17  1  0
 16 15  2  0
 18 17  1  1
 18 19  1  0
 19 10  1  0
 20 18  1  0
 21 20  2  0
 22 16  1  0
 23 22  2  0
 23 13  1  0
 25 24  1  0
 26 25  1  6
 26 27  1  0
 27 20  1  0
 28 26  1  0
 28 30  1  0
 29 28  2  0
M  END
$$$$
