RYS.pdb
     RDKit          3D

 30 30  0  0  1  0  0  0  0  0999 V2000
    7.9355  -13.1786   17.1140 N   0  0  0  0  0  0  0  0  0  0  0  0
    9.0843  -13.4135   17.9365 C   0  0  0  0  0  0  0  0  0  0  0  0
    9.6494  -12.3831   18.4595 N   0  0  0  0  0  0  0  0  0  0  0  0
    9.5768  -14.7318   18.1589 N   0  0  0  0  0  0  0  0  0  0  0  0
    8.7156  -15.8525   18.0063 C   0  0  0  0  0  0  0  0  0  0  0  0
    7.7078  -16.0290   19.0560 C   0  0  0  0  0  0  0  0  0  0  0  0
    7.8080  -17.0561   20.0903 C   0  0  0  0  0  0  0  0  0  0  0  0
    6.8917  -17.0710   21.2482 C   0  0  2  0  0  0  0  0  0  0  0  0
    5.5530  -16.6987   21.1053 N   0  0  0  0  0  0  0  0  0  0  0  0
    7.5785  -16.3430   22.3770 C   0  0  0  0  0  0  0  0  0  0  0  0
    7.9078  -15.1484   22.1646 O   0  0  0  0  0  0  0  0  0  0  0  0
   10.5120  -12.4182   19.0363 O   0  0  0  0  0  0  0  0  0  0  0  0
   11.4299  -14.4302   30.2074 C   0  0  0  0  0  0  0  0  0  0  0  0
   10.6095  -14.8503   29.1407 C   0  0  0  0  0  0  0  0  0  0  0  0
   10.1091  -13.9427   28.2556 C   0  0  0  0  0  0  0  0  0  0  0  0
    9.3105  -14.3293   27.2117 C   0  0  0  0  0  0  0  0  0  0  0  0
    8.9757  -15.6632   27.0076 C   0  0  0  0  0  0  0  0  0  0  0  0
    8.1389  -16.1492   25.9198 C   0  0  1  0  0  0  0  0  0  0  0  0
    8.7253  -16.1936   24.5677 N   0  0  0  0  0  0  0  0  0  0  0  0
    7.8714  -16.9046   23.6277 C   0  0  0  0  0  0  0  0  0  0  0  0
   10.0517  -16.9239   24.6824 O   0  0  0  0  0  0  0  0  0  0  0  0
   10.1268  -18.1447   24.9271 C   0  0  0  0  0  0  0  0  0  0  0  0
    9.4897  -16.5691   27.9107 C   0  0  0  0  0  0  0  0  0  0  0  0
   10.3080  -16.1800   28.9840 O   0  0  0  0  0  0  0  0  0  0  0  0
   14.7117  -16.2938   23.4308 C   0  0  0  0  0  0  0  0  0  0  0  0
   13.4569  -15.7214   23.6199 C   0  0  2  0  0  0  0  0  0  0  0  0
   12.5262  -16.6945   24.3731 N   0  0  0  0  0  0  0  0  0  0  0  0
   11.2155  -16.1416   24.4929 C   0  0  0  0  0  0  0  0  0  0  0  0
   13.1602  -17.0192   25.6941 O   0  0  0  0  0  0  0  0  0  0  0  0
   12.6675  -16.6708   26.7798 O   0  0  0  0  0  0  0  0  0  0  0  0
  2  1  1  0
  2  3  2  0
  4  2  1  0
  5  6  1  0
  5  4  1  0
  7  6  1  0
  8  7  1  0
  8  9  1  6
 10 11  2  0
 10  8  1  0
 12 13  1  0
 13 14  2  0
 14 15  1  0
 16 17  1  0
 16 15  2  0
 18 17  1  6
 18 19  1  0
 19 10  1  0
 20 18  1  0
 21 20  2  0
 22 16  1  0
 23 22  2  0
 23 13  1  0
 25 24  1  0
 26 25  1  6
 26 27  1  0
 27 20  1  0
 28 26  1  0
 28 30  1  0
 29 28  2  0
M  END
$$$$
