RYS.pdb
     RDKit          3D

 30 30  0  0  1  0  0  0  0  0999 V2000
    7.9221  -15.2178   16.2072 N   0  0  0  0  0  0  0  0  0  0  0  0
    7.8899  -13.8281   16.5526 C   0  0  0  0  0  0  0  0  0  0  0  0
    8.3909  -13.0028   15.7027 N   0  0  0  0  0  0  0  0  0  0  0  0
    7.3298  -13.3860   17.7857 N   0  0  0  0  0  0  0  0  0  0  0  0
    8.1687  -12.8540   18.8027 C   0  0  0  0  0  0  0  0  0  0  0  0
    9.1761  -13.7719   19.3424 C   0  0  0  0  0  0  0  0  0  0  0  0
    9.2368  -14.1460   20.7534 C   0  0  0  0  0  0  0  0  0  0  0  0
    8.9979  -15.5364   21.1894 C   0  0  2  0  0  0  0  0  0  0  0  0
    7.8060  -16.1911   20.8701 N   0  0  0  0  0  0  0  0  0  0  0  0
    9.3238  -15.6107   22.6605 C   0  0  0  0  0  0  0  0  0  0  0  0
   10.4960  -15.3066   22.9982 O   0  0  0  0  0  0  0  0  0  0  0  0
    8.5283  -11.9894   15.8819 O   0  0  0  0  0  0  0  0  0  0  0  0
    6.1665  -10.3361   26.2270 C   0  0  0  0  0  0  0  0  0  0  0  0
    6.5788  -11.6831   26.1739 C   0  0  0  0  0  0  0  0  0  0  0  0
    7.5247  -12.1503   27.0368 C   0  0  0  0  0  0  0  0  0  0  0  0
    7.9393  -13.4556   27.0028 C   0  0  0  0  0  0  0  0  0  0  0  0
    7.4139  -14.3618   26.0887 C   0  0  0  0  0  0  0  0  0  0  0  0
    7.8001  -15.7626   25.9969 C   0  0  2  0  0  0  0  0  0  0  0  0
    8.8630  -16.1220   25.0403 N   0  0  0  0  0  0  0  0  0  0  0  0
    8.4187  -15.9939   23.6602 C   0  0  0  0  0  0  0  0  0  0  0  0
    9.2323  -17.5700   25.3096 O   0  0  0  0  0  0  0  0  0  0  0  0
    8.8897  -18.5017   24.5543 C   0  0  0  0  0  0  0  0  0  0  0  0
    6.4580  -13.8746   25.2231 C   0  0  0  0  0  0  0  0  0  0  0  0
    6.0290  -12.5374   25.2511 O   0  0  0  0  0  0  0  0  0  0  0  0
   12.5505  -20.3383   25.7713 C   0  0  0  0  0  0  0  0  0  0  0  0
   11.8071  -19.1794   25.5662 C   0  0  1  0  0  0  0  0  0  0  0  0
   10.7571  -19.0052   26.6831 N   0  0  0  0  0  0  0  0  0  0  0  0
    9.9972  -17.8148   26.4745 C   0  0  0  0  0  0  0  0  0  0  0  0
   11.4700  -19.0347   28.0034 O   0  0  0  0  0  0  0  0  0  0  0  0
   12.1382  -20.0099   28.3849 O   0  0  0  0  0  0  0  0  0  0  0  0
  2  1  1  0
  2  3  2  0
  4  2  1  0
  5  6  1  0
  5  4  1  0
  7  6  1  0
  8  7  1  0
  8  9  1  1
 10 11  2  0
 10  8  1  0
 12 13  1  0
 13 14  2  0
 14 15  1  0
 16 17  1  0
 16 15  2  0
 18 17  1  6
 18 19  1  0
 19 10  1  0
 20 18  1  0
 21 20  2  0
 22 16  1  0
 23 22  2  0
 23 13  1  0
 25 24  1  0
 26 25  1  6
 26 27  1  0
 27 20  1  0
 28 26  1  0
 28 30  1  0
 29 28  2  0
M  END
$$$$
