RYS.pdb
     RDKit          3D

 30 30  0  0  1  0  0  0  0  0999 V2000
    9.7929  -13.8887   17.2002 N   0  0  0  0  0  0  0  0  0  0  0  0
    8.5568  -13.9479   16.4790 C   0  0  0  0  0  0  0  0  0  0  0  0
    8.6311  -14.0292   15.1974 N   0  0  0  0  0  0  0  0  0  0  0  0
    7.3038  -13.9141   17.1562 N   0  0  0  0  0  0  0  0  0  0  0  0
    7.2379  -14.1740   18.5523 C   0  0  0  0  0  0  0  0  0  0  0  0
    6.9096  -15.5521   18.9290 C   0  0  0  0  0  0  0  0  0  0  0  0
    7.3043  -16.1434   20.2054 C   0  0  0  0  0  0  0  0  0  0  0  0
    6.5962  -15.8094   21.4573 C   0  0  2  0  0  0  0  0  0  0  0  0
    5.4750  -14.9764   21.4443 N   0  0  0  0  0  0  0  0  0  0  0  0
    7.6341  -15.3686   22.4594 C   0  0  0  0  0  0  0  0  0  0  0  0
    8.0482  -14.1854   22.3644 O   0  0  0  0  0  0  0  0  0  0  0  0
    7.8115  -14.0012   14.5606 O   0  0  0  0  0  0  0  0  0  0  0  0
    5.5634  -11.2968   27.4431 C   0  0  0  0  0  0  0  0  0  0  0  0
    6.3571  -12.3850   27.0272 C   0  0  0  0  0  0  0  0  0  0  0  0
    5.7955  -13.6090   26.8177 C   0  0  0  0  0  0  0  0  0  0  0  0
    6.5483  -14.6797   26.4128 C   0  0  0  0  0  0  0  0  0  0  0  0
    7.9170  -14.5661   26.1967 C   0  0  0  0  0  0  0  0  0  0  0  0
    8.7792  -15.6555   25.7614 C   0  0  2  0  0  0  0  0  0  0  0  0
    9.2056  -15.6737   24.3500 N   0  0  0  0  0  0  0  0  0  0  0  0
    8.1610  -16.1815   23.4729 C   0  0  0  0  0  0  0  0  0  0  0  0
   10.4142  -16.5887   24.2626 O   0  0  0  0  0  0  0  0  0  0  0  0
   10.3204  -17.8314   24.3148 C   0  0  0  0  0  0  0  0  0  0  0  0
    8.4702  -13.3219   26.4123 C   0  0  0  0  0  0  0  0  0  0  0  0
    7.7051  -12.2200   26.8287 O   0  0  0  0  0  0  0  0  0  0  0  0
   15.2428  -16.3830   23.4551 C   0  0  0  0  0  0  0  0  0  0  0  0
   14.0420  -15.6930   23.5952 C   0  0  1  0  0  0  0  0  0  0  0  0
   12.8981  -16.6645   23.9532 N   0  0  0  0  0  0  0  0  0  0  0  0
   11.6703  -15.9543   24.1145 C   0  0  0  0  0  0  0  0  0  0  0  0
   13.3059  -17.4367   25.1738 O   0  0  0  0  0  0  0  0  0  0  0  0
   12.7433  -17.3024   26.2731 O   0  0  0  0  0  0  0  0  0  0  0  0
  2  1  1  0
  2  3  2  0
  4  2  1  0
  5  6  1  0
  5  4  1  0
  7  6  1  0
  8  7  1  0
  8  9  1  6
 10 11  2  0
 10  8  1  0
 12 13  1  0
 13 14  2  0
 14 15  1  0
 16 17  1  0
 16 15  2  0
 18 17  1  6
 18 19  1  0
 19 10  1  0
 20 18  1  0
 21 20  2  0
 22 16  1  0
 23 22  2  0
 23 13  1  0
 25 24  1  0
 26 25  1  6
 26 27  1  0
 27 20  1  0
 28 26  1  0
 28 30  1  0
 29 28  2  0
M  END
$$$$
