RYS.pdb
     RDKit          3D

 30 30  0  0  1  0  0  0  0  0999 V2000
    7.7468  -13.2559   18.2141 N   0  0  0  0  0  0  0  0  0  0  0  0
    7.6355  -13.9351   16.9581 C   0  0  0  0  0  0  0  0  0  0  0  0
    7.2151  -13.2464   15.9563 N   0  0  0  0  0  0  0  0  0  0  0  0
    7.9735  -15.3133   16.8309 N   0  0  0  0  0  0  0  0  0  0  0  0
    8.7790  -15.9464   17.8164 C   0  0  0  0  0  0  0  0  0  0  0  0
    8.0853  -16.8942   18.6934 C   0  0  0  0  0  0  0  0  0  0  0  0
    7.9512  -16.6931   20.1344 C   0  0  0  0  0  0  0  0  0  0  0  0
    8.2565  -15.3903   20.7588 C   0  0  2  0  0  0  0  0  0  0  0  0
    9.0647  -14.4564   20.1062 N   0  0  0  0  0  0  0  0  0  0  0  0
    8.7096  -15.6619   22.1719 C   0  0  0  0  0  0  0  0  0  0  0  0
    9.3912  -16.7015   22.3594 O   0  0  0  0  0  0  0  0  0  0  0  0
    7.1187  -13.6163   14.9910 O   0  0  0  0  0  0  0  0  0  0  0  0
   10.7208  -14.9629   30.7938 C   0  0  0  0  0  0  0  0  0  0  0  0
   10.2080  -14.7446   29.4989 C   0  0  0  0  0  0  0  0  0  0  0  0
    9.5653  -13.5810   29.1979 C   0  0  0  0  0  0  0  0  0  0  0  0
    9.0601  -13.3481   27.9459 C   0  0  0  0  0  0  0  0  0  0  0  0
    9.1807  -14.2862   26.9270 C   0  0  0  0  0  0  0  0  0  0  0  0
    8.6753  -14.1073   25.5734 C   0  0  2  0  0  0  0  0  0  0  0  0
    8.9752  -15.1574   24.5826 N   0  0  0  0  0  0  0  0  0  0  0  0
    8.4218  -14.8439   23.2735 C   0  0  0  0  0  0  0  0  0  0  0  0
    8.3458  -16.4419   25.0921 O   0  0  0  0  0  0  0  0  0  0  0  0
    7.1233  -16.5474   25.3161 C   0  0  0  0  0  0  0  0  0  0  0  0
    9.8334  -15.4577   27.2468 C   0  0  0  0  0  0  0  0  0  0  0  0
   10.3529  -15.7040   28.5283 O   0  0  0  0  0  0  0  0  0  0  0  0
   10.1190  -19.9753   24.2193 C   0  0  0  0  0  0  0  0  0  0  0  0
    8.8528  -19.8889   24.7911 C   0  0  1  0  0  0  0  0  0  0  0  0
    8.8168  -18.7781   25.8612 N   0  0  0  0  0  0  0  0  0  0  0  0
    9.2256  -17.5302   25.3012 C   0  0  0  0  0  0  0  0  0  0  0  0
    9.6630  -19.2181   27.0199 O   0  0  0  0  0  0  0  0  0  0  0  0
   10.6614  -18.5854   27.4017 O   0  0  0  0  0  0  0  0  0  0  0  0
  2  1  1  0
  2  3  2  0
  4  2  1  0
  5  6  1  0
  5  4  1  0
  7  6  1  0
  8  7  1  0
  8  9  1  6
 10 11  2  0
 10  8  1  0
 12 13  1  0
 13 14  2  0
 14 15  1  0
 16 17  1  0
 16 15  2  0
 18 17  1  6
 18 19  1  0
 19 10  1  0
 20 18  1  0
 21 20  2  0
 22 16  1  0
 23 22  2  0
 23 13  1  0
 25 24  1  0
 26 25  1  6
 26 27  1  0
 27 20  1  0
 28 26  1  0
 28 30  1  0
 29 28  2  0
M  END
$$$$
