RYS.pdb
     RDKit          3D

 30 30  0  0  1  0  0  0  0  0999 V2000
    8.8089  -12.1388   17.2618 N   0  0  0  0  0  0  0  0  0  0  0  0
    8.5113  -13.2933   16.4681 C   0  0  0  0  0  0  0  0  0  0  0  0
    9.1012  -13.3874   15.3289 N   0  0  0  0  0  0  0  0  0  0  0  0
    7.5990  -14.2882   16.9239 N   0  0  0  0  0  0  0  0  0  0  0  0
    7.1009  -14.2464   18.2547 C   0  0  0  0  0  0  0  0  0  0  0  0
    8.1106  -14.3139   19.3152 C   0  0  0  0  0  0  0  0  0  0  0  0
    7.7770  -14.5556   20.7170 C   0  0  0  0  0  0  0  0  0  0  0  0
    7.7462  -15.9230   21.2736 C   0  0  2  0  0  0  0  0  0  0  0  0
    6.5706  -16.6772   21.2526 N   0  0  0  0  0  0  0  0  0  0  0  0
    8.3745  -15.8670   22.6440 C   0  0  0  0  0  0  0  0  0  0  0  0
    9.5179  -15.3504   22.7234 O   0  0  0  0  0  0  0  0  0  0  0  0
    9.0524  -14.2208   14.7116 O   0  0  0  0  0  0  0  0  0  0  0  0
    6.0699  -10.2267   26.1138 C   0  0  0  0  0  0  0  0  0  0  0  0
    6.4437  -11.5859   26.1202 C   0  0  0  0  0  0  0  0  0  0  0  0
    7.7550  -11.9410   26.2294 C   0  0  0  0  0  0  0  0  0  0  0  0
    8.1400  -13.2557   26.2383 C   0  0  0  0  0  0  0  0  0  0  0  0
    7.2118  -14.2859   26.1377 C   0  0  0  0  0  0  0  0  0  0  0  0
    7.5446  -15.7033   26.1460 C   0  0  2  0  0  0  0  0  0  0  0  0
    8.4525  -16.2030   25.0971 N   0  0  0  0  0  0  0  0  0  0  0  0
    7.7761  -16.3490   23.8167 C   0  0  0  0  0  0  0  0  0  0  0  0
    8.9511  -17.5632   25.5520 O   0  0  0  0  0  0  0  0  0  0  0  0
    8.1789  -18.5020   25.8317 C   0  0  0  0  0  0  0  0  0  0  0  0
    5.8897  -13.9110   26.0284 C   0  0  0  0  0  0  0  0  0  0  0  0
    5.4876  -12.5652   26.0172 O   0  0  0  0  0  0  0  0  0  0  0  0
   12.6215  -18.5171   24.2509 C   0  0  0  0  0  0  0  0  0  0  0  0
   11.7811  -19.4975   24.7709 C   0  0  1  0  0  0  0  0  0  0  0  0
   10.9926  -18.9495   25.9785 N   0  0  0  0  0  0  0  0  0  0  0  0
   10.3548  -17.7173   25.6424 C   0  0  0  0  0  0  0  0  0  0  0  0
   11.9363  -18.8357   27.1399 O   0  0  0  0  0  0  0  0  0  0  0  0
   12.5474  -19.8109   27.6074 O   0  0  0  0  0  0  0  0  0  0  0  0
  2  1  1  0
  2  3  2  0
  4  2  1  0
  5  6  1  0
  5  4  1  0
  7  6  1  0
  8  7  1  0
  8  9  1  1
 10 11  2  0
 10  8  1  0
 12 13  1  0
 13 14  2  0
 14 15  1  0
 16 17  1  0
 16 15  2  0
 18 17  1  6
 18 19  1  0
 19 10  1  0
 20 18  1  0
 21 20  2  0
 22 16  1  0
 23 22  2  0
 23 13  1  0
 25 24  1  0
 26 25  1  6
 26 27  1  0
 27 20  1  0
 28 26  1  0
 28 30  1  0
 29 28  2  0
M  END
$$$$
