YMF.pdb
     RDKit          3D

 32 33  0  0  1  0  0  0  0  0999 V2000
   13.2728  -21.1635   19.7794 O   0  0  0  0  0  0  0  0  0  0  0  0
   12.0514  -20.6220   20.1728 C   0  0  0  0  0  0  0  0  0  0  0  0
   11.0760  -20.3627   19.2315 C   0  0  0  0  0  0  0  0  0  0  0  0
    9.8514  -19.8230   19.6038 C   0  0  0  0  0  0  0  0  0  0  0  0
    9.5664  -19.5300   20.9059 C   0  0  0  0  0  0  0  0  0  0  0  0
    8.2673  -18.9485   21.3580 C   0  0  0  0  0  0  0  0  0  0  0  0
    8.1556  -17.5509   20.7928 C   0  0  2  0  0  0  0  0  0  0  0  0
    8.8625  -17.5084   19.5375 N   0  0  0  0  0  0  0  0  0  0  0  0
    8.5762  -16.5077   21.7306 C   0  0  0  0  0  0  0  0  0  0  0  0
    9.7054  -15.9676   21.5586 O   0  0  0  0  0  0  0  0  0  0  0  0
   10.5553  -19.7935   21.8548 C   0  0  0  0  0  0  0  0  0  0  0  0
   11.7705  -20.3293   21.4834 C   0  0  0  0  0  0  0  0  0  0  0  0
    6.2872  -10.8793   26.8135 C   0  0  0  0  0  0  0  0  0  0  0  0
    5.9466  -12.4738   26.0073 S   0  0  0  0  0  0  0  0  0  0  0  0
    7.4037  -12.9748   25.0111 C   0  0  0  0  0  0  0  0  0  0  0  0
    7.0448  -14.2676   24.3480 C   0  0  0  0  0  0  0  0  0  0  0  0
    8.2118  -14.9463   23.6732 C   0  0  2  0  0  0  0  0  0  0  0  0
    7.8186  -16.0356   22.8386 N   0  0  0  0  0  0  0  0  0  0  0  0
    9.1586  -15.3743   24.7324 C   0  0  0  0  0  0  0  0  0  0  0  0
    9.1130  -14.9486   25.9076 O   0  0  0  0  0  0  0  0  0  0  0  0
   10.1795  -16.3166   24.4205 N   0  0  0  0  0  0  0  0  0  0  0  0
   11.4536  -16.2782   25.1257 C   0  0  1  0  0  0  0  0  0  0  0  0
   11.3298  -16.7050   26.5399 C   0  0  0  0  0  0  0  0  0  0  0  0
   10.7014  -15.6310   27.3474 C   0  0  0  0  0  0  0  0  0  0  0  0
    9.3651  -15.7169   27.6846 C   0  0  0  0  0  0  0  0  0  0  0  0
    8.7624  -14.7535   28.4530 C   0  0  0  0  0  0  0  0  0  0  0  0
    9.4597  -13.6638   28.9197 C   0  0  0  0  0  0  0  0  0  0  0  0
   10.7909  -13.5854   28.5796 C   0  0  0  0  0  0  0  0  0  0  0  0
   11.4101  -14.5417   27.8110 C   0  0  0  0  0  0  0  0  0  0  0  0
   12.3992  -17.1419   24.3997 C   0  0  0  0  0  0  0  0  0  0  0  0
   13.7168  -17.2760   24.8793 O   0  0  0  0  0  0  0  0  0  0  0  0
   12.1304  -17.7960   23.3511 O   0  0  0  0  0  0  0  0  0  0  0  0
  2  1  1  0
  3  2  2  0
  4  3  1  0
  5 11  1  0
  5  4  2  0
  6  5  1  0
  7  6  1  0
  7  8  1  6
  9  7  1  0
  9 10  2  0
 11 12  2  0
 12  2  1  0
 13 14  1  0
 14 15  1  0
 15 16  1  0
 17 16  1  1
 17 19  1  0
 17 18  1  0
 18  9  1  0
 19 20  2  0
 21 22  1  0
 21 19  1  0
 22 30  1  0
 22 23  1  1
 24 23  1  0
 25 24  2  0
 26 25  1  0
 27 26  2  0
 27 28  1  0
 28 29  2  0
 29 24  1  0
 30 31  1  0
 32 30  2  0
M  END
$$$$
