YMF.pdb
     RDKit          3D

 32 33  0  0  1  0  0  0  0  0999 V2000
    9.7086  -13.4778   17.2630 O   0  0  0  0  0  0  0  0  0  0  0  0
    8.9680  -13.8646   18.3773 C   0  0  0  0  0  0  0  0  0  0  0  0
    7.8114  -13.1873   18.7066 C   0  0  0  0  0  0  0  0  0  0  0  0
    7.0588  -13.5579   19.8138 C   0  0  0  0  0  0  0  0  0  0  0  0
    7.4308  -14.5989   20.6140 C   0  0  0  0  0  0  0  0  0  0  0  0
    6.6585  -15.0364   21.8150 C   0  0  0  0  0  0  0  0  0  0  0  0
    6.6387  -16.5478   21.8365 C   0  0  2  0  0  0  0  0  0  0  0  0
    5.6476  -17.0047   20.8949 N   0  0  0  0  0  0  0  0  0  0  0  0
    6.4662  -17.1094   23.1779 C   0  0  0  0  0  0  0  0  0  0  0  0
    5.3392  -16.9906   23.7365 O   0  0  0  0  0  0  0  0  0  0  0  0
    8.6009  -15.2813   20.2779 C   0  0  0  0  0  0  0  0  0  0  0  0
    9.3469  -14.9120   19.1783 C   0  0  0  0  0  0  0  0  0  0  0  0
    9.8529  -20.9836   28.0320 C   0  0  0  0  0  0  0  0  0  0  0  0
    8.0400  -20.8393   28.0000 S   0  0  0  0  0  0  0  0  0  0  0  0
    7.5741  -19.1524   27.4485 C   0  0  0  0  0  0  0  0  0  0  0  0
    7.7052  -19.1381   25.9578 C   0  0  0  0  0  0  0  0  0  0  0  0
    7.5598  -17.7640   25.3504 C   0  0  2  0  0  0  0  0  0  0  0  0
    7.4673  -17.7893   23.9261 N   0  0  0  0  0  0  0  0  0  0  0  0
    8.7038  -16.9418   25.8161 C   0  0  0  0  0  0  0  0  0  0  0  0
    9.8099  -16.9107   25.2330 O   0  0  0  0  0  0  0  0  0  0  0  0
    8.5602  -16.1387   26.9831 N   0  0  0  0  0  0  0  0  0  0  0  0
    9.6638  -15.3049   27.4401 C   0  0  1  0  0  0  0  0  0  0  0  0
    9.2011  -14.1347   28.2238 C   0  0  0  0  0  0  0  0  0  0  0  0
    8.1096  -13.4338   27.5043 C   0  0  0  0  0  0  0  0  0  0  0  0
    8.2969  -13.0287   26.1976 C   0  0  0  0  0  0  0  0  0  0  0  0
    7.2973  -12.4027   25.4970 C   0  0  0  0  0  0  0  0  0  0  0  0
    6.0691  -12.1519   26.0630 C   0  0  0  0  0  0  0  0  0  0  0  0
    5.8902  -12.5587   27.3655 C   0  0  0  0  0  0  0  0  0  0  0  0
    6.8808  -13.1871   28.0813 C   0  0  0  0  0  0  0  0  0  0  0  0
   10.5662  -16.1475   28.2420 C   0  0  0  0  0  0  0  0  0  0  0  0
   11.7217  -15.5744   28.8078 O   0  0  0  0  0  0  0  0  0  0  0  0
   10.3953  -17.3783   28.4779 O   0  0  0  0  0  0  0  0  0  0  0  0
  2  1  1  0
  3  2  2  0
  4  3  1  0
  5 11  1  0
  5  4  2  0
  6  5  1  0
  7  6  1  0
  7  8  1  6
  9  7  1  0
  9 10  2  0
 11 12  2  0
 12  2  1  0
 13 14  1  0
 14 15  1  0
 15 16  1  0
 17 16  1  6
 17 19  1  0
 17 18  1  0
 18  9  1  0
 19 20  2  0
 21 22  1  0
 21 19  1  0
 22 30  1  0
 22 23  1  1
 24 23  1  0
 25 24  2  0
 26 25  1  0
 27 26  2  0
 27 28  1  0
 28 29  2  0
 29 24  1  0
 30 31  1  0
 32 30  2  0
M  END
$$$$
