YMF.pdb
     RDKit          3D

 32 33  0  0  1  0  0  0  0  0999 V2000
   14.7038  -20.7859   17.5393 O   0  0  0  0  0  0  0  0  0  0  0  0
   13.5554  -20.3019   18.1610 C   0  0  0  0  0  0  0  0  0  0  0  0
   12.4069  -20.0942   17.4243 C   0  0  0  0  0  0  0  0  0  0  0  0
   11.2513  -19.6123   18.0260 C   0  0  0  0  0  0  0  0  0  0  0  0
   11.2063  -19.3273   19.3599 C   0  0  0  0  0  0  0  0  0  0  0  0
    9.9910  -18.8068   20.0543 C   0  0  0  0  0  0  0  0  0  0  0  0
    9.3639  -19.9474   20.8232 C   0  0  2  0  0  0  0  0  0  0  0  0
    8.6063  -20.7567   19.9020 N   0  0  0  0  0  0  0  0  0  0  0  0
    8.5870  -19.5097   21.9848 C   0  0  0  0  0  0  0  0  0  0  0  0
    7.4053  -19.1040   21.7965 O   0  0  0  0  0  0  0  0  0  0  0  0
   12.3696  -19.5386   20.1014 C   0  0  0  0  0  0  0  0  0  0  0  0
   13.5160  -20.0170   19.5025 C   0  0  0  0  0  0  0  0  0  0  0  0
    9.4757  -21.3942   27.9472 C   0  0  0  0  0  0  0  0  0  0  0  0
    8.5698  -19.8875   28.4138 S   0  0  0  0  0  0  0  0  0  0  0  0
    7.8701  -19.1078   26.9074 C   0  0  0  0  0  0  0  0  0  0  0  0
    8.6970  -19.5852   25.7550 C   0  0  0  0  0  0  0  0  0  0  0  0
    8.2938  -18.9841   24.4306 C   0  0  2  0  0  0  0  0  0  0  0  0
    9.0460  -19.4978   23.3314 N   0  0  0  0  0  0  0  0  0  0  0  0
    8.4203  -17.5103   24.5470 C   0  0  0  0  0  0  0  0  0  0  0  0
    9.4937  -16.8960   24.3598 O   0  0  0  0  0  0  0  0  0  0  0  0
    7.2766  -16.7336   24.8876 N   0  0  0  0  0  0  0  0  0  0  0  0
    7.3926  -15.2912   25.0546 C   0  0  1  0  0  0  0  0  0  0  0  0
    6.0786  -14.6397   25.2705 C   0  0  0  0  0  0  0  0  0  0  0  0
    6.2637  -13.2016   25.5837 C   0  0  0  0  0  0  0  0  0  0  0  0
    6.6313  -12.3222   24.5847 C   0  0  0  0  0  0  0  0  0  0  0  0
    6.7836  -10.9825   24.8373 C   0  0  0  0  0  0  0  0  0  0  0  0
    6.5775  -10.4580   26.0919 C   0  0  0  0  0  0  0  0  0  0  0  0
    6.2113  -11.3407   27.0821 C   0  0  0  0  0  0  0  0  0  0  0  0
    6.0542  -12.6854   26.8461 C   0  0  0  0  0  0  0  0  0  0  0  0
    8.2947  -15.0379   26.1902 C   0  0  0  0  0  0  0  0  0  0  0  0
    8.2023  -15.8500   27.3372 O   0  0  0  0  0  0  0  0  0  0  0  0
    9.1735  -14.1293   26.2334 O   0  0  0  0  0  0  0  0  0  0  0  0
  2  1  1  0
  3  2  2  0
  4  3  1  0
  5 11  1  0
  5  4  2  0
  6  5  1  0
  7  6  1  0
  7  8  1  6
  9  7  1  0
  9 10  2  0
 11 12  2  0
 12  2  1  0
 13 14  1  0
 14 15  1  0
 15 16  1  0
 17 16  1  1
 17 19  1  0
 17 18  1  0
 18  9  1  0
 19 20  2  0
 21 22  1  0
 21 19  1  0
 22 30  1  0
 22 23  1  1
 24 23  1  0
 25 24  2  0
 26 25  1  0
 27 26  2  0
 27 28  1  0
 28 29  2  0
 29 24  1  0
 30 31  1  0
 32 30  2  0
M  END
$$$$
