YMF.pdb
     RDKit          3D

 32 33  0  0  1  0  0  0  0  0999 V2000
    8.8845  -13.7819   16.0694 O   0  0  0  0  0  0  0  0  0  0  0  0
    8.3791  -14.0933   17.3293 C   0  0  0  0  0  0  0  0  0  0  0  0
    8.6422  -15.3250   17.8936 C   0  0  0  0  0  0  0  0  0  0  0  0
    8.1474  -15.6544   19.1491 C   0  0  0  0  0  0  0  0  0  0  0  0
    7.3870  -14.7793   19.8690 C   0  0  0  0  0  0  0  0  0  0  0  0
    6.8307  -15.0844   21.2209 C   0  0  0  0  0  0  0  0  0  0  0  0
    6.5897  -16.5744   21.3050 C   0  0  2  0  0  0  0  0  0  0  0  0
    5.4090  -16.8896   20.5408 N   0  0  0  0  0  0  0  0  0  0  0  0
    6.5437  -17.0807   22.6784 C   0  0  0  0  0  0  0  0  0  0  0  0
    5.4824  -16.9132   23.3431 O   0  0  0  0  0  0  0  0  0  0  0  0
    7.1230  -13.5348   19.2950 C   0  0  0  0  0  0  0  0  0  0  0  0
    7.6150  -13.2095   18.0485 C   0  0  0  0  0  0  0  0  0  0  0  0
    5.4781  -22.3889   24.7946 C   0  0  0  0  0  0  0  0  0  0  0  0
    7.2439  -22.1063   24.4621 S   0  0  0  0  0  0  0  0  0  0  0  0
    7.4818  -20.3896   23.8595 C   0  0  0  0  0  0  0  0  0  0  0  0
    7.3827  -19.4980   25.0574 C   0  0  0  0  0  0  0  0  0  0  0  0
    7.6144  -18.0393   24.7470 C   0  0  2  0  0  0  0  0  0  0  0  0
    7.6017  -17.7566   23.3477 N   0  0  0  0  0  0  0  0  0  0  0  0
    8.8958  -17.6413   25.3803 C   0  0  0  0  0  0  0  0  0  0  0  0
   10.0159  -17.9579   24.9224 O   0  0  0  0  0  0  0  0  0  0  0  0
    8.8762  -16.8594   26.5701 N   0  0  0  0  0  0  0  0  0  0  0  0
   10.1113  -16.2947   27.0972 C   0  0  1  0  0  0  0  0  0  0  0  0
   10.2157  -14.8364   26.8523 C   0  0  0  0  0  0  0  0  0  0  0  0
    8.9363  -14.1660   27.1903 C   0  0  0  0  0  0  0  0  0  0  0  0
    8.7882  -13.5447   28.4145 C   0  0  0  0  0  0  0  0  0  0  0  0
    7.6272  -12.8932   28.7453 C   0  0  0  0  0  0  0  0  0  0  0  0
    6.5636  -12.8301   27.8757 C   0  0  0  0  0  0  0  0  0  0  0  0
    6.7189  -13.4516   26.6577 C   0  0  0  0  0  0  0  0  0  0  0  0
    7.8750  -14.1083   26.3104 C   0  0  0  0  0  0  0  0  0  0  0  0
   10.1641  -16.5879   28.5390 C   0  0  0  0  0  0  0  0  0  0  0  0
    9.1085  -17.3052   29.1348 O   0  0  0  0  0  0  0  0  0  0  0  0
   11.0993  -16.2444   29.3181 O   0  0  0  0  0  0  0  0  0  0  0  0
  2  1  1  0
  3  2  2  0
  4  3  1  0
  5 11  1  0
  5  4  2  0
  6  5  1  0
  7  6  1  0
  7  8  1  1
  9  7  1  0
  9 10  2  0
 11 12  2  0
 12  2  1  0
 13 14  1  0
 14 15  1  0
 15 16  1  0
 17 16  1  6
 17 19  1  0
 17 18  1  0
 18  9  1  0
 19 20  2  0
 21 22  1  0
 21 19  1  0
 22 30  1  0
 22 23  1  1
 24 23  1  0
 25 24  2  0
 26 25  1  0
 27 26  2  0
 27 28  1  0
 28 29  2  0
 29 24  1  0
 30 31  1  0
 32 30  2  0
M  END
$$$$
