YMF.pdb
     RDKit          3D

 32 33  0  0  1  0  0  0  0  0999 V2000
    7.4088  -14.8957   13.5827 O   0  0  0  0  0  0  0  0  0  0  0  0
    7.8042  -14.6289   14.8912 C   0  0  0  0  0  0  0  0  0  0  0  0
    8.8516  -15.3307   15.4526 C   0  0  0  0  0  0  0  0  0  0  0  0
    9.2611  -15.0792   16.7559 C   0  0  0  0  0  0  0  0  0  0  0  0
    8.6484  -14.1346   17.5272 C   0  0  0  0  0  0  0  0  0  0  0  0
    9.0489  -13.8267   18.9325 C   0  0  0  0  0  0  0  0  0  0  0  0
    8.9547  -15.1021   19.7386 C   0  0  2  0  0  0  0  0  0  0  0  0
    7.6235  -15.6356   19.5946 N   0  0  0  0  0  0  0  0  0  0  0  0
    9.3668  -14.9409   21.1346 C   0  0  0  0  0  0  0  0  0  0  0  0
   10.5828  -14.6971   21.3757 O   0  0  0  0  0  0  0  0  0  0  0  0
    7.5897  -13.4270   16.9560 C   0  0  0  0  0  0  0  0  0  0  0  0
    7.1844  -13.6781   15.6620 C   0  0  0  0  0  0  0  0  0  0  0  0
    5.4544  -13.0596   26.3604 C   0  0  0  0  0  0  0  0  0  0  0  0
    7.1204  -12.3295   26.3565 S   0  0  0  0  0  0  0  0  0  0  0  0
    8.3273  -13.5721   25.7516 C   0  0  0  0  0  0  0  0  0  0  0  0
    7.8749  -13.9776   24.3840 C   0  0  0  0  0  0  0  0  0  0  0  0
    8.9154  -14.7447   23.6048 C   0  0  2  0  0  0  0  0  0  0  0  0
    8.5105  -15.0349   22.2670 N   0  0  0  0  0  0  0  0  0  0  0  0
    9.2314  -15.9778   24.3671 C   0  0  0  0  0  0  0  0  0  0  0  0
    8.6589  -17.0725   24.1708 O   0  0  0  0  0  0  0  0  0  0  0  0
   10.2331  -15.9391   25.3782 N   0  0  0  0  0  0  0  0  0  0  0  0
   10.7234  -17.1753   25.9729 C   0  0  1  0  0  0  0  0  0  0  0  0
   11.7335  -16.9320   27.0302 C   0  0  0  0  0  0  0  0  0  0  0  0
   11.2050  -15.9778   28.0356 C   0  0  0  0  0  0  0  0  0  0  0  0
   11.0356  -14.6492   27.6998 C   0  0  0  0  0  0  0  0  0  0  0  0
   10.5236  -13.7484   28.5988 C   0  0  0  0  0  0  0  0  0  0  0  0
   10.1578  -14.1272   29.8693 C   0  0  0  0  0  0  0  0  0  0  0  0
   10.3296  -15.4529   30.1963 C   0  0  0  0  0  0  0  0  0  0  0  0
   10.8408  -16.3683   29.3079 C   0  0  0  0  0  0  0  0  0  0  0  0
    9.5664  -17.9077   26.5136 C   0  0  0  0  0  0  0  0  0  0  0  0
    9.7708  -19.1541   27.1370 O   0  0  0  0  0  0  0  0  0  0  0  0
    8.3669  -17.5094   26.4691 O   0  0  0  0  0  0  0  0  0  0  0  0
  2  1  1  0
  3  2  2  0
  4  3  1  0
  5 11  1  0
  5  4  2  0
  6  5  1  0
  7  6  1  0
  7  8  1  1
  9  7  1  0
  9 10  2  0
 11 12  2  0
 12  2  1  0
 13 14  1  0
 14 15  1  0
 15 16  1  0
 17 16  1  1
 17 19  1  0
 17 18  1  0
 18  9  1  0
 19 20  2  0
 21 22  1  0
 21 19  1  0
 22 30  1  0
 22 23  1  1
 24 23  1  0
 25 24  2  0
 26 25  1  0
 27 26  2  0
 27 28  1  0
 28 29  2  0
 29 24  1  0
 30 31  1  0
 32 30  2  0
M  END
$$$$
