YMF.pdb
     RDKit          3D

 32 33  0  0  1  0  0  0  0  0999 V2000
    7.0023  -22.7704   16.5198 O   0  0  0  0  0  0  0  0  0  0  0  0
    7.5426  -21.9656   17.5198 C   0  0  0  0  0  0  0  0  0  0  0  0
    6.7100  -21.3165   18.4088 C   0  0  0  0  0  0  0  0  0  0  0  0
    7.2295  -20.5097   19.4131 C   0  0  0  0  0  0  0  0  0  0  0  0
    8.5742  -20.3284   19.5595 C   0  0  0  0  0  0  0  0  0  0  0  0
    9.1830  -19.4717   20.6205 C   0  0  0  0  0  0  0  0  0  0  0  0
    8.8441  -18.0308   20.3136 C   0  0  2  0  0  0  0  0  0  0  0  0
    9.4494  -17.6780   19.0540 N   0  0  0  0  0  0  0  0  0  0  0  0
    9.1843  -17.1082   21.3988 C   0  0  0  0  0  0  0  0  0  0  0  0
   10.3622  -16.6544   21.4519 O   0  0  0  0  0  0  0  0  0  0  0  0
    9.4129  -20.9863   18.6587 C   0  0  0  0  0  0  0  0  0  0  0  0
    8.8954  -21.7869   17.6621 C   0  0  0  0  0  0  0  0  0  0  0  0
    6.6473  -12.0383   26.9591 C   0  0  0  0  0  0  0  0  0  0  0  0
    6.2739  -13.3123   25.7157 S   0  0  0  0  0  0  0  0  0  0  0  0
    7.8376  -14.0920   25.1557 C   0  0  0  0  0  0  0  0  0  0  0  0
    7.4743  -15.0349   24.0519 C   0  0  0  0  0  0  0  0  0  0  0  0
    8.6589  -15.7589   23.4598 C   0  0  2  0  0  0  0  0  0  0  0  0
    8.2964  -16.6660   22.4188 N   0  0  0  0  0  0  0  0  0  0  0  0
    9.3689  -16.4438   24.5681 C   0  0  0  0  0  0  0  0  0  0  0  0
    9.0727  -17.5911   24.9686 O   0  0  0  0  0  0  0  0  0  0  0  0
   10.4454  -15.7828   25.2249 N   0  0  0  0  0  0  0  0  0  0  0  0
   11.5260  -16.5559   25.8223 C   0  0  1  0  0  0  0  0  0  0  0  0
   12.4160  -15.7241   26.6671 C   0  0  0  0  0  0  0  0  0  0  0  0
   11.6122  -14.8889   27.5927 C   0  0  0  0  0  0  0  0  0  0  0  0
   11.3832  -15.3198   28.8844 C   0  0  0  0  0  0  0  0  0  0  0  0
   10.6671  -14.5573   29.7719 C   0  0  0  0  0  0  0  0  0  0  0  0
   10.1475  -13.3347   29.4157 C   0  0  0  0  0  0  0  0  0  0  0  0
   10.3801  -12.9122   28.1268 C   0  0  0  0  0  0  0  0  0  0  0  0
   11.0955  -13.6634   27.2254 C   0  0  0  0  0  0  0  0  0  0  0  0
   10.9228  -17.6430   26.6107 C   0  0  0  0  0  0  0  0  0  0  0  0
    9.5206  -17.7162   26.7227 O   0  0  0  0  0  0  0  0  0  0  0  0
   11.5671  -18.5470   27.2168 O   0  0  0  0  0  0  0  0  0  0  0  0
  2  1  1  0
  3  2  2  0
  4  3  1  0
  5 11  1  0
  5  4  2  0
  6  5  1  0
  7  6  1  0
  7  8  1  6
  9  7  1  0
  9 10  2  0
 11 12  2  0
 12  2  1  0
 13 14  1  0
 14 15  1  0
 15 16  1  0
 17 16  1  1
 17 19  1  0
 17 18  1  0
 18  9  1  0
 19 20  2  0
 21 22  1  0
 21 19  1  0
 22 30  1  0
 22 23  1  1
 24 23  1  0
 25 24  2  0
 26 25  1  0
 27 26  2  0
 27 28  1  0
 28 29  2  0
 29 24  1  0
 30 31  1  0
 32 30  2  0
M  END
$$$$
