YMF.pdb
     RDKit          3D

 32 33  0  0  1  0  0  0  0  0999 V2000
    5.7165  -24.9105   20.2522 O   0  0  0  0  0  0  0  0  0  0  0  0
    6.4615  -23.8047   20.6545 C   0  0  0  0  0  0  0  0  0  0  0  0
    5.8240  -22.6268   20.9877 C   0  0  0  0  0  0  0  0  0  0  0  0
    6.5493  -21.5130   21.3915 C   0  0  0  0  0  0  0  0  0  0  0  0
    7.9113  -21.5394   21.4741 C   0  0  0  0  0  0  0  0  0  0  0  0
    8.7371  -20.3706   21.9010 C   0  0  0  0  0  0  0  0  0  0  0  0
    8.4409  -19.2193   20.9671 C   0  0  2  0  0  0  0  0  0  0  0  0
    8.6157  -19.6751   19.6110 N   0  0  0  0  0  0  0  0  0  0  0  0
    9.2047  -18.0082   21.2746 C   0  0  0  0  0  0  0  0  0  0  0  0
   10.4307  -17.9801   20.9708 O   0  0  0  0  0  0  0  0  0  0  0  0
    8.5523  -22.7321   21.1363 C   0  0  0  0  0  0  0  0  0  0  0  0
    7.8307  -23.8369   20.7356 C   0  0  0  0  0  0  0  0  0  0  0  0
    7.7905  -11.7352   21.0787 C   0  0  0  0  0  0  0  0  0  0  0  0
    6.8478  -13.0684   20.2773 S   0  0  0  0  0  0  0  0  0  0  0  0
    7.6417  -14.6810   20.6463 C   0  0  0  0  0  0  0  0  0  0  0  0
    8.7410  -14.4031   21.6230 C   0  0  0  0  0  0  0  0  0  0  0  0
    9.4409  -15.6460   22.1163 C   0  0  2  0  0  0  0  0  0  0  0  0
    8.6864  -16.8375   21.8952 N   0  0  0  0  0  0  0  0  0  0  0  0
    9.7533  -15.4475   23.5532 C   0  0  0  0  0  0  0  0  0  0  0  0
   10.5931  -14.6173   23.9653 O   0  0  0  0  0  0  0  0  0  0  0  0
    9.0762  -16.2292   24.5318 N   0  0  0  0  0  0  0  0  0  0  0  0
    9.3901  -16.0679   25.9452 C   0  0  1  0  0  0  0  0  0  0  0  0
    8.1889  -15.7671   26.7602 C   0  0  0  0  0  0  0  0  0  0  0  0
    7.6984  -14.3985   26.4661 C   0  0  0  0  0  0  0  0  0  0  0  0
    8.4925  -13.3066   26.7553 C   0  0  0  0  0  0  0  0  0  0  0  0
    8.0781  -12.0304   26.4700 C   0  0  0  0  0  0  0  0  0  0  0  0
    6.8579  -11.7829   25.8856 C   0  0  0  0  0  0  0  0  0  0  0  0
    6.0723  -12.8763   25.6003 C   0  0  0  0  0  0  0  0  0  0  0  0
    6.4723  -14.1610   25.8793 C   0  0  0  0  0  0  0  0  0  0  0  0
   10.0401  -17.3049   26.4087 C   0  0  0  0  0  0  0  0  0  0  0  0
   10.2872  -18.3401   25.4861 O   0  0  0  0  0  0  0  0  0  0  0  0
   10.4094  -17.5323   27.5967 O   0  0  0  0  0  0  0  0  0  0  0  0
  2  1  1  0
  3  2  2  0
  4  3  1  0
  5 11  1  0
  5  4  2  0
  6  5  1  0
  7  6  1  0
  7  8  1  6
  9  7  1  0
  9 10  2  0
 11 12  2  0
 12  2  1  0
 13 14  1  0
 14 15  1  0
 15 16  1  0
 17 16  1  1
 17 19  1  0
 17 18  1  0
 18  9  1  0
 19 20  2  0
 21 22  1  0
 21 19  1  0
 22 30  1  0
 22 23  1  1
 24 23  1  0
 25 24  2  0
 26 25  1  0
 27 26  2  0
 27 28  1  0
 28 29  2  0
 29 24  1  0
 30 31  1  0
 32 30  2  0
M  END
$$$$
