YMF.pdb
     RDKit          3D

 32 33  0  0  1  0  0  0  0  0999 V2000
    2.3459  -23.0316   23.9334 O   0  0  0  0  0  0  0  0  0  0  0  0
    3.4102  -22.1352   23.9937 C   0  0  0  0  0  0  0  0  0  0  0  0
    4.5574  -22.4710   24.6835 C   0  0  0  0  0  0  0  0  0  0  0  0
    5.6297  -21.5909   24.7551 C   0  0  0  0  0  0  0  0  0  0  0  0
    5.5914  -20.3681   24.1503 C   0  0  0  0  0  0  0  0  0  0  0  0
    6.7153  -19.3858   24.1979 C   0  0  0  0  0  0  0  0  0  0  0  0
    6.3883  -18.2510   23.2543 C   0  0  2  0  0  0  0  0  0  0  0  0
    6.2040  -18.7952   21.9324 N   0  0  0  0  0  0  0  0  0  0  0  0
    7.3603  -17.1565   23.3002 C   0  0  0  0  0  0  0  0  0  0  0  0
    8.2453  -17.1034   22.4001 O   0  0  0  0  0  0  0  0  0  0  0  0
    4.4297  -20.0321   23.4538 C   0  0  0  0  0  0  0  0  0  0  0  0
    3.3660  -20.9071   23.3837 C   0  0  0  0  0  0  0  0  0  0  0  0
    4.8049  -11.3868   25.9458 C   0  0  0  0  0  0  0  0  0  0  0  0
    6.5206  -11.9810   26.0548 S   0  0  0  0  0  0  0  0  0  0  0  0
    6.6815  -13.5493   25.1160 C   0  0  0  0  0  0  0  0  0  0  0  0
    8.1009  -13.9974   25.2713 C   0  0  0  0  0  0  0  0  0  0  0  0
    8.4617  -15.1775   24.4023 C   0  0  2  0  0  0  0  0  0  0  0  0
    7.4028  -16.1273   24.2817 N   0  0  0  0  0  0  0  0  0  0  0  0
    9.6928  -15.7891   24.9608 C   0  0  0  0  0  0  0  0  0  0  0  0
    9.7381  -16.3396   26.0830 O   0  0  0  0  0  0  0  0  0  0  0  0
   10.8961  -15.7611   24.2002 N   0  0  0  0  0  0  0  0  0  0  0  0
   12.1878  -15.8555   24.8671 C   0  0  1  0  0  0  0  0  0  0  0  0
   12.1464  -16.7386   26.0570 C   0  0  0  0  0  0  0  0  0  0  0  0
   11.5170  -16.0319   27.1994 C   0  0  0  0  0  0  0  0  0  0  0  0
   11.7822  -14.6932   27.4100 C   0  0  0  0  0  0  0  0  0  0  0  0
   11.1944  -14.0057   28.4413 C   0  0  0  0  0  0  0  0  0  0  0  0
   10.3183  -14.6168   29.3076 C   0  0  0  0  0  0  0  0  0  0  0  0
   10.0590  -15.9509   29.0910 C   0  0  0  0  0  0  0  0  0  0  0  0
   10.6391  -16.6544   28.0629 C   0  0  0  0  0  0  0  0  0  0  0  0
   13.1693  -16.3463   23.8857 C   0  0  0  0  0  0  0  0  0  0  0  0
   12.7480  -16.6253   22.5710 O   0  0  0  0  0  0  0  0  0  0  0  0
   14.3957  -16.5476   24.1206 O   0  0  0  0  0  0  0  0  0  0  0  0
  2  1  1  0
  3  2  2  0
  4  3  1  0
  5 11  1  0
  5  4  2  0
  6  5  1  0
  7  6  1  0
  7  8  1  6
  9  7  1  0
  9 10  2  0
 11 12  2  0
 12  2  1  0
 13 14  1  0
 14 15  1  0
 15 16  1  0
 17 16  1  1
 17 19  1  0
 17 18  1  0
 18  9  1  0
 19 20  2  0
 21 22  1  0
 21 19  1  0
 22 30  1  0
 22 23  1  1
 24 23  1  0
 25 24  2  0
 26 25  1  0
 27 26  2  0
 27 28  1  0
 28 29  2  0
 29 24  1  0
 30 31  1  0
 32 30  2  0
M  END
$$$$
