YMF.pdb
     RDKit          3D

 32 33  0  0  1  0  0  0  0  0999 V2000
    7.3686  -20.9296   10.5803 O   0  0  0  0  0  0  0  0  0  0  0  0
    8.0445  -20.1860   11.5446 C   0  0  0  0  0  0  0  0  0  0  0  0
    9.4015  -19.9662   11.4211 C   0  0  0  0  0  0  0  0  0  0  0  0
   10.0936  -19.2271   12.3720 C   0  0  0  0  0  0  0  0  0  0  0  0
    9.4635  -18.6928   13.4582 C   0  0  0  0  0  0  0  0  0  0  0  0
   10.1609  -17.8923   14.5086 C   0  0  0  0  0  0  0  0  0  0  0  0
    9.7069  -16.4558   14.3838 C   0  0  2  0  0  0  0  0  0  0  0  0
   10.1498  -15.9461   13.1104 N   0  0  0  0  0  0  0  0  0  0  0  0
   10.1087  -15.6173   15.5153 C   0  0  0  0  0  0  0  0  0  0  0  0
   11.3419  -15.4202   15.7064 O   0  0  0  0  0  0  0  0  0  0  0  0
    8.0914  -18.9172   13.5798 C   0  0  0  0  0  0  0  0  0  0  0  0
    7.4059  -19.6513   12.6347 C   0  0  0  0  0  0  0  0  0  0  0  0
    7.6910  -12.2926   22.3647 C   0  0  0  0  0  0  0  0  0  0  0  0
    7.2917  -12.9694   20.7243 S   0  0  0  0  0  0  0  0  0  0  0  0
    8.8317  -13.5563   19.9175 C   0  0  0  0  0  0  0  0  0  0  0  0
    8.4527  -13.9897   18.5362 C   0  0  0  0  0  0  0  0  0  0  0  0
    9.6092  -14.5351   17.7342 C   0  0  2  0  0  0  0  0  0  0  0  0
    9.2242  -14.9916   16.4375 N   0  0  0  0  0  0  0  0  0  0  0  0
   10.2445  -15.6116   18.5337 C   0  0  0  0  0  0  0  0  0  0  0  0
    9.9976  -16.8266   18.3689 O   0  0  0  0  0  0  0  0  0  0  0  0
   11.1861  -15.2700   19.5456 N   0  0  0  0  0  0  0  0  0  0  0  0
   11.8800  -16.3158   20.2852 C   0  0  1  0  0  0  0  0  0  0  0  0
   13.0781  -16.8148   19.5689 C   0  0  0  0  0  0  0  0  0  0  0  0
   13.9750  -15.6860   19.2199 C   0  0  0  0  0  0  0  0  0  0  0  0
   14.7596  -15.1042   20.1959 C   0  0  0  0  0  0  0  0  0  0  0  0
   15.6189  -14.0771   19.8988 C   0  0  0  0  0  0  0  0  0  0  0  0
   15.7365  -13.5831   18.6206 C   0  0  0  0  0  0  0  0  0  0  0  0
   14.9514  -14.1682   17.6535 C   0  0  0  0  0  0  0  0  0  0  0  0
   14.0857  -15.1979   17.9340 C   0  0  0  0  0  0  0  0  0  0  0  0
   12.2476  -15.7710   21.6026 C   0  0  0  0  0  0  0  0  0  0  0  0
   11.8155  -14.4784   21.9580 O   0  0  0  0  0  0  0  0  0  0  0  0
   12.9378  -16.3750   22.4734 O   0  0  0  0  0  0  0  0  0  0  0  0
  2  1  1  0
  3  2  2  0
  4  3  1  0
  5 11  1  0
  5  4  2  0
  6  5  1  0
  7  6  1  0
  7  8  1  6
  9  7  1  0
  9 10  2  0
 11 12  2  0
 12  2  1  0
 13 14  1  0
 14 15  1  0
 15 16  1  0
 17 16  1  1
 17 19  1  0
 17 18  1  0
 18  9  1  0
 19 20  2  0
 21 22  1  0
 21 19  1  0
 22 30  1  0
 22 23  1  6
 24 23  1  0
 25 24  2  0
 26 25  1  0
 27 26  2  0
 27 28  1  0
 28 29  2  0
 29 24  1  0
 30 31  1  0
 32 30  2  0
M  END
$$$$
