YMF.pdb
     RDKit          3D

 32 33  0  0  1  0  0  0  0  0999 V2000
    4.2032  -24.1684   26.2499 O   0  0  0  0  0  0  0  0  0  0  0  0
    5.0428  -23.1359   25.8391 C   0  0  0  0  0  0  0  0  0  0  0  0
    6.4120  -23.2793   25.9363 C   0  0  0  0  0  0  0  0  0  0  0  0
    7.2660  -22.2612   25.5317 C   0  0  0  0  0  0  0  0  0  0  0  0
    6.7882  -21.0873   25.0256 C   0  0  0  0  0  0  0  0  0  0  0  0
    7.6626  -19.9624   24.5779 C   0  0  0  0  0  0  0  0  0  0  0  0
    7.4926  -19.8003   23.0846 C   0  0  2  0  0  0  0  0  0  0  0  0
    7.9070  -21.0226   22.4428 N   0  0  0  0  0  0  0  0  0  0  0  0
    8.1563  -18.6101   22.5483 C   0  0  0  0  0  0  0  0  0  0  0  0
    9.3565  -18.7140   22.1678 O   0  0  0  0  0  0  0  0  0  0  0  0
    5.4031  -20.9460   24.9290 C   0  0  0  0  0  0  0  0  0  0  0  0
    4.5567  -21.9578   25.3311 C   0  0  0  0  0  0  0  0  0  0  0  0
    6.4100  -13.2351   19.0647 C   0  0  0  0  0  0  0  0  0  0  0  0
    7.0279  -12.5584   20.6360 S   0  0  0  0  0  0  0  0  0  0  0  0
    8.2169  -13.7406   21.3813 C   0  0  0  0  0  0  0  0  0  0  0  0
    7.4441  -14.9825   21.6977 C   0  0  0  0  0  0  0  0  0  0  0  0
    8.3035  -16.1213   22.1903 C   0  0  2  0  0  0  0  0  0  0  0  0
    7.5655  -17.3229   22.4126 N   0  0  0  0  0  0  0  0  0  0  0  0
    8.9984  -15.6633   23.4187 C   0  0  0  0  0  0  0  0  0  0  0  0
    9.9115  -14.8085   23.4133 O   0  0  0  0  0  0  0  0  0  0  0  0
    8.6249  -16.2090   24.6796 N   0  0  0  0  0  0  0  0  0  0  0  0
    9.3338  -15.8133   25.8892 C   0  0  1  0  0  0  0  0  0  0  0  0
    8.4147  -15.3578   26.9594 C   0  0  0  0  0  0  0  0  0  0  0  0
    7.8586  -14.0238   26.6255 C   0  0  0  0  0  0  0  0  0  0  0  0
    6.5519  -13.9122   26.1935 C   0  0  0  0  0  0  0  0  0  0  0  0
    6.0009  -12.6899   25.9033 C   0  0  0  0  0  0  0  0  0  0  0  0
    6.7228  -11.5261   26.0292 C   0  0  0  0  0  0  0  0  0  0  0  0
    8.0243  -11.6455   26.4603 C   0  0  0  0  0  0  0  0  0  0  0  0
    8.5915  -12.8619   26.7555 C   0  0  0  0  0  0  0  0  0  0  0  0
   10.1342  -16.9630   26.3417 C   0  0  0  0  0  0  0  0  0  0  0  0
   10.9585  -16.8246   27.4754 O   0  0  0  0  0  0  0  0  0  0  0  0
   10.1516  -18.1007   25.7893 O   0  0  0  0  0  0  0  0  0  0  0  0
  2  1  1  0
  3  2  2  0
  4  3  1  0
  5 11  1  0
  5  4  2  0
  6  5  1  0
  7  6  1  0
  7  8  1  6
  9  7  1  0
  9 10  2  0
 11 12  2  0
 12  2  1  0
 13 14  1  0
 14 15  1  0
 15 16  1  0
 17 16  1  1
 17 19  1  0
 17 18  1  0
 18  9  1  0
 19 20  2  0
 21 22  1  0
 21 19  1  0
 22 30  1  0
 22 23  1  1
 24 23  1  0
 25 24  2  0
 26 25  1  0
 27 26  2  0
 27 28  1  0
 28 29  2  0
 29 24  1  0
 30 31  1  0
 32 30  2  0
M  END
$$$$
