YMF.pdb
     RDKit          3D

 32 33  0  0  1  0  0  0  0  0999 V2000
    5.9282  -21.2585   18.3562 O   0  0  0  0  0  0  0  0  0  0  0  0
    6.9963  -20.4121   18.6434 C   0  0  0  0  0  0  0  0  0  0  0  0
    7.8475  -20.7051   19.6894 C   0  0  0  0  0  0  0  0  0  0  0  0
    8.9185  -19.8737   19.9916 C   0  0  0  0  0  0  0  0  0  0  0  0
    9.1695  -18.7422   19.2710 C   0  0  0  0  0  0  0  0  0  0  0  0
   10.3054  -17.8152   19.5550 C   0  0  0  0  0  0  0  0  0  0  0  0
    9.7465  -16.4187   19.7051 C   0  0  2  0  0  0  0  0  0  0  0  0
   10.3477  -15.5762   18.7020 N   0  0  0  0  0  0  0  0  0  0  0  0
    9.8717  -15.8836   21.0626 C   0  0  0  0  0  0  0  0  0  0  0  0
   11.0066  -15.4818   21.4455 O   0  0  0  0  0  0  0  0  0  0  0  0
    8.3065  -18.4492   18.2140 C   0  0  0  0  0  0  0  0  0  0  0  0
    7.2437  -19.2757   17.9155 C   0  0  0  0  0  0  0  0  0  0  0  0
    6.2367  -11.8374   25.6902 C   0  0  0  0  0  0  0  0  0  0  0  0
    6.2138  -13.6470   25.8730 S   0  0  0  0  0  0  0  0  0  0  0  0
    7.8410  -14.3294   25.3695 C   0  0  0  0  0  0  0  0  0  0  0  0
    7.7010  -14.7617   23.9436 C   0  0  0  0  0  0  0  0  0  0  0  0
    8.9813  -15.2883   23.3423 C   0  0  2  0  0  0  0  0  0  0  0  0
    8.8154  -15.7713   22.0092 N   0  0  0  0  0  0  0  0  0  0  0  0
    9.5075  -16.3378   24.2496 C   0  0  0  0  0  0  0  0  0  0  0  0
    9.1840  -17.5432   24.1664 O   0  0  0  0  0  0  0  0  0  0  0  0
   10.4286  -15.9802   25.2747 N   0  0  0  0  0  0  0  0  0  0  0  0
   11.1123  -17.0142   26.0400 C   0  0  1  0  0  0  0  0  0  0  0  0
   12.0572  -16.4504   27.0333 C   0  0  0  0  0  0  0  0  0  0  0  0
   11.3373  -15.5679   27.9838 C   0  0  0  0  0  0  0  0  0  0  0  0
   11.1157  -15.9892   29.2800 C   0  0  0  0  0  0  0  0  0  0  0  0
   10.4772  -15.1850   30.1896 C   0  0  0  0  0  0  0  0  0  0  0  0
   10.0312  -13.9285   29.8521 C   0  0  0  0  0  0  0  0  0  0  0  0
   10.2560  -13.5159   28.5586 C   0  0  0  0  0  0  0  0  0  0  0  0
   10.8941  -14.3086   27.6351 C   0  0  0  0  0  0  0  0  0  0  0  0
   10.0884  -17.8392   26.7021 C   0  0  0  0  0  0  0  0  0  0  0  0
   10.4829  -18.9975   27.3996 O   0  0  0  0  0  0  0  0  0  0  0  0
    8.8470  -17.5973   26.7028 O   0  0  0  0  0  0  0  0  0  0  0  0
  2  1  1  0
  3  2  2  0
  4  3  1  0
  5 11  1  0
  5  4  2  0
  6  5  1  0
  7  6  1  0
  7  8  1  6
  9  7  1  0
  9 10  2  0
 11 12  2  0
 12  2  1  0
 13 14  1  0
 14 15  1  0
 15 16  1  0
 17 16  1  1
 17 19  1  0
 17 18  1  0
 18  9  1  0
 19 20  2  0
 21 22  1  0
 21 19  1  0
 22 30  1  0
 22 23  1  1
 24 23  1  0
 25 24  2  0
 26 25  1  0
 27 26  2  0
 27 28  1  0
 28 29  2  0
 29 24  1  0
 30 31  1  0
 32 30  2  0
M  END
$$$$
