YMF.pdb
     RDKit          3D

 32 33  0  0  1  0  0  0  0  0999 V2000
    7.9559  -14.9525   13.3767 O   0  0  0  0  0  0  0  0  0  0  0  0
    8.0725  -14.6233   14.7249 C   0  0  0  0  0  0  0  0  0  0  0  0
    9.3037  -14.6815   15.3458 C   0  0  0  0  0  0  0  0  0  0  0  0
    9.4407  -14.3569   16.6895 C   0  0  0  0  0  0  0  0  0  0  0  0
    8.3707  -13.9703   17.4433 C   0  0  0  0  0  0  0  0  0  0  0  0
    8.4640  -13.6123   18.8901 C   0  0  0  0  0  0  0  0  0  0  0  0
    8.8816  -14.8478   19.6544 C   0  0  2  0  0  0  0  0  0  0  0  0
    7.9262  -15.8937   19.3883 N   0  0  0  0  0  0  0  0  0  0  0  0
    9.0930  -14.6056   21.0832 C   0  0  0  0  0  0  0  0  0  0  0  0
    9.9338  -13.7262   21.4235 O   0  0  0  0  0  0  0  0  0  0  0  0
    7.1274  -13.9128   16.8120 C   0  0  0  0  0  0  0  0  0  0  0  0
    6.9932  -14.2354   15.4779 C   0  0  0  0  0  0  0  0  0  0  0  0
    6.1811  -11.6790   26.5012 C   0  0  0  0  0  0  0  0  0  0  0  0
    6.0202  -13.4764   26.2732 S   0  0  0  0  0  0  0  0  0  0  0  0
    7.6114  -14.1567   25.6635 C   0  0  0  0  0  0  0  0  0  0  0  0
    7.3814  -14.5784   24.2462 C   0  0  0  0  0  0  0  0  0  0  0  0
    8.6400  -15.0024   23.5289 C   0  0  2  0  0  0  0  0  0  0  0  0
    8.4280  -15.2802   22.1448 N   0  0  0  0  0  0  0  0  0  0  0  0
    9.1969  -16.1738   24.2495 C   0  0  0  0  0  0  0  0  0  0  0  0
    8.7642  -17.3384   24.1051 O   0  0  0  0  0  0  0  0  0  0  0  0
   10.2789  -15.9890   25.1564 N   0  0  0  0  0  0  0  0  0  0  0  0
   10.8789  -17.1353   25.8258 C   0  0  1  0  0  0  0  0  0  0  0  0
   11.9770  -16.7439   26.7415 C   0  0  0  0  0  0  0  0  0  0  0  0
   11.5004  -15.7256   27.7092 C   0  0  0  0  0  0  0  0  0  0  0  0
   11.3467  -16.0606   29.0399 C   0  0  0  0  0  0  0  0  0  0  0  0
   10.9340  -15.1339   29.9633 C   0  0  0  0  0  0  0  0  0  0  0  0
   10.6560  -13.8352   29.6060 C   0  0  0  0  0  0  0  0  0  0  0  0
   10.8116  -13.5091   28.2780 C   0  0  0  0  0  0  0  0  0  0  0  0
   11.2243  -14.4250   27.3403 C   0  0  0  0  0  0  0  0  0  0  0  0
    9.8140  -17.8407   26.5578 C   0  0  0  0  0  0  0  0  0  0  0  0
   10.1116  -19.0565   27.2037 O   0  0  0  0  0  0  0  0  0  0  0  0
    8.6178  -17.4442   26.6641 O   0  0  0  0  0  0  0  0  0  0  0  0
  2  1  1  0
  3  2  2  0
  4  3  1  0
  5 11  1  0
  5  4  2  0
  6  5  1  0
  7  6  1  0
  7  8  1  1
  9  7  1  0
  9 10  2  0
 11 12  2  0
 12  2  1  0
 13 14  1  0
 14 15  1  0
 15 16  1  0
 17 16  1  1
 17 19  1  0
 17 18  1  0
 18  9  1  0
 19 20  2  0
 21 22  1  0
 21 19  1  0
 22 30  1  0
 22 23  1  1
 24 23  1  0
 25 24  2  0
 26 25  1  0
 27 26  2  0
 27 28  1  0
 28 29  2  0
 29 24  1  0
 30 31  1  0
 32 30  2  0
M  END
$$$$
