YMF.pdb
     RDKit          3D

 32 33  0  0  1  0  0  0  0  0999 V2000
   10.1655  -19.8636   14.3410 O   0  0  0  0  0  0  0  0  0  0  0  0
   10.3616  -19.3593   15.6243 C   0  0  0  0  0  0  0  0  0  0  0  0
    9.4576  -19.6496   16.6259 C   0  0  0  0  0  0  0  0  0  0  0  0
    9.6357  -19.1564   17.9121 C   0  0  0  0  0  0  0  0  0  0  0  0
   10.7043  -18.3708   18.2340 C   0  0  0  0  0  0  0  0  0  0  0  0
   10.9411  -17.8149   19.5997 C   0  0  0  0  0  0  0  0  0  0  0  0
    9.9460  -16.7012   19.8332 C   0  0  2  0  0  0  0  0  0  0  0  0
   10.1295  -15.7031   18.8096 N   0  0  0  0  0  0  0  0  0  0  0  0
    9.9915  -16.1542   21.1910 C   0  0  0  0  0  0  0  0  0  0  0  0
   11.0133  -15.4970   21.5379 O   0  0  0  0  0  0  0  0  0  0  0  0
   11.6162  -18.0793   17.2185 C   0  0  0  0  0  0  0  0  0  0  0  0
   11.4378  -18.5698   15.9421 C   0  0  0  0  0  0  0  0  0  0  0  0
    6.5254  -11.7583   25.9328 C   0  0  0  0  0  0  0  0  0  0  0  0
    6.8114  -13.5488   25.7889 S   0  0  0  0  0  0  0  0  0  0  0  0
    7.4666  -13.9274   24.1173 C   0  0  0  0  0  0  0  0  0  0  0  0
    7.7185  -15.4021   24.0802 C   0  0  0  0  0  0  0  0  0  0  0  0
    9.0620  -15.7723   23.5006 C   0  0  2  0  0  0  0  0  0  0  0  0
    8.9740  -16.2956   22.1753 N   0  0  0  0  0  0  0  0  0  0  0  0
    9.7065  -16.7305   24.4322 C   0  0  0  0  0  0  0  0  0  0  0  0
    9.5009  -17.9638   24.4001 O   0  0  0  0  0  0  0  0  0  0  0  0
   10.6089  -16.2465   25.4216 N   0  0  0  0  0  0  0  0  0  0  0  0
   11.3775  -17.1806   26.2333 C   0  0  1  0  0  0  0  0  0  0  0  0
   12.3549  -16.4945   27.1115 C   0  0  0  0  0  0  0  0  0  0  0  0
   11.6608  -15.5240   27.9929 C   0  0  0  0  0  0  0  0  0  0  0  0
   11.1061  -14.3802   27.4537 C   0  0  0  0  0  0  0  0  0  0  0  0
   10.4344  -13.4776   28.2385 C   0  0  0  0  0  0  0  0  0  0  0  0
   10.2843  -13.6712   29.5918 C   0  0  0  0  0  0  0  0  0  0  0  0
   10.8397  -14.8135   30.1217 C   0  0  0  0  0  0  0  0  0  0  0  0
   11.5154  -15.7279   29.3498 C   0  0  0  0  0  0  0  0  0  0  0  0
   10.4283  -17.9765   27.0289 C   0  0  0  0  0  0  0  0  0  0  0  0
    9.0552  -17.6676   26.9737 O   0  0  0  0  0  0  0  0  0  0  0  0
   10.7409  -18.9432   27.7822 O   0  0  0  0  0  0  0  0  0  0  0  0
  2  1  1  0
  3  2  2  0
  4  3  1  0
  5 11  1  0
  5  4  2  0
  6  5  1  0
  7  6  1  0
  7  8  1  6
  9  7  1  0
  9 10  2  0
 11 12  2  0
 12  2  1  0
 13 14  1  0
 14 15  1  0
 15 16  1  0
 17 16  1  1
 17 19  1  0
 17 18  1  0
 18  9  1  0
 19 20  2  0
 21 22  1  0
 21 19  1  0
 22 30  1  0
 22 23  1  1
 24 23  1  0
 25 24  2  0
 26 25  1  0
 27 26  2  0
 27 28  1  0
 28 29  2  0
 29 24  1  0
 30 31  1  0
 32 30  2  0
M  END
$$$$
