YMF.pdb
     RDKit          3D

 32 33  0  0  1  0  0  0  0  0999 V2000
   -0.8868  -20.0970   20.3056 O   0  0  0  0  0  0  0  0  0  0  0  0
    0.4386  -19.9203   20.6951 C   0  0  0  0  0  0  0  0  0  0  0  0
    1.4225  -19.7557   19.7412 C   0  0  0  0  0  0  0  0  0  0  0  0
    2.7500  -19.5779   20.1094 C   0  0  0  0  0  0  0  0  0  0  0  0
    3.1312  -19.5590   21.4198 C   0  0  0  0  0  0  0  0  0  0  0  0
    4.5434  -19.3724   21.8681 C   0  0  0  0  0  0  0  0  0  0  0  0
    5.4108  -19.2211   20.6393 C   0  0  2  0  0  0  0  0  0  0  0  0
    5.5695  -20.5178   20.0303 N   0  0  0  0  0  0  0  0  0  0  0  0
    6.6828  -18.5452   20.9036 C   0  0  0  0  0  0  0  0  0  0  0  0
    7.7476  -19.2206   20.8243 O   0  0  0  0  0  0  0  0  0  0  0  0
    2.1335  -19.7257   22.3814 C   0  0  0  0  0  0  0  0  0  0  0  0
    0.8160  -19.9022   22.0140 C   0  0  0  0  0  0  0  0  0  0  0  0
    7.4321  -12.1992   21.9903 C   0  0  0  0  0  0  0  0  0  0  0  0
    7.5118  -12.7197   20.2493 S   0  0  0  0  0  0  0  0  0  0  0  0
    7.4819  -14.5522   20.1607 C   0  0  0  0  0  0  0  0  0  0  0  0
    8.0452  -15.0524   21.4538 C   0  0  0  0  0  0  0  0  0  0  0  0
    8.0868  -16.5578   21.5540 C   0  0  2  0  0  0  0  0  0  0  0  0
    6.8357  -17.1732   21.2477 N   0  0  0  0  0  0  0  0  0  0  0  0
    8.5557  -16.9062   22.9180 C   0  0  0  0  0  0  0  0  0  0  0  0
    8.0602  -17.8307   23.5994 O   0  0  0  0  0  0  0  0  0  0  0  0
    9.6221  -16.1660   23.5027 N   0  0  0  0  0  0  0  0  0  0  0  0
    9.3728  -15.2996   24.6469 C   0  0  1  0  0  0  0  0  0  0  0  0
    8.4126  -14.2140   24.3353 C   0  0  0  0  0  0  0  0  0  0  0  0
    8.0975  -13.4397   25.5607 C   0  0  0  0  0  0  0  0  0  0  0  0
    9.1195  -12.8844   26.3048 C   0  0  0  0  0  0  0  0  0  0  0  0
    8.8585  -12.1403   27.4273 C   0  0  0  0  0  0  0  0  0  0  0  0
    7.5724  -11.9154   27.8596 C   0  0  0  0  0  0  0  0  0  0  0  0
    6.5594  -12.4720   27.1126 C   0  0  0  0  0  0  0  0  0  0  0  0
    6.8034  -13.2197   25.9857 C   0  0  0  0  0  0  0  0  0  0  0  0
    8.8744  -16.1380   25.7496 C   0  0  0  0  0  0  0  0  0  0  0  0
    7.9876  -17.1945   25.4646 O   0  0  0  0  0  0  0  0  0  0  0  0
    9.1778  -15.9934   26.9689 O   0  0  0  0  0  0  0  0  0  0  0  0
  2  1  1  0
  3  2  2  0
  4  3  1  0
  5 11  1  0
  5  4  2  0
  6  5  1  0
  7  6  1  0
  7  8  1  1
  9  7  1  0
  9 10  2  0
 11 12  2  0
 12  2  1  0
 13 14  1  0
 14 15  1  0
 15 16  1  0
 17 16  1  1
 17 19  1  0
 17 18  1  0
 18  9  1  0
 19 20  2  0
 21 22  1  0
 21 19  1  0
 22 30  1  0
 22 23  1  6
 24 23  1  0
 25 24  2  0
 26 25  1  0
 27 26  2  0
 27 28  1  0
 28 29  2  0
 29 24  1  0
 30 31  1  0
 32 30  2  0
M  END
$$$$
