QIY.pdb
     RDKit          3D

 30 30  0  0  1  0  0  0  0  0999 V2000
    9.6186  -21.6591   21.1609 N   0  0  0  0  0  0  0  0  0  0  0  0
   10.0690  -21.7283   19.7940 C   0  0  0  0  0  0  0  0  0  0  0  0
   10.3052  -22.8516   19.2909 O   0  0  0  0  0  0  0  0  0  0  0  0
   10.2518  -20.5185   18.9850 C   0  0  0  0  0  0  0  0  0  0  0  0
    9.8801  -19.2315   19.6145 C   0  0  0  0  0  0  0  0  0  0  0  0
   10.1180  -17.9906   18.8314 C   0  0  2  0  0  0  0  0  0  0  0  0
   11.2579  -17.9947   17.9594 N   0  0  0  0  0  0  0  0  0  0  0  0
   10.1704  -16.7763   19.7248 C   0  0  0  0  0  0  0  0  0  0  0  0
   11.2961  -16.3156   20.0314 O   0  0  0  0  0  0  0  0  0  0  0  0
    6.6546  -12.5550   19.4549 C   0  0  0  0  0  0  0  0  0  0  0  0
    7.8920  -13.4029   19.6597 C   0  0  0  0  0  0  0  0  0  0  0  0
    7.8260  -14.1592   20.9675 C   0  0  2  0  0  0  0  0  0  0  0  0
    7.6706  -13.2087   22.1351 C   0  0  0  0  0  0  0  0  0  0  0  0
    8.9551  -15.1216   21.1398 C   0  0  2  0  0  0  0  0  0  0  0  0
    8.9607  -16.1921   20.1907 N   0  0  0  0  0  0  0  0  0  0  0  0
    8.9856  -15.5886   22.5399 C   0  0  0  0  0  0  0  0  0  0  0  0
    8.1529  -16.4587   22.8948 O   0  0  0  0  0  0  0  0  0  0  0  0
   10.6581  -16.1966   31.2670 O   0  0  0  0  0  0  0  0  0  0  0  0
   10.5706  -15.7944   29.9417 C   0  0  0  0  0  0  0  0  0  0  0  0
   10.6739  -16.7049   28.9133 C   0  0  0  0  0  0  0  0  0  0  0  0
   10.5830  -16.2795   27.5834 C   0  0  0  0  0  0  0  0  0  0  0  0
   10.3906  -14.9645   27.2402 C   0  0  0  0  0  0  0  0  0  0  0  0
   10.2839  -14.4661   25.8452 C   0  0  0  0  0  0  0  0  0  0  0  0
    9.8798  -15.5699   24.8910 C   0  0  2  0  0  0  0  0  0  0  0  0
    9.9008  -15.1141   23.5139 N   0  0  0  0  0  0  0  0  0  0  0  0
    8.5011  -15.9869   25.2239 C   0  0  0  0  0  0  0  0  0  0  0  0
    7.3876  -15.2148   24.8939 O   0  0  0  0  0  0  0  0  0  0  0  0
   10.2877  -14.0515   28.2981 C   0  0  0  0  0  0  0  0  0  0  0  0
   10.3775  -14.4724   29.6057 C   0  0  0  0  0  0  0  0  0  0  0  0
    8.2804  -17.0590   25.8211 O   0  0  0  0  0  0  0  0  0  0  0  0
  2  4  1  0
  2  1  1  0
  3  2  2  0
  5  6  1  0
  5  4  1  0
  6  7  1  1
  8  6  1  0
  8  9  2  0
 11 10  1  0
 12 11  1  0
 12 14  1  0
 12 13  1  1
 14 15  1  6
 15  8  1  0
 16 14  1  0
 17 16  2  0
 19 18  1  0
 19 29  2  0
 20 19  1  0
 21 20  2  0
 21 22  1  0
 22 28  2  0
 23 22  1  0
 24 25  1  0
 24 23  1  1
 25 16  1  0
 26 24  1  0
 27 26  1  0
 28 29  1  0
 30 26  2  0
M  END
$$$$
