QIY.pdb
     RDKit          3D

 30 30  0  0  1  0  0  0  0  0999 V2000
   10.0098  -21.9247   21.3895 N   0  0  0  0  0  0  0  0  0  0  0  0
    9.9533  -22.0097   19.9523 C   0  0  0  0  0  0  0  0  0  0  0  0
   10.0142  -23.1380   19.4101 O   0  0  0  0  0  0  0  0  0  0  0  0
    9.8237  -20.8103   19.1179 C   0  0  0  0  0  0  0  0  0  0  0  0
    9.7400  -19.5118   19.8233 C   0  0  0  0  0  0  0  0  0  0  0  0
    9.5557  -18.2915   18.9947 C   0  0  2  0  0  0  0  0  0  0  0  0
   10.3504  -18.2029   17.8029 N   0  0  0  0  0  0  0  0  0  0  0  0
    9.7327  -17.0371   19.8136 C   0  0  0  0  0  0  0  0  0  0  0  0
   10.8972  -16.7011   20.1369 O   0  0  0  0  0  0  0  0  0  0  0  0
    6.5915  -12.5363   19.1945 C   0  0  0  0  0  0  0  0  0  0  0  0
    7.7627  -13.4580   19.4611 C   0  0  0  0  0  0  0  0  0  0  0  0
    7.6533  -14.0998   20.8260 C   0  0  2  0  0  0  0  0  0  0  0  0
    7.6063  -13.0502   21.9154 C   0  0  0  0  0  0  0  0  0  0  0  0
    8.6940  -15.1448   21.0617 C   0  0  2  0  0  0  0  0  0  0  0  0
    8.5924  -16.2773   20.1933 N   0  0  0  0  0  0  0  0  0  0  0  0
    8.6999  -15.5103   22.4920 C   0  0  0  0  0  0  0  0  0  0  0  0
    7.8226  -16.3077   22.9056 O   0  0  0  0  0  0  0  0  0  0  0  0
   10.6951  -16.3550   31.0645 O   0  0  0  0  0  0  0  0  0  0  0  0
   10.6775  -15.9161   29.7480 C   0  0  0  0  0  0  0  0  0  0  0  0
   10.3339  -14.6196   29.4345 C   0  0  0  0  0  0  0  0  0  0  0  0
   10.3222  -14.1963   28.1009 C   0  0  0  0  0  0  0  0  0  0  0  0
   10.6445  -15.0294   27.0588 C   0  0  0  0  0  0  0  0  0  0  0  0
   10.6502  -14.6254   25.6296 C   0  0  0  0  0  0  0  0  0  0  0  0
    9.5897  -15.3632   24.8402 C   0  0  2  0  0  0  0  0  0  0  0  0
    9.6386  -15.0150   23.4328 N   0  0  0  0  0  0  0  0  0  0  0  0
    8.2655  -14.9763   25.3713 C   0  0  0  0  0  0  0  0  0  0  0  0
    7.5622  -15.7721   26.2753 O   0  0  0  0  0  0  0  0  0  0  0  0
   10.9914  -16.3447   27.3949 C   0  0  0  0  0  0  0  0  0  0  0  0
   11.0023  -16.7589   28.7078 C   0  0  0  0  0  0  0  0  0  0  0  0
    7.7207  -13.9094   25.0249 O   0  0  0  0  0  0  0  0  0  0  0  0
  2  4  1  0
  2  1  1  0
  3  2  2  0
  5  6  1  0
  5  4  1  0
  6  7  1  6
  8  6  1  0
  8  9  2  0
 11 10  1  0
 12 11  1  0
 12 14  1  0
 12 13  1  1
 14 15  1  6
 15  8  1  0
 16 14  1  0
 17 16  2  0
 19 18  1  0
 19 29  2  0
 20 19  1  0
 21 20  2  0
 21 22  1  0
 22 28  2  0
 23 22  1  0
 24 25  1  0
 24 23  1  1
 25 16  1  0
 26 24  1  0
 27 26  1  0
 28 29  1  0
 30 26  2  0
M  END
$$$$
