QIY.pdb
     RDKit          3D

 30 30  0  0  1  0  0  0  0  0999 V2000
    8.1872  -20.1333   14.6288 N   0  0  0  0  0  0  0  0  0  0  0  0
    7.8519  -19.9390   16.0165 C   0  0  0  0  0  0  0  0  0  0  0  0
    6.7577  -19.4003   16.3049 O   0  0  0  0  0  0  0  0  0  0  0  0
    8.7584  -20.3594   17.0904 C   0  0  0  0  0  0  0  0  0  0  0  0
    9.0185  -19.3780   18.1674 C   0  0  0  0  0  0  0  0  0  0  0  0
    9.6240  -18.0772   17.7787 C   0  0  2  0  0  0  0  0  0  0  0  0
   10.8044  -18.1402   16.9649 N   0  0  0  0  0  0  0  0  0  0  0  0
    9.8877  -17.2096   18.9841 C   0  0  0  0  0  0  0  0  0  0  0  0
   11.0109  -17.2903   19.5367 O   0  0  0  0  0  0  0  0  0  0  0  0
    7.0523  -12.4088   19.6984 C   0  0  0  0  0  0  0  0  0  0  0  0
    8.1515  -13.4464   19.6138 C   0  0  0  0  0  0  0  0  0  0  0  0
    8.0750  -14.4191   20.7691 C   0  0  2  0  0  0  0  0  0  0  0  0
    8.1770  -13.6946   22.0941 C   0  0  0  0  0  0  0  0  0  0  0  0
    9.0425  -15.5497   20.6418 C   0  0  2  0  0  0  0  0  0  0  0  0
    8.8721  -16.3344   19.4577 N   0  0  0  0  0  0  0  0  0  0  0  0
    9.0143  -16.3545   21.8791 C   0  0  0  0  0  0  0  0  0  0  0  0
    8.0859  -17.1872   22.0258 O   0  0  0  0  0  0  0  0  0  0  0  0
   15.8565  -17.9427   21.7454 O   0  0  0  0  0  0  0  0  0  0  0  0
   14.5769  -18.0654   22.2684 C   0  0  0  0  0  0  0  0  0  0  0  0
   14.3629  -18.0842   23.6290 C   0  0  0  0  0  0  0  0  0  0  0  0
   13.0649  -18.2087   24.1366 C   0  0  0  0  0  0  0  0  0  0  0  0
   11.9621  -18.3159   23.3265 C   0  0  0  0  0  0  0  0  0  0  0  0
   10.5667  -18.4457   23.8180 C   0  0  0  0  0  0  0  0  0  0  0  0
    9.9478  -17.0921   24.0954 C   0  0  2  0  0  0  0  0  0  0  0  0
    9.9744  -16.2459   22.9173 N   0  0  0  0  0  0  0  0  0  0  0  0
   10.7337  -16.4343   25.1607 C   0  0  0  0  0  0  0  0  0  0  0  0
   10.9054  -17.0043   26.4219 O   0  0  0  0  0  0  0  0  0  0  0  0
   12.1974  -18.2950   21.9454 C   0  0  0  0  0  0  0  0  0  0  0  0
   13.4752  -18.1726   21.4481 C   0  0  0  0  0  0  0  0  0  0  0  0
   11.2790  -15.3295   24.9682 O   0  0  0  0  0  0  0  0  0  0  0  0
  2  4  1  0
  2  1  1  0
  3  2  2  0
  5  6  1  0
  5  4  1  0
  6  7  1  1
  8  6  1  0
  8  9  2  0
 11 10  1  0
 12 11  1  0
 12 14  1  0
 12 13  1  1
 14 15  1  6
 15  8  1  0
 16 14  1  0
 17 16  2  0
 19 18  1  0
 19 29  2  0
 20 19  1  0
 21 20  2  0
 21 22  1  0
 22 28  2  0
 23 22  1  0
 24 25  1  0
 24 23  1  6
 25 16  1  0
 26 24  1  0
 27 26  1  0
 28 29  1  0
 30 26  2  0
M  END
$$$$
