QIY.pdb
     RDKit          3D

 30 30  0  0  1  0  0  0  0  0999 V2000
   11.1759  -17.7659   15.2997 N   0  0  0  0  0  0  0  0  0  0  0  0
   10.2193  -18.7889   15.6378 C   0  0  0  0  0  0  0  0  0  0  0  0
    9.7783  -19.5294   14.7280 O   0  0  0  0  0  0  0  0  0  0  0  0
    9.7576  -18.9811   17.0168 C   0  0  0  0  0  0  0  0  0  0  0  0
   10.2908  -18.0493   18.0356 C   0  0  0  0  0  0  0  0  0  0  0  0
    9.7741  -18.1809   19.4232 C   0  0  2  0  0  0  0  0  0  0  0  0
    8.4128  -18.6147   19.5591 N   0  0  0  0  0  0  0  0  0  0  0  0
    9.9801  -16.9112   20.2112 C   0  0  0  0  0  0  0  0  0  0  0  0
   11.1267  -16.4028   20.2247 O   0  0  0  0  0  0  0  0  0  0  0  0
    6.2213  -13.1062   19.7443 C   0  0  0  0  0  0  0  0  0  0  0  0
    7.5104  -13.8842   19.9022 C   0  0  0  0  0  0  0  0  0  0  0  0
    7.7974  -14.1766   21.3579 C   0  0  2  0  0  0  0  0  0  0  0  0
    7.8646  -12.8973   22.1638 C   0  0  0  0  0  0  0  0  0  0  0  0
    8.9898  -15.0552   21.5499 C   0  0  2  0  0  0  0  0  0  0  0  0
    8.8860  -16.3301   20.9089 N   0  0  0  0  0  0  0  0  0  0  0  0
    9.2928  -15.1545   22.9913 C   0  0  0  0  0  0  0  0  0  0  0  0
    9.8703  -14.1871   23.5456 O   0  0  0  0  0  0  0  0  0  0  0  0
    7.3944  -10.7148   27.2232 O   0  0  0  0  0  0  0  0  0  0  0  0
    7.5882  -12.0630   26.9568 C   0  0  0  0  0  0  0  0  0  0  0  0
    6.5385  -12.8726   26.5825 C   0  0  0  0  0  0  0  0  0  0  0  0
    6.7545  -14.2296   26.3181 C   0  0  0  0  0  0  0  0  0  0  0  0
    7.9932  -14.8128   26.4149 C   0  0  0  0  0  0  0  0  0  0  0  0
    8.2721  -16.2456   26.1409 C   0  0  0  0  0  0  0  0  0  0  0  0
    9.4190  -16.4113   25.1666 C   0  0  2  0  0  0  0  0  0  0  0  0
    8.9709  -16.2791   23.7932 N   0  0  0  0  0  0  0  0  0  0  0  0
    9.9850  -17.7652   25.3450 C   0  0  0  0  0  0  0  0  0  0  0  0
   10.5497  -18.1856   26.5490 O   0  0  0  0  0  0  0  0  0  0  0  0
    9.0497  -13.9754   26.7968 C   0  0  0  0  0  0  0  0  0  0  0  0
    8.8349  -12.6407   27.0564 C   0  0  0  0  0  0  0  0  0  0  0  0
    9.9789  -18.5925   24.4120 O   0  0  0  0  0  0  0  0  0  0  0  0
  2  4  1  0
  2  1  1  0
  3  2  2  0
  5  6  1  0
  5  4  1  0
  6  7  1  6
  8  6  1  0
  8  9  2  0
 11 10  1  0
 12 11  1  0
 12 14  1  0
 12 13  1  1
 14 15  1  1
 15  8  1  0
 16 14  1  0
 17 16  2  0
 19 18  1  0
 19 29  2  0
 20 19  1  0
 21 20  2  0
 21 22  1  0
 22 28  2  0
 23 22  1  0
 24 25  1  0
 24 23  1  1
 25 16  1  0
 26 24  1  0
 27 26  1  0
 28 29  1  0
 30 26  2  0
M  END
$$$$
