QIY.pdb
     RDKit          3D

 30 30  0  0  1  0  0  0  0  0999 V2000
    7.0805  -20.4060   21.3620 N   0  0  0  0  0  0  0  0  0  0  0  0
    7.4400  -19.7738   20.1182 C   0  0  0  0  0  0  0  0  0  0  0  0
    8.0663  -20.4390   19.2603 O   0  0  0  0  0  0  0  0  0  0  0  0
    7.0869  -18.3780   19.8375 C   0  0  0  0  0  0  0  0  0  0  0  0
    7.5248  -17.3667   20.8256 C   0  0  0  0  0  0  0  0  0  0  0  0
    7.1633  -15.9490   20.5626 C   0  0  2  0  0  0  0  0  0  0  0  0
    7.3439  -15.4831   19.2172 N   0  0  0  0  0  0  0  0  0  0  0  0
    7.8631  -15.0150   21.5182 C   0  0  0  0  0  0  0  0  0  0  0  0
    8.9321  -14.4766   21.1429 O   0  0  0  0  0  0  0  0  0  0  0  0
    6.9407  -11.4808   26.4401 C   0  0  0  0  0  0  0  0  0  0  0  0
    7.7757  -11.9273   25.2588 C   0  0  0  0  0  0  0  0  0  0  0  0
    7.0360  -12.9455   24.4204 C   0  0  2  0  0  0  0  0  0  0  0  0
    5.9305  -13.6029   25.2181 C   0  0  0  0  0  0  0  0  0  0  0  0
    7.9477  -13.9272   23.7603 C   0  0  2  0  0  0  0  0  0  0  0  0
    7.3026  -14.7712   22.8020 N   0  0  0  0  0  0  0  0  0  0  0  0
    8.6807  -14.6816   24.7961 C   0  0  0  0  0  0  0  0  0  0  0  0
    8.0707  -15.5876   25.4155 O   0  0  0  0  0  0  0  0  0  0  0  0
   12.1562  -17.8155   31.8898 O   0  0  0  0  0  0  0  0  0  0  0  0
   11.5583  -17.1931   30.8030 C   0  0  0  0  0  0  0  0  0  0  0  0
   11.5971  -15.8240   30.6568 C   0  0  0  0  0  0  0  0  0  0  0  0
   10.9881  -15.2153   29.5539 C   0  0  0  0  0  0  0  0  0  0  0  0
   10.3353  -15.9318   28.5820 C   0  0  0  0  0  0  0  0  0  0  0  0
    9.6782  -15.3318   27.3929 C   0  0  0  0  0  0  0  0  0  0  0  0
   10.6729  -15.0711   26.2817 C   0  0  2  0  0  0  0  0  0  0  0  0
   10.0371  -14.4463   25.1372 N   0  0  0  0  0  0  0  0  0  0  0  0
   11.2365  -16.3685   25.8523 C   0  0  0  0  0  0  0  0  0  0  0  0
   10.4533  -17.5145   25.7168 O   0  0  0  0  0  0  0  0  0  0  0  0
   10.3050  -17.3231   28.7459 C   0  0  0  0  0  0  0  0  0  0  0  0
   10.9048  -17.9197   29.8319 C   0  0  0  0  0  0  0  0  0  0  0  0
   12.4504  -16.4876   25.5926 O   0  0  0  0  0  0  0  0  0  0  0  0
  2  4  1  0
  2  1  1  0
  3  2  2  0
  5  6  1  0
  5  4  1  0
  6  7  1  6
  8  6  1  0
  8  9  2  0
 11 10  1  0
 12 11  1  0
 12 14  1  0
 12 13  1  1
 14 15  1  1
 15  8  1  0
 16 14  1  0
 17 16  2  0
 19 18  1  0
 19 29  2  0
 20 19  1  0
 21 20  2  0
 21 22  1  0
 22 28  2  0
 23 22  1  0
 24 25  1  0
 24 23  1  1
 25 16  1  0
 26 24  1  0
 27 26  1  0
 28 29  1  0
 30 26  2  0
M  END
$$$$
