QIY.pdb
     RDKit          3D

 30 30  0  0  1  0  0  0  0  0999 V2000
   12.3669  -15.6429   15.9340 N   0  0  0  0  0  0  0  0  0  0  0  0
   11.0148  -16.0385   15.6316 C   0  0  0  0  0  0  0  0  0  0  0  0
   10.3915  -15.4256   14.7336 O   0  0  0  0  0  0  0  0  0  0  0  0
   10.3598  -17.1387   16.3472 C   0  0  0  0  0  0  0  0  0  0  0  0
   11.1666  -17.8466   17.3664 C   0  0  0  0  0  0  0  0  0  0  0  0
   10.5519  -18.0567   18.7035 C   0  0  2  0  0  0  0  0  0  0  0  0
    9.2847  -18.7299   18.7250 N   0  0  0  0  0  0  0  0  0  0  0  0
   10.4492  -16.7630   19.4725 C   0  0  0  0  0  0  0  0  0  0  0  0
   11.4735  -16.0445   19.5610 O   0  0  0  0  0  0  0  0  0  0  0  0
    6.8891  -12.8430   18.9242 C   0  0  0  0  0  0  0  0  0  0  0  0
    8.1201  -13.6520   19.2739 C   0  0  0  0  0  0  0  0  0  0  0  0
    7.9519  -14.3572   20.6009 C   0  0  2  0  0  0  0  0  0  0  0  0
    7.6364  -13.3688   21.7029 C   0  0  0  0  0  0  0  0  0  0  0  0
    9.0972  -15.2576   20.9297 C   0  0  2  0  0  0  0  0  0  0  0  0
    9.2123  -16.3951   20.0695 N   0  0  0  0  0  0  0  0  0  0  0  0
    9.0371  -15.6170   22.3603 C   0  0  0  0  0  0  0  0  0  0  0  0
    8.2769  -16.5545   22.7065 O   0  0  0  0  0  0  0  0  0  0  0  0
   10.5839  -16.2765   31.0296 O   0  0  0  0  0  0  0  0  0  0  0  0
   10.5163  -15.7859   29.7331 C   0  0  0  0  0  0  0  0  0  0  0  0
   10.0643  -14.5101   29.4775 C   0  0  0  0  0  0  0  0  0  0  0  0
   10.0036  -14.0340   28.1632 C   0  0  0  0  0  0  0  0  0  0  0  0
   10.3820  -14.7934   27.0843 C   0  0  0  0  0  0  0  0  0  0  0  0
   10.3393  -14.3310   25.6736 C   0  0  0  0  0  0  0  0  0  0  0  0
    9.7508  -15.3863   24.7613 C   0  0  2  0  0  0  0  0  0  0  0  0
    9.7877  -14.9670   23.3731 N   0  0  0  0  0  0  0  0  0  0  0  0
    8.3397  -15.5969   25.1483 C   0  0  0  0  0  0  0  0  0  0  0  0
    7.2874  -14.9223   24.5297 O   0  0  0  0  0  0  0  0  0  0  0  0
   10.8392  -16.0886   27.3618 C   0  0  0  0  0  0  0  0  0  0  0  0
   10.8979  -16.5550   28.6557 C   0  0  0  0  0  0  0  0  0  0  0  0
    8.0343  -16.3963   26.0553 O   0  0  0  0  0  0  0  0  0  0  0  0
  2  4  1  0
  2  1  1  0
  3  2  2  0
  5  6  1  0
  5  4  1  0
  6  7  1  6
  8  6  1  0
  8  9  2  0
 11 10  1  0
 12 11  1  0
 12 14  1  0
 12 13  1  1
 14 15  1  6
 15  8  1  0
 16 14  1  0
 17 16  2  0
 19 18  1  0
 19 29  2  0
 20 19  1  0
 21 20  2  0
 21 22  1  0
 22 28  2  0
 23 22  1  0
 24 25  1  0
 24 23  1  1
 25 16  1  0
 26 24  1  0
 27 26  1  0
 28 29  1  0
 30 26  2  0
M  END
$$$$
