QIY.pdb
     RDKit          3D

 30 30  0  0  1  0  0  0  0  0999 V2000
    5.7007  -18.3244   18.2050 N   0  0  0  0  0  0  0  0  0  0  0  0
    6.6162  -19.2539   18.8164 C   0  0  0  0  0  0  0  0  0  0  0  0
    6.4231  -20.4827   18.6634 O   0  0  0  0  0  0  0  0  0  0  0  0
    7.7634  -18.7930   19.6059 C   0  0  0  0  0  0  0  0  0  0  0  0
    7.4905  -17.7850   20.6549 C   0  0  0  0  0  0  0  0  0  0  0  0
    7.8117  -16.3672   20.3442 C   0  0  2  0  0  0  0  0  0  0  0  0
    8.5609  -16.1307   19.1432 N   0  0  0  0  0  0  0  0  0  0  0  0
    8.4936  -15.6889   21.5062 C   0  0  0  0  0  0  0  0  0  0  0  0
    9.7474  -15.6540   21.5178 O   0  0  0  0  0  0  0  0  0  0  0  0
    7.0237  -12.0444   26.3624 C   0  0  0  0  0  0  0  0  0  0  0  0
    8.0314  -12.8287   25.5491 C   0  0  0  0  0  0  0  0  0  0  0  0
    7.3470  -13.6713   24.4963 C   0  0  2  0  0  0  0  0  0  0  0  0
    6.2550  -14.5214   25.1092 C   0  0  0  0  0  0  0  0  0  0  0  0
    8.3080  -14.4581   23.6667 C   0  0  2  0  0  0  0  0  0  0  0  0
    7.7105  -15.1143   22.5445 N   0  0  0  0  0  0  0  0  0  0  0  0
    9.0641  -15.3772   24.5401 C   0  0  0  0  0  0  0  0  0  0  0  0
    8.4359  -16.2946   25.1236 O   0  0  0  0  0  0  0  0  0  0  0  0
   10.9159  -14.4166   31.6858 O   0  0  0  0  0  0  0  0  0  0  0  0
   10.7730  -15.0390   30.4536 C   0  0  0  0  0  0  0  0  0  0  0  0
   11.2067  -16.3311   30.2543 C   0  0  0  0  0  0  0  0  0  0  0  0
   11.0536  -16.9412   29.0044 C   0  0  0  0  0  0  0  0  0  0  0  0
   10.4772  -16.3011   27.9358 C   0  0  0  0  0  0  0  0  0  0  0  0
   10.2895  -16.9076   26.5932 C   0  0  0  0  0  0  0  0  0  0  0  0
   11.1872  -16.2589   25.5610 C   0  0  2  0  0  0  0  0  0  0  0  0
   10.4620  -15.2888   24.7626 N   0  0  0  0  0  0  0  0  0  0  0  0
   11.6968  -17.3161   24.6620 C   0  0  0  0  0  0  0  0  0  0  0  0
   11.2525  -17.4562   23.3475 O   0  0  0  0  0  0  0  0  0  0  0  0
   10.0416  -14.9875   28.1554 C   0  0  0  0  0  0  0  0  0  0  0  0
   10.1933  -14.3893   29.3860 C   0  0  0  0  0  0  0  0  0  0  0  0
   12.5541  -18.1334   25.0520 O   0  0  0  0  0  0  0  0  0  0  0  0
  2  4  1  0
  2  1  1  0
  3  2  2  0
  5  6  1  0
  5  4  1  0
  6  7  1  6
  8  6  1  0
  8  9  2  0
 11 10  1  0
 12 11  1  0
 12 14  1  0
 12 13  1  1
 14 15  1  6
 15  8  1  0
 16 14  1  0
 17 16  2  0
 19 18  1  0
 19 29  2  0
 20 19  1  0
 21 20  2  0
 21 22  1  0
 22 28  2  0
 23 22  1  0
 24 25  1  0
 24 23  1  1
 25 16  1  0
 26 24  1  0
 27 26  1  0
 28 29  1  0
 30 26  2  0
M  END
$$$$
