QIY.pdb
     RDKit          3D

 30 30  0  0  1  0  0  0  0  0999 V2000
   10.6727  -17.7129   14.6215 N   0  0  0  0  0  0  0  0  0  0  0  0
   11.7926  -18.3991   15.2140 C   0  0  0  0  0  0  0  0  0  0  0  0
   12.3498  -19.3175   14.5685 O   0  0  0  0  0  0  0  0  0  0  0  0
   12.2914  -18.0437   16.5469 C   0  0  0  0  0  0  0  0  0  0  0  0
   11.4679  -17.1032   17.3394 C   0  0  0  0  0  0  0  0  0  0  0  0
   10.6720  -17.6660   18.4617 C   0  0  2  0  0  0  0  0  0  0  0  0
    9.4270  -18.2886   18.1122 N   0  0  0  0  0  0  0  0  0  0  0  0
   10.4371  -16.6384   19.5407 C   0  0  0  0  0  0  0  0  0  0  0  0
   11.4369  -16.0908   20.0639 O   0  0  0  0  0  0  0  0  0  0  0  0
    7.0852  -12.7491   18.9901 C   0  0  0  0  0  0  0  0  0  0  0  0
    8.2369  -13.6125   19.4596 C   0  0  0  0  0  0  0  0  0  0  0  0
    7.8845  -14.3486   20.7327 C   0  0  2  0  0  0  0  0  0  0  0  0
    7.7031  -13.3828   21.8838 C   0  0  0  0  0  0  0  0  0  0  0  0
    8.8327  -15.4603   21.0425 C   0  0  2  0  0  0  0  0  0  0  0  0
    9.1078  -16.3203   19.9327 N   0  0  0  0  0  0  0  0  0  0  0  0
    8.3547  -16.1880   22.2347 C   0  0  0  0  0  0  0  0  0  0  0  0
    7.2890  -16.8455   22.1424 O   0  0  0  0  0  0  0  0  0  0  0  0
    6.0000  -11.4876   28.9952 O   0  0  0  0  0  0  0  0  0  0  0  0
    6.5273  -12.1290   27.8832 C   0  0  0  0  0  0  0  0  0  0  0  0
    7.8004  -12.6544   27.9016 C   0  0  0  0  0  0  0  0  0  0  0  0
    8.3141  -13.2974   26.7700 C   0  0  0  0  0  0  0  0  0  0  0  0
    7.5948  -13.4362   25.6092 C   0  0  0  0  0  0  0  0  0  0  0  0
    8.0950  -14.1131   24.3855 C   0  0  0  0  0  0  0  0  0  0  0  0
    8.4805  -15.5503   24.6647 C   0  0  2  0  0  0  0  0  0  0  0  0
    9.0269  -16.1913   23.4836 N   0  0  0  0  0  0  0  0  0  0  0  0
    7.2641  -16.2840   25.0738 C   0  0  0  0  0  0  0  0  0  0  0  0
    7.1727  -16.9575   26.2916 O   0  0  0  0  0  0  0  0  0  0  0  0
    6.3019  -12.8962   25.6073 C   0  0  0  0  0  0  0  0  0  0  0  0
    5.7987  -12.2639   26.7218 C   0  0  0  0  0  0  0  0  0  0  0  0
    6.2612  -16.3288   24.3340 O   0  0  0  0  0  0  0  0  0  0  0  0
  2  4  1  0
  2  1  1  0
  3  2  2  0
  5  6  1  0
  5  4  1  0
  6  7  1  6
  8  6  1  0
  8  9  2  0
 11 10  1  0
 12 11  1  0
 12 14  1  0
 12 13  1  1
 14 15  1  6
 15  8  1  0
 16 14  1  0
 17 16  2  0
 19 18  1  0
 19 29  2  0
 20 19  1  0
 21 20  2  0
 21 22  1  0
 22 28  2  0
 23 22  1  0
 24 25  1  0
 24 23  1  6
 25 16  1  0
 26 24  1  0
 27 26  1  0
 28 29  1  0
 30 26  2  0
M  END
$$$$
