QIY.pdb
     RDKit          3D

 30 30  0  0  1  0  0  0  0  0999 V2000
    4.1848  -21.0452   23.9635 N   0  0  0  0  0  0  0  0  0  0  0  0
    5.5963  -20.8529   24.1796 C   0  0  0  0  0  0  0  0  0  0  0  0
    6.1837  -21.5745   25.0192 O   0  0  0  0  0  0  0  0  0  0  0  0
    6.3541  -19.8387   23.4388 C   0  0  0  0  0  0  0  0  0  0  0  0
    5.5866  -18.9749   22.5138 C   0  0  0  0  0  0  0  0  0  0  0  0
    6.1751  -18.7105   21.1746 C   0  0  2  0  0  0  0  0  0  0  0  0
    6.6626  -19.8523   20.4547 N   0  0  0  0  0  0  0  0  0  0  0  0
    7.2547  -17.6593   21.2444 C   0  0  0  0  0  0  0  0  0  0  0  0
    8.4436  -18.0398   21.3681 O   0  0  0  0  0  0  0  0  0  0  0  0
    6.4314  -12.6888   18.8306 C   0  0  0  0  0  0  0  0  0  0  0  0
    6.9884  -14.0135   19.3071 C   0  0  0  0  0  0  0  0  0  0  0  0
    7.4471  -13.9279   20.7454 C   0  0  2  0  0  0  0  0  0  0  0  0
    8.4845  -12.8395   20.9188 C   0  0  0  0  0  0  0  0  0  0  0  0
    7.8814  -15.2465   21.2963 C   0  0  2  0  0  0  0  0  0  0  0  0
    6.9039  -16.2835   21.1695 N   0  0  0  0  0  0  0  0  0  0  0  0
    8.3535  -15.0617   22.6827 C   0  0  0  0  0  0  0  0  0  0  0  0
    7.5713  -14.5356   23.5122 O   0  0  0  0  0  0  0  0  0  0  0  0
   10.8061  -15.0110   30.8623 O   0  0  0  0  0  0  0  0  0  0  0  0
   10.4106  -15.2612   29.5558 C   0  0  0  0  0  0  0  0  0  0  0  0
   10.4573  -16.5331   29.0292 C   0  0  0  0  0  0  0  0  0  0  0  0
   10.0541  -16.7648   27.7095 C   0  0  0  0  0  0  0  0  0  0  0  0
    9.6013  -15.7622   26.8887 C   0  0  0  0  0  0  0  0  0  0  0  0
    9.1593  -15.9596   25.4847 C   0  0  0  0  0  0  0  0  0  0  0  0
   10.0723  -15.2463   24.5101 C   0  0  2  0  0  0  0  0  0  0  0  0
    9.6412  -15.4430   23.1390 N   0  0  0  0  0  0  0  0  0  0  0  0
   11.4326  -15.8061   24.6568 C   0  0  0  0  0  0  0  0  0  0  0  0
   12.3729  -15.2631   25.5320 O   0  0  0  0  0  0  0  0  0  0  0  0
    9.5601  -14.4746   27.4399 C   0  0  0  0  0  0  0  0  0  0  0  0
    9.9574  -14.2490   28.7385 C   0  0  0  0  0  0  0  0  0  0  0  0
   11.7945  -16.7980   23.9933 O   0  0  0  0  0  0  0  0  0  0  0  0
  2  4  1  0
  2  1  1  0
  3  2  2  0
  5  6  1  0
  5  4  1  0
  6  7  1  1
  8  6  1  0
  8  9  2  0
 11 10  1  0
 12 11  1  0
 12 14  1  0
 12 13  1  6
 14 15  1  1
 15  8  1  0
 16 14  1  0
 17 16  2  0
 19 18  1  0
 19 29  2  0
 20 19  1  0
 21 20  2  0
 21 22  1  0
 22 28  2  0
 23 22  1  0
 24 25  1  0
 24 23  1  1
 25 16  1  0
 26 24  1  0
 27 26  1  0
 28 29  1  0
 30 26  2  0
M  END
$$$$
