QIY.pdb
     RDKit          3D

 30 30  0  0  1  0  0  0  0  0999 V2000
    5.9181  -20.7568   25.3016 N   0  0  0  0  0  0  0  0  0  0  0  0
    6.5199  -20.7433   23.9924 C   0  0  0  0  0  0  0  0  0  0  0  0
    7.1407  -21.7594   23.6014 O   0  0  0  0  0  0  0  0  0  0  0  0
    6.4179  -19.5731   23.1138 C   0  0  0  0  0  0  0  0  0  0  0  0
    5.8288  -18.3479   23.6990 C   0  0  0  0  0  0  0  0  0  0  0  0
    5.7607  -17.1395   22.8359 C   0  0  2  0  0  0  0  0  0  0  0  0
    5.7497  -17.3669   21.4189 N   0  0  0  0  0  0  0  0  0  0  0  0
    6.8494  -16.1538   23.1803 C   0  0  0  0  0  0  0  0  0  0  0  0
    7.8628  -16.1100   22.4425 O   0  0  0  0  0  0  0  0  0  0  0  0
    5.4326  -11.9350   26.5225 C   0  0  0  0  0  0  0  0  0  0  0  0
    5.9910  -12.7284   25.3603 C   0  0  0  0  0  0  0  0  0  0  0  0
    7.2965  -13.3955   25.7310 C   0  0  2  0  0  0  0  0  0  0  0  0
    8.3614  -12.3657   26.0412 C   0  0  0  0  0  0  0  0  0  0  0  0
    7.7357  -14.4107   24.7275 C   0  0  2  0  0  0  0  0  0  0  0  0
    6.7025  -15.3108   24.3159 N   0  0  0  0  0  0  0  0  0  0  0  0
    8.9393  -15.1016   25.2306 C   0  0  0  0  0  0  0  0  0  0  0  0
    8.8135  -15.8796   26.2081 O   0  0  0  0  0  0  0  0  0  0  0  0
   11.0258  -15.6810   31.4701 O   0  0  0  0  0  0  0  0  0  0  0  0
   11.0026  -16.0074   30.1214 C   0  0  0  0  0  0  0  0  0  0  0  0
   10.9459  -17.3199   29.7075 C   0  0  0  0  0  0  0  0  0  0  0  0
   10.9233  -17.6284   28.3429 C   0  0  0  0  0  0  0  0  0  0  0  0
   10.9556  -16.6638   27.3671 C   0  0  0  0  0  0  0  0  0  0  0  0
   10.9296  -16.9416   25.9083 C   0  0  0  0  0  0  0  0  0  0  0  0
   11.3703  -15.7359   25.1059 C   0  0  2  0  0  0  0  0  0  0  0  0
   10.2351  -14.9411   24.6767 N   0  0  0  0  0  0  0  0  0  0  0  0
   12.0849  -16.2165   23.9043 C   0  0  0  0  0  0  0  0  0  0  0  0
   11.6482  -15.9291   22.6113 O   0  0  0  0  0  0  0  0  0  0  0  0
   11.0133  -15.3340   27.8050 C   0  0  0  0  0  0  0  0  0  0  0  0
   11.0354  -15.0329   29.1481 C   0  0  0  0  0  0  0  0  0  0  0  0
   13.1185  -16.9068   24.0043 O   0  0  0  0  0  0  0  0  0  0  0  0
  2  4  1  0
  2  1  1  0
  3  2  2  0
  5  6  1  0
  5  4  1  0
  6  7  1  6
  8  6  1  0
  8  9  2  0
 11 10  1  0
 12 11  1  0
 12 14  1  0
 12 13  1  6
 14 15  1  1
 15  8  1  0
 16 14  1  0
 17 16  2  0
 19 18  1  0
 19 29  2  0
 20 19  1  0
 21 20  2  0
 21 22  1  0
 22 28  2  0
 23 22  1  0
 24 25  1  0
 24 23  1  6
 25 16  1  0
 26 24  1  0
 27 26  1  0
 28 29  1  0
 30 26  2  0
M  END
$$$$
