QIY.pdb
     RDKit          3D

 30 30  0  0  1  0  0  0  0  0999 V2000
    6.0835  -19.5710   21.7207 N   0  0  0  0  0  0  0  0  0  0  0  0
    6.2425  -18.9305   20.4398 C   0  0  0  0  0  0  0  0  0  0  0  0
    5.9714  -19.5781   19.4017 O   0  0  0  0  0  0  0  0  0  0  0  0
    6.7092  -17.5443   20.3285 C   0  0  0  0  0  0  0  0  0  0  0  0
    6.9422  -16.8144   21.5949 C   0  0  0  0  0  0  0  0  0  0  0  0
    7.4127  -15.4075   21.4993 C   0  0  2  0  0  0  0  0  0  0  0  0
    8.1644  -15.0640   20.3260 N   0  0  0  0  0  0  0  0  0  0  0  0
    8.1834  -14.9989   22.7299 C   0  0  0  0  0  0  0  0  0  0  0  0
    9.4338  -15.0954   22.7040 O   0  0  0  0  0  0  0  0  0  0  0  0
    5.8731  -11.3373   26.2299 C   0  0  0  0  0  0  0  0  0  0  0  0
    6.8559  -12.0692   25.3409 C   0  0  0  0  0  0  0  0  0  0  0  0
    7.3704  -13.3232   26.0113 C   0  0  2  0  0  0  0  0  0  0  0  0
    8.1055  -12.9898   27.2916 C   0  0  0  0  0  0  0  0  0  0  0  0
    8.1610  -14.1924   25.0893 C   0  0  2  0  0  0  0  0  0  0  0  0
    7.4844  -14.5216   23.8724 N   0  0  0  0  0  0  0  0  0  0  0  0
    8.6348  -15.3795   25.8280 C   0  0  0  0  0  0  0  0  0  0  0  0
    7.7826  -16.2110   26.2267 O   0  0  0  0  0  0  0  0  0  0  0  0
   13.4862  -21.9480   29.1733 O   0  0  0  0  0  0  0  0  0  0  0  0
   13.0908  -20.7983   28.5041 C   0  0  0  0  0  0  0  0  0  0  0  0
   13.6498  -19.5747   28.8000 C   0  0  0  0  0  0  0  0  0  0  0  0
   13.2376  -18.4270   28.1139 C   0  0  0  0  0  0  0  0  0  0  0  0
   12.2779  -18.4576   27.1331 C   0  0  0  0  0  0  0  0  0  0  0  0
   11.8110  -17.2686   26.3755 C   0  0  0  0  0  0  0  0  0  0  0  0
   10.4313  -16.8331   26.8214 C   0  0  2  0  0  0  0  0  0  0  0  0
    9.9984  -15.6411   26.1171 N   0  0  0  0  0  0  0  0  0  0  0  0
   10.4878  -16.5270   28.2666 C   0  0  0  0  0  0  0  0  0  0  0  0
   10.8080  -15.2582   28.7489 O   0  0  0  0  0  0  0  0  0  0  0  0
   11.7195  -19.7099   26.8445 C   0  0  0  0  0  0  0  0  0  0  0  0
   12.1266  -20.8378   27.5209 C   0  0  0  0  0  0  0  0  0  0  0  0
   10.2486  -17.4048   29.1194 O   0  0  0  0  0  0  0  0  0  0  0  0
  2  4  1  0
  2  1  1  0
  3  2  2  0
  5  6  1  0
  5  4  1  0
  6  7  1  6
  8  6  1  0
  8  9  2  0
 11 10  1  0
 12 11  1  0
 12 14  1  0
 12 13  1  1
 14 15  1  6
 15  8  1  0
 16 14  1  0
 17 16  2  0
 19 18  1  0
 19 29  2  0
 20 19  1  0
 21 20  2  0
 21 22  1  0
 22 28  2  0
 23 22  1  0
 24 25  1  0
 24 23  1  6
 25 16  1  0
 26 24  1  0
 27 26  1  0
 28 29  1  0
 30 26  2  0
M  END
$$$$
