QIY.pdb
     RDKit          3D

 30 30  0  0  1  0  0  0  0  0999 V2000
   13.6801  -20.7700   19.7888 N   0  0  0  0  0  0  0  0  0  0  0  0
   12.2630  -20.8283   19.5349 C   0  0  0  0  0  0  0  0  0  0  0  0
   11.7962  -21.8249   18.9351 O   0  0  0  0  0  0  0  0  0  0  0  0
   11.3623  -19.7532   19.9645 C   0  0  0  0  0  0  0  0  0  0  0  0
   11.9622  -18.6555   20.7557 C   0  0  0  0  0  0  0  0  0  0  0  0
   11.8576  -17.2778   20.2072 C   0  0  2  0  0  0  0  0  0  0  0  0
   13.0819  -16.6705   19.7689 N   0  0  0  0  0  0  0  0  0  0  0  0
   11.1518  -16.3539   21.1681 C   0  0  0  0  0  0  0  0  0  0  0  0
   11.8213  -15.8440   22.0982 O   0  0  0  0  0  0  0  0  0  0  0  0
    7.5001  -12.6603   19.6336 C   0  0  0  0  0  0  0  0  0  0  0  0
    8.5859  -13.4412   20.3430 C   0  0  0  0  0  0  0  0  0  0  0  0
    7.9969  -14.4190   21.3348 C   0  0  2  0  0  0  0  0  0  0  0  0
    7.1443  -13.7026   22.3598 C   0  0  0  0  0  0  0  0  0  0  0  0
    9.0232  -15.3148   21.9471 C   0  0  2  0  0  0  0  0  0  0  0  0
    9.7654  -16.0873   20.9988 N   0  0  0  0  0  0  0  0  0  0  0  0
    8.3864  -16.1386   22.9936 C   0  0  0  0  0  0  0  0  0  0  0  0
    8.0838  -17.3248   22.7146 O   0  0  0  0  0  0  0  0  0  0  0  0
   11.8696  -13.9125   29.3605 O   0  0  0  0  0  0  0  0  0  0  0  0
   10.7492  -14.3818   28.6893 C   0  0  0  0  0  0  0  0  0  0  0  0
   10.5373  -15.7316   28.5151 C   0  0  0  0  0  0  0  0  0  0  0  0
    9.4012  -16.1848   27.8354 C   0  0  0  0  0  0  0  0  0  0  0  0
    8.4598  -15.3301   27.3186 C   0  0  0  0  0  0  0  0  0  0  0  0
    7.2378  -15.7633   26.5942 C   0  0  0  0  0  0  0  0  0  0  0  0
    7.5816  -16.5423   25.3424 C   0  0  2  0  0  0  0  0  0  0  0  0
    8.0934  -15.6722   24.3006 N   0  0  0  0  0  0  0  0  0  0  0  0
    6.3478  -17.1885   24.8468 C   0  0  0  0  0  0  0  0  0  0  0  0
    5.9048  -18.4200   25.3289 O   0  0  0  0  0  0  0  0  0  0  0  0
    8.6905  -13.9606   27.5045 C   0  0  0  0  0  0  0  0  0  0  0  0
    9.8090  -13.5170   28.1734 C   0  0  0  0  0  0  0  0  0  0  0  0
    5.6486  -16.6489   23.9665 O   0  0  0  0  0  0  0  0  0  0  0  0
  2  4  1  0
  2  1  1  0
  3  2  2  0
  5  6  1  0
  5  4  1  0
  6  7  1  1
  8  6  1  0
  8  9  2  0
 11 10  1  0
 12 11  1  0
 12 14  1  0
 12 13  1  1
 14 15  1  6
 15  8  1  0
 16 14  1  0
 17 16  2  0
 19 18  1  0
 19 29  2  0
 20 19  1  0
 21 20  2  0
 21 22  1  0
 22 28  2  0
 23 22  1  0
 24 25  1  0
 24 23  1  1
 25 16  1  0
 26 24  1  0
 27 26  1  0
 28 29  1  0
 30 26  2  0
M  END
$$$$
