SSM.pdb
     RDKit          3D

 21 20  0  0  1  0  0  0  0  0999 V2000
   15.4926  -11.6222  -14.0419 O   0  0  0  0  0  0  0  0  0  0  0  0
   16.5917  -10.8774  -14.4036 C   0  0  0  0  0  0  0  0  0  0  0  0
   16.3506  -10.2803  -15.7762 C   0  0  2  0  0  0  0  0  0  0  0  0
   16.4022  -11.3437  -16.7874 N   0  0  0  0  0  0  0  0  0  0  0  0
   17.4176   -9.3186  -16.0644 C   0  0  0  0  0  0  0  0  0  0  0  0
   18.4936   -9.7092  -16.6145 O   0  0  0  0  0  0  0  0  0  0  0  0
   17.2316   -5.3095  -14.7858 O   0  0  0  0  0  0  0  0  0  0  0  0
   17.6601   -5.6224  -16.0565 C   0  0  0  0  0  0  0  0  0  0  0  0
   18.2460   -7.0003  -16.1654 C   0  0  2  0  0  0  0  0  0  0  0  0
   17.2661   -7.9478  -15.7370 N   0  0  0  0  0  0  0  0  0  0  0  0
   19.4876   -7.1718  -15.4068 C   0  0  0  0  0  0  0  0  0  0  0  0
   19.3835   -7.6173  -14.2144 O   0  0  0  0  0  0  0  0  0  0  0  0
   26.7009   -9.7740  -14.5294 C   0  0  0  0  0  0  0  0  0  0  0  0
   25.2874   -9.4410  -15.5556 S   0  0  0  0  0  0  0  0  0  0  0  0
   24.0772   -8.3287  -14.8362 C   0  0  0  0  0  0  0  0  0  0  0  0
   22.8537   -8.1320  -15.6260 C   0  0  0  0  0  0  0  0  0  0  0  0
   21.9279   -7.1053  -15.0265 C   0  0  2  0  0  0  0  0  0  0  0  0
   20.7749   -6.8838  -15.8924 N   0  0  0  0  0  0  0  0  0  0  0  0
   22.5720   -5.8184  -14.6866 C   0  0  0  0  0  0  0  0  0  0  0  0
   22.6926   -4.8406  -15.4558 O   0  0  0  0  0  0  0  0  0  0  0  0
   23.1189   -5.6099  -13.3980 O   0  0  0  0  0  0  0  0  0  0  0  0
  2  1  1  0
  2  3  1  0
  3  5  1  0
  3  4  1  6
  5  6  2  0
  7  8  1  0
  9  8  1  1
 10  9  1  0
 10  5  1  0
 11 18  1  0
 11  9  1  0
 12 11  2  0
 13 14  1  0
 15 14  1  0
 16 15  1  0
 17 18  1  0
 17 16  1  6
 19 17  1  0
 20 19  2  0
 21 19  1  0
M  END
$$$$
