SSM.pdb
     RDKit          3D

 21 20  0  0  1  0  0  0  0  0999 V2000
   16.3320   -8.8236  -19.8171 O   0  0  0  0  0  0  0  0  0  0  0  0
   16.9776   -8.2447  -18.7485 C   0  0  0  0  0  0  0  0  0  0  0  0
   17.3108   -9.3210  -17.7340 C   0  0  2  0  0  0  0  0  0  0  0  0
   16.0999   -9.6765  -16.9834 N   0  0  0  0  0  0  0  0  0  0  0  0
   18.2975   -8.7887  -16.7909 C   0  0  0  0  0  0  0  0  0  0  0  0
   17.9166   -8.1008  -15.7935 O   0  0  0  0  0  0  0  0  0  0  0  0
   22.4212   -9.5314  -17.2794 O   0  0  0  0  0  0  0  0  0  0  0  0
   21.8326   -9.4324  -16.0384 C   0  0  0  0  0  0  0  0  0  0  0  0
   20.6249   -8.5409  -16.0211 C   0  0  2  0  0  0  0  0  0  0  0  0
   19.6817   -9.0320  -16.9754 N   0  0  0  0  0  0  0  0  0  0  0  0
   20.9312   -7.1326  -16.2844 C   0  0  0  0  0  0  0  0  0  0  0  0
   20.8164   -6.7284  -17.4905 O   0  0  0  0  0  0  0  0  0  0  0  0
   19.6635    0.1557  -16.7657 C   0  0  0  0  0  0  0  0  0  0  0  0
   19.3008   -1.5208  -16.2970 S   0  0  0  0  0  0  0  0  0  0  0  0
   20.7312   -2.5971  -16.1749 C   0  0  0  0  0  0  0  0  0  0  0  0
   20.4373   -4.0040  -15.8693 C   0  0  0  0  0  0  0  0  0  0  0  0
   21.6798   -4.8449  -15.7279 C   0  0  2  0  0  0  0  0  0  0  0  0
   21.3390   -6.2014  -15.3136 N   0  0  0  0  0  0  0  0  0  0  0  0
   22.7103   -4.2761  -14.8328 C   0  0  0  0  0  0  0  0  0  0  0  0
   22.9116   -4.6175  -13.6473 O   0  0  0  0  0  0  0  0  0  0  0  0
   23.5753   -3.2556  -15.2944 O   0  0  0  0  0  0  0  0  0  0  0  0
  2  1  1  0
  2  3  1  0
  3  5  1  0
  3  4  1  1
  5  6  2  0
  7  8  1  0
  9  8  1  6
 10  9  1  0
 10  5  1  0
 11 18  1  0
 11  9  1  0
 12 11  2  0
 13 14  1  0
 15 14  1  0
 16 15  1  0
 17 18  1  0
 17 16  1  1
 19 17  1  0
 20 19  2  0
 21 19  1  0
M  END
$$$$
