SSM.pdb
     RDKit          3D

 21 20  0  0  1  0  0  0  0  0999 V2000
   15.9702  -13.9018  -14.2713 O   0  0  0  0  0  0  0  0  0  0  0  0
   16.2208  -12.7270  -13.5998 C   0  0  0  0  0  0  0  0  0  0  0  0
   17.1947  -11.8954  -14.4114 C   0  0  2  0  0  0  0  0  0  0  0  0
   18.3875  -12.6966  -14.7137 N   0  0  0  0  0  0  0  0  0  0  0  0
   17.6070  -10.7398  -13.6106 C   0  0  0  0  0  0  0  0  0  0  0  0
   18.5745  -10.8448  -12.7946 O   0  0  0  0  0  0  0  0  0  0  0  0
   18.2914   -6.1458  -13.5156 O   0  0  0  0  0  0  0  0  0  0  0  0
   17.9060   -7.3475  -14.0664 C   0  0  0  0  0  0  0  0  0  0  0  0
   17.4382   -8.3469  -13.0485 C   0  0  2  0  0  0  0  0  0  0  0  0
   16.9380   -9.4963  -13.7341 N   0  0  0  0  0  0  0  0  0  0  0  0
   16.4256   -7.8194  -12.1305 C   0  0  0  0  0  0  0  0  0  0  0  0
   15.2198   -7.7886  -12.5504 O   0  0  0  0  0  0  0  0  0  0  0  0
   11.9566   -7.6285   -6.0421 C   0  0  0  0  0  0  0  0  0  0  0  0
   13.3320   -8.2787   -6.9625 S   0  0  0  0  0  0  0  0  0  0  0  0
   13.9850   -7.1801   -8.2218 C   0  0  0  0  0  0  0  0  0  0  0  0
   15.0922   -7.7239   -9.0204 C   0  0  0  0  0  0  0  0  0  0  0  0
   15.5948   -6.7565  -10.0607 C   0  0  2  0  0  0  0  0  0  0  0  0
   16.6829   -7.3485  -10.8312 N   0  0  0  0  0  0  0  0  0  0  0  0
   15.9975   -5.4360   -9.5308 C   0  0  0  0  0  0  0  0  0  0  0  0
   17.1698   -5.0085   -9.4592 O   0  0  0  0  0  0  0  0  0  0  0  0
   15.0226   -4.5309   -9.0477 O   0  0  0  0  0  0  0  0  0  0  0  0
  2  1  1  0
  2  3  1  0
  3  5  1  0
  3  4  1  1
  5  6  2  0
  7  8  1  0
  9  8  1  6
 10  9  1  0
 10  5  1  0
 11 18  1  0
 11  9  1  0
 12 11  2  0
 13 14  1  0
 15 14  1  0
 16 15  1  0
 17 18  1  0
 17 16  1  1
 19 17  1  0
 20 19  2  0
 21 19  1  0
M  END
$$$$
