SSM.pdb
     RDKit          3D

 21 20  0  0  1  0  0  0  0  0999 V2000
   19.8589  -12.2158  -17.7748 O   0  0  0  0  0  0  0  0  0  0  0  0
   18.5438  -11.8552  -17.5898 C   0  0  0  0  0  0  0  0  0  0  0  0
   18.1598  -10.8385  -18.6470 C   0  0  2  0  0  0  0  0  0  0  0  0
   18.7083  -11.2521  -19.9447 N   0  0  0  0  0  0  0  0  0  0  0  0
   18.7472   -9.5447  -18.2900 C   0  0  0  0  0  0  0  0  0  0  0  0
   19.5431   -8.9651  -19.0923 O   0  0  0  0  0  0  0  0  0  0  0  0
   18.1352   -5.5245  -15.8407 O   0  0  0  0  0  0  0  0  0  0  0  0
   17.7794   -6.8111  -16.1786 C   0  0  0  0  0  0  0  0  0  0  0  0
   18.9034   -7.6005  -16.7845 C   0  0  2  0  0  0  0  0  0  0  0  0
   18.4379   -8.9243  -17.0536 N   0  0  0  0  0  0  0  0  0  0  0  0
   20.1072   -7.6426  -15.9505 C   0  0  0  0  0  0  0  0  0  0  0  0
   20.2763   -8.6805  -15.2257 O   0  0  0  0  0  0  0  0  0  0  0  0
   27.0146   -9.6343  -14.8359 C   0  0  0  0  0  0  0  0  0  0  0  0
   25.5295   -9.3168  -15.7609 S   0  0  0  0  0  0  0  0  0  0  0  0
   24.3943   -8.1590  -14.9927 C   0  0  0  0  0  0  0  0  0  0  0  0
   23.1330   -7.9401  -15.7140 C   0  0  0  0  0  0  0  0  0  0  0  0
   22.2888   -6.8525  -15.1015 C   0  0  2  0  0  0  0  0  0  0  0  0
   21.0819   -6.6315  -15.8908 N   0  0  0  0  0  0  0  0  0  0  0  0
   22.9983   -5.5749  -14.8761 C   0  0  0  0  0  0  0  0  0  0  0  0
   22.9316   -4.5669  -15.6122 O   0  0  0  0  0  0  0  0  0  0  0  0
   23.8404   -5.4126  -13.7503 O   0  0  0  0  0  0  0  0  0  0  0  0
  2  1  1  0
  2  3  1  0
  3  5  1  0
  3  4  1  6
  5  6  2  0
  7  8  1  0
  9  8  1  1
 10  9  1  0
 10  5  1  0
 11 18  1  0
 11  9  1  0
 12 11  2  0
 13 14  1  0
 15 14  1  0
 16 15  1  0
 17 18  1  0
 17 16  1  6
 19 17  1  0
 20 19  2  0
 21 19  1  0
M  END
$$$$
