SSM.pdb
     RDKit          3D

 21 20  0  0  1  0  0  0  0  0999 V2000
   15.4315  -11.4950  -16.1186 O   0  0  0  0  0  0  0  0  0  0  0  0
   15.7066  -10.8952  -14.9110 C   0  0  0  0  0  0  0  0  0  0  0  0
   17.2067  -10.8988  -14.6910 C   0  0  2  0  0  0  0  0  0  0  0  0
   17.6695  -12.2796  -14.5028 N   0  0  0  0  0  0  0  0  0  0  0  0
   17.5047  -10.1430  -13.4718 C   0  0  0  0  0  0  0  0  0  0  0  0
   17.3781  -10.6951  -12.3350 O   0  0  0  0  0  0  0  0  0  0  0  0
   18.7097   -6.0628  -13.5636 O   0  0  0  0  0  0  0  0  0  0  0  0
   19.2328   -6.9897  -12.6898 C   0  0  0  0  0  0  0  0  0  0  0  0
   18.2730   -8.0912  -12.3446 C   0  0  2  0  0  0  0  0  0  0  0  0
   17.9364   -8.7948  -13.5418 N   0  0  0  0  0  0  0  0  0  0  0  0
   17.0600   -7.6227  -11.6698 C   0  0  0  0  0  0  0  0  0  0  0  0
   16.0428   -7.3815  -12.4035 O   0  0  0  0  0  0  0  0  0  0  0  0
   11.4592   -7.5066   -6.3693 C   0  0  0  0  0  0  0  0  0  0  0  0
   12.9783   -8.1827   -6.9996 S   0  0  0  0  0  0  0  0  0  0  0  0
   13.8467   -7.1310   -8.1653 C   0  0  0  0  0  0  0  0  0  0  0  0
   15.1013   -7.6809   -8.6971 C   0  0  0  0  0  0  0  0  0  0  0  0
   15.7185   -6.8100   -9.7608 C   0  0  2  0  0  0  0  0  0  0  0  0
   16.9355   -7.4209  -10.2842 N   0  0  0  0  0  0  0  0  0  0  0  0
   15.9808   -5.4167   -9.3409 C   0  0  0  0  0  0  0  0  0  0  0  0
   17.1040   -4.9369   -9.0755 O   0  0  0  0  0  0  0  0  0  0  0  0
   14.9141   -4.4960   -9.2086 O   0  0  0  0  0  0  0  0  0  0  0  0
  2  1  1  0
  2  3  1  0
  3  5  1  0
  3  4  1  1
  5  6  2  0
  7  8  1  0
  9  8  1  6
 10  9  1  0
 10  5  1  0
 11 18  1  0
 11  9  1  0
 12 11  2  0
 13 14  1  0
 15 14  1  0
 16 15  1  0
 17 18  1  0
 17 16  1  1
 19 17  1  0
 20 19  2  0
 21 19  1  0
M  END
$$$$
