SSM.pdb
     RDKit          3D

 21 20  0  0  1  0  0  0  0  0999 V2000
   26.0427   -9.6427  -15.5542 O   0  0  0  0  0  0  0  0  0  0  0  0
   25.2650  -10.6835  -15.1010 C   0  0  0  0  0  0  0  0  0  0  0  0
   24.2990  -11.0886  -16.1971 C   0  0  2  0  0  0  0  0  0  0  0  0
   25.0299  -11.2374  -17.4619 N   0  0  0  0  0  0  0  0  0  0  0  0
   23.3037  -10.0264  -16.3626 C   0  0  0  0  0  0  0  0  0  0  0  0
   23.4638   -9.1394  -17.2575 O   0  0  0  0  0  0  0  0  0  0  0  0
   20.0757   -9.5367  -13.6851 O   0  0  0  0  0  0  0  0  0  0  0  0
   19.9040   -9.3773  -15.0420 C   0  0  0  0  0  0  0  0  0  0  0  0
   21.1600   -8.9729  -15.7580 C   0  0  2  0  0  0  0  0  0  0  0  0
   22.1553   -9.9732  -15.5335 N   0  0  0  0  0  0  0  0  0  0  0  0
   21.6627   -7.6549  -15.3624 C   0  0  0  0  0  0  0  0  0  0  0  0
   22.6028   -7.6266  -14.4984 O   0  0  0  0  0  0  0  0  0  0  0  0
   25.4876   -1.2962  -16.5611 C   0  0  0  0  0  0  0  0  0  0  0  0
   24.7639   -2.8468  -17.0447 S   0  0  0  0  0  0  0  0  0  0  0  0
   23.5067   -3.4741  -15.9287 C   0  0  0  0  0  0  0  0  0  0  0  0
   22.9209   -4.7688  -16.3028 C   0  0  0  0  0  0  0  0  0  0  0  0
   21.7961   -5.1881  -15.3919 C   0  0  2  0  0  0  0  0  0  0  0  0
   21.1891   -6.4289  -15.8610 N   0  0  0  0  0  0  0  0  0  0  0  0
   20.7592   -4.1559  -15.1777 C   0  0  0  0  0  0  0  0  0  0  0  0
   20.9089   -3.0995  -14.5265 O   0  0  0  0  0  0  0  0  0  0  0  0
   19.4657   -4.3151  -15.7295 O   0  0  0  0  0  0  0  0  0  0  0  0
  2  1  1  0
  2  3  1  0
  3  5  1  0
  3  4  1  6
  5  6  2  0
  7  8  1  0
  9  8  1  1
 10  9  1  0
 10  5  1  0
 11 18  1  0
 11  9  1  0
 12 11  2  0
 13 14  1  0
 15 14  1  0
 16 15  1  0
 17 18  1  0
 17 16  1  6
 19 17  1  0
 20 19  2  0
 21 19  1  0
M  END
$$$$
