SSM.pdb
     RDKit          3D

 21 20  0  0  1  0  0  0  0  0999 V2000
   19.3816  -14.5089  -14.3283 O   0  0  0  0  0  0  0  0  0  0  0  0
   18.2230  -14.1663  -14.9872 C   0  0  0  0  0  0  0  0  0  0  0  0
   18.4772  -14.2071  -16.4814 C   0  0  2  0  0  0  0  0  0  0  0  0
   19.3477  -15.3464  -16.7979 N   0  0  0  0  0  0  0  0  0  0  0  0
   19.1682  -12.9764  -16.8743 C   0  0  0  0  0  0  0  0  0  0  0  0
   20.3180  -13.0367  -17.4103 O   0  0  0  0  0  0  0  0  0  0  0  0
   17.5018   -9.1376  -16.1919 O   0  0  0  0  0  0  0  0  0  0  0  0
   18.0936   -9.4908  -17.3840 C   0  0  0  0  0  0  0  0  0  0  0  0
   19.1579  -10.5388  -17.2334 C   0  0  2  0  0  0  0  0  0  0  0  0
   18.5682  -11.7094  -16.6646 N   0  0  0  0  0  0  0  0  0  0  0  0
   20.3023  -10.1019  -16.4297 C   0  0  0  0  0  0  0  0  0  0  0  0
   20.2694  -10.3646  -15.1803 O   0  0  0  0  0  0  0  0  0  0  0  0
   26.8143  -10.9922  -14.8774 C   0  0  0  0  0  0  0  0  0  0  0  0
   25.3915  -10.6408  -15.8845 S   0  0  0  0  0  0  0  0  0  0  0  0
   24.9329   -8.9081  -15.9655 C   0  0  0  0  0  0  0  0  0  0  0  0
   23.7190   -8.6128  -16.7392 C   0  0  0  0  0  0  0  0  0  0  0  0
   22.4534   -8.9649  -16.0009 C   0  0  2  0  0  0  0  0  0  0  0  0
   21.4250   -9.4199  -16.9301 N   0  0  0  0  0  0  0  0  0  0  0  0
   21.9257   -7.8890  -15.1346 C   0  0  0  0  0  0  0  0  0  0  0  0
   21.1929   -6.9481  -15.5091 O   0  0  0  0  0  0  0  0  0  0  0  0
   22.2383   -7.8629  -13.7545 O   0  0  0  0  0  0  0  0  0  0  0  0
  2  1  1  0
  2  3  1  0
  3  5  1  0
  3  4  1  1
  5  6  2  0
  7  8  1  0
  9  8  1  1
 10  9  1  0
 10  5  1  0
 11 18  1  0
 11  9  1  0
 12 11  2  0
 13 14  1  0
 15 14  1  0
 16 15  1  0
 17 18  1  0
 17 16  1  6
 19 17  1  0
 20 19  2  0
 21 19  1  0
M  END
$$$$
