SSM.pdb
     RDKit          3D

 21 20  0  0  1  0  0  0  0  0999 V2000
   15.6667  -10.7486  -10.9495 O   0  0  0  0  0  0  0  0  0  0  0  0
   15.6493  -10.4014   -9.6180 C   0  0  0  0  0  0  0  0  0  0  0  0
   14.6718   -9.2593   -9.4209 C   0  0  2  0  0  0  0  0  0  0  0  0
   13.3849   -9.6059  -10.0373 N   0  0  0  0  0  0  0  0  0  0  0  0
   15.1984   -8.0686  -10.0928 C   0  0  0  0  0  0  0  0  0  0  0  0
   14.8154   -7.7811  -11.2691 O   0  0  0  0  0  0  0  0  0  0  0  0
   16.9769   -5.0025   -7.9896 O   0  0  0  0  0  0  0  0  0  0  0  0
   16.4245   -4.8714   -9.2441 C   0  0  0  0  0  0  0  0  0  0  0  0
   16.6415   -6.0718  -10.1192 C   0  0  2  0  0  0  0  0  0  0  0  0
   16.1355   -7.2253   -9.4449 N   0  0  0  0  0  0  0  0  0  0  0  0
   18.0417   -6.2758  -10.4990 C   0  0  0  0  0  0  0  0  0  0  0  0
   18.7742   -6.9349   -9.6865 O   0  0  0  0  0  0  0  0  0  0  0  0
   23.3160  -10.0242  -14.0487 C   0  0  0  0  0  0  0  0  0  0  0  0
   21.6427   -9.5339  -13.7000 S   0  0  0  0  0  0  0  0  0  0  0  0
   21.4732   -7.9244  -12.9255 C   0  0  0  0  0  0  0  0  0  0  0  0
   20.1003   -7.5345  -12.5757 C   0  0  0  0  0  0  0  0  0  0  0  0
   20.0176   -6.1540  -11.9771 C   0  0  2  0  0  0  0  0  0  0  0  0
   18.6326   -5.8024  -11.6833 N   0  0  0  0  0  0  0  0  0  0  0  0
   20.6587   -5.0933  -12.7835 C   0  0  0  0  0  0  0  0  0  0  0  0
   20.0630   -4.2913  -13.5348 O   0  0  0  0  0  0  0  0  0  0  0  0
   22.0624   -4.9165  -12.7478 O   0  0  0  0  0  0  0  0  0  0  0  0
  2  1  1  0
  2  3  1  0
  3  5  1  0
  3  4  1  6
  5  6  2  0
  7  8  1  0
  9  8  1  1
 10  9  1  0
 10  5  1  0
 11 18  1  0
 11  9  1  0
 12 11  2  0
 13 14  1  0
 15 14  1  0
 16 15  1  0
 17 18  1  0
 17 16  1  6
 19 17  1  0
 20 19  2  0
 21 19  1  0
M  END
$$$$
