SSM.pdb
     RDKit          3D

 21 20  0  0  1  0  0  0  0  0999 V2000
   13.8824   -8.0818   -8.5294 O   0  0  0  0  0  0  0  0  0  0  0  0
   14.8271   -8.2986   -9.5063 C   0  0  0  0  0  0  0  0  0  0  0  0
   14.1661   -8.9861  -10.6850 C   0  0  2  0  0  0  0  0  0  0  0  0
   13.8544  -10.3758  -10.3279 N   0  0  0  0  0  0  0  0  0  0  0  0
   15.1058   -8.9991  -11.8089 C   0  0  0  0  0  0  0  0  0  0  0  0
   15.6615  -10.0858  -12.1600 O   0  0  0  0  0  0  0  0  0  0  0  0
   15.7863   -5.5191  -14.0949 O   0  0  0  0  0  0  0  0  0  0  0  0
   15.6622   -6.7751  -14.6456 C   0  0  0  0  0  0  0  0  0  0  0  0
   16.1412   -7.8727  -13.7403 C   0  0  2  0  0  0  0  0  0  0  0  0
   15.4060   -7.8083  -12.5168 N   0  0  0  0  0  0  0  0  0  0  0  0
   17.5810   -7.8271  -13.4735 C   0  0  0  0  0  0  0  0  0  0  0  0
   17.9510   -7.3088  -12.3664 O   0  0  0  0  0  0  0  0  0  0  0  0
   24.8078  -10.8569  -14.2904 C   0  0  0  0  0  0  0  0  0  0  0  0
   23.1114  -10.8037  -14.8209 S   0  0  0  0  0  0  0  0  0  0  0  0
   22.1448   -9.4610  -14.1266 C   0  0  0  0  0  0  0  0  0  0  0  0
   20.7105   -9.4865  -14.4450 C   0  0  0  0  0  0  0  0  0  0  0  0
   19.9690   -8.2909  -13.9051 C   0  0  2  0  0  0  0  0  0  0  0  0
   18.5769   -8.3086  -14.3409 N   0  0  0  0  0  0  0  0  0  0  0  0
   20.5909   -6.9866  -14.2193 C   0  0  0  0  0  0  0  0  0  0  0  0
   21.5073   -6.4424  -13.5663 O   0  0  0  0  0  0  0  0  0  0  0  0
   20.1589   -6.2391  -15.3407 O   0  0  0  0  0  0  0  0  0  0  0  0
  2  1  1  0
  2  3  1  0
  3  5  1  0
  3  4  1  1
  5  6  2  0
  7  8  1  0
  9  8  1  6
 10  9  1  0
 10  5  1  0
 11 18  1  0
 11  9  1  0
 12 11  2  0
 13 14  1  0
 15 14  1  0
 16 15  1  0
 17 18  1  0
 17 16  1  6
 19 17  1  0
 20 19  2  0
 21 19  1  0
M  END
$$$$
