SSM.pdb
     RDKit          3D

 21 20  0  0  1  0  0  0  0  0999 V2000
   25.8983  -11.8873  -15.9308 O   0  0  0  0  0  0  0  0  0  0  0  0
   27.1195  -11.3220  -16.2186 C   0  0  0  0  0  0  0  0  0  0  0  0
   27.5222  -11.7131  -17.6270 C   0  0  2  0  0  0  0  0  0  0  0  0
   27.7552  -13.1618  -17.6839 N   0  0  0  0  0  0  0  0  0  0  0  0
   28.7746  -11.0317  -17.9641 C   0  0  0  0  0  0  0  0  0  0  0  0
   29.8853  -11.6247  -17.7979 O   0  0  0  0  0  0  0  0  0  0  0  0
   29.1728   -8.7337  -21.1647 O   0  0  0  0  0  0  0  0  0  0  0  0
   29.6592   -8.1364  -20.0232 C   0  0  0  0  0  0  0  0  0  0  0  0
   29.9824   -9.1139  -18.9307 C   0  0  2  0  0  0  0  0  0  0  0  0
   28.7657   -9.7106  -18.4778 N   0  0  0  0  0  0  0  0  0  0  0  0
   30.7083   -8.5183  -17.8061 C   0  0  0  0  0  0  0  0  0  0  0  0
   30.0103   -7.9586  -16.8947 O   0  0  0  0  0  0  0  0  0  0  0  0
   36.4891  -10.3817  -15.0592 C   0  0  0  0  0  0  0  0  0  0  0  0
   36.2213   -8.7205  -14.4840 S   0  0  0  0  0  0  0  0  0  0  0  0
   34.6291   -8.0178  -14.9199 C   0  0  0  0  0  0  0  0  0  0  0  0
   33.9905   -8.5939  -16.1114 C   0  0  0  0  0  0  0  0  0  0  0  0
   32.6962   -7.9110  -16.4706 C   0  0  2  0  0  0  0  0  0  0  0  0
   32.1062   -8.5182  -17.6587 N   0  0  0  0  0  0  0  0  0  0  0  0
   32.7983   -6.4453  -16.6376 C   0  0  0  0  0  0  0  0  0  0  0  0
   32.9007   -5.6136  -15.7101 O   0  0  0  0  0  0  0  0  0  0  0  0
   32.7852   -5.8693  -17.9303 O   0  0  0  0  0  0  0  0  0  0  0  0
  2  1  1  0
  2  3  1  0
  3  5  1  0
  3  4  1  1
  5  6  2  0
  7  8  1  0
  9  8  1  6
 10  9  1  0
 10  5  1  0
 11 18  1  0
 11  9  1  0
 12 11  2  0
 13 14  1  0
 15 14  1  0
 16 15  1  0
 17 18  1  0
 17 16  1  6
 19 17  1  0
 20 19  2  0
 21 19  1  0
M  END
$$$$
