WFR.pdb
     RDKit          3D

 37 39  0  0  1  0  0  0  0  0999 V2000
   20.4554  -11.6898  -20.3193 N   0  0  0  0  0  0  0  0  0  0  0  0
   20.8787  -10.2886  -20.0937 C   0  0  1  0  0  0  0  0  0  0  0  0
   20.2356   -9.4800  -21.1504 C   0  0  0  0  0  0  0  0  0  0  0  0
   20.6227   -9.7399  -22.5327 C   0  0  0  0  0  0  0  0  0  0  0  0
   19.8216  -10.3606  -23.4862 C   0  0  0  0  0  0  0  0  0  0  0  0
   20.4610  -10.4117  -24.6437 N   0  0  0  0  0  0  0  0  0  0  0  0
   21.6844   -9.8311  -24.4747 C   0  0  0  0  0  0  0  0  0  0  0  0
   22.7413   -9.6230  -25.3240 C   0  0  0  0  0  0  0  0  0  0  0  0
   23.8977   -9.0055  -24.8836 C   0  0  0  0  0  0  0  0  0  0  0  0
   24.0451   -8.5757  -23.5919 C   0  0  0  0  0  0  0  0  0  0  0  0
   22.9710   -8.7882  -22.7334 C   0  0  0  0  0  0  0  0  0  0  0  0
   21.8036   -9.4024  -23.1501 C   0  0  0  0  0  0  0  0  0  0  0  0
   20.6053   -9.9630  -18.7008 C   0  0  0  0  0  0  0  0  0  0  0  0
   19.6916  -10.5201  -18.0103 O   0  0  0  0  0  0  0  0  0  0  0  0
   21.3590   -8.9743  -18.0009 N   0  0  0  0  0  0  0  0  0  0  0  0
   21.0244   -8.5983  -16.5986 C   0  0  1  0  0  0  0  0  0  0  0  0
   22.2988   -8.7137  -15.8621 C   0  0  0  0  0  0  0  0  0  0  0  0
   22.3687   -8.2207  -14.4948 C   0  0  0  0  0  0  0  0  0  0  0  0
   22.2055   -9.0558  -13.4107 C   0  0  0  0  0  0  0  0  0  0  0  0
   22.3025   -8.5972  -12.1031 C   0  0  0  0  0  0  0  0  0  0  0  0
   22.5674   -7.2800  -11.8730 C   0  0  0  0  0  0  0  0  0  0  0  0
   22.7350   -6.4230  -12.9296 C   0  0  0  0  0  0  0  0  0  0  0  0
   22.6342   -6.9016  -14.2339 C   0  0  0  0  0  0  0  0  0  0  0  0
   20.5286   -7.2132  -16.6445 C   0  0  0  0  0  0  0  0  0  0  0  0
   21.2352   -6.3731  -17.3128 O   0  0  0  0  0  0  0  0  0  0  0  0
   12.3866   -5.3109  -17.1760 N   0  0  0  0  0  0  0  0  0  0  0  0
   13.1780   -6.2314  -17.9426 C   0  0  0  0  0  0  0  0  0  0  0  0
   12.5976   -6.9848  -18.8133 N   0  0  0  0  0  0  0  0  0  0  0  0
   14.5740   -6.3312  -17.7668 N   0  0  0  0  0  0  0  0  0  0  0  0
   15.2628   -5.5108  -16.7837 C   0  0  0  0  0  0  0  0  0  0  0  0
   16.7247   -5.7595  -16.9605 C   0  0  0  0  0  0  0  0  0  0  0  0
   17.5714   -5.0661  -15.9793 C   0  0  0  0  0  0  0  0  0  0  0  0
   19.0473   -5.2899  -16.1511 C   0  0  2  0  0  0  0  0  0  0  0  0
   19.3713   -6.6942  -16.0536 N   0  0  0  0  0  0  0  0  0  0  0  0
   19.9221   -4.4305  -15.3581 C   0  0  0  0  0  0  0  0  0  0  0  0
   19.5168   -3.9949  -14.2289 O   0  0  0  0  0  0  0  0  0  0  0  0
   21.1822   -4.0340  -15.7323 O   0  0  0  0  0  0  0  0  0  0  0  0
  2  1  1  6
  2  3  1  0
  3  4  1  0
  4 12  1  0
  4  5  2  0
  5  6  1  0
  7  6  1  0
  7  8  2  0
  9  8  1  0
 10  9  2  0
 11 10  1  0
 11 12  2  0
 12  7  1  0
 13  2  1  0
 14 13  2  0
 15 13  1  0
 16 17  1  1
 16 15  1  0
 17 18  1  0
 18 19  2  0
 19 20  1  0
 21 20  2  0
 22 21  1  0
 23 22  2  0
 23 18  1  0
 24 34  1  0
 24 16  1  0
 25 24  2  0
 27 28  2  0
 27 26  1  0
 29 27  1  0
 30 29  1  0
 31 30  1  0
 33 32  1  1
 32 31  1  0
 33 34  1  0
 35 33  1  0
 35 37  1  0
 36 35  2  0
M  END
$$$$
