WFR.pdb
     RDKit          3D

 37 39  0  0  1  0  0  0  0  0999 V2000
   26.9934  -23.2486  -16.8019 N   0  0  0  0  0  0  0  0  0  0  0  0
   26.4006  -21.9486  -16.4121 C   0  0  1  0  0  0  0  0  0  0  0  0
   25.4794  -21.5632  -17.5016 C   0  0  0  0  0  0  0  0  0  0  0  0
   26.0573  -20.9487  -18.6919 C   0  0  0  0  0  0  0  0  0  0  0  0
   26.6333  -21.6417  -19.7522 C   0  0  0  0  0  0  0  0  0  0  0  0
   27.0301  -20.7880  -20.6823 N   0  0  0  0  0  0  0  0  0  0  0  0
   26.7255  -19.5282  -20.2547 C   0  0  0  0  0  0  0  0  0  0  0  0
   26.9164  -18.2866  -20.8058 C   0  0  0  0  0  0  0  0  0  0  0  0
   26.5140  -17.1428  -20.1406 C   0  0  0  0  0  0  0  0  0  0  0  0
   25.9120  -17.1910  -18.9116 C   0  0  0  0  0  0  0  0  0  0  0  0
   25.7199  -18.4520  -18.3559 C   0  0  0  0  0  0  0  0  0  0  0  0
   26.1124  -19.6106  -19.0018 C   0  0  0  0  0  0  0  0  0  0  0  0
   25.8675  -22.0923  -15.0644 C   0  0  0  0  0  0  0  0  0  0  0  0
   25.4319  -23.1907  -14.5893 O   0  0  0  0  0  0  0  0  0  0  0  0
   25.7947  -20.9864  -14.1659 N   0  0  0  0  0  0  0  0  0  0  0  0
   25.1801  -21.1279  -12.8162 C   0  0  1  0  0  0  0  0  0  0  0  0
   26.2065  -20.6290  -11.8794 C   0  0  0  0  0  0  0  0  0  0  0  0
   25.8687  -20.4969  -10.4702 C   0  0  0  0  0  0  0  0  0  0  0  0
   26.0488  -21.5320   -9.5784 C   0  0  0  0  0  0  0  0  0  0  0  0
   25.7580  -21.4019   -8.2263 C   0  0  0  0  0  0  0  0  0  0  0  0
   25.2782  -20.2161   -7.7553 C   0  0  0  0  0  0  0  0  0  0  0  0
   25.0878  -19.1667   -8.6164 C   0  0  0  0  0  0  0  0  0  0  0  0
   25.3853  -19.3163   -9.9690 C   0  0  0  0  0  0  0  0  0  0  0  0
   23.9702  -20.2896  -12.8181 C   0  0  0  0  0  0  0  0  0  0  0  0
   23.8543  -19.4525  -13.7865 O   0  0  0  0  0  0  0  0  0  0  0  0
   21.3957  -15.7690  -16.8561 N   0  0  0  0  0  0  0  0  0  0  0  0
   21.7564  -17.1512  -17.0001 C   0  0  0  0  0  0  0  0  0  0  0  0
   22.8020  -17.4589  -17.6891 N   0  0  0  0  0  0  0  0  0  0  0  0
   20.9955  -18.1799  -16.4064 N   0  0  0  0  0  0  0  0  0  0  0  0
   20.6054  -18.1072  -15.0077 C   0  0  0  0  0  0  0  0  0  0  0  0
   21.7064  -18.7354  -14.2181 C   0  0  0  0  0  0  0  0  0  0  0  0
   21.4315  -20.1194  -13.8063 C   0  0  0  0  0  0  0  0  0  0  0  0
   21.5431  -20.3710  -12.3291 C   0  0  2  0  0  0  0  0  0  0  0  0
   22.9187  -20.2953  -11.8950 N   0  0  0  0  0  0  0  0  0  0  0  0
   20.8330  -21.5426  -11.8235 C   0  0  0  0  0  0  0  0  0  0  0  0
   21.4571  -22.3911  -11.1026 O   0  0  0  0  0  0  0  0  0  0  0  0
   19.5108  -21.8237  -12.0645 O   0  0  0  0  0  0  0  0  0  0  0  0
  2  1  1  6
  2  3  1  0
  3  4  1  0
  4 12  1  0
  4  5  2  0
  5  6  1  0
  7  6  1  0
  7  8  2  0
  9  8  1  0
 10  9  2  0
 11 10  1  0
 11 12  2  0
 12  7  1  0
 13  2  1  0
 14 13  2  0
 15 13  1  0
 16 17  1  1
 16 15  1  0
 17 18  1  0
 18 19  2  0
 19 20  1  0
 21 20  2  0
 22 21  1  0
 23 22  2  0
 23 18  1  0
 24 34  1  0
 24 16  1  0
 25 24  2  0
 27 28  2  0
 27 26  1  0
 29 27  1  0
 30 29  1  0
 31 30  1  0
 33 32  1  6
 32 31  1  0
 33 34  1  0
 35 33  1  0
 35 37  1  0
 36 35  2  0
M  END
$$$$
