WFR.pdb
     RDKit          3D

 37 39  0  0  1  0  0  0  0  0999 V2000
   25.6424  -21.4805  -13.8573 N   0  0  0  0  0  0  0  0  0  0  0  0
   24.8615  -20.7931  -12.8032 C   0  0  1  0  0  0  0  0  0  0  0  0
   23.4367  -21.0466  -13.1030 C   0  0  0  0  0  0  0  0  0  0  0  0
   22.9033  -20.5196  -14.3544 C   0  0  0  0  0  0  0  0  0  0  0  0
   22.8007  -21.2322  -15.5451 C   0  0  0  0  0  0  0  0  0  0  0  0
   22.2459  -20.4720  -16.4756 N   0  0  0  0  0  0  0  0  0  0  0  0
   21.9761  -19.2554  -15.9192 C   0  0  0  0  0  0  0  0  0  0  0  0
   21.4208  -18.1054  -16.4201 C   0  0  0  0  0  0  0  0  0  0  0  0
   21.2680  -16.9838  -15.6256 C   0  0  0  0  0  0  0  0  0  0  0  0
   21.6593  -16.9642  -14.3136 C   0  0  0  0  0  0  0  0  0  0  0  0
   22.2218  -18.1324  -13.8089 C   0  0  0  0  0  0  0  0  0  0  0  0
   22.3842  -19.2674  -14.5829 C   0  0  0  0  0  0  0  0  0  0  0  0
   25.3904  -21.2165  -11.5141 C   0  0  0  0  0  0  0  0  0  0  0  0
   25.8597  -22.3790  -11.2892 O   0  0  0  0  0  0  0  0  0  0  0  0
   25.4177  -20.3377  -10.3905 N   0  0  0  0  0  0  0  0  0  0  0  0
   25.9352  -20.7906   -9.0689 C   0  0  1  0  0  0  0  0  0  0  0  0
   26.9882  -19.8159   -8.7211 C   0  0  0  0  0  0  0  0  0  0  0  0
   27.6664  -19.9397   -7.4396 C   0  0  0  0  0  0  0  0  0  0  0  0
   28.6471  -20.8835   -7.2234 C   0  0  0  0  0  0  0  0  0  0  0  0
   29.3203  -20.9859   -6.0127 C   0  0  0  0  0  0  0  0  0  0  0  0
   29.0088  -20.1301   -4.9984 C   0  0  0  0  0  0  0  0  0  0  0  0
   28.0380  -19.1798   -5.1813 C   0  0  0  0  0  0  0  0  0  0  0  0
   27.3739  -19.0925   -6.4027 C   0  0  0  0  0  0  0  0  0  0  0  0
   24.7978  -20.7417   -8.1359 C   0  0  0  0  0  0  0  0  0  0  0  0
   24.1822  -19.6175   -8.0409 O   0  0  0  0  0  0  0  0  0  0  0  0
   18.0043  -22.8677   -8.5538 N   0  0  0  0  0  0  0  0  0  0  0  0
   18.7115  -24.1170   -8.5747 C   0  0  0  0  0  0  0  0  0  0  0  0
   18.4662  -24.9617   -9.5176 N   0  0  0  0  0  0  0  0  0  0  0  0
   19.6675  -24.4424   -7.5900 N   0  0  0  0  0  0  0  0  0  0  0  0
   20.0988  -23.4551   -6.6137 C   0  0  0  0  0  0  0  0  0  0  0  0
   21.3655  -22.8579   -7.1326 C   0  0  0  0  0  0  0  0  0  0  0  0
   22.4146  -22.7050   -6.1145 C   0  0  0  0  0  0  0  0  0  0  0  0
   23.3138  -21.5172   -6.3102 C   0  0  2  0  0  0  0  0  0  0  0  0
   24.2940  -21.7758   -7.3391 N   0  0  0  0  0  0  0  0  0  0  0  0
   23.8788  -20.9347   -5.0961 C   0  0  0  0  0  0  0  0  0  0  0  0
   25.0491  -21.2798   -4.7211 O   0  0  0  0  0  0  0  0  0  0  0  0
   23.2416  -20.0206   -4.2939 O   0  0  0  0  0  0  0  0  0  0  0  0
  2  1  1  6
  2  3  1  0
  3  4  1  0
  4 12  1  0
  4  5  2  0
  5  6  1  0
  7  6  1  0
  7  8  2  0
  9  8  1  0
 10  9  2  0
 11 10  1  0
 11 12  2  0
 12  7  1  0
 13  2  1  0
 14 13  2  0
 15 13  1  0
 16 17  1  1
 16 15  1  0
 17 18  1  0
 18 19  2  0
 19 20  1  0
 21 20  2  0
 22 21  1  0
 23 22  2  0
 23 18  1  0
 24 34  1  0
 24 16  1  0
 25 24  2  0
 27 28  2  0
 27 26  1  0
 29 27  1  0
 30 29  1  0
 31 30  1  0
 33 32  1  1
 32 31  1  0
 33 34  1  0
 35 33  1  0
 35 37  1  0
 36 35  2  0
M  END
$$$$
