WFR.pdb
     RDKit          3D

 37 39  0  0  1  0  0  0  0  0999 V2000
   26.6934  -21.3913  -13.5726 N   0  0  0  0  0  0  0  0  0  0  0  0
   26.2567  -20.2900  -12.6838 C   0  0  1  0  0  0  0  0  0  0  0  0
   25.0322  -19.7236  -13.2871 C   0  0  0  0  0  0  0  0  0  0  0  0
   25.1586  -19.0588  -14.5796 C   0  0  0  0  0  0  0  0  0  0  0  0
   24.4613  -19.4080  -15.7320 C   0  0  0  0  0  0  0  0  0  0  0  0
   24.7846  -18.5860  -16.7174 N   0  0  0  0  0  0  0  0  0  0  0  0
   25.6934  -17.6888  -16.2360 C   0  0  0  0  0  0  0  0  0  0  0  0
   26.3613  -16.6393  -16.8140 C   0  0  0  0  0  0  0  0  0  0  0  0
   27.2587  -15.8791  -16.0865 C   0  0  0  0  0  0  0  0  0  0  0  0
   27.5235  -16.1328  -14.7672 C   0  0  0  0  0  0  0  0  0  0  0  0
   26.8442  -17.1979  -14.1843 C   0  0  0  0  0  0  0  0  0  0  0  0
   25.9411  -17.9722  -14.8904 C   0  0  0  0  0  0  0  0  0  0  0  0
   26.1882  -20.8169  -11.3279 C   0  0  0  0  0  0  0  0  0  0  0  0
   26.1158  -22.0587  -11.0543 O   0  0  0  0  0  0  0  0  0  0  0  0
   26.1965  -19.9576  -10.1891 N   0  0  0  0  0  0  0  0  0  0  0  0
   26.2304  -20.5098   -8.8058 C   0  0  1  0  0  0  0  0  0  0  0  0
   26.9439  -19.4914   -8.0098 C   0  0  0  0  0  0  0  0  0  0  0  0
   27.1773  -19.7402   -6.5951 C   0  0  0  0  0  0  0  0  0  0  0  0
   26.3965  -19.1643   -5.6164 C   0  0  0  0  0  0  0  0  0  0  0  0
   26.5941  -19.4226   -4.2660 C   0  0  0  0  0  0  0  0  0  0  0  0
   27.5899  -20.2718   -3.8849 C   0  0  0  0  0  0  0  0  0  0  0  0
   28.3844  -20.8612   -4.8339 C   0  0  0  0  0  0  0  0  0  0  0  0
   28.1708  -20.5898   -6.1834 C   0  0  0  0  0  0  0  0  0  0  0  0
   24.8290  -20.6678   -8.3845 C   0  0  0  0  0  0  0  0  0  0  0  0
   24.0345  -19.6958   -8.6598 O   0  0  0  0  0  0  0  0  0  0  0  0
   19.0123  -26.1446   -5.7481 N   0  0  0  0  0  0  0  0  0  0  0  0
   18.2187  -25.0177   -6.1500 C   0  0  0  0  0  0  0  0  0  0  0  0
   16.9371  -25.0734   -6.0187 N   0  0  0  0  0  0  0  0  0  0  0  0
   18.8064  -23.8520   -6.6840 N   0  0  0  0  0  0  0  0  0  0  0  0
   20.1384  -23.8871   -7.2656 C   0  0  0  0  0  0  0  0  0  0  0  0
   21.0360  -23.1372   -6.3370 C   0  0  0  0  0  0  0  0  0  0  0  0
   22.4348  -23.0694   -6.7833 C   0  0  0  0  0  0  0  0  0  0  0  0
   22.8563  -21.7364   -7.3341 C   0  0  2  0  0  0  0  0  0  0  0  0
   24.2471  -21.7553   -7.7237 N   0  0  0  0  0  0  0  0  0  0  0  0
   22.4867  -20.5688   -6.5387 C   0  0  0  0  0  0  0  0  0  0  0  0
   21.5576  -19.7974   -6.9521 O   0  0  0  0  0  0  0  0  0  0  0  0
   23.0702  -20.2135   -5.3478 O   0  0  0  0  0  0  0  0  0  0  0  0
  2  1  1  6
  2  3  1  0
  3  4  1  0
  4 12  1  0
  4  5  2  0
  5  6  1  0
  7  6  1  0
  7  8  2  0
  9  8  1  0
 10  9  2  0
 11 10  1  0
 11 12  2  0
 12  7  1  0
 13  2  1  0
 14 13  2  0
 15 13  1  0
 16 17  1  1
 16 15  1  0
 17 18  1  0
 18 19  2  0
 19 20  1  0
 21 20  2  0
 22 21  1  0
 23 22  2  0
 23 18  1  0
 24 34  1  0
 24 16  1  0
 25 24  2  0
 27 28  2  0
 27 26  1  0
 29 27  1  0
 30 29  1  0
 31 30  1  0
 33 32  1  1
 32 31  1  0
 33 34  1  0
 35 33  1  0
 35 37  1  0
 36 35  2  0
M  END
$$$$
