WFR.pdb
     RDKit          3D

 37 39  0  0  1  0  0  0  0  0999 V2000
   26.8202  -20.7611  -18.4073 N   0  0  0  0  0  0  0  0  0  0  0  0
   25.5412  -20.2512  -17.8617 C   0  0  1  0  0  0  0  0  0  0  0  0
   24.5441  -20.3712  -18.9458 C   0  0  0  0  0  0  0  0  0  0  0  0
   24.6232  -19.4183  -20.0477 C   0  0  0  0  0  0  0  0  0  0  0  0
   25.3815  -19.5888  -21.2019 C   0  0  0  0  0  0  0  0  0  0  0  0
   25.2050  -18.5561  -22.0103 N   0  0  0  0  0  0  0  0  0  0  0  0
   24.3353  -17.6940  -21.4080 C   0  0  0  0  0  0  0  0  0  0  0  0
   23.8160  -16.4813  -21.7844 C   0  0  0  0  0  0  0  0  0  0  0  0
   22.9420  -15.7947  -20.9614 C   0  0  0  0  0  0  0  0  0  0  0  0
   22.5555  -16.2844  -19.7426 C   0  0  0  0  0  0  0  0  0  0  0  0
   23.0840  -17.5146  -19.3642 C   0  0  0  0  0  0  0  0  0  0  0  0
   23.9587  -18.2212  -20.1700 C   0  0  0  0  0  0  0  0  0  0  0  0
   25.2915  -20.9404  -16.6032 C   0  0  0  0  0  0  0  0  0  0  0  0
   25.5238  -22.1786  -16.4165 O   0  0  0  0  0  0  0  0  0  0  0  0
   24.7563  -20.2592  -15.4696 N   0  0  0  0  0  0  0  0  0  0  0  0
   24.3984  -20.9955  -14.2249 C   0  0  1  0  0  0  0  0  0  0  0  0
   24.8431  -20.1167  -13.1249 C   0  0  0  0  0  0  0  0  0  0  0  0
   24.5280  -20.4903  -11.7543 C   0  0  0  0  0  0  0  0  0  0  0  0
   25.4694  -21.0496  -10.9175 C   0  0  0  0  0  0  0  0  0  0  0  0
   25.1836  -21.3791   -9.5988 C   0  0  0  0  0  0  0  0  0  0  0  0
   23.9343  -21.1460   -9.1056 C   0  0  0  0  0  0  0  0  0  0  0  0
   22.9750  -20.5907   -9.9120 C   0  0  0  0  0  0  0  0  0  0  0  0
   23.2806  -20.2669  -11.2320 C   0  0  0  0  0  0  0  0  0  0  0  0
   22.9368  -21.1676  -14.2470 C   0  0  0  0  0  0  0  0  0  0  0  0
   22.2471  -20.1613  -14.6514 O   0  0  0  0  0  0  0  0  0  0  0  0
   19.6811  -27.6583  -15.7310 N   0  0  0  0  0  0  0  0  0  0  0  0
   20.8749  -27.6452  -14.9334 C   0  0  0  0  0  0  0  0  0  0  0  0
   21.8644  -28.3995  -15.2718 N   0  0  0  0  0  0  0  0  0  0  0  0
   20.9915  -26.8275  -13.7900 N   0  0  0  0  0  0  0  0  0  0  0  0
   20.2448  -25.5847  -13.6820 C   0  0  0  0  0  0  0  0  0  0  0  0
   20.8457  -24.6322  -14.6627 C   0  0  0  0  0  0  0  0  0  0  0  0
   20.1657  -23.3306  -14.7247 C   0  0  0  0  0  0  0  0  0  0  0  0
   20.7555  -22.2689  -13.8399 C   0  0  2  0  0  0  0  0  0  0  0  0
   22.1988  -22.3007  -13.8873 N   0  0  0  0  0  0  0  0  0  0  0  0
   20.2155  -22.1913  -12.4853 C   0  0  0  0  0  0  0  0  0  0  0  0
   20.8946  -22.6610  -11.5119 O   0  0  0  0  0  0  0  0  0  0  0  0
   19.0012  -21.6425  -12.1545 O   0  0  0  0  0  0  0  0  0  0  0  0
  2  1  1  6
  2  3  1  0
  3  4  1  0
  4 12  1  0
  4  5  2  0
  5  6  1  0
  7  6  1  0
  7  8  2  0
  9  8  1  0
 10  9  2  0
 11 10  1  0
 11 12  2  0
 12  7  1  0
 13  2  1  0
 14 13  2  0
 15 13  1  0
 16 17  1  1
 16 15  1  0
 17 18  1  0
 18 19  2  0
 19 20  1  0
 21 20  2  0
 22 21  1  0
 23 22  2  0
 23 18  1  0
 24 34  1  0
 24 16  1  0
 25 24  2  0
 27 28  2  0
 27 26  1  0
 29 27  1  0
 30 29  1  0
 31 30  1  0
 33 32  1  1
 32 31  1  0
 33 34  1  0
 35 33  1  0
 35 37  1  0
 36 35  2  0
M  END
$$$$
