WFR.pdb
     RDKit          3D

 37 39  0  0  1  0  0  0  0  0999 V2000
   28.4765  -21.2067  -16.0968 N   0  0  0  0  0  0  0  0  0  0  0  0
   27.7653  -20.1632  -15.3230 C   0  0  1  0  0  0  0  0  0  0  0  0
   26.8458  -19.4937  -16.2666 C   0  0  0  0  0  0  0  0  0  0  0  0
   27.4037  -18.4736  -17.1477 C   0  0  0  0  0  0  0  0  0  0  0  0
   27.8036  -18.6830  -18.4640 C   0  0  0  0  0  0  0  0  0  0  0  0
   28.2329  -17.5461  -18.9879 N   0  0  0  0  0  0  0  0  0  0  0  0
   28.1249  -16.5760  -18.0341 C   0  0  0  0  0  0  0  0  0  0  0  0
   28.4291  -15.2384  -18.0283 C   0  0  0  0  0  0  0  0  0  0  0  0
   28.2279  -14.4673  -16.8980 C   0  0  0  0  0  0  0  0  0  0  0  0
   27.7211  -14.9940  -15.7401 C   0  0  0  0  0  0  0  0  0  0  0  0
   27.4135  -16.3509  -15.7497 C   0  0  0  0  0  0  0  0  0  0  0  0
   27.6045  -17.1428  -16.8677 C   0  0  0  0  0  0  0  0  0  0  0  0
   27.2087  -20.7960  -14.1352 C   0  0  0  0  0  0  0  0  0  0  0  0
   26.8196  -22.0081  -14.0959 O   0  0  0  0  0  0  0  0  0  0  0  0
   27.0572  -20.0837  -12.9084 N   0  0  0  0  0  0  0  0  0  0  0  0
   26.4663  -20.7350  -11.7058 C   0  0  1  0  0  0  0  0  0  0  0  0
   26.9303  -19.9178  -10.5671 C   0  0  0  0  0  0  0  0  0  0  0  0
   26.5782  -20.3285   -9.2162 C   0  0  0  0  0  0  0  0  0  0  0  0
   27.5360  -20.5568   -8.2519 C   0  0  0  0  0  0  0  0  0  0  0  0
   27.2050  -20.9182   -6.9522 C   0  0  0  0  0  0  0  0  0  0  0  0
   25.8930  -21.0545   -6.6082 C   0  0  0  0  0  0  0  0  0  0  0  0
   24.9158  -20.8345   -7.5441 C   0  0  0  0  0  0  0  0  0  0  0  0
   25.2675  -20.4727   -8.8425 C   0  0  0  0  0  0  0  0  0  0  0  0
   25.0053  -20.6788  -11.8757 C   0  0  0  0  0  0  0  0  0  0  0  0
   24.5287  -19.6002  -12.3870 O   0  0  0  0  0  0  0  0  0  0  0  0
   18.7397  -23.4436  -16.8146 N   0  0  0  0  0  0  0  0  0  0  0  0
   19.6646  -22.3559  -16.9653 C   0  0  0  0  0  0  0  0  0  0  0  0
   19.4746  -21.4958  -17.9070 N   0  0  0  0  0  0  0  0  0  0  0  0
   20.7750  -22.2052  -16.1086 N   0  0  0  0  0  0  0  0  0  0  0  0
   20.6971  -22.5959  -14.7103 C   0  0  0  0  0  0  0  0  0  0  0  0
   22.0108  -22.2492  -14.0903 C   0  0  0  0  0  0  0  0  0  0  0  0
   22.0958  -22.5623  -12.6567 C   0  0  0  0  0  0  0  0  0  0  0  0
   22.6554  -21.4595  -11.8031 C   0  0  2  0  0  0  0  0  0  0  0  0
   24.0638  -21.6630  -11.5550 N   0  0  0  0  0  0  0  0  0  0  0  0
   21.8913  -21.1272  -10.6038 C   0  0  0  0  0  0  0  0  0  0  0  0
   20.6597  -20.8104  -10.7130 O   0  0  0  0  0  0  0  0  0  0  0  0
   22.3968  -21.1225   -9.3272 O   0  0  0  0  0  0  0  0  0  0  0  0
  2  1  1  6
  2  3  1  0
  3  4  1  0
  4 12  1  0
  4  5  2  0
  5  6  1  0
  7  6  1  0
  7  8  2  0
  9  8  1  0
 10  9  2  0
 11 10  1  0
 11 12  2  0
 12  7  1  0
 13  2  1  0
 14 13  2  0
 15 13  1  0
 16 17  1  1
 16 15  1  0
 17 18  1  0
 18 19  2  0
 19 20  1  0
 21 20  2  0
 22 21  1  0
 23 22  2  0
 23 18  1  0
 24 34  1  0
 24 16  1  0
 25 24  2  0
 27 28  2  0
 27 26  1  0
 29 27  1  0
 30 29  1  0
 31 30  1  0
 33 32  1  1
 32 31  1  0
 33 34  1  0
 35 33  1  0
 35 37  1  0
 36 35  2  0
M  END
$$$$
