WFR.pdb
     RDKit          3D

 37 39  0  0  1  0  0  0  0  0999 V2000
   23.0194  -20.4308  -10.9860 N   0  0  0  0  0  0  0  0  0  0  0  0
   23.5833  -20.8118  -12.3014 C   0  0  1  0  0  0  0  0  0  0  0  0
   22.7245  -20.1810  -13.3254 C   0  0  0  0  0  0  0  0  0  0  0  0
   21.3481  -20.6513  -13.4389 C   0  0  0  0  0  0  0  0  0  0  0  0
   20.2148  -19.8660  -13.2515 C   0  0  0  0  0  0  0  0  0  0  0  0
   19.1278  -20.5917  -13.4591 N   0  0  0  0  0  0  0  0  0  0  0  0
   19.5223  -21.8572  -13.7836 C   0  0  0  0  0  0  0  0  0  0  0  0
   18.8268  -23.0006  -14.0847 C   0  0  0  0  0  0  0  0  0  0  0  0
   19.4875  -24.1810  -14.3723 C   0  0  0  0  0  0  0  0  0  0  0  0
   20.8541  -24.2676  -14.3707 C   0  0  0  0  0  0  0  0  0  0  0  0
   21.5562  -23.1059  -14.0652 C   0  0  0  0  0  0  0  0  0  0  0  0
   20.9185  -21.9130  -13.7752 C   0  0  0  0  0  0  0  0  0  0  0  0
   25.0031  -20.4881  -12.2843 C   0  0  0  0  0  0  0  0  0  0  0  0
   25.4712  -19.3808  -11.8640 O   0  0  0  0  0  0  0  0  0  0  0  0
   25.9872  -21.4106  -12.7491 N   0  0  0  0  0  0  0  0  0  0  0  0
   27.4417  -21.1049  -12.6451 C   0  0  1  0  0  0  0  0  0  0  0  0
   27.9296  -21.9595  -11.5444 C   0  0  0  0  0  0  0  0  0  0  0  0
   27.8395  -21.4673  -10.1780 C   0  0  0  0  0  0  0  0  0  0  0  0
   26.6264  -21.2538   -9.5599 C   0  0  0  0  0  0  0  0  0  0  0  0
   26.5338  -20.8143   -8.2454 C   0  0  0  0  0  0  0  0  0  0  0  0
   27.6736  -20.5834   -7.5343 C   0  0  0  0  0  0  0  0  0  0  0  0
   28.8962  -20.7862   -8.1201 C   0  0  0  0  0  0  0  0  0  0  0  0
   28.9688  -21.2273   -9.4394 C   0  0  0  0  0  0  0  0  0  0  0  0
   28.0384  -21.4670  -13.9409 C   0  0  0  0  0  0  0  0  0  0  0  0
   27.5030  -22.4566  -14.5621 O   0  0  0  0  0  0  0  0  0  0  0  0
   35.0599  -24.3782  -14.9039 N   0  0  0  0  0  0  0  0  0  0  0  0
   34.0844  -24.4626  -13.8538 C   0  0  0  0  0  0  0  0  0  0  0  0
   34.4829  -24.6228  -12.6380 N   0  0  0  0  0  0  0  0  0  0  0  0
   32.7020  -24.3741  -14.1196 N   0  0  0  0  0  0  0  0  0  0  0  0
   32.2147  -24.1542  -15.4717 C   0  0  0  0  0  0  0  0  0  0  0  0
   30.9009  -23.4546  -15.3498 C   0  0  0  0  0  0  0  0  0  0  0  0
   30.9550  -22.0218  -15.6731 C   0  0  0  0  0  0  0  0  0  0  0  0
   29.6152  -21.3647  -15.8488 C   0  0  2  0  0  0  0  0  0  0  0  0
   29.1190  -20.8595  -14.5898 N   0  0  0  0  0  0  0  0  0  0  0  0
   28.6242  -22.1233  -16.6070 C   0  0  0  0  0  0  0  0  0  0  0  0
   28.1846  -23.2256  -16.1368 O   0  0  0  0  0  0  0  0  0  0  0  0
   28.1077  -21.7457  -17.8218 O   0  0  0  0  0  0  0  0  0  0  0  0
  2  1  1  1
  2  3  1  0
  3  4  1  0
  4 12  1  0
  4  5  2  0
  5  6  1  0
  7  6  1  0
  7  8  2  0
  9  8  1  0
 10  9  2  0
 11 10  1  0
 11 12  2  0
 12  7  1  0
 13  2  1  0
 14 13  2  0
 15 13  1  0
 16 17  1  1
 16 15  1  0
 17 18  1  0
 18 19  2  0
 19 20  1  0
 21 20  2  0
 22 21  1  0
 23 22  2  0
 23 18  1  0
 24 34  1  0
 24 16  1  0
 25 24  2  0
 27 28  2  0
 27 26  1  0
 29 27  1  0
 30 29  1  0
 31 30  1  0
 33 32  1  1
 32 31  1  0
 33 34  1  0
 35 33  1  0
 35 37  1  0
 36 35  2  0
M  END
$$$$
