WFR.pdb
     RDKit          3D

 37 39  0  0  1  0  0  0  0  0999 V2000
   28.8253  -20.6945  -14.5899 N   0  0  0  0  0  0  0  0  0  0  0  0
   27.6028  -19.9061  -14.3115 C   0  0  1  0  0  0  0  0  0  0  0  0
   27.1284  -19.3925  -15.6134 C   0  0  0  0  0  0  0  0  0  0  0  0
   27.7690  -18.1936  -16.1431 C   0  0  0  0  0  0  0  0  0  0  0  0
   28.4343  -18.1126  -17.3626 C   0  0  0  0  0  0  0  0  0  0  0  0
   28.8702  -16.8778  -17.5538 N   0  0  0  0  0  0  0  0  0  0  0  0
   28.5034  -16.1299  -16.4727 C   0  0  0  0  0  0  0  0  0  0  0  0
   28.6978  -14.8126  -16.1430 C   0  0  0  0  0  0  0  0  0  0  0  0
   28.2204  -14.2991  -14.9510 C   0  0  0  0  0  0  0  0  0  0  0  0
   27.5377  -15.0708  -14.0491 C   0  0  0  0  0  0  0  0  0  0  0  0
   27.3423  -16.4063  -14.3869 C   0  0  0  0  0  0  0  0  0  0  0  0
   27.8089  -16.9432  -15.5734 C   0  0  0  0  0  0  0  0  0  0  0  0
   26.7085  -20.7414  -13.5219 C   0  0  0  0  0  0  0  0  0  0  0  0
   26.6556  -22.0102  -13.6191 O   0  0  0  0  0  0  0  0  0  0  0  0
   25.8099  -20.1812  -12.5657 N   0  0  0  0  0  0  0  0  0  0  0  0
   24.9478  -21.0495  -11.7157 C   0  0  1  0  0  0  0  0  0  0  0  0
   24.9890  -20.4284  -10.3770 C   0  0  0  0  0  0  0  0  0  0  0  0
   26.2442  -20.4251   -9.6409 C   0  0  0  0  0  0  0  0  0  0  0  0
   26.4503  -19.5989   -8.5573 C   0  0  0  0  0  0  0  0  0  0  0  0
   27.6344  -19.6136   -7.8312 C   0  0  0  0  0  0  0  0  0  0  0  0
   28.6319  -20.4691   -8.1935 C   0  0  0  0  0  0  0  0  0  0  0  0
   28.4585  -21.3041   -9.2667 C   0  0  0  0  0  0  0  0  0  0  0  0
   27.2638  -21.2749   -9.9825 C   0  0  0  0  0  0  0  0  0  0  0  0
   23.6014  -21.0103  -12.3092 C   0  0  0  0  0  0  0  0  0  0  0  0
   23.1637  -19.8544  -12.6617 O   0  0  0  0  0  0  0  0  0  0  0  0
   21.3960  -27.3238  -11.9525 N   0  0  0  0  0  0  0  0  0  0  0  0
   20.0021  -27.0807  -11.7091 C   0  0  0  0  0  0  0  0  0  0  0  0
   19.4223  -27.6806  -10.7259 N   0  0  0  0  0  0  0  0  0  0  0  0
   19.2523  -26.2018  -12.5184 N   0  0  0  0  0  0  0  0  0  0  0  0
   19.9020  -25.3726  -13.5204 C   0  0  0  0  0  0  0  0  0  0  0  0
   20.2638  -24.0878  -12.8505 C   0  0  0  0  0  0  0  0  0  0  0  0
   20.8856  -23.1018  -13.7459 C   0  0  0  0  0  0  0  0  0  0  0  0
   21.4025  -21.8678  -13.0620 C   0  0  2  0  0  0  0  0  0  0  0  0
   22.7346  -22.0829  -12.5465 N   0  0  0  0  0  0  0  0  0  0  0  0
   20.4975  -21.2403  -12.1029 C   0  0  0  0  0  0  0  0  0  0  0  0
   19.4075  -20.7210  -12.5168 O   0  0  0  0  0  0  0  0  0  0  0  0
   20.7231  -21.1539  -10.7513 O   0  0  0  0  0  0  0  0  0  0  0  0
  2  1  1  6
  2  3  1  0
  3  4  1  0
  4 12  1  0
  4  5  2  0
  5  6  1  0
  7  6  1  0
  7  8  2  0
  9  8  1  0
 10  9  2  0
 11 10  1  0
 11 12  2  0
 12  7  1  0
 13  2  1  0
 14 13  2  0
 15 13  1  0
 16 17  1  1
 16 15  1  0
 17 18  1  0
 18 19  2  0
 19 20  1  0
 21 20  2  0
 22 21  1  0
 23 22  2  0
 23 18  1  0
 24 34  1  0
 24 16  1  0
 25 24  2  0
 27 28  2  0
 27 26  1  0
 29 27  1  0
 30 29  1  0
 31 30  1  0
 33 32  1  1
 32 31  1  0
 33 34  1  0
 35 33  1  0
 35 37  1  0
 36 35  2  0
M  END
$$$$
