WFR.pdb
     RDKit          3D

 37 39  0  0  1  0  0  0  0  0999 V2000
   27.9288  -20.9278  -16.0531 N   0  0  0  0  0  0  0  0  0  0  0  0
   27.3867  -19.9521  -15.0796 C   0  0  1  0  0  0  0  0  0  0  0  0
   26.0913  -19.4924  -15.6224 C   0  0  0  0  0  0  0  0  0  0  0  0
   26.1190  -18.5710  -16.7531 C   0  0  0  0  0  0  0  0  0  0  0  0
   25.5143  -18.7966  -17.9859 C   0  0  0  0  0  0  0  0  0  0  0  0
   25.7027  -17.7513  -18.7751 N   0  0  0  0  0  0  0  0  0  0  0  0
   26.4291  -16.8265  -18.0825 C   0  0  0  0  0  0  0  0  0  0  0  0
   26.9092  -15.5841  -18.4107 C   0  0  0  0  0  0  0  0  0  0  0  0
   27.6446  -14.8426  -17.5041 C   0  0  0  0  0  0  0  0  0  0  0  0
   27.9282  -15.3059  -16.2471 C   0  0  0  0  0  0  0  0  0  0  0  0
   27.4396  -16.5663  -15.9177 C   0  0  0  0  0  0  0  0  0  0  0  0
   26.7007  -17.3266  -16.8064 C   0  0  0  0  0  0  0  0  0  0  0  0
   27.4106  -20.5791  -13.7653 C   0  0  0  0  0  0  0  0  0  0  0  0
   27.1984  -21.8195  -13.5693 O   0  0  0  0  0  0  0  0  0  0  0  0
   27.6783  -19.8283  -12.5821 N   0  0  0  0  0  0  0  0  0  0  0  0
   27.5993  -20.4580  -11.2341 C   0  0  1  0  0  0  0  0  0  0  0  0
   28.4598  -19.6207  -10.3749 C   0  0  0  0  0  0  0  0  0  0  0  0
   28.4102  -19.8086   -8.9328 C   0  0  0  0  0  0  0  0  0  0  0  0
   27.5987  -19.0404   -8.1262 C   0  0  0  0  0  0  0  0  0  0  0  0
   27.5232  -19.2358   -6.7530 C   0  0  0  0  0  0  0  0  0  0  0  0
   28.2720  -20.2166   -6.1737 C   0  0  0  0  0  0  0  0  0  0  0  0
   29.0895  -20.9983   -6.9481 C   0  0  0  0  0  0  0  0  0  0  0  0
   29.1517  -20.7872   -8.3236 C   0  0  0  0  0  0  0  0  0  0  0  0
   26.1848  -20.4046  -10.8304 C   0  0  0  0  0  0  0  0  0  0  0  0
   25.5852  -19.2791  -10.9899 O   0  0  0  0  0  0  0  0  0  0  0  0
   21.3053  -24.8541  -13.4150 N   0  0  0  0  0  0  0  0  0  0  0  0
   22.6135  -24.5097  -13.8960 C   0  0  0  0  0  0  0  0  0  0  0  0
   23.3518  -25.4279  -14.4199 N   0  0  0  0  0  0  0  0  0  0  0  0
   23.1101  -23.1923  -13.8099 N   0  0  0  0  0  0  0  0  0  0  0  0
   22.3012  -22.1256  -13.2426 C   0  0  0  0  0  0  0  0  0  0  0  0
   23.1717  -21.3881  -12.2789 C   0  0  0  0  0  0  0  0  0  0  0  0
   23.0953  -21.8907  -10.8997 C   0  0  0  0  0  0  0  0  0  0  0  0
   24.0236  -21.2148   -9.9306 C   0  0  2  0  0  0  0  0  0  0  0  0
   25.4031  -21.4357  -10.2977 N   0  0  0  0  0  0  0  0  0  0  0  0
   23.7501  -21.4453   -8.5148 C   0  0  0  0  0  0  0  0  0  0  0  0
   22.6087  -21.1312   -8.0376 O   0  0  0  0  0  0  0  0  0  0  0  0
   24.6415  -21.9852   -7.6208 O   0  0  0  0  0  0  0  0  0  0  0  0
  2  1  1  6
  2  3  1  0
  3  4  1  0
  4 12  1  0
  4  5  2  0
  5  6  1  0
  7  6  1  0
  7  8  2  0
  9  8  1  0
 10  9  2  0
 11 10  1  0
 11 12  2  0
 12  7  1  0
 13  2  1  0
 14 13  2  0
 15 13  1  0
 16 17  1  1
 16 15  1  0
 17 18  1  0
 18 19  2  0
 19 20  1  0
 21 20  2  0
 22 21  1  0
 23 22  2  0
 23 18  1  0
 24 34  1  0
 24 16  1  0
 25 24  2  0
 27 28  2  0
 27 26  1  0
 29 27  1  0
 30 29  1  0
 31 30  1  0
 33 32  1  6
 32 31  1  0
 33 34  1  0
 35 33  1  0
 35 37  1  0
 36 35  2  0
M  END
$$$$
