WFR.pdb
     RDKit          3D

 37 39  0  0  1  0  0  0  0  0999 V2000
   26.2963  -22.4385  -10.2768 N   0  0  0  0  0  0  0  0  0  0  0  0
   26.6452  -21.0625  -10.6991 C   0  0  1  0  0  0  0  0  0  0  0  0
   28.1098  -20.9353  -10.5484 C   0  0  0  0  0  0  0  0  0  0  0  0
   28.6704  -21.1010   -9.2117 C   0  0  0  0  0  0  0  0  0  0  0  0
   29.8315  -21.8067   -8.9114 C   0  0  0  0  0  0  0  0  0  0  0  0
   30.0758  -21.7351   -7.6128 N   0  0  0  0  0  0  0  0  0  0  0  0
   29.0883  -20.9879   -7.0393 C   0  0  0  0  0  0  0  0  0  0  0  0
   28.8417  -20.6073   -5.7447 C   0  0  0  0  0  0  0  0  0  0  0  0
   27.7359  -19.8402   -5.4264 C   0  0  0  0  0  0  0  0  0  0  0  0
   26.8407  -19.4268   -6.3765 C   0  0  0  0  0  0  0  0  0  0  0  0
   27.0941  -19.8145   -7.6884 C   0  0  0  0  0  0  0  0  0  0  0  0
   28.1936  -20.5804   -8.0322 C   0  0  0  0  0  0  0  0  0  0  0  0
   26.0560  -20.8404  -12.0123 C   0  0  0  0  0  0  0  0  0  0  0  0
   25.6037  -21.7734  -12.7518 O   0  0  0  0  0  0  0  0  0  0  0  0
   25.9447  -19.5326  -12.5717 N   0  0  0  0  0  0  0  0  0  0  0  0
   25.5510  -19.3329  -13.9947 C   0  0  1  0  0  0  0  0  0  0  0  0
   24.5312  -18.2660  -13.9585 C   0  0  0  0  0  0  0  0  0  0  0  0
   23.8959  -17.8569  -15.2021 C   0  0  0  0  0  0  0  0  0  0  0  0
   24.3014  -16.7348  -15.8918 C   0  0  0  0  0  0  0  0  0  0  0  0
   23.7203  -16.3568  -17.0955 C   0  0  0  0  0  0  0  0  0  0  0  0
   22.7152  -17.1130  -17.6209 C   0  0  0  0  0  0  0  0  0  0  0  0
   22.2886  -18.2354  -16.9596 C   0  0  0  0  0  0  0  0  0  0  0  0
   22.8838  -18.5985  -15.7536 C   0  0  0  0  0  0  0  0  0  0  0  0
   26.7684  -18.9187  -14.7107 C   0  0  0  0  0  0  0  0  0  0  0  0
   27.0268  -17.6597  -14.7216 O   0  0  0  0  0  0  0  0  0  0  0  0
   26.8920  -26.2339  -16.1381 N   0  0  0  0  0  0  0  0  0  0  0  0
   26.7843  -25.4604  -17.3429 C   0  0  0  0  0  0  0  0  0  0  0  0
   26.1543  -25.9558  -18.3530 N   0  0  0  0  0  0  0  0  0  0  0  0
   27.3499  -24.1725  -17.4480 N   0  0  0  0  0  0  0  0  0  0  0  0
   27.9974  -23.5465  -16.3067 C   0  0  0  0  0  0  0  0  0  0  0  0
   28.5086  -22.2225  -16.7715 C   0  0  0  0  0  0  0  0  0  0  0  0
   27.4558  -21.2992  -17.2183 C   0  0  0  0  0  0  0  0  0  0  0  0
   27.6633  -19.8659  -16.8176 C   0  0  2  0  0  0  0  0  0  0  0  0
   27.6909  -19.7307  -15.3797 N   0  0  0  0  0  0  0  0  0  0  0  0
   26.8092  -18.8851  -17.4818 C   0  0  0  0  0  0  0  0  0  0  0  0
   25.5427  -19.0423  -17.4635 O   0  0  0  0  0  0  0  0  0  0  0  0
   27.2621  -17.7736  -18.1486 O   0  0  0  0  0  0  0  0  0  0  0  0
  2  1  1  6
  2  3  1  0
  3  4  1  0
  4 12  1  0
  4  5  2  0
  5  6  1  0
  7  6  1  0
  7  8  2  0
  9  8  1  0
 10  9  2  0
 11 10  1  0
 11 12  2  0
 12  7  1  0
 13  2  1  0
 14 13  2  0
 15 13  1  0
 16 17  1  1
 16 15  1  0
 17 18  1  0
 18 19  2  0
 19 20  1  0
 21 20  2  0
 22 21  1  0
 23 22  2  0
 23 18  1  0
 24 34  1  0
 24 16  1  0
 25 24  2  0
 27 28  2  0
 27 26  1  0
 29 27  1  0
 30 29  1  0
 31 30  1  0
 33 32  1  1
 32 31  1  0
 33 34  1  0
 35 33  1  0
 35 37  1  0
 36 35  2  0
M  END
$$$$
