WFR.pdb
     RDKit          3D

 37 39  0  0  1  0  0  0  0  0999 V2000
   28.0874  -18.7889  -13.0263 N   0  0  0  0  0  0  0  0  0  0  0  0
   27.0358  -19.2501  -13.9617 C   0  0  1  0  0  0  0  0  0  0  0  0
   27.7081  -19.5202  -15.2497 C   0  0  0  0  0  0  0  0  0  0  0  0
   28.1476  -18.3740  -16.0381 C   0  0  0  0  0  0  0  0  0  0  0  0
   28.8570  -18.4478  -17.2330 C   0  0  0  0  0  0  0  0  0  0  0  0
   29.0692  -17.2294  -17.7038 N   0  0  0  0  0  0  0  0  0  0  0  0
   28.5085  -16.3389  -16.8348 C   0  0  0  0  0  0  0  0  0  0  0  0
   28.4378  -14.9690  -16.8223 C   0  0  0  0  0  0  0  0  0  0  0  0
   27.8052  -14.2980  -15.7917 C   0  0  0  0  0  0  0  0  0  0  0  0
   27.2242  -14.9595  -14.7429 C   0  0  0  0  0  0  0  0  0  0  0  0
   27.2976  -16.3487  -14.7590 C   0  0  0  0  0  0  0  0  0  0  0  0
   27.9236  -17.0428  -15.7788 C   0  0  0  0  0  0  0  0  0  0  0  0
   26.3100  -20.3326  -13.3118 C   0  0  0  0  0  0  0  0  0  0  0  0
   26.5257  -21.5667  -13.5410 O   0  0  0  0  0  0  0  0  0  0  0  0
   25.2842  -20.0772  -12.3537 N   0  0  0  0  0  0  0  0  0  0  0  0
   24.4861  -21.1879  -11.7629 C   0  0  1  0  0  0  0  0  0  0  0  0
   24.6004  -21.0002  -10.3029 C   0  0  0  0  0  0  0  0  0  0  0  0
   25.9239  -20.8827   -9.7097 C   0  0  0  0  0  0  0  0  0  0  0  0
   26.9139  -21.8111   -9.9491 C   0  0  0  0  0  0  0  0  0  0  0  0
   28.1887  -21.6878   -9.4114 C   0  0  0  0  0  0  0  0  0  0  0  0
   28.4812  -20.6174   -8.6197 C   0  0  0  0  0  0  0  0  0  0  0  0
   27.5187  -19.6759   -8.3621 C   0  0  0  0  0  0  0  0  0  0  0  0
   26.2459  -19.8169   -8.9104 C   0  0  0  0  0  0  0  0  0  0  0  0
   23.1059  -21.0119  -12.2429 C   0  0  0  0  0  0  0  0  0  0  0  0
   22.2904  -20.4254  -11.4412 O   0  0  0  0  0  0  0  0  0  0  0  0
   20.3101  -28.5459  -11.6678 N   0  0  0  0  0  0  0  0  0  0  0  0
   19.1542  -27.7096  -11.8283 C   0  0  0  0  0  0  0  0  0  0  0  0
   17.9808  -28.2392  -11.7550 N   0  0  0  0  0  0  0  0  0  0  0  0
   19.2709  -26.3237  -12.0635 N   0  0  0  0  0  0  0  0  0  0  0  0
   20.5761  -25.6890  -12.1509 C   0  0  0  0  0  0  0  0  0  0  0  0
   20.3838  -24.4037  -12.8868 C   0  0  0  0  0  0  0  0  0  0  0  0
   21.5628  -23.5261  -12.8739 C   0  0  0  0  0  0  0  0  0  0  0  0
   21.3669  -22.1980  -13.5490 C   0  0  2  0  0  0  0  0  0  0  0  0
   22.5681  -21.3993  -13.4753 N   0  0  0  0  0  0  0  0  0  0  0  0
   20.1550  -21.4681  -13.1869 C   0  0  0  0  0  0  0  0  0  0  0  0
   20.0980  -20.8662  -12.0628 O   0  0  0  0  0  0  0  0  0  0  0  0
   19.0332  -21.3703  -13.9726 O   0  0  0  0  0  0  0  0  0  0  0  0
  2  1  1  1
  2  3  1  0
  3  4  1  0
  4 12  1  0
  4  5  2  0
  5  6  1  0
  7  6  1  0
  7  8  2  0
  9  8  1  0
 10  9  2  0
 11 10  1  0
 11 12  2  0
 12  7  1  0
 13  2  1  0
 14 13  2  0
 15 13  1  0
 16 17  1  1
 16 15  1  0
 17 18  1  0
 18 19  2  0
 19 20  1  0
 21 20  2  0
 22 21  1  0
 23 22  2  0
 23 18  1  0
 24 34  1  0
 24 16  1  0
 25 24  2  0
 27 28  2  0
 27 26  1  0
 29 27  1  0
 30 29  1  0
 31 30  1  0
 33 32  1  1
 32 31  1  0
 33 34  1  0
 35 33  1  0
 35 37  1  0
 36 35  2  0
M  END
$$$$
