WFR.pdb
     RDKit          3D

 37 39  0  0  1  0  0  0  0  0999 V2000
   20.8521  -20.1999  -12.1287 N   0  0  0  0  0  0  0  0  0  0  0  0
   21.6433  -21.0328  -13.0634 C   0  0  1  0  0  0  0  0  0  0  0  0
   20.9335  -21.0003  -14.3592 C   0  0  0  0  0  0  0  0  0  0  0  0
   19.6194  -21.6302  -14.4280 C   0  0  0  0  0  0  0  0  0  0  0  0
   18.4228  -20.9634  -14.6727 C   0  0  0  0  0  0  0  0  0  0  0  0
   17.4242  -21.8312  -14.7007 N   0  0  0  0  0  0  0  0  0  0  0  0
   17.9406  -23.0744  -14.4765 C   0  0  0  0  0  0  0  0  0  0  0  0
   17.3687  -24.3183  -14.3908 C   0  0  0  0  0  0  0  0  0  0  0  0
   18.1375  -25.4396  -14.1374 C   0  0  0  0  0  0  0  0  0  0  0  0
   19.4934  -25.3658  -13.9605 C   0  0  0  0  0  0  0  0  0  0  0  0
   20.0700  -24.1027  -14.0484 C   0  0  0  0  0  0  0  0  0  0  0  0
   19.3227  -22.9665  -14.3020 C   0  0  0  0  0  0  0  0  0  0  0  0
   23.0225  -20.5682  -13.0103 C   0  0  0  0  0  0  0  0  0  0  0  0
   23.3537  -19.3394  -12.9606 O   0  0  0  0  0  0  0  0  0  0  0  0
   24.1204  -21.4793  -13.0119 N   0  0  0  0  0  0  0  0  0  0  0  0
   25.5276  -20.9920  -13.0548 C   0  0  1  0  0  0  0  0  0  0  0  0
   26.1565  -21.5456  -11.8391 C   0  0  0  0  0  0  0  0  0  0  0  0
   25.8215  -20.9660  -10.5471 C   0  0  0  0  0  0  0  0  0  0  0  0
   24.8817  -21.5355   -9.7155 C   0  0  0  0  0  0  0  0  0  0  0  0
   24.5803  -21.0050   -8.4676 C   0  0  0  0  0  0  0  0  0  0  0  0
   25.2294  -19.8845   -8.0415 C   0  0  0  0  0  0  0  0  0  0  0  0
   26.1699  -19.2937   -8.8448 C   0  0  0  0  0  0  0  0  0  0  0  0
   26.4585  -19.8405  -10.0930 C   0  0  0  0  0  0  0  0  0  0  0  0
   26.1204  -21.5351  -14.2878 C   0  0  0  0  0  0  0  0  0  0  0  0
   25.5285  -22.5494  -14.8099 O   0  0  0  0  0  0  0  0  0  0  0  0
   25.8942  -16.6998  -19.8049 N   0  0  0  0  0  0  0  0  0  0  0  0
   25.2378  -17.6885  -20.6130 C   0  0  0  0  0  0  0  0  0  0  0  0
   25.1484  -17.5010  -21.8856 N   0  0  0  0  0  0  0  0  0  0  0  0
   24.6891  -18.8592  -20.0490 N   0  0  0  0  0  0  0  0  0  0  0  0
   24.6478  -19.0445  -18.6075 C   0  0  0  0  0  0  0  0  0  0  0  0
   25.8765  -19.8067  -18.2338 C   0  0  0  0  0  0  0  0  0  0  0  0
   25.9795  -20.1073  -16.7987 C   0  0  0  0  0  0  0  0  0  0  0  0
   27.2221  -20.8513  -16.3985 C   0  0  2  0  0  0  0  0  0  0  0  0
   27.2517  -21.0772  -14.9721 N   0  0  0  0  0  0  0  0  0  0  0  0
   28.4783  -20.3358  -16.9361 C   0  0  0  0  0  0  0  0  0  0  0  0
   28.8801  -19.1755  -16.5874 O   0  0  0  0  0  0  0  0  0  0  0  0
   29.2914  -21.0090  -17.8141 O   0  0  0  0  0  0  0  0  0  0  0  0
  2  1  1  1
  2  3  1  0
  3  4  1  0
  4 12  1  0
  4  5  2  0
  5  6  1  0
  7  6  1  0
  7  8  2  0
  9  8  1  0
 10  9  2  0
 11 10  1  0
 11 12  2  0
 12  7  1  0
 13  2  1  0
 14 13  2  0
 15 13  1  0
 16 17  1  1
 16 15  1  0
 17 18  1  0
 18 19  2  0
 19 20  1  0
 21 20  2  0
 22 21  1  0
 23 22  2  0
 23 18  1  0
 24 34  1  0
 24 16  1  0
 25 24  2  0
 27 28  2  0
 27 26  1  0
 29 27  1  0
 30 29  1  0
 31 30  1  0
 33 32  1  1
 32 31  1  0
 33 34  1  0
 35 33  1  0
 35 37  1  0
 36 35  2  0
M  END
$$$$
