CSP.pdb
     RDKit          3D

 20 20  0  0  1  0  0  0  0  0999 V2000
    7.7726  -17.5459   19.5084 N   0  0  0  0  0  0  0  0  0  0  0  0
    8.5505  -16.9923   20.6002 C   0  0  1  0  0  0  0  0  0  0  0  0
    9.4399  -15.9194   20.0065 C   0  0  0  0  0  0  0  0  0  0  0  0
   10.8513  -16.7785   19.2344 S   0  0  0  0  0  0  0  0  0  0  0  0
    7.6524  -16.4209   21.6370 C   0  0  0  0  0  0  0  0  0  0  0  0
    6.4160  -16.5288   21.4813 O   0  0  0  0  0  0  0  0  0  0  0  0
    7.7990  -17.3284   24.8808 O   0  0  0  0  0  0  0  0  0  0  0  0
    6.6604  -16.6398   24.4125 C   0  0  0  0  0  0  0  0  0  0  0  0
    7.2298  -15.3063   23.8809 C   0  0  2  0  0  0  0  0  0  0  0  0
    8.1123  -15.7628   22.7883 N   0  0  0  0  0  0  0  0  0  0  0  0
    7.9977  -14.6667   24.9459 C   0  0  0  0  0  0  0  0  0  0  0  0
    9.1407  -15.1755   25.2048 O   0  0  0  0  0  0  0  0  0  0  0  0
    7.5775  -13.5490   25.6926 N   0  0  0  0  0  0  0  0  0  0  0  0
    6.3586  -12.7815   25.5653 C   0  0  0  0  0  0  0  0  0  0  0  0
    6.0964  -12.4481   27.0376 C   0  0  0  0  0  0  0  0  0  0  0  0
    7.4841  -11.9248   27.4183 C   0  0  0  0  0  0  0  0  0  0  0  0
    8.3773  -12.9683   26.7912 C   0  0  1  0  0  0  0  0  0  0  0  0
    8.6388  -14.0401   27.7982 C   0  0  0  0  0  0  0  0  0  0  0  0
    9.6245  -13.8868   28.7538 O   0  0  0  0  0  0  0  0  0  0  0  0
    7.9711  -15.1029   27.8005 O   0  0  0  0  0  0  0  0  0  0  0  0
  2  5  1  0
  2  1  1  6
  3  2  1  0
  4  3  1  0
  5  6  2  0
  7  8  1  0
  9  8  1  1
 10  9  1  0
 10  5  1  0
 11 12  2  0
 11  9  1  0
 13 11  1  0
 14 13  1  0
 15 14  1  0
 16 15  1  0
 16 17  1  0
 17 18  1  1
 17 13  1  0
 18 19  1  0
 20 18  2  0
M  END
$$$$
