CSP.pdb
     RDKit          3D

 20 20  0  0  1  0  0  0  0  0999 V2000
    6.7269  -15.5658   19.9434 N   0  0  0  0  0  0  0  0  0  0  0  0
    7.8822  -15.6871   20.8117 C   0  0  1  0  0  0  0  0  0  0  0  0
    8.9215  -14.7112   20.2996 C   0  0  0  0  0  0  0  0  0  0  0  0
    8.1819  -13.0485   20.4205 S   0  0  0  0  0  0  0  0  0  0  0  0
    7.5089  -15.3739   22.2155 C   0  0  0  0  0  0  0  0  0  0  0  0
    6.6049  -14.5338   22.4197 O   0  0  0  0  0  0  0  0  0  0  0  0
    7.4686  -17.8781   24.6969 O   0  0  0  0  0  0  0  0  0  0  0  0
    6.8637  -16.6995   25.1816 C   0  0  0  0  0  0  0  0  0  0  0  0
    7.8252  -15.5793   24.7281 C   0  0  2  0  0  0  0  0  0  0  0  0
    8.1146  -15.9687   23.3332 N   0  0  0  0  0  0  0  0  0  0  0  0
    9.0305  -15.6344   25.5512 C   0  0  0  0  0  0  0  0  0  0  0  0
    9.8717  -16.5521   25.2640 O   0  0  0  0  0  0  0  0  0  0  0  0
    9.3274  -14.7635   26.6174 N   0  0  0  0  0  0  0  0  0  0  0  0
    8.5949  -13.6008   27.0675 C   0  0  0  0  0  0  0  0  0  0  0  0
    8.8189  -13.7112   28.5792 C   0  0  0  0  0  0  0  0  0  0  0  0
   10.3372  -13.9080   28.5854 C   0  0  0  0  0  0  0  0  0  0  0  0
   10.5084  -14.9325   27.4894 C   0  0  1  0  0  0  0  0  0  0  0  0
   10.4514  -16.2956   28.0974 C   0  0  0  0  0  0  0  0  0  0  0  0
   11.5621  -16.8438   28.7090 O   0  0  0  0  0  0  0  0  0  0  0  0
    9.3958  -16.9741   28.0673 O   0  0  0  0  0  0  0  0  0  0  0  0
  2  5  1  0
  2  1  1  6
  3  2  1  0
  4  3  1  0
  5  6  2  0
  7  8  1  0
  9  8  1  1
 10  9  1  0
 10  5  1  0
 11 12  2  0
 11  9  1  0
 13 11  1  0
 14 13  1  0
 15 14  1  0
 16 15  1  0
 16 17  1  0
 17 18  1  1
 17 13  1  0
 18 19  1  0
 20 18  2  0
M  END
$$$$
