CSP.pdb
     RDKit          3D

 20 20  0  0  1  0  0  0  0  0999 V2000
    8.1913  -17.1681   19.9051 N   0  0  0  0  0  0  0  0  0  0  0  0
    9.2203  -16.8219   20.8668 C   0  0  1  0  0  0  0  0  0  0  0  0
   10.1530  -15.8454   20.1803 C   0  0  0  0  0  0  0  0  0  0  0  0
   11.5034  -15.4979   21.3558 S   0  0  0  0  0  0  0  0  0  0  0  0
    8.6121  -16.2107   22.0770 C   0  0  0  0  0  0  0  0  0  0  0  0
    7.5546  -15.5553   21.9477 O   0  0  0  0  0  0  0  0  0  0  0  0
    8.0517  -17.9107   25.4158 O   0  0  0  0  0  0  0  0  0  0  0  0
    7.3859  -16.8152   24.8271 C   0  0  0  0  0  0  0  0  0  0  0  0
    8.5133  -15.7890   24.5806 C   0  0  2  0  0  0  0  0  0  0  0  0
    9.1575  -16.3261   23.3651 N   0  0  0  0  0  0  0  0  0  0  0  0
    9.4290  -15.8162   25.7180 C   0  0  0  0  0  0  0  0  0  0  0  0
   10.2048  -16.8283   25.7971 O   0  0  0  0  0  0  0  0  0  0  0  0
    9.5181  -14.8247   26.7141 N   0  0  0  0  0  0  0  0  0  0  0  0
    8.7315  -13.6208   26.8660 C   0  0  0  0  0  0  0  0  0  0  0  0
    8.6392  -13.5517   28.3939 C   0  0  0  0  0  0  0  0  0  0  0  0
   10.1200  -13.7387   28.7348 C   0  0  0  0  0  0  0  0  0  0  0  0
   10.4922  -14.8840   27.8238 C   0  0  1  0  0  0  0  0  0  0  0  0
   10.2858  -16.1666   28.5611 C   0  0  0  0  0  0  0  0  0  0  0  0
   11.2284  -16.6240   29.4612 O   0  0  0  0  0  0  0  0  0  0  0  0
    9.2536  -16.8578   28.3809 O   0  0  0  0  0  0  0  0  0  0  0  0
  2  5  1  0
  2  1  1  6
  3  2  1  0
  4  3  1  0
  5  6  2  0
  7  8  1  0
  9  8  1  1
 10  9  1  0
 10  5  1  0
 11 12  2  0
 11  9  1  0
 13 11  1  0
 14 13  1  0
 15 14  1  0
 16 15  1  0
 16 17  1  0
 17 18  1  1
 17 13  1  0
 18 19  1  0
 20 18  2  0
M  END
$$$$
