CSP.pdb
     RDKit          3D

 20 20  0  0  1  0  0  0  0  0999 V2000
   10.0306  -16.2874   13.2597 N   0  0  0  0  0  0  0  0  0  0  0  0
   10.3182  -16.8358   14.5712 C   0  0  1  0  0  0  0  0  0  0  0  0
   11.7721  -16.5295   14.8666 C   0  0  0  0  0  0  0  0  0  0  0  0
   12.7630  -17.7262   13.9115 S   0  0  0  0  0  0  0  0  0  0  0  0
    9.4305  -16.2237   15.5935 C   0  0  0  0  0  0  0  0  0  0  0  0
    9.0018  -15.0653   15.3956 O   0  0  0  0  0  0  0  0  0  0  0  0
    6.4151  -17.0498   19.1786 O   0  0  0  0  0  0  0  0  0  0  0  0
    7.3745  -17.5611   18.2795 C   0  0  0  0  0  0  0  0  0  0  0  0
    8.0938  -16.3000   17.7530 C   0  0  2  0  0  0  0  0  0  0  0  0
    9.0419  -16.8724   16.7759 N   0  0  0  0  0  0  0  0  0  0  0  0
    8.8001  -15.6654   18.8627 C   0  0  0  0  0  0  0  0  0  0  0  0
    9.7588  -16.3327   19.3802 O   0  0  0  0  0  0  0  0  0  0  0  0
    8.5071  -14.3937   19.3920 N   0  0  0  0  0  0  0  0  0  0  0  0
    7.5427  -13.4207   18.9291 C   0  0  0  0  0  0  0  0  0  0  0  0
    7.0814  -12.8411   20.2703 C   0  0  0  0  0  0  0  0  0  0  0  0
    8.4501  -12.5617   20.8971 C   0  0  0  0  0  0  0  0  0  0  0  0
    9.1881  -13.8406   20.5812 C   0  0  1  0  0  0  0  0  0  0  0  0
    8.9985  -14.7936   21.7158 C   0  0  0  0  0  0  0  0  0  0  0  0
    9.7570  -14.6840   22.8650 O   0  0  0  0  0  0  0  0  0  0  0  0
    8.1479  -15.7144   21.6524 O   0  0  0  0  0  0  0  0  0  0  0  0
  2  5  1  0
  2  1  1  6
  3  2  1  0
  4  3  1  0
  5  6  2  0
  7  8  1  0
  9  8  1  1
 10  9  1  0
 10  5  1  0
 11 12  2  0
 11  9  1  0
 13 11  1  0
 14 13  1  0
 15 14  1  0
 16 15  1  0
 16 17  1  0
 17 18  1  1
 17 13  1  0
 18 19  1  0
 20 18  2  0
M  END
$$$$
