CSP.pdb
     RDKit          3D

 20 20  0  0  1  0  0  0  0  0999 V2000
    9.0869  -13.8233   18.3642 N   0  0  0  0  0  0  0  0  0  0  0  0
    9.4905  -14.4196   19.6232 C   0  0  1  0  0  0  0  0  0  0  0  0
   10.9139  -13.9724   19.8851 C   0  0  0  0  0  0  0  0  0  0  0  0
   11.4551  -14.8162   21.4087 S   0  0  0  0  0  0  0  0  0  0  0  0
    8.5875  -13.9777   20.7174 C   0  0  0  0  0  0  0  0  0  0  0  0
    8.2359  -12.7778   20.7537 O   0  0  0  0  0  0  0  0  0  0  0  0
    6.8663  -16.6387   23.3456 O   0  0  0  0  0  0  0  0  0  0  0  0
    6.1500  -15.5471   22.8116 C   0  0  0  0  0  0  0  0  0  0  0  0
    7.1852  -14.4013   22.7935 C   0  0  2  0  0  0  0  0  0  0  0  0
    8.1023  -14.8327   21.7193 N   0  0  0  0  0  0  0  0  0  0  0  0
    7.8667  -14.3647   24.0848 C   0  0  0  0  0  0  0  0  0  0  0  0
    8.7723  -15.2461   24.2731 O   0  0  0  0  0  0  0  0  0  0  0  0
    7.6036  -13.4437   25.1172 N   0  0  0  0  0  0  0  0  0  0  0  0
    6.6460  -12.3605   25.1417 C   0  0  0  0  0  0  0  0  0  0  0  0
    6.2192  -12.4129   26.6123 C   0  0  0  0  0  0  0  0  0  0  0  0
    7.6036  -12.4392   27.2656 C   0  0  0  0  0  0  0  0  0  0  0  0
    8.3155  -13.4614   26.4121 C   0  0  1  0  0  0  0  0  0  0  0  0
    8.1325  -14.8091   27.0295 C   0  0  0  0  0  0  0  0  0  0  0  0
    8.9724  -15.2455   28.0356 O   0  0  0  0  0  0  0  0  0  0  0  0
    7.2138  -15.5756   26.6501 O   0  0  0  0  0  0  0  0  0  0  0  0
  2  5  1  0
  2  1  1  6
  3  2  1  0
  4  3  1  0
  5  6  2  0
  7  8  1  0
  9  8  1  1
 10  9  1  0
 10  5  1  0
 11 12  2  0
 11  9  1  0
 13 11  1  0
 14 13  1  0
 15 14  1  0
 16 15  1  0
 16 17  1  0
 17 18  1  1
 17 13  1  0
 18 19  1  0
 20 18  2  0
M  END
$$$$
