CSP.pdb
     RDKit          3D

 20 20  0  0  1  0  0  0  0  0999 V2000
    6.9256  -17.9425   20.0941 N   0  0  0  0  0  0  0  0  0  0  0  0
    7.4897  -16.7476   20.6920 C   0  0  1  0  0  0  0  0  0  0  0  0
    7.1732  -15.5974   19.7583 C   0  0  0  0  0  0  0  0  0  0  0  0
    7.9087  -14.1031   20.5015 S   0  0  0  0  0  0  0  0  0  0  0  0
    6.9009  -16.5149   22.0363 C   0  0  0  0  0  0  0  0  0  0  0  0
    5.6876  -16.7659   22.2084 O   0  0  0  0  0  0  0  0  0  0  0  0
    7.0799  -17.4647   26.3149 O   0  0  0  0  0  0  0  0  0  0  0  0
    7.1402  -17.4858   24.9057 C   0  0  0  0  0  0  0  0  0  0  0  0
    7.1111  -15.9923   24.5139 C   0  0  2  0  0  0  0  0  0  0  0  0
    7.6302  -16.0270   23.1318 N   0  0  0  0  0  0  0  0  0  0  0  0
    8.0134  -15.2583   25.3972 C   0  0  0  0  0  0  0  0  0  0  0  0
    9.1857  -15.7451   25.5417 O   0  0  0  0  0  0  0  0  0  0  0  0
    7.6906  -14.0733   26.0865 N   0  0  0  0  0  0  0  0  0  0  0  0
    6.4198  -13.3876   26.1623 C   0  0  0  0  0  0  0  0  0  0  0  0
    6.4764  -12.8766   27.6057 C   0  0  0  0  0  0  0  0  0  0  0  0
    7.8700  -12.2429   27.5839 C   0  0  0  0  0  0  0  0  0  0  0  0
    8.6735  -13.3163   26.8894 C   0  0  1  0  0  0  0  0  0  0  0  0
    9.2396  -14.2331   27.9240 C   0  0  0  0  0  0  0  0  0  0  0  0
    8.7034  -15.4903   28.1238 O   0  0  0  0  0  0  0  0  0  0  0  0
   10.2135  -13.8841   28.6348 O   0  0  0  0  0  0  0  0  0  0  0  0
  2  5  1  0
  2  1  1  6
  3  2  1  0
  4  3  1  0
  5  6  2  0
  7  8  1  0
  9  8  1  1
 10  9  1  0
 10  5  1  0
 11 12  2  0
 11  9  1  0
 13 11  1  0
 14 13  1  0
 15 14  1  0
 16 15  1  0
 16 17  1  0
 17 18  1  1
 17 13  1  0
 18 19  1  0
 20 18  2  0
M  END
$$$$
