CSP.pdb
     RDKit          3D

 20 20  0  0  1  0  0  0  0  0999 V2000
    7.9403  -16.1483   18.9328 N   0  0  0  0  0  0  0  0  0  0  0  0
    8.2436  -15.0315   19.8070 C   0  0  1  0  0  0  0  0  0  0  0  0
    7.9594  -13.7681   19.0210 C   0  0  0  0  0  0  0  0  0  0  0  0
    8.2670  -12.3695   20.1502 S   0  0  0  0  0  0  0  0  0  0  0  0
    7.4054  -15.0919   21.0324 C   0  0  0  0  0  0  0  0  0  0  0  0
    6.2139  -15.4569   20.9235 O   0  0  0  0  0  0  0  0  0  0  0  0
    6.5757  -16.8418   24.8778 O   0  0  0  0  0  0  0  0  0  0  0  0
    6.9986  -16.5450   23.5652 C   0  0  0  0  0  0  0  0  0  0  0  0
    7.1124  -15.0050   23.5548 C   0  0  2  0  0  0  0  0  0  0  0  0
    7.8744  -14.7614   22.3134 N   0  0  0  0  0  0  0  0  0  0  0  0
    7.8707  -14.5830   24.7296 C   0  0  0  0  0  0  0  0  0  0  0  0
    8.9636  -15.2059   24.9528 O   0  0  0  0  0  0  0  0  0  0  0  0
    7.4917  -13.5566   25.6164 N   0  0  0  0  0  0  0  0  0  0  0  0
    6.3246  -12.7042   25.5688 C   0  0  0  0  0  0  0  0  0  0  0  0
    6.0334  -12.5642   27.0665 C   0  0  0  0  0  0  0  0  0  0  0  0
    7.4357  -12.1870   27.5518 C   0  0  0  0  0  0  0  0  0  0  0  0
    8.2870  -13.1863   26.8056 C   0  0  1  0  0  0  0  0  0  0  0  0
    8.4518  -14.4025   27.6569 C   0  0  0  0  0  0  0  0  0  0  0  0
    9.4241  -14.4529   28.6368 O   0  0  0  0  0  0  0  0  0  0  0  0
    7.7128  -15.4054   27.5029 O   0  0  0  0  0  0  0  0  0  0  0  0
  2  5  1  0
  2  1  1  6
  3  2  1  0
  4  3  1  0
  5  6  2  0
  7  8  1  0
  9  8  1  1
 10  9  1  0
 10  5  1  0
 11 12  2  0
 11  9  1  0
 13 11  1  0
 14 13  1  0
 15 14  1  0
 16 15  1  0
 16 17  1  0
 17 18  1  1
 17 13  1  0
 18 19  1  0
 20 18  2  0
M  END
$$$$
