CSP.pdb
     RDKit          3D

 20 20  0  0  1  0  0  0  0  0999 V2000
    8.3727  -15.4011   16.0699 N   0  0  0  0  0  0  0  0  0  0  0  0
    8.8065  -14.7085   17.2680 C   0  0  1  0  0  0  0  0  0  0  0  0
    8.4200  -13.2535   17.0991 C   0  0  0  0  0  0  0  0  0  0  0  0
    8.8179  -12.4209   18.6721 S   0  0  0  0  0  0  0  0  0  0  0  0
    8.1537  -15.2932   18.4681 C   0  0  0  0  0  0  0  0  0  0  0  0
    6.9656  -15.6735   18.3759 O   0  0  0  0  0  0  0  0  0  0  0  0
    9.3893  -17.9201   20.8472 O   0  0  0  0  0  0  0  0  0  0  0  0
    8.0674  -17.4803   20.6252 C   0  0  0  0  0  0  0  0  0  0  0  0
    8.1297  -15.9654   20.9182 C   0  0  2  0  0  0  0  0  0  0  0  0
    8.7955  -15.4452   19.7070 N   0  0  0  0  0  0  0  0  0  0  0  0
    8.9531  -15.7509   22.1053 C   0  0  0  0  0  0  0  0  0  0  0  0
   10.1841  -16.0786   22.0080 O   0  0  0  0  0  0  0  0  0  0  0  0
    8.4966  -15.2169   23.3259 N   0  0  0  0  0  0  0  0  0  0  0  0
    7.1773  -14.7313   23.6645 C   0  0  0  0  0  0  0  0  0  0  0  0
    7.0924  -15.1823   25.1264 C   0  0  0  0  0  0  0  0  0  0  0  0
    8.4345  -14.6402   25.6255 C   0  0  0  0  0  0  0  0  0  0  0  0
    9.3616  -15.0745   24.5155 C   0  0  1  0  0  0  0  0  0  0  0  0
    9.9163  -16.4189   24.8558 C   0  0  0  0  0  0  0  0  0  0  0  0
   11.0342  -16.5398   25.6581 O   0  0  0  0  0  0  0  0  0  0  0  0
    9.3816  -17.4684   24.4221 O   0  0  0  0  0  0  0  0  0  0  0  0
  2  5  1  0
  2  1  1  6
  3  2  1  0
  4  3  1  0
  5  6  2  0
  7  8  1  0
  9  8  1  6
 10  9  1  0
 10  5  1  0
 11 12  2  0
 11  9  1  0
 13 11  1  0
 14 13  1  0
 15 14  1  0
 16 15  1  0
 16 17  1  0
 17 18  1  1
 17 13  1  0
 18 19  1  0
 20 18  2  0
M  END
$$$$
