CSP.pdb
     RDKit          3D

 20 20  0  0  1  0  0  0  0  0999 V2000
   12.1171  -15.9738   20.4169 N   0  0  0  0  0  0  0  0  0  0  0  0
   11.0220  -16.5845   21.1458 C   0  0  1  0  0  0  0  0  0  0  0  0
   11.6397  -17.5176   22.1668 C   0  0  0  0  0  0  0  0  0  0  0  0
   12.6220  -16.4780   23.2984 S   0  0  0  0  0  0  0  0  0  0  0  0
   10.1993  -15.5417   21.8119 C   0  0  0  0  0  0  0  0  0  0  0  0
   10.7450  -14.4609   22.1260 O   0  0  0  0  0  0  0  0  0  0  0  0
    6.6140  -16.4629   22.3223 O   0  0  0  0  0  0  0  0  0  0  0  0
    6.5919  -15.0528   22.3517 C   0  0  0  0  0  0  0  0  0  0  0  0
    8.0224  -14.6717   22.7917 C   0  0  2  0  0  0  0  0  0  0  0  0
    8.8370  -15.6986   22.1114 N   0  0  0  0  0  0  0  0  0  0  0  0
    8.1165  -14.8012   24.2433 C   0  0  0  0  0  0  0  0  0  0  0  0
    8.5361  -15.9237   24.6863 O   0  0  0  0  0  0  0  0  0  0  0  0
    7.7861  -13.7958   25.1725 N   0  0  0  0  0  0  0  0  0  0  0  0
    7.3995  -12.4248   24.9237 C   0  0  0  0  0  0  0  0  0  0  0  0
    6.3777  -12.2259   26.0479 C   0  0  0  0  0  0  0  0  0  0  0  0
    7.2041  -12.7557   27.2229 C   0  0  0  0  0  0  0  0  0  0  0  0
    7.7825  -14.0197   26.6332 C   0  0  1  0  0  0  0  0  0  0  0  0
    6.8561  -15.1528   26.9317 C   0  0  0  0  0  0  0  0  0  0  0  0
    6.9910  -15.8889   28.0928 O   0  0  0  0  0  0  0  0  0  0  0  0
    5.9354  -15.4627   26.1370 O   0  0  0  0  0  0  0  0  0  0  0  0
  2  5  1  0
  2  1  1  1
  3  2  1  0
  4  3  1  0
  5  6  2  0
  7  8  1  0
  9  8  1  6
 10  9  1  0
 10  5  1  0
 11 12  2  0
 11  9  1  0
 13 11  1  0
 14 13  1  0
 15 14  1  0
 16 15  1  0
 16 17  1  0
 17 18  1  6
 17 13  1  0
 18 19  1  0
 20 18  2  0
M  END
$$$$
