CSP.pdb
     RDKit          3D

 20 20  0  0  1  0  0  0  0  0999 V2000
    7.5832  -16.6608   19.1104 N   0  0  0  0  0  0  0  0  0  0  0  0
    8.0610  -15.5325   19.8863 C   0  0  1  0  0  0  0  0  0  0  0  0
    7.9614  -14.3120   18.9945 C   0  0  0  0  0  0  0  0  0  0  0  0
    8.6317  -12.9104   19.9498 S   0  0  0  0  0  0  0  0  0  0  0  0
    7.2370  -15.3613   21.1110 C   0  0  0  0  0  0  0  0  0  0  0  0
    5.9938  -15.2952   20.9898 O   0  0  0  0  0  0  0  0  0  0  0  0
    7.5208  -17.2163   24.0255 O   0  0  0  0  0  0  0  0  0  0  0  0
    6.3831  -16.3878   23.9296 C   0  0  0  0  0  0  0  0  0  0  0  0
    6.9684  -14.9947   23.6108 C   0  0  2  0  0  0  0  0  0  0  0  0
    7.7746  -15.2689   22.4042 N   0  0  0  0  0  0  0  0  0  0  0  0
    7.8140  -14.5753   24.7252 C   0  0  0  0  0  0  0  0  0  0  0  0
    8.9366  -15.1740   24.8418 O   0  0  0  0  0  0  0  0  0  0  0  0
    7.4879  -13.5754   25.6619 N   0  0  0  0  0  0  0  0  0  0  0  0
    6.2976  -12.7577   25.7358 C   0  0  0  0  0  0  0  0  0  0  0  0
    6.1392  -12.6512   27.2561 C   0  0  0  0  0  0  0  0  0  0  0  0
    7.5684  -12.2401   27.6203 C   0  0  0  0  0  0  0  0  0  0  0  0
    8.3767  -13.2011   26.7816 C   0  0  1  0  0  0  0  0  0  0  0  0
    8.6523  -14.4256   27.5913 C   0  0  0  0  0  0  0  0  0  0  0  0
    9.7279  -14.4734   28.4568 O   0  0  0  0  0  0  0  0  0  0  0  0
    7.9153  -15.4380   27.5051 O   0  0  0  0  0  0  0  0  0  0  0  0
  2  5  1  0
  2  1  1  6
  3  2  1  0
  4  3  1  0
  5  6  2  0
  7  8  1  0
  9  8  1  1
 10  9  1  0
 10  5  1  0
 11 12  2  0
 11  9  1  0
 13 11  1  0
 14 13  1  0
 15 14  1  0
 16 15  1  0
 16 17  1  0
 17 18  1  1
 17 13  1  0
 18 19  1  0
 20 18  2  0
M  END
$$$$
