CSP.pdb
     RDKit          3D

 20 20  0  0  1  0  0  0  0  0999 V2000
    8.8779  -16.8391   19.2608 N   0  0  0  0  0  0  0  0  0  0  0  0
    9.3564  -16.9851   20.6221 C   0  0  1  0  0  0  0  0  0  0  0  0
   10.7409  -16.3720   20.6695 C   0  0  0  0  0  0  0  0  0  0  0  0
   10.5664  -14.6431   20.1159 S   0  0  0  0  0  0  0  0  0  0  0  0
    8.4406  -16.2969   21.5685 C   0  0  0  0  0  0  0  0  0  0  0  0
    7.5018  -15.6147   21.1016 O   0  0  0  0  0  0  0  0  0  0  0  0
    6.0927  -16.7338   25.4964 O   0  0  0  0  0  0  0  0  0  0  0  0
    6.9354  -17.1679   24.4516 C   0  0  0  0  0  0  0  0  0  0  0  0
    7.5507  -15.8599   23.9080 C   0  0  2  0  0  0  0  0  0  0  0  0
    8.5673  -16.3675   22.9646 N   0  0  0  0  0  0  0  0  0  0  0  0
    8.1730  -15.1389   25.0152 C   0  0  0  0  0  0  0  0  0  0  0  0
    9.2419  -15.6489   25.4944 O   0  0  0  0  0  0  0  0  0  0  0  0
    7.6896  -13.9431   25.5806 N   0  0  0  0  0  0  0  0  0  0  0  0
    6.5813  -13.1207   25.1488 C   0  0  0  0  0  0  0  0  0  0  0  0
    6.0465  -12.6562   26.5074 C   0  0  0  0  0  0  0  0  0  0  0  0
    7.3600  -12.1832   27.1360 C   0  0  0  0  0  0  0  0  0  0  0  0
    8.2859  -13.3223   26.7818 C   0  0  1  0  0  0  0  0  0  0  0  0
    8.2569  -14.3230   27.8904 C   0  0  0  0  0  0  0  0  0  0  0  0
    9.0070  -14.1322   29.0345 O   0  0  0  0  0  0  0  0  0  0  0  0
    7.5523  -15.3586   27.8093 O   0  0  0  0  0  0  0  0  0  0  0  0
  2  5  1  0
  2  1  1  6
  3  2  1  0
  4  3  1  0
  5  6  2  0
  7  8  1  0
  9  8  1  1
 10  9  1  0
 10  5  1  0
 11 12  2  0
 11  9  1  0
 13 11  1  0
 14 13  1  0
 15 14  1  0
 16 15  1  0
 16 17  1  0
 17 18  1  1
 17 13  1  0
 18 19  1  0
 20 18  2  0
M  END
$$$$
