CSP.pdb
     RDKit          3D

 20 20  0  0  1  0  0  0  0  0999 V2000
    9.4857  -17.8732   20.2216 N   0  0  0  0  0  0  0  0  0  0  0  0
   10.3749  -17.2411   21.1772 C   0  0  1  0  0  0  0  0  0  0  0  0
   11.2008  -16.2308   20.4077 C   0  0  0  0  0  0  0  0  0  0  0  0
   12.4264  -15.5572   21.5782 S   0  0  0  0  0  0  0  0  0  0  0  0
    9.5916  -16.5761   22.2507 C   0  0  0  0  0  0  0  0  0  0  0  0
    8.5554  -15.9511   21.9340 O   0  0  0  0  0  0  0  0  0  0  0  0
    8.5184  -18.1323   25.3188 O   0  0  0  0  0  0  0  0  0  0  0  0
    7.9499  -16.9534   24.7926 C   0  0  0  0  0  0  0  0  0  0  0  0
    9.1478  -15.9852   24.6816 C   0  0  2  0  0  0  0  0  0  0  0  0
    9.9479  -16.6080   23.6079 N   0  0  0  0  0  0  0  0  0  0  0  0
    9.8732  -15.9896   25.9492 C   0  0  0  0  0  0  0  0  0  0  0  0
   10.6307  -16.9955   26.1654 O   0  0  0  0  0  0  0  0  0  0  0  0
    9.8007  -14.9826   26.9311 N   0  0  0  0  0  0  0  0  0  0  0  0
    8.9486  -13.8149   26.9690 C   0  0  0  0  0  0  0  0  0  0  0  0
    8.6752  -13.7310   28.4743 C   0  0  0  0  0  0  0  0  0  0  0  0
   10.1129  -13.8447   28.9883 C   0  0  0  0  0  0  0  0  0  0  0  0
   10.6400  -14.9827   28.1474 C   0  0  1  0  0  0  0  0  0  0  0  0
   10.4063  -16.2641   28.8784 C   0  0  0  0  0  0  0  0  0  0  0  0
    9.3191  -17.0613   28.5776 O   0  0  0  0  0  0  0  0  0  0  0  0
   11.1901  -16.6465   29.7811 O   0  0  0  0  0  0  0  0  0  0  0  0
  2  5  1  0
  2  1  1  6
  3  2  1  0
  4  3  1  0
  5  6  2  0
  7  8  1  0
  9  8  1  1
 10  9  1  0
 10  5  1  0
 11 12  2  0
 11  9  1  0
 13 11  1  0
 14 13  1  0
 15 14  1  0
 16 15  1  0
 16 17  1  0
 17 18  1  1
 17 13  1  0
 18 19  1  0
 20 18  2  0
M  END
$$$$
