WGW.pdb
     RDKit          3D

 33 36  0  0  1  0  0  0  0  0999 V2000
   25.6545  -19.9110  -17.0665 N   0  0  0  0  0  0  0  0  0  0  0  0
   26.9900  -20.2887  -16.7427 C   0  0  1  0  0  0  0  0  0  0  0  0
   27.6351  -19.5445  -15.6249 C   0  0  0  0  0  0  0  0  0  0  0  0
   27.5567  -18.0795  -15.7008 C   0  0  0  0  0  0  0  0  0  0  0  0
   26.7030  -17.2365  -15.0038 C   0  0  0  0  0  0  0  0  0  0  0  0
   26.9157  -15.9630  -15.3515 N   0  0  0  0  0  0  0  0  0  0  0  0
   27.9080  -15.9759  -16.2747 C   0  0  0  0  0  0  0  0  0  0  0  0
   28.5048  -14.9029  -16.9514 C   0  0  0  0  0  0  0  0  0  0  0  0
   29.5141  -15.1467  -17.8572 C   0  0  0  0  0  0  0  0  0  0  0  0
   29.9319  -16.4557  -18.0914 C   0  0  0  0  0  0  0  0  0  0  0  0
   29.3435  -17.5082  -17.4246 C   0  0  0  0  0  0  0  0  0  0  0  0
   28.3209  -17.2673  -16.5077 C   0  0  0  0  0  0  0  0  0  0  0  0
   27.0620  -21.7647  -16.6020 C   0  0  0  0  0  0  0  0  0  0  0  0
   28.1170  -22.2906  -16.2313 O   0  0  0  0  0  0  0  0  0  0  0  0
   25.9253  -22.5641  -16.8914 N   0  0  0  0  0  0  0  0  0  0  0  0
   26.0202  -23.9947  -16.6125 C   0  0  0  0  0  0  0  0  0  0  0  0
   25.3547  -24.2472  -15.3324 C   0  0  0  0  0  0  0  0  0  0  0  0
   26.0012  -24.5444  -14.2682 O   0  0  0  0  0  0  0  0  0  0  0  0
   23.9447  -24.1791  -15.1868 N   0  0  0  0  0  0  0  0  0  0  0  0
   23.2902  -24.1583  -13.8754 C   0  0  1  0  0  0  0  0  0  0  0  0
   23.8730  -23.1191  -13.0006 C   0  0  0  0  0  0  0  0  0  0  0  0
   23.4742  -21.7576  -13.3875 C   0  0  0  0  0  0  0  0  0  0  0  0
   22.1535  -21.2796  -13.4973 C   0  0  0  0  0  0  0  0  0  0  0  0
   22.1734  -20.0126  -13.9178 N   0  0  0  0  0  0  0  0  0  0  0  0
   23.4576  -19.5893  -14.1039 C   0  0  0  0  0  0  0  0  0  0  0  0
   23.9903  -18.3832  -14.5015 C   0  0  0  0  0  0  0  0  0  0  0  0
   25.3448  -18.2190  -14.5801 C   0  0  0  0  0  0  0  0  0  0  0  0
   26.1659  -19.2716  -14.2578 C   0  0  0  0  0  0  0  0  0  0  0  0
   25.6171  -20.4685  -13.8641 C   0  0  0  0  0  0  0  0  0  0  0  0
   24.2390  -20.6755  -13.7724 C   0  0  0  0  0  0  0  0  0  0  0  0
   21.8564  -24.0236  -14.0807 C   0  0  0  0  0  0  0  0  0  0  0  0
   21.2718  -23.5944  -15.1043 O   0  0  0  0  0  0  0  0  0  0  0  0
   20.9871  -24.4067  -13.0388 O   0  0  0  0  0  0  0  0  0  0  0  0
  2  1  1  1
  2 13  1  0
  3  4  1  0
  3  2  1  0
  4  5  2  0
  6  5  1  0
  7  6  1  0
  8  7  2  0
  9  8  1  0
 10  9  2  0
 10 11  1  0
 11 12  2  0
 12  7  1  0
 12  4  1  0
 13 15  1  0
 14 13  2  0
 15 16  1  0
 17 18  2  0
 17 16  1  0
 19 17  1  0
 20 21  1  1
 20 19  1  0
 22 21  1  0
 23 22  2  0
 24 23  1  0
 25 24  1  0
 25 30  2  0
 26 25  1  0
 27 26  2  0
 27 28  1  0
 28 29  2  0
 29 30  1  0
 30 22  1  0
 31 20  1  0
 31 33  1  0
 32 31  2  0
M  END
$$$$
