WGW.pdb
     RDKit          3D

 33 36  0  0  1  0  0  0  0  0999 V2000
   24.8560  -16.9691  -18.4808 N   0  0  0  0  0  0  0  0  0  0  0  0
   25.9150  -17.9162  -18.3696 C   0  0  1  0  0  0  0  0  0  0  0  0
   26.9961  -17.8223  -19.3902 C   0  0  0  0  0  0  0  0  0  0  0  0
   26.5526  -17.7481  -20.7888 C   0  0  0  0  0  0  0  0  0  0  0  0
   26.1285  -16.6272  -21.4880 C   0  0  0  0  0  0  0  0  0  0  0  0
   25.7868  -16.9567  -22.7381 N   0  0  0  0  0  0  0  0  0  0  0  0
   25.9882  -18.2921  -22.8536 C   0  0  0  0  0  0  0  0  0  0  0  0
   25.7866  -19.1275  -23.9612 C   0  0  0  0  0  0  0  0  0  0  0  0
   26.0648  -20.4731  -23.8580 C   0  0  0  0  0  0  0  0  0  0  0  0
   26.5438  -20.9900  -22.6553 C   0  0  0  0  0  0  0  0  0  0  0  0
   26.7410  -20.1662  -21.5685 C   0  0  0  0  0  0  0  0  0  0  0  0
   26.4601  -18.8039  -21.6672 C   0  0  0  0  0  0  0  0  0  0  0  0
   26.4102  -17.9364  -16.9703 C   0  0  0  0  0  0  0  0  0  0  0  0
   27.0974  -16.9978  -16.5536 O   0  0  0  0  0  0  0  0  0  0  0  0
   26.0947  -19.0274  -16.1187 N   0  0  0  0  0  0  0  0  0  0  0  0
   26.5934  -18.9763  -14.7469 C   0  0  0  0  0  0  0  0  0  0  0  0
   25.9677  -20.0707  -14.0011 C   0  0  0  0  0  0  0  0  0  0  0  0
   25.0705  -20.8269  -14.5130 O   0  0  0  0  0  0  0  0  0  0  0  0
   26.3158  -20.3660  -12.6573 N   0  0  0  0  0  0  0  0  0  0  0  0
   25.8070  -21.5479  -11.9553 C   0  0  1  0  0  0  0  0  0  0  0  0
   26.7248  -21.9677  -10.8754 C   0  0  0  0  0  0  0  0  0  0  0  0
   26.7836  -21.0016   -9.7684 C   0  0  0  0  0  0  0  0  0  0  0  0
   25.7436  -20.1437   -9.3598 C   0  0  0  0  0  0  0  0  0  0  0  0
   26.1714  -19.3738   -8.3563 N   0  0  0  0  0  0  0  0  0  0  0  0
   27.4694  -19.6637   -8.0494 C   0  0  0  0  0  0  0  0  0  0  0  0
   28.3323  -19.1682   -7.0973 C   0  0  0  0  0  0  0  0  0  0  0  0
   29.6000  -19.6672   -6.9879 C   0  0  0  0  0  0  0  0  0  0  0  0
   30.0007  -20.6677   -7.8390 C   0  0  0  0  0  0  0  0  0  0  0  0
   29.1267  -21.1495   -8.7839 C   0  0  0  0  0  0  0  0  0  0  0  0
   27.8247  -20.6652   -8.9276 C   0  0  0  0  0  0  0  0  0  0  0  0
   24.4527  -21.2661  -11.5054 C   0  0  0  0  0  0  0  0  0  0  0  0
   23.9285  -20.1400  -11.3299 O   0  0  0  0  0  0  0  0  0  0  0  0
   23.5967  -22.3504  -11.2228 O   0  0  0  0  0  0  0  0  0  0  0  0
  2  1  1  1
  2 13  1  0
  3  4  1  0
  3  2  1  0
  4  5  2  0
  6  5  1  0
  7  6  1  0
  8  7  2  0
  9  8  1  0
 10  9  2  0
 10 11  1  0
 11 12  2  0
 12  7  1  0
 12  4  1  0
 13 15  1  0
 14 13  2  0
 15 16  1  0
 17 18  2  0
 17 16  1  0
 19 17  1  0
 20 21  1  1
 20 19  1  0
 22 21  1  0
 23 22  2  0
 24 23  1  0
 25 24  1  0
 25 30  2  0
 26 25  1  0
 27 26  2  0
 27 28  1  0
 28 29  2  0
 29 30  1  0
 30 22  1  0
 31 20  1  0
 31 33  1  0
 32 31  2  0
M  END
$$$$
