WGW.pdb
     RDKit          3D

 33 36  0  0  1  0  0  0  0  0999 V2000
   25.3166  -18.3893  -16.8804 N   0  0  0  0  0  0  0  0  0  0  0  0
   26.3159  -18.9384  -16.0255 C   0  0  1  0  0  0  0  0  0  0  0  0
   26.6939  -18.1201  -14.8394 C   0  0  0  0  0  0  0  0  0  0  0  0
   27.1475  -16.7518  -15.1229 C   0  0  0  0  0  0  0  0  0  0  0  0
   26.5898  -15.5619  -14.6778 C   0  0  0  0  0  0  0  0  0  0  0  0
   27.2707  -14.5167  -15.1595 N   0  0  0  0  0  0  0  0  0  0  0  0
   28.2721  -15.0254  -15.9182 C   0  0  0  0  0  0  0  0  0  0  0  0
   29.2687  -14.3531  -16.6395 C   0  0  0  0  0  0  0  0  0  0  0  0
   30.2024  -15.0779  -17.3474 C   0  0  0  0  0  0  0  0  0  0  0  0
   30.1478  -16.4707  -17.3394 C   0  0  0  0  0  0  0  0  0  0  0  0
   29.1671  -17.1287  -16.6294 C   0  0  0  0  0  0  0  0  0  0  0  0
   28.2190  -16.4000  -15.9121 C   0  0  0  0  0  0  0  0  0  0  0  0
   25.9640  -20.3430  -15.6985 C   0  0  0  0  0  0  0  0  0  0  0  0
   24.7894  -20.7147  -15.7935 O   0  0  0  0  0  0  0  0  0  0  0  0
   26.9718  -21.2510  -15.2804 N   0  0  0  0  0  0  0  0  0  0  0  0
   26.5920  -22.6527  -15.1242 C   0  0  0  0  0  0  0  0  0  0  0  0
   26.0797  -22.8296  -13.7635 C   0  0  0  0  0  0  0  0  0  0  0  0
   25.6775  -23.9620  -13.3220 O   0  0  0  0  0  0  0  0  0  0  0  0
   25.9949  -21.7539  -12.8416 N   0  0  0  0  0  0  0  0  0  0  0  0
   25.3733  -21.8972  -11.5219 C   0  0  1  0  0  0  0  0  0  0  0  0
   26.3927  -22.0096  -10.4574 C   0  0  0  0  0  0  0  0  0  0  0  0
   26.5387  -20.7738   -9.6740 C   0  0  0  0  0  0  0  0  0  0  0  0
   25.8898  -19.5493   -9.9272 C   0  0  0  0  0  0  0  0  0  0  0  0
   26.3001  -18.6379   -9.0420 N   0  0  0  0  0  0  0  0  0  0  0  0
   27.2091  -19.1811   -8.1809 C   0  0  0  0  0  0  0  0  0  0  0  0
   27.8929  -18.6639   -7.1031 C   0  0  0  0  0  0  0  0  0  0  0  0
   28.7432  -19.4537   -6.3813 C   0  0  0  0  0  0  0  0  0  0  0  0
   28.9062  -20.7679   -6.7450 C   0  0  0  0  0  0  0  0  0  0  0  0
   28.2167  -21.2671   -7.8240 C   0  0  0  0  0  0  0  0  0  0  0  0
   27.3403  -20.4921   -8.5866 C   0  0  0  0  0  0  0  0  0  0  0  0
   24.4391  -20.7982  -11.3335 C   0  0  0  0  0  0  0  0  0  0  0  0
   24.3849  -19.7264  -11.9831 O   0  0  0  0  0  0  0  0  0  0  0  0
   23.4670  -20.9061  -10.3178 O   0  0  0  0  0  0  0  0  0  0  0  0
  2  1  1  1
  2 13  1  0
  3  4  1  0
  3  2  1  0
  4  5  2  0
  6  5  1  0
  7  6  1  0
  8  7  2  0
  9  8  1  0
 10  9  2  0
 10 11  1  0
 11 12  2  0
 12  7  1  0
 12  4  1  0
 13 15  1  0
 14 13  2  0
 15 16  1  0
 17 18  2  0
 17 16  1  0
 19 17  1  0
 20 21  1  1
 20 19  1  0
 22 21  1  0
 23 22  2  0
 24 23  1  0
 25 24  1  0
 25 30  2  0
 26 25  1  0
 27 26  2  0
 27 28  1  0
 28 29  2  0
 29 30  1  0
 30 22  1  0
 31 20  1  0
 31 33  1  0
 32 31  2  0
M  END
$$$$
