WGW.pdb
     RDKit          3D

 33 36  0  0  1  0  0  0  0  0999 V2000
   23.9169  -20.2777  -15.6004 N   0  0  0  0  0  0  0  0  0  0  0  0
   24.6563  -19.1041  -15.2735 C   0  0  1  0  0  0  0  0  0  0  0  0
   23.8731  -17.8434  -15.1451 C   0  0  0  0  0  0  0  0  0  0  0  0
   22.7758  -17.6699  -16.1064 C   0  0  0  0  0  0  0  0  0  0  0  0
   21.4328  -17.9684  -15.9265 C   0  0  0  0  0  0  0  0  0  0  0  0
   20.7386  -17.6897  -17.0349 N   0  0  0  0  0  0  0  0  0  0  0  0
   21.6291  -17.2094  -17.9370 C   0  0  0  0  0  0  0  0  0  0  0  0
   21.4125  -16.7695  -19.2503 C   0  0  0  0  0  0  0  0  0  0  0  0
   22.4749  -16.3102  -19.9979 C   0  0  0  0  0  0  0  0  0  0  0  0
   23.7529  -16.2868  -19.4419 C   0  0  0  0  0  0  0  0  0  0  0  0
   23.9626  -16.7197  -18.1507 C   0  0  0  0  0  0  0  0  0  0  0  0
   22.8911  -17.1866  -17.3901 C   0  0  0  0  0  0  0  0  0  0  0  0
   25.5353  -19.3860  -14.1109 C   0  0  0  0  0  0  0  0  0  0  0  0
   25.0488  -19.4303  -12.9759 O   0  0  0  0  0  0  0  0  0  0  0  0
   26.9247  -19.6035  -14.3045 N   0  0  0  0  0  0  0  0  0  0  0  0
   27.4939  -20.8368  -13.7677 C   0  0  0  0  0  0  0  0  0  0  0  0
   27.6715  -20.6580  -12.3249 C   0  0  0  0  0  0  0  0  0  0  0  0
   28.0761  -19.5565  -11.8131 O   0  0  0  0  0  0  0  0  0  0  0  0
   27.4061  -21.6974  -11.3958 N   0  0  0  0  0  0  0  0  0  0  0  0
   26.9336  -21.4323  -10.0338 C   0  0  1  0  0  0  0  0  0  0  0  0
   27.9587  -20.7246   -9.2379 C   0  0  0  0  0  0  0  0  0  0  0  0
   27.4784  -20.3377   -7.9030 C   0  0  0  0  0  0  0  0  0  0  0  0
   26.1336  -20.1528   -7.5265 C   0  0  0  0  0  0  0  0  0  0  0  0
   26.0795  -19.7572   -6.2524 N   0  0  0  0  0  0  0  0  0  0  0  0
   27.3354  -19.6608   -5.7266 C   0  0  0  0  0  0  0  0  0  0  0  0
   27.7950  -19.3197   -4.4740 C   0  0  0  0  0  0  0  0  0  0  0  0
   29.1346  -19.3304   -4.2035 C   0  0  0  0  0  0  0  0  0  0  0  0
   30.0146  -19.6852   -5.1963 C   0  0  0  0  0  0  0  0  0  0  0  0
   29.5384  -20.0217   -6.4409 C   0  0  0  0  0  0  0  0  0  0  0  0
   28.1780  -20.0218   -6.7563 C   0  0  0  0  0  0  0  0  0  0  0  0
   25.6615  -20.7319  -10.1180 C   0  0  0  0  0  0  0  0  0  0  0  0
   25.0742  -20.3443  -11.1566 O   0  0  0  0  0  0  0  0  0  0  0  0
   24.9753  -20.4338   -8.9228 O   0  0  0  0  0  0  0  0  0  0  0  0
  2  1  1  1
  2 13  1  0
  3  4  1  0
  3  2  1  0
  4  5  2  0
  6  5  1  0
  7  6  1  0
  8  7  2  0
  9  8  1  0
 10  9  2  0
 10 11  1  0
 11 12  2  0
 12  7  1  0
 12  4  1  0
 13 15  1  0
 14 13  2  0
 15 16  1  0
 17 18  2  0
 17 16  1  0
 19 17  1  0
 20 21  1  6
 20 19  1  0
 22 21  1  0
 23 22  2  0
 24 23  1  0
 25 24  1  0
 25 30  2  0
 26 25  1  0
 27 26  2  0
 27 28  1  0
 28 29  2  0
 29 30  1  0
 30 22  1  0
 31 20  1  0
 31 33  1  0
 32 31  2  0
M  END
$$$$
