WGW.pdb
     RDKit          3D

 33 36  0  0  1  0  0  0  0  0999 V2000
   28.8765  -20.6498  -19.1678 N   0  0  0  0  0  0  0  0  0  0  0  0
   28.0071  -21.2228  -18.1948 C   0  0  1  0  0  0  0  0  0  0  0  0
   28.1094  -22.6965  -18.0026 C   0  0  0  0  0  0  0  0  0  0  0  0
   27.8448  -23.5179  -19.1916 C   0  0  0  0  0  0  0  0  0  0  0  0
   28.7605  -24.2255  -19.9570 C   0  0  0  0  0  0  0  0  0  0  0  0
   28.1456  -24.8405  -20.9728 N   0  0  0  0  0  0  0  0  0  0  0  0
   26.8293  -24.5339  -20.8692 C   0  0  0  0  0  0  0  0  0  0  0  0
   25.7590  -24.9298  -21.6835 C   0  0  0  0  0  0  0  0  0  0  0  0
   24.4839  -24.4993  -21.3880 C   0  0  0  0  0  0  0  0  0  0  0  0
   24.2704  -23.6761  -20.2836 C   0  0  0  0  0  0  0  0  0  0  0  0
   25.3245  -23.2888  -19.4851 C   0  0  0  0  0  0  0  0  0  0  0  0
   26.6171  -23.7207  -19.7802 C   0  0  0  0  0  0  0  0  0  0  0  0
   28.1012  -20.4448  -16.9340 C   0  0  0  0  0  0  0  0  0  0  0  0
   28.9039  -19.5087  -16.8542 O   0  0  0  0  0  0  0  0  0  0  0  0
   27.2735  -20.7757  -15.8293 N   0  0  0  0  0  0  0  0  0  0  0  0
   27.3344  -19.9049  -14.6582 C   0  0  0  0  0  0  0  0  0  0  0  0
   26.3216  -20.3640  -13.7049 C   0  0  0  0  0  0  0  0  0  0  0  0
   25.0772  -20.4243  -13.9993 O   0  0  0  0  0  0  0  0  0  0  0  0
   26.6540  -20.7735  -12.3873 N   0  0  0  0  0  0  0  0  0  0  0  0
   25.6755  -21.3873  -11.4848 C   0  0  1  0  0  0  0  0  0  0  0  0
   26.3347  -21.9865  -10.3053 C   0  0  0  0  0  0  0  0  0  0  0  0
   26.8244  -20.9796   -9.3520 C   0  0  0  0  0  0  0  0  0  0  0  0
   26.2076  -19.7481   -9.0561 C   0  0  0  0  0  0  0  0  0  0  0  0
   26.9592  -19.0737   -8.1826 N   0  0  0  0  0  0  0  0  0  0  0  0
   28.0753  -19.7890   -7.8577 C   0  0  0  0  0  0  0  0  0  0  0  0
   29.1245  -19.5368   -7.0021 C   0  0  0  0  0  0  0  0  0  0  0  0
   30.1213  -20.4579   -6.8416 C   0  0  0  0  0  0  0  0  0  0  0  0
   30.0623  -21.6364   -7.5442 C   0  0  0  0  0  0  0  0  0  0  0  0
   29.0084  -21.8710   -8.3945 C   0  0  0  0  0  0  0  0  0  0  0  0
   27.9720  -20.9548   -8.5862 C   0  0  0  0  0  0  0  0  0  0  0  0
   24.6665  -20.3920  -11.1574 C   0  0  0  0  0  0  0  0  0  0  0  0
   24.8031  -19.1450  -11.1488 O   0  0  0  0  0  0  0  0  0  0  0  0
   23.3745  -20.8326  -10.8040 O   0  0  0  0  0  0  0  0  0  0  0  0
  2  1  1  6
  2 13  1  0
  3  4  1  0
  3  2  1  0
  4  5  2  0
  6  5  1  0
  7  6  1  0
  8  7  2  0
  9  8  1  0
 10  9  2  0
 10 11  1  0
 11 12  2  0
 12  7  1  0
 12  4  1  0
 13 15  1  0
 14 13  2  0
 15 16  1  0
 17 18  2  0
 17 16  1  0
 19 17  1  0
 20 21  1  1
 20 19  1  0
 22 21  1  0
 23 22  2  0
 24 23  1  0
 25 24  1  0
 25 30  2  0
 26 25  1  0
 27 26  2  0
 27 28  1  0
 28 29  2  0
 29 30  1  0
 30 22  1  0
 31 20  1  0
 31 33  1  0
 32 31  2  0
M  END
$$$$
