WGW.pdb
     RDKit          3D

 33 36  0  0  1  0  0  0  0  0999 V2000
   27.9932  -18.7981  -14.0162 N   0  0  0  0  0  0  0  0  0  0  0  0
   28.0948  -20.2173  -13.9356 C   0  0  1  0  0  0  0  0  0  0  0  0
   27.5257  -20.8527  -12.7142 C   0  0  0  0  0  0  0  0  0  0  0  0
   28.2158  -20.5497  -11.4532 C   0  0  0  0  0  0  0  0  0  0  0  0
   27.8657  -19.6066  -10.4977 C   0  0  0  0  0  0  0  0  0  0  0  0
   28.7472  -19.6092   -9.4922 N   0  0  0  0  0  0  0  0  0  0  0  0
   29.6715  -20.5542   -9.7922 C   0  0  0  0  0  0  0  0  0  0  0  0
   30.8012  -20.9535   -9.0643 C   0  0  0  0  0  0  0  0  0  0  0  0
   31.6123  -21.9509   -9.5600 C   0  0  0  0  0  0  0  0  0  0  0  0
   31.3021  -22.5530  -10.7783 C   0  0  0  0  0  0  0  0  0  0  0  0
   30.1910  -22.1584  -11.4913 C   0  0  0  0  0  0  0  0  0  0  0  0
   29.3674  -21.1487  -10.9948 C   0  0  0  0  0  0  0  0  0  0  0  0
   27.6119  -20.8166  -15.2049 C   0  0  0  0  0  0  0  0  0  0  0  0
   27.7455  -22.0303  -15.3952 O   0  0  0  0  0  0  0  0  0  0  0  0
   27.0007  -19.9992  -16.1914 N   0  0  0  0  0  0  0  0  0  0  0  0
   26.5853  -20.6424  -17.4352 C   0  0  0  0  0  0  0  0  0  0  0  0
   25.1682  -20.9905  -17.3086 C   0  0  0  0  0  0  0  0  0  0  0  0
   24.5115  -21.5539  -18.2521 O   0  0  0  0  0  0  0  0  0  0  0  0
   24.4270  -20.7251  -16.1278 N   0  0  0  0  0  0  0  0  0  0  0  0
   23.0109  -21.0788  -15.9927 C   0  0  1  0  0  0  0  0  0  0  0  0
   22.7939  -22.0034  -14.8600 C   0  0  0  0  0  0  0  0  0  0  0  0
   23.1032  -21.3938  -13.5581 C   0  0  0  0  0  0  0  0  0  0  0  0
   22.4620  -20.2738  -12.9931 C   0  0  0  0  0  0  0  0  0  0  0  0
   23.0378  -19.9743  -11.8262 N   0  0  0  0  0  0  0  0  0  0  0  0
   24.0548  -20.8436  -11.5563 C   0  0  0  0  0  0  0  0  0  0  0  0
   24.9184  -20.9616  -10.4900 C   0  0  0  0  0  0  0  0  0  0  0  0
   25.8472  -21.9637  -10.4613 C   0  0  0  0  0  0  0  0  0  0  0  0
   25.9074  -22.8499  -11.5087 C   0  0  0  0  0  0  0  0  0  0  0  0
   25.0385  -22.7167  -12.5652 C   0  0  0  0  0  0  0  0  0  0  0  0
   24.0770  -21.7061  -12.6315 C   0  0  0  0  0  0  0  0  0  0  0  0
   22.2373  -19.8497  -15.9104 C   0  0  0  0  0  0  0  0  0  0  0  0
   20.9881  -19.7377  -15.8856 O   0  0  0  0  0  0  0  0  0  0  0  0
   22.9273  -18.6215  -15.8496 O   0  0  0  0  0  0  0  0  0  0  0  0
  2  1  1  6
  2 13  1  0
  3  4  1  0
  3  2  1  0
  4  5  2  0
  6  5  1  0
  7  6  1  0
  8  7  2  0
  9  8  1  0
 10  9  2  0
 10 11  1  0
 11 12  2  0
 12  7  1  0
 12  4  1  0
 13 15  1  0
 14 13  2  0
 15 16  1  0
 17 18  2  0
 17 16  1  0
 19 17  1  0
 20 21  1  1
 20 19  1  0
 22 21  1  0
 23 22  2  0
 24 23  1  0
 25 24  1  0
 25 30  2  0
 26 25  1  0
 27 26  2  0
 27 28  1  0
 28 29  2  0
 29 30  1  0
 30 22  1  0
 31 20  1  0
 31 33  1  0
 32 31  2  0
M  END
$$$$
