WGW.pdb
     RDKit          3D

 33 36  0  0  1  0  0  0  0  0999 V2000
   25.6802  -19.9101  -16.2665 N   0  0  0  0  0  0  0  0  0  0  0  0
   25.3358  -19.0659  -15.1712 C   0  0  1  0  0  0  0  0  0  0  0  0
   23.9010  -19.0549  -14.7704 C   0  0  0  0  0  0  0  0  0  0  0  0
   22.9333  -18.8557  -15.8576 C   0  0  0  0  0  0  0  0  0  0  0  0
   22.1524  -19.8144  -16.4870 C   0  0  0  0  0  0  0  0  0  0  0  0
   21.4045  -19.2547  -17.4438 N   0  0  0  0  0  0  0  0  0  0  0  0
   21.6978  -17.9313  -17.4377 C   0  0  0  0  0  0  0  0  0  0  0  0
   21.1842  -16.9047  -18.2425 C   0  0  0  0  0  0  0  0  0  0  0  0
   21.6250  -15.6121  -18.0600 C   0  0  0  0  0  0  0  0  0  0  0  0
   22.5755  -15.3377  -17.0780 C   0  0  0  0  0  0  0  0  0  0  0  0
   23.0783  -16.3489  -16.2885 C   0  0  0  0  0  0  0  0  0  0  0  0
   22.6365  -17.6590  -16.4698 C   0  0  0  0  0  0  0  0  0  0  0  0
   26.2717  -19.3153  -14.0463 C   0  0  0  0  0  0  0  0  0  0  0  0
   26.1322  -18.6925  -12.9882 O   0  0  0  0  0  0  0  0  0  0  0  0
   27.3184  -20.2637  -14.1875 N   0  0  0  0  0  0  0  0  0  0  0  0
   28.0855  -20.6023  -12.9915 C   0  0  0  0  0  0  0  0  0  0  0  0
   27.1860  -21.2883  -12.0611 C   0  0  0  0  0  0  0  0  0  0  0  0
   26.4864  -22.3041  -12.4039 O   0  0  0  0  0  0  0  0  0  0  0  0
   27.0300  -20.8708  -10.7137 N   0  0  0  0  0  0  0  0  0  0  0  0
   26.2329  -21.6274   -9.7438 C   0  0  1  0  0  0  0  0  0  0  0  0
   26.9497  -21.7771   -8.4598 C   0  0  0  0  0  0  0  0  0  0  0  0
   27.0684  -20.5111   -7.7212 C   0  0  0  0  0  0  0  0  0  0  0  0
   26.4999  -19.2770   -8.0934 C   0  0  0  0  0  0  0  0  0  0  0  0
   26.8575  -18.3397   -7.2123 N   0  0  0  0  0  0  0  0  0  0  0  0
   27.6523  -18.8741   -6.2399 C   0  0  0  0  0  0  0  0  0  0  0  0
   28.2460  -18.3312   -5.1221 C   0  0  0  0  0  0  0  0  0  0  0  0
   28.9860  -19.1163   -4.2831 C   0  0  0  0  0  0  0  0  0  0  0  0
   29.1293  -20.4517   -4.5696 C   0  0  0  0  0  0  0  0  0  0  0  0
   28.5308  -20.9765   -5.6900 C   0  0  0  0  0  0  0  0  0  0  0  0
   27.7683  -20.2072   -6.5715 C   0  0  0  0  0  0  0  0  0  0  0  0
   24.9306  -20.9903   -9.6243 C   0  0  0  0  0  0  0  0  0  0  0  0
   24.5614  -19.9109  -10.1460 O   0  0  0  0  0  0  0  0  0  0  0  0
   23.9402  -21.6216   -8.8440 O   0  0  0  0  0  0  0  0  0  0  0  0
  2  1  1  6
  2 13  1  0
  3  4  1  0
  3  2  1  0
  4  5  2  0
  6  5  1  0
  7  6  1  0
  8  7  2  0
  9  8  1  0
 10  9  2  0
 10 11  1  0
 11 12  2  0
 12  7  1  0
 12  4  1  0
 13 15  1  0
 14 13  2  0
 15 16  1  0
 17 18  2  0
 17 16  1  0
 19 17  1  0
 20 21  1  1
 20 19  1  0
 22 21  1  0
 23 22  2  0
 24 23  1  0
 25 24  1  0
 25 30  2  0
 26 25  1  0
 27 26  2  0
 27 28  1  0
 28 29  2  0
 29 30  1  0
 30 22  1  0
 31 20  1  0
 31 33  1  0
 32 31  2  0
M  END
$$$$
