WGW.pdb
     RDKit          3D

 33 36  0  0  1  0  0  0  0  0999 V2000
   26.4607  -19.9929  -12.5641 N   0  0  0  0  0  0  0  0  0  0  0  0
   26.1635  -21.3601  -12.2932 C   0  0  1  0  0  0  0  0  0  0  0  0
   25.4760  -21.6443  -11.0025 C   0  0  0  0  0  0  0  0  0  0  0  0
   25.9942  -20.9283   -9.8291 C   0  0  0  0  0  0  0  0  0  0  0  0
   25.3134  -20.0465   -9.0021 C   0  0  0  0  0  0  0  0  0  0  0  0
   26.1241  -19.5799   -8.0465 N   0  0  0  0  0  0  0  0  0  0  0  0
   27.3331  -20.1578   -8.2506 C   0  0  0  0  0  0  0  0  0  0  0  0
   28.5229  -20.0070   -7.5245 C   0  0  0  0  0  0  0  0  0  0  0  0
   29.6478  -20.7033   -7.9096 C   0  0  0  0  0  0  0  0  0  0  0  0
   29.5921  -21.5501   -9.0154 C   0  0  0  0  0  0  0  0  0  0  0  0
   28.4212  -21.6963   -9.7269 C   0  0  0  0  0  0  0  0  0  0  0  0
   27.2802  -20.9932   -9.3422 C   0  0  0  0  0  0  0  0  0  0  0  0
   25.4946  -21.9601  -13.4748 C   0  0  0  0  0  0  0  0  0  0  0  0
   25.3153  -21.2744  -14.4870 O   0  0  0  0  0  0  0  0  0  0  0  0
   25.0653  -23.3127  -13.4398 N   0  0  0  0  0  0  0  0  0  0  0  0
   25.0915  -24.0597  -14.6946 C   0  0  0  0  0  0  0  0  0  0  0  0
   23.7510  -23.9978  -15.2816 C   0  0  0  0  0  0  0  0  0  0  0  0
   23.4397  -24.6260  -16.3527 O   0  0  0  0  0  0  0  0  0  0  0  0
   22.7054  -23.2345  -14.7000 N   0  0  0  0  0  0  0  0  0  0  0  0
   21.3552  -23.1896  -15.2688 C   0  0  1  0  0  0  0  0  0  0  0  0
   20.3606  -22.7707  -14.2589 C   0  0  0  0  0  0  0  0  0  0  0  0
   20.8079  -21.6198  -13.4602 C   0  0  0  0  0  0  0  0  0  0  0  0
   21.3503  -20.4211  -13.9638 C   0  0  0  0  0  0  0  0  0  0  0  0
   21.6875  -19.6245  -12.9466 N   0  0  0  0  0  0  0  0  0  0  0  0
   21.3994  -20.2221  -11.7538 C   0  0  0  0  0  0  0  0  0  0  0  0
   21.5393  -19.8065  -10.4483 C   0  0  0  0  0  0  0  0  0  0  0  0
   21.1362  -20.6120   -9.4204 C   0  0  0  0  0  0  0  0  0  0  0  0
   20.5908  -21.8394   -9.7068 C   0  0  0  0  0  0  0  0  0  0  0  0
   20.4597  -22.2384  -11.0154 C   0  0  0  0  0  0  0  0  0  0  0  0
   20.8603  -21.4449  -12.0925 C   0  0  0  0  0  0  0  0  0  0  0  0
   21.3853  -22.3482  -16.4550 C   0  0  0  0  0  0  0  0  0  0  0  0
   22.2795  -21.5332  -16.7868 O   0  0  0  0  0  0  0  0  0  0  0  0
   20.3089  -22.4237  -17.3628 O   0  0  0  0  0  0  0  0  0  0  0  0
  2  1  1  6
  2 13  1  0
  3  4  1  0
  3  2  1  0
  4  5  2  0
  6  5  1  0
  7  6  1  0
  8  7  2  0
  9  8  1  0
 10  9  2  0
 10 11  1  0
 11 12  2  0
 12  7  1  0
 12  4  1  0
 13 15  1  0
 14 13  2  0
 15 16  1  0
 17 18  2  0
 17 16  1  0
 19 17  1  0
 20 21  1  1
 20 19  1  0
 22 21  1  0
 23 22  2  0
 24 23  1  0
 25 24  1  0
 25 30  2  0
 26 25  1  0
 27 26  2  0
 27 28  1  0
 28 29  2  0
 29 30  1  0
 30 22  1  0
 31 20  1  0
 31 33  1  0
 32 31  2  0
M  END
$$$$
