WGW.pdb
     RDKit          3D

 33 36  0  0  1  0  0  0  0  0999 V2000
   25.6390  -18.9656   -9.4733 N   0  0  0  0  0  0  0  0  0  0  0  0
   25.5655  -20.3650   -9.2137 C   0  0  1  0  0  0  0  0  0  0  0  0
   25.9180  -20.8009   -7.8335 C   0  0  0  0  0  0  0  0  0  0  0  0
   26.7607  -19.8753   -7.0645 C   0  0  0  0  0  0  0  0  0  0  0  0
   27.0283  -18.5418   -7.3387 C   0  0  0  0  0  0  0  0  0  0  0  0
   27.8548  -18.0316   -6.4196 N   0  0  0  0  0  0  0  0  0  0  0  0
   28.1255  -19.0324   -5.5465 C   0  0  0  0  0  0  0  0  0  0  0  0
   28.9350  -19.0170   -4.4020 C   0  0  0  0  0  0  0  0  0  0  0  0
   29.0669  -20.1617   -3.6465 C   0  0  0  0  0  0  0  0  0  0  0  0
   28.3949  -21.3223   -4.0266 C   0  0  0  0  0  0  0  0  0  0  0  0
   27.5999  -21.3342   -5.1519 C   0  0  0  0  0  0  0  0  0  0  0  0
   27.4638  -20.1788   -5.9206 C   0  0  0  0  0  0  0  0  0  0  0  0
   24.2601  -20.8848   -9.6927 C   0  0  0  0  0  0  0  0  0  0  0  0
   24.0564  -22.1036   -9.7030 O   0  0  0  0  0  0  0  0  0  0  0  0
   23.2544  -19.9860  -10.1349 N   0  0  0  0  0  0  0  0  0  0  0  0
   22.1007  -20.5547  -10.8270 C   0  0  0  0  0  0  0  0  0  0  0  0
   22.1617  -20.1270  -12.2266 C   0  0  0  0  0  0  0  0  0  0  0  0
   21.5197  -19.1090  -12.6631 O   0  0  0  0  0  0  0  0  0  0  0  0
   22.9389  -20.8150  -13.1944 N   0  0  0  0  0  0  0  0  0  0  0  0
   23.9484  -20.1404  -14.0156 C   0  0  1  0  0  0  0  0  0  0  0  0
   24.7853  -19.2343  -13.2012 C   0  0  0  0  0  0  0  0  0  0  0  0
   26.1715  -19.1488  -13.6846 C   0  0  0  0  0  0  0  0  0  0  0  0
   26.6453  -18.2928  -14.6983 C   0  0  0  0  0  0  0  0  0  0  0  0
   27.9441  -18.5246  -14.9039 N   0  0  0  0  0  0  0  0  0  0  0  0
   28.3933  -19.5083  -14.0713 C   0  0  0  0  0  0  0  0  0  0  0  0
   29.6339  -20.0780  -13.8901 C   0  0  0  0  0  0  0  0  0  0  0  0
   29.8164  -21.0496  -12.9464 C   0  0  0  0  0  0  0  0  0  0  0  0
   28.7473  -21.4494  -12.1826 C   0  0  0  0  0  0  0  0  0  0  0  0
   27.5160  -20.8708  -12.3777 C   0  0  0  0  0  0  0  0  0  0  0  0
   27.2895  -19.8765  -13.3319 C   0  0  0  0  0  0  0  0  0  0  0  0
   24.7022  -21.1528  -14.7387 C   0  0  0  0  0  0  0  0  0  0  0  0
   25.0480  -22.2848  -14.3231 O   0  0  0  0  0  0  0  0  0  0  0  0
   25.1114  -20.8740  -16.0590 O   0  0  0  0  0  0  0  0  0  0  0  0
  2  1  1  1
  2 13  1  0
  3  4  1  0
  3  2  1  0
  4  5  2  0
  6  5  1  0
  7  6  1  0
  8  7  2  0
  9  8  1  0
 10  9  2  0
 10 11  1  0
 11 12  2  0
 12  7  1  0
 12  4  1  0
 13 15  1  0
 14 13  2  0
 15 16  1  0
 17 18  2  0
 17 16  1  0
 19 17  1  0
 20 21  1  1
 20 19  1  0
 22 21  1  0
 23 22  2  0
 24 23  1  0
 25 24  1  0
 25 30  2  0
 26 25  1  0
 27 26  2  0
 27 28  1  0
 28 29  2  0
 29 30  1  0
 30 22  1  0
 31 20  1  0
 31 33  1  0
 32 31  2  0
M  END
$$$$
