WGW.pdb
     RDKit          3D

 33 36  0  0  1  0  0  0  0  0999 V2000
   27.7235  -20.2302  -12.1145 N   0  0  0  0  0  0  0  0  0  0  0  0
   27.3824  -21.6139  -12.0992 C   0  0  1  0  0  0  0  0  0  0  0  0
   27.0979  -22.2101  -10.7640 C   0  0  0  0  0  0  0  0  0  0  0  0
   26.8342  -21.2556   -9.6788 C   0  0  0  0  0  0  0  0  0  0  0  0
   25.6730  -20.5326   -9.4459 C   0  0  0  0  0  0  0  0  0  0  0  0
   25.8157  -19.7515   -8.3700 N   0  0  0  0  0  0  0  0  0  0  0  0
   27.0695  -19.9656   -7.9016 C   0  0  0  0  0  0  0  0  0  0  0  0
   27.7121  -19.3966   -6.7932 C   0  0  0  0  0  0  0  0  0  0  0  0
   29.0048  -19.7667   -6.4922 C   0  0  0  0  0  0  0  0  0  0  0  0
   29.6601  -20.7022   -7.2911 C   0  0  0  0  0  0  0  0  0  0  0  0
   29.0258  -21.2597   -8.3799 C   0  0  0  0  0  0  0  0  0  0  0  0
   27.7180  -20.8880   -8.6896 C   0  0  0  0  0  0  0  0  0  0  0  0
   26.3245  -21.8696  -13.1088 C   0  0  0  0  0  0  0  0  0  0  0  0
   25.9687  -20.9575  -13.8628 O   0  0  0  0  0  0  0  0  0  0  0  0
   25.7279  -23.1540  -13.2057 N   0  0  0  0  0  0  0  0  0  0  0  0
   24.7880  -23.3784  -14.3010 C   0  0  0  0  0  0  0  0  0  0  0  0
   23.5476  -22.6686  -13.9801 C   0  0  0  0  0  0  0  0  0  0  0  0
   22.6139  -23.1970  -13.2817 O   0  0  0  0  0  0  0  0  0  0  0  0
   23.2981  -21.3438  -14.4237 N   0  0  0  0  0  0  0  0  0  0  0  0
   22.0830  -20.6090  -14.0600 C   0  0  1  0  0  0  0  0  0  0  0  0
   22.3936  -19.2182  -13.6676 C   0  0  0  0  0  0  0  0  0  0  0  0
   23.2925  -18.5445  -14.6164 C   0  0  0  0  0  0  0  0  0  0  0  0
   22.9259  -18.0001  -15.8630 C   0  0  0  0  0  0  0  0  0  0  0  0
   24.0103  -17.5131  -16.4711 N   0  0  0  0  0  0  0  0  0  0  0  0
   25.1180  -17.6964  -15.6951 C   0  0  0  0  0  0  0  0  0  0  0  0
   26.4412  -17.3564  -15.8689 C   0  0  0  0  0  0  0  0  0  0  0  0
   27.3606  -17.6415  -14.8986 C   0  0  0  0  0  0  0  0  0  0  0  0
   26.9474  -18.2708  -13.7500 C   0  0  0  0  0  0  0  0  0  0  0  0
   25.6232  -18.6038  -13.5938 C   0  0  0  0  0  0  0  0  0  0  0  0
   24.6546  -18.3304  -14.5620 C   0  0  0  0  0  0  0  0  0  0  0  0
   21.1359  -20.7169  -15.1588 C   0  0  0  0  0  0  0  0  0  0  0  0
   21.3745  -21.0806  -16.3355 O   0  0  0  0  0  0  0  0  0  0  0  0
   19.7862  -20.3854  -14.9206 O   0  0  0  0  0  0  0  0  0  0  0  0
  2  1  1  1
  2 13  1  0
  3  4  1  0
  3  2  1  0
  4  5  2  0
  6  5  1  0
  7  6  1  0
  8  7  2  0
  9  8  1  0
 10  9  2  0
 10 11  1  0
 11 12  2  0
 12  7  1  0
 12  4  1  0
 13 15  1  0
 14 13  2  0
 15 16  1  0
 17 18  2  0
 17 16  1  0
 19 17  1  0
 20 21  1  6
 20 19  1  0
 22 21  1  0
 23 22  2  0
 24 23  1  0
 25 24  1  0
 25 30  2  0
 26 25  1  0
 27 26  2  0
 27 28  1  0
 28 29  2  0
 29 30  1  0
 30 22  1  0
 31 20  1  0
 31 33  1  0
 32 31  2  0
M  END
$$$$
