WGW.pdb
     RDKit          3D

 33 36  0  0  1  0  0  0  0  0999 V2000
   24.4540  -18.4736  -15.0837 N   0  0  0  0  0  0  0  0  0  0  0  0
   25.2007  -19.2003  -16.0560 C   0  0  1  0  0  0  0  0  0  0  0  0
   25.3201  -18.5734  -17.4021 C   0  0  0  0  0  0  0  0  0  0  0  0
   24.0783  -18.0298  -17.9685 C   0  0  0  0  0  0  0  0  0  0  0  0
   23.7413  -16.6969  -18.1558 C   0  0  0  0  0  0  0  0  0  0  0  0
   22.5166  -16.5931  -18.6823 N   0  0  0  0  0  0  0  0  0  0  0  0
   22.0555  -17.8582  -18.8383 C   0  0  0  0  0  0  0  0  0  0  0  0
   20.8279  -18.2983  -19.3528 C   0  0  0  0  0  0  0  0  0  0  0  0
   20.5659  -19.6491  -19.4259 C   0  0  0  0  0  0  0  0  0  0  0  0
   21.5227  -20.5637  -18.9889 C   0  0  0  0  0  0  0  0  0  0  0  0
   22.7283  -20.1280  -18.4839 C   0  0  0  0  0  0  0  0  0  0  0  0
   22.9982  -18.7621  -18.4066 C   0  0  0  0  0  0  0  0  0  0  0  0
   26.4998  -19.6135  -15.4686 C   0  0  0  0  0  0  0  0  0  0  0  0
   27.2727  -20.3140  -16.1311 O   0  0  0  0  0  0  0  0  0  0  0  0
   26.8498  -19.2050  -14.1549 N   0  0  0  0  0  0  0  0  0  0  0  0
   28.1146  -19.6942  -13.6126 C   0  0  0  0  0  0  0  0  0  0  0  0
   27.8071  -20.7145  -12.6078 C   0  0  0  0  0  0  0  0  0  0  0  0
   28.4345  -21.8287  -12.5447 O   0  0  0  0  0  0  0  0  0  0  0  0
   26.7898  -20.5350  -11.6347 N   0  0  0  0  0  0  0  0  0  0  0  0
   26.4838  -21.5491  -10.6214 C   0  0  1  0  0  0  0  0  0  0  0  0
   27.4741  -21.5280   -9.5243 C   0  0  0  0  0  0  0  0  0  0  0  0
   27.0842  -20.6386   -8.4202 C   0  0  0  0  0  0  0  0  0  0  0  0
   25.9544  -19.7974   -8.3918 C   0  0  0  0  0  0  0  0  0  0  0  0
   25.9476  -19.1013   -7.2525 N   0  0  0  0  0  0  0  0  0  0  0  0
   27.0288  -19.4263   -6.4856 C   0  0  0  0  0  0  0  0  0  0  0  0
   27.4470  -19.0056   -5.2427 C   0  0  0  0  0  0  0  0  0  0  0  0
   28.5800  -19.5258   -4.6828 C   0  0  0  0  0  0  0  0  0  0  0  0
   29.2946  -20.4721   -5.3755 C   0  0  0  0  0  0  0  0  0  0  0  0
   28.8633  -20.8795   -6.6152 C   0  0  0  0  0  0  0  0  0  0  0  0
   27.7121  -20.3712   -7.2209 C   0  0  0  0  0  0  0  0  0  0  0  0
   25.1100  -21.3589  -10.1829 C   0  0  0  0  0  0  0  0  0  0  0  0
   24.3521  -20.3962  -10.4523 O   0  0  0  0  0  0  0  0  0  0  0  0
   24.5223  -22.3422   -9.3607 O   0  0  0  0  0  0  0  0  0  0  0  0
  2  1  1  1
  2 13  1  0
  3  4  1  0
  3  2  1  0
  4  5  2  0
  6  5  1  0
  7  6  1  0
  8  7  2  0
  9  8  1  0
 10  9  2  0
 10 11  1  0
 11 12  2  0
 12  7  1  0
 12  4  1  0
 13 15  1  0
 14 13  2  0
 15 16  1  0
 17 18  2  0
 17 16  1  0
 19 17  1  0
 20 21  1  1
 20 19  1  0
 22 21  1  0
 23 22  2  0
 24 23  1  0
 25 24  1  0
 25 30  2  0
 26 25  1  0
 27 26  2  0
 27 28  1  0
 28 29  2  0
 29 30  1  0
 30 22  1  0
 31 20  1  0
 31 33  1  0
 32 31  2  0
M  END
$$$$
