WGW.pdb
     RDKit          3D

 33 36  0  0  1  0  0  0  0  0999 V2000
   27.0553  -19.2944  -12.7111 N   0  0  0  0  0  0  0  0  0  0  0  0
   27.6892  -20.5501  -12.4819 C   0  0  1  0  0  0  0  0  0  0  0  0
   27.0306  -21.4534  -11.4972 C   0  0  0  0  0  0  0  0  0  0  0  0
   26.6966  -20.8519  -10.1991 C   0  0  0  0  0  0  0  0  0  0  0  0
   25.4607  -20.3916   -9.7682 C   0  0  0  0  0  0  0  0  0  0  0  0
   25.5521  -19.8931   -8.5308 N   0  0  0  0  0  0  0  0  0  0  0  0
   26.8474  -20.0289   -8.1552 C   0  0  0  0  0  0  0  0  0  0  0  0
   27.4645  -19.6671   -6.9495 C   0  0  0  0  0  0  0  0  0  0  0  0
   28.8107  -19.9043   -6.7763 C   0  0  0  0  0  0  0  0  0  0  0  0
   29.5450  -20.5011   -7.7997 C   0  0  0  0  0  0  0  0  0  0  0  0
   28.9356  -20.8556   -8.9836 C   0  0  0  0  0  0  0  0  0  0  0  0
   27.5737  -20.6169   -9.1646 C   0  0  0  0  0  0  0  0  0  0  0  0
   27.9841  -21.1959  -13.7855 C   0  0  0  0  0  0  0  0  0  0  0  0
   28.4827  -22.3264  -13.8065 O   0  0  0  0  0  0  0  0  0  0  0  0
   27.6940  -20.5177  -14.9983 N   0  0  0  0  0  0  0  0  0  0  0  0
   26.6058  -19.5435  -14.9807 C   0  0  0  0  0  0  0  0  0  0  0  0
   25.3845  -20.2275  -15.4119 C   0  0  0  0  0  0  0  0  0  0  0  0
   24.7326  -19.8774  -16.4566 O   0  0  0  0  0  0  0  0  0  0  0  0
   24.8412  -21.3269  -14.6976 N   0  0  0  0  0  0  0  0  0  0  0  0
   23.6215  -21.2154  -13.8923 C   0  0  1  0  0  0  0  0  0  0  0  0
   23.5880  -19.9425  -13.1417 C   0  0  0  0  0  0  0  0  0  0  0  0
   23.1654  -18.8027  -13.9692 C   0  0  0  0  0  0  0  0  0  0  0  0
   21.9280  -18.6705  -14.6296 C   0  0  0  0  0  0  0  0  0  0  0  0
   21.9151  -17.5303  -15.3243 N   0  0  0  0  0  0  0  0  0  0  0  0
   23.0957  -16.8626  -15.1719 C   0  0  0  0  0  0  0  0  0  0  0  0
   23.5519  -15.6581  -15.6594 C   0  0  0  0  0  0  0  0  0  0  0  0
   24.7951  -15.2024  -15.3206 C   0  0  0  0  0  0  0  0  0  0  0  0
   25.5817  -15.9610  -14.4889 C   0  0  0  0  0  0  0  0  0  0  0  0
   25.1108  -17.1611  -14.0126 C   0  0  0  0  0  0  0  0  0  0  0  0
   23.8476  -17.6609  -14.3365 C   0  0  0  0  0  0  0  0  0  0  0  0
   22.4757  -21.4185  -14.7652 C   0  0  0  0  0  0  0  0  0  0  0  0
   22.4856  -21.5661  -16.0110 O   0  0  0  0  0  0  0  0  0  0  0  0
   21.1890  -21.4614  -14.1900 O   0  0  0  0  0  0  0  0  0  0  0  0
  2  1  1  6
  2 13  1  0
  3  4  1  0
  3  2  1  0
  4  5  2  0
  6  5  1  0
  7  6  1  0
  8  7  2  0
  9  8  1  0
 10  9  2  0
 10 11  1  0
 11 12  2  0
 12  7  1  0
 12  4  1  0
 13 15  1  0
 14 13  2  0
 15 16  1  0
 17 18  2  0
 17 16  1  0
 19 17  1  0
 20 21  1  6
 20 19  1  0
 22 21  1  0
 23 22  2  0
 24 23  1  0
 25 24  1  0
 25 30  2  0
 26 25  1  0
 27 26  2  0
 27 28  1  0
 28 29  2  0
 29 30  1  0
 30 22  1  0
 31 20  1  0
 31 33  1  0
 32 31  2  0
M  END
$$$$
