WGW.pdb
     RDKit          3D

 33 36  0  0  1  0  0  0  0  0999 V2000
   24.5672  -18.8051  -16.8871 N   0  0  0  0  0  0  0  0  0  0  0  0
   25.1460  -18.4042  -15.6480 C   0  0  1  0  0  0  0  0  0  0  0  0
   24.2060  -18.2259  -14.5061 C   0  0  0  0  0  0  0  0  0  0  0  0
   23.0392  -17.3713  -14.7637 C   0  0  0  0  0  0  0  0  0  0  0  0
   21.7243  -17.7657  -14.9651 C   0  0  0  0  0  0  0  0  0  0  0  0
   20.9453  -16.7019  -15.1879 N   0  0  0  0  0  0  0  0  0  0  0  0
   21.7524  -15.6144  -15.1314 C   0  0  0  0  0  0  0  0  0  0  0  0
   21.4290  -14.2598  -15.2926 C   0  0  0  0  0  0  0  0  0  0  0  0
   22.4189  -13.3071  -15.1884 C   0  0  0  0  0  0  0  0  0  0  0  0
   23.7303  -13.6983  -14.9237 C   0  0  0  0  0  0  0  0  0  0  0  0
   24.0449  -15.0305  -14.7657 C   0  0  0  0  0  0  0  0  0  0  0  0
   23.0472  -15.9989  -14.8712 C   0  0  0  0  0  0  0  0  0  0  0  0
   26.3042  -19.2806  -15.3412 C   0  0  0  0  0  0  0  0  0  0  0  0
   26.3327  -20.4318  -15.7893 O   0  0  0  0  0  0  0  0  0  0  0  0
   27.3706  -18.7968  -14.5389 N   0  0  0  0  0  0  0  0  0  0  0  0
   28.5465  -19.6514  -14.3960 C   0  0  0  0  0  0  0  0  0  0  0  0
   28.2458  -20.6615  -13.3788 C   0  0  0  0  0  0  0  0  0  0  0  0
   29.0857  -21.5658  -13.0383 O   0  0  0  0  0  0  0  0  0  0  0  0
   26.9996  -20.7048  -12.7013 N   0  0  0  0  0  0  0  0  0  0  0  0
   26.6953  -21.7104  -11.6792 C   0  0  1  0  0  0  0  0  0  0  0  0
   27.6627  -21.6517  -10.5632 C   0  0  0  0  0  0  0  0  0  0  0  0
   27.2562  -20.7165   -9.5037 C   0  0  0  0  0  0  0  0  0  0  0  0
   26.0762  -19.9471   -9.4841 C   0  0  0  0  0  0  0  0  0  0  0  0
   26.0655  -19.1782   -8.3926 N   0  0  0  0  0  0  0  0  0  0  0  0
   27.1924  -19.3836   -7.6505 C   0  0  0  0  0  0  0  0  0  0  0  0
   27.6272  -18.8557   -6.4551 C   0  0  0  0  0  0  0  0  0  0  0  0
   28.8109  -19.2660   -5.9089 C   0  0  0  0  0  0  0  0  0  0  0  0
   29.5597  -20.2102   -6.5675 C   0  0  0  0  0  0  0  0  0  0  0  0
   29.1111  -20.7254   -7.7601 C   0  0  0  0  0  0  0  0  0  0  0  0
   27.9084  -20.3312   -8.3503 C   0  0  0  0  0  0  0  0  0  0  0  0
   25.3091  -21.5439  -11.2707 C   0  0  0  0  0  0  0  0  0  0  0  0
   24.6524  -22.2767  -10.4926 O   0  0  0  0  0  0  0  0  0  0  0  0
   24.5823  -20.4491  -11.7819 O   0  0  0  0  0  0  0  0  0  0  0  0
  2  1  1  6
  2 13  1  0
  3  4  1  0
  3  2  1  0
  4  5  2  0
  6  5  1  0
  7  6  1  0
  8  7  2  0
  9  8  1  0
 10  9  2  0
 10 11  1  0
 11 12  2  0
 12  7  1  0
 12  4  1  0
 13 15  1  0
 14 13  2  0
 15 16  1  0
 17 18  2  0
 17 16  1  0
 19 17  1  0
 20 21  1  1
 20 19  1  0
 22 21  1  0
 23 22  2  0
 24 23  1  0
 25 24  1  0
 25 30  2  0
 26 25  1  0
 27 26  2  0
 27 28  1  0
 28 29  2  0
 29 30  1  0
 30 22  1  0
 31 20  1  0
 31 33  1  0
 32 31  2  0
M  END
$$$$
