GVK.pdb
     RDKit          3D

 21 20  0  0  1  0  0  0  0  0999 V2000
    7.6980  -18.3674   17.2793 N   0  0  0  0  0  0  0  0  0  0  0  0
    6.9809  -17.5351   18.2091 C   0  0  0  0  0  0  0  0  0  0  0  0
    7.9037  -16.7427   19.0681 C   0  0  0  0  0  0  0  0  0  0  0  0
    9.1308  -16.9628   19.1347 O   0  0  0  0  0  0  0  0  0  0  0  0
    7.3299  -13.0563   19.3650 C   0  0  0  0  0  0  0  0  0  0  0  0
    7.4532  -13.5701   20.8130 C   0  0  2  0  0  0  0  0  0  0  0  0
    8.1108  -12.4617   21.5762 C   0  0  0  0  0  0  0  0  0  0  0  0
    8.1739  -14.8599   20.7471 C   0  0  2  0  0  0  0  0  0  0  0  0
    7.3643  -15.7034   19.8349 N   0  0  0  0  0  0  0  0  0  0  0  0
    8.4415  -15.5618   21.9937 C   0  0  0  0  0  0  0  0  0  0  0  0
    7.4998  -15.9395   22.7736 O   0  0  0  0  0  0  0  0  0  0  0  0
    9.7470  -15.8767   22.4283 N   0  0  0  0  0  0  0  0  0  0  0  0
    9.9449  -16.6103   23.7435 C   0  0  1  0  0  0  0  0  0  0  0  0
    9.8417  -18.0355   23.3550 C   0  0  0  0  0  0  0  0  0  0  0  0
    9.8825  -19.1505   24.2772 C   0  0  0  0  0  0  0  0  0  0  0  0
   11.0845  -20.0092   24.3591 C   0  0  0  0  0  0  0  0  0  0  0  0
   10.8344  -21.1050   25.4347 C   0  0  0  0  0  0  0  0  0  0  0  0
   12.0179  -21.9285   25.5920 N   0  0  0  0  0  0  0  0  0  0  0  0
   11.2815  -16.1464   24.1607 C   0  0  0  0  0  0  0  0  0  0  0  0
   11.7941  -16.3716   25.2786 O   0  0  0  0  0  0  0  0  0  0  0  0
   12.0917  -15.3956   23.2938 O   0  0  0  0  0  0  0  0  0  0  0  0
  1  2  1  0
  3  4  2  0
  3  2  1  0
  6  5  1  6
  6  8  1  0
  7  6  1  0
  8  9  1  6
  8 10  1  0
  9  3  1  0
 10 11  2  0
 12 10  1  0
 12 13  1  0
 13 14  1  6
 14 15  1  0
 15 16  1  0
 16 17  1  0
 17 18  1  0
 19 21  1  0
 19 13  1  0
 20 19  2  0
M  END
$$$$
