GVK.pdb
     RDKit          3D

 21 20  0  0  1  0  0  0  0  0999 V2000
    6.7440  -18.8276   18.3557 N   0  0  0  0  0  0  0  0  0  0  0  0
    6.1435  -17.8031   19.1689 C   0  0  0  0  0  0  0  0  0  0  0  0
    7.1679  -16.9251   19.7989 C   0  0  0  0  0  0  0  0  0  0  0  0
    8.3740  -17.2365   19.8830 O   0  0  0  0  0  0  0  0  0  0  0  0
    7.3819  -13.2733   19.2598 C   0  0  0  0  0  0  0  0  0  0  0  0
    7.2024  -13.4355   20.7821 C   0  0  2  0  0  0  0  0  0  0  0  0
    7.9738  -12.3089   21.3982 C   0  0  0  0  0  0  0  0  0  0  0  0
    7.6359  -14.8090   21.1179 C   0  0  2  0  0  0  0  0  0  0  0  0
    6.7535  -15.6938   20.3196 N   0  0  0  0  0  0  0  0  0  0  0  0
    7.6324  -15.2076   22.5177 C   0  0  0  0  0  0  0  0  0  0  0  0
    6.5448  -15.3794   23.1700 O   0  0  0  0  0  0  0  0  0  0  0  0
    8.8172  -15.4342   23.2508 N   0  0  0  0  0  0  0  0  0  0  0  0
    8.7319  -15.9576   24.6741 C   0  0  1  0  0  0  0  0  0  0  0  0
    8.2600  -17.3498   24.4951 C   0  0  0  0  0  0  0  0  0  0  0  0
    7.9629  -18.2689   25.5732 C   0  0  0  0  0  0  0  0  0  0  0  0
    7.4770  -19.6349   25.2785 C   0  0  0  0  0  0  0  0  0  0  0  0
    7.3787  -20.4219   26.6168 C   0  0  0  0  0  0  0  0  0  0  0  0
    6.7364  -21.7033   26.3955 N   0  0  0  0  0  0  0  0  0  0  0  0
   10.1196  -15.7985   25.1480 C   0  0  0  0  0  0  0  0  0  0  0  0
   11.1135  -15.6627   24.4016 O   0  0  0  0  0  0  0  0  0  0  0  0
   10.4208  -15.7880   26.5195 O   0  0  0  0  0  0  0  0  0  0  0  0
  1  2  1  0
  3  4  2  0
  3  2  1  0
  6  5  1  6
  6  8  1  0
  7  6  1  0
  8  9  1  6
  8 10  1  0
  9  3  1  0
 10 11  2  0
 12 10  1  0
 12 13  1  0
 13 14  1  6
 14 15  1  0
 15 16  1  0
 16 17  1  0
 17 18  1  0
 19 21  1  0
 19 13  1  0
 20 19  2  0
M  END
$$$$
