GVK.pdb
     RDKit          3D

 21 20  0  0  1  0  0  0  0  0999 V2000
   10.5762  -17.4974   17.2949 N   0  0  0  0  0  0  0  0  0  0  0  0
    9.2965  -17.2478   17.9045 C   0  0  0  0  0  0  0  0  0  0  0  0
    9.4245  -16.4416   19.1498 C   0  0  0  0  0  0  0  0  0  0  0  0
   10.4265  -16.4894   19.8930 O   0  0  0  0  0  0  0  0  0  0  0  0
    8.1248  -12.8605   19.3830 C   0  0  0  0  0  0  0  0  0  0  0  0
    7.4413  -13.6785   20.4963 C   0  0  2  0  0  0  0  0  0  0  0  0
    7.2129  -12.7136   21.6191 C   0  0  0  0  0  0  0  0  0  0  0  0
    8.3187  -14.8362   20.7737 C   0  0  2  0  0  0  0  0  0  0  0  0
    8.3685  -15.5917   19.4987 N   0  0  0  0  0  0  0  0  0  0  0  0
    7.9668  -15.7159   21.8785 C   0  0  0  0  0  0  0  0  0  0  0  0
    7.0338  -16.5863   21.7802 O   0  0  0  0  0  0  0  0  0  0  0  0
    8.6244  -15.6755   23.1269 N   0  0  0  0  0  0  0  0  0  0  0  0
    8.1790  -16.6063   24.2415 C   0  0  1  0  0  0  0  0  0  0  0  0
    9.4029  -16.7637   25.0603 C   0  0  0  0  0  0  0  0  0  0  0  0
    9.5528  -17.6995   26.1544 C   0  0  0  0  0  0  0  0  0  0  0  0
   10.8272  -17.7776   26.9018 C   0  0  0  0  0  0  0  0  0  0  0  0
   10.7062  -18.9071   27.9648 C   0  0  0  0  0  0  0  0  0  0  0  0
   11.9862  -19.1217   28.6122 N   0  0  0  0  0  0  0  0  0  0  0  0
    7.0772  -15.8458   24.8606 C   0  0  0  0  0  0  0  0  0  0  0  0
    6.9932  -14.5984   24.8701 O   0  0  0  0  0  0  0  0  0  0  0  0
    6.0135  -16.5018   25.5008 O   0  0  0  0  0  0  0  0  0  0  0  0
  1  2  1  0
  3  4  2  0
  3  2  1  0
  6  5  1  6
  6  8  1  0
  7  6  1  0
  8  9  1  6
  8 10  1  0
  9  3  1  0
 10 11  2  0
 12 10  1  0
 12 13  1  0
 13 14  1  1
 14 15  1  0
 15 16  1  0
 16 17  1  0
 17 18  1  0
 19 21  1  0
 19 13  1  0
 20 19  2  0
M  END
$$$$
