GVK.pdb
     RDKit          3D

 21 20  0  0  1  0  0  0  0  0999 V2000
    8.0380  -17.7412   16.6638 N   0  0  0  0  0  0  0  0  0  0  0  0
    7.2866  -17.1331   17.7301 C   0  0  0  0  0  0  0  0  0  0  0  0
    8.1710  -16.4270   18.6977 C   0  0  0  0  0  0  0  0  0  0  0  0
    9.4117  -16.5656   18.7140 O   0  0  0  0  0  0  0  0  0  0  0  0
    7.3943  -12.8575   19.7506 C   0  0  0  0  0  0  0  0  0  0  0  0
    7.5247  -13.6910   21.0406 C   0  0  2  0  0  0  0  0  0  0  0  0
    8.0839  -12.7546   22.0672 C   0  0  0  0  0  0  0  0  0  0  0  0
    8.3387  -14.8779   20.7000 C   0  0  2  0  0  0  0  0  0  0  0  0
    7.5780  -15.5685   19.6307 N   0  0  0  0  0  0  0  0  0  0  0  0
    8.6809  -15.8057   21.7679 C   0  0  0  0  0  0  0  0  0  0  0  0
    7.7991  -16.5381   22.3369 O   0  0  0  0  0  0  0  0  0  0  0  0
    9.9986  -15.9659   22.2480 N   0  0  0  0  0  0  0  0  0  0  0  0
   10.2841  -16.9904   23.3324 C   0  0  1  0  0  0  0  0  0  0  0  0
   11.2682  -17.8941   22.6937 C   0  0  0  0  0  0  0  0  0  0  0  0
   11.9704  -18.9644   23.3694 C   0  0  0  0  0  0  0  0  0  0  0  0
   13.0526  -19.7007   22.6797 C   0  0  0  0  0  0  0  0  0  0  0  0
   13.6333  -20.7574   23.6628 C   0  0  0  0  0  0  0  0  0  0  0  0
   14.6520  -21.5485   22.9995 N   0  0  0  0  0  0  0  0  0  0  0  0
   10.7939  -16.1477   24.4304 C   0  0  0  0  0  0  0  0  0  0  0  0
   11.2210  -14.9810   24.2903 O   0  0  0  0  0  0  0  0  0  0  0  0
   10.8308  -16.6221   25.7515 O   0  0  0  0  0  0  0  0  0  0  0  0
  1  2  1  0
  3  4  2  0
  3  2  1  0
  6  5  1  6
  6  8  1  0
  7  6  1  0
  8  9  1  6
  8 10  1  0
  9  3  1  0
 10 11  2  0
 12 10  1  0
 12 13  1  0
 13 14  1  6
 14 15  1  0
 15 16  1  0
 16 17  1  0
 17 18  1  0
 19 21  1  0
 19 13  1  0
 20 19  2  0
M  END
$$$$
