GVK.pdb
     RDKit          3D

 21 20  0  0  1  0  0  0  0  0999 V2000
    4.5436  -18.2571   19.4722 N   0  0  0  0  0  0  0  0  0  0  0  0
    4.7440  -17.1038   20.3097 C   0  0  0  0  0  0  0  0  0  0  0  0
    6.1773  -16.7048   20.3683 C   0  0  0  0  0  0  0  0  0  0  0  0
    7.0966  -17.3900   19.8743 O   0  0  0  0  0  0  0  0  0  0  0  0
    7.1003  -12.8231   21.7887 C   0  0  0  0  0  0  0  0  0  0  0  0
    7.8915  -13.6285   20.7395 C   0  0  2  0  0  0  0  0  0  0  0  0
    7.2241  -13.3431   19.4292 C   0  0  0  0  0  0  0  0  0  0  0  0
    7.8975  -15.0346   21.1980 C   0  0  2  0  0  0  0  0  0  0  0  0
    6.5036  -15.5038   21.0089 N   0  0  0  0  0  0  0  0  0  0  0  0
    8.3543  -15.3139   22.5514 C   0  0  0  0  0  0  0  0  0  0  0  0
    7.6710  -14.9770   23.5796 O   0  0  0  0  0  0  0  0  0  0  0  0
    9.5719  -15.9730   22.8262 N   0  0  0  0  0  0  0  0  0  0  0  0
    9.9397  -16.3046   24.2621 C   0  0  1  0  0  0  0  0  0  0  0  0
    9.6054  -17.7429   24.3737 C   0  0  0  0  0  0  0  0  0  0  0  0
    9.6956  -18.5224   25.5900 C   0  0  0  0  0  0  0  0  0  0  0  0
    8.4818  -19.1253   26.1832 C   0  0  0  0  0  0  0  0  0  0  0  0
    8.8747  -19.8010   27.5284 C   0  0  0  0  0  0  0  0  0  0  0  0
    7.6949  -20.3351   28.1812 N   0  0  0  0  0  0  0  0  0  0  0  0
   11.3750  -15.9669   24.3018 C   0  0  0  0  0  0  0  0  0  0  0  0
   12.0959  -15.8116   23.2921 O   0  0  0  0  0  0  0  0  0  0  0  0
   12.0450  -15.7909   25.5232 O   0  0  0  0  0  0  0  0  0  0  0  0
  1  2  1  0
  3  4  2  0
  3  2  1  0
  6  5  1  1
  6  8  1  0
  7  6  1  0
  8  9  1  1
  8 10  1  0
  9  3  1  0
 10 11  2  0
 12 10  1  0
 12 13  1  0
 13 14  1  6
 14 15  1  0
 15 16  1  0
 16 17  1  0
 17 18  1  0
 19 21  1  0
 19 13  1  0
 20 19  2  0
M  END
$$$$
