GVK.pdb
     RDKit          3D

 21 20  0  0  1  0  0  0  0  0999 V2000
    6.2213  -17.7901   22.1527 N   0  0  0  0  0  0  0  0  0  0  0  0
    5.8588  -17.2626   23.4418 C   0  0  0  0  0  0  0  0  0  0  0  0
    6.8664  -16.2883   23.9444 C   0  0  0  0  0  0  0  0  0  0  0  0
    8.0456  -16.2550   23.5356 O   0  0  0  0  0  0  0  0  0  0  0  0
    6.2577  -12.5759   24.6224 C   0  0  0  0  0  0  0  0  0  0  0  0
    6.6081  -13.2651   25.9558 C   0  0  2  0  0  0  0  0  0  0  0  0
    7.2738  -12.2123   26.7876 C   0  0  0  0  0  0  0  0  0  0  0  0
    7.4098  -14.4613   25.6188 C   0  0  2  0  0  0  0  0  0  0  0  0
    6.4671  -15.3687   24.9211 N   0  0  0  0  0  0  0  0  0  0  0  0
    8.0898  -15.1595   26.6998 C   0  0  0  0  0  0  0  0  0  0  0  0
    7.4511  -15.8533   27.5650 O   0  0  0  0  0  0  0  0  0  0  0  0
    9.4906  -15.1249   26.8700 N   0  0  0  0  0  0  0  0  0  0  0  0
   10.1243  -15.8610   28.0377 C   0  0  1  0  0  0  0  0  0  0  0  0
   11.2448  -16.5956   27.4070 C   0  0  0  0  0  0  0  0  0  0  0  0
   12.1116  -17.5312   28.0915 C   0  0  0  0  0  0  0  0  0  0  0  0
   11.5794  -18.8212   28.5829 C   0  0  0  0  0  0  0  0  0  0  0  0
   12.7265  -19.5836   29.3061 C   0  0  0  0  0  0  0  0  0  0  0  0
   12.1888  -20.7122   30.0414 N   0  0  0  0  0  0  0  0  0  0  0  0
   10.4988  -14.7538   28.9374 C   0  0  0  0  0  0  0  0  0  0  0  0
   10.6514  -14.8641   30.1735 O   0  0  0  0  0  0  0  0  0  0  0  0
   10.7165  -13.4583   28.4414 O   0  0  0  0  0  0  0  0  0  0  0  0
  1  2  1  0
  3  4  2  0
  3  2  1  0
  6  5  1  6
  6  8  1  0
  7  6  1  0
  8  9  1  1
  8 10  1  0
  9  3  1  0
 10 11  2  0
 12 10  1  0
 12 13  1  0
 13 14  1  6
 14 15  1  0
 15 16  1  0
 16 17  1  0
 17 18  1  0
 19 21  1  0
 19 13  1  0
 20 19  2  0
M  END
$$$$
