GVK.pdb
     RDKit          3D

 21 20  0  0  1  0  0  0  0  0999 V2000
    8.5178  -17.2874   16.2002 N   0  0  0  0  0  0  0  0  0  0  0  0
    7.7028  -17.0543   17.3633 C   0  0  0  0  0  0  0  0  0  0  0  0
    8.4639  -16.3687   18.4440 C   0  0  0  0  0  0  0  0  0  0  0  0
    9.6997  -16.4786   18.5828 O   0  0  0  0  0  0  0  0  0  0  0  0
    7.2592  -12.9224   19.6936 C   0  0  0  0  0  0  0  0  0  0  0  0
    7.4283  -13.8486   20.9140 C   0  0  2  0  0  0  0  0  0  0  0  0
    7.8384  -12.9530   22.0424 C   0  0  0  0  0  0  0  0  0  0  0  0
    8.3815  -14.9071   20.5162 C   0  0  2  0  0  0  0  0  0  0  0  0
    7.7550  -15.5642   19.3438 N   0  0  0  0  0  0  0  0  0  0  0  0
    8.7669  -15.8948   21.5134 C   0  0  0  0  0  0  0  0  0  0  0  0
    7.9487  -16.7821   21.9389 O   0  0  0  0  0  0  0  0  0  0  0  0
   10.0599  -15.9472   22.0772 N   0  0  0  0  0  0  0  0  0  0  0  0
   10.3918  -17.0220   23.0978 C   0  0  1  0  0  0  0  0  0  0  0  0
   11.4081  -17.8456   22.4038 C   0  0  0  0  0  0  0  0  0  0  0  0
   12.1235  -18.9541   22.9993 C   0  0  0  0  0  0  0  0  0  0  0  0
   13.1116  -19.7185   22.2065 C   0  0  0  0  0  0  0  0  0  0  0  0
   13.7554  -20.7944   23.1274 C   0  0  0  0  0  0  0  0  0  0  0  0
   14.5630  -21.7060   22.3399 N   0  0  0  0  0  0  0  0  0  0  0  0
   10.8729  -16.2262   24.2428 C   0  0  0  0  0  0  0  0  0  0  0  0
   11.2270  -15.0289   24.1763 O   0  0  0  0  0  0  0  0  0  0  0  0
   10.9649  -16.7859   25.5273 O   0  0  0  0  0  0  0  0  0  0  0  0
  1  2  1  0
  3  4  2  0
  3  2  1  0
  6  5  1  6
  6  8  1  0
  7  6  1  0
  8  9  1  6
  8 10  1  0
  9  3  1  0
 10 11  2  0
 12 10  1  0
 12 13  1  0
 13 14  1  6
 14 15  1  0
 15 16  1  0
 16 17  1  0
 17 18  1  0
 19 21  1  0
 19 13  1  0
 20 19  2  0
M  END
$$$$
