GVK.pdb
     RDKit          3D

 21 20  0  0  1  0  0  0  0  0999 V2000
    7.4955  -18.1985   16.9232 N   0  0  0  0  0  0  0  0  0  0  0  0
    6.9001  -17.4920   18.0268 C   0  0  0  0  0  0  0  0  0  0  0  0
    7.9076  -16.7004   18.7854 C   0  0  0  0  0  0  0  0  0  0  0  0
    9.1384  -16.8200   18.6138 O   0  0  0  0  0  0  0  0  0  0  0  0
    7.3477  -13.0743   19.4507 C   0  0  0  0  0  0  0  0  0  0  0  0
    7.6121  -13.7095   20.8301 C   0  0  2  0  0  0  0  0  0  0  0  0
    8.3133  -12.6541   21.6289 C   0  0  0  0  0  0  0  0  0  0  0  0
    8.3500  -14.9675   20.5850 C   0  0  2  0  0  0  0  0  0  0  0  0
    7.4473  -15.7803   19.7344 N   0  0  0  0  0  0  0  0  0  0  0  0
    8.8001  -15.7355   21.7365 C   0  0  0  0  0  0  0  0  0  0  0  0
    7.9789  -16.2189   22.5908 O   0  0  0  0  0  0  0  0  0  0  0  0
   10.1624  -16.0030   21.9916 N   0  0  0  0  0  0  0  0  0  0  0  0
   10.5458  -16.9249   23.1362 C   0  0  1  0  0  0  0  0  0  0  0  0
   11.2423  -18.0397   22.4542 C   0  0  0  0  0  0  0  0  0  0  0  0
   10.5899  -19.2005   21.8868 C   0  0  0  0  0  0  0  0  0  0  0  0
   11.3896  -20.2741   21.2568 C   0  0  0  0  0  0  0  0  0  0  0  0
   10.4212  -21.3944   20.7803 C   0  0  0  0  0  0  0  0  0  0  0  0
   11.1586  -22.4225   20.0713 N   0  0  0  0  0  0  0  0  0  0  0  0
   11.3873  -16.0489   23.9730 C   0  0  0  0  0  0  0  0  0  0  0  0
   12.0194  -15.0565   23.5499 O   0  0  0  0  0  0  0  0  0  0  0  0
   11.5345  -16.2841   25.3495 O   0  0  0  0  0  0  0  0  0  0  0  0
  1  2  1  0
  3  4  2  0
  3  2  1  0
  6  5  1  6
  6  8  1  0
  7  6  1  0
  8  9  1  6
  8 10  1  0
  9  3  1  0
 10 11  2  0
 12 10  1  0
 12 13  1  0
 13 14  1  6
 14 15  1  0
 15 16  1  0
 16 17  1  0
 17 18  1  0
 19 21  1  0
 19 13  1  0
 20 19  2  0
M  END
$$$$
