RES.pdb
     RDKit          3D

 27 26  0  0  1  0  0  0  0  0999 V2000
   23.0019  -19.8460  -13.9780 N   0  0  0  0  0  0  0  0  0  0  0  0
   21.7256  -19.5663  -14.5240 C   0  0  0  0  0  0  0  0  0  0  0  0
   21.5487  -19.2343  -15.7592 N   0  0  0  0  0  0  0  0  0  0  0  0
   20.5450  -19.6406  -13.7111 N   0  0  0  0  0  0  0  0  0  0  0  0
   20.6666  -20.1067  -12.3507 C   0  0  0  0  0  0  0  0  0  0  0  0
   20.4452  -21.5989  -12.2472 C   0  0  0  0  0  0  0  0  0  0  0  0
   19.2366  -21.9627  -11.4219 C   0  0  0  0  0  0  0  0  0  0  0  0
   19.0359  -23.4701  -11.4708 C   0  0  2  0  0  0  0  0  0  0  0  0
   18.5680  -23.7359  -12.8345 N   0  0  0  0  0  0  0  0  0  0  0  0
   17.9365  -23.8956  -10.5598 C   0  0  0  0  0  0  0  0  0  0  0  0
   16.7918  -23.3685  -10.5942 O   0  0  0  0  0  0  0  0  0  0  0  0
   20.5696  -18.9585  -16.0545 N   0  0  0  0  0  0  0  0  0  0  0  0
   18.0920  -24.9158   -9.5938 C   0  0  1  0  0  0  0  0  0  0  0  0
   17.1027  -25.3766   -8.6749 C   0  0  0  0  0  0  0  0  0  0  0  0
   16.4604  -26.6500   -8.9322 C   0  0  0  0  0  0  0  0  0  0  0  0
   15.8315  -26.8131  -10.2840 C   0  0  0  0  0  0  0  0  0  0  0  0
   15.1607  -28.1090  -10.4413 O   0  0  0  0  0  0  0  0  0  0  0  0
   15.6750  -29.1152  -10.9781 C   0  0  0  0  0  0  0  0  0  0  0  0
   17.5627  -25.1737   -7.2959 O   0  0  0  0  0  0  0  0  0  0  0  0
   18.8097  -25.2921   -7.0029 O   0  0  0  0  0  0  0  0  0  0  0  0
   13.8437  -28.2753   -9.9709 O   0  0  0  0  0  0  0  0  0  0  0  0
   14.9344  -24.1752   -4.6676 C   0  0  0  0  0  0  0  0  0  0  0  0
   16.1317  -24.1836   -3.9901 C   0  0  1  0  0  0  0  0  0  0  0  0
   17.2442  -24.8266   -4.8487 N   0  0  0  0  0  0  0  0  0  0  0  0
   16.7219  -24.8386   -6.1998 C   0  0  0  0  0  0  0  0  0  0  0  0
   17.4302  -26.1763   -4.2818 O   0  0  0  0  0  0  0  0  0  0  0  0
   16.9779  -27.1578   -4.9080 O   0  0  0  0  0  0  0  0  0  0  0  0
  2  1  1  0
  2  3  2  0
  4  5  1  0
  4  2  1  0
  6  5  1  0
  7  6  1  0
  8  9  1  6
  8 10  1  0
  8  7  1  0
 10 12  1  0
 10 11  2  0
 12 13  1  0
 13 14  1  1
 14 15  1  0
 15 16  1  0
 16 17  2  0
 16 20  1  0
 18 13  1  0
 19 18  2  0
 21 22  1  0
 23 22  1  6
 23 25  1  0
 23 24  1  0
 24 18  1  0
 25 27  1  0
 26 25  2  0
M  END
$$$$
