RES.pdb
     RDKit          3D

 27 26  0  0  1  0  0  0  0  0999 V2000
   16.2944  -15.4019  -14.0936 N   0  0  0  0  0  0  0  0  0  0  0  0
   16.5670  -15.9319  -15.3782 C   0  0  0  0  0  0  0  0  0  0  0  0
   16.4027  -17.1786  -15.6718 N   0  0  0  0  0  0  0  0  0  0  0  0
   17.0488  -15.0887  -16.4350 N   0  0  0  0  0  0  0  0  0  0  0  0
   18.1257  -14.1699  -16.1543 C   0  0  0  0  0  0  0  0  0  0  0  0
   17.6270  -12.7503  -16.0048 C   0  0  0  0  0  0  0  0  0  0  0  0
   18.7202  -11.7720  -15.6552 C   0  0  0  0  0  0  0  0  0  0  0  0
   18.0957  -10.4234  -15.3289 C   0  0  2  0  0  0  0  0  0  0  0  0
   17.0285  -10.2614  -16.3210 N   0  0  0  0  0  0  0  0  0  0  0  0
   19.0606   -9.3132  -15.5655 C   0  0  0  0  0  0  0  0  0  0  0  0
   20.1695   -9.2466  -14.9696 O   0  0  0  0  0  0  0  0  0  0  0  0
   16.6614  -17.4868  -16.6516 N   0  0  0  0  0  0  0  0  0  0  0  0
   18.8078   -8.2568  -16.4701 C   0  0  1  0  0  0  0  0  0  0  0  0
   19.6893   -7.1823  -16.7926 C   0  0  0  0  0  0  0  0  0  0  0  0
   19.5686   -6.5564  -18.0941 C   0  0  0  0  0  0  0  0  0  0  0  0
   20.2747   -7.2414  -19.2262 C   0  0  0  0  0  0  0  0  0  0  0  0
   19.3480   -7.7425  -20.2481 O   0  0  0  0  0  0  0  0  0  0  0  0
   18.6921   -7.0183  -21.0295 C   0  0  0  0  0  0  0  0  0  0  0  0
   19.7905   -6.2562  -15.6584 O   0  0  0  0  0  0  0  0  0  0  0  0
   18.7299   -5.7427  -15.1423 O   0  0  0  0  0  0  0  0  0  0  0  0
   19.1515   -9.1295  -20.3927 O   0  0  0  0  0  0  0  0  0  0  0  0
   21.8354   -6.6140  -12.4971 C   0  0  0  0  0  0  0  0  0  0  0  0
   22.1153   -5.3626  -12.9957 C   0  0  2  0  0  0  0  0  0  0  0  0
   21.0019   -4.8937  -13.9593 N   0  0  0  0  0  0  0  0  0  0  0  0
   21.0074   -5.8554  -15.0426 C   0  0  0  0  0  0  0  0  0  0  0  0
   21.4076   -3.5383  -14.3787 O   0  0  0  0  0  0  0  0  0  0  0  0
   21.7813   -3.3615  -15.5573 O   0  0  0  0  0  0  0  0  0  0  0  0
  2  1  1  0
  2  3  2  0
  4  5  1  0
  4  2  1  0
  6  5  1  0
  7  6  1  0
  8  9  1  6
  8 10  1  0
  8  7  1  0
 10 12  1  0
 10 11  2  0
 12 13  1  0
 13 14  1  6
 14 15  1  0
 15 16  1  0
 16 17  2  0
 16 20  1  0
 18 13  1  0
 19 18  2  0
 21 22  1  0
 23 22  1  1
 23 25  1  0
 23 24  1  0
 24 18  1  0
 25 27  1  0
 26 25  2  0
M  END
$$$$
