RES.pdb
     RDKit          3D

 27 26  0  0  1  0  0  0  0  0999 V2000
   16.6890  -12.9259  -15.6929 N   0  0  0  0  0  0  0  0  0  0  0  0
   16.2787  -11.5928  -15.4486 C   0  0  0  0  0  0  0  0  0  0  0  0
   15.3974  -10.9865  -16.1719 N   0  0  0  0  0  0  0  0  0  0  0  0
   16.8363  -10.8385  -14.3622 N   0  0  0  0  0  0  0  0  0  0  0  0
   18.2704  -10.7037  -14.2741 C   0  0  0  0  0  0  0  0  0  0  0  0
   18.6783   -9.3061  -13.8658 C   0  0  0  0  0  0  0  0  0  0  0  0
   20.1725   -9.1018  -13.8636 C   0  0  0  0  0  0  0  0  0  0  0  0
   20.6394   -8.8266  -15.2853 C   0  0  2  0  0  0  0  0  0  0  0  0
   20.4579  -10.1013  -15.9864 N   0  0  0  0  0  0  0  0  0  0  0  0
   22.0991   -8.5310  -15.3236 C   0  0  0  0  0  0  0  0  0  0  0  0
   22.6069   -7.5644  -14.6933 O   0  0  0  0  0  0  0  0  0  0  0  0
   15.1872   -9.9750  -15.9383 N   0  0  0  0  0  0  0  0  0  0  0  0
   23.0198   -9.3064  -16.0647 C   0  0  2  0  0  0  0  0  0  0  0  0
   24.4215   -9.0729  -16.1920 C   0  0  0  0  0  0  0  0  0  0  0  0
   25.3182  -10.2108  -16.1495 C   0  0  0  0  0  0  0  0  0  0  0  0
   26.7827   -9.9037  -16.2494 C   0  0  0  0  0  0  0  0  0  0  0  0
   27.6188  -11.1065  -16.1578 O   0  0  0  0  0  0  0  0  0  0  0  0
   27.1827  -12.2616  -15.9557 C   0  0  0  0  0  0  0  0  0  0  0  0
   24.6762   -8.1140  -17.2737 O   0  0  0  0  0  0  0  0  0  0  0  0
   24.4797   -8.4503  -18.4997 O   0  0  0  0  0  0  0  0  0  0  0  0
   29.0158  -10.9984  -16.2994 O   0  0  0  0  0  0  0  0  0  0  0  0
   25.9326   -4.3406  -16.5004 C   0  0  0  0  0  0  0  0  0  0  0  0
   25.3019   -4.4933  -17.7136 C   0  0  1  0  0  0  0  0  0  0  0  0
   25.4442   -5.9437  -18.2279 N   0  0  0  0  0  0  0  0  0  0  0  0
   25.1382   -6.7827  -17.0873 C   0  0  0  0  0  0  0  0  0  0  0  0
   26.8463   -6.0531  -18.6748 O   0  0  0  0  0  0  0  0  0  0  0  0
   27.6125   -6.8268  -18.0628 O   0  0  0  0  0  0  0  0  0  0  0  0
  2  1  1  0
  2  3  2  0
  4  5  1  0
  4  2  1  0
  6  5  1  0
  7  6  1  0
  8  9  1  6
  8 10  1  0
  8  7  1  0
 10 12  1  0
 10 11  2  0
 12 13  1  0
 13 14  1  1
 14 15  1  0
 15 16  1  0
 16 17  2  0
 16 20  1  0
 18 13  1  0
 19 18  2  0
 21 22  1  0
 23 22  1  6
 23 25  1  0
 23 24  1  0
 24 18  1  0
 25 27  1  0
 26 25  2  0
M  END
$$$$
