RES.pdb
     RDKit          3D

 27 26  0  0  1  0  0  0  0  0999 V2000
   17.7155  -25.1163   -5.2462 N   0  0  0  0  0  0  0  0  0  0  0  0
   17.8008  -26.4729   -5.6433 C   0  0  0  0  0  0  0  0  0  0  0  0
   17.6595  -27.4555   -4.8176 N   0  0  0  0  0  0  0  0  0  0  0  0
   18.0537  -26.8246   -7.0116 N   0  0  0  0  0  0  0  0  0  0  0  0
   18.5247  -25.8031   -7.9157 C   0  0  0  0  0  0  0  0  0  0  0  0
   17.3889  -25.1699   -8.6873 C   0  0  0  0  0  0  0  0  0  0  0  0
   17.7331  -24.8950  -10.1296 C   0  0  0  0  0  0  0  0  0  0  0  0
   19.0058  -24.0632  -10.1878 C   0  0  2  0  0  0  0  0  0  0  0  0
   19.2264  -23.6293   -8.8049 N   0  0  0  0  0  0  0  0  0  0  0  0
   18.8014  -22.8237  -10.9888 C   0  0  0  0  0  0  0  0  0  0  0  0
   18.0057  -21.9141  -10.6301 O   0  0  0  0  0  0  0  0  0  0  0  0
   17.7724  -28.4358   -5.2025 N   0  0  0  0  0  0  0  0  0  0  0  0
   19.4795  -22.5750  -12.2038 C   0  0  1  0  0  0  0  0  0  0  0  0
   19.3852  -21.3992  -13.0066 C   0  0  0  0  0  0  0  0  0  0  0  0
   20.4787  -21.0862  -13.9047 C   0  0  0  0  0  0  0  0  0  0  0  0
   21.7373  -20.5810  -13.2646 C   0  0  0  0  0  0  0  0  0  0  0  0
   22.8081  -20.3399  -14.2389 O   0  0  0  0  0  0  0  0  0  0  0  0
   23.9640  -20.8116  -14.1561 C   0  0  0  0  0  0  0  0  0  0  0  0
   18.0433  -21.2957  -13.5924 O   0  0  0  0  0  0  0  0  0  0  0  0
   17.4269  -22.3508  -13.9947 O   0  0  0  0  0  0  0  0  0  0  0  0
   22.5614  -19.5246  -15.3604 O   0  0  0  0  0  0  0  0  0  0  0  0
   13.9448  -20.0276  -12.9657 C   0  0  0  0  0  0  0  0  0  0  0  0
   15.1176  -20.7251  -13.1412 C   0  0  1  0  0  0  0  0  0  0  0  0
   15.9658  -20.0979  -14.2705 N   0  0  0  0  0  0  0  0  0  0  0  0
   17.3224  -20.0825  -13.7627 C   0  0  0  0  0  0  0  0  0  0  0  0
   15.3999  -18.7494  -14.4674 O   0  0  0  0  0  0  0  0  0  0  0  0
   16.1092  -17.7562  -14.2013 O   0  0  0  0  0  0  0  0  0  0  0  0
  2  1  1  0
  2  3  2  0
  4  5  1  0
  4  2  1  0
  6  5  1  0
  7  6  1  0
  8  9  1  1
  8 10  1  0
  8  7  1  0
 10 12  1  0
 10 11  2  0
 12 13  1  0
 13 14  1  1
 14 15  1  0
 15 16  1  0
 16 17  2  0
 16 20  1  0
 18 13  1  0
 19 18  2  0
 21 22  1  0
 23 22  1  6
 23 25  1  0
 23 24  1  0
 24 18  1  0
 25 27  1  0
 26 25  2  0
M  END
$$$$
