RES.pdb
     RDKit          3D

 27 26  0  0  1  0  0  0  0  0999 V2000
   31.9485  -21.9120   -9.9173 N   0  0  0  0  0  0  0  0  0  0  0  0
   31.6882  -22.5426  -11.1583 C   0  0  0  0  0  0  0  0  0  0  0  0
   32.2366  -23.6585  -11.5066 N   0  0  0  0  0  0  0  0  0  0  0  0
   30.7831  -21.9568  -12.1058 N   0  0  0  0  0  0  0  0  0  0  0  0
   30.1133  -20.7268  -11.7577 C   0  0  0  0  0  0  0  0  0  0  0  0
   28.6715  -20.9639  -11.3688 C   0  0  0  0  0  0  0  0  0  0  0  0
   27.6887  -20.3579  -12.3389 C   0  0  0  0  0  0  0  0  0  0  0  0
   26.2757  -20.5805  -11.8204 C   0  0  2  0  0  0  0  0  0  0  0  0
   26.0651  -22.0270  -11.9332 N   0  0  0  0  0  0  0  0  0  0  0  0
   25.2690  -19.9392  -12.7120 C   0  0  0  0  0  0  0  0  0  0  0  0
   25.1783  -18.6878  -12.8342 O   0  0  0  0  0  0  0  0  0  0  0  0
   32.0027  -24.0376  -12.4676 N   0  0  0  0  0  0  0  0  0  0  0  0
   24.3449  -20.6801  -13.4835 C   0  0  1  0  0  0  0  0  0  0  0  0
   23.4521  -20.1645  -14.4697 C   0  0  0  0  0  0  0  0  0  0  0  0
   23.7486  -20.4114  -15.8667 C   0  0  0  0  0  0  0  0  0  0  0  0
   23.9587  -21.8445  -16.2557 C   0  0  0  0  0  0  0  0  0  0  0  0
   24.2267  -22.0063  -17.6896 O   0  0  0  0  0  0  0  0  0  0  0  0
   24.2494  -21.0695  -18.5186 C   0  0  0  0  0  0  0  0  0  0  0  0
   22.0619  -20.4137  -14.0702 O   0  0  0  0  0  0  0  0  0  0  0  0
   21.7342  -21.5292  -13.5194 O   0  0  0  0  0  0  0  0  0  0  0  0
   24.4792  -23.2893  -18.2125 O   0  0  0  0  0  0  0  0  0  0  0  0
   17.5282  -18.7424  -13.5780 C   0  0  0  0  0  0  0  0  0  0  0  0
   18.7983  -18.5839  -14.0826 C   0  0  2  0  0  0  0  0  0  0  0  0
   19.6414  -19.8596  -13.8589 N   0  0  0  0  0  0  0  0  0  0  0  0
   20.9909  -19.4943  -14.2381 C   0  0  0  0  0  0  0  0  0  0  0  0
   19.0392  -20.8739  -14.7456 O   0  0  0  0  0  0  0  0  0  0  0  0
   19.4527  -20.9652  -15.9207 O   0  0  0  0  0  0  0  0  0  0  0  0
  2  1  1  0
  2  3  2  0
  4  5  1  0
  4  2  1  0
  6  5  1  0
  7  6  1  0
  8  9  1  6
  8 10  1  0
  8  7  1  0
 10 12  1  0
 10 11  2  0
 12 13  1  0
 13 14  1  6
 14 15  1  0
 15 16  1  0
 16 17  2  0
 16 20  1  0
 18 13  1  0
 19 18  2  0
 21 22  1  0
 23 22  1  1
 23 25  1  0
 23 24  1  0
 24 18  1  0
 25 27  1  0
 26 25  2  0
M  END
$$$$
