RES.pdb
     RDKit          3D

 27 26  0  0  1  0  0  0  0  0999 V2000
    9.7824  -11.7132  -12.0704 N   0  0  0  0  0  0  0  0  0  0  0  0
   10.4607  -12.5693  -11.1692 C   0  0  0  0  0  0  0  0  0  0  0  0
    9.8487  -13.2809  -10.2825 N   0  0  0  0  0  0  0  0  0  0  0  0
   11.8908  -12.6871  -11.2013 N   0  0  0  0  0  0  0  0  0  0  0  0
   12.6739  -11.5384  -11.5886 C   0  0  0  0  0  0  0  0  0  0  0  0
   13.6368  -11.8672  -12.7071 C   0  0  0  0  0  0  0  0  0  0  0  0
   14.3956  -10.6643  -13.2085 C   0  0  0  0  0  0  0  0  0  0  0  0
   15.8880  -10.9514  -13.1360 C   0  0  2  0  0  0  0  0  0  0  0  0
   15.9785  -12.2820  -12.5271 N   0  0  0  0  0  0  0  0  0  0  0  0
   16.5706  -10.0145  -12.2001 C   0  0  0  0  0  0  0  0  0  0  0  0
   16.5101  -10.1507  -10.9482 O   0  0  0  0  0  0  0  0  0  0  0  0
   10.4452  -13.8499   -9.6174 N   0  0  0  0  0  0  0  0  0  0  0  0
   17.3326   -8.9088  -12.6414 C   0  0  2  0  0  0  0  0  0  0  0  0
   18.0256   -7.9699  -11.8205 C   0  0  0  0  0  0  0  0  0  0  0  0
   19.2172   -7.3369  -12.3495 C   0  0  0  0  0  0  0  0  0  0  0  0
   19.9149   -6.3724  -11.4373 C   0  0  0  0  0  0  0  0  0  0  0  0
   21.0314   -5.6821  -12.0939 O   0  0  0  0  0  0  0  0  0  0  0  0
   20.9582   -4.5463  -12.6132 C   0  0  0  0  0  0  0  0  0  0  0  0
   17.0689   -7.0641  -11.1736 O   0  0  0  0  0  0  0  0  0  0  0  0
   16.1349   -6.5070  -11.8608 O   0  0  0  0  0  0  0  0  0  0  0  0
   22.2915   -6.3066  -12.1689 O   0  0  0  0  0  0  0  0  0  0  0  0
   15.0312   -5.5497   -7.0589 C   0  0  0  0  0  0  0  0  0  0  0  0
   16.0021   -6.2677   -7.7184 C   0  0  1  0  0  0  0  0  0  0  0  0
   16.0077   -5.9278   -9.2259 N   0  0  0  0  0  0  0  0  0  0  0  0
   17.0730   -6.7297   -9.7920 C   0  0  0  0  0  0  0  0  0  0  0  0
   16.2715   -4.4773   -9.2880 O   0  0  0  0  0  0  0  0  0  0  0  0
   17.4565   -4.0837   -9.3184 O   0  0  0  0  0  0  0  0  0  0  0  0
  2  1  1  0
  2  3  2  0
  4  5  1  0
  4  2  1  0
  6  5  1  0
  7  6  1  0
  8  9  1  1
  8 10  1  0
  8  7  1  0
 10 12  1  0
 10 11  2  0
 12 13  1  0
 13 14  1  6
 14 15  1  0
 15 16  1  0
 16 17  2  0
 16 20  1  0
 18 13  1  0
 19 18  2  0
 21 22  1  0
 23 22  1  6
 23 25  1  0
 23 24  1  0
 24 18  1  0
 25 27  1  0
 26 25  2  0
M  END
$$$$
