RES.pdb
     RDKit          3D

 27 26  0  0  1  0  0  0  0  0999 V2000
   28.5294  -21.2138   -9.4021 N   0  0  0  0  0  0  0  0  0  0  0  0
   27.2463  -20.8457   -8.9293 C   0  0  0  0  0  0  0  0  0  0  0  0
   26.9578  -20.7666   -7.6732 N   0  0  0  0  0  0  0  0  0  0  0  0
   26.1851  -20.5374   -9.8453 N   0  0  0  0  0  0  0  0  0  0  0  0
   26.0142  -21.3658  -11.0146 C   0  0  0  0  0  0  0  0  0  0  0  0
   27.0273  -21.0368  -12.0878 C   0  0  0  0  0  0  0  0  0  0  0  0
   26.4127  -20.8861  -13.4566 C   0  0  0  0  0  0  0  0  0  0  0  0
   24.9138  -21.1285  -13.3587 C   0  0  2  0  0  0  0  0  0  0  0  0
   24.7777  -22.5879  -13.3240 N   0  0  0  0  0  0  0  0  0  0  0  0
   24.2139  -20.6712  -14.5918 C   0  0  0  0  0  0  0  0  0  0  0  0
   24.2159  -21.3462  -15.6566 O   0  0  0  0  0  0  0  0  0  0  0  0
   25.9724  -20.4748   -7.4168 N   0  0  0  0  0  0  0  0  0  0  0  0
   23.4992  -19.4537  -14.6615 C   0  0  2  0  0  0  0  0  0  0  0  0
   22.7379  -18.9751  -15.7693 C   0  0  0  0  0  0  0  0  0  0  0  0
   21.5575  -18.1774  -15.5034 C   0  0  0  0  0  0  0  0  0  0  0  0
   20.8143  -17.6739  -16.7049 C   0  0  0  0  0  0  0  0  0  0  0  0
   19.6217  -16.8975  -16.3458 O   0  0  0  0  0  0  0  0  0  0  0  0
   18.8433  -16.3682  -17.1700 C   0  0  0  0  0  0  0  0  0  0  0  0
   23.6334  -18.4444  -16.8041 O   0  0  0  0  0  0  0  0  0  0  0  0
   24.5434  -17.5879  -16.4988 O   0  0  0  0  0  0  0  0  0  0  0  0
   19.2937  -16.7084  -14.9893 O   0  0  0  0  0  0  0  0  0  0  0  0
   23.6075  -19.7027  -20.7842 C   0  0  0  0  0  0  0  0  0  0  0  0
   24.7823  -19.3370  -20.1687 C   0  0  1  0  0  0  0  0  0  0  0  0
   24.5312  -18.2309  -19.1190 N   0  0  0  0  0  0  0  0  0  0  0  0
   23.5923  -18.8065  -18.1780 C   0  0  0  0  0  0  0  0  0  0  0  0
   23.9725  -17.0997  -19.8845 O   0  0  0  0  0  0  0  0  0  0  0  0
   22.7770  -16.7856  -19.7046 O   0  0  0  0  0  0  0  0  0  0  0  0
  2  1  1  0
  2  3  2  0
  4  5  1  0
  4  2  1  0
  6  5  1  0
  7  6  1  0
  8  9  1  6
  8 10  1  0
  8  7  1  0
 10 12  1  0
 10 11  2  0
 12 13  1  0
 13 14  1  1
 14 15  1  0
 15 16  1  0
 16 17  2  0
 16 20  1  0
 18 13  1  0
 19 18  2  0
 21 22  1  0
 23 22  1  1
 23 25  1  0
 23 24  1  0
 24 18  1  0
 25 27  1  0
 26 25  2  0
M  END
$$$$
