RES.pdb
     RDKit          3D

 27 26  0  0  1  0  0  0  0  0999 V2000
   17.6800   -9.8616  -19.1785 N   0  0  0  0  0  0  0  0  0  0  0  0
   17.2868   -8.8225  -18.3005 C   0  0  0  0  0  0  0  0  0  0  0  0
   16.3415   -7.9885  -18.5797 N   0  0  0  0  0  0  0  0  0  0  0  0
   17.9359   -8.6455  -17.0326 N   0  0  0  0  0  0  0  0  0  0  0  0
   18.9287   -9.6082  -16.6201 C   0  0  0  0  0  0  0  0  0  0  0  0
   19.5057   -9.2726  -15.2633 C   0  0  0  0  0  0  0  0  0  0  0  0
   19.4100   -7.8061  -14.9250 C   0  0  0  0  0  0  0  0  0  0  0  0
   19.9030   -7.5904  -13.5018 C   0  0  2  0  0  0  0  0  0  0  0  0
   21.1611   -8.3395  -13.4297 N   0  0  0  0  0  0  0  0  0  0  0  0
   18.9830   -8.2197  -12.5133 C   0  0  0  0  0  0  0  0  0  0  0  0
   19.2139   -9.3490  -12.0028 O   0  0  0  0  0  0  0  0  0  0  0  0
   16.1154   -7.2480  -17.8569 N   0  0  0  0  0  0  0  0  0  0  0  0
   17.7890   -7.6026  -12.0754 C   0  0  2  0  0  0  0  0  0  0  0  0
   16.8691   -8.1147  -11.1126 C   0  0  0  0  0  0  0  0  0  0  0  0
   16.2954   -7.1970  -10.1487 C   0  0  0  0  0  0  0  0  0  0  0  0
   17.2686   -6.3836   -9.3484 C   0  0  0  0  0  0  0  0  0  0  0  0
   16.6075   -5.5351   -8.3499 O   0  0  0  0  0  0  0  0  0  0  0  0
   16.1554   -4.3908   -8.5768 C   0  0  0  0  0  0  0  0  0  0  0  0
   15.9139   -9.0211  -11.7610 O   0  0  0  0  0  0  0  0  0  0  0  0
   15.3593   -8.6923  -12.8743 O   0  0  0  0  0  0  0  0  0  0  0  0
   16.4515   -6.0015   -7.0302 O   0  0  0  0  0  0  0  0  0  0  0  0
   14.4346  -13.3992  -12.7262 C   0  0  0  0  0  0  0  0  0  0  0  0
   15.2811  -12.4843  -12.1436 C   0  0  1  0  0  0  0  0  0  0  0  0
   14.5818  -11.1160  -11.9794 N   0  0  0  0  0  0  0  0  0  0  0  0
   15.5264  -10.2913  -11.2541 C   0  0  0  0  0  0  0  0  0  0  0  0
   13.3525  -11.4061  -11.2163 O   0  0  0  0  0  0  0  0  0  0  0  0
   13.3199  -11.1218  -10.0004 O   0  0  0  0  0  0  0  0  0  0  0  0
  2  1  1  0
  2  3  2  0
  4  5  1  0
  4  2  1  0
  6  5  1  0
  7  6  1  0
  8  9  1  6
  8 10  1  0
  8  7  1  0
 10 12  1  0
 10 11  2  0
 12 13  1  0
 13 14  1  6
 14 15  1  0
 15 16  1  0
 16 17  2  0
 16 20  1  0
 18 13  1  0
 19 18  2  0
 21 22  1  0
 23 22  1  6
 23 25  1  0
 23 24  1  0
 24 18  1  0
 25 27  1  0
 26 25  2  0
M  END
$$$$
