RES.pdb
     RDKit          3D

 27 26  0  0  1  0  0  0  0  0999 V2000
   33.5383  -36.0835  -18.2592 N   0  0  0  0  0  0  0  0  0  0  0  0
   32.7892  -36.5102  -17.1358 C   0  0  0  0  0  0  0  0  0  0  0  0
   33.0333  -37.6113  -16.5072 N   0  0  0  0  0  0  0  0  0  0  0  0
   31.7006  -35.7206  -16.6342 N   0  0  0  0  0  0  0  0  0  0  0  0
   31.3807  -34.4786  -17.2960 C   0  0  0  0  0  0  0  0  0  0  0  0
   31.7634  -33.2808  -16.4562 C   0  0  0  0  0  0  0  0  0  0  0  0
   30.5718  -32.5145  -15.9393 C   0  0  0  0  0  0  0  0  0  0  0  0
   30.0348  -31.6220  -17.0484 C   0  0  2  0  0  0  0  0  0  0  0  0
   30.9570  -30.4828  -17.0843 N   0  0  0  0  0  0  0  0  0  0  0  0
   28.6981  -31.0685  -16.6928 C   0  0  0  0  0  0  0  0  0  0  0  0
   28.5642  -29.9840  -16.0641 O   0  0  0  0  0  0  0  0  0  0  0  0
   32.3724  -37.8832  -15.7254 N   0  0  0  0  0  0  0  0  0  0  0  0
   27.4862  -31.7129  -17.0308 C   0  0  2  0  0  0  0  0  0  0  0  0
   26.1670  -31.2179  -16.8064 C   0  0  0  0  0  0  0  0  0  0  0  0
   25.4726  -30.5784  -17.9061 C   0  0  0  0  0  0  0  0  0  0  0  0
   24.1449  -29.9612  -17.5813 C   0  0  0  0  0  0  0  0  0  0  0  0
   23.5227  -29.3173  -18.7442 O   0  0  0  0  0  0  0  0  0  0  0  0
   24.1194  -29.0438  -19.8092 C   0  0  0  0  0  0  0  0  0  0  0  0
   25.3799  -32.2039  -16.0564 O   0  0  0  0  0  0  0  0  0  0  0  0
   25.5695  -33.4629  -16.2411 O   0  0  0  0  0  0  0  0  0  0  0  0
   22.1602  -28.9634  -18.7006 O   0  0  0  0  0  0  0  0  0  0  0  0
   22.0301  -33.0905  -12.6410 C   0  0  0  0  0  0  0  0  0  0  0  0
   22.6428  -32.2125  -13.5051 C   0  0  2  0  0  0  0  0  0  0  0  0
   23.7079  -32.9361  -14.3596 N   0  0  0  0  0  0  0  0  0  0  0  0
   24.3819  -31.8860  -15.0954 C   0  0  0  0  0  0  0  0  0  0  0  0
   22.9425  -33.8561  -15.2228 O   0  0  0  0  0  0  0  0  0  0  0  0
   22.8656  -35.0597  -14.8976 O   0  0  0  0  0  0  0  0  0  0  0  0
  2  1  1  0
  2  3  2  0
  4  5  1  0
  4  2  1  0
  6  5  1  0
  7  6  1  0
  8  9  1  1
  8 10  1  0
  8  7  1  0
 10 12  1  0
 10 11  2  0
 12 13  1  0
 13 14  1  6
 14 15  1  0
 15 16  1  0
 16 17  2  0
 16 20  1  0
 18 13  1  0
 19 18  2  0
 21 22  1  0
 23 22  1  1
 23 25  1  0
 23 24  1  0
 24 18  1  0
 25 27  1  0
 26 25  2  0
M  END
$$$$
