RES.pdb
     RDKit          3D

 27 26  0  0  1  0  0  0  0  0999 V2000
   14.9978  -14.0312  -12.8285 N   0  0  0  0  0  0  0  0  0  0  0  0
   14.8008  -14.6665  -14.0787 C   0  0  0  0  0  0  0  0  0  0  0  0
   13.9367  -15.6091  -14.2579 N   0  0  0  0  0  0  0  0  0  0  0  0
   15.5698  -14.2829  -15.2283 N   0  0  0  0  0  0  0  0  0  0  0  0
   16.4800  -13.1688  -15.1149 C   0  0  0  0  0  0  0  0  0  0  0  0
   16.0186  -11.9824  -15.9310 C   0  0  0  0  0  0  0  0  0  0  0  0
   16.8866  -10.7630  -15.7468 C   0  0  0  0  0  0  0  0  0  0  0  0
   16.4751   -9.7019  -16.7567 C   0  0  2  0  0  0  0  0  0  0  0  0
   16.5760  -10.3715  -18.0571 N   0  0  0  0  0  0  0  0  0  0  0  0
   17.4543   -8.5794  -16.7858 C   0  0  0  0  0  0  0  0  0  0  0  0
   18.4310   -8.5587  -17.5827 O   0  0  0  0  0  0  0  0  0  0  0  0
   13.8427  -16.0047  -15.2359 N   0  0  0  0  0  0  0  0  0  0  0  0
   17.3634   -7.4597  -15.9279 C   0  0  2  0  0  0  0  0  0  0  0  0
   18.2068   -6.3089  -15.9373 C   0  0  0  0  0  0  0  0  0  0  0  0
   17.6019   -5.0107  -16.1587 C   0  0  0  0  0  0  0  0  0  0  0  0
   18.5189   -3.8279  -16.0627 C   0  0  0  0  0  0  0  0  0  0  0  0
   17.8255   -2.5560  -16.2980 O   0  0  0  0  0  0  0  0  0  0  0  0
   16.8562   -2.1397  -15.6255 C   0  0  0  0  0  0  0  0  0  0  0  0
   19.1607   -6.3745  -14.8237 O   0  0  0  0  0  0  0  0  0  0  0  0
   18.7392   -6.4206  -13.6091 O   0  0  0  0  0  0  0  0  0  0  0  0
   18.2467   -1.7144  -17.3458 O   0  0  0  0  0  0  0  0  0  0  0  0
   23.1650   -6.8857  -15.4031 C   0  0  0  0  0  0  0  0  0  0  0  0
   22.6371   -7.3076  -14.2047 C   0  0  1  0  0  0  0  0  0  0  0  0
   21.4308   -6.4318  -13.7971 N   0  0  0  0  0  0  0  0  0  0  0  0
   20.5749   -6.3970  -14.9653 C   0  0  0  0  0  0  0  0  0  0  0  0
   22.0116   -5.1182  -13.4585 O   0  0  0  0  0  0  0  0  0  0  0  0
   21.8311   -4.1623  -14.2421 O   0  0  0  0  0  0  0  0  0  0  0  0
  2  1  1  0
  2  3  2  0
  4  5  1  0
  4  2  1  0
  6  5  1  0
  7  6  1  0
  8  9  1  6
  8 10  1  0
  8  7  1  0
 10 12  1  0
 10 11  2  0
 12 13  1  0
 13 14  1  6
 14 15  1  0
 15 16  1  0
 16 17  2  0
 16 20  1  0
 18 13  1  0
 19 18  2  0
 21 22  1  0
 23 22  1  1
 23 25  1  0
 23 24  1  0
 24 18  1  0
 25 27  1  0
 26 25  2  0
M  END
$$$$
