RES.pdb
     RDKit          3D

 27 26  0  0  1  0  0  0  0  0999 V2000
   29.8813  -21.5965   -8.8831 N   0  0  0  0  0  0  0  0  0  0  0  0
   30.5741  -22.0160  -10.0447 C   0  0  0  0  0  0  0  0  0  0  0  0
   31.7334  -22.5831  -10.0034 N   0  0  0  0  0  0  0  0  0  0  0  0
   30.0064  -21.8255  -11.3491 N   0  0  0  0  0  0  0  0  0  0  0  0
   28.6710  -21.2886  -11.4538 C   0  0  0  0  0  0  0  0  0  0  0  0
   28.2587  -21.0874  -12.8947 C   0  0  0  0  0  0  0  0  0  0  0  0
   26.8536  -20.5599  -13.0408 C   0  0  0  0  0  0  0  0  0  0  0  0
   25.9092  -21.7243  -13.3004 C   0  0  2  0  0  0  0  0  0  0  0  0
   26.5413  -22.4763  -14.3887 N   0  0  0  0  0  0  0  0  0  0  0  0
   24.5994  -21.2470  -13.8259 C   0  0  0  0  0  0  0  0  0  0  0  0
   24.4036  -21.0342  -15.0529 O   0  0  0  0  0  0  0  0  0  0  0  0
   32.1867  -22.8335  -10.9273 N   0  0  0  0  0  0  0  0  0  0  0  0
   23.4839  -20.9979  -12.9942 C   0  0  1  0  0  0  0  0  0  0  0  0
   22.1251  -20.8657  -13.4088 C   0  0  0  0  0  0  0  0  0  0  0  0
   21.0811  -21.0287  -12.4169 C   0  0  0  0  0  0  0  0  0  0  0  0
   19.6718  -21.0073  -12.9294 C   0  0  0  0  0  0  0  0  0  0  0  0
   18.6791  -21.1283  -11.8552 O   0  0  0  0  0  0  0  0  0  0  0  0
   17.5249  -20.6472  -11.8963 C   0  0  0  0  0  0  0  0  0  0  0  0
   21.9780  -19.6998  -14.2882 O   0  0  0  0  0  0  0  0  0  0  0  0
   22.2190  -18.5166  -13.8442 O   0  0  0  0  0  0  0  0  0  0  0  0
   19.0073  -21.8251  -10.6761 O   0  0  0  0  0  0  0  0  0  0  0  0
   20.4567  -20.0804  -18.0084 C   0  0  0  0  0  0  0  0  0  0  0  0
   21.2878  -18.9908  -17.8854 C   0  0  1  0  0  0  0  0  0  0  0  0
   21.3845  -18.5374  -16.4112 N   0  0  0  0  0  0  0  0  0  0  0  0
   21.5790  -19.7553  -15.6514 C   0  0  0  0  0  0  0  0  0  0  0  0
   20.0966  -17.8734  -16.1321 O   0  0  0  0  0  0  0  0  0  0  0  0
   19.3137  -18.4020  -15.3148 O   0  0  0  0  0  0  0  0  0  0  0  0
  2  1  1  0
  2  3  2  0
  4  5  1  0
  4  2  1  0
  6  5  1  0
  7  6  1  0
  8  9  1  6
  8 10  1  0
  8  7  1  0
 10 12  1  0
 10 11  2  0
 12 13  1  0
 13 14  1  6
 14 15  1  0
 15 16  1  0
 16 17  2  0
 16 20  1  0
 18 13  1  0
 19 18  2  0
 21 22  1  0
 23 22  1  6
 23 25  1  0
 23 24  1  0
 24 18  1  0
 25 27  1  0
 26 25  2  0
M  END
$$$$
