RES.pdb
     RDKit          3D

 27 26  0  0  1  0  0  0  0  0999 V2000
   19.0350  -26.0735  -15.0474 N   0  0  0  0  0  0  0  0  0  0  0  0
   18.3408  -25.3200  -14.0699 C   0  0  0  0  0  0  0  0  0  0  0  0
   17.2012  -25.6831  -13.5833 N   0  0  0  0  0  0  0  0  0  0  0  0
   18.8844  -24.0913  -13.5650 N   0  0  0  0  0  0  0  0  0  0  0  0
   19.9386  -23.4417  -14.3061 C   0  0  0  0  0  0  0  0  0  0  0  0
   19.5630  -22.0296  -14.6949 C   0  0  0  0  0  0  0  0  0  0  0  0
   20.4781  -20.9882  -14.1012 C   0  0  0  0  0  0  0  0  0  0  0  0
   21.9223  -21.3777  -14.3798 C   0  0  2  0  0  0  0  0  0  0  0  0
   22.2851  -22.2661  -13.2714 N   0  0  0  0  0  0  0  0  0  0  0  0
   22.8254  -20.1967  -14.2836 C   0  0  0  0  0  0  0  0  0  0  0  0
   23.3140  -19.8104  -13.1875 O   0  0  0  0  0  0  0  0  0  0  0  0
   16.7411  -25.0349  -12.8834 N   0  0  0  0  0  0  0  0  0  0  0  0
   23.2005  -19.4243  -15.4065 C   0  0  1  0  0  0  0  0  0  0  0  0
   24.1436  -18.3539  -15.4272 C   0  0  0  0  0  0  0  0  0  0  0  0
   25.5070  -18.6418  -15.8253 C   0  0  0  0  0  0  0  0  0  0  0  0
   25.7061  -19.0586  -17.2522 C   0  0  0  0  0  0  0  0  0  0  0  0
   27.1136  -19.3263  -17.5704 O   0  0  0  0  0  0  0  0  0  0  0  0
   28.0604  -19.2077  -16.7612 C   0  0  0  0  0  0  0  0  0  0  0  0
   23.5454  -17.1676  -16.0513 O   0  0  0  0  0  0  0  0  0  0  0  0
   22.6672  -17.2965  -16.9825 O   0  0  0  0  0  0  0  0  0  0  0  0
   27.4689  -19.7466  -18.8668 O   0  0  0  0  0  0  0  0  0  0  0  0
   23.3670  -12.3192  -16.4140 C   0  0  0  0  0  0  0  0  0  0  0  0
   23.9407  -13.4534  -15.8874 C   0  0  2  0  0  0  0  0  0  0  0  0
   23.2181  -14.7213  -16.3959 N   0  0  0  0  0  0  0  0  0  0  0  0
   23.8555  -15.8241  -15.7060 C   0  0  0  0  0  0  0  0  0  0  0  0
   23.4486  -14.7318  -17.8534 O   0  0  0  0  0  0  0  0  0  0  0  0
   24.4478  -15.3347  -18.2985 O   0  0  0  0  0  0  0  0  0  0  0  0
  2  1  1  0
  2  3  2  0
  4  5  1  0
  4  2  1  0
  6  5  1  0
  7  6  1  0
  8  9  1  1
  8 10  1  0
  8  7  1  0
 10 12  1  0
 10 11  2  0
 12 13  1  0
 13 14  1  1
 14 15  1  0
 15 16  1  0
 16 17  2  0
 16 20  1  0
 18 13  1  0
 19 18  2  0
 21 22  1  0
 23 22  1  1
 23 25  1  0
 23 24  1  0
 24 18  1  0
 25 27  1  0
 26 25  2  0
M  END
$$$$
