RES.pdb
     RDKit          3D

 27 26  0  0  1  0  0  0  0  0999 V2000
   25.4948  -16.2514  -16.2817 N   0  0  0  0  0  0  0  0  0  0  0  0
   26.6213  -15.8236  -17.0257 C   0  0  0  0  0  0  0  0  0  0  0  0
   27.0728  -16.4697  -18.0485 N   0  0  0  0  0  0  0  0  0  0  0  0
   27.3277  -14.6263  -16.6684 N   0  0  0  0  0  0  0  0  0  0  0  0
   26.6254  -13.5961  -15.9417 C   0  0  0  0  0  0  0  0  0  0  0  0
   25.7981  -12.7260  -16.8609 C   0  0  0  0  0  0  0  0  0  0  0  0
   25.1125  -11.5904  -16.1436 C   0  0  0  0  0  0  0  0  0  0  0  0
   23.6431  -11.9368  -15.9533 C   0  0  2  0  0  0  0  0  0  0  0  0
   23.3193  -12.8067  -17.0880 N   0  0  0  0  0  0  0  0  0  0  0  0
   22.7837  -10.7278  -16.0930 C   0  0  0  0  0  0  0  0  0  0  0  0
   22.8124   -9.9965  -17.1195 O   0  0  0  0  0  0  0  0  0  0  0  0
   27.9251  -16.0743  -18.5374 N   0  0  0  0  0  0  0  0  0  0  0  0
   21.8769  -10.3114  -15.0919 C   0  0  1  0  0  0  0  0  0  0  0  0
   21.0030   -9.1850  -15.1495 C   0  0  0  0  0  0  0  0  0  0  0  0
   19.6580   -9.3266  -14.6285 C   0  0  0  0  0  0  0  0  0  0  0  0
   18.8655  -10.4889  -15.1485 C   0  0  0  0  0  0  0  0  0  0  0  0
   17.5257  -10.5688  -14.5548 O   0  0  0  0  0  0  0  0  0  0  0  0
   16.7268  -11.5159  -14.7279 C   0  0  0  0  0  0  0  0  0  0  0  0
   21.7148   -7.9731  -14.7267 O   0  0  0  0  0  0  0  0  0  0  0  0
   22.5742   -8.0245  -13.7707 O   0  0  0  0  0  0  0  0  0  0  0  0
   17.0655   -9.5268  -13.7266 O   0  0  0  0  0  0  0  0  0  0  0  0
   22.3324   -4.7920  -17.0656 C   0  0  0  0  0  0  0  0  0  0  0  0
   21.9968   -4.4018  -15.7897 C   0  0  2  0  0  0  0  0  0  0  0  0
   22.2592   -5.5417  -14.7798 N   0  0  0  0  0  0  0  0  0  0  0  0
   21.5402   -6.6854  -15.3027 C   0  0  0  0  0  0  0  0  0  0  0  0
   21.7187   -5.0471  -13.4988 O   0  0  0  0  0  0  0  0  0  0  0  0
   20.6866   -5.5786  -13.0378 O   0  0  0  0  0  0  0  0  0  0  0  0
  2  1  1  0
  2  3  2  0
  4  5  1  0
  4  2  1  0
  6  5  1  0
  7  6  1  0
  8  9  1  6
  8 10  1  0
  8  7  1  0
 10 12  1  0
 10 11  2  0
 12 13  1  0
 13 14  1  6
 14 15  1  0
 15 16  1  0
 16 17  2  0
 16 20  1  0
 18 13  1  0
 19 18  2  0
 21 22  1  0
 23 22  1  6
 23 25  1  0
 23 24  1  0
 24 18  1  0
 25 27  1  0
 26 25  2  0
M  END
$$$$
