RES.pdb
     RDKit          3D

 27 26  0  0  1  0  0  0  0  0999 V2000
   25.6891  -24.2546  -14.5149 N   0  0  0  0  0  0  0  0  0  0  0  0
   25.4575  -23.5081  -15.6958 C   0  0  0  0  0  0  0  0  0  0  0  0
   26.2807  -23.4957  -16.6904 N   0  0  0  0  0  0  0  0  0  0  0  0
   24.2710  -22.7140  -15.8435 N   0  0  0  0  0  0  0  0  0  0  0  0
   23.2752  -22.7523  -14.7997 C   0  0  0  0  0  0  0  0  0  0  0  0
   22.4591  -24.0242  -14.8495 C   0  0  0  0  0  0  0  0  0  0  0  0
   21.3251  -24.0400  -13.8555 C   0  0  0  0  0  0  0  0  0  0  0  0
   20.5064  -25.3070  -14.0543 C   0  0  2  0  0  0  0  0  0  0  0  0
   19.9012  -25.1508  -15.3804 N   0  0  0  0  0  0  0  0  0  0  0  0
   19.3782  -25.3755  -13.0837 C   0  0  0  0  0  0  0  0  0  0  0  0
   18.3618  -24.6358  -13.1798 O   0  0  0  0  0  0  0  0  0  0  0  0
   26.0303  -22.8907  -17.5230 N   0  0  0  0  0  0  0  0  0  0  0  0
   19.3614  -26.2690  -11.9886 C   0  0  1  0  0  0  0  0  0  0  0  0
   18.3164  -26.4208  -11.0291 C   0  0  0  0  0  0  0  0  0  0  0  0
   17.7612  -27.7424  -10.8154 C   0  0  0  0  0  0  0  0  0  0  0  0
   16.6452  -27.8383   -9.8182 C   0  0  0  0  0  0  0  0  0  0  0  0
   16.2214  -29.2227   -9.5775 O   0  0  0  0  0  0  0  0  0  0  0  0
   15.1423  -29.5519   -9.0367 C   0  0  0  0  0  0  0  0  0  0  0  0
   18.6401  -25.6718   -9.8090 O   0  0  0  0  0  0  0  0  0  0  0  0
   19.7450  -25.8894   -9.1871 O   0  0  0  0  0  0  0  0  0  0  0  0
   17.0586  -30.2868   -9.9649 O   0  0  0  0  0  0  0  0  0  0  0  0
   16.9684  -22.9050   -6.1921 C   0  0  0  0  0  0  0  0  0  0  0  0
   16.8138  -23.4449   -7.4481 C   0  0  1  0  0  0  0  0  0  0  0  0
   18.1074  -24.1580   -7.9025 N   0  0  0  0  0  0  0  0  0  0  0  0
   17.8112  -24.6776   -9.2218 C   0  0  0  0  0  0  0  0  0  0  0  0
   18.3339  -25.2130   -6.8959 O   0  0  0  0  0  0  0  0  0  0  0  0
   17.8129  -26.3341   -7.0740 O   0  0  0  0  0  0  0  0  0  0  0  0
  2  1  1  0
  2  3  2  0
  4  5  1  0
  4  2  1  0
  6  5  1  0
  7  6  1  0
  8  9  1  6
  8 10  1  0
  8  7  1  0
 10 12  1  0
 10 11  2  0
 12 13  1  0
 13 14  1  6
 14 15  1  0
 15 16  1  0
 16 17  2  0
 16 20  1  0
 18 13  1  0
 19 18  2  0
 21 22  1  0
 23 22  1  6
 23 25  1  0
 23 24  1  0
 24 18  1  0
 25 27  1  0
 26 25  2  0
M  END
$$$$
