RES.pdb
     RDKit          3D

 27 26  0  0  1  0  0  0  0  0999 V2000
   29.4024  -21.6049   -9.4650 N   0  0  0  0  0  0  0  0  0  0  0  0
   30.4225  -21.8963  -10.4031 C   0  0  0  0  0  0  0  0  0  0  0  0
   31.6710  -21.6543  -10.1794 N   0  0  0  0  0  0  0  0  0  0  0  0
   30.1077  -22.4867  -11.6729 N   0  0  0  0  0  0  0  0  0  0  0  0
   28.9006  -22.0768  -12.3493 C   0  0  0  0  0  0  0  0  0  0  0  0
   28.6216  -20.6034  -12.1552 C   0  0  0  0  0  0  0  0  0  0  0  0
   27.4116  -20.1240  -12.9170 C   0  0  0  0  0  0  0  0  0  0  0  0
   26.1725  -20.8180  -12.3709 C   0  0  2  0  0  0  0  0  0  0  0  0
   26.6402  -22.1497  -11.9742 N   0  0  0  0  0  0  0  0  0  0  0  0
   25.1598  -21.0312  -13.4427 C   0  0  0  0  0  0  0  0  0  0  0  0
   25.3452  -21.8386  -14.3929 O   0  0  0  0  0  0  0  0  0  0  0  0
   32.3618  -21.9152  -10.9387 N   0  0  0  0  0  0  0  0  0  0  0  0
   23.9223  -20.3488  -13.4756 C   0  0  1  0  0  0  0  0  0  0  0  0
   22.8523  -20.5693  -14.3932 C   0  0  0  0  0  0  0  0  0  0  0  0
   21.7645  -21.4381  -13.9902 C   0  0  0  0  0  0  0  0  0  0  0  0
   21.3763  -21.3850  -12.5425 C   0  0  0  0  0  0  0  0  0  0  0  0
   20.1874  -22.1934  -12.2474 O   0  0  0  0  0  0  0  0  0  0  0  0
   20.1930  -23.4344  -12.0890 C   0  0  0  0  0  0  0  0  0  0  0  0
   22.4461  -19.2998  -15.0078 O   0  0  0  0  0  0  0  0  0  0  0  0
   22.3851  -18.2263  -14.3016 O   0  0  0  0  0  0  0  0  0  0  0  0
   18.9307  -21.5692  -12.1273 O   0  0  0  0  0  0  0  0  0  0  0  0
   21.1994  -16.8313  -19.0061 C   0  0  0  0  0  0  0  0  0  0  0  0
   21.5526  -18.0174  -18.4049 C   0  0  2  0  0  0  0  0  0  0  0  0
   21.6588  -17.8462  -16.8727 N   0  0  0  0  0  0  0  0  0  0  0  0
   22.1005  -19.1335  -16.3766 C   0  0  0  0  0  0  0  0  0  0  0  0
   20.2962  -17.4870  -16.4346 O   0  0  0  0  0  0  0  0  0  0  0  0
   19.4603  -18.3995  -16.2649 O   0  0  0  0  0  0  0  0  0  0  0  0
  2  1  1  0
  2  3  2  0
  4  5  1  0
  4  2  1  0
  6  5  1  0
  7  6  1  0
  8  9  1  6
  8 10  1  0
  8  7  1  0
 10 12  1  0
 10 11  2  0
 12 13  1  0
 13 14  1  6
 14 15  1  0
 15 16  1  0
 16 17  2  0
 16 20  1  0
 18 13  1  0
 19 18  2  0
 21 22  1  0
 23 22  1  6
 23 25  1  0
 23 24  1  0
 24 18  1  0
 25 27  1  0
 26 25  2  0
M  END
$$$$
