GVL.pdb
     RDKit          3D

 20 19  0  0  1  0  0  0  0  0999 V2000
    5.0806  -18.5441   20.9044 N   0  0  0  0  0  0  0  0  0  0  0  0
    5.2349  -17.2697   21.5460 C   0  0  0  0  0  0  0  0  0  0  0  0
    6.6092  -16.7278   21.4074 C   0  0  0  0  0  0  0  0  0  0  0  0
    7.5704  -17.5016   21.1426 O   0  0  0  0  0  0  0  0  0  0  0  0
    7.6120  -13.5272   19.4567 C   0  0  0  0  0  0  0  0  0  0  0  0
    8.2618  -13.4359   20.8237 C   0  0  1  0  0  0  0  0  0  0  0  0
    7.5997  -12.3887   21.6868 C   0  0  0  0  0  0  0  0  0  0  0  0
    8.2347  -14.8038   21.4687 C   0  0  2  0  0  0  0  0  0  0  0  0
    6.9181  -15.3526   21.5587 N   0  0  0  0  0  0  0  0  0  0  0  0
    8.8105  -14.7185   22.8340 C   0  0  0  0  0  0  0  0  0  0  0  0
   10.0072  -14.4336   22.9951 O   0  0  0  0  0  0  0  0  0  0  0  0
    5.7779  -12.3504   26.4756 C   0  0  0  0  0  0  0  0  0  0  0  0
    7.0198  -12.8345   25.7538 C   0  0  1  0  0  0  0  0  0  0  0  0
    8.1996  -11.8970   26.0555 C   0  0  0  0  0  0  0  0  0  0  0  0
    7.3903  -14.2366   26.1665 C   0  0  0  0  0  0  0  0  0  0  0  0
    8.5404  -14.7855   25.3536 C   0  0  2  0  0  0  0  0  0  0  0  0
    8.0313  -14.9551   24.0002 N   0  0  0  0  0  0  0  0  0  0  0  0
    8.9470  -16.1282   25.8294 C   0  0  0  0  0  0  0  0  0  0  0  0
    9.5022  -16.3027   26.9671 O   0  0  0  0  0  0  0  0  0  0  0  0
    8.7683  -17.3047   25.1029 O   0  0  0  0  0  0  0  0  0  0  0  0
  2  1  1  0
  3  2  1  0
  4  3  2  0
  6  5  1  6
  6  8  1  0
  7  6  1  0
  8 10  1  0
  8  9  1  1
  9  3  1  0
 10 17  1  0
 11 10  2  0
 13 12  1  1
 13 14  1  0
 15 13  1  0
 16 15  1  1
 17 16  1  0
 18 20  1  0
 18 16  1  0
 19 18  2  0
M  END
$$$$
