GVL.pdb
     RDKit          3D

 20 19  0  0  1  0  0  0  0  0999 V2000
    8.2440  -12.3971   18.1395 N   0  0  0  0  0  0  0  0  0  0  0  0
    9.0473  -13.2461   18.9720 C   0  0  0  0  0  0  0  0  0  0  0  0
    8.2557  -13.9083   20.0380 C   0  0  0  0  0  0  0  0  0  0  0  0
    7.0567  -13.5691   20.2385 O   0  0  0  0  0  0  0  0  0  0  0  0
    7.2734  -17.4471   20.4504 C   0  0  0  0  0  0  0  0  0  0  0  0
    8.0275  -17.1046   21.7205 C   0  0  1  0  0  0  0  0  0  0  0  0
    9.4217  -17.6845   21.7146 C   0  0  0  0  0  0  0  0  0  0  0  0
    8.0382  -15.6017   21.8909 C   0  0  2  0  0  0  0  0  0  0  0  0
    8.7793  -14.9293   20.8704 N   0  0  0  0  0  0  0  0  0  0  0  0
    8.6231  -15.2575   23.2109 C   0  0  0  0  0  0  0  0  0  0  0  0
    9.8458  -15.0852   23.3312 O   0  0  0  0  0  0  0  0  0  0  0  0
    5.7608  -12.1769   26.6700 C   0  0  0  0  0  0  0  0  0  0  0  0
    6.9312  -12.7991   25.9345 C   0  0  1  0  0  0  0  0  0  0  0  0
    8.1679  -11.8955   26.0592 C   0  0  0  0  0  0  0  0  0  0  0  0
    7.2656  -14.1649   26.4787 C   0  0  0  0  0  0  0  0  0  0  0  0
    8.3729  -14.8348   25.6977 C   0  0  2  0  0  0  0  0  0  0  0  0
    7.8236  -15.1119   24.3783 N   0  0  0  0  0  0  0  0  0  0  0  0
    8.7401  -16.1414   26.2916 C   0  0  0  0  0  0  0  0  0  0  0  0
    8.1855  -17.2317   25.9219 O   0  0  0  0  0  0  0  0  0  0  0  0
    9.7027  -16.3075   27.2864 O   0  0  0  0  0  0  0  0  0  0  0  0
  2  1  1  0
  3  2  1  0
  4  3  2  0
  6  5  1  6
  6  8  1  0
  7  6  1  0
  8 10  1  0
  8  9  1  6
  9  3  1  0
 10 17  1  0
 11 10  2  0
 13 12  1  1
 13 14  1  0
 15 13  1  0
 16 15  1  1
 17 16  1  0
 18 20  1  0
 18 16  1  0
 19 18  2  0
M  END
$$$$
