GVL.pdb
     RDKit          3D

 20 19  0  0  1  0  0  0  0  0999 V2000
    8.0491  -12.0433   18.7906 N   0  0  0  0  0  0  0  0  0  0  0  0
    8.9249  -13.0475   19.3235 C   0  0  0  0  0  0  0  0  0  0  0  0
    8.3023  -13.8129   20.4316 C   0  0  0  0  0  0  0  0  0  0  0  0
    7.2190  -13.4165   20.9435 O   0  0  0  0  0  0  0  0  0  0  0  0
    7.8059  -18.0476   22.8889 C   0  0  0  0  0  0  0  0  0  0  0  0
    8.4660  -17.2864   21.7557 C   0  0  1  0  0  0  0  0  0  0  0  0
    7.9579  -17.7410   20.4083 C   0  0  0  0  0  0  0  0  0  0  0  0
    8.2514  -15.8050   21.9734 C   0  0  2  0  0  0  0  0  0  0  0  0
    8.8667  -14.9981   20.9669 N   0  0  0  0  0  0  0  0  0  0  0  0
    8.7974  -15.4152   23.2974 C   0  0  0  0  0  0  0  0  0  0  0  0
   10.0222  -15.4043   23.4940 O   0  0  0  0  0  0  0  0  0  0  0  0
    5.7526  -12.0622   26.3917 C   0  0  0  0  0  0  0  0  0  0  0  0
    6.9553  -12.7116   25.7363 C   0  0  1  0  0  0  0  0  0  0  0  0
    8.1575  -11.7555   25.7843 C   0  0  0  0  0  0  0  0  0  0  0  0
    7.3290  -14.0032   26.4186 C   0  0  0  0  0  0  0  0  0  0  0  0
    8.4576  -14.7169   25.7103 C   0  0  2  0  0  0  0  0  0  0  0  0
    7.9568  -15.0428   24.3827 N   0  0  0  0  0  0  0  0  0  0  0  0
    8.7851  -16.0014   26.3717 C   0  0  0  0  0  0  0  0  0  0  0  0
    9.6259  -16.0725   27.3314 O   0  0  0  0  0  0  0  0  0  0  0  0
    8.2227  -17.2285   26.0228 O   0  0  0  0  0  0  0  0  0  0  0  0
  2  1  1  0
  3  2  1  0
  4  3  2  0
  6  5  1  1
  6  8  1  0
  7  6  1  0
  8 10  1  0
  8  9  1  6
  9  3  1  0
 10 17  1  0
 11 10  2  0
 13 12  1  1
 13 14  1  0
 15 13  1  0
 16 15  1  1
 17 16  1  0
 18 20  1  0
 18 16  1  0
 19 18  2  0
M  END
$$$$
