GVL.pdb
     RDKit          3D

 20 19  0  0  1  0  0  0  0  0999 V2000
    7.8119  -12.6589   18.0709 N   0  0  0  0  0  0  0  0  0  0  0  0
    8.7625  -13.2321   18.9803 C   0  0  0  0  0  0  0  0  0  0  0  0
    8.1124  -14.0013   20.0699 C   0  0  0  0  0  0  0  0  0  0  0  0
    6.8536  -14.0526   20.1438 O   0  0  0  0  0  0  0  0  0  0  0  0
    7.8347  -17.4098   20.5569 C   0  0  0  0  0  0  0  0  0  0  0  0
    8.4852  -16.9956   21.8625 C   0  0  1  0  0  0  0  0  0  0  0  0
    9.9542  -17.3442   21.8886 C   0  0  0  0  0  0  0  0  0  0  0  0
    8.2483  -15.5173   22.0778 C   0  0  2  0  0  0  0  0  0  0  0  0
    8.8406  -14.7034   21.0631 N   0  0  0  0  0  0  0  0  0  0  0  0
    8.8002  -15.1144   23.3954 C   0  0  0  0  0  0  0  0  0  0  0  0
   10.0004  -14.8232   23.5119 O   0  0  0  0  0  0  0  0  0  0  0  0
    5.5982  -12.2482   26.6576 C   0  0  0  0  0  0  0  0  0  0  0  0
    6.8235  -12.7933   25.9510 C   0  0  1  0  0  0  0  0  0  0  0  0
    7.9419  -11.7393   25.9543 C   0  0  0  0  0  0  0  0  0  0  0  0
    7.3323  -14.0493   26.6121 C   0  0  0  0  0  0  0  0  0  0  0  0
    8.5038  -14.6505   25.8697 C   0  0  2  0  0  0  0  0  0  0  0  0
    7.9932  -15.0448   24.5646 N   0  0  0  0  0  0  0  0  0  0  0  0
    8.9877  -15.8847   26.5309 C   0  0  0  0  0  0  0  0  0  0  0  0
    8.5708  -17.0431   26.1882 O   0  0  0  0  0  0  0  0  0  0  0  0
    9.9223  -15.9051   27.5653 O   0  0  0  0  0  0  0  0  0  0  0  0
  2  1  1  0
  3  2  1  0
  4  3  2  0
  6  5  1  6
  6  8  1  0
  7  6  1  0
  8 10  1  0
  8  9  1  6
  9  3  1  0
 10 17  1  0
 11 10  2  0
 13 12  1  1
 13 14  1  0
 15 13  1  0
 16 15  1  1
 17 16  1  0
 18 20  1  0
 18 16  1  0
 19 18  2  0
M  END
$$$$
