GVL.pdb
     RDKit          3D

 20 19  0  0  1  0  0  0  0  0999 V2000
    6.1443  -20.1965   23.6314 N   0  0  0  0  0  0  0  0  0  0  0  0
    5.7759  -18.8250   23.4248 C   0  0  0  0  0  0  0  0  0  0  0  0
    6.9153  -17.9954   22.9611 C   0  0  0  0  0  0  0  0  0  0  0  0
    8.0975  -18.4198   23.0833 O   0  0  0  0  0  0  0  0  0  0  0  0
    6.3445  -13.9759   21.5111 C   0  0  0  0  0  0  0  0  0  0  0  0
    7.3720  -14.8834   20.8631 C   0  0  1  0  0  0  0  0  0  0  0  0
    8.5304  -14.0982   20.2958 C   0  0  0  0  0  0  0  0  0  0  0  0
    7.8242  -15.9103   21.8773 C   0  0  2  0  0  0  0  0  0  0  0  0
    6.7525  -16.7166   22.3713 N   0  0  0  0  0  0  0  0  0  0  0  0
    8.4715  -15.2230   23.0226 C   0  0  0  0  0  0  0  0  0  0  0  0
    9.0113  -14.1167   22.8685 O   0  0  0  0  0  0  0  0  0  0  0  0
    8.5118  -12.0455   26.6336 C   0  0  0  0  0  0  0  0  0  0  0  0
    7.5158  -13.1748   26.8090 C   0  0  1  0  0  0  0  0  0  0  0  0
    6.1108  -12.6009   27.0503 C   0  0  0  0  0  0  0  0  0  0  0  0
    7.4769  -14.0731   25.5987 C   0  0  0  0  0  0  0  0  0  0  0  0
    8.6666  -15.0038   25.5404 C   0  0  2  0  0  0  0  0  0  0  0  0
    8.5025  -15.7906   24.3265 N   0  0  0  0  0  0  0  0  0  0  0  0
    8.6628  -15.9585   26.6732 C   0  0  0  0  0  0  0  0  0  0  0  0
    7.8693  -16.9595   26.7109 O   0  0  0  0  0  0  0  0  0  0  0  0
    9.5031  -15.8631   27.7816 O   0  0  0  0  0  0  0  0  0  0  0  0
  2  1  1  0
  3  2  1  0
  4  3  2  0
  6  5  1  1
  6  8  1  0
  7  6  1  0
  8 10  1  0
  8  9  1  1
  9  3  1  0
 10 17  1  0
 11 10  2  0
 13 12  1  6
 13 14  1  0
 15 13  1  0
 16 15  1  1
 17 16  1  0
 18 20  1  0
 18 16  1  0
 19 18  2  0
M  END
$$$$
