GVL.pdb
     RDKit          3D

 20 19  0  0  1  0  0  0  0  0999 V2000
    4.9663  -18.6412   21.2270 N   0  0  0  0  0  0  0  0  0  0  0  0
    5.0772  -17.2991   21.7228 C   0  0  0  0  0  0  0  0  0  0  0  0
    6.4646  -16.7790   21.6460 C   0  0  0  0  0  0  0  0  0  0  0  0
    7.4403  -17.5794   21.6347 O   0  0  0  0  0  0  0  0  0  0  0  0
    7.4846  -13.7363   19.3462 C   0  0  0  0  0  0  0  0  0  0  0  0
    8.1251  -13.5471   20.7075 C   0  0  1  0  0  0  0  0  0  0  0  0
    7.4590  -12.4391   21.4878 C   0  0  0  0  0  0  0  0  0  0  0  0
    8.0908  -14.8646   21.4498 C   0  0  2  0  0  0  0  0  0  0  0  0
    6.7709  -15.3963   21.5826 N   0  0  0  0  0  0  0  0  0  0  0  0
    8.6715  -14.6848   22.8039 C   0  0  0  0  0  0  0  0  0  0  0  0
    9.8688  -14.3900   22.9406 O   0  0  0  0  0  0  0  0  0  0  0  0
    5.8388  -12.2276   26.6640 C   0  0  0  0  0  0  0  0  0  0  0  0
    7.0342  -12.7302   25.8790 C   0  0  1  0  0  0  0  0  0  0  0  0
    8.2711  -11.8793   26.2071 C   0  0  0  0  0  0  0  0  0  0  0  0
    7.3360  -14.1740   26.1917 C   0  0  0  0  0  0  0  0  0  0  0  0
    8.4483  -14.7243   25.3286 C   0  0  2  0  0  0  0  0  0  0  0  0
    7.8962  -14.8394   23.9864 N   0  0  0  0  0  0  0  0  0  0  0  0
    8.8356  -16.0904   25.7509 C   0  0  0  0  0  0  0  0  0  0  0  0
    9.4786  -16.3063   26.8340 O   0  0  0  0  0  0  0  0  0  0  0  0
    8.5439  -17.2465   25.0283 O   0  0  0  0  0  0  0  0  0  0  0  0
  2  1  1  0
  3  2  1  0
  4  3  2  0
  6  5  1  6
  6  8  1  0
  7  6  1  0
  8 10  1  0
  8  9  1  1
  9  3  1  0
 10 17  1  0
 11 10  2  0
 13 12  1  1
 13 14  1  0
 15 13  1  0
 16 15  1  1
 17 16  1  0
 18 20  1  0
 18 16  1  0
 19 18  2  0
M  END
$$$$
